PAT-GYR-359-4
 OpenBabel03242009303D

 38 39  0  0  0  0  0  0  0  0999 V2000
    8.2222   -0.5769   21.0458 C   0  0  0  0  0  0  0  0  0  0  0  0
    7.6571    0.0717   20.2075 C   0  0  0  0  0  0  0  0  0  0  0  0
    8.1641   -2.1776   22.8937 C   0  0  0  0  0  0  0  0  0  0  0  0
   10.2819   -1.2701   22.1666 C   0  0  0  0  0  0  0  0  0  0  0  0
    8.8209   -2.9305   23.8670 C   0  0  0  0  0  0  0  0  0  0  0  0
   10.9387   -2.0231   23.1400 C   0  0  0  0  0  0  0  0  0  0  0  0
    8.8946   -1.3474   22.0435 C   0  0  0  0  0  0  0  0  0  0  0  0
   10.2081   -2.8533   23.9901 C   0  0  0  0  0  0  0  0  0  0  0  0
    6.9777    0.8493   19.1996 C   0  0  0  0  0  0  0  0  0  0  0  0
    9.2445   -4.9733   26.3239 C   0  0  0  0  0  0  0  0  0  0  0  0
    9.0609   -4.4665   28.7395 C   0  0  0  0  0  0  0  0  0  0  0  0
    7.2406   -5.7716   27.7086 C   0  0  0  0  0  0  0  0  0  0  0  0
    8.0027   -3.7004   29.5176 C   0  0  0  0  0  0  0  0  0  0  0  0
    6.2662   -4.9593   28.5551 C   0  0  0  0  0  0  0  0  0  0  0  0
   10.9149   -3.6626   25.0388 C   0  0  0  0  0  0  0  0  0  0  0  0
    8.4998   -5.0389   27.5136 N   0  0  0  0  0  0  0  0  0  0  0  0
    6.5163    2.0747   19.6146 N   0  0  0  0  0  0  0  0  0  0  0  0
   10.0887   -3.8754   26.2060 N   0  0  0  0  0  0  0  0  0  0  0  0
    6.8531    0.3940   18.0694 O   0  0  0  0  0  0  0  0  0  0  0  0
    9.1582   -5.8250   25.4330 O   0  0  0  0  0  0  0  0  0  0  0  0
    6.8797   -4.5451   29.7763 O   0  0  0  0  0  0  0  0  0  0  0  0
    7.0824   -2.2499   22.8088 H   0  0  0  0  0  0  0  0  0  0  0  0
   10.8654   -0.6264   21.5126 H   0  0  0  0  0  0  0  0  0  0  0  0
    8.2437   -3.5753   24.5244 H   0  0  0  0  0  0  0  0  0  0  0  0
   12.0196   -1.9552   23.2299 H   0  0  0  0  0  0  0  0  0  0  0  0
    9.9157   -3.8196   28.5215 H   0  0  0  0  0  0  0  0  0  0  0  0
    9.4239   -5.3136   29.3338 H   0  0  0  0  0  0  0  0  0  0  0  0
    7.5029   -6.7043   28.2209 H   0  0  0  0  0  0  0  0  0  0  0  0
    6.7566   -6.0203   26.7632 H   0  0  0  0  0  0  0  0  0  0  0  0
    8.4080   -3.3826   30.4835 H   0  0  0  0  0  0  0  0  0  0  0  0
    7.6770   -2.8014   28.9812 H   0  0  0  0  0  0  0  0  0  0  0  0
    5.8998   -4.0809   28.0104 H   0  0  0  0  0  0  0  0  0  0  0  0
    5.3977   -5.5740   28.8122 H   0  0  0  0  0  0  0  0  0  0  0  0
   11.1988   -4.6438   24.6430 H   0  0  0  0  0  0  0  0  0  0  0  0
   11.8343   -3.1653   25.3656 H   0  0  0  0  0  0  0  0  0  0  0  0
    6.6445    2.4114   20.5639 H   0  0  0  0  0  0  0  0  0  0  0  0
    6.0268    2.6920   18.9753 H   0  0  0  0  0  0  0  0  0  0  0  0
   10.1263   -3.2036   26.9614 H   0  0  0  0  0  0  0  0  0  0  0  0
  1  2  3  0  0  0  0
  1  7  1  0  0  0  0
  2  9  1  0  0  0  0
  3  5  2  0  0  0  0
  3  7  1  0  0  0  0
  3 22  1  0  0  0  0
  4  6  1  0  0  0  0
  4  7  2  0  0  0  0
  4 23  1  0  0  0  0
  5  8  1  0  0  0  0
  5 24  1  0  0  0  0
  6  8  2  0  0  0  0
  6 25  1  0  0  0  0
  8 15  1  0  0  0  0
  9 17  1  0  0  0  0
  9 19  2  0  0  0  0
 10 16  1  0  0  0  0
 10 18  1  0  0  0  0
 10 20  2  0  0  0  0
 11 13  1  0  0  0  0
 11 16  1  0  0  0  0
 11 26  1  0  0  0  0
 11 27  1  0  0  0  0
 12 14  1  0  0  0  0
 12 16  1  0  0  0  0
 12 28  1  0  0  0  0
 12 29  1  0  0  0  0
 13 21  1  0  0  0  0
 13 30  1  0  0  0  0
 13 31  1  0  0  0  0
 14 21  1  0  0  0  0
 14 32  1  0  0  0  0
 14 33  1  0  0  0  0
 15 18  1  0  0  0  0
 15 34  1  0  0  0  0
 15 35  1  0  0  0  0
 17 36  1  0  0  0  0
 17 37  1  0  0  0  0
 18 38  1  0  0  0  0
M  END
>  <Chemgauss4 Score>
-4.57876825332642

>  <Number of Confs>
77

$$$$
