KIM-UNI-60f-7
 OpenBabel03242009303D

 41 43  0  0  1  0  0  0  0  0999 V2000
    5.9883   -5.5960   27.5907 C   0  0  0  0  0  0  0  0  0  0  0  0
    5.1063   -6.1678   26.6880 C   0  0  0  0  0  0  0  0  0  0  0  0
    6.3652   -5.4878   24.8905 C   0  0  0  0  0  0  0  0  0  0  0  0
    7.1066   -4.9436   27.0838 C   0  0  0  0  0  0  0  0  0  0  0  0
    7.3060   -4.8839   25.7090 C   0  0  0  0  0  0  0  0  0  0  0  0
   10.7641   -3.0162   24.1679 C   0  0  0  0  0  0  0  0  0  0  0  0
   10.8070   -4.3192   24.4451 C   0  0  0  0  0  0  0  0  0  0  0  0
    9.5561   -2.2254   24.3177 C   0  0  0  0  0  0  0  0  0  0  0  0
    8.4427   -2.8500   24.7836 C   0  0  0  0  0  0  0  0  0  0  0  0
    9.6074   -5.0112   24.9680 C   0  0  0  0  0  0  0  0  0  0  0  0
   11.3269   -0.8377   22.3275 C   0  0  0  0  0  0  0  0  0  0  0  0
    7.1321   -2.0815   24.8286 C   0  0  0  0  0  0  0  0  0  0  0  0
    7.1256   -0.8625   23.9087 C   0  0  0  0  0  0  0  0  0  0  0  0
    8.3786   -0.0270   24.1134 C   0  0  0  0  0  0  0  0  0  0  0  0
    8.0736   -4.3176   28.0344 C   0  0  0  0  0  0  0  0  0  0  0  0
   10.7811   -0.1446   23.5533 C   0  0  0  0  0  0  0  0  0  0  0  0
    5.2665   -6.1304   25.3461 N   0  0  0  0  0  0  0  0  0  0  0  0
   12.6063   -0.7837   22.1162 N   0  0  0  0  0  0  0  0  0  0  0  0
    8.4494   -4.2198   25.1341 N   0  0  0  0  0  0  0  0  0  0  0  0
    9.5735   -0.8635   23.9580 N   0  0  0  0  0  0  0  0  0  0  0  0
   10.4361   -1.4951   21.5199 N   0  0  0  0  0  0  0  0  0  0  0  0
    9.7226   -6.2030   25.2580 O   0  0  0  0  0  0  0  0  0  0  0  0
    5.8035   -5.6602   28.6577 H   0  0  0  0  0  0  0  0  0  0  0  0
    4.2186   -6.6880   27.0324 H   0  0  0  0  0  0  0  0  0  0  0  0
    6.4657   -5.4753   23.8092 H   0  0  0  0  0  0  0  0  0  0  0  0
   11.6811   -2.5394   23.8394 H   0  0  0  0  0  0  0  0  0  0  0  0
   11.7044   -4.9041   24.2798 H   0  0  0  0  0  0  0  0  0  0  0  0
    6.3170   -2.7622   24.5530 H   0  0  0  0  0  0  0  0  0  0  0  0
    6.9273   -1.7205   25.8432 H   0  0  0  0  0  0  0  0  0  0  0  0
    7.0593   -1.1874   22.8640 H   0  0  0  0  0  0  0  0  0  0  0  0
    6.2364   -0.2500   24.1076 H   0  0  0  0  0  0  0  0  0  0  0  0
    8.4165    0.7905   23.3834 H   0  0  0  0  0  0  0  0  0  0  0  0
    8.3409    0.4217   25.1130 H   0  0  0  0  0  0  0  0  0  0  0  0
    8.8505   -5.0381   28.3153 H   0  0  0  0  0  0  0  0  0  0  0  0
    8.5562   -3.4395   27.5880 H   0  0  0  0  0  0  0  0  0  0  0  0
    7.5680   -3.9753   28.9459 H   0  0  0  0  0  0  0  0  0  0  0  0
   10.5146    0.8916   23.3298 H   0  0  0  0  0  0  0  0  0  0  0  0
   11.4988   -0.1775   24.3768 H   0  0  0  0  0  0  0  0  0  0  0  0
   12.8205   -1.3017   21.2569 H   0  0  0  0  0  0  0  0  0  0  0  0
    9.4455   -1.5137   21.7373 H   0  0  0  0  0  0  0  0  0  0  0  0
   10.7327   -1.9805   20.6800 H   0  0  0  0  0  0  0  0  0  0  0  0
  1  2  2  0  0  0  0
  1  4  1  0  0  0  0
  1 23  1  0  0  0  0
  2 17  1  0  0  0  0
  2 24  1  0  0  0  0
  3  5  1  0  0  0  0
  3 17  2  0  0  0  0
  3 25  1  0  0  0  0
  4  5  2  0  0  0  0
  4 15  1  0  0  0  0
  5 19  1  0  0  0  0
  6  7  2  0  0  0  0
  6  8  1  0  0  0  0
  6 26  1  0  0  0  0
  7 10  1  0  0  0  0
  7 27  1  0  0  0  0
  8  9  2  0  0  0  0
  8 20  1  0  0  0  0
  9 12  1  0  0  0  0
  9 19  1  0  0  0  0
 10 19  1  0  0  0  0
 10 22  2  0  0  0  0
 11 16  1  0  0  0  0
 11 18  2  0  0  0  0
 11 21  1  0  0  0  0
 12 13  1  0  0  0  0
 12 28  1  0  0  0  0
 12 29  1  0  0  0  0
 13 14  1  0  0  0  0
 13 30  1  0  0  0  0
 13 31  1  0  0  0  0
 14 20  1  0  0  0  0
 14 32  1  0  0  0  0
 14 33  1  0  0  0  0
 15 34  1  0  0  0  0
 15 35  1  0  0  0  0
 15 36  1  0  0  0  0
 16 20  1  0  0  0  0
 16 37  1  0  0  0  0
 16 38  1  0  0  0  0
 18 39  1  0  0  0  0
 21 40  1  0  0  0  0
 21 41  1  0  0  0  0
M  END
>  <Chemgauss4 Score>
-5.50890779495239

>  <Number of Confs>
10

$$$$
