CHR-SOS-6c4-11
 OpenBabel03242009303D

 38 40  0  0  0  0  0  0  0  0999 V2000
    9.3861   -0.3567   21.3006 C   0  0  0  0  0  0  0  0  0  0  0  0
   10.3138   -0.6880   21.9877 C   0  0  0  0  0  0  0  0  0  0  0  0
    6.0790    0.9682   20.2196 C   0  0  0  0  0  0  0  0  0  0  0  0
    7.1353    0.5916   21.0416 C   0  0  0  0  0  0  0  0  0  0  0  0
    8.7283   -6.4972   27.0205 C   0  0  0  0  0  0  0  0  0  0  0  0
    6.2181    0.7738   18.8548 C   0  0  0  0  0  0  0  0  0  0  0  0
    7.6770   -5.7334   27.5012 C   0  0  0  0  0  0  0  0  0  0  0  0
    8.3226   -0.1131   19.1051 C   0  0  0  0  0  0  0  0  0  0  0  0
    8.3276   -3.9036   26.2738 C   0  0  0  0  0  0  0  0  0  0  0  0
    8.2822    0.0400   20.4816 C   0  0  0  0  0  0  0  0  0  0  0  0
    9.6067   -5.9028   26.1213 C   0  0  0  0  0  0  0  0  0  0  0  0
    9.4096   -4.5815   25.7358 C   0  0  0  0  0  0  0  0  0  0  0  0
   10.1960   -2.6193   24.3531 C   0  0  0  0  0  0  0  0  0  0  0  0
   12.1842    0.0144   23.5234 C   0  0  0  0  0  0  0  0  0  0  0  0
   12.8077   -0.6746   22.3493 C   0  0  0  0  0  0  0  0  0  0  0  0
   11.4252   -1.0839   22.8101 C   0  0  0  0  0  0  0  0  0  0  0  0
   10.7493   -6.7029   25.5876 C   0  0  0  0  0  0  0  0  0  0  0  0
    7.3166    0.2409   18.2743 N   0  0  0  0  0  0  0  0  0  0  0  0
    7.4531   -4.4473   27.1498 N   0  0  0  0  0  0  0  0  0  0  0  0
   10.2748   -3.9329   24.8240 N   0  0  0  0  0  0  0  0  0  0  0  0
   11.2450   -2.3436   23.4538 N   0  0  0  0  0  0  0  0  0  0  0  0
    9.3474   -1.7831   24.6535 O   0  0  0  0  0  0  0  0  0  0  0  0
    5.1747    1.3996   20.6333 H   0  0  0  0  0  0  0  0  0  0  0  0
    7.0508    0.7343   22.1160 H   0  0  0  0  0  0  0  0  0  0  0  0
    8.8543   -7.5256   27.3416 H   0  0  0  0  0  0  0  0  0  0  0  0
    5.4230    1.0514   18.1711 H   0  0  0  0  0  0  0  0  0  0  0  0
    6.9640   -6.1503   28.2049 H   0  0  0  0  0  0  0  0  0  0  0  0
    9.1889   -0.5381   18.6058 H   0  0  0  0  0  0  0  0  0  0  0  0
    8.1208   -2.8703   26.0112 H   0  0  0  0  0  0  0  0  0  0  0  0
   12.5942   -0.1962   24.5046 H   0  0  0  0  0  0  0  0  0  0  0  0
   11.8680    1.0431   23.3928 H   0  0  0  0  0  0  0  0  0  0  0  0
   12.9100   -0.1085   21.4305 H   0  0  0  0  0  0  0  0  0  0  0  0
   13.6357   -1.3469   22.5436 H   0  0  0  0  0  0  0  0  0  0  0  0
   10.4528   -7.2228   24.6693 H   0  0  0  0  0  0  0  0  0  0  0  0
   11.6114   -6.0625   25.3641 H   0  0  0  0  0  0  0  0  0  0  0  0
   11.0864   -7.4486   26.3184 H   0  0  0  0  0  0  0  0  0  0  0  0
   11.0463   -4.4941   24.4719 H   0  0  0  0  0  0  0  0  0  0  0  0
   11.9161   -3.0901   23.2509 H   0  0  0  0  0  0  0  0  0  0  0  0
  1  2  3  0  0  0  0
  1 10  1  0  0  0  0
  2 16  1  0  0  0  0
  3  4  2  0  0  0  0
  3  6  1  0  0  0  0
  3 23  1  0  0  0  0
  4 10  1  0  0  0  0
  4 24  1  0  0  0  0
  5  7  2  0  0  0  0
  5 11  1  0  0  0  0
  5 25  1  0  0  0  0
  6 18  2  0  0  0  0
  6 26  1  0  0  0  0
  7 19  1  0  0  0  0
  7 27  1  0  0  0  0
  8 10  2  0  0  0  0
  8 18  1  0  0  0  0
  8 28  1  0  0  0  0
  9 12  1  0  0  0  0
  9 19  2  0  0  0  0
  9 29  1  0  0  0  0
 11 12  2  0  0  0  0
 11 17  1  0  0  0  0
 12 20  1  0  0  0  0
 13 20  1  0  0  0  0
 13 21  1  0  0  0  0
 13 22  2  0  0  0  0
 14 15  1  0  0  0  0
 14 16  1  0  0  0  0
 14 30  1  0  0  0  0
 14 31  1  0  0  0  0
 15 16  1  0  0  0  0
 15 32  1  0  0  0  0
 15 33  1  0  0  0  0
 16 21  1  0  0  0  0
 17 34  1  0  0  0  0
 17 35  1  0  0  0  0
 17 36  1  0  0  0  0
 20 37  1  0  0  0  0
 21 38  1  0  0  0  0
M  END
>  <Chemgauss4 Score>
-5.31563520431519

>  <Number of Confs>
4

$$$$
