BAR-COM-569-1
 OpenBabel03242009303D

 43 45  0  0  0  0  0  0  0  0999 V2000
   12.7049   -0.0709   22.7090 C   0  0  0  0  0  0  0  0  0  0  0  0
   12.4080    0.0084   24.0695 C   0  0  0  0  0  0  0  0  0  0  0  0
    6.8712   -6.0202   28.4227 C   0  0  0  0  0  0  0  0  0  0  0  0
   12.1593   -1.0946   21.9345 C   0  0  0  0  0  0  0  0  0  0  0  0
   11.5655   -0.9362   24.6557 C   0  0  0  0  0  0  0  0  0  0  0  0
    7.4718   -5.6227   27.2334 C   0  0  0  0  0  0  0  0  0  0  0  0
    7.1228   -5.2686   29.5592 C   0  0  0  0  0  0  0  0  0  0  0  0
    8.4817   -3.8177   28.4075 C   0  0  0  0  0  0  0  0  0  0  0  0
   11.3168   -2.0392   22.5206 C   0  0  0  0  0  0  0  0  0  0  0  0
    8.2940   -4.5015   27.2171 C   0  0  0  0  0  0  0  0  0  0  0  0
   11.0199   -1.9600   23.8812 C   0  0  0  0  0  0  0  0  0  0  0  0
    9.7704   -2.9711   25.8397 C   0  0  0  0  0  0  0  0  0  0  0  0
    7.1420   -2.1333   22.1391 C   0  0  0  0  0  0  0  0  0  0  0  0
    7.6802   -4.0638   22.7005 C   0  0  0  0  0  0  0  0  0  0  0  0
    6.4221   -3.2127   22.9764 C   0  0  0  0  0  0  0  0  0  0  0  0
   10.7411   -3.1356   21.6583 C   0  0  0  0  0  0  0  0  0  0  0  0
    9.2751   -2.9040   21.3004 C   0  0  0  0  0  0  0  0  0  0  0  0
    7.9154   -4.1737   29.5823 N   0  0  0  0  0  0  0  0  0  0  0  0
    8.4211   -2.7998   22.4782 N   0  0  0  0  0  0  0  0  0  0  0  0
    8.9191   -4.0726   26.0224 N   0  0  0  0  0  0  0  0  0  0  0  0
   10.1783   -2.8967   24.4868 N   0  0  0  0  0  0  0  0  0  0  0  0
   10.1134   -2.1862   26.7181 O   0  0  0  0  0  0  0  0  0  0  0  0
    5.1867   -3.7167   22.4439 O   0  0  0  0  0  0  0  0  0  0  0  0
   13.3613    0.6640   22.2525 H   0  0  0  0  0  0  0  0  0  0  0  0
   12.8336    0.8052   24.6728 H   0  0  0  0  0  0  0  0  0  0  0  0
    6.2266   -6.8910   28.4588 H   0  0  0  0  0  0  0  0  0  0  0  0
   12.3971   -1.1478   20.8754 H   0  0  0  0  0  0  0  0  0  0  0  0
   11.3416   -0.8633   25.7168 H   0  0  0  0  0  0  0  0  0  0  0  0
    7.2926   -6.1932   26.3259 H   0  0  0  0  0  0  0  0  0  0  0  0
    6.6788   -5.5377   30.5120 H   0  0  0  0  0  0  0  0  0  0  0  0
    9.1122   -2.9350   28.4581 H   0  0  0  0  0  0  0  0  0  0  0  0
    6.8607   -2.1332   21.0780 H   0  0  0  0  0  0  0  0  0  0  0  0
    7.0508   -1.1134   22.5242 H   0  0  0  0  0  0  0  0  0  0  0  0
    8.0363   -4.6505   23.5530 H   0  0  0  0  0  0  0  0  0  0  0  0
    7.5841   -4.7296   21.8332 H   0  0  0  0  0  0  0  0  0  0  0  0
    6.3094   -2.9363   24.0328 H   0  0  0  0  0  0  0  0  0  0  0  0
   10.8371   -4.0876   22.1956 H   0  0  0  0  0  0  0  0  0  0  0  0
   11.3404   -3.2427   20.7451 H   0  0  0  0  0  0  0  0  0  0  0  0
    9.1696   -1.9638   20.7500 H   0  0  0  0  0  0  0  0  0  0  0  0
    8.8792   -3.7115   20.6758 H   0  0  0  0  0  0  0  0  0  0  0  0
    8.7284   -4.6308   25.1942 H   0  0  0  0  0  0  0  0  0  0  0  0
    9.8007   -3.6306   23.8796 H   0  0  0  0  0  0  0  0  0  0  0  0
    4.8724   -4.3731   23.0800 H   0  0  0  0  0  0  0  0  0  0  0  0
  1  2  1  0  0  0  0
  1  4  2  0  0  0  0
  1 24  1  0  0  0  0
  2  5  2  0  0  0  0
  2 25  1  0  0  0  0
  3  6  2  0  0  0  0
  3  7  1  0  0  0  0
  3 26  1  0  0  0  0
  4  9  1  0  0  0  0
  4 27  1  0  0  0  0
  5 11  1  0  0  0  0
  5 28  1  0  0  0  0
  6 10  1  0  0  0  0
  6 29  1  0  0  0  0
  7 18  2  0  0  0  0
  7 30  1  0  0  0  0
  8 10  2  0  0  0  0
  8 18  1  0  0  0  0
  8 31  1  0  0  0  0
  9 11  2  0  0  0  0
  9 16  1  0  0  0  0
 10 20  1  0  0  0  0
 11 21  1  0  0  0  0
 12 20  1  0  0  0  0
 12 21  1  0  0  0  0
 12 22  2  0  0  0  0
 13 15  1  0  0  0  0
 13 19  1  0  0  0  0
 13 32  1  0  0  0  0
 13 33  1  0  0  0  0
 14 15  1  0  0  0  0
 14 19  1  0  0  0  0
 14 34  1  0  0  0  0
 14 35  1  0  0  0  0
 15 23  1  0  0  0  0
 15 36  1  0  0  0  0
 16 17  1  0  0  0  0
 16 37  1  0  0  0  0
 16 38  1  0  0  0  0
 17 19  1  0  0  0  0
 17 39  1  0  0  0  0
 17 40  1  0  0  0  0
 20 41  1  0  0  0  0
 21 42  1  0  0  0  0
 23 43  1  0  0  0  0
M  END
>  <Chemgauss4 Score>
-4.80053234100342

>  <Number of Confs>
140

$$$$
