TRY-UNI-714-14
 OpenBabel03242009303D

 36 37  0  0  1  0  0  0  0  0999 V2000
   13.8341   -0.6640   23.0477 C   0  0  0  0  0  0  0  0  0  0  0  0
   13.0466   -0.2008   24.1017 C   0  0  0  0  0  0  0  0  0  0  0  0
   13.2545   -1.4034   22.0166 C   0  0  0  0  0  0  0  0  0  0  0  0
   11.6796   -0.4771   24.1247 C   0  0  0  0  0  0  0  0  0  0  0  0
   11.8875   -1.6796   22.0396 C   0  0  0  0  0  0  0  0  0  0  0  0
    8.1102   -5.5068   28.0027 C   0  0  0  0  0  0  0  0  0  0  0  0
    8.6453   -4.9106   25.8494 C   0  0  0  0  0  0  0  0  0  0  0  0
   11.1000   -1.2165   23.0936 C   0  0  0  0  0  0  0  0  0  0  0  0
    8.4901   -3.2119   27.5067 C   0  0  0  0  0  0  0  0  0  0  0  0
    8.1724   -4.1932   28.4391 C   0  0  0  0  0  0  0  0  0  0  0  0
    8.7325   -3.5691   26.1850 C   0  0  0  0  0  0  0  0  0  0  0  0
    9.3211   -2.8341   23.8482 C   0  0  0  0  0  0  0  0  0  0  0  0
    8.5706   -1.7768   27.9235 C   0  0  0  0  0  0  0  0  0  0  0  0
    9.0290   -1.5411   21.7029 C   0  0  0  0  0  0  0  0  0  0  0  0
    9.6384   -1.5124   23.1177 C   0  0  2  0  0  0  0  0  0  0  0  0
    8.3392   -5.8922   26.7273 N   0  0  0  0  0  0  0  0  0  0  0  0
    7.9192   -3.8818   29.7871 N   0  0  0  0  0  0  0  0  0  0  0  0
    9.0603   -2.6098   25.1978 N   0  0  0  0  0  0  0  0  0  0  0  0
    9.2930   -3.9101   23.2577 O   0  0  0  0  0  0  0  0  0  0  0  0
   14.8983   -0.4477   23.0293 H   0  0  0  0  0  0  0  0  0  0  0  0
   13.4975    0.3758   24.9041 H   0  0  0  0  0  0  0  0  0  0  0  0
   13.8671   -1.7632   21.1953 H   0  0  0  0  0  0  0  0  0  0  0  0
   11.0738   -0.1123   24.9501 H   0  0  0  0  0  0  0  0  0  0  0  0
   11.4446   -2.2565   21.2320 H   0  0  0  0  0  0  0  0  0  0  0  0
    7.8670   -6.3172   28.6835 H   0  0  0  0  0  0  0  0  0  0  0  0
    8.8242   -5.2519   24.8341 H   0  0  0  0  0  0  0  0  0  0  0  0
    9.5893   -1.5341   28.2438 H   0  0  0  0  0  0  0  0  0  0  0  0
    8.2930   -1.1115   27.0982 H   0  0  0  0  0  0  0  0  0  0  0  0
    7.8822   -1.5683   28.7504 H   0  0  0  0  0  0  0  0  0  0  0  0
    9.5097   -2.2992   21.0744 H   0  0  0  0  0  0  0  0  0  0  0  0
    7.9575   -1.7696   21.7269 H   0  0  0  0  0  0  0  0  0  0  0  0
    9.1515   -0.5685   21.2135 H   0  0  0  0  0  0  0  0  0  0  0  0
    9.0892   -0.7220   23.6670 H   0  0  0  0  0  0  0  0  0  0  0  0
    7.6476   -4.6114   30.4178 H   0  0  0  0  0  0  0  0  0  0  0  0
    7.9213   -2.9234   30.0790 H   0  0  0  0  0  0  0  0  0  0  0  0
    9.1037   -1.6476   25.5267 H   0  0  0  0  0  0  0  0  0  0  0  0
  1  2  1  0  0  0  0
  1  3  2  0  0  0  0
  1 20  1  0  0  0  0
  2  4  2  0  0  0  0
  2 21  1  0  0  0  0
  3  5  1  0  0  0  0
  3 22  1  0  0  0  0
  4  8  1  0  0  0  0
  4 23  1  0  0  0  0
  5  8  2  0  0  0  0
  5 24  1  0  0  0  0
  6 10  2  0  0  0  0
  6 16  1  0  0  0  0
  6 25  1  0  0  0  0
  7 11  1  0  0  0  0
  7 16  2  0  0  0  0
  7 26  1  0  0  0  0
  8 15  1  0  0  0  0
  9 10  1  0  0  0  0
  9 11  2  0  0  0  0
  9 13  1  0  0  0  0
 10 17  1  0  0  0  0
 11 18  1  0  0  0  0
 12 15  1  0  0  0  0
 12 18  1  0  0  0  0
 12 19  2  0  0  0  0
 13 27  1  0  0  0  0
 13 28  1  0  0  0  0
 13 29  1  0  0  0  0
 14 15  1  0  0  0  0
 14 30  1  0  0  0  0
 14 31  1  0  0  0  0
 14 32  1  0  0  0  0
 15 33  1  1  0  0  0
 17 34  1  0  0  0  0
 17 35  1  0  0  0  0
 18 36  1  0  0  0  0
M  END
>  <Chemgauss4 Score>
-5.1674337387085

>  <Number of Confs>
16

$$$$
