HEI-REL-0c9-6
 OpenBabel03242009303D

 53 56  0  0  1  0  0  0  0  0999 V2000
   12.4972   -0.4599   23.2363 C   0  0  0  0  0  0  0  0  0  0  0  0
   11.7558   -1.1336   22.2700 C   0  0  0  0  0  0  0  0  0  0  0  0
   12.1773   -0.6043   24.5859 C   0  0  0  0  0  0  0  0  0  0  0  0
   10.6951   -1.9538   22.6523 C   0  0  0  0  0  0  0  0  0  0  0  0
    6.0339    1.1967   22.4564 C   0  0  0  0  0  0  0  0  0  0  0  0
    5.7978    1.2570   21.0878 C   0  0  0  0  0  0  0  0  0  0  0  0
    6.6759   -0.9809   20.8608 C   0  0  0  0  0  0  0  0  0  0  0  0
   11.1109   -1.4246   24.9842 C   0  0  0  0  0  0  0  0  0  0  0  0
   10.3664   -2.1099   24.0077 C   0  0  0  0  0  0  0  0  0  0  0  0
    6.6043    0.0488   23.0321 C   0  0  0  0  0  0  0  0  0  0  0  0
    6.9224   -1.0803   22.2452 C   0  0  0  0  0  0  0  0  0  0  0  0
    6.1232    0.1694   20.2889 C   0  0  0  0  0  0  0  0  0  0  0  0
    8.9013   -2.3081   27.9454 C   0  0  0  0  0  0  0  0  0  0  0  0
    6.8244    0.0114   24.5193 C   0  0  0  0  0  0  0  0  0  0  0  0
   10.8012   -1.5525   26.4555 C   0  0  0  0  0  0  0  0  0  0  0  0
    8.0381   -0.8482   24.8223 C   0  0  0  0  0  0  0  0  0  0  0  0
    9.3895   -3.5064   25.8406 C   0  0  0  0  0  0  0  0  0  0  0  0
    9.2079   -2.9979   24.4060 C   0  0  1  0  0  0  0  0  0  0  0  0
    7.8773   -2.2586   24.2391 C   0  0  2  0  0  0  0  0  0  0  0  0
    9.3346   -1.2462   28.9262 C   0  0  0  0  0  0  0  0  0  0  0  0
    7.3260   -3.5016   22.1101 C   0  0  0  0  0  0  0  0  0  0  0  0
    7.4574   -2.2341   22.8247 N   0  0  0  0  0  0  0  0  0  0  0  0
    9.6467   -2.4049   26.7678 N   0  0  0  0  0  0  0  0  0  0  0  0
    5.1907    1.8101   18.4069 N   0  0  0  0  0  0  0  0  0  0  0  0
    7.9310   -3.0205   28.2140 O   0  0  0  0  0  0  0  0  0  0  0  0
    7.1384    0.2014   17.8930 O   0  0  0  0  0  0  0  0  0  0  0  0
    4.8216   -0.7328   18.2211 O   0  0  0  0  0  0  0  0  0  0  0  0
    5.8478    0.2410   18.5658 S   0  0  0  0  0  0  0  0  0  0  0  0
   13.3240    0.1790   22.9404 H   0  0  0  0  0  0  0  0  0  0  0  0
   12.0031   -1.0209   21.2185 H   0  0  0  0  0  0  0  0  0  0  0  0
   12.7646   -0.0713   25.3298 H   0  0  0  0  0  0  0  0  0  0  0  0
   10.1244   -2.4733   21.8866 H   0  0  0  0  0  0  0  0  0  0  0  0
    5.7697    2.0481   23.0776 H   0  0  0  0  0  0  0  0  0  0  0  0
    5.3615    2.1540   20.6575 H   0  0  0  0  0  0  0  0  0  0  0  0
    6.9209   -1.8061   20.1963 H   0  0  0  0  0  0  0  0  0  0  0  0
    6.9719    1.0266   24.8822 H   0  0  0  0  0  0  0  0  0  0  0  0
    5.9568   -0.4148   25.0200 H   0  0  0  0  0  0  0  0  0  0  0  0
   11.6630   -1.9973   26.9673 H   0  0  0  0  0  0  0  0  0  0  0  0
   10.6364   -0.5515   26.8653 H   0  0  0  0  0  0  0  0  0  0  0  0
    8.9401   -0.3724   24.4282 H   0  0  0  0  0  0  0  0  0  0  0  0
    8.1700   -0.9296   25.9067 H   0  0  0  0  0  0  0  0  0  0  0  0
    8.5152   -4.0875   26.1531 H   0  0  0  0  0  0  0  0  0  0  0  0
   10.2561   -4.1776   25.9019 H   0  0  0  0  0  0  0  0  0  0  0  0
    9.2005   -3.8777   23.7486 H   0  0  0  0  0  0  0  0  0  0  0  0
    7.1420   -2.7706   24.8499 H   0  0  0  0  0  0  0  0  0  0  0  0
    8.8092   -0.3237   28.7039 H   0  0  0  0  0  0  0  0  0  0  0  0
   10.4052   -1.0954   28.8352 H   0  0  0  0  0  0  0  0  0  0  0  0
    9.0978   -1.5758   29.9323 H   0  0  0  0  0  0  0  0  0  0  0  0
    7.7961   -4.3045   22.6970 H   0  0  0  0  0  0  0  0  0  0  0  0
    6.2602   -3.7308   21.9633 H   0  0  0  0  0  0  0  0  0  0  0  0
    7.8225   -3.4240   21.1316 H   0  0  0  0  0  0  0  0  0  0  0  0
    5.7718    2.5334   17.9659 H   0  0  0  0  0  0  0  0  0  0  0  0
    4.1896    1.8938   18.1922 H   0  0  0  0  0  0  0  0  0  0  0  0
  1  2  1  0  0  0  0
  1  3  2  0  0  0  0
  1 29  1  0  0  0  0
  2  4  2  0  0  0  0
  2 30  1  0  0  0  0
  3  8  1  0  0  0  0
  3 31  1  0  0  0  0
  4  9  1  0  0  0  0
  4 32  1  0  0  0  0
  5  6  2  0  0  0  0
  5 10  1  0  0  0  0
  5 33  1  0  0  0  0
  6 12  1  0  0  0  0
  6 34  1  0  0  0  0
  7 11  1  0  0  0  0
  7 12  2  0  0  0  0
  7 35  1  0  0  0  0
  8  9  2  0  0  0  0
  8 15  1  0  0  0  0
  9 18  1  0  0  0  0
 10 11  2  0  0  0  0
 10 14  1  0  0  0  0
 11 22  1  0  0  0  0
 12 28  1  0  0  0  0
 13 20  1  0  0  0  0
 13 23  1  0  0  0  0
 13 25  2  0  0  0  0
 14 16  1  0  0  0  0
 14 36  1  0  0  0  0
 14 37  1  0  0  0  0
 15 23  1  0  0  0  0
 15 38  1  0  0  0  0
 15 39  1  0  0  0  0
 16 19  1  0  0  0  0
 16 40  1  0  0  0  0
 16 41  1  0  0  0  0
 17 18  1  0  0  0  0
 17 23  1  0  0  0  0
 17 42  1  0  0  0  0
 17 43  1  0  0  0  0
 18 19  1  0  0  0  0
 18 44  1  6  0  0  0
 19 22  1  0  0  0  0
 19 45  1  1  0  0  0
 20 46  1  0  0  0  0
 20 47  1  0  0  0  0
 20 48  1  0  0  0  0
 21 22  1  0  0  0  0
 21 49  1  0  0  0  0
 21 50  1  0  0  0  0
 21 51  1  0  0  0  0
 24 28  1  0  0  0  0
 24 52  1  0  0  0  0
 24 53  1  0  0  0  0
 26 28  2  0  0  0  0
 27 28  2  0  0  0  0
M  END
>  <Chemgauss4 Score>
-6.31890535354614

>  <Number of Confs>
14

$$$$
