AMD-U.A-3d2-2
 OpenBabel03242009303D

 25 26  0  0  0  0  0  0  0  0999 V2000
    8.3788   -2.5119   23.1897 C   0  0  0  0  0  0  0  0  0  0  0  0
    7.3265   -4.3374   24.4399 C   0  0  0  0  0  0  0  0  0  0  0  0
    9.5079   -1.7520   22.8829 C   0  0  0  0  0  0  0  0  0  0  0  0
    7.4183   -5.3773   25.3654 C   0  0  0  0  0  0  0  0  0  0  0  0
   10.8159   -3.0708   24.4248 C   0  0  0  0  0  0  0  0  0  0  0  0
    9.7637   -4.8964   25.6749 C   0  0  0  0  0  0  0  0  0  0  0  0
    8.4528   -3.5623   24.1189 C   0  0  0  0  0  0  0  0  0  0  0  0
    9.6896   -3.8460   24.7457 C   0  0  0  0  0  0  0  0  0  0  0  0
   10.7241   -2.0309   23.4992 C   0  0  0  0  0  0  0  0  0  0  0  0
    8.6345   -5.6563   25.9817 C   0  0  0  0  0  0  0  0  0  0  0  0
   11.9002   -1.2383   23.1765 C   0  0  0  0  0  0  0  0  0  0  0  0
   13.8024   -0.9882   21.7308 N   0  0  0  0  0  0  0  0  0  0  0  0
   12.6817   -1.7017   22.1149 N   0  0  0  0  0  0  0  0  0  0  0  0
   12.1942   -0.1953   23.7828 O   0  0  0  0  0  0  0  0  0  0  0  0
    8.7230   -6.6708   26.8848 O   0  0  0  0  0  0  0  0  0  0  0  0
    7.4383   -2.2766   22.6958 H   0  0  0  0  0  0  0  0  0  0  0  0
    6.3660   -4.1377   23.9695 H   0  0  0  0  0  0  0  0  0  0  0  0
    9.4259   -0.9443   22.1600 H   0  0  0  0  0  0  0  0  0  0  0  0
    6.5362   -5.9667   25.6004 H   0  0  0  0  0  0  0  0  0  0  0  0
   11.7731   -3.2796   24.9005 H   0  0  0  0  0  0  0  0  0  0  0  0
   10.7074   -5.1264   26.1663 H   0  0  0  0  0  0  0  0  0  0  0  0
   13.8908   -1.0998   20.7216 H   0  0  0  0  0  0  0  0  0  0  0  0
   13.5922   -0.0034   21.8869 H   0  0  0  0  0  0  0  0  0  0  0  0
   12.4287   -2.5555   21.6293 H   0  0  0  0  0  0  0  0  0  0  0  0
    9.6293   -6.7404   27.2247 H   0  0  0  0  0  0  0  0  0  0  0  0
  1  3  2  0  0  0  0
  1  7  1  0  0  0  0
  1 16  1  0  0  0  0
  2  4  2  0  0  0  0
  2  7  1  0  0  0  0
  2 17  1  0  0  0  0
  3  9  1  0  0  0  0
  3 18  1  0  0  0  0
  4 10  1  0  0  0  0
  4 19  1  0  0  0  0
  5  8  1  0  0  0  0
  5  9  2  0  0  0  0
  5 20  1  0  0  0  0
  6  8  1  0  0  0  0
  6 10  2  0  0  0  0
  6 21  1  0  0  0  0
  7  8  2  0  0  0  0
  9 11  1  0  0  0  0
 10 15  1  0  0  0  0
 11 13  1  0  0  0  0
 11 14  2  0  0  0  0
 12 13  1  0  0  0  0
 12 22  1  0  0  0  0
 12 23  1  0  0  0  0
 13 24  1  0  0  0  0
 15 25  1  0  0  0  0
M  END
>  <Chemgauss4 Score>
-6.04354906082153

>  <Number of Confs>
3

$$$$
