GIA-UNK-995-4
 OpenBabel03242009303D

 35 36  0  0  0  0  0  0  0  0999 V2000
   10.7313   -1.1841   24.1279 C   0  0  0  0  0  0  0  0  0  0  0  0
    7.8643   -5.0157   25.9053 C   0  0  0  0  0  0  0  0  0  0  0  0
   13.4113   -1.3439   21.8450 C   0  0  0  0  0  0  0  0  0  0  0  0
   12.4651   -0.2496   22.3730 C   0  0  0  0  0  0  0  0  0  0  0  0
   12.7606   -2.2983   22.8637 C   0  0  0  0  0  0  0  0  0  0  0  0
    7.7997   -2.5452   25.6164 C   0  0  0  0  0  0  0  0  0  0  0  0
    8.5569   -4.0428   23.7068 C   0  0  0  0  0  0  0  0  0  0  0  0
    9.2638   -2.1789   25.8534 C   0  0  0  0  0  0  0  0  0  0  0  0
    9.9972   -3.6148   23.9914 C   0  0  0  0  0  0  0  0  0  0  0  0
   11.5079   -1.3839   22.8240 C   0  0  0  0  0  0  0  0  0  0  0  0
    7.6378   -3.9023   24.9244 C   0  0  0  0  0  0  0  0  0  0  0  0
    7.1462   -6.0432   28.3446 C   0  0  0  0  0  0  0  0  0  0  0  0
   10.0327   -2.2883   24.6144 N   0  0  0  0  0  0  0  0  0  0  0  0
   10.7535   -0.0808   24.6796 O   0  0  0  0  0  0  0  0  0  0  0  0
    8.9556   -5.5465   26.0734 O   0  0  0  0  0  0  0  0  0  0  0  0
    7.8510   -5.0254   28.9070 F   0  0  0  0  0  0  0  0  0  0  0  0
    6.4146   -5.4847   26.7926 S   0  0  0  0  0  0  0  0  0  0  0  0
   13.2260   -1.6207   20.8009 H   0  0  0  0  0  0  0  0  0  0  0  0
   14.4792   -1.1571   21.9816 H   0  0  0  0  0  0  0  0  0  0  0  0
   12.8867    0.3407   23.1954 H   0  0  0  0  0  0  0  0  0  0  0  0
   12.0665    0.4316   21.6163 H   0  0  0  0  0  0  0  0  0  0  0  0
   12.6081   -3.3235   22.5155 H   0  0  0  0  0  0  0  0  0  0  0  0
   13.2711   -2.3248   23.8338 H   0  0  0  0  0  0  0  0  0  0  0  0
    7.2670   -2.5384   26.5750 H   0  0  0  0  0  0  0  0  0  0  0  0
    7.3387   -1.7695   24.9914 H   0  0  0  0  0  0  0  0  0  0  0  0
    8.1623   -3.4216   22.8924 H   0  0  0  0  0  0  0  0  0  0  0  0
    8.5542   -5.0783   23.3456 H   0  0  0  0  0  0  0  0  0  0  0  0
    9.3266   -1.1661   26.2635 H   0  0  0  0  0  0  0  0  0  0  0  0
    9.7209   -2.8539   26.5863 H   0  0  0  0  0  0  0  0  0  0  0  0
   10.4801   -4.3123   24.6854 H   0  0  0  0  0  0  0  0  0  0  0  0
   10.5712   -3.6433   23.0635 H   0  0  0  0  0  0  0  0  0  0  0  0
   10.8116   -1.6749   22.0284 H   0  0  0  0  0  0  0  0  0  0  0  0
    6.5963   -4.0054   24.5952 H   0  0  0  0  0  0  0  0  0  0  0  0
    7.8348   -6.8744   28.1725 H   0  0  0  0  0  0  0  0  0  0  0  0
    6.3706   -6.3466   29.0526 H   0  0  0  0  0  0  0  0  0  0  0  0
  1 10  1  0  0  0  0
  1 13  1  0  0  0  0
  1 14  2  0  0  0  0
  2 11  1  0  0  0  0
  2 15  2  0  0  0  0
  2 17  1  0  0  0  0
  3  4  1  0  0  0  0
  3  5  1  0  0  0  0
  3 18  1  0  0  0  0
  3 19  1  0  0  0  0
  4 10  1  0  0  0  0
  4 20  1  0  0  0  0
  4 21  1  0  0  0  0
  5 10  1  0  0  0  0
  5 22  1  0  0  0  0
  5 23  1  0  0  0  0
  6  8  1  0  0  0  0
  6 11  1  0  0  0  0
  6 24  1  0  0  0  0
  6 25  1  0  0  0  0
  7  9  1  0  0  0  0
  7 11  1  0  0  0  0
  7 26  1  0  0  0  0
  7 27  1  0  0  0  0
  8 13  1  0  0  0  0
  8 28  1  0  0  0  0
  8 29  1  0  0  0  0
  9 13  1  0  0  0  0
  9 30  1  0  0  0  0
  9 31  1  0  0  0  0
 10 32  1  0  0  0  0
 11 33  1  0  0  0  0
 12 16  1  0  0  0  0
 12 17  1  0  0  0  0
 12 34  1  0  0  0  0
 12 35  1  0  0  0  0
M  END
>  <Chemgauss4 Score>
-4.58378314971924

>  <Number of Confs>
200

$$$$
