MIH-UNI-6b9-3
 OpenBabel03242009303D

 46 48  0  0  1  0  0  0  0  0999 V2000
    8.6945   -1.0163   24.4418 C   0  0  0  0  0  0  0  0  0  0  0  0
    7.6522   -1.9288   24.2835 C   0  0  0  0  0  0  0  0  0  0  0  0
    8.8771   -5.0678   27.9099 C   0  0  0  0  0  0  0  0  0  0  0  0
    8.9058   -3.0517   22.5576 C   0  0  0  0  0  0  0  0  0  0  0  0
    8.1768   -4.3625   28.8752 C   0  0  0  0  0  0  0  0  0  0  0  0
    9.0292   -2.3545   28.1543 C   0  0  0  0  0  0  0  0  0  0  0  0
    9.8601   -1.1106   23.6620 C   0  0  0  0  0  0  0  0  0  0  0  0
    9.9669   -2.1451   22.7126 C   0  0  0  0  0  0  0  0  0  0  0  0
    9.6864   -4.3487   27.0374 C   0  0  0  0  0  0  0  0  0  0  0  0
    9.7696   -2.9658   27.1553 C   0  0  0  0  0  0  0  0  0  0  0  0
    7.7581   -2.9469   23.3419 C   0  0  0  0  0  0  0  0  0  0  0  0
   10.7493   -0.8084   26.3022 C   0  0  0  0  0  0  0  0  0  0  0  0
   11.1617   -2.2702   21.8008 C   0  0  0  0  0  0  0  0  0  0  0  0
   12.3774   -1.4775   22.2713 C   0  0  0  0  0  0  0  0  0  0  0  0
   11.9657   -0.0746   22.7009 C   0  0  0  0  0  0  0  0  0  0  0  0
   10.9799   -0.1100   23.8804 C   0  0  2  0  0  0  0  0  0  0  0  0
   10.4531   -5.0838   25.9874 C   0  0  0  0  0  0  0  0  0  0  0  0
   11.7056   -0.3962   25.2014 C   0  0  0  0  0  0  0  0  0  0  0  0
    8.2322   -3.0195   29.0204 N   0  0  0  0  0  0  0  0  0  0  0  0
    5.5194   -3.2988   21.9386 N   0  0  0  0  0  0  0  0  0  0  0  0
   10.5787   -2.1898   26.2916 N   0  0  0  0  0  0  0  0  0  0  0  0
   10.2304    0.0011   27.0637 O   0  0  0  0  0  0  0  0  0  0  0  0
    6.9965   -5.3139   22.5737 O   0  0  0  0  0  0  0  0  0  0  0  0
    5.6807   -4.1350   24.3700 O   0  0  0  0  0  0  0  0  0  0  0  0
    6.4514   -4.0858   23.1352 S   0  0  0  0  0  0  0  0  0  0  0  0
    8.5943   -0.2256   25.1817 H   0  0  0  0  0  0  0  0  0  0  0  0
    6.7624   -1.8341   24.9000 H   0  0  0  0  0  0  0  0  0  0  0  0
    8.7905   -6.1471   27.8447 H   0  0  0  0  0  0  0  0  0  0  0  0
    8.9791   -3.8415   21.8127 H   0  0  0  0  0  0  0  0  0  0  0  0
    7.5318   -4.8767   29.5801 H   0  0  0  0  0  0  0  0  0  0  0  0
    9.0520   -1.2781   28.2963 H   0  0  0  0  0  0  0  0  0  0  0  0
   11.4467   -3.3243   21.7004 H   0  0  0  0  0  0  0  0  0  0  0  0
   10.8644   -1.9138   20.8061 H   0  0  0  0  0  0  0  0  0  0  0  0
   12.8665   -1.9994   23.1021 H   0  0  0  0  0  0  0  0  0  0  0  0
   13.1121   -1.4207   21.4600 H   0  0  0  0  0  0  0  0  0  0  0  0
   12.8530    0.5143   22.9613 H   0  0  0  0  0  0  0  0  0  0  0  0
   11.4935    0.4332   21.8492 H   0  0  0  0  0  0  0  0  0  0  0  0
   10.5349    0.8921   23.9535 H   0  0  0  0  0  0  0  0  0  0  0  0
    9.8573   -5.1683   25.0713 H   0  0  0  0  0  0  0  0  0  0  0  0
   11.3914   -4.5685   25.7480 H   0  0  0  0  0  0  0  0  0  0  0  0
   10.7202   -6.0929   26.3252 H   0  0  0  0  0  0  0  0  0  0  0  0
   12.2400    0.5038   25.5088 H   0  0  0  0  0  0  0  0  0  0  0  0
   12.4293   -1.1958   25.0367 H   0  0  0  0  0  0  0  0  0  0  0  0
    5.5169   -3.6960   20.9911 H   0  0  0  0  0  0  0  0  0  0  0  0
    4.6200   -2.8899   22.2197 H   0  0  0  0  0  0  0  0  0  0  0  0
   11.0898   -2.7155   25.5855 H   0  0  0  0  0  0  0  0  0  0  0  0
  1  2  2  0  0  0  0
  1  7  1  0  0  0  0
  1 26  1  0  0  0  0
  2 11  1  0  0  0  0
  2 27  1  0  0  0  0
  3  5  2  0  0  0  0
  3  9  1  0  0  0  0
  3 28  1  0  0  0  0
  4  8  1  0  0  0  0
  4 11  2  0  0  0  0
  4 29  1  0  0  0  0
  5 19  1  0  0  0  0
  5 30  1  0  0  0  0
  6 10  1  0  0  0  0
  6 19  2  0  0  0  0
  6 31  1  0  0  0  0
  7  8  2  0  0  0  0
  7 16  1  0  0  0  0
  8 13  1  0  0  0  0
  9 10  2  0  0  0  0
  9 17  1  0  0  0  0
 10 21  1  0  0  0  0
 11 25  1  0  0  0  0
 12 18  1  0  0  0  0
 12 21  1  0  0  0  0
 12 22  2  0  0  0  0
 13 14  1  0  0  0  0
 13 32  1  0  0  0  0
 13 33  1  0  0  0  0
 14 15  1  0  0  0  0
 14 34  1  0  0  0  0
 14 35  1  0  0  0  0
 15 16  1  0  0  0  0
 15 36  1  0  0  0  0
 15 37  1  0  0  0  0
 16 18  1  0  0  0  0
 16 38  1  1  0  0  0
 17 39  1  0  0  0  0
 17 40  1  0  0  0  0
 17 41  1  0  0  0  0
 18 42  1  0  0  0  0
 18 43  1  0  0  0  0
 20 25  1  0  0  0  0
 20 44  1  0  0  0  0
 20 45  1  0  0  0  0
 21 46  1  0  0  0  0
 23 25  2  0  0  0  0
 24 25  2  0  0  0  0
M  END
>  <Chemgauss4 Score>
-5.61274814605713

>  <Number of Confs>
157

$$$$
