DAR-DIA-fc9-4
 OpenBabel03242009303D

 35 37  0  0  1  0  0  0  0  0999 V2000
   13.1726   -0.5829   22.6404 C   0  0  0  0  0  0  0  0  0  0  0  0
   12.6000   -0.1281   23.8281 C   0  0  0  0  0  0  0  0  0  0  0  0
   12.4103   -1.3246   21.7378 C   0  0  0  0  0  0  0  0  0  0  0  0
    9.1493   -3.5722   27.6971 C   0  0  0  0  0  0  0  0  0  0  0  0
    8.4521   -2.8132   26.7638 C   0  0  0  0  0  0  0  0  0  0  0  0
   11.2651   -0.4150   24.1135 C   0  0  0  0  0  0  0  0  0  0  0  0
   11.0754   -1.6114   22.0231 C   0  0  0  0  0  0  0  0  0  0  0  0
    8.9958   -4.9487   27.6585 C   0  0  0  0  0  0  0  0  0  0  0  0
    7.5488   -4.8271   25.8782 C   0  0  0  0  0  0  0  0  0  0  0  0
    7.6343   -3.4449   25.8336 C   0  0  0  0  0  0  0  0  0  0  0  0
   10.5027   -1.1566   23.2109 C   0  0  0  0  0  0  0  0  0  0  0  0
    8.3293   -0.5846   24.2813 C   0  0  0  0  0  0  0  0  0  0  0  0
    7.0148   -1.1240   24.8225 C   0  0  0  0  0  0  0  0  0  0  0  0
    7.1532   -3.0782   23.3668 C   0  0  0  0  0  0  0  0  0  0  0  0
    8.5664   -2.7035   22.9417 C   0  0  0  0  0  0  0  0  0  0  0  0
    6.8582   -2.6422   24.7982 C   0  0  1  0  0  0  0  0  0  0  0  0
    8.2108   -5.5981   26.7699 N   0  0  0  0  0  0  0  0  0  0  0  0
    9.1117   -1.4553   23.5084 N   0  0  0  0  0  0  0  0  0  0  0  0
    8.6018    0.5942   24.5280 O   0  0  0  0  0  0  0  0  0  0  0  0
   14.2117   -0.3591   22.4175 H   0  0  0  0  0  0  0  0  0  0  0  0
   13.1929    0.4501   24.5306 H   0  0  0  0  0  0  0  0  0  0  0  0
   12.8562   -1.6777   20.8125 H   0  0  0  0  0  0  0  0  0  0  0  0
    9.7927   -3.1012   28.4315 H   0  0  0  0  0  0  0  0  0  0  0  0
    8.5520   -1.7312   26.7687 H   0  0  0  0  0  0  0  0  0  0  0  0
   10.8295   -0.0551   25.0423 H   0  0  0  0  0  0  0  0  0  0  0  0
   10.4909   -2.1902   21.3122 H   0  0  0  0  0  0  0  0  0  0  0  0
    9.5180   -5.5851   28.3654 H   0  0  0  0  0  0  0  0  0  0  0  0
    6.9266   -5.3754   25.1776 H   0  0  0  0  0  0  0  0  0  0  0  0
    6.9065   -0.7340   25.8522 H   0  0  0  0  0  0  0  0  0  0  0  0
    6.1978   -0.6631   24.2371 H   0  0  0  0  0  0  0  0  0  0  0  0
    6.4294   -2.6191   22.6662 H   0  0  0  0  0  0  0  0  0  0  0  0
    7.0119   -4.1717   23.2556 H   0  0  0  0  0  0  0  0  0  0  0  0
    9.2543   -3.5279   23.1954 H   0  0  0  0  0  0  0  0  0  0  0  0
    8.5961   -2.5878   21.8443 H   0  0  0  0  0  0  0  0  0  0  0  0
    5.7527   -2.8794   24.9849 H   0  0  0  0  0  0  0  0  0  0  0  0
  1  2  1  0  0  0  0
  1  3  2  0  0  0  0
  1 20  1  0  0  0  0
  2  6  2  0  0  0  0
  2 21  1  0  0  0  0
  3  7  1  0  0  0  0
  3 22  1  0  0  0  0
  4  5  2  0  0  0  0
  4  8  1  0  0  0  0
  4 23  1  0  0  0  0
  5 10  1  0  0  0  0
  5 24  1  0  0  0  0
  6 11  1  0  0  0  0
  6 25  1  0  0  0  0
  7 11  2  0  0  0  0
  7 26  1  0  0  0  0
  8 17  2  0  0  0  0
  8 27  1  0  0  0  0
  9 10  2  0  0  0  0
  9 17  1  0  0  0  0
  9 28  1  0  0  0  0
 10 16  1  0  0  0  0
 11 18  1  0  0  0  0
 12 13  1  0  0  0  0
 12 18  1  0  0  0  0
 12 19  2  0  0  0  0
 13 16  1  0  0  0  0
 13 29  1  0  0  0  0
 13 30  1  0  0  0  0
 14 15  1  0  0  0  0
 14 16  1  0  0  0  0
 14 31  1  0  0  0  0
 14 32  1  0  0  0  0
 15 18  1  0  0  0  0
 15 33  1  0  0  0  0
 15 34  1  0  0  0  0
 16 35  1  1  0  0  0
M  END
>  <Chemgauss4 Score>
-5.78253269195557

>  <Number of Confs>
28

$$$$
