GIA-UNK-995-13
 OpenBabel03242009303D

 38 39  0  0  0  0  0  0  0  0999 V2000
   10.4358   -1.2591   25.1193 C   0  0  0  0  0  0  0  0  0  0  0  0
    7.8199   -5.5311   26.1024 C   0  0  0  0  0  0  0  0  0  0  0  0
   11.7770    0.3605   22.6491 C   0  0  0  0  0  0  0  0  0  0  0  0
   11.9215   -0.9767   21.9449 C   0  0  0  0  0  0  0  0  0  0  0  0
   12.2436    0.0546   24.0656 C   0  0  0  0  0  0  0  0  0  0  0  0
   11.4626   -1.9966   22.9824 C   0  0  0  0  0  0  0  0  0  0  0  0
    7.4494   -3.1739   25.3971 C   0  0  0  0  0  0  0  0  0  0  0  0
    9.2586   -4.5767   24.2916 C   0  0  0  0  0  0  0  0  0  0  0  0
    8.5458   -2.4529   26.1792 C   0  0  0  0  0  0  0  0  0  0  0  0
   10.3012   -3.7983   25.0952 C   0  0  0  0  0  0  0  0  0  0  0  0
   11.7365   -1.3572   24.3433 C   0  0  0  0  0  0  0  0  0  0  0  0
    7.8734   -4.5753   24.9463 C   0  0  0  0  0  0  0  0  0  0  0  0
    6.6530   -5.1044   28.5474 C   0  0  0  0  0  0  0  0  0  0  0  0
    9.8046   -2.4615   25.4352 N   0  0  0  0  0  0  0  0  0  0  0  0
   10.0010   -0.1467   25.4287 O   0  0  0  0  0  0  0  0  0  0  0  0
    8.7878   -6.1824   26.4765 O   0  0  0  0  0  0  0  0  0  0  0  0
    6.7678   -3.7501   28.5869 F   0  0  0  0  0  0  0  0  0  0  0  0
    6.2358   -5.6258   26.8712 S   0  0  0  0  0  0  0  0  0  0  0  0
   12.3717    1.1472   22.1763 H   0  0  0  0  0  0  0  0  0  0  0  0
   10.7275    0.6771   22.6537 H   0  0  0  0  0  0  0  0  0  0  0  0
   11.3345   -1.0296   21.0235 H   0  0  0  0  0  0  0  0  0  0  0  0
   12.9726   -1.1540   21.6873 H   0  0  0  0  0  0  0  0  0  0  0  0
   13.3401    0.0551   24.0949 H   0  0  0  0  0  0  0  0  0  0  0  0
   11.8897    0.8050   24.7795 H   0  0  0  0  0  0  0  0  0  0  0  0
   10.3993   -2.2258   22.8401 H   0  0  0  0  0  0  0  0  0  0  0  0
   12.0130   -2.9371   22.8674 H   0  0  0  0  0  0  0  0  0  0  0  0
    6.5436   -3.2277   26.0131 H   0  0  0  0  0  0  0  0  0  0  0  0
    7.1964   -2.5766   24.5117 H   0  0  0  0  0  0  0  0  0  0  0  0
    9.1784   -4.1262   23.2939 H   0  0  0  0  0  0  0  0  0  0  0  0
    9.6104   -5.6055   24.1478 H   0  0  0  0  0  0  0  0  0  0  0  0
    8.2277   -1.4282   26.3966 H   0  0  0  0  0  0  0  0  0  0  0  0
    8.7275   -2.9464   27.1410 H   0  0  0  0  0  0  0  0  0  0  0  0
   10.5262   -4.3096   26.0381 H   0  0  0  0  0  0  0  0  0  0  0  0
   11.2332   -3.7570   24.5286 H   0  0  0  0  0  0  0  0  0  0  0  0
   12.4253   -1.9246   24.9417 H   0  0  0  0  0  0  0  0  0  0  0  0
    7.1389   -4.9473   24.2211 H   0  0  0  0  0  0  0  0  0  0  0  0
    7.6088   -5.5323   28.8608 H   0  0  0  0  0  0  0  0  0  0  0  0
    5.8693   -5.3961   29.2513 H   0  0  0  0  0  0  0  0  0  0  0  0
  1 11  1  0  0  0  0
  1 14  1  0  0  0  0
  1 15  2  0  0  0  0
  2 12  1  0  0  0  0
  2 16  2  0  0  0  0
  2 18  1  0  0  0  0
  3  4  1  0  0  0  0
  3  5  1  0  0  0  0
  3 19  1  0  0  0  0
  3 20  1  0  0  0  0
  4  6  1  0  0  0  0
  4 21  1  0  0  0  0
  4 22  1  0  0  0  0
  5 11  1  0  0  0  0
  5 23  1  0  0  0  0
  5 24  1  0  0  0  0
  6 11  1  0  0  0  0
  6 25  1  0  0  0  0
  6 26  1  0  0  0  0
  7  9  1  0  0  0  0
  7 12  1  0  0  0  0
  7 27  1  0  0  0  0
  7 28  1  0  0  0  0
  8 10  1  0  0  0  0
  8 12  1  0  0  0  0
  8 29  1  0  0  0  0
  8 30  1  0  0  0  0
  9 14  1  0  0  0  0
  9 31  1  0  0  0  0
  9 32  1  0  0  0  0
 10 14  1  0  0  0  0
 10 33  1  0  0  0  0
 10 34  1  0  0  0  0
 11 35  1  0  0  0  0
 12 36  1  0  0  0  0
 13 17  1  0  0  0  0
 13 18  1  0  0  0  0
 13 37  1  0  0  0  0
 13 38  1  0  0  0  0
M  END
>  <Chemgauss4 Score>
-4.65887403488159

>  <Number of Confs>
200

$$$$
