CHR-SOS-54d-4
 OpenBabel03242009303D

 51 53  0  0  1  0  0  0  0  0999 V2000
    8.7605   -0.7806   22.4086 C   0  0  0  0  0  0  0  0  0  0  0  0
    9.9042   -0.9197   22.7472 C   0  0  0  0  0  0  0  0  0  0  0  0
    7.0747   -4.1117   27.4325 C   0  0  0  0  0  0  0  0  0  0  0  0
    8.0724   -3.5395   26.6512 C   0  0  0  0  0  0  0  0  0  0  0  0
    7.0206   -5.4943   27.5051 C   0  0  0  0  0  0  0  0  0  0  0  0
    8.8340   -5.7276   26.1138 C   0  0  0  0  0  0  0  0  0  0  0  0
    8.9729   -4.3559   25.9759 C   0  0  0  0  0  0  0  0  0  0  0  0
   10.2613   -2.4558   24.9407 C   0  0  0  0  0  0  0  0  0  0  0  0
   14.1456    0.0068   23.0341 C   0  0  0  0  0  0  0  0  0  0  0  0
   13.7545   -1.2355   22.2417 C   0  0  0  0  0  0  0  0  0  0  0  0
   13.3125    0.1498   24.3027 C   0  0  0  0  0  0  0  0  0  0  0  0
    6.2928   -0.1878   24.2696 C   0  0  0  0  0  0  0  0  0  0  0  0
    5.5773   -1.5259   24.1253 C   0  0  0  0  0  0  0  0  0  0  0  0
    6.6214    0.3926   22.8948 C   0  0  0  0  0  0  0  0  0  0  0  0
   12.2569   -1.2573   21.9274 C   0  0  0  0  0  0  0  0  0  0  0  0
   11.8127    0.1353   23.9987 C   0  0  0  0  0  0  0  0  0  0  0  0
    6.3617   -2.4802   23.2292 C   0  0  0  0  0  0  0  0  0  0  0  0
    7.3561   -0.6096   21.9928 C   0  0  2  0  0  0  0  0  0  0  0  0
   11.3695   -1.0971   23.1808 C   0  0  0  0  0  0  0  0  0  0  0  0
   11.4537   -2.3165   24.0186 C   0  0  0  0  0  0  0  0  0  0  0  0
    7.8776   -6.3199   26.8636 N   0  0  0  0  0  0  0  0  0  0  0  0
    6.6405   -1.8890   21.9206 N   0  0  0  0  0  0  0  0  0  0  0  0
    9.9987   -3.8029   25.1730 N   0  0  0  0  0  0  0  0  0  0  0  0
    9.6529   -1.4895   25.3886 O   0  0  0  0  0  0  0  0  0  0  0  0
    6.3619   -3.4947   27.9677 H   0  0  0  0  0  0  0  0  0  0  0  0
    8.1391   -2.4574   26.5755 H   0  0  0  0  0  0  0  0  0  0  0  0
    6.2606   -5.9894   28.1005 H   0  0  0  0  0  0  0  0  0  0  0  0
    9.5066   -6.4164   25.6115 H   0  0  0  0  0  0  0  0  0  0  0  0
   15.2086   -0.0498   23.3001 H   0  0  0  0  0  0  0  0  0  0  0  0
   14.0210    0.8977   22.4085 H   0  0  0  0  0  0  0  0  0  0  0  0
   14.3322   -1.2746   21.3102 H   0  0  0  0  0  0  0  0  0  0  0  0
   14.0204   -2.1320   22.8136 H   0  0  0  0  0  0  0  0  0  0  0  0
   13.5531   -0.6681   24.9917 H   0  0  0  0  0  0  0  0  0  0  0  0
   13.5805    1.0815   24.8157 H   0  0  0  0  0  0  0  0  0  0  0  0
    5.6527    0.5133   24.8182 H   0  0  0  0  0  0  0  0  0  0  0  0
    7.2110   -0.3130   24.8535 H   0  0  0  0  0  0  0  0  0  0  0  0
    5.4424   -1.9777   25.1171 H   0  0  0  0  0  0  0  0  0  0  0  0
    4.5752   -1.3667   23.7099 H   0  0  0  0  0  0  0  0  0  0  0  0
    5.6892    0.7229   22.4107 H   0  0  0  0  0  0  0  0  0  0  0  0
    7.2312    1.3018   23.0259 H   0  0  0  0  0  0  0  0  0  0  0  0
   12.0361   -0.4697   21.1949 H   0  0  0  0  0  0  0  0  0  0  0  0
   12.0248   -2.2121   21.4363 H   0  0  0  0  0  0  0  0  0  0  0  0
   11.2704    0.1528   24.9538 H   0  0  0  0  0  0  0  0  0  0  0  0
   11.5475    1.0625   23.4739 H   0  0  0  0  0  0  0  0  0  0  0  0
    7.3118   -2.7362   23.7119 H   0  0  0  0  0  0  0  0  0  0  0  0
    5.8124   -3.4217   23.1020 H   0  0  0  0  0  0  0  0  0  0  0  0
    7.3756   -0.1784   20.9551 H   0  0  0  0  0  0  0  0  0  0  0  0
   12.3659   -2.2651   24.6123 H   0  0  0  0  0  0  0  0  0  0  0  0
   11.5064   -3.1841   23.3617 H   0  0  0  0  0  0  0  0  0  0  0  0
    7.2052   -2.5557   21.3793 H   0  0  0  0  0  0  0  0  0  0  0  0
   10.6082   -4.4799   24.7188 H   0  0  0  0  0  0  0  0  0  0  0  0
  1  2  3  0  0  0  0
  1 18  1  0  0  0  0
  2 19  1  0  0  0  0
  3  4  2  0  0  0  0
  3  5  1  0  0  0  0
  3 25  1  0  0  0  0
  4  7  1  0  0  0  0
  4 26  1  0  0  0  0
  5 21  2  0  0  0  0
  5 27  1  0  0  0  0
  6  7  2  0  0  0  0
  6 21  1  0  0  0  0
  6 28  1  0  0  0  0
  7 23  1  0  0  0  0
  8 20  1  0  0  0  0
  8 23  1  0  0  0  0
  8 24  2  0  0  0  0
  9 10  1  0  0  0  0
  9 11  1  0  0  0  0
  9 29  1  0  0  0  0
  9 30  1  0  0  0  0
 10 15  1  0  0  0  0
 10 31  1  0  0  0  0
 10 32  1  0  0  0  0
 11 16  1  0  0  0  0
 11 33  1  0  0  0  0
 11 34  1  0  0  0  0
 12 13  1  0  0  0  0
 12 14  1  0  0  0  0
 12 35  1  0  0  0  0
 12 36  1  0  0  0  0
 13 17  1  0  0  0  0
 13 37  1  0  0  0  0
 13 38  1  0  0  0  0
 14 18  1  0  0  0  0
 14 39  1  0  0  0  0
 14 40  1  0  0  0  0
 15 19  1  0  0  0  0
 15 41  1  0  0  0  0
 15 42  1  0  0  0  0
 16 19  1  0  0  0  0
 16 43  1  0  0  0  0
 16 44  1  0  0  0  0
 17 22  1  0  0  0  0
 17 45  1  0  0  0  0
 17 46  1  0  0  0  0
 18 22  1  0  0  0  0
 18 47  1  6  0  0  0
 19 20  1  0  0  0  0
 20 48  1  0  0  0  0
 20 49  1  0  0  0  0
 22 50  1  0  0  0  0
 23 51  1  0  0  0  0
M  END
>  <Chemgauss4 Score>
-5.09993934631348

>  <Number of Confs>
138

$$$$
