DUN-NEW-f8c-16
 OpenBabel03242009303D

 48 51  0  0  0  0  0  0  0  0999 V2000
   12.0116   -3.9804   22.8032 C   0  0  0  0  0  0  0  0  0  0  0  0
    5.9642    0.9787   20.3532 C   0  0  0  0  0  0  0  0  0  0  0  0
   12.9332   -2.9686   22.5101 C   0  0  0  0  0  0  0  0  0  0  0  0
   10.7633   -3.6740   23.3415 C   0  0  0  0  0  0  0  0  0  0  0  0
    6.6369    0.3063   21.3673 C   0  0  0  0  0  0  0  0  0  0  0  0
   13.2519   -0.3811   22.5974 C   0  0  0  0  0  0  0  0  0  0  0  0
    6.3809    0.7690   19.0485 C   0  0  0  0  0  0  0  0  0  0  0  0
    8.0303   -0.6850   19.7144 C   0  0  0  0  0  0  0  0  0  0  0  0
   12.4014    0.6102   23.0298 C   0  0  0  0  0  0  0  0  0  0  0  0
   12.5857   -1.6272   22.7659 C   0  0  0  0  0  0  0  0  0  0  0  0
   11.3280   -1.3499   23.3057 C   0  0  0  0  0  0  0  0  0  0  0  0
    7.6910   -0.5433   21.0503 C   0  0  0  0  0  0  0  0  0  0  0  0
   10.3966   -2.3509   23.6038 C   0  0  0  0  0  0  0  0  0  0  0  0
    8.1707   -1.2007   23.4429 C   0  0  0  0  0  0  0  0  0  0  0  0
    7.9557   -3.9764   25.1496 C   0  0  0  0  0  0  0  0  0  0  0  0
    9.9384   -2.9035   26.2947 C   0  0  0  0  0  0  0  0  0  0  0  0
    7.5865   -4.6857   26.4528 C   0  0  0  0  0  0  0  0  0  0  0  0
    9.5705   -3.6143   27.5979 C   0  0  0  0  0  0  0  0  0  0  0  0
    8.7090   -2.6707   25.4130 C   0  0  1  0  0  0  0  0  0  0  0  0
    8.8039   -4.9130   27.3499 C   0  0  2  0  0  0  0  0  0  0  0  0
    7.4003   -0.0484   18.7018 N   0  0  0  0  0  0  0  0  0  0  0  0
   11.2436    0.0160   23.4554 N   0  0  0  0  0  0  0  0  0  0  0  0
    8.3952   -1.2414   22.0611 N   0  0  0  0  0  0  0  0  0  0  0  0
    9.0839   -2.0436   24.1687 N   0  0  0  0  0  0  0  0  0  0  0  0
    7.2896   -0.5232   23.9743 O   0  0  0  0  0  0  0  0  0  0  0  0
    9.6843   -5.8545   26.7398 O   0  0  0  0  0  0  0  0  0  0  0  0
   12.2743   -5.0168   22.6081 H   0  0  0  0  0  0  0  0  0  0  0  0
    5.1396    1.6459   20.5771 H   0  0  0  0  0  0  0  0  0  0  0  0
   13.9024   -3.2223   22.0903 H   0  0  0  0  0  0  0  0  0  0  0  0
   10.0704   -4.4846   23.5577 H   0  0  0  0  0  0  0  0  0  0  0  0
    6.3319    0.4515   22.4003 H   0  0  0  0  0  0  0  0  0  0  0  0
   14.2463   -0.2254   22.2019 H   0  0  0  0  0  0  0  0  0  0  0  0
    5.8893    1.2707   18.2215 H   0  0  0  0  0  0  0  0  0  0  0  0
    8.8439   -1.3341   19.4045 H   0  0  0  0  0  0  0  0  0  0  0  0
   12.5169    1.6841   23.0722 H   0  0  0  0  0  0  0  0  0  0  0  0
    8.5456   -4.6435   24.5170 H   0  0  0  0  0  0  0  0  0  0  0  0
    7.0372   -3.7495   24.6005 H   0  0  0  0  0  0  0  0  0  0  0  0
   10.3842   -1.9363   26.5386 H   0  0  0  0  0  0  0  0  0  0  0  0
   10.6968   -3.4770   25.7593 H   0  0  0  0  0  0  0  0  0  0  0  0
    6.8350   -4.0975   26.9969 H   0  0  0  0  0  0  0  0  0  0  0  0
    7.0998   -5.6470   26.2357 H   0  0  0  0  0  0  0  0  0  0  0  0
   10.4784   -3.8257   28.1801 H   0  0  0  0  0  0  0  0  0  0  0  0
    8.9703   -2.9456   28.2290 H   0  0  0  0  0  0  0  0  0  0  0  0
    8.0375   -1.9641   25.9118 H   0  0  0  0  0  0  0  0  0  0  0  0
    8.4793   -5.3361   28.3102 H   0  0  0  0  0  0  0  0  0  0  0  0
   10.4424    0.5084   23.8256 H   0  0  0  0  0  0  0  0  0  0  0  0
    9.1521   -1.8423   21.7472 H   0  0  0  0  0  0  0  0  0  0  0  0
    9.1801   -6.6763   26.6307 H   0  0  0  0  0  0  0  0  0  0  0  0
  1  3  1  0  0  0  0
  1  4  2  0  0  0  0
  1 27  1  0  0  0  0
  2  5  2  0  0  0  0
  2  7  1  0  0  0  0
  2 28  1  0  0  0  0
  3 10  2  0  0  0  0
  3 29  1  0  0  0  0
  4 13  1  0  0  0  0
  4 30  1  0  0  0  0
  5 12  1  0  0  0  0
  5 31  1  0  0  0  0
  6  9  2  0  0  0  0
  6 10  1  0  0  0  0
  6 32  1  0  0  0  0
  7 21  2  0  0  0  0
  7 33  1  0  0  0  0
  8 12  2  0  0  0  0
  8 21  1  0  0  0  0
  8 34  1  0  0  0  0
  9 22  1  0  0  0  0
  9 35  1  0  0  0  0
 10 11  1  0  0  0  0
 11 13  2  0  0  0  0
 11 22  1  0  0  0  0
 12 23  1  0  0  0  0
 13 24  1  0  0  0  0
 14 23  1  0  0  0  0
 14 24  1  0  0  0  0
 14 25  2  0  0  0  0
 15 17  1  0  0  0  0
 15 19  1  0  0  0  0
 15 36  1  0  0  0  0
 15 37  1  0  0  0  0
 16 18  1  0  0  0  0
 16 19  1  0  0  0  0
 16 38  1  0  0  0  0
 16 39  1  0  0  0  0
 17 20  1  0  0  0  0
 17 40  1  0  0  0  0
 17 41  1  0  0  0  0
 18 20  1  0  0  0  0
 18 42  1  0  0  0  0
 18 43  1  0  0  0  0
 19 24  1  0  0  0  0
 19 44  1  1  0  0  0
 20 26  1  0  0  0  0
 20 45  1  1  0  0  0
 22 46  1  0  0  0  0
 23 47  1  0  0  0  0
 26 48  1  0  0  0  0
M  END
>  <Chemgauss4 Score>
-5.46849775314331

>  <Number of Confs>
31

$$$$
