DUN-NEW-d83-1
 OpenBabel03242009303D

 40 42  0  0  1  0  0  0  0  0999 V2000
    5.0129   -6.6262   22.7582 C   0  0  0  0  0  0  0  0  0  0  0  0
    4.6799   -6.2586   24.0619 C   0  0  0  0  0  0  0  0  0  0  0  0
    6.2537   -6.2715   22.2289 C   0  0  0  0  0  0  0  0  0  0  0  0
   12.6243   -0.7919   22.0594 C   0  0  0  0  0  0  0  0  0  0  0  0
    5.5877   -5.5362   24.8362 C   0  0  0  0  0  0  0  0  0  0  0  0
    7.1615   -5.5490   23.0032 C   0  0  0  0  0  0  0  0  0  0  0  0
   11.3448   -1.3249   22.1687 C   0  0  0  0  0  0  0  0  0  0  0  0
   13.1836   -0.2117   23.1865 C   0  0  0  0  0  0  0  0  0  0  0  0
   11.3198   -0.6612   24.4524 C   0  0  0  0  0  0  0  0  0  0  0  0
    6.8285   -5.1813   24.3069 C   0  0  0  0  0  0  0  0  0  0  0  0
   10.6731   -1.2623   23.3846 C   0  0  0  0  0  0  0  0  0  0  0  0
    9.8023   -5.8664   25.5548 C   0  0  0  0  0  0  0  0  0  0  0  0
    7.6817   -2.8693   25.0221 C   0  0  0  0  0  0  0  0  0  0  0  0
    9.9693   -3.3991   25.2508 C   0  0  0  0  0  0  0  0  0  0  0  0
    7.8133   -4.3977   25.1460 C   0  0  2  0  0  0  0  0  0  0  0  0
    9.2786   -4.6798   24.8079 C   0  0  2  0  0  0  0  0  0  0  0  0
    9.2910   -1.8292   23.5348 C   0  0  0  0  0  0  0  0  0  0  0  0
   12.5621   -0.1323   24.3844 N   0  0  0  0  0  0  0  0  0  0  0  0
    9.0436   -2.3157   24.8916 N   0  0  0  0  0  0  0  0  0  0  0  0
   11.1489   -6.0817   25.3796 N   0  0  0  0  0  0  0  0  0  0  0  0
    9.0806   -6.5601   26.2669 O   0  0  0  0  0  0  0  0  0  0  0  0
    4.3064   -7.1899   22.1559 H   0  0  0  0  0  0  0  0  0  0  0  0
    3.7142   -6.5357   24.4746 H   0  0  0  0  0  0  0  0  0  0  0  0
    6.5137   -6.5585   21.2143 H   0  0  0  0  0  0  0  0  0  0  0  0
   13.1668   -0.8297   21.1217 H   0  0  0  0  0  0  0  0  0  0  0  0
    5.3196   -5.2539   25.8510 H   0  0  0  0  0  0  0  0  0  0  0  0
    8.1259   -5.2769   22.5824 H   0  0  0  0  0  0  0  0  0  0  0  0
   10.8794   -1.7868   21.3022 H   0  0  0  0  0  0  0  0  0  0  0  0
   14.1792    0.2186   23.1529 H   0  0  0  0  0  0  0  0  0  0  0  0
   10.8456   -0.5831   25.4258 H   0  0  0  0  0  0  0  0  0  0  0  0
    7.0535   -2.5911   24.1390 H   0  0  0  0  0  0  0  0  0  0  0  0
    7.1575   -2.4410   25.9091 H   0  0  0  0  0  0  0  0  0  0  0  0
   10.1996   -3.3781   26.3275 H   0  0  0  0  0  0  0  0  0  0  0  0
   10.9227   -3.2933   24.7057 H   0  0  0  0  0  0  0  0  0  0  0  0
    7.6093   -4.6855   26.2142 H   0  0  0  0  0  0  0  0  0  0  0  0
    9.4448   -4.8486   23.7406 H   0  0  0  0  0  0  0  0  0  0  0  0
    8.5353   -1.0700   23.3057 H   0  0  0  0  0  0  0  0  0  0  0  0
    9.1320   -2.6649   22.8453 H   0  0  0  0  0  0  0  0  0  0  0  0
   11.6697   -5.4482   24.7821 H   0  0  0  0  0  0  0  0  0  0  0  0
   11.6429   -6.8489   25.8239 H   0  0  0  0  0  0  0  0  0  0  0  0
  1  2  1  0  0  0  0
  1  3  2  0  0  0  0
  1 22  1  0  0  0  0
  2  5  2  0  0  0  0
  2 23  1  0  0  0  0
  3  6  1  0  0  0  0
  3 24  1  0  0  0  0
  4  7  2  0  0  0  0
  4  8  1  0  0  0  0
  4 25  1  0  0  0  0
  5 10  1  0  0  0  0
  5 26  1  0  0  0  0
  6 10  2  0  0  0  0
  6 27  1  0  0  0  0
  7 11  1  0  0  0  0
  7 28  1  0  0  0  0
  8 18  2  0  0  0  0
  8 29  1  0  0  0  0
  9 11  2  0  0  0  0
  9 18  1  0  0  0  0
  9 30  1  0  0  0  0
 10 15  1  0  0  0  0
 11 17  1  0  0  0  0
 12 16  1  0  0  0  0
 12 20  1  0  0  0  0
 12 21  2  0  0  0  0
 13 15  1  0  0  0  0
 13 19  1  0  0  0  0
 13 31  1  0  0  0  0
 13 32  1  0  0  0  0
 14 16  1  0  0  0  0
 14 19  1  0  0  0  0
 14 33  1  0  0  0  0
 14 34  1  0  0  0  0
 15 16  1  0  0  0  0
 15 35  1  1  0  0  0
 16 36  1  6  0  0  0
 17 19  1  0  0  0  0
 17 37  1  0  0  0  0
 17 38  1  0  0  0  0
 20 39  1  0  0  0  0
 20 40  1  0  0  0  0
M  END
>  <Chemgauss4 Score>
-5.29299116134644

>  <Number of Confs>
103

$$$$
