CHR-SOS-54d-8
 OpenBabel03242009303D

 46 48  0  0  0  0  0  0  0  0999 V2000
    8.9541   -2.0006   22.5673 C   0  0  0  0  0  0  0  0  0  0  0  0
    9.9773   -2.1932   23.1662 C   0  0  0  0  0  0  0  0  0  0  0  0
    5.3663   -5.5633   24.7942 C   0  0  0  0  0  0  0  0  0  0  0  0
    6.6250   -5.2613   24.2865 C   0  0  0  0  0  0  0  0  0  0  0  0
    7.4861   -1.9032   20.4759 C   0  0  0  0  0  0  0  0  0  0  0  0
    5.1654   -5.4196   26.1575 C   0  0  0  0  0  0  0  0  0  0  0  0
    7.3278   -4.7198   26.4931 C   0  0  0  0  0  0  0  0  0  0  0  0
    7.7353   -1.7692   21.8550 C   0  0  0  0  0  0  0  0  0  0  0  0
    7.6301   -4.8310   25.1455 C   0  0  0  0  0  0  0  0  0  0  0  0
    6.1647   -1.5581   20.3307 C   0  0  0  0  0  0  0  0  0  0  0  0
   10.0205   -4.0772   25.3905 C   0  0  0  0  0  0  0  0  0  0  0  0
   12.8211    0.0997   23.6849 C   0  0  0  0  0  0  0  0  0  0  0  0
   12.6906   -0.8479   22.4978 C   0  0  0  0  0  0  0  0  0  0  0  0
   11.6137    0.0098   24.6114 C   0  0  0  0  0  0  0  0  0  0  0  0
   12.4440   -2.2891   22.9494 C   0  0  0  0  0  0  0  0  0  0  0  0
   11.3614   -1.4271   25.0736 C   0  0  0  0  0  0  0  0  0  0  0  0
   11.2397   -2.4297   23.9055 C   0  0  0  0  0  0  0  0  0  0  0  0
    5.2911   -1.4903   19.1480 C   0  0  0  0  0  0  0  0  0  0  0  0
   11.1999   -3.8616   24.4664 C   0  0  0  0  0  0  0  0  0  0  0  0
    6.1170   -5.0041   27.0232 N   0  0  0  0  0  0  0  0  0  0  0  0
    6.6585   -1.3700   22.5371 N   0  0  0  0  0  0  0  0  0  0  0  0
    5.7200   -1.2501   21.5827 N   0  0  0  0  0  0  0  0  0  0  0  0
    8.9211   -4.5165   24.6584 N   0  0  0  0  0  0  0  0  0  0  0  0
   10.0803   -3.8790   26.5994 O   0  0  0  0  0  0  0  0  0  0  0  0
    4.5679   -5.9005   24.1431 H   0  0  0  0  0  0  0  0  0  0  0  0
    6.8117   -5.3648   23.2208 H   0  0  0  0  0  0  0  0  0  0  0  0
    8.1675   -2.2067   19.6937 H   0  0  0  0  0  0  0  0  0  0  0  0
    4.2016   -5.6432   26.6030 H   0  0  0  0  0  0  0  0  0  0  0  0
    8.0705   -4.3888   27.2128 H   0  0  0  0  0  0  0  0  0  0  0  0
   13.7314   -0.1430   24.2472 H   0  0  0  0  0  0  0  0  0  0  0  0
   12.9340    1.1284   23.3249 H   0  0  0  0  0  0  0  0  0  0  0  0
   11.8715   -0.5143   21.8492 H   0  0  0  0  0  0  0  0  0  0  0  0
   13.6051   -0.8058   21.8950 H   0  0  0  0  0  0  0  0  0  0  0  0
   11.7758    0.6511   25.4855 H   0  0  0  0  0  0  0  0  0  0  0  0
   10.7260    0.3981   24.0975 H   0  0  0  0  0  0  0  0  0  0  0  0
   12.3080   -2.9212   22.0619 H   0  0  0  0  0  0  0  0  0  0  0  0
   13.3518   -2.6499   23.4517 H   0  0  0  0  0  0  0  0  0  0  0  0
   12.1927   -1.7270   25.7259 H   0  0  0  0  0  0  0  0  0  0  0  0
   10.4564   -1.4467   25.6949 H   0  0  0  0  0  0  0  0  0  0  0  0
    4.7808   -2.4528   18.9701 H   0  0  0  0  0  0  0  0  0  0  0  0
    4.5105   -0.7148   19.2488 H   0  0  0  0  0  0  0  0  0  0  0  0
    5.8505   -1.2367   18.2293 H   0  0  0  0  0  0  0  0  0  0  0  0
   12.1251   -4.0444   25.0121 H   0  0  0  0  0  0  0  0  0  0  0  0
   11.1372   -4.5582   23.6310 H   0  0  0  0  0  0  0  0  0  0  0  0
    4.7928   -0.9518   21.8590 H   0  0  0  0  0  0  0  0  0  0  0  0
    9.0465   -4.6293   23.6545 H   0  0  0  0  0  0  0  0  0  0  0  0
  1  2  3  0  0  0  0
  1  8  1  0  0  0  0
  2 17  1  0  0  0  0
  3  4  2  0  0  0  0
  3  6  1  0  0  0  0
  3 25  1  0  0  0  0
  4  9  1  0  0  0  0
  4 26  1  0  0  0  0
  5  8  1  0  0  0  0
  5 10  2  0  0  0  0
  5 27  1  0  0  0  0
  6 20  2  0  0  0  0
  6 28  1  0  0  0  0
  7  9  2  0  0  0  0
  7 20  1  0  0  0  0
  7 29  1  0  0  0  0
  8 21  2  0  0  0  0
  9 23  1  0  0  0  0
 10 18  1  0  0  0  0
 10 22  1  0  0  0  0
 11 19  1  0  0  0  0
 11 23  1  0  0  0  0
 11 24  2  0  0  0  0
 12 13  1  0  0  0  0
 12 14  1  0  0  0  0
 12 30  1  0  0  0  0
 12 31  1  0  0  0  0
 13 15  1  0  0  0  0
 13 32  1  0  0  0  0
 13 33  1  0  0  0  0
 14 16  1  0  0  0  0
 14 34  1  0  0  0  0
 14 35  1  0  0  0  0
 15 17  1  0  0  0  0
 15 36  1  0  0  0  0
 15 37  1  0  0  0  0
 16 17  1  0  0  0  0
 16 38  1  0  0  0  0
 16 39  1  0  0  0  0
 17 19  1  0  0  0  0
 18 40  1  0  0  0  0
 18 41  1  0  0  0  0
 18 42  1  0  0  0  0
 19 43  1  0  0  0  0
 19 44  1  0  0  0  0
 21 22  1  0  0  0  0
 22 45  1  0  0  0  0
 23 46  1  0  0  0  0
M  END
>  <Chemgauss4 Score>
-5.04434537887573

>  <Number of Confs>
78

$$$$
