TRY-UNI-714-11
 OpenBabel03242009303D

 30 31  0  0  0  0  0  0  0  0999 V2000
   12.2654    0.0551   22.9336 C   0  0  0  0  0  0  0  0  0  0  0  0
   11.8080   -0.9958   22.1386 C   0  0  0  0  0  0  0  0  0  0  0  0
   11.9606    0.0839   24.2945 C   0  0  0  0  0  0  0  0  0  0  0  0
   11.0458   -2.0178   22.7044 C   0  0  0  0  0  0  0  0  0  0  0  0
   11.1984   -0.9381   24.8603 C   0  0  0  0  0  0  0  0  0  0  0  0
    6.9196   -6.5134   28.4606 C   0  0  0  0  0  0  0  0  0  0  0  0
    7.1053   -5.7655   29.6121 C   0  0  0  0  0  0  0  0  0  0  0  0
    8.3414   -4.1848   28.4933 C   0  0  0  0  0  0  0  0  0  0  0  0
    7.4876   -6.0445   27.2813 C   0  0  0  0  0  0  0  0  0  0  0  0
   10.7410   -1.9890   24.0653 C   0  0  0  0  0  0  0  0  0  0  0  0
    8.2138   -4.8587   27.2894 C   0  0  0  0  0  0  0  0  0  0  0  0
    9.5656   -3.1648   25.9770 C   0  0  0  0  0  0  0  0  0  0  0  0
    7.3036   -6.8311   26.0251 C   0  0  0  0  0  0  0  0  0  0  0  0
    7.8041   -4.6091   29.6590 N   0  0  0  0  0  0  0  0  0  0  0  0
    9.9787   -3.0115   24.6311 N   0  0  0  0  0  0  0  0  0  0  0  0
    8.8104   -4.3403   26.1158 N   0  0  0  0  0  0  0  0  0  0  0  0
    9.8321   -2.3816   26.8830 O   0  0  0  0  0  0  0  0  0  0  0  0
   12.8596    0.8507   22.4935 H   0  0  0  0  0  0  0  0  0  0  0  0
   12.0458   -1.0190   21.0792 H   0  0  0  0  0  0  0  0  0  0  0  0
   12.3178    0.9019   24.9135 H   0  0  0  0  0  0  0  0  0  0  0  0
   10.6949   -2.8318   22.0750 H   0  0  0  0  0  0  0  0  0  0  0  0
   10.9672   -0.9051   25.9221 H   0  0  0  0  0  0  0  0  0  0  0  0
    6.3476   -7.4346   28.4881 H   0  0  0  0  0  0  0  0  0  0  0  0
    6.6828   -6.0881   30.5580 H   0  0  0  0  0  0  0  0  0  0  0  0
    8.8960   -3.2537   28.5636 H   0  0  0  0  0  0  0  0  0  0  0  0
    6.3978   -6.5042   25.5015 H   0  0  0  0  0  0  0  0  0  0  0  0
    8.1606   -6.7083   25.3514 H   0  0  0  0  0  0  0  0  0  0  0  0
    7.2164   -7.9037   26.2385 H   0  0  0  0  0  0  0  0  0  0  0  0
    9.6776   -3.7502   23.9867 H   0  0  0  0  0  0  0  0  0  0  0  0
    8.6720   -4.8921   25.2729 H   0  0  0  0  0  0  0  0  0  0  0  0
  1  2  1  0  0  0  0
  1  3  2  0  0  0  0
  1 18  1  0  0  0  0
  2  4  2  0  0  0  0
  2 19  1  0  0  0  0
  3  5  1  0  0  0  0
  3 20  1  0  0  0  0
  4 10  1  0  0  0  0
  4 21  1  0  0  0  0
  5 10  2  0  0  0  0
  5 22  1  0  0  0  0
  6  7  2  0  0  0  0
  6  9  1  0  0  0  0
  6 23  1  0  0  0  0
  7 14  1  0  0  0  0
  7 24  1  0  0  0  0
  8 11  1  0  0  0  0
  8 14  2  0  0  0  0
  8 25  1  0  0  0  0
  9 11  2  0  0  0  0
  9 13  1  0  0  0  0
 10 15  1  0  0  0  0
 11 16  1  0  0  0  0
 12 15  1  0  0  0  0
 12 16  1  0  0  0  0
 12 17  2  0  0  0  0
 13 26  1  0  0  0  0
 13 27  1  0  0  0  0
 13 28  1  0  0  0  0
 15 29  1  0  0  0  0
 16 30  1  0  0  0  0
M  END
>  <Chemgauss4 Score>
-4.60560417175293

>  <Number of Confs>
1

$$$$
