EN300-170738
  -OEChem-08252008263D

 55 57  0     1  0  0  0  0  0999 V2000
    5.2100    2.1920   19.4590 C   0  0  0  0  0  0  0  0  0  0  0  0
    8.5870   -1.8850   24.2280 C   0  0  0  0  0  0  0  0  0  0  0  0
    7.4310   -3.7940   25.1390 C   0  0  0  0  0  0  0  0  0  0  0  0
    9.7690   -3.4130   25.7330 C   0  0  0  0  0  0  0  0  0  0  0  0
    5.6460    1.5030   18.3330 C   0  0  0  0  0  0  0  0  0  0  0  0
    6.2030   -0.3770   19.5880 C   0  0  0  0  0  0  0  0  0  0  0  0
    5.2070    1.5460   20.7020 C   0  0  0  0  0  0  0  0  0  0  0  0
    7.4100   -2.6450   24.3350 C   0  0  0  0  0  0  0  0  0  0  0  0
    5.8170    0.1890   20.8050 C   0  0  0  0  0  0  0  0  0  0  0  0
    9.7200   -2.2220   25.0190 C   0  0  0  0  0  0  0  0  0  0  0  0
    8.6290   -4.2030   25.8040 C   0  0  0  0  0  0  0  0  0  0  0  0
    6.0810   -1.7610   22.3330 C   0  0  0  0  0  0  0  0  0  0  0  0
   14.3310    1.1120   24.2370 C   0  0  0  0  0  0  0  0  0  0  0  0
   14.7410    1.2490   22.6590 C   0  0  0  0  0  0  0  0  0  0  0  0
   14.1870   -0.9950   22.2630 C   0  0  0  0  0  0  0  0  0  0  0  0
   13.8910   -1.2640   23.7700 C   0  0  1  0  0  0  0  0  0  0  0  0
    4.6640    2.3520   21.7690 C   0  0  0  0  0  0  0  0  0  0  0  0
   15.2420   -1.7550   24.4740 C   0  0  0  0  0  0  0  0  0  0  0  0
    6.0360   -2.0930   23.8350 C   0  0  0  0  0  0  0  0  0  0  0  0
   12.8510   -0.2520   25.8370 C   0  0  0  0  0  0  0  0  0  0  0  0
   11.8440   -1.3680   25.8650 C   0  0  0  0  0  0  0  0  0  0  0  0
    6.0960    0.2160   18.3940 N   0  0  0  0  0  0  0  0  0  0  0  0
    5.7920   -0.4310   22.0160 N   0  0  0  0  0  0  0  0  0  0  0  0
   13.4210   -0.0530   24.4410 N   0  3  1  0  0  0  0  0  0  0  0  0
    6.1810   -2.5960   21.4760 O   0  0  0  0  0  0  0  0  0  0  0  0
   15.1730   -0.0070   22.0900 O   0  0  0  0  0  0  0  0  0  0  0  0
   10.7420   -1.2580   24.9710 O   0  0  0  0  0  0  0  0  0  0  0  0
    8.7490   -5.7900   26.5210 Cl  0  0  0  0  0  0  0  0  0  0  0  0
    4.8980    3.2280   19.4320 H   0  0  0  0  0  0  0  0  0  0  0  0
    8.5930   -1.0540   23.5370 H   0  0  0  0  0  0  0  0  0  0  0  0
    6.5460   -4.3690   25.3900 H   0  0  0  0  0  0  0  0  0  0  0  0
   10.6410   -3.7780   26.2660 H   0  0  0  0  0  0  0  0  0  0  0  0
    5.6670    1.9810   17.3650 H   0  0  0  0  0  0  0  0  0  0  0  0
    6.6320   -1.3640   19.4750 H   0  0  0  0  0  0  0  0  0  0  0  0
   15.2300    1.0440   24.8470 H   0  0  0  0  0  0  0  0  0  0  0  0
   13.7410    2.0190   24.4300 H   0  0  0  0  0  0  0  0  0  0  0  0
   13.8740    1.6470   22.1090 H   0  0  0  0  0  0  0  0  0  0  0  0
   15.5360    1.9930   22.5280 H   0  0  0  0  0  0  0  0  0  0  0  0
   14.5940   -1.8630   21.7390 H   0  0  0  0  0  0  0  0  0  0  0  0
   13.2690   -0.7260   21.7260 H   0  0  0  0  0  0  0  0  0  0  0  0
   13.1390   -2.0520   23.6810 H   0  0  0  0  0  0  0  0  0  0  0  0
    5.1960    2.2420   22.7210 H   0  0  0  0  0  0  0  0  0  0  0  0
    4.8040    3.4350   21.6870 H   0  0  0  0  0  0  0  0  0  0  0  0
    3.6190    2.1170   21.9560 H   0  0  0  0  0  0  0  0  0  0  0  0
   15.5740   -2.6660   23.9640 H   0  0  0  0  0  0  0  0  0  0  0  0
   16.0430   -1.0580   24.2080 H   0  0  0  0  0  0  0  0  0  0  0  0
   15.1540   -1.8180   25.5620 H   0  0  0  0  0  0  0  0  0  0  0  0
    5.2740   -2.8870   23.8660 H   0  0  0  0  0  0  0  0  0  0  0  0
    5.7230   -1.2410   24.4450 H   0  0  0  0  0  0  0  0  0  0  0  0
   13.7510   -0.3920   26.4410 H   0  0  0  0  0  0  0  0  0  0  0  0
   12.3820    0.7110   26.0330 H   0  0  0  0  0  0  0  0  0  0  0  0
   12.3310   -2.2690   25.4730 H   0  0  0  0  0  0  0  0  0  0  0  0
   11.4170   -1.5160   26.8610 H   0  0  0  0  0  0  0  0  0  0  0  0
    5.7920    0.2680   22.7680 H   0  0  0  0  0  0  0  0  0  0  0  0
   12.5780    0.1440   23.9010 H   0  0  0  0  0  0  0  0  0  0  0  0
  5 33  1  0  0  0  0
  5 22  2  0  0  0  0
  1  5  1  0  0  0  0
  6 22  1  0  0  0  0
  1 29  1  0  0  0  0
  1  7  2  0  0  0  0
  6 34  1  0  0  0  0
  6  9  2  0  0  0  0
  7  9  1  0  0  0  0
  7 17  1  0  0  0  0
  9 23  1  0  0  0  0
 12 25  2  0  0  0  0
 17 43  1  0  0  0  0
 15 40  1  0  0  0  0
 15 39  1  0  0  0  0
 17 44  1  0  0  0  0
 17 42  1  0  0  0  0
 12 23  1  0  0  0  0
 23 54  1  0  0  0  0
 15 26  1  0  0  0  0
 14 26  1  0  0  0  0
 14 37  1  0  0  0  0
 15 16  1  0  0  0  0
 12 19  1  0  0  0  0
 14 38  1  0  0  0  0
 13 14  1  0  0  0  0
  2 30  1  0  0  0  0
 16 41  1  0  0  0  0
 16 24  1  0  0  0  0
 16 18  1  0  0  0  0
 19 48  1  0  0  0  0
  8 19  1  0  0  0  0
 19 49  1  0  0  0  0
 24 55  1  0  0  0  0
 18 45  1  0  0  0  0
 18 46  1  0  0  0  0
  2  8  2  0  0  0  0
  2 10  1  0  0  0  0
 13 36  1  0  0  0  0
 13 24  1  0  0  0  0
 13 35  1  0  0  0  0
  3  8  1  0  0  0  0
 20 24  1  0  0  0  0
 18 47  1  0  0  0  0
 10 27  1  0  0  0  0
 21 27  1  0  0  0  0
  4 10  2  0  0  0  0
  3 31  1  0  0  0  0
  3 11  2  0  0  0  0
 21 52  1  0  0  0  0
  4 11  1  0  0  0  0
  4 32  1  0  0  0  0
 11 28  1  0  0  0  0
 20 21  1  0  0  0  0
 20 51  1  0  0  0  0
 20 50  1  0  0  0  0
 21 53  1  0  0  0  0
M  CHG  1  24   1
M  END
> <CID>
EN300-170738

> <SMILES>
Cc1ccncc1NC(=O)Cc2cc(cc(c2)Cl)OCC[N@H+]3CCOC[C@@H]3C

> <RUN>
RUN3598

> <DDG (kcal/mol)>
-4.21

> <dDDG (kcal/mol)>
0.19

$$$$
EN300-382173
  -OEChem-08252008263D

 57 60  0     0  0  0  0  0  0999 V2000
    4.6030    2.5660   21.2380 C   0  0  0  0  0  0  0  0  0  0  0  0
   12.7810    4.0480   22.5710 C   0  0  0  0  0  0  0  0  0  0  0  0
   12.2690    1.5880   22.5120 C   0  0  0  0  0  0  0  0  0  0  0  0
   14.4970    2.3540   22.0670 C   0  0  0  0  0  0  0  0  0  0  0  0
    4.6560    1.2000   20.9470 C   0  0  0  0  0  0  0  0  0  0  0  0
    6.9810    1.2150   21.0950 C   0  0  0  0  0  0  0  0  0  0  0  0
   16.6880    6.9810   21.1490 C   0  0  0  0  0  0  0  0  0  0  0  0
    5.7570    3.2170   21.6060 C   0  0  0  0  0  0  0  0  0  0  0  0
   11.8460    2.9590   22.7090 C   0  0  0  0  0  0  0  0  0  0  0  0
    6.9710    2.5710   21.5290 C   0  0  0  0  0  0  0  0  0  0  0  0
   14.1190    3.7540   22.2610 C   0  0  0  0  0  0  0  0  0  0  0  0
   13.5870    1.3370   22.1760 C   0  0  0  0  0  0  0  0  0  0  0  0
   17.1370    5.6910   21.0950 C   0  0  0  0  0  0  0  0  0  0  0  0
   18.7770    6.9030   20.4780 C   0  0  0  0  0  0  0  0  0  0  0  0
    9.4230    2.7960   21.9390 C   0  0  0  0  0  0  0  0  0  0  0  0
   22.6040    8.8760   20.3080 C   0  0  0  0  0  0  0  0  0  0  0  0
   21.7220    8.7520   18.9810 C   0  0  0  0  0  0  0  0  0  0  0  0
   22.3960    7.5590   21.0770 C   0  0  0  0  0  0  0  0  0  0  0  0
   20.2150    8.4510   19.2380 C   0  0  0  0  0  0  0  0  0  0  0  0
   20.9380    7.2530   21.4050 C   0  0  0  0  0  0  0  0  0  0  0  0
   20.2020    7.1840   20.0930 C   0  0  0  0  0  0  0  0  0  0  0  0
    5.6890    4.7080   21.8120 C   0  0  0  0  0  0  0  0  0  0  0  0
   10.4170    3.2730   23.0390 C   0  0  0  0  0  0  0  0  0  0  0  0
   16.2960    4.5510   21.5210 C   0  0  0  0  0  0  0  0  0  0  0  0
    5.8470    0.5550   20.8730 N   0  0  0  0  0  0  0  0  0  0  0  0
   18.4590    5.6450   20.6860 N   0  0  0  0  0  0  0  0  0  0  0  0
    8.1510    3.2870   21.9530 N   0  0  0  0  0  0  0  0  0  0  0  0
    9.7860    2.1680   20.9600 O   0  0  0  0  0  0  0  0  0  0  0  0
   17.7290    7.7600   20.7980 O   0  0  0  0  0  0  0  0  0  0  0  0
   15.0460    4.8120   22.1400 O   0  0  0  0  0  0  0  0  0  0  0  0
   14.1150   -0.3030   21.9180 Cl  0  0  0  0  0  0  0  0  0  0  0  0
    3.6430    3.0430   21.3570 H   0  0  0  0  0  0  0  0  0  0  0  0
   12.3780    5.0510   22.5510 H   0  0  0  0  0  0  0  0  0  0  0  0
   11.5480    0.7810   22.5420 H   0  0  0  0  0  0  0  0  0  0  0  0
   15.5180    2.1610   21.7310 H   0  0  0  0  0  0  0  0  0  0  0  0
    3.7660    0.6020   20.7660 H   0  0  0  0  0  0  0  0  0  0  0  0
    7.8850    0.6060   21.0240 H   0  0  0  0  0  0  0  0  0  0  0  0
   15.6780    7.3580   21.2750 H   0  0  0  0  0  0  0  0  0  0  0  0
   23.6640    8.8170   20.0570 H   0  0  0  0  0  0  0  0  0  0  0  0
   22.3760    9.7880   20.8720 H   0  0  0  0  0  0  0  0  0  0  0  0
   21.8850    9.7300   18.5180 H   0  0  0  0  0  0  0  0  0  0  0  0
   22.2170    8.0400   18.3240 H   0  0  0  0  0  0  0  0  0  0  0  0
   22.9970    7.5660   21.9950 H   0  0  0  0  0  0  0  0  0  0  0  0
   22.8610    6.7420   20.5210 H   0  0  0  0  0  0  0  0  0  0  0  0
   19.7790    9.2780   19.8050 H   0  0  0  0  0  0  0  0  0  0  0  0
   19.6180    8.3540   18.3270 H   0  0  0  0  0  0  0  0  0  0  0  0
   20.5120    7.9580   22.1300 H   0  0  0  0  0  0  0  0  0  0  0  0
   20.8510    6.3360   21.9850 H   0  0  0  0  0  0  0  0  0  0  0  0
   20.5920    6.2830   19.6110 H   0  0  0  0  0  0  0  0  0  0  0  0
    6.3260    5.2390   21.1060 H   0  0  0  0  0  0  0  0  0  0  0  0
    4.6900    5.0700   21.5580 H   0  0  0  0  0  0  0  0  0  0  0  0
    5.9810    4.9880   22.8220 H   0  0  0  0  0  0  0  0  0  0  0  0
   10.2420    2.8920   24.0430 H   0  0  0  0  0  0  0  0  0  0  0  0
   10.2730    4.3350   23.2470 H   0  0  0  0  0  0  0  0  0  0  0  0
   16.0220    4.0560   20.5800 H   0  0  0  0  0  0  0  0  0  0  0  0
   16.8600    3.8470   22.1290 H   0  0  0  0  0  0  0  0  0  0  0  0
    8.0060    4.0830   22.5630 H   0  0  0  0  0  0  0  0  0  0  0  0
 17 42  1  0  0  0  0
 19 46  1  0  0  0  0
 17 41  1  0  0  0  0
 17 19  1  0  0  0  0
 16 17  1  0  0  0  0
 19 45  1  0  0  0  0
 19 21  1  0  0  0  0
 21 49  1  0  0  0  0
 16 39  1  0  0  0  0
 14 21  1  0  0  0  0
 20 21  1  0  0  0  0
 16 40  1  0  0  0  0
 16 18  1  0  0  0  0
 14 26  2  0  0  0  0
 14 29  1  0  0  0  0
 18 44  1  0  0  0  0
 24 55  1  0  0  0  0
 13 26  1  0  0  0  0
  5 36  1  0  0  0  0
  7 29  1  0  0  0  0
  5 25  2  0  0  0  0
  6 25  1  0  0  0  0
  1  5  1  0  0  0  0
 15 28  2  0  0  0  0
  6 37  1  0  0  0  0
 18 20  1  0  0  0  0
 18 43  1  0  0  0  0
  6 10  2  0  0  0  0
  7 13  2  0  0  0  0
 13 24  1  0  0  0  0
 22 50  1  0  0  0  0
  7 38  1  0  0  0  0
  1 32  1  0  0  0  0
  1  8  2  0  0  0  0
 20 48  1  0  0  0  0
 20 47  1  0  0  0  0
 24 56  1  0  0  0  0
 24 30  1  0  0  0  0
  8 10  1  0  0  0  0
 10 27  1  0  0  0  0
 22 51  1  0  0  0  0
  8 22  1  0  0  0  0
  4 35  1  0  0  0  0
 22 52  1  0  0  0  0
 12 31  1  0  0  0  0
 15 27  1  0  0  0  0
 15 23  1  0  0  0  0
 27 57  1  0  0  0  0
  4 12  2  0  0  0  0
  4 11  1  0  0  0  0
 11 30  1  0  0  0  0
  3 12  1  0  0  0  0
  2 11  2  0  0  0  0
  3 34  1  0  0  0  0
  3  9  2  0  0  0  0
  2 33  1  0  0  0  0
  2  9  1  0  0  0  0
  9 23  1  0  0  0  0
 23 54  1  0  0  0  0
 23 53  1  0  0  0  0
M  END
> <CID>
EN300-382173

> <SMILES>
Cc1ccncc1NC(=O)Cc2cc(cc(c2)Cl)OCc3coc(n3)C4CCCCC4

> <RUN>
RUN176

> <DDG (kcal/mol)>
-2.94

> <dDDG (kcal/mol)>
0.11

$$$$
EN300-1920731
  -OEChem-08252008263D

 54 56  0     1  0  0  0  0  0999 V2000
    4.6600    1.8720   18.9140 C   0  0  0  0  0  0  0  0  0  0  0  0
   11.1530    2.1470   22.9870 C   0  0  0  0  0  0  0  0  0  0  0  0
   11.7490   -0.0480   22.2630 C   0  0  0  0  0  0  0  0  0  0  0  0
   13.4650    1.6670   22.5470 C   0  0  0  0  0  0  0  0  0  0  0  0
    5.3320    1.7030   17.6880 C   0  0  0  0  0  0  0  0  0  0  0  0
    7.2220    0.8370   18.6360 C   0  0  0  0  0  0  0  0  0  0  0  0
   11.0540    6.4210   25.0820 C   0  0  0  0  0  0  0  0  0  0  0  0
    5.2890    1.5070   20.0730 C   0  0  0  0  0  0  0  0  0  0  0  0
   10.7740    0.8530   22.6730 C   0  0  0  0  0  0  0  0  0  0  0  0
    6.6410    0.9720   19.9340 C   0  0  0  0  0  0  0  0  0  0  0  0
   12.4650    2.6380   22.8470 C   0  0  0  0  0  0  0  0  0  0  0  0
   13.0270    0.3810   22.1530 C   0  0  0  0  0  0  0  0  0  0  0  0
   11.7940    6.9880   24.0890 C   0  0  0  0  0  0  0  0  0  0  0  0
   11.6110    8.7760   25.5950 C   0  0  0  0  0  0  0  0  0  0  0  0
   13.2880    7.0640   22.0550 C   0  5  0  0  0  0  0  0  0  0  0  0
   12.4240    6.4040   22.9360 C   0  0  3  0  0  0  0  0  0  0  0  0
    8.6210    0.7810   21.3400 C   0  0  0  0  0  0  0  0  0  0  0  0
    4.6540    1.6430   21.4310 C   0  0  0  0  0  0  0  0  0  0  0  0
   12.3950    9.8650   27.7970 C   0  0  0  0  0  0  0  0  0  0  0  0
   10.7960   11.0620   26.3570 C   0  0  0  0  0  0  0  0  0  0  0  0
    9.3470    0.3880   22.6410 C   0  0  0  0  0  0  0  0  0  0  0  0
   11.9790    4.9330   22.5940 C   0  0  0  0  0  0  0  0  0  0  0  0
   11.9590   10.0950   26.2740 C   0  0  0  0  0  0  0  0  0  0  0  0
    6.5660    1.2130   17.5350 N   0  0  0  0  0  0  0  0  0  0  0  0
   12.0150    8.3800   24.3490 N   0  0  0  0  0  0  0  0  0  0  0  0
    7.3070    0.5980   21.1770 N   0  0  0  0  0  0  0  0  0  0  0  0
    9.2530    1.5690   20.5640 O   0  0  0  0  0  0  0  0  0  0  0  0
   12.8250    3.9060   23.2330 O   0  0  0  0  0  0  0  0  0  0  0  0
   10.7660    7.5460   26.3890 S   0  0  0  0  0  0  0  0  0  0  0  0
   14.2210   -0.5200   21.2660 Cl  0  0  0  0  0  0  0  0  0  0  0  0
    3.6550    2.2600   18.8440 H   0  0  0  0  0  0  0  0  0  0  0  0
   10.3690    2.8640   23.2210 H   0  0  0  0  0  0  0  0  0  0  0  0
   11.4540   -1.0620   21.9960 H   0  0  0  0  0  0  0  0  0  0  0  0
   14.5250    1.8860   22.5530 H   0  0  0  0  0  0  0  0  0  0  0  0
    4.7870    1.8440   16.7670 H   0  0  0  0  0  0  0  0  0  0  0  0
    8.2930    0.6430   18.5940 H   0  0  0  0  0  0  0  0  0  0  0  0
   10.9070    5.3500   25.1410 H   0  0  0  0  0  0  0  0  0  0  0  0
   13.7260    6.4840   21.2420 H   0  0  0  0  0  0  0  0  0  0  0  0
   13.7240    8.0510   22.1010 H   0  0  0  0  0  0  0  0  0  0  0  0
    4.3970    0.6470   21.8030 H   0  0  0  0  0  0  0  0  0  0  0  0
    5.3000    2.1910   22.1270 H   0  0  0  0  0  0  0  0  0  0  0  0
    3.7900    2.3160   21.4500 H   0  0  0  0  0  0  0  0  0  0  0  0
   11.4920    9.6760   28.3800 H   0  0  0  0  0  0  0  0  0  0  0  0
   12.8490   10.7900   28.1590 H   0  0  0  0  0  0  0  0  0  0  0  0
   13.0560    8.9960   27.9340 H   0  0  0  0  0  0  0  0  0  0  0  0
   10.6840   11.6290   25.4290 H   0  0  0  0  0  0  0  0  0  0  0  0
   11.0650   11.8530   27.0730 H   0  0  0  0  0  0  0  0  0  0  0  0
    9.8890   10.5300   26.6270 H   0  0  0  0  0  0  0  0  0  0  0  0
    9.2630   -0.7010   22.6670 H   0  0  0  0  0  0  0  0  0  0  0  0
    8.9110    0.7420   23.5820 H   0  0  0  0  0  0  0  0  0  0  0  0
   11.9130    4.7530   21.5130 H   0  0  0  0  0  0  0  0  0  0  0  0
   10.9080    4.8450   22.8190 H   0  0  0  0  0  0  0  0  0  0  0  0
   12.8050   10.5310   25.7290 H   0  0  0  0  0  0  0  0  0  0  0  0
    6.7970    0.0980   21.9030 H   0  0  0  0  0  0  0  0  0  0  0  0
  5 35  1  0  0  0  0
  5 24  2  0  0  0  0
  6 24  1  0  0  0  0
  1  5  1  0  0  0  0
  6 36  1  0  0  0  0
  6 10  2  0  0  0  0
  1 31  1  0  0  0  0
  1  8  2  0  0  0  0
  8 10  1  0  0  0  0
 10 26  1  0  0  0  0
  8 18  1  0  0  0  0
 17 27  2  0  0  0  0
 17 26  1  0  0  0  0
 26 54  1  0  0  0  0
 15 38  1  0  0  0  0
 12 30  1  0  0  0  0
 17 21  1  0  0  0  0
 18 42  1  0  0  0  0
 18 40  1  0  0  0  0
 18 41  1  0  0  0  0
 22 51  1  0  0  0  0
  3 33  1  0  0  0  0
 15 39  1  0  0  0  0
 15 16  1  0  0  0  0
  3 12  2  0  0  0  0
  4 12  1  0  0  0  0
  3  9  1  0  0  0  0
  4 34  1  0  0  0  0
  4 11  2  0  0  0  0
 22 52  1  0  0  0  0
 16 22  1  0  0  0  0
 22 28  1  0  0  0  0
 21 49  1  0  0  0  0
  9 21  1  0  0  0  0
 21 50  1  0  0  0  0
  2  9  2  0  0  0  0
  2 11  1  0  0  0  0
 11 28  1  0  0  0  0
 13 16  1  0  0  0  0
  2 32  1  0  0  0  0
 13 25  1  0  0  0  0
  7 13  2  0  0  0  0
 14 25  2  0  0  0  0
  7 37  1  0  0  0  0
  7 29  1  0  0  0  0
 20 46  1  0  0  0  0
 14 23  1  0  0  0  0
 14 29  1  0  0  0  0
 23 53  1  0  0  0  0
 20 23  1  0  0  0  0
 19 23  1  0  0  0  0
 20 48  1  0  0  0  0
 20 47  1  0  0  0  0
 19 45  1  0  0  0  0
 19 44  1  0  0  0  0
 19 43  1  0  0  0  0
M  CHG  1  15  -1
M  END
> <CID>
EN300-1920731

> <SMILES>
Cc1ccncc1NC(=O)Cc2cc(cc(c2)Cl)OCC(=C)c3csc(n3)C(C)C

> <RUN>
RUN4616

> <DDG (kcal/mol)>
-2.41

> <dDDG (kcal/mol)>
0.30

$$$$
EN300-718949
  -OEChem-08252008263D

 60 63  0     1  0  0  0  0  0999 V2000
    4.8030    2.6530   18.5860 C   0  0  0  0  0  0  0  0  0  0  0  0
   11.6020    2.1660   23.1670 C   0  0  0  0  0  0  0  0  0  0  0  0
   11.2000   -0.0450   22.1910 C   0  0  0  0  0  0  0  0  0  0  0  0
   13.4270    0.7400   22.8170 C   0  0  0  0  0  0  0  0  0  0  0  0
    5.3400    1.7240   17.6330 C   0  0  0  0  0  0  0  0  0  0  0  0
    7.0910    1.3090   18.9890 C   0  0  0  0  0  0  0  0  0  0  0  0
    5.3850    2.7870   19.8780 C   0  0  0  0  0  0  0  0  0  0  0  0
   10.6550    1.2100   22.6670 C   0  0  0  0  0  0  0  0  0  0  0  0
    6.5880    2.1380   20.0820 C   0  0  0  0  0  0  0  0  0  0  0  0
   12.9520    1.9110   23.2210 C   0  0  0  0  0  0  0  0  0  0  0  0
   12.6090   -0.2570   22.2920 C   0  0  0  0  0  0  0  0  0  0  0  0
   12.9060    5.0300   24.2340 C   0  0  0  0  0  0  0  0  0  0  0  0
    8.6000    2.1150   21.4030 C   0  0  0  0  0  0  0  0  0  0  0  0
    9.8510    8.0970   25.4200 C   0  0  0  0  0  0  0  0  0  0  0  0
   10.6830    6.8320   25.4910 C   0  0  0  0  0  0  0  0  0  0  0  0
   10.3490    8.9910   24.2540 C   0  0  0  0  0  0  0  0  0  0  0  0
   11.3120    7.7040   22.3020 C   0  0  0  0  0  0  0  0  0  0  0  0
   12.2000    6.4630   22.3230 C   0  0  0  0  0  0  0  0  0  0  0  0
   11.9410    7.1860   24.6820 C   0  0  2  0  0  0  0  0  0  0  0  0
   11.6150    8.2860   23.6510 C   0  0  2  0  0  0  0  0  0  0  0  0
    4.7490    3.5760   20.9470 C   0  0  0  0  0  0  0  0  0  0  0  0
    9.1250    1.5380   22.7080 C   0  0  0  0  0  0  0  0  0  0  0  0
   13.6790    4.2020   23.2220 C   0  0  0  0  0  0  0  0  0  0  0  0
   12.7460    9.2460   23.3700 C   0  0  0  0  0  0  0  0  0  0  0  0
    6.4670    1.0700   17.8620 N   0  0  0  0  0  0  0  0  0  0  0  0
   12.2760    6.1190   23.7800 N   0  0  0  0  0  0  0  0  0  0  0  0
    7.2470    2.2040   21.2900 N   0  0  0  0  0  0  0  0  0  0  0  0
   12.8240    4.8090   25.4380 O   0  0  0  0  0  0  0  0  0  0  0  0
    9.3490    2.6970   20.6340 O   0  0  0  0  0  0  0  0  0  0  0  0
   13.2010   10.0600   24.4910 O   0  0  0  0  0  0  0  0  0  0  0  0
   13.9160    2.8240   23.7280 O   0  0  0  0  0  0  0  0  0  0  0  0
   13.3500   -1.6160   21.5800 Cl  0  0  0  0  0  0  0  0  0  0  0  0
    3.8720    3.1870   18.4470 H   0  0  0  0  0  0  0  0  0  0  0  0
   11.2300    3.1110   23.5390 H   0  0  0  0  0  0  0  0  0  0  0  0
   10.4240   -0.6650   21.7320 H   0  0  0  0  0  0  0  0  0  0  0  0
   14.5020    0.6170   22.8890 H   0  0  0  0  0  0  0  0  0  0  0  0
    4.8250    1.6690   16.6730 H   0  0  0  0  0  0  0  0  0  0  0  0
    7.9810    0.7380   19.2200 H   0  0  0  0  0  0  0  0  0  0  0  0
   10.1610    8.7540   26.2300 H   0  0  0  0  0  0  0  0  0  0  0  0
    8.7810    7.8600   25.4530 H   0  0  0  0  0  0  0  0  0  0  0  0
   10.9410    6.4310   26.4710 H   0  0  0  0  0  0  0  0  0  0  0  0
   10.1600    5.9580   25.1040 H   0  0  0  0  0  0  0  0  0  0  0  0
    9.5730    9.0380   23.4800 H   0  0  0  0  0  0  0  0  0  0  0  0
   10.3860   10.0420   24.5470 H   0  0  0  0  0  0  0  0  0  0  0  0
   11.6080    8.3380   21.4510 H   0  0  0  0  0  0  0  0  0  0  0  0
   10.2580    7.4630   22.1200 H   0  0  0  0  0  0  0  0  0  0  0  0
   13.1560    6.7910   21.9060 H   0  0  0  0  0  0  0  0  0  0  0  0
   11.8480    5.7420   21.5780 H   0  0  0  0  0  0  0  0  0  0  0  0
   12.7600    7.4910   25.3400 H   0  0  0  0  0  0  0  0  0  0  0  0
    4.2140    2.9580   21.6710 H   0  0  0  0  0  0  0  0  0  0  0  0
    5.5020    4.1780   21.4560 H   0  0  0  0  0  0  0  0  0  0  0  0
    4.0490    4.3310   20.5710 H   0  0  0  0  0  0  0  0  0  0  0  0
    8.5450    0.6500   22.9800 H   0  0  0  0  0  0  0  0  0  0  0  0
    8.9070    2.1890   23.5530 H   0  0  0  0  0  0  0  0  0  0  0  0
   13.1110    4.1700   22.2880 H   0  0  0  0  0  0  0  0  0  0  0  0
   14.7020    4.5940   23.1620 H   0  0  0  0  0  0  0  0  0  0  0  0
   13.6030    8.6440   23.0710 H   0  0  0  0  0  0  0  0  0  0  0  0
   12.5480    9.9510   22.5610 H   0  0  0  0  0  0  0  0  0  0  0  0
    6.6070    2.1380   22.0850 H   0  0  0  0  0  0  0  0  0  0  0  0
   13.6960   10.8380   24.1780 H   0  0  0  0  0  0  0  0  0  0  0  0
  5 37  1  0  0  0  0
  5 25  2  0  0  0  0
  1  5  1  0  0  0  0
  6 25  1  0  0  0  0
  1 33  1  0  0  0  0
  1  7  2  0  0  0  0
  6 38  1  0  0  0  0
  6  9  2  0  0  0  0
  7  9  1  0  0  0  0
  7 21  1  0  0  0  0
  9 27  1  0  0  0  0
 21 52  1  0  0  0  0
 13 29  2  0  0  0  0
 21 51  1  0  0  0  0
 21 50  1  0  0  0  0
 13 27  1  0  0  0  0
 27 59  1  0  0  0  0
 13 22  1  0  0  0  0
 17 45  1  0  0  0  0
 18 48  1  0  0  0  0
 11 32  1  0  0  0  0
  3 35  1  0  0  0  0
 18 47  1  0  0  0  0
 17 46  1  0  0  0  0
  3 11  2  0  0  0  0
  3  8  1  0  0  0  0
 23 55  1  0  0  0  0
  4 11  1  0  0  0  0
 17 18  1  0  0  0  0
 17 20  1  0  0  0  0
 18 26  1  0  0  0  0
 24 58  1  0  0  0  0
  8 22  1  0  0  0  0
  2  8  2  0  0  0  0
 22 53  1  0  0  0  0
 22 54  1  0  0  0  0
  4 36  1  0  0  0  0
  4 10  2  0  0  0  0
 24 57  1  0  0  0  0
 23 56  1  0  0  0  0
  2 10  1  0  0  0  0
  2 34  1  0  0  0  0
 10 31  1  0  0  0  0
 23 31  1  0  0  0  0
 12 23  1  0  0  0  0
 20 24  1  0  0  0  0
 24 30  1  0  0  0  0
 16 43  1  0  0  0  0
 16 20  1  0  0  0  0
 19 20  1  0  0  0  0
 12 26  1  0  0  0  0
 19 26  1  0  0  0  0
 30 60  1  0  0  0  0
 12 28  2  0  0  0  0
 16 44  1  0  0  0  0
 14 16  1  0  0  0  0
 19 49  1  0  0  0  0
 15 19  1  0  0  0  0
 15 42  1  0  0  0  0
 14 40  1  0  0  0  0
 14 15  1  0  0  0  0
 14 39  1  0  0  0  0
 15 41  1  0  0  0  0
M  END
> <CID>
EN300-718949

> <SMILES>
Cc1ccncc1NC(=O)Cc2cc(cc(c2)Cl)OCC(=O)N3CC[C@]4([C@H]3CCC4)CO

> <RUN>
RUN3613

> <DDG (kcal/mol)>
-2.18

> <dDDG (kcal/mol)>
0.17

$$$$
EN300-185424
  -OEChem-08252008263D

 43 45  0     0  0  0  0  0  0999 V2000
    5.6880    1.3450   19.4230 C   0  0  0  0  0  0  0  0  0  0  0  0
   12.1880    2.0450   23.1810 C   0  0  0  0  0  0  0  0  0  0  0  0
   12.5140   -0.3760   23.2370 C   0  0  0  0  0  0  0  0  0  0  0  0
   14.3680    1.0520   23.2010 C   0  0  0  0  0  0  0  0  0  0  0  0
    6.2260    0.8990   18.2300 C   0  0  0  0  0  0  0  0  0  0  0  0
    8.0050   -0.0020   19.3660 C   0  0  0  0  0  0  0  0  0  0  0  0
    6.2930    1.1580   20.6160 C   0  0  0  0  0  0  0  0  0  0  0  0
   11.6800    0.7260   23.2540 C   0  0  0  0  0  0  0  0  0  0  0  0
    7.5400    0.5100   20.6200 C   0  0  0  0  0  0  0  0  0  0  0  0
   13.6030    2.2200   23.1770 C   0  0  0  0  0  0  0  0  0  0  0  0
   13.8630   -0.1870   23.2070 C   0  0  0  0  0  0  0  0  0  0  0  0
   14.4520    7.5040   25.2340 C   0  0  0  0  0  0  0  0  0  0  0  0
   14.2100    5.7370   24.0770 C   0  0  0  0  0  0  0  0  0  0  0  0
    9.5550    0.2580   21.9910 C   0  0  0  0  0  0  0  0  0  0  0  0
    5.5780    1.6230   21.8820 C   0  0  0  0  0  0  0  0  0  0  0  0
   14.2210    8.7590   26.0360 C   0  0  0  0  0  0  0  0  0  0  0  0
   10.2000    0.4440   23.3300 C   0  0  0  0  0  0  0  0  0  0  0  0
   13.5080    4.5840   23.3520 C   0  0  0  0  0  0  0  0  0  0  0  0
    7.3740    0.1550   18.2000 N   0  0  0  0  0  0  0  0  0  0  0  0
   13.5500    6.6050   24.7560 N   0  0  0  0  0  0  0  0  0  0  0  0
   15.6370    7.2090   24.8530 N   0  0  0  0  0  0  0  0  0  0  0  0
    8.2090    0.3220   21.8450 N   0  0  0  0  0  0  0  0  0  0  0  0
   10.2260    0.1440   20.9900 O   0  0  0  0  0  0  0  0  0  0  0  0
   15.5570    6.0160   24.1090 O   0  0  0  0  0  0  0  0  0  0  0  0
   14.2450    3.4110   23.4380 O   0  0  0  0  0  0  0  0  0  0  0  0
   14.9230   -1.5750   23.0770 Cl  0  0  0  0  0  0  0  0  0  0  0  0
    4.6660    1.7320   19.4180 H   0  0  0  0  0  0  0  0  0  0  0  0
   11.3760    2.7680   23.0960 H   0  0  0  0  0  0  0  0  0  0  0  0
   12.2110   -1.4180   23.2200 H   0  0  0  0  0  0  0  0  0  0  0  0
   15.4330    1.2240   23.1480 H   0  0  0  0  0  0  0  0  0  0  0  0
    5.6890    1.0990   17.3120 H   0  0  0  0  0  0  0  0  0  0  0  0
    8.8740   -0.6670   19.3870 H   0  0  0  0  0  0  0  0  0  0  0  0
    5.3820    0.8310   22.6150 H   0  0  0  0  0  0  0  0  0  0  0  0
    6.2690    2.3650   22.2940 H   0  0  0  0  0  0  0  0  0  0  0  0
    4.6570    2.1520   21.6320 H   0  0  0  0  0  0  0  0  0  0  0  0
   14.8960    9.5250   25.6420 H   0  0  0  0  0  0  0  0  0  0  0  0
   13.1870    9.0970   25.9370 H   0  0  0  0  0  0  0  0  0  0  0  0
   14.4810    8.5930   27.0810 H   0  0  0  0  0  0  0  0  0  0  0  0
   10.1380   -0.4820   23.9130 H   0  0  0  0  0  0  0  0  0  0  0  0
    9.7120    1.2080   23.9370 H   0  0  0  0  0  0  0  0  0  0  0  0
   12.5560    4.4940   23.8790 H   0  0  0  0  0  0  0  0  0  0  0  0
   13.3000    4.7760   22.3010 H   0  0  0  0  0  0  0  0  0  0  0  0
    7.7240    0.5930   22.7000 H   0  0  0  0  0  0  0  0  0  0  0  0
  5 31  1  0  0  0  0
  5 19  2  0  0  0  0
  6 19  1  0  0  0  0
  1  5  1  0  0  0  0
  6 32  1  0  0  0  0
  6  9  2  0  0  0  0
  1 27  1  0  0  0  0
  1  7  2  0  0  0  0
  7  9  1  0  0  0  0
  7 15  1  0  0  0  0
  9 22  1  0  0  0  0
 14 23  2  0  0  0  0
 15 35  1  0  0  0  0
 14 22  1  0  0  0  0
 22 43  1  0  0  0  0
 15 34  1  0  0  0  0
 15 33  1  0  0  0  0
 14 17  1  0  0  0  0
 18 42  1  0  0  0  0
 11 26  1  0  0  0  0
  2 28  1  0  0  0  0
  4 30  1  0  0  0  0
  2 10  2  0  0  0  0
  4 10  1  0  0  0  0
 10 25  1  0  0  0  0
  2  8  1  0  0  0  0
  4 11  2  0  0  0  0
  3 11  1  0  0  0  0
  3 29  1  0  0  0  0
  3  8  2  0  0  0  0
  8 17  1  0  0  0  0
 17 39  1  0  0  0  0
 17 40  1  0  0  0  0
 18 25  1  0  0  0  0
 18 41  1  0  0  0  0
 13 18  1  0  0  0  0
 13 24  1  0  0  0  0
 13 20  2  0  0  0  0
 21 24  1  0  0  0  0
 12 20  1  0  0  0  0
 12 21  2  0  0  0  0
 12 16  1  0  0  0  0
 16 36  1  0  0  0  0
 16 37  1  0  0  0  0
 16 38  1  0  0  0  0
M  END
> <CID>
EN300-185424

> <SMILES>
Cc1ccncc1NC(=O)Cc2cc(cc(c2)Cl)OCc3nc(no3)C

> <RUN>
RUN1591

> <DDG (kcal/mol)>
-1.72

> <dDDG (kcal/mol)>
0.09

$$$$
EN300-1863798
  -OEChem-08252008263D

 52 55  0     0  0  0  0  0  0999 V2000
   10.3420    6.2360   25.7940 C   0  0  0  0  0  0  0  0  0  0  0  0
   10.4560    6.0300   24.3840 C   0  0  0  0  0  0  0  0  0  0  0  0
   11.5270    6.4470   26.5320 C   0  0  0  0  0  0  0  0  0  0  0  0
   11.6700    5.9910   23.7550 C   0  0  0  0  0  0  0  0  0  0  0  0
   12.7570    6.4780   25.8540 C   0  0  0  0  0  0  0  0  0  0  0  0
    5.5640    1.2050   19.8950 C   0  0  0  0  0  0  0  0  0  0  0  0
   12.7500    1.2690   22.5820 C   0  0  0  0  0  0  0  0  0  0  0  0
   12.9680   -0.8020   21.3450 C   0  0  0  0  0  0  0  0  0  0  0  0
   14.8470    0.6830   21.4350 C   0  0  0  0  0  0  0  0  0  0  0  0
    5.8280    1.1160   18.5090 C   0  0  0  0  0  0  0  0  0  0  0  0
   16.0880    5.5170   22.7340 C   0  0  0  0  0  0  0  0  0  0  0  0
    7.9360    0.1580   18.9250 C   0  0  0  0  0  0  0  0  0  0  0  0
   12.8430    6.2240   24.4770 C   0  0  0  0  0  0  0  0  0  0  0  0
    6.4580    0.6870   20.8020 C   0  0  0  0  0  0  0  0  0  0  0  0
   12.1840    0.0650   22.1680 C   0  0  0  0  0  0  0  0  0  0  0  0
   14.6940    5.1360   23.0270 C   0  0  0  0  0  0  0  0  0  0  0  0
    7.6690    0.1060   20.3040 C   0  0  0  0  0  0  0  0  0  0  0  0
   14.0950    1.6290   22.0980 C   0  0  0  0  0  0  0  0  0  0  0  0
   14.2850   -0.4950   20.9300 C   0  0  0  0  0  0  0  0  0  0  0  0
   14.1970    6.1080   23.8700 C   0  0  0  0  0  0  0  0  0  0  0  0
    9.8760    0.1880   21.2720 C   0  0  0  0  0  0  0  0  0  0  0  0
    6.1440    0.6680   22.2670 C   0  0  0  0  0  0  0  0  0  0  0  0
   10.7640   -0.2870   22.3970 C   0  0  0  0  0  0  0  0  0  0  0  0
   13.9210    3.9400   22.4890 C   0  0  0  0  0  0  0  0  0  0  0  0
    7.0310    0.6000   18.0430 N   0  0  0  0  0  0  0  0  0  0  0  0
   16.3870    6.5720   23.3860 N   0  0  0  0  0  0  0  0  0  0  0  0
   15.3000    6.9330   24.1410 N   0  0  0  0  0  0  0  0  0  0  0  0
    8.6290   -0.3840   21.1900 N   0  0  0  0  0  0  0  0  0  0  0  0
   10.1760    1.1560   20.5450 O   0  0  0  0  0  0  0  0  0  0  0  0
   14.7100    2.8180   22.4440 O   0  0  0  0  0  0  0  0  0  0  0  0
   15.2530   -1.5780   19.9540 Cl  0  0  0  0  0  0  0  0  0  0  0  0
    9.4090    6.0870   26.3240 H   0  0  0  0  0  0  0  0  0  0  0  0
    9.5410    5.7380   23.8640 H   0  0  0  0  0  0  0  0  0  0  0  0
   11.5010    6.5540   27.6060 H   0  0  0  0  0  0  0  0  0  0  0  0
   11.7650    5.7930   22.6980 H   0  0  0  0  0  0  0  0  0  0  0  0
   13.6010    6.4440   26.5280 H   0  0  0  0  0  0  0  0  0  0  0  0
    4.5430    1.4240   20.2020 H   0  0  0  0  0  0  0  0  0  0  0  0
   12.3380    2.0500   23.2060 H   0  0  0  0  0  0  0  0  0  0  0  0
   12.5560   -1.7460   21.0130 H   0  0  0  0  0  0  0  0  0  0  0  0
   15.8860    0.9150   21.2270 H   0  0  0  0  0  0  0  0  0  0  0  0
    5.0020    1.3630   17.8440 H   0  0  0  0  0  0  0  0  0  0  0  0
   16.7720    4.9330   22.1260 H   0  0  0  0  0  0  0  0  0  0  0  0
    8.8860   -0.2390   18.5650 H   0  0  0  0  0  0  0  0  0  0  0  0
    6.8460    1.3070   22.8210 H   0  0  0  0  0  0  0  0  0  0  0  0
    5.1740    1.1530   22.4060 H   0  0  0  0  0  0  0  0  0  0  0  0
    6.1570   -0.3550   22.6580 H   0  0  0  0  0  0  0  0  0  0  0  0
   10.6910   -1.3740   22.4210 H   0  0  0  0  0  0  0  0  0  0  0  0
   10.4690    0.1380   23.3580 H   0  0  0  0  0  0  0  0  0  0  0  0
   13.0190    3.8290   23.1000 H   0  0  0  0  0  0  0  0  0  0  0  0
   13.5290    4.1490   21.4920 H   0  0  0  0  0  0  0  0  0  0  0  0
   15.2670    7.7370   24.7710 H   0  0  0  0  0  0  0  0  0  0  0  0
    8.4000   -1.0110   21.9680 H   0  0  0  0  0  0  0  0  0  0  0  0
 10 41  1  0  0  0  0
 10 25  2  0  0  0  0
 12 25  1  0  0  0  0
  6 10  1  0  0  0  0
 12 43  1  0  0  0  0
 12 17  2  0  0  0  0
  6 37  1  0  0  0  0
  6 14  2  0  0  0  0
 19 31  1  0  0  0  0
 14 17  1  0  0  0  0
 17 28  1  0  0  0  0
 21 29  2  0  0  0  0
 14 22  1  0  0  0  0
  8 19  2  0  0  0  0
  9 19  1  0  0  0  0
  8 39  1  0  0  0  0
 21 28  1  0  0  0  0
 28 52  1  0  0  0  0
  9 40  1  0  0  0  0
 21 23  1  0  0  0  0
  8 15  1  0  0  0  0
  9 18  2  0  0  0  0
 24 50  1  0  0  0  0
 18 30  1  0  0  0  0
  7 18  1  0  0  0  0
 11 42  1  0  0  0  0
 15 23  1  0  0  0  0
  7 15  2  0  0  0  0
 22 45  1  0  0  0  0
 22 46  1  0  0  0  0
 22 44  1  0  0  0  0
 23 47  1  0  0  0  0
 23 48  1  0  0  0  0
 24 30  1  0  0  0  0
 16 24  1  0  0  0  0
 24 49  1  0  0  0  0
  7 38  1  0  0  0  0
  4 35  1  0  0  0  0
 11 16  1  0  0  0  0
 11 26  2  0  0  0  0
 16 20  2  0  0  0  0
 26 27  1  0  0  0  0
  2  4  2  0  0  0  0
  4 13  1  0  0  0  0
  2 33  1  0  0  0  0
 20 27  1  0  0  0  0
 13 20  1  0  0  0  0
 27 51  1  0  0  0  0
  1  2  1  0  0  0  0
  5 13  2  0  0  0  0
  1 32  1  0  0  0  0
  1  3  2  0  0  0  0
  5 36  1  0  0  0  0
  3  5  1  0  0  0  0
  3 34  1  0  0  0  0
M  END
> <CID>
EN300-1863798

> <SMILES>
Cc1ccncc1NC(=O)Cc2cc(cc(c2)Cl)OCc3cn[nH]c3c4ccccc4

> <RUN>
RUN1112

> <DDG (kcal/mol)>
-1.44

> <dDDG (kcal/mol)>
0.13

$$$$
EN300-1274653
  -OEChem-08252008263D

 59 62  0     1  0  0  0  0  0999 V2000
   12.9170    5.7530   24.7590 C   0  0  0  0  0  0  0  0  0  0  0  0
   12.4060    3.8070   26.0190 C   0  0  0  0  0  0  0  0  0  0  0  0
   13.3990    4.9440   23.6780 C   0  0  0  0  0  0  0  0  0  0  0  0
   13.0510    3.0360   25.0940 C   0  0  0  0  0  0  0  0  0  0  0  0
    4.8980    0.5820   18.9350 C   0  0  0  0  0  0  0  0  0  0  0  0
   12.0150    1.4230   22.7340 C   0  0  0  0  0  0  0  0  0  0  0  0
   12.2340   -0.8080   21.9300 C   0  0  0  0  0  0  0  0  0  0  0  0
   14.2550    0.5570   22.2050 C   0  0  0  0  0  0  0  0  0  0  0  0
    5.5800    0.6160   17.6680 C   0  0  0  0  0  0  0  0  0  0  0  0
    7.5570    0.0060   18.5790 C   0  0  0  0  0  0  0  0  0  0  0  0
    5.6480    0.2860   20.0580 C   0  0  0  0  0  0  0  0  0  0  0  0
   11.3900    0.2750   22.3930 C   0  0  0  0  0  0  0  0  0  0  0  0
   12.3890    5.1960   25.9160 C   0  0  0  0  0  0  0  0  0  0  0  0
    7.0260    0.0090   19.9000 C   0  0  0  0  0  0  0  0  0  0  0  0
   13.5670    3.5440   23.8610 C   0  0  0  0  0  0  0  0  0  0  0  0
   13.4670    1.6210   22.6430 C   0  0  0  0  0  0  0  0  0  0  0  0
   13.5670   -0.6640   21.7870 C   0  0  0  0  0  0  0  0  0  0  0  0
   10.6300    5.8190   27.6860 C   0  0  3  0  0  0  0  0  0  0  0  0
    9.1370    0.2310   21.1840 C   0  0  0  0  0  0  0  0  0  0  0  0
    8.9480    4.6410   28.8220 C   0  0  1  0  0  0  0  0  0  0  0  0
    8.9160    6.0480   29.5120 C   0  0  1  0  0  0  0  0  0  0  0  0
    4.9750    0.3080   21.4630 C   0  0  0  0  0  0  0  0  0  0  0  0
    7.7180    3.8880   28.5440 C   0  0  0  0  0  0  0  0  0  0  0  0
    9.9460    0.0880   22.4800 C   0  0  0  0  0  0  0  0  0  0  0  0
    8.6640    5.9180   31.0060 C   0  0  0  0  0  0  0  0  0  0  0  0
    6.8500    0.3160   17.4630 N   0  0  0  0  0  0  0  0  0  0  0  0
    9.7720    4.8440   27.6270 N   0  0  0  0  0  0  0  0  0  0  0  0
   11.7220    6.0540   26.8160 N   0  0  0  0  0  0  0  0  0  0  0  0
    7.8500   -0.2070   21.0640 N   0  0  0  0  0  0  0  0  0  0  0  0
    9.6400    0.8500   20.2580 O   0  0  0  0  0  0  0  0  0  0  0  0
   14.1590    2.7830   22.8670 O   0  0  0  0  0  0  0  0  0  0  0  0
   10.4860    6.8580   29.1090 S   0  0  0  0  0  0  0  0  0  0  0  0
   14.4900   -2.0020   21.0360 Cl  0  0  0  0  0  0  0  0  0  0  0  0
    8.1880    7.6850   31.7990 Br  0  0  0  0  0  0  0  0  0  0  0  0
   12.7990    6.7960   24.4880 H   0  0  0  0  0  0  0  0  0  0  0  0
   11.9750    3.2640   26.8490 H   0  0  0  0  0  0  0  0  0  0  0  0
   13.7440    5.4970   22.8090 H   0  0  0  0  0  0  0  0  0  0  0  0
   13.1510    1.9660   25.2050 H   0  0  0  0  0  0  0  0  0  0  0  0
    3.8400    0.8080   18.9380 H   0  0  0  0  0  0  0  0  0  0  0  0
   11.4210    2.3000   22.9670 H   0  0  0  0  0  0  0  0  0  0  0  0
   11.8020   -1.7970   21.8250 H   0  0  0  0  0  0  0  0  0  0  0  0
   15.3240    0.5980   22.0400 H   0  0  0  0  0  0  0  0  0  0  0  0
    5.0610    0.7870   16.7330 H   0  0  0  0  0  0  0  0  0  0  0  0
    8.6370   -0.0610   18.4350 H   0  0  0  0  0  0  0  0  0  0  0  0
    9.5640    4.0050   29.4690 H   0  0  0  0  0  0  0  0  0  0  0  0
    8.1490    6.7530   29.1660 H   0  0  0  0  0  0  0  0  0  0  0  0
    4.0290    0.8390   21.4250 H   0  0  0  0  0  0  0  0  0  0  0  0
    4.6810   -0.6850   21.8330 H   0  0  0  0  0  0  0  0  0  0  0  0
    5.7580    0.7120   22.1100 H   0  0  0  0  0  0  0  0  0  0  0  0
    7.1410    4.2130   27.6810 H   0  0  0  0  0  0  0  0  0  0  0  0
    7.1530    3.7180   29.4650 H   0  0  0  0  0  0  0  0  0  0  0  0
    8.0330    2.8840   28.2440 H   0  0  0  0  0  0  0  0  0  0  0  0
    9.8830   -0.9350   22.8780 H   0  0  0  0  0  0  0  0  0  0  0  0
    9.5990    0.7670   23.2720 H   0  0  0  0  0  0  0  0  0  0  0  0
    9.5380    5.4860   31.4960 H   0  0  0  0  0  0  0  0  0  0  0  0
    7.8440    5.2020   31.1040 H   0  0  0  0  0  0  0  0  0  0  0  0
    9.6570    4.2390   26.8100 H   0  0  0  0  0  0  0  0  0  0  0  0
   12.0510    7.0090   26.9560 H   0  0  0  0  0  0  0  0  0  0  0  0
    7.3950   -0.5280   21.9170 H   0  0  0  0  0  0  0  0  0  0  0  0
  9 43  1  0  0  0  0
  9 26  2  0  0  0  0
 10 26  1  0  0  0  0
  5  9  1  0  0  0  0
 10 44  1  0  0  0  0
 10 14  2  0  0  0  0
  5 39  1  0  0  0  0
  5 11  2  0  0  0  0
 11 14  1  0  0  0  0
 14 29  1  0  0  0  0
 11 22  1  0  0  0  0
 19 30  2  0  0  0  0
 17 33  1  0  0  0  0
 19 29  1  0  0  0  0
 29 59  1  0  0  0  0
 19 24  1  0  0  0  0
 22 47  1  0  0  0  0
 22 48  1  0  0  0  0
 22 49  1  0  0  0  0
  7 17  2  0  0  0  0
  8 17  1  0  0  0  0
  7 41  1  0  0  0  0
  7 12  1  0  0  0  0
  8 42  1  0  0  0  0
  8 16  2  0  0  0  0
 12 24  1  0  0  0  0
  6 12  2  0  0  0  0
 24 53  1  0  0  0  0
 24 54  1  0  0  0  0
  6 16  1  0  0  0  0
 16 31  1  0  0  0  0
  6 40  1  0  0  0  0
  3 37  1  0  0  0  0
 15 31  1  0  0  0  0
  3 15  2  0  0  0  0
  1  3  1  0  0  0  0
  4 15  1  0  0  0  0
  1 35  1  0  0  0  0
  1 13  2  0  0  0  0
  4 38  1  0  0  0  0
  2  4  2  0  0  0  0
  2 13  1  0  0  0  0
 13 28  1  0  0  0  0
  2 36  1  0  0  0  0
 27 57  1  0  0  0  0
 28 58  1  0  0  0  0
 18 28  1  0  0  0  0
 18 27  1  0  0  0  0
 20 27  1  0  0  0  0
 23 50  1  0  0  0  0
 18 32  1  0  0  0  0
 23 52  1  0  0  0  0
 20 23  1  0  0  0  0
 23 51  1  0  0  0  0
 20 45  1  0  0  0  0
 20 21  1  0  0  0  0
 21 32  1  0  0  0  0
 21 46  1  0  0  0  0
 21 25  1  0  0  0  0
 25 56  1  0  0  0  0
 25 55  1  0  0  0  0
 25 34  1  0  0  0  0
M  END
> <CID>
EN300-1274653

> <SMILES>
Cc1ccncc1NC(=O)Cc2cc(cc(c2)Cl)Oc3ccc(cc3)NC4=[NH+][C@@H]([C@H](S4)CBr)C

> <RUN>
RUN3789

> <DDG (kcal/mol)>
-1.44

> <dDDG (kcal/mol)>
0.14

$$$$
EN300-1266528
  -OEChem-08252008263D

 56 59  0     0  0  0  0  0  0999 V2000
    4.4510    1.5640   19.8900 C   0  0  0  0  0  0  0  0  0  0  0  0
   11.8690    3.0780   22.5130 C   0  0  0  0  0  0  0  0  0  0  0  0
   12.0130    0.6730   22.8940 C   0  0  0  0  0  0  0  0  0  0  0  0
   13.9780    1.9470   22.2570 C   0  0  0  0  0  0  0  0  0  0  0  0
    4.8240    0.9270   18.7260 C   0  0  0  0  0  0  0  0  0  0  0  0
    6.9930    0.5650   19.4830 C   0  0  0  0  0  0  0  0  0  0  0  0
    5.3630    1.6650   20.9230 C   0  0  0  0  0  0  0  0  0  0  0  0
   11.2800    1.8370   22.7900 C   0  0  0  0  0  0  0  0  0  0  0  0
    6.6950    1.2310   20.7060 C   0  0  0  0  0  0  0  0  0  0  0  0
   13.2920    3.1530   22.3260 C   0  0  0  0  0  0  0  0  0  0  0  0
   13.3940    0.7300   22.6340 C   0  0  0  0  0  0  0  0  0  0  0  0
   12.2960    6.7540   25.8820 C   0  0  0  0  0  0  0  0  0  0  0  0
   12.8470    5.8030   23.9750 C   0  0  0  0  0  0  0  0  0  0  0  0
    8.9840    1.3440   21.7020 C   0  0  0  0  0  0  0  0  0  0  0  0
   12.4240   10.1520   28.3800 C   0  0  0  0  0  0  0  0  0  0  0  0
   12.8070    8.8390   29.1680 C   0  0  0  0  0  0  0  0  0  0  0  0
   11.1500   10.0320   27.6030 C   0  0  0  0  0  0  0  0  0  0  0  0
   13.0820    7.8310   28.0590 C   0  0  0  0  0  0  0  0  0  0  0  0
   11.3780    8.9740   26.5050 C   0  0  0  0  0  0  0  0  0  0  0  0
   11.8820    7.5860   27.0380 C   0  0  0  0  0  0  0  0  0  0  0  0
    4.9060    2.2880   22.2570 C   0  0  0  0  0  0  0  0  0  0  0  0
    9.7840    1.7140   22.9750 C   0  0  0  0  0  0  0  0  0  0  0  0
   13.2170    5.5950   22.5330 C   0  0  0  0  0  0  0  0  0  0  0  0
    6.0350    0.3740   18.5150 N   0  0  0  0  0  0  0  0  0  0  0  0
   12.6090    5.5390   26.1330 N   0  0  0  0  0  0  0  0  0  0  0  0
   12.9710    4.8920   24.9030 N   0  0  0  0  0  0  0  0  0  0  0  0
    7.6750    1.5740   21.7300 N   0  0  0  0  0  0  0  0  0  0  0  0
    9.5850    0.7680   20.8040 O   0  0  0  0  0  0  0  0  0  0  0  0
   12.4740    7.0190   24.5590 O   0  0  0  0  0  0  0  0  0  0  0  0
   13.9600    4.3660   22.2740 O   0  0  0  0  0  0  0  0  0  0  0  0
   14.3590   -0.7710   22.5800 Cl  0  0  0  0  0  0  0  0  0  0  0  0
    3.4470    1.9470   20.0440 H   0  0  0  0  0  0  0  0  0  0  0  0
   11.2410    3.9460   22.4040 H   0  0  0  0  0  0  0  0  0  0  0  0
   11.5800   -0.2510   23.2480 H   0  0  0  0  0  0  0  0  0  0  0  0
   15.0570    1.9580   22.0970 H   0  0  0  0  0  0  0  0  0  0  0  0
    4.0800    0.7260   17.9720 H   0  0  0  0  0  0  0  0  0  0  0  0
    8.0140    0.2350   19.3110 H   0  0  0  0  0  0  0  0  0  0  0  0
   12.2390   10.9070   29.1470 H   0  0  0  0  0  0  0  0  0  0  0  0
   13.2750   10.5120   27.7920 H   0  0  0  0  0  0  0  0  0  0  0  0
   13.7390    8.9300   29.7470 H   0  0  0  0  0  0  0  0  0  0  0  0
   11.9680    8.6590   29.8360 H   0  0  0  0  0  0  0  0  0  0  0  0
   10.9460   10.9960   27.1230 H   0  0  0  0  0  0  0  0  0  0  0  0
   10.3060    9.8310   28.2760 H   0  0  0  0  0  0  0  0  0  0  0  0
   13.9330    8.1620   27.4650 H   0  0  0  0  0  0  0  0  0  0  0  0
   13.3550    6.8940   28.5460 H   0  0  0  0  0  0  0  0  0  0  0  0
   12.1960    9.3410   25.8750 H   0  0  0  0  0  0  0  0  0  0  0  0
   10.4440    8.8400   25.9420 H   0  0  0  0  0  0  0  0  0  0  0  0
   11.1310    6.9810   27.5570 H   0  0  0  0  0  0  0  0  0  0  0  0
    5.2610    1.6600   23.0790 H   0  0  0  0  0  0  0  0  0  0  0  0
    5.2980    3.2980   22.3910 H   0  0  0  0  0  0  0  0  0  0  0  0
    3.8220    2.2300   22.3970 H   0  0  0  0  0  0  0  0  0  0  0  0
    9.4880    0.9400   23.6950 H   0  0  0  0  0  0  0  0  0  0  0  0
    9.4800    2.6790   23.4010 H   0  0  0  0  0  0  0  0  0  0  0  0
   12.2700    5.7020   21.9850 H   0  0  0  0  0  0  0  0  0  0  0  0
   13.7750    6.4420   22.1240 H   0  0  0  0  0  0  0  0  0  0  0  0
    7.3100    2.1080   22.5250 H   0  0  0  0  0  0  0  0  0  0  0  0
  5 36  1  0  0  0  0
  5 24  2  0  0  0  0
  6 24  1  0  0  0  0
  1  5  1  0  0  0  0
  6 37  1  0  0  0  0
  6  9  2  0  0  0  0
  1 32  1  0  0  0  0
  1  7  2  0  0  0  0
  7  9  1  0  0  0  0
  9 27  1  0  0  0  0
 14 28  2  0  0  0  0
  7 21  1  0  0  0  0
 14 27  1  0  0  0  0
 14 22  1  0  0  0  0
 27 56  1  0  0  0  0
 23 54  1  0  0  0  0
  4 35  1  0  0  0  0
 23 55  1  0  0  0  0
  4 10  2  0  0  0  0
  4 11  1  0  0  0  0
 21 50  1  0  0  0  0
 21 51  1  0  0  0  0
 21 49  1  0  0  0  0
 10 30  1  0  0  0  0
 23 30  1  0  0  0  0
  2 10  1  0  0  0  0
  2 33  1  0  0  0  0
  2  8  2  0  0  0  0
 13 23  1  0  0  0  0
 11 31  1  0  0  0  0
  3 11  2  0  0  0  0
  3  8  1  0  0  0  0
  8 22  1  0  0  0  0
  3 34  1  0  0  0  0
 22 53  1  0  0  0  0
 22 52  1  0  0  0  0
 13 29  1  0  0  0  0
 13 26  2  0  0  0  0
 12 29  1  0  0  0  0
 25 26  1  0  0  0  0
 19 46  1  0  0  0  0
 12 25  2  0  0  0  0
 12 20  1  0  0  0  0
 19 47  1  0  0  0  0
 19 20  1  0  0  0  0
 17 19  1  0  0  0  0
 20 48  1  0  0  0  0
 18 20  1  0  0  0  0
 17 42  1  0  0  0  0
 18 44  1  0  0  0  0
 17 43  1  0  0  0  0
 15 17  1  0  0  0  0
 15 39  1  0  0  0  0
 18 45  1  0  0  0  0
 16 18  1  0  0  0  0
 15 38  1  0  0  0  0
 15 16  1  0  0  0  0
 16 40  1  0  0  0  0
 16 41  1  0  0  0  0
M  END
> <CID>
EN300-1266528

> <SMILES>
Cc1ccncc1NC(=O)Cc2cc(cc(c2)Cl)OCc3nnc(o3)C4CCCCC4

> <RUN>
RUN88

> <DDG (kcal/mol)>
-1.37

> <dDDG (kcal/mol)>
0.13

$$$$
EN300-1940535
  -OEChem-08252008263D

 52 55  0     1  0  0  0  0  0999 V2000
   12.4700    5.4050   25.7240 C   0  0  0  0  0  0  0  0  0  0  0  0
   11.9620    4.7480   24.6360 C   0  0  0  0  0  0  0  0  0  0  0  0
    5.8330    1.1670   18.2990 C   0  0  0  0  0  0  0  0  0  0  0  0
   10.8720    0.0110   22.5510 C   0  0  0  0  0  0  0  0  0  0  0  0
   11.8820   -1.7400   21.2190 C   0  0  0  0  0  0  0  0  0  0  0  0
   13.3080    0.0500   22.1320 C   0  0  0  0  0  0  0  0  0  0  0  0
    5.9010    0.3640   17.1170 C   0  0  0  0  0  0  0  0  0  0  0  0
    7.6320   -0.8700   17.9730 C   0  0  0  0  0  0  0  0  0  0  0  0
    6.7140    0.8830   19.3550 C   0  0  0  0  0  0  0  0  0  0  0  0
   10.8060   -1.2120   21.9380 C   0  0  0  0  0  0  0  0  0  0  0  0
    7.6330   -0.1720   19.1680 C   0  0  0  0  0  0  0  0  0  0  0  0
   12.1550    0.6670   22.6840 C   0  0  0  0  0  0  0  0  0  0  0  0
   13.1840   -1.1780   21.4040 C   0  0  0  0  0  0  0  0  0  0  0  0
   12.6750    4.4700   26.7420 C   0  0  0  0  0  0  0  0  0  0  0  0
   11.8030    3.4920   25.0200 C   0  0  0  0  0  0  0  0  0  0  0  0
    8.8350   -1.8430   20.6260 C   0  0  0  0  0  0  0  0  0  0  0  0
   13.1020    6.1330   28.5120 C   0  0  0  0  0  0  0  0  0  0  0  0
   13.1670    4.6950   28.0660 C   0  0  1  0  0  0  0  0  0  0  0  0
   12.1980    5.1080   29.1740 C   0  0  1  0  0  0  0  0  0  0  0  0
    6.6800    1.7780   20.5270 C   0  0  0  0  0  0  0  0  0  0  0  0
   12.4140    4.7110   30.5410 C   0  0  0  0  0  0  0  0  0  0  0  0
    9.5310   -1.9920   21.9810 C   0  0  0  0  0  0  0  0  0  0  0  0
   11.2680    2.4220   24.1640 C   0  0  0  0  0  0  0  0  0  0  0  0
    6.7300   -0.6500   16.8980 N   0  0  0  0  0  0  0  0  0  0  0  0
    8.5110   -0.5650   20.2420 N   0  0  0  0  0  0  0  0  0  0  0  0
    8.2150   -2.7700   20.1810 O   0  0  0  0  0  0  0  0  0  0  0  0
   12.2440    3.2570   26.2060 O   0  0  0  0  0  0  0  0  0  0  0  0
   12.3520    1.8900   23.4060 O   0  0  0  0  0  0  0  0  0  0  0  0
   14.6780   -1.9060   20.6860 Cl  0  0  0  0  0  0  0  0  0  0  0  0
   12.7340    6.4600   25.6850 H   0  0  0  0  0  0  0  0  0  0  0  0
   11.7130    5.1900   23.6680 H   0  0  0  0  0  0  0  0  0  0  0  0
    5.0730    1.9470   18.3360 H   0  0  0  0  0  0  0  0  0  0  0  0
    9.9940    0.4760   22.9770 H   0  0  0  0  0  0  0  0  0  0  0  0
   11.7350   -2.6090   20.5820 H   0  0  0  0  0  0  0  0  0  0  0  0
   14.2860    0.5000   22.2480 H   0  0  0  0  0  0  0  0  0  0  0  0
    5.2430    0.7320   16.3360 H   0  0  0  0  0  0  0  0  0  0  0  0
    8.3770   -1.6500   17.8520 H   0  0  0  0  0  0  0  0  0  0  0  0
   13.7160    6.7300   29.1970 H   0  0  0  0  0  0  0  0  0  0  0  0
   14.1710    6.3400   28.5440 H   0  0  0  0  0  0  0  0  0  0  0  0
   14.0330    4.0830   28.3350 H   0  0  0  0  0  0  0  0  0  0  0  0
   11.1200    5.2650   29.0610 H   0  0  0  0  0  0  0  0  0  0  0  0
    5.7040    2.0900   20.9040 H   0  0  0  0  0  0  0  0  0  0  0  0
    7.1340    1.3550   21.4330 H   0  0  0  0  0  0  0  0  0  0  0  0
    7.2660    2.6390   20.2010 H   0  0  0  0  0  0  0  0  0  0  0  0
   11.7350    5.2180   31.2310 H   0  0  0  0  0  0  0  0  0  0  0  0
   12.0200    3.7070   30.6920 H   0  0  0  0  0  0  0  0  0  0  0  0
   13.3860    4.9610   30.9890 H   0  0  0  0  0  0  0  0  0  0  0  0
    9.7590   -3.0400   22.2230 H   0  0  0  0  0  0  0  0  0  0  0  0
    8.8670   -1.5200   22.7170 H   0  0  0  0  0  0  0  0  0  0  0  0
   10.8320    1.6310   24.7810 H   0  0  0  0  0  0  0  0  0  0  0  0
   10.6230    2.8520   23.3910 H   0  0  0  0  0  0  0  0  0  0  0  0
    8.9580    0.1850   20.7670 H   0  0  0  0  0  0  0  0  0  0  0  0
  7 36  1  0  0  0  0
  7 24  2  0  0  0  0
  8 24  1  0  0  0  0
  3  7  1  0  0  0  0
  8 37  1  0  0  0  0
  8 11  2  0  0  0  0
  3 32  1  0  0  0  0
  3  9  2  0  0  0  0
  9 11  1  0  0  0  0
 11 25  1  0  0  0  0
  9 20  1  0  0  0  0
 16 26  2  0  0  0  0
 20 44  1  0  0  0  0
 16 25  1  0  0  0  0
 25 52  1  0  0  0  0
 20 42  1  0  0  0  0
 20 43  1  0  0  0  0
  5 34  1  0  0  0  0
 16 22  1  0  0  0  0
 13 29  1  0  0  0  0
  5 13  2  0  0  0  0
  5 10  1  0  0  0  0
  6 13  1  0  0  0  0
 10 22  1  0  0  0  0
  4 10  2  0  0  0  0
 22 48  1  0  0  0  0
 22 49  1  0  0  0  0
  6 35  1  0  0  0  0
  6 12  2  0  0  0  0
  4 12  1  0  0  0  0
  4 33  1  0  0  0  0
 12 28  1  0  0  0  0
 23 51  1  0  0  0  0
 23 28  1  0  0  0  0
  2 31  1  0  0  0  0
 23 50  1  0  0  0  0
 15 23  1  0  0  0  0
  2 15  2  0  0  0  0
  1  2  1  0  0  0  0
 15 27  1  0  0  0  0
  1 30  1  0  0  0  0
  1 14  2  0  0  0  0
 14 27  1  0  0  0  0
 14 18  1  0  0  0  0
 18 40  1  0  0  0  0
 17 18  1  0  0  0  0
 18 19  1  0  0  0  0
 17 39  1  0  0  0  0
 17 19  1  0  0  0  0
 17 38  1  0  0  0  0
 19 41  1  0  0  0  0
 19 21  1  0  0  0  0
 21 46  1  0  0  0  0
 21 47  1  0  0  0  0
 21 45  1  0  0  0  0
M  END
> <CID>
EN300-1940535

> <SMILES>
Cc1ccncc1NC(=O)Cc2cc(cc(c2)Cl)OCc3ccc(o3)[C@H]4C[C@H]4C

> <RUN>
RUN106

> <DDG (kcal/mol)>
-1.37

> <dDDG (kcal/mol)>
0.12

$$$$
EN300-330332
  -OEChem-08252008263D

 51 54  0     1  0  0  0  0  0999 V2000
    4.8600    2.1460   18.4520 C   0  0  0  0  0  0  0  0  0  0  0  0
   10.7800    1.9460   24.1870 C   0  0  0  0  0  0  0  0  0  0  0  0
   11.0700    0.0390   22.8030 C   0  0  0  0  0  0  0  0  0  0  0  0
   12.9360    1.1250   23.8840 C   0  0  0  0  0  0  0  0  0  0  0  0
    5.4730    1.4600   17.3450 C   0  0  0  0  0  0  0  0  0  0  0  0
    7.2270    0.7970   18.7290 C   0  0  0  0  0  0  0  0  0  0  0  0
   12.6210    6.3330   26.6170 C   0  0  0  0  0  0  0  0  0  0  0  0
    5.3500    2.0490   19.7760 C   0  0  0  0  0  0  0  0  0  0  0  0
   10.2440    0.9890   23.3210 C   0  0  0  0  0  0  0  0  0  0  0  0
    6.5490    1.2790   19.9050 C   0  0  0  0  0  0  0  0  0  0  0  0
   12.1490    2.0930   24.4620 C   0  0  0  0  0  0  0  0  0  0  0  0
   12.4340    0.1060   23.0700 C   0  0  0  0  0  0  0  0  0  0  0  0
   12.5360    4.9780   26.7740 C   0  0  0  0  0  0  0  0  0  0  0  0
   13.3710    5.9200   28.5400 C   0  0  0  0  0  0  0  0  0  0  0  0
    8.3410    1.2800   21.6200 C   0  0  0  0  0  0  0  0  0  0  0  0
   15.1750    7.1410   29.9140 C   0  0  0  0  0  0  0  0  0  0  0  0
   14.0230    6.0840   29.9140 C   0  0  1  0  0  0  0  0  0  0  0  0
   13.8720    7.4490   30.6900 C   0  0  1  0  0  0  0  0  0  0  0  0
    4.7020    2.7460   20.9220 C   0  0  0  0  0  0  0  0  0  0  0  0
   13.9150    7.4860   32.2540 C   0  0  0  0  0  0  0  0  0  0  0  0
    8.7190    0.8900   22.9930 C   0  0  0  0  0  0  0  0  0  0  0  0
   11.8260    4.0390   25.8510 C   0  0  0  0  0  0  0  0  0  0  0  0
    6.6470    0.8080   17.4960 N   0  0  0  0  0  0  0  0  0  0  0  0
   13.2050    6.8900   27.7070 N   0  0  0  0  0  0  0  0  0  0  0  0
    7.0580    1.0740   21.1700 N   0  0  0  0  0  0  0  0  0  0  0  0
    9.2290    1.6410   20.9080 O   0  0  0  0  0  0  0  0  0  0  0  0
   13.0200    4.7110   27.9880 O   0  0  0  0  0  0  0  0  0  0  0  0
   12.7430    3.0590   25.2560 O   0  0  0  0  0  0  0  0  0  0  0  0
   13.5700   -0.9360   22.2430 Cl  0  0  0  0  0  0  0  0  0  0  0  0
    3.9420    2.6690   18.1920 H   0  0  0  0  0  0  0  0  0  0  0  0
   10.0080    2.5540   24.6380 H   0  0  0  0  0  0  0  0  0  0  0  0
   10.6310   -0.6400   22.0850 H   0  0  0  0  0  0  0  0  0  0  0  0
   14.0090    1.0900   24.0170 H   0  0  0  0  0  0  0  0  0  0  0  0
    5.1400    1.7310   16.3540 H   0  0  0  0  0  0  0  0  0  0  0  0
    8.1020    0.1770   18.8710 H   0  0  0  0  0  0  0  0  0  0  0  0
   12.2390    6.8790   25.7600 H   0  0  0  0  0  0  0  0  0  0  0  0
   15.9770    6.4220   30.1200 H   0  0  0  0  0  0  0  0  0  0  0  0
   15.9880    7.4570   30.5720 H   0  0  0  0  0  0  0  0  0  0  0  0
   14.1920    5.2440   30.5880 H   0  0  0  0  0  0  0  0  0  0  0  0
   13.2290    8.1840   30.1760 H   0  0  0  0  0  0  0  0  0  0  0  0
    5.4080    3.2050   21.6120 H   0  0  0  0  0  0  0  0  0  0  0  0
    4.0650    3.5460   20.5260 H   0  0  0  0  0  0  0  0  0  0  0  0
    3.9730    2.0900   21.4230 H   0  0  0  0  0  0  0  0  0  0  0  0
   12.9210    7.3420   32.6810 H   0  0  0  0  0  0  0  0  0  0  0  0
   14.3560    8.4220   32.6230 H   0  0  0  0  0  0  0  0  0  0  0  0
   14.5180    6.6760   32.6860 H   0  0  0  0  0  0  0  0  0  0  0  0
    8.5420   -0.1780   23.0970 H   0  0  0  0  0  0  0  0  0  0  0  0
    8.1010    1.4300   23.7130 H   0  0  0  0  0  0  0  0  0  0  0  0
   11.0720    3.4970   26.4340 H   0  0  0  0  0  0  0  0  0  0  0  0
   11.2630    4.6730   25.1630 H   0  0  0  0  0  0  0  0  0  0  0  0
    6.3900    0.7710   21.8850 H   0  0  0  0  0  0  0  0  0  0  0  0
  5 34  1  0  0  0  0
  5 23  2  0  0  0  0
  1  5  1  0  0  0  0
  6 23  1  0  0  0  0
  1 30  1  0  0  0  0
  1  8  2  0  0  0  0
  6 35  1  0  0  0  0
  6 10  2  0  0  0  0
  8 10  1  0  0  0  0
  8 19  1  0  0  0  0
 10 25  1  0  0  0  0
 19 42  1  0  0  0  0
 15 26  2  0  0  0  0
 19 43  1  0  0  0  0
 19 41  1  0  0  0  0
 15 25  1  0  0  0  0
 25 51  1  0  0  0  0
 15 21  1  0  0  0  0
  3 32  1  0  0  0  0
 12 29  1  0  0  0  0
  3 12  2  0  0  0  0
  3  9  1  0  0  0  0
 21 47  1  0  0  0  0
  9 21  1  0  0  0  0
 21 48  1  0  0  0  0
  4 12  1  0  0  0  0
  2  9  2  0  0  0  0
  4 33  1  0  0  0  0
  4 11  2  0  0  0  0
  2 11  1  0  0  0  0
  2 31  1  0  0  0  0
 11 28  1  0  0  0  0
 22 50  1  0  0  0  0
 22 28  1  0  0  0  0
  7 36  1  0  0  0  0
 22 49  1  0  0  0  0
 13 22  1  0  0  0  0
  7 13  2  0  0  0  0
  7 24  1  0  0  0  0
 13 27  1  0  0  0  0
 14 24  2  0  0  0  0
 14 27  1  0  0  0  0
 14 17  1  0  0  0  0
 16 17  1  0  0  0  0
 16 37  1  0  0  0  0
 16 38  1  0  0  0  0
 16 18  1  0  0  0  0
 17 39  1  0  0  0  0
 17 18  1  0  0  0  0
 18 40  1  0  0  0  0
 18 20  1  0  0  0  0
 20 45  1  0  0  0  0
 20 44  1  0  0  0  0
 20 46  1  0  0  0  0
M  END
> <CID>
EN300-330332

> <SMILES>
Cc1ccncc1NC(=O)Cc2cc(cc(c2)Cl)OCc3cnc(o3)[C@H]4C[C@H]4C

> <RUN>
RUN324

> <DDG (kcal/mol)>
-1.35

> <dDDG (kcal/mol)>
0.12

$$$$
EN300-377745
  -OEChem-08252008263D

 54 56  0     0  0  0  0  0  0999 V2000
    4.7130    0.8380   19.7550 C   0  0  0  0  0  0  0  0  0  0  0  0
   11.6750    1.4950   23.8130 C   0  0  0  0  0  0  0  0  0  0  0  0
   11.9390   -0.4640   22.4890 C   0  0  0  0  0  0  0  0  0  0  0  0
   10.0200    8.3090   25.2380 C   0  0  0  0  0  0  0  0  0  0  0  0
   13.7640    0.9240   22.8060 C   0  0  0  0  0  0  0  0  0  0  0  0
    5.4950    0.7440   18.5500 C   0  0  0  0  0  0  0  0  0  0  0  0
    7.3880    0.3300   19.7110 C   0  0  0  0  0  0  0  0  0  0  0  0
   10.0000    7.3160   23.0290 C   0  0  0  0  0  0  0  0  0  0  0  0
    5.4080    0.6520   20.9480 C   0  0  0  0  0  0  0  0  0  0  0  0
   11.1580    0.3190   23.3390 C   0  0  0  0  0  0  0  0  0  0  0  0
    9.3060    7.8970   24.1940 C   0  0  0  0  0  0  0  0  0  0  0  0
    6.7990    0.4070   20.9730 C   0  0  0  0  0  0  0  0  0  0  0  0
   12.9740    1.8340   23.5340 C   0  0  0  0  0  0  0  0  0  0  0  0
   11.3800    7.9940   25.3010 C   0  0  0  0  0  0  0  0  0  0  0  0
   13.1950   -0.1730   22.2200 C   0  0  0  0  0  0  0  0  0  0  0  0
   11.9170    7.2280   24.2450 C   0  0  0  0  0  0  0  0  0  0  0  0
    8.8090    0.5580   22.2970 C   0  0  0  0  0  0  0  0  0  0  0  0
   13.7310    5.5040   24.1860 C   0  0  0  0  0  0  0  0  0  0  0  0
    4.5620    0.6150   22.2300 C   0  0  0  0  0  0  0  0  0  0  0  0
   11.9280    9.6140   27.1210 C   0  0  0  0  0  0  0  0  0  0  0  0
    9.6920   -0.0230   23.5180 C   0  0  0  0  0  0  0  0  0  0  0  0
   12.8730    4.2760   23.6000 C   0  0  0  0  0  0  0  0  0  0  0  0
    6.7510    0.4710   18.5320 N   0  0  0  0  0  0  0  0  0  0  0  0
   11.3230    6.9340   23.0710 N   0  0  0  0  0  0  0  0  0  0  0  0
    7.9690    8.1560   24.2170 N   0  0  0  0  0  0  0  0  0  0  0  0
    7.4930    0.2120   22.1460 N   0  0  0  0  0  0  0  0  0  0  0  0
   13.2290    6.7980   24.4660 N   0  0  0  0  0  0  0  0  0  0  0  0
    9.3470    1.3720   21.5470 O   0  0  0  0  0  0  0  0  0  0  0  0
   14.9260    5.3790   24.4800 O   0  0  0  0  0  0  0  0  0  0  0  0
   12.1860    8.4300   26.3500 O   0  0  0  0  0  0  0  0  0  0  0  0
   13.5760    3.0400   23.8940 O   0  0  0  0  0  0  0  0  0  0  0  0
   14.2770   -1.2780   21.3850 Cl  0  0  0  0  0  0  0  0  0  0  0  0
    3.6320    0.9660   19.8360 H   0  0  0  0  0  0  0  0  0  0  0  0
   11.1360    2.1510   24.4820 H   0  0  0  0  0  0  0  0  0  0  0  0
   11.5450   -1.4140   22.1410 H   0  0  0  0  0  0  0  0  0  0  0  0
    9.5870    9.0160   25.9430 H   0  0  0  0  0  0  0  0  0  0  0  0
   14.7780    1.2560   22.6340 H   0  0  0  0  0  0  0  0  0  0  0  0
    5.0740    0.9320   17.5620 H   0  0  0  0  0  0  0  0  0  0  0  0
    8.4610    0.3260   19.5370 H   0  0  0  0  0  0  0  0  0  0  0  0
    9.4100    7.3000   22.1200 H   0  0  0  0  0  0  0  0  0  0  0  0
    3.5420    0.3160   21.9530 H   0  0  0  0  0  0  0  0  0  0  0  0
    4.8740   -0.1920   22.9010 H   0  0  0  0  0  0  0  0  0  0  0  0
    4.5560    1.5610   22.7830 H   0  0  0  0  0  0  0  0  0  0  0  0
   11.4390   10.3220   26.4450 H   0  0  0  0  0  0  0  0  0  0  0  0
   12.8960    9.9840   27.4540 H   0  0  0  0  0  0  0  0  0  0  0  0
   11.3710    9.4150   28.0460 H   0  0  0  0  0  0  0  0  0  0  0  0
    9.6230   -1.1130   23.5340 H   0  0  0  0  0  0  0  0  0  0  0  0
    9.3850    0.3300   24.5080 H   0  0  0  0  0  0  0  0  0  0  0  0
   11.8980    4.2570   24.0880 H   0  0  0  0  0  0  0  0  0  0  0  0
   12.7510    4.3780   22.5090 H   0  0  0  0  0  0  0  0  0  0  0  0
    7.6460    8.2910   25.1760 H   0  0  0  0  0  0  0  0  0  0  0  0
    7.2950    7.8950   23.5010 H   0  0  0  0  0  0  0  0  0  0  0  0
    6.9840   -0.0860   22.9830 H   0  0  0  0  0  0  0  0  0  0  0  0
   13.8440    7.3910   25.0330 H   0  0  0  0  0  0  0  0  0  0  0  0
  6 38  1  0  0  0  0
  6 23  2  0  0  0  0
  7 23  1  0  0  0  0
  1  6  1  0  0  0  0
  7 39  1  0  0  0  0
  7 12  2  0  0  0  0
  1 33  1  0  0  0  0
  1  9  2  0  0  0  0
  9 12  1  0  0  0  0
  9 19  1  0  0  0  0
 12 26  1  0  0  0  0
 15 32  1  0  0  0  0
 17 28  2  0  0  0  0
 19 41  1  0  0  0  0
  8 40  1  0  0  0  0
  3 35  1  0  0  0  0
 17 26  1  0  0  0  0
 26 53  1  0  0  0  0
  3 15  2  0  0  0  0
  5 15  1  0  0  0  0
 19 43  1  0  0  0  0
 19 42  1  0  0  0  0
 17 21  1  0  0  0  0
  3 10  1  0  0  0  0
 22 50  1  0  0  0  0
  5 37  1  0  0  0  0
  5 13  2  0  0  0  0
  8 24  2  0  0  0  0
  8 11  1  0  0  0  0
 16 24  1  0  0  0  0
 10 21  1  0  0  0  0
  2 10  2  0  0  0  0
 25 52  1  0  0  0  0
 21 47  1  0  0  0  0
 21 48  1  0  0  0  0
  2 13  1  0  0  0  0
 13 31  1  0  0  0  0
 22 31  1  0  0  0  0
 22 49  1  0  0  0  0
 18 22  1  0  0  0  0
  2 34  1  0  0  0  0
 18 27  1  0  0  0  0
 18 29  2  0  0  0  0
 11 25  1  0  0  0  0
  4 11  2  0  0  0  0
 25 51  1  0  0  0  0
 16 27  1  0  0  0  0
 14 16  2  0  0  0  0
 27 54  1  0  0  0  0
  4 14  1  0  0  0  0
  4 36  1  0  0  0  0
 14 30  1  0  0  0  0
 20 30  1  0  0  0  0
 20 44  1  0  0  0  0
 20 45  1  0  0  0  0
 20 46  1  0  0  0  0
M  END
> <CID>
EN300-377745

> <SMILES>
Cc1ccncc1NC(=O)Cc2cc(cc(c2)Cl)OCC(=O)Nc3c(cc(cn3)N)OC

> <RUN>
RUN3338

> <DDG (kcal/mol)>
-1.29

> <dDDG (kcal/mol)>
0.16

$$$$
EN300-1886131
  -OEChem-08252008263D

 61 63  0     0  0  0  0  0  0999 V2000
    4.8200    0.7020   20.5260 C   0  0  0  0  0  0  0  0  0  0  0  0
   12.2480    0.3990   23.6210 C   0  0  0  0  0  0  0  0  0  0  0  0
   12.4480   -1.5120   22.1350 C   0  0  0  0  0  0  0  0  0  0  0  0
   14.3620   -0.1080   22.5700 C   0  0  0  0  0  0  0  0  0  0  0  0
    5.1170    0.4970   19.1480 C   0  0  0  0  0  0  0  0  0  0  0  0
    7.1860   -0.2950   19.6240 C   0  0  0  0  0  0  0  0  0  0  0  0
    5.7390    0.2990   21.5220 C   0  0  0  0  0  0  0  0  0  0  0  0
   11.6230   -0.6710   22.9680 C   0  0  0  0  0  0  0  0  0  0  0  0
    6.9910   -0.1540   21.0580 C   0  0  0  0  0  0  0  0  0  0  0  0
   13.5920    0.7830   23.3850 C   0  0  0  0  0  0  0  0  0  0  0  0
   13.8130   -1.2040   21.9450 C   0  0  0  0  0  0  0  0  0  0  0  0
   15.1480    4.6000   22.5430 C   0  0  0  0  0  0  0  0  0  0  0  0
   14.1660    4.4310   23.5150 C   0  0  0  0  0  0  0  0  0  0  0  0
   15.3980    6.5630   23.8030 C   0  0  0  0  0  0  0  0  0  0  0  0
    9.2690   -0.5100   22.0090 C   0  0  0  0  0  0  0  0  0  0  0  0
   15.7520    8.8090   24.7490 C   0  0  0  0  0  0  0  0  0  0  0  0
    5.3860    0.3040   23.0250 C   0  0  0  0  0  0  0  0  0  0  0  0
   15.5480    3.5730   21.4590 C   0  0  0  0  0  0  0  0  0  0  0  0
   15.1660   11.7560   24.6410 C   0  0  0  0  0  0  0  0  0  0  0  0
   16.5120   11.0460   26.7880 C   0  0  0  0  0  0  0  0  0  0  0  0
   17.6280   12.0150   24.6130 C   0  0  0  0  0  0  0  0  0  0  0  0
   10.1750   -0.9450   23.1890 C   0  0  0  0  0  0  0  0  0  0  0  0
   13.2510    3.1970   23.6240 C   0  0  0  0  0  0  0  0  0  0  0  0
   16.4640   11.1010   25.1800 C   0  0  0  0  0  0  0  0  0  0  0  0
    6.2600    0.0430   18.7480 N   0  0  0  0  0  0  0  0  0  0  0  0
   15.8020    5.8370   22.7520 N   0  0  0  0  0  0  0  0  0  0  0  0
    7.8820   -0.7190   21.9910 N   0  0  0  0  0  0  0  0  0  0  0  0
   15.9230    7.7820   23.8650 N   0  0  0  0  0  0  0  0  0  0  0  0
    9.8370    0.0320   21.0980 O   0  0  0  0  0  0  0  0  0  0  0  0
   14.7450    8.7320   25.4850 O   0  0  0  0  0  0  0  0  0  0  0  0
   14.0750    2.0000   23.8960 O   0  0  0  0  0  0  0  0  0  0  0  0
   16.6390    9.8350   24.6200 O   0  0  0  0  0  0  0  0  0  0  0  0
   14.1420    5.7350   24.6900 S   0  0  0  0  0  0  0  0  0  0  0  0
   14.8690   -2.1390   20.9440 Cl  0  0  0  0  0  0  0  0  0  0  0  0
    3.8750    1.1330   20.8380 H   0  0  0  0  0  0  0  0  0  0  0  0
   11.6310    1.0950   24.1870 H   0  0  0  0  0  0  0  0  0  0  0  0
   11.9690   -2.3300   21.6030 H   0  0  0  0  0  0  0  0  0  0  0  0
   15.4230    0.0590   22.4780 H   0  0  0  0  0  0  0  0  0  0  0  0
    4.3210    0.7320   18.4360 H   0  0  0  0  0  0  0  0  0  0  0  0
    8.1480   -0.5880   19.2270 H   0  0  0  0  0  0  0  0  0  0  0  0
    5.4500   -0.7270   23.3620 H   0  0  0  0  0  0  0  0  0  0  0  0
    6.1110    0.9400   23.5420 H   0  0  0  0  0  0  0  0  0  0  0  0
    4.4080    0.7630   23.2210 H   0  0  0  0  0  0  0  0  0  0  0  0
   14.8320    2.7570   21.5200 H   0  0  0  0  0  0  0  0  0  0  0  0
   16.5240    3.1310   21.6830 H   0  0  0  0  0  0  0  0  0  0  0  0
   15.5330    4.1580   20.5390 H   0  0  0  0  0  0  0  0  0  0  0  0
   14.2880   11.2360   25.0130 H   0  0  0  0  0  0  0  0  0  0  0  0
   15.1510   12.8450   24.7500 H   0  0  0  0  0  0  0  0  0  0  0  0
   15.0190   11.4370   23.5960 H   0  0  0  0  0  0  0  0  0  0  0  0
   16.7400   11.9890   27.2870 H   0  0  0  0  0  0  0  0  0  0  0  0
   17.2510   10.2500   26.9450 H   0  0  0  0  0  0  0  0  0  0  0  0
   15.5390   10.6100   27.0260 H   0  0  0  0  0  0  0  0  0  0  0  0
   18.5410   11.4830   24.8960 H   0  0  0  0  0  0  0  0  0  0  0  0
   17.5010   12.1070   23.5320 H   0  0  0  0  0  0  0  0  0  0  0  0
   17.5280   13.0100   25.0530 H   0  0  0  0  0  0  0  0  0  0  0  0
   10.0080   -2.0250   23.2630 H   0  0  0  0  0  0  0  0  0  0  0  0
    9.7770   -0.6180   24.1570 H   0  0  0  0  0  0  0  0  0  0  0  0
   12.4780    3.2490   24.3870 H   0  0  0  0  0  0  0  0  0  0  0  0
   12.6930    2.9620   22.7060 H   0  0  0  0  0  0  0  0  0  0  0  0
    7.4530   -1.1700   22.8040 H   0  0  0  0  0  0  0  0  0  0  0  0
   16.6700    8.0110   23.2140 H   0  0  0  0  0  0  0  0  0  0  0  0
  5 39  1  0  0  0  0
  5 25  2  0  0  0  0
  6 25  1  0  0  0  0
  1  5  1  0  0  0  0
  6 40  1  0  0  0  0
  6  9  2  0  0  0  0
  1 35  1  0  0  0  0
  1  7  2  0  0  0  0
 18 46  1  0  0  0  0
 11 34  1  0  0  0  0
  7  9  1  0  0  0  0
  9 27  1  0  0  0  0
 15 29  2  0  0  0  0
 18 44  1  0  0  0  0
 18 45  1  0  0  0  0
 12 18  1  0  0  0  0
  7 17  1  0  0  0  0
  3 37  1  0  0  0  0
  3 11  2  0  0  0  0
  4 11  1  0  0  0  0
 15 27  1  0  0  0  0
 27 60  1  0  0  0  0
 15 22  1  0  0  0  0
  3  8  1  0  0  0  0
  4 38  1  0  0  0  0
 12 26  1  0  0  0  0
 12 13  2  0  0  0  0
  4 10  2  0  0  0  0
 23 59  1  0  0  0  0
 14 26  2  0  0  0  0
  8 22  1  0  0  0  0
  2  8  2  0  0  0  0
 17 43  1  0  0  0  0
 17 41  1  0  0  0  0
 17 42  1  0  0  0  0
 22 56  1  0  0  0  0
 22 57  1  0  0  0  0
 28 61  1  0  0  0  0
  2 10  1  0  0  0  0
 10 31  1  0  0  0  0
 13 23  1  0  0  0  0
 13 33  1  0  0  0  0
 21 54  1  0  0  0  0
 19 49  1  0  0  0  0
  2 36  1  0  0  0  0
 23 31  1  0  0  0  0
 23 58  1  0  0  0  0
 14 28  1  0  0  0  0
 14 33  1  0  0  0  0
 16 28  1  0  0  0  0
 21 53  1  0  0  0  0
 21 55  1  0  0  0  0
 21 24  1  0  0  0  0
 16 32  1  0  0  0  0
 24 32  1  0  0  0  0
 19 48  1  0  0  0  0
 19 47  1  0  0  0  0
 19 24  1  0  0  0  0
 16 30  2  0  0  0  0
 20 24  1  0  0  0  0
 20 51  1  0  0  0  0
 20 52  1  0  0  0  0
 20 50  1  0  0  0  0
M  END
> <CID>
EN300-1886131

> <SMILES>
Cc1ccncc1NC(=O)Cc2cc(cc(c2)Cl)OCc3c(nc(s3)NC(=O)OC(C)(C)C)C

> <RUN>
RUN4609

> <DDG (kcal/mol)>
-1.28

> <dDDG (kcal/mol)>
0.37

$$$$
EN300-1084907
  -OEChem-08252008263D

 52 55  0     0  0  0  0  0  0999 V2000
   22.3010    8.3910   19.9620 C   0  0  0  0  0  0  0  0  0  0  0  0
   21.2550    8.8040   19.0570 C   0  0  0  0  0  0  0  0  0  0  0  0
    5.8030    2.2720   19.6510 C   0  0  0  0  0  0  0  0  0  0  0  0
   16.4580    6.1540   20.5500 C   0  0  0  0  0  0  0  0  0  0  0  0
   13.1360    2.9580   22.3000 C   0  0  0  0  0  0  0  0  0  0  0  0
   12.9090    0.8670   23.5050 C   0  0  0  0  0  0  0  0  0  0  0  0
   20.9200    6.5910   20.7480 C   0  0  0  0  0  0  0  0  0  0  0  0
   15.0130    1.4880   22.6360 C   0  0  0  0  0  0  0  0  0  0  0  0
    6.1960    1.5690   18.5760 C   0  0  0  0  0  0  0  0  0  0  0  0
    8.1870    1.0180   19.6000 C   0  0  0  0  0  0  0  0  0  0  0  0
   17.3690    7.0150   19.9700 C   0  0  0  0  0  0  0  0  0  0  0  0
    6.6270    2.4250   20.7600 C   0  0  0  0  0  0  0  0  0  0  0  0
   12.3520    2.0140   22.9870 C   0  0  0  0  0  0  0  0  0  0  0  0
   19.8760    7.0120   19.9310 C   0  0  0  0  0  0  0  0  0  0  0  0
    7.9020    1.8360   20.7330 C   0  0  0  0  0  0  0  0  0  0  0  0
   14.4690    2.7050   22.0290 C   0  0  0  0  0  0  0  0  0  0  0  0
   22.0930    7.3200   20.8250 C   0  0  0  0  0  0  0  0  0  0  0  0
   20.0700    8.1390   19.0230 C   0  0  0  0  0  0  0  0  0  0  0  0
   14.2230    0.5500   23.3290 C   0  0  0  0  0  0  0  0  0  0  0  0
   17.2090    4.9880   20.9800 C   0  0  0  0  0  0  0  0  0  0  0  0
   10.1390    1.9950   21.7700 C   0  0  0  0  0  0  0  0  0  0  0  0
    6.1330    3.2600   21.8910 C   0  0  0  0  0  0  0  0  0  0  0  0
   10.9250    2.2680   23.0380 C   0  0  0  0  0  0  0  0  0  0  0  0
   16.5870    3.8070   21.6530 C   0  0  0  0  0  0  0  0  0  0  0  0
    7.4140    0.9520   18.5380 N   0  0  0  0  0  0  0  0  0  0  0  0
   18.4250    5.0640   20.5870 N   0  0  0  0  0  0  0  0  0  0  0  0
   18.6030    6.3730   20.0560 N   0  0  0  0  0  0  0  0  0  0  0  0
    8.8230    2.1590   21.7640 N   0  0  0  0  0  0  0  0  0  0  0  0
   10.6610    1.3830   20.7850 O   0  0  0  0  0  0  0  0  0  0  0  0
   15.2020    3.6890   21.4110 O   0  0  0  0  0  0  0  0  0  0  0  0
   23.1120    6.9200   21.5890 F   0  0  0  0  0  0  0  0  0  0  0  0
   19.0640    8.6260   18.2090 F   0  0  0  0  0  0  0  0  0  0  0  0
   14.7590   -0.9880   23.9290 Cl  0  0  0  0  0  0  0  0  0  0  0  0
   23.2740    8.8700   20.0600 H   0  0  0  0  0  0  0  0  0  0  0  0
   21.3260    9.6810   18.4280 H   0  0  0  0  0  0  0  0  0  0  0  0
    4.7570    2.5550   19.7050 H   0  0  0  0  0  0  0  0  0  0  0  0
   15.4260    6.3860   20.8150 H   0  0  0  0  0  0  0  0  0  0  0  0
   12.7480    3.8360   21.7950 H   0  0  0  0  0  0  0  0  0  0  0  0
   12.2070    0.1230   23.8510 H   0  0  0  0  0  0  0  0  0  0  0  0
   20.8670    5.7190   21.3900 H   0  0  0  0  0  0  0  0  0  0  0  0
   16.0790    1.3140   22.5680 H   0  0  0  0  0  0  0  0  0  0  0  0
    5.3960    1.4470   17.8570 H   0  0  0  0  0  0  0  0  0  0  0  0
    8.9960    0.3070   19.7000 H   0  0  0  0  0  0  0  0  0  0  0  0
   17.2990    8.0050   19.5270 H   0  0  0  0  0  0  0  0  0  0  0  0
    5.6960    2.6200   22.6540 H   0  0  0  0  0  0  0  0  0  0  0  0
    6.9490    3.7250   22.4640 H   0  0  0  0  0  0  0  0  0  0  0  0
    5.3360    3.9320   21.5620 H   0  0  0  0  0  0  0  0  0  0  0  0
   10.5060    1.6580   23.8420 H   0  0  0  0  0  0  0  0  0  0  0  0
   10.8330    3.3120   23.3670 H   0  0  0  0  0  0  0  0  0  0  0  0
   17.1860    2.9220   21.3860 H   0  0  0  0  0  0  0  0  0  0  0  0
   16.7760    3.9010   22.7240 H   0  0  0  0  0  0  0  0  0  0  0  0
    8.5520    2.5690   22.6570 H   0  0  0  0  0  0  0  0  0  0  0  0
  9 42  1  0  0  0  0
 18 32  1  0  0  0  0
  2 35  1  0  0  0  0
  9 25  2  0  0  0  0
 10 25  1  0  0  0  0
  3  9  1  0  0  0  0
  2 18  2  0  0  0  0
 14 18  1  0  0  0  0
  1  2  1  0  0  0  0
 11 44  1  0  0  0  0
 10 43  1  0  0  0  0
 10 15  2  0  0  0  0
  3 36  1  0  0  0  0
  3 12  2  0  0  0  0
 14 27  1  0  0  0  0
  7 14  2  0  0  0  0
  1 34  1  0  0  0  0
  1 17  2  0  0  0  0
 11 27  1  0  0  0  0
  4 11  2  0  0  0  0
 26 27  1  0  0  0  0
  4 37  1  0  0  0  0
  4 20  1  0  0  0  0
 20 26  2  0  0  0  0
 12 15  1  0  0  0  0
 15 28  1  0  0  0  0
  7 17  1  0  0  0  0
  7 40  1  0  0  0  0
 12 22  1  0  0  0  0
 21 29  2  0  0  0  0
 17 31  1  0  0  0  0
 20 24  1  0  0  0  0
 24 50  1  0  0  0  0
 24 30  1  0  0  0  0
 16 30  1  0  0  0  0
 22 47  1  0  0  0  0
 24 51  1  0  0  0  0
 21 28  1  0  0  0  0
 28 52  1  0  0  0  0
 21 23  1  0  0  0  0
  5 38  1  0  0  0  0
 22 46  1  0  0  0  0
 22 45  1  0  0  0  0
  5 16  2  0  0  0  0
  8 16  1  0  0  0  0
  5 13  1  0  0  0  0
  8 41  1  0  0  0  0
  8 19  2  0  0  0  0
 13 23  1  0  0  0  0
  6 13  2  0  0  0  0
 23 49  1  0  0  0  0
 23 48  1  0  0  0  0
  6 19  1  0  0  0  0
 19 33  1  0  0  0  0
  6 39  1  0  0  0  0
M  END
> <CID>
EN300-1084907

> <SMILES>
Cc1ccncc1NC(=O)Cc2cc(cc(c2)Cl)OCc3ccn(n3)c4cc(ccc4F)F

> <RUN>
RUN180

> <DDG (kcal/mol)>
-1.27

> <dDDG (kcal/mol)>
0.13

$$$$
EN300-1274653
  -OEChem-08252008263D

 59 62  0     1  0  0  0  0  0999 V2000
    9.8450    3.6390   26.4800 C   0  0  0  0  0  0  0  0  0  0  0  0
    9.4860    5.0790   24.5600 C   0  0  0  0  0  0  0  0  0  0  0  0
   10.7670    2.8200   25.8060 C   0  0  0  0  0  0  0  0  0  0  0  0
   10.3300    4.2790   23.8280 C   0  0  0  0  0  0  0  0  0  0  0  0
    5.9190    1.0580   18.9910 C   0  0  0  0  0  0  0  0  0  0  0  0
   10.7250    0.4000   23.4670 C   0  0  0  0  0  0  0  0  0  0  0  0
   12.0700   -1.5950   23.0190 C   0  0  0  0  0  0  0  0  0  0  0  0
   13.0880    0.5810   23.3040 C   0  0  0  0  0  0  0  0  0  0  0  0
    6.1300    0.3660   17.8140 C   0  0  0  0  0  0  0  0  0  0  0  0
    7.8670   -0.7300   18.7270 C   0  0  0  0  0  0  0  0  0  0  0  0
    6.7470    0.9560   20.1220 C   0  0  0  0  0  0  0  0  0  0  0  0
   10.8120   -0.9590   23.2180 C   0  0  0  0  0  0  0  0  0  0  0  0
    9.2720    4.7750   25.9600 C   0  0  0  0  0  0  0  0  0  0  0  0
    7.7430   -0.0770   19.9620 C   0  0  0  0  0  0  0  0  0  0  0  0
   10.9700    3.1930   24.4490 C   0  0  0  0  0  0  0  0  0  0  0  0
   11.8960    1.1720   23.5590 C   0  0  0  0  0  0  0  0  0  0  0  0
   13.2130   -0.8310   23.0870 C   0  0  0  0  0  0  0  0  0  0  0  0
    7.9580    6.8210   26.5070 C   0  0  3  0  0  0  0  0  0  0  0  0
    9.1260   -1.5580   21.5660 C   0  0  0  0  0  0  0  0  0  0  0  0
    8.0030    9.1130   26.1270 C   0  0  2  0  0  0  0  0  0  0  0  0
    6.5580    8.9630   26.5730 C   0  0  2  0  0  0  0  0  0  0  0  0
    6.6110    1.6720   21.3870 C   0  0  0  0  0  0  0  0  0  0  0  0
    8.2730   10.0110   24.8730 C   0  0  0  0  0  0  0  0  0  0  0  0
    9.4760   -1.7590   23.0130 C   0  0  0  0  0  0  0  0  0  0  0  0
    6.1840   10.2390   27.3760 C   0  0  0  0  0  0  0  0  0  0  0  0
    7.0480   -0.5560   17.6660 N   0  0  0  0  0  0  0  0  0  0  0  0
    8.4760    7.7680   25.7840 N   0  0  0  0  0  0  0  0  0  0  0  0
    8.3660    5.5220   26.7060 N   0  0  0  0  0  0  0  0  0  0  0  0
    8.5380   -0.3670   21.0880 N   0  0  0  0  0  0  0  0  0  0  0  0
    9.2670   -2.5020   20.7990 O   0  0  0  0  0  0  0  0  0  0  0  0
   11.9470    2.5620   23.7090 O   0  0  0  0  0  0  0  0  0  0  0  0
    6.5590    7.3440   27.5060 S   0  0  0  0  0  0  0  0  0  0  0  0
   14.7670   -1.6000   23.2400 Cl  0  0  0  0  0  0  0  0  0  0  0  0
    4.3140   10.1140   27.9290 Br  0  0  0  0  0  0  0  0  0  0  0  0
    9.4980    3.3130   27.4530 H   0  0  0  0  0  0  0  0  0  0  0  0
    9.0250    5.9340   24.0770 H   0  0  0  0  0  0  0  0  0  0  0  0
   11.2630    1.9370   26.2110 H   0  0  0  0  0  0  0  0  0  0  0  0
   10.4790    4.5380   22.7920 H   0  0  0  0  0  0  0  0  0  0  0  0
    5.1320    1.8100   19.0520 H   0  0  0  0  0  0  0  0  0  0  0  0
    9.7350    0.8000   23.6730 H   0  0  0  0  0  0  0  0  0  0  0  0
   12.2320   -2.6350   22.7550 H   0  0  0  0  0  0  0  0  0  0  0  0
   14.0470    1.0880   23.2300 H   0  0  0  0  0  0  0  0  0  0  0  0
    5.5670    0.5920   16.9220 H   0  0  0  0  0  0  0  0  0  0  0  0
    8.6960   -1.4110   18.5860 H   0  0  0  0  0  0  0  0  0  0  0  0
    8.4990    9.5270   27.0100 H   0  0  0  0  0  0  0  0  0  0  0  0
    5.9130    8.7940   25.6960 H   0  0  0  0  0  0  0  0  0  0  0  0
    7.4640    2.2580   21.7470 H   0  0  0  0  0  0  0  0  0  0  0  0
    5.6960    2.2680   21.3510 H   0  0  0  0  0  0  0  0  0  0  0  0
    6.4110    0.9620   22.1960 H   0  0  0  0  0  0  0  0  0  0  0  0
    7.7060    9.7480   23.9770 H   0  0  0  0  0  0  0  0  0  0  0  0
    9.3160    9.9600   24.5670 H   0  0  0  0  0  0  0  0  0  0  0  0
    8.0100   11.0590   25.0620 H   0  0  0  0  0  0  0  0  0  0  0  0
    9.5470   -2.8120   23.2960 H   0  0  0  0  0  0  0  0  0  0  0  0
    8.6560   -1.3850   23.6440 H   0  0  0  0  0  0  0  0  0  0  0  0
    6.2090   11.0760   26.6610 H   0  0  0  0  0  0  0  0  0  0  0  0
    6.7330   10.1850   28.3170 H   0  0  0  0  0  0  0  0  0  0  0  0
    9.4330    7.6490   25.4630 H   0  0  0  0  0  0  0  0  0  0  0  0
    7.9480    5.1060   27.5410 H   0  0  0  0  0  0  0  0  0  0  0  0
    8.6010    0.4150   21.7560 H   0  0  0  0  0  0  0  0  0  0  0  0
  9 43  1  0  0  0  0
  9 26  2  0  0  0  0
 10 26  1  0  0  0  0
  5  9  1  0  0  0  0
 10 44  1  0  0  0  0
 10 14  2  0  0  0  0
  5 39  1  0  0  0  0
  5 11  2  0  0  0  0
 11 14  1  0  0  0  0
 14 29  1  0  0  0  0
 11 22  1  0  0  0  0
 19 30  2  0  0  0  0
 19 29  1  0  0  0  0
 29 59  1  0  0  0  0
 22 48  1  0  0  0  0
 22 47  1  0  0  0  0
 22 49  1  0  0  0  0
 19 24  1  0  0  0  0
  7 41  1  0  0  0  0
  4 38  1  0  0  0  0
 12 24  1  0  0  0  0
 24 53  1  0  0  0  0
 24 54  1  0  0  0  0
  7 17  2  0  0  0  0
  7 12  1  0  0  0  0
 17 33  1  0  0  0  0
  8 17  1  0  0  0  0
  6 12  2  0  0  0  0
  8 42  1  0  0  0  0
  8 16  2  0  0  0  0
  6 16  1  0  0  0  0
  6 40  1  0  0  0  0
 16 31  1  0  0  0  0
 15 31  1  0  0  0  0
  4 15  2  0  0  0  0
  2  4  1  0  0  0  0
 23 50  1  0  0  0  0
  2 36  1  0  0  0  0
  3 15  1  0  0  0  0
  2 13  2  0  0  0  0
 23 51  1  0  0  0  0
 23 52  1  0  0  0  0
 20 23  1  0  0  0  0
 27 57  1  0  0  0  0
 21 46  1  0  0  0  0
 20 27  1  0  0  0  0
 18 27  1  0  0  0  0
  3 37  1  0  0  0  0
  1  3  2  0  0  0  0
  1 13  1  0  0  0  0
 13 28  1  0  0  0  0
 20 21  1  0  0  0  0
 20 45  1  0  0  0  0
  1 35  1  0  0  0  0
 18 28  1  0  0  0  0
 18 32  1  0  0  0  0
 21 25  1  0  0  0  0
 21 32  1  0  0  0  0
 25 55  1  0  0  0  0
 28 58  1  0  0  0  0
 25 34  1  0  0  0  0
 25 56  1  0  0  0  0
M  END
> <CID>
EN300-1274653

> <SMILES>
Cc1ccncc1NC(=O)Cc2cc(cc(c2)Cl)Oc3ccc(cc3)NC4=[NH+][C@H]([C@@H](S4)CBr)C

> <RUN>
RUN3262

> <DDG (kcal/mol)>
-1.27

> <dDDG (kcal/mol)>
0.13

$$$$
EN300-1929484
  -OEChem-08252008263D

 49 51  0     0  0  0  0  0  0999 V2000
   13.7430   -1.7130   21.4920 C   0  0  0  0  0  0  0  0  0  0  0  0
   14.2490   -0.8900   20.5050 C   0  0  0  0  0  0  0  0  0  0  0  0
    5.7610    2.1710   19.4050 C   0  0  0  0  0  0  0  0  0  0  0  0
   10.9540   -1.9990   23.1560 C   0  0  0  0  0  0  0  0  0  0  0  0
    8.8760   -0.8230   23.6730 C   0  0  0  0  0  0  0  0  0  0  0  0
   15.2810    0.6420   22.0610 C   0  0  0  0  0  0  0  0  0  0  0  0
   10.8710   -0.6120   25.0940 C   0  0  0  0  0  0  0  0  0  0  0  0
    5.9160    1.9130   18.0250 C   0  0  0  0  0  0  0  0  0  0  0  0
    7.4730    0.3260   18.5250 C   0  0  0  0  0  0  0  0  0  0  0  0
   14.1450   -1.4740   22.8080 C   0  0  0  0  0  0  0  0  0  0  0  0
    6.5360    1.5650   20.3690 C   0  0  0  0  0  0  0  0  0  0  0  0
    9.5750   -1.7090   22.8510 C   0  0  0  0  0  0  0  0  0  0  0  0
    7.3370    0.5480   19.9030 C   0  0  0  0  0  0  0  0  0  0  0  0
   14.9550    0.3000   20.7520 C   0  0  0  0  0  0  0  0  0  0  0  0
   11.5740   -1.4820   24.2670 C   0  0  0  0  0  0  0  0  0  0  0  0
   14.8920   -0.3010   23.0700 C   0  0  0  0  0  0  0  0  0  0  0  0
    9.5420   -0.2080   24.7520 C   0  0  0  0  0  0  0  0  0  0  0  0
    8.0960   -1.6200   20.6620 C   0  0  0  0  0  0  0  0  0  0  0  0
    6.5350    2.1410   21.7460 C   0  0  0  0  0  0  0  0  0  0  0  0
    8.8340   -2.4460   21.7220 C   0  0  0  0  0  0  0  0  0  0  0  0
   13.7830   -2.4400   23.8630 C   0  0  0  0  0  0  0  0  0  0  0  0
   15.8020    2.3150   19.7310 C   0  0  0  0  0  0  0  0  0  0  0  0
    6.7710    1.0030   17.5840 N   0  0  0  0  0  0  0  0  0  0  0  0
    8.0680   -0.2910   20.7700 N   0  0  0  0  0  0  0  0  0  0  0  0
    7.4260   -2.2700   19.8650 O   0  0  0  0  0  0  0  0  0  0  0  0
   12.8060   -1.7900   24.6940 O   0  0  0  0  0  0  0  0  0  0  0  0
   15.3210    0.9650   19.5980 O   0  0  0  0  0  0  0  0  0  0  0  0
   15.3050   -0.1450   24.2960 F   0  0  0  0  0  0  0  0  0  0  0  0
   16.3770    2.7560   18.5660 F   0  0  0  0  0  0  0  0  0  0  0  0
   14.7780    3.2000   20.0280 F   0  0  0  0  0  0  0  0  0  0  0  0
    8.8470    1.1300   25.7000 Cl  0  0  0  0  0  0  0  0  0  0  0  0
   13.1090   -2.5470   21.2030 H   0  0  0  0  0  0  0  0  0  0  0  0
   13.9540   -1.1190   19.4850 H   0  0  0  0  0  0  0  0  0  0  0  0
    4.9650    2.8660   19.6170 H   0  0  0  0  0  0  0  0  0  0  0  0
   11.4300   -2.8000   22.5960 H   0  0  0  0  0  0  0  0  0  0  0  0
    7.8200   -0.5940   23.6090 H   0  0  0  0  0  0  0  0  0  0  0  0
   15.8460    1.5450   22.2770 H   0  0  0  0  0  0  0  0  0  0  0  0
   11.2710   -0.1810   26.0100 H   0  0  0  0  0  0  0  0  0  0  0  0
    5.2810    2.4520   17.3220 H   0  0  0  0  0  0  0  0  0  0  0  0
    7.9470   -0.5650   18.1250 H   0  0  0  0  0  0  0  0  0  0  0  0
    5.8710    3.0100   21.8460 H   0  0  0  0  0  0  0  0  0  0  0  0
    6.0740    1.3500   22.3530 H   0  0  0  0  0  0  0  0  0  0  0  0
    7.5580    2.2720   22.1170 H   0  0  0  0  0  0  0  0  0  0  0  0
    9.5050   -3.0940   21.1470 H   0  0  0  0  0  0  0  0  0  0  0  0
    8.0290   -3.1060   22.0590 H   0  0  0  0  0  0  0  0  0  0  0  0
   13.3760   -3.3630   23.4380 H   0  0  0  0  0  0  0  0  0  0  0  0
   14.7480   -2.7030   24.3060 H   0  0  0  0  0  0  0  0  0  0  0  0
   16.6170    2.2110   20.4480 H   0  0  0  0  0  0  0  0  0  0  0  0
    8.6900    0.0830   21.4870 H   0  0  0  0  0  0  0  0  0  0  0  0
  8 39  1  0  0  0  0
  8 23  2  0  0  0  0
  9 23  1  0  0  0  0
  3  8  1  0  0  0  0
  9 40  1  0  0  0  0
  9 13  2  0  0  0  0
 22 29  1  0  0  0  0
  3 34  1  0  0  0  0
  3 11  2  0  0  0  0
  2 33  1  0  0  0  0
 22 27  1  0  0  0  0
 14 27  1  0  0  0  0
 22 30  1  0  0  0  0
 22 48  1  0  0  0  0
 18 25  2  0  0  0  0
 11 13  1  0  0  0  0
 13 24  1  0  0  0  0
 11 19  1  0  0  0  0
  2 14  2  0  0  0  0
  1  2  1  0  0  0  0
 18 24  1  0  0  0  0
 18 20  1  0  0  0  0
  6 14  1  0  0  0  0
 24 49  1  0  0  0  0
 20 44  1  0  0  0  0
  1 32  1  0  0  0  0
  1 10  2  0  0  0  0
 20 45  1  0  0  0  0
 12 20  1  0  0  0  0
 19 41  1  0  0  0  0
 19 43  1  0  0  0  0
 19 42  1  0  0  0  0
  6 37  1  0  0  0  0
  6 16  2  0  0  0  0
  4 35  1  0  0  0  0
 10 16  1  0  0  0  0
 10 21  1  0  0  0  0
  4 12  2  0  0  0  0
  5 12  1  0  0  0  0
 16 28  1  0  0  0  0
  4 15  1  0  0  0  0
 21 46  1  0  0  0  0
  5 36  1  0  0  0  0
  5 17  2  0  0  0  0
 21 47  1  0  0  0  0
 21 26  1  0  0  0  0
 15 26  1  0  0  0  0
  7 15  2  0  0  0  0
  7 17  1  0  0  0  0
 17 31  1  0  0  0  0
  7 38  1  0  0  0  0
M  END
> <CID>
EN300-1929484

> <SMILES>
Cc1ccncc1NC(=O)Cc2cc(cc(c2)Cl)OCc3ccc(cc3F)OC(F)F

> <RUN>
RUN1708

> <DDG (kcal/mol)>
-1.27

> <dDDG (kcal/mol)>
0.13

$$$$
EN300-155655
  -OEChem-08252008263D

 53 55  0     0  0  0  0  0  0999 V2000
   14.4600    6.5190   23.5870 C   0  0  0  0  0  0  0  0  0  0  0  0
   15.2580    7.6210   23.4440 C   0  0  0  0  0  0  0  0  0  0  0  0
    4.6830    1.0270   18.8650 C   0  0  0  0  0  0  0  0  0  0  0  0
   14.1680    6.3770   21.2250 C   0  0  0  0  0  0  0  0  0  0  0  0
   11.5570    2.2470   22.6570 C   0  0  0  0  0  0  0  0  0  0  0  0
   11.7150   -0.2300   22.9230 C   0  0  0  0  0  0  0  0  0  0  0  0
   13.7400    1.1370   22.7760 C   0  0  0  0  0  0  0  0  0  0  0  0
    5.2320    0.4200   17.7370 C   0  0  0  0  0  0  0  0  0  0  0  0
    7.1540   -0.1170   18.8590 C   0  0  0  0  0  0  0  0  0  0  0  0
   13.8590    5.9110   22.4970 C   0  0  0  0  0  0  0  0  0  0  0  0
    5.3490    1.0240   20.0730 C   0  0  0  0  0  0  0  0  0  0  0  0
   10.9230    0.9680   22.8280 C   0  0  0  0  0  0  0  0  0  0  0  0
    6.6790    0.4880   20.0700 C   0  0  0  0  0  0  0  0  0  0  0  0
   15.6550    8.1060   22.2310 C   0  0  0  0  0  0  0  0  0  0  0  0
   13.0420    2.3150   22.6500 C   0  0  0  0  0  0  0  0  0  0  0  0
   14.9920    7.5210   21.0420 C   0  0  0  0  0  0  0  0  0  0  0  0
   13.0950   -0.1510   22.8610 C   0  0  0  0  0  0  0  0  0  0  0  0
    8.7510    0.6340   21.3960 C   0  0  0  0  0  0  0  0  0  0  0  0
    4.7690    1.6870   21.2770 C   0  0  0  0  0  0  0  0  0  0  0  0
   16.3350    8.0830   19.1670 C   0  0  0  0  0  0  0  0  0  0  0  0
    9.3760    0.9440   22.7490 C   0  0  0  0  0  0  0  0  0  0  0  0
   12.9430    4.7180   22.6070 C   0  0  0  0  0  0  0  0  0  0  0  0
   16.0120   10.4820   21.9970 C   0  0  0  0  0  0  0  0  0  0  0  0
    6.4230   -0.1760   17.7650 N   0  0  0  0  0  0  0  0  0  0  0  0
    7.3870    0.4630   21.3220 N   0  0  0  0  0  0  0  0  0  0  0  0
    9.4560    0.5610   20.3560 O   0  0  0  0  0  0  0  0  0  0  0  0
   15.0160    8.1330   19.7600 O   0  0  0  0  0  0  0  0  0  0  0  0
   13.6960    3.5020   22.6220 O   0  0  0  0  0  0  0  0  0  0  0  0
   16.5320    9.1420   22.2330 O   0  0  0  0  0  0  0  0  0  0  0  0
   15.3100   10.8140   23.1190 F   0  0  0  0  0  0  0  0  0  0  0  0
   17.0150   11.4160   21.8490 F   0  0  0  0  0  0  0  0  0  0  0  0
   14.1090   -1.5980   23.0540 Cl  0  0  0  0  0  0  0  0  0  0  0  0
   14.1670    6.1490   24.5690 H   0  0  0  0  0  0  0  0  0  0  0  0
   15.6400    7.9840   24.4010 H   0  0  0  0  0  0  0  0  0  0  0  0
    3.7220    1.5210   18.8370 H   0  0  0  0  0  0  0  0  0  0  0  0
   13.6980    6.0260   20.3190 H   0  0  0  0  0  0  0  0  0  0  0  0
   10.9450    3.1300   22.5490 H   0  0  0  0  0  0  0  0  0  0  0  0
   11.1470   -1.1640   22.9130 H   0  0  0  0  0  0  0  0  0  0  0  0
   14.8190    1.2050   22.6660 H   0  0  0  0  0  0  0  0  0  0  0  0
    4.7060    0.3540   16.7860 H   0  0  0  0  0  0  0  0  0  0  0  0
    8.1600   -0.5170   18.8280 H   0  0  0  0  0  0  0  0  0  0  0  0
    5.1370    1.1770   22.1750 H   0  0  0  0  0  0  0  0  0  0  0  0
    5.0160    2.7400   21.4210 H   0  0  0  0  0  0  0  0  0  0  0  0
    3.6740    1.6100   21.2190 H   0  0  0  0  0  0  0  0  0  0  0  0
   17.1500    8.0450   19.9010 H   0  0  0  0  0  0  0  0  0  0  0  0
   16.5350    8.9630   18.5490 H   0  0  0  0  0  0  0  0  0  0  0  0
   16.3760    7.2710   18.4400 H   0  0  0  0  0  0  0  0  0  0  0  0
    8.9900    0.1420   23.3720 H   0  0  0  0  0  0  0  0  0  0  0  0
    8.9470    1.8810   23.1090 H   0  0  0  0  0  0  0  0  0  0  0  0
   12.3050    4.8890   23.4780 H   0  0  0  0  0  0  0  0  0  0  0  0
   12.2690    4.7680   21.7530 H   0  0  0  0  0  0  0  0  0  0  0  0
   15.3320   10.6250   21.1570 H   0  0  0  0  0  0  0  0  0  0  0  0
    6.9020    0.7630   22.1760 H   0  0  0  0  0  0  0  0  0  0  0  0
  8 40  1  0  0  0  0
  8 24  2  0  0  0  0
  3  8  1  0  0  0  0
  9 24  1  0  0  0  0
 20 47  1  0  0  0  0
 20 46  1  0  0  0  0
  9 41  1  0  0  0  0
  3 35  1  0  0  0  0
  9 13  2  0  0  0  0
  3 11  2  0  0  0  0
 20 27  1  0  0  0  0
 20 45  1  0  0  0  0
 16 27  1  0  0  0  0
 11 13  1  0  0  0  0
 13 25  1  0  0  0  0
 11 19  1  0  0  0  0
  4 36  1  0  0  0  0
 18 26  2  0  0  0  0
  4 16  2  0  0  0  0
 14 16  1  0  0  0  0
 23 52  1  0  0  0  0
 19 44  1  0  0  0  0
  4 10  1  0  0  0  0
 19 43  1  0  0  0  0
 19 42  1  0  0  0  0
 18 25  1  0  0  0  0
 25 53  1  0  0  0  0
 18 21  1  0  0  0  0
 22 51  1  0  0  0  0
 23 31  1  0  0  0  0
 23 29  1  0  0  0  0
 23 30  1  0  0  0  0
 14 29  1  0  0  0  0
  2 14  2  0  0  0  0
 10 22  1  0  0  0  0
  1 10  2  0  0  0  0
  5 37  1  0  0  0  0
 22 28  1  0  0  0  0
 22 50  1  0  0  0  0
 15 28  1  0  0  0  0
  5 15  2  0  0  0  0
  7 15  1  0  0  0  0
  5 12  1  0  0  0  0
  7 39  1  0  0  0  0
 12 21  1  0  0  0  0
 21 49  1  0  0  0  0
 21 48  1  0  0  0  0
  7 17  2  0  0  0  0
  6 12  2  0  0  0  0
  6 17  1  0  0  0  0
 17 32  1  0  0  0  0
  6 38  1  0  0  0  0
  1  2  1  0  0  0  0
  2 34  1  0  0  0  0
  1 33  1  0  0  0  0
M  END
> <CID>
EN300-155655

> <SMILES>
Cc1ccncc1NC(=O)Cc2cc(cc(c2)Cl)OCc3ccc(c(c3)OC)OC(F)F

> <RUN>
RUN2011

> <DDG (kcal/mol)>
-1.25

> <dDDG (kcal/mol)>
0.16

$$$$
EN300-843777
  -OEChem-08252008263D

 56 58  0     0  0  0  0  0  0999 V2000
    4.9710    1.6170   19.1850 C   0  0  0  0  0  0  0  0  0  0  0  0
   10.7330    0.7060   22.7870 C   0  0  0  0  0  0  0  0  0  0  0  0
   11.5750   -1.2820   21.6290 C   0  0  0  0  0  0  0  0  0  0  0  0
   13.0000    0.7950   21.8690 C   0  0  0  0  0  0  0  0  0  0  0  0
    5.3240    1.1610   17.9270 C   0  0  0  0  0  0  0  0  0  0  0  0
    7.0770   -0.0530   18.8010 C   0  0  0  0  0  0  0  0  0  0  0  0
   11.4170    5.4300   23.3540 C   0  0  0  0  0  0  0  0  0  0  0  0
    5.7100    1.3630   20.2880 C   0  0  0  0  0  0  0  0  0  0  0  0
   10.5600   -0.6330   22.3350 C   0  0  0  0  0  0  0  0  0  0  0  0
    6.7590    0.3640   20.1060 C   0  0  0  0  0  0  0  0  0  0  0  0
   11.9190    1.3930   22.5080 C   0  0  0  0  0  0  0  0  0  0  0  0
   12.7970   -0.5960   21.4450 C   0  0  0  0  0  0  0  0  0  0  0  0
   12.2740    5.0460   22.3610 C   0  0  0  0  0  0  0  0  0  0  0  0
    8.3080   -1.2090   21.3410 C   0  0  0  0  0  0  0  0  0  0  0  0
    9.5380    8.3610   26.2690 C   0  0  0  0  0  0  0  0  0  0  0  0
    5.2820    1.9610   21.6440 C   0  0  0  0  0  0  0  0  0  0  0  0
    8.9820   10.3300   28.7100 C   0  0  0  0  0  0  0  0  0  0  0  0
    9.2510   -1.3260   22.5310 C   0  0  0  0  0  0  0  0  0  0  0  0
   12.5880    3.6100   22.0790 C   0  0  0  0  0  0  0  0  0  0  0  0
   10.6230    7.6710   23.9880 C   0  0  0  0  0  0  0  0  0  0  0  0
    8.3500    8.9840   28.2830 C   0  0  0  0  0  0  0  0  0  0  0  0
   10.6550    7.6350   25.5520 C   0  0  0  0  0  0  0  0  0  0  0  0
    6.3520    0.3580   17.7650 N   0  0  0  0  0  0  0  0  0  0  0  0
   12.8120    6.1790   21.7250 N   0  0  0  0  0  0  0  0  0  0  0  0
   12.2970    7.2800   22.2680 N   0  0  0  0  0  0  0  0  0  0  0  0
   11.4940    6.8150   23.2550 N   0  0  0  0  0  0  0  0  0  0  0  0
    7.5490   -0.0380   21.2030 N   0  0  0  0  0  0  0  0  0  0  0  0
    8.2190   -2.1230   20.4970 O   0  0  0  0  0  0  0  0  0  0  0  0
    8.9130    9.1840   25.5440 O   0  0  0  0  0  0  0  0  0  0  0  0
   11.9920    2.6860   23.0090 O   0  0  0  0  0  0  0  0  0  0  0  0
    9.3880    8.1900   27.6650 O   0  0  0  0  0  0  0  0  0  0  0  0
   10.7770    6.2830   25.9700 F   0  0  0  0  0  0  0  0  0  0  0  0
   11.8550    8.1840   25.8360 F   0  0  0  0  0  0  0  0  0  0  0  0
   14.0990   -1.2730   20.4890 Cl  0  0  0  0  0  0  0  0  0  0  0  0
    4.1090    2.2840   19.1820 H   0  0  0  0  0  0  0  0  0  0  0  0
    9.9020    1.3020   23.1350 H   0  0  0  0  0  0  0  0  0  0  0  0
   11.4720   -2.2430   21.1260 H   0  0  0  0  0  0  0  0  0  0  0  0
   13.9420    1.3340   21.8430 H   0  0  0  0  0  0  0  0  0  0  0  0
    4.8370    1.3540   16.9820 H   0  0  0  0  0  0  0  0  0  0  0  0
    7.9150   -0.7310   18.6290 H   0  0  0  0  0  0  0  0  0  0  0  0
   10.9200    4.7670   24.0590 H   0  0  0  0  0  0  0  0  0  0  0  0
    4.7600    2.9190   21.5550 H   0  0  0  0  0  0  0  0  0  0  0  0
    4.4550    1.3030   21.9420 H   0  0  0  0  0  0  0  0  0  0  0  0
    6.1070    1.9580   22.3510 H   0  0  0  0  0  0  0  0  0  0  0  0
    8.2430   10.9110   29.2700 H   0  0  0  0  0  0  0  0  0  0  0  0
    9.8610   10.1490   29.3440 H   0  0  0  0  0  0  0  0  0  0  0  0
    9.2690   10.8280   27.7740 H   0  0  0  0  0  0  0  0  0  0  0  0
    9.4460   -2.4020   22.6580 H   0  0  0  0  0  0  0  0  0  0  0  0
    8.7220   -0.9260   23.4000 H   0  0  0  0  0  0  0  0  0  0  0  0
   12.2350    3.4180   21.0590 H   0  0  0  0  0  0  0  0  0  0  0  0
   13.6670    3.4520   22.0600 H   0  0  0  0  0  0  0  0  0  0  0  0
   10.6890    8.7250   23.6960 H   0  0  0  0  0  0  0  0  0  0  0  0
    9.5910    7.4240   23.7300 H   0  0  0  0  0  0  0  0  0  0  0  0
    7.4400    9.0040   27.6760 H   0  0  0  0  0  0  0  0  0  0  0  0
    7.9600    8.5890   29.2180 H   0  0  0  0  0  0  0  0  0  0  0  0
    7.6950    0.5500   22.0230 H   0  0  0  0  0  0  0  0  0  0  0  0
  5 39  1  0  0  0  0
  5 23  2  0  0  0  0
  6 23  1  0  0  0  0
  1  5  1  0  0  0  0
  6 40  1  0  0  0  0
  6 10  2  0  0  0  0
  1 35  1  0  0  0  0
  1  8  2  0  0  0  0
  8 10  1  0  0  0  0
 10 27  1  0  0  0  0
  8 16  1  0  0  0  0
 12 34  1  0  0  0  0
 14 28  2  0  0  0  0
 19 50  1  0  0  0  0
  3 37  1  0  0  0  0
 14 27  1  0  0  0  0
 27 56  1  0  0  0  0
 14 18  1  0  0  0  0
  3 12  2  0  0  0  0
  4 12  1  0  0  0  0
 16 42  1  0  0  0  0
  3  9  1  0  0  0  0
 16 43  1  0  0  0  0
 16 44  1  0  0  0  0
 24 25  2  0  0  0  0
 13 24  1  0  0  0  0
  4 38  1  0  0  0  0
  4 11  2  0  0  0  0
 19 51  1  0  0  0  0
 13 19  1  0  0  0  0
 19 30  1  0  0  0  0
 25 26  1  0  0  0  0
  9 18  1  0  0  0  0
  2  9  2  0  0  0  0
  7 13  2  0  0  0  0
  2 11  1  0  0  0  0
 11 30  1  0  0  0  0
 18 48  1  0  0  0  0
 18 49  1  0  0  0  0
  2 36  1  0  0  0  0
  7 26  1  0  0  0  0
 20 26  1  0  0  0  0
  7 41  1  0  0  0  0
 20 52  1  0  0  0  0
 20 53  1  0  0  0  0
 20 22  1  0  0  0  0
 15 29  2  0  0  0  0
 22 33  1  0  0  0  0
 22 32  1  0  0  0  0
 15 22  1  0  0  0  0
 15 31  1  0  0  0  0
 21 31  1  0  0  0  0
 21 54  1  0  0  0  0
 17 47  1  0  0  0  0
 17 21  1  0  0  0  0
 21 55  1  0  0  0  0
 17 45  1  0  0  0  0
 17 46  1  0  0  0  0
M  END
> <CID>
EN300-843777

> <SMILES>
CCOC(=O)C(Cn1cc(nn1)COc2cc(cc(c2)Cl)CC(=O)Nc3cnccc3C)(F)F

> <RUN>
RUN997

> <DDG (kcal/mol)>
-1.19

> <dDDG (kcal/mol)>
0.16

$$$$
EN300-70105
  -OEChem-08252008263D

 61 63  0     0  0  0  0  0  0999 V2000
   13.0910    1.0840   27.3200 C   0  0  0  0  0  0  0  0  0  0  0  0
   12.4720    1.8320   28.3600 C   0  0  0  0  0  0  0  0  0  0  0  0
    5.6300    1.0390   19.2010 C   0  0  0  0  0  0  0  0  0  0  0  0
   12.4030    0.5140   24.1280 C   0  0  0  0  0  0  0  0  0  0  0  0
   13.5190    3.1160   26.1860 C   0  0  0  0  0  0  0  0  0  0  0  0
   12.5090   -0.9400   22.2040 C   0  0  0  0  0  0  0  0  0  0  0  0
   14.5620   -0.3460   23.3630 C   0  0  0  0  0  0  0  0  0  0  0  0
    6.3020    0.6570   18.0370 C   0  0  0  0  0  0  0  0  0  0  0  0
    8.1310    0.0690   19.2440 C   0  0  0  0  0  0  0  0  0  0  0  0
    6.2310    0.9460   20.4190 C   0  0  0  0  0  0  0  0  0  0  0  0
   11.7730   -0.1530   23.1180 C   0  0  0  0  0  0  0  0  0  0  0  0
   12.9450    3.8340   27.2260 C   0  0  0  0  0  0  0  0  0  0  0  0
    7.4830    0.3240   20.4880 C   0  0  0  0  0  0  0  0  0  0  0  0
   13.6390    1.7070   26.2270 C   0  0  0  0  0  0  0  0  0  0  0  0
   12.3870    3.2070   28.3020 C   0  0  0  0  0  0  0  0  0  0  0  0
   13.8350    0.3920   24.2800 C   0  0  0  0  0  0  0  0  0  0  0  0
   13.9070   -1.1110   22.3740 C   0  0  0  0  0  0  0  0  0  0  0  0
    9.5760    0.3650   21.8320 C   0  0  0  0  0  0  0  0  0  0  0  0
    5.6140    1.5300   21.6180 C   0  0  0  0  0  0  0  0  0  0  0  0
    5.6460    3.1670   27.8320 C   0  0  0  0  0  0  0  0  0  0  0  0
   10.2100   -0.1710   23.1100 C   0  0  0  0  0  0  0  0  0  0  0  0
   12.9050    5.3280   27.0820 C   0  0  0  0  0  0  0  0  0  0  0  0
    7.1840    3.0470   27.5580 C   0  0  0  0  0  0  0  0  0  0  0  0
    7.9610    3.2980   28.7930 C   0  0  0  0  0  0  0  0  0  0  0  0
    9.4540    3.3720   28.4160 C   0  0  0  0  0  0  0  0  0  0  0  0
   10.3550    3.3440   29.6600 C   0  0  0  0  0  0  0  0  0  0  0  0
    7.5910    0.2770   18.0270 N   0  0  0  0  0  0  0  0  0  0  0  0
    8.2250    0.1860   21.7090 N   0  0  0  0  0  0  0  0  0  0  0  0
   10.2260    0.9210   20.9740 O   0  0  0  0  0  0  0  0  0  0  0  0
   14.4580    1.1020   25.2990 O   0  0  0  0  0  0  0  0  0  0  0  0
   11.6900    3.8650   29.2510 O   0  0  0  0  0  0  0  0  0  0  0  0
   14.7030   -2.1350   21.2150 Cl  0  0  0  0  0  0  0  0  0  0  0  0
   11.2500    5.7780   25.9340 Br  0  0  0  0  0  0  0  0  0  0  0  0
   13.1540    0.0050   27.4210 H   0  0  0  0  0  0  0  0  0  0  0  0
   12.0700    1.2210   29.1670 H   0  0  0  0  0  0  0  0  0  0  0  0
    4.6290    1.4590   19.1180 H   0  0  0  0  0  0  0  0  0  0  0  0
   11.8080    0.9850   24.9050 H   0  0  0  0  0  0  0  0  0  0  0  0
   13.9610    3.6210   25.3360 H   0  0  0  0  0  0  0  0  0  0  0  0
   12.0300   -1.4960   21.4000 H   0  0  0  0  0  0  0  0  0  0  0  0
   15.6250   -0.5100   23.5020 H   0  0  0  0  0  0  0  0  0  0  0  0
    5.7980    0.8150   17.0810 H   0  0  0  0  0  0  0  0  0  0  0  0
    9.1110   -0.3780   19.1420 H   0  0  0  0  0  0  0  0  0  0  0  0
    5.7580    1.0150   22.5670 H   0  0  0  0  0  0  0  0  0  0  0  0
    5.9230    2.5750   21.7320 H   0  0  0  0  0  0  0  0  0  0  0  0
    4.5330    1.5260   21.4250 H   0  0  0  0  0  0  0  0  0  0  0  0
    5.0600    3.0610   26.9170 H   0  0  0  0  0  0  0  0  0  0  0  0
    5.3130    2.4080   28.5530 H   0  0  0  0  0  0  0  0  0  0  0  0
    5.3980    4.1130   28.3160 H   0  0  0  0  0  0  0  0  0  0  0  0
    9.9400   -1.2280   23.2130 H   0  0  0  0  0  0  0  0  0  0  0  0
    9.8260    0.3500   23.9840 H   0  0  0  0  0  0  0  0  0  0  0  0
   13.8330    5.6340   26.5740 H   0  0  0  0  0  0  0  0  0  0  0  0
   12.8910    5.8530   28.0450 H   0  0  0  0  0  0  0  0  0  0  0  0
    7.3290    3.9010   26.8790 H   0  0  0  0  0  0  0  0  0  0  0  0
    7.3450    2.0730   27.0880 H   0  0  0  0  0  0  0  0  0  0  0  0
    7.6330    4.2490   29.2410 H   0  0  0  0  0  0  0  0  0  0  0  0
    7.8280    2.4980   29.5270 H   0  0  0  0  0  0  0  0  0  0  0  0
    9.5230    4.3490   27.9170 H   0  0  0  0  0  0  0  0  0  0  0  0
    9.6930    2.5370   27.7510 H   0  0  0  0  0  0  0  0  0  0  0  0
   10.3580    2.2670   29.8690 H   0  0  0  0  0  0  0  0  0  0  0  0
    9.9830    3.9870   30.4560 H   0  0  0  0  0  0  0  0  0  0  0  0
    7.6960    0.3200   22.5780 H   0  0  0  0  0  0  0  0  0  0  0  0
  8 41  1  0  0  0  0
  8 27  2  0  0  0  0
  9 27  1  0  0  0  0
  3  8  1  0  0  0  0
  3 36  1  0  0  0  0
  9 42  1  0  0  0  0
  3 10  2  0  0  0  0
  9 13  2  0  0  0  0
 10 13  1  0  0  0  0
 10 19  1  0  0  0  0
 13 28  1  0  0  0  0
 18 29  2  0  0  0  0
 17 32  1  0  0  0  0
  6 39  1  0  0  0  0
 19 45  1  0  0  0  0
 19 44  1  0  0  0  0
 19 43  1  0  0  0  0
 18 28  1  0  0  0  0
 28 61  1  0  0  0  0
 18 21  1  0  0  0  0
  6 17  2  0  0  0  0
  6 11  1  0  0  0  0
  7 17  1  0  0  0  0
 11 21  1  0  0  0  0
 21 49  1  0  0  0  0
 21 50  1  0  0  0  0
  4 11  2  0  0  0  0
  7 40  1  0  0  0  0
  7 16  2  0  0  0  0
  4 16  1  0  0  0  0
  4 37  1  0  0  0  0
 16 30  1  0  0  0  0
 14 30  1  0  0  0  0
  5 38  1  0  0  0  0
 22 33  1  0  0  0  0
  5 14  2  0  0  0  0
  5 12  1  0  0  0  0
  1 14  1  0  0  0  0
 22 51  1  0  0  0  0
 23 53  1  0  0  0  0
 20 46  1  0  0  0  0
 12 22  1  0  0  0  0
 22 52  1  0  0  0  0
 23 54  1  0  0  0  0
 12 15  2  0  0  0  0
  1 34  1  0  0  0  0
  1  2  2  0  0  0  0
 20 23  1  0  0  0  0
 23 24  1  0  0  0  0
 25 58  1  0  0  0  0
 20 48  1  0  0  0  0
 20 47  1  0  0  0  0
 25 57  1  0  0  0  0
  2 15  1  0  0  0  0
 15 31  1  0  0  0  0
  2 35  1  0  0  0  0
 24 25  1  0  0  0  0
 25 26  1  0  0  0  0
 24 55  1  0  0  0  0
 24 56  1  0  0  0  0
 26 31  1  0  0  0  0
 26 59  1  0  0  0  0
 26 60  1  0  0  0  0
M  END
> <CID>
EN300-70105

> <SMILES>
CCCCCOc1ccc(cc1CBr)Oc2cc(cc(c2)Cl)CC(=O)Nc3cnccc3C

> <RUN>
RUN2809

> <DDG (kcal/mol)>
-1.18

> <dDDG (kcal/mol)>
0.16

$$$$
EN300-843582
  -OEChem-08252008263D

 68 72  0     1  0  0  0  0  0999 V2000
    5.4700    0.7350   20.0730 C   0  0  0  0  0  0  0  0  0  0  0  0
   12.1350   -0.2200   24.1070 C   0  0  0  0  0  0  0  0  0  0  0  0
   12.3400   -1.6560   22.2700 C   0  0  0  0  0  0  0  0  0  0  0  0
   14.2740   -0.5950   23.1390 C   0  0  0  0  0  0  0  0  0  0  0  0
    6.1080    1.0280   18.9130 C   0  0  0  0  0  0  0  0  0  0  0  0
    7.8740   -0.1920   19.4450 C   0  0  0  0  0  0  0  0  0  0  0  0
   14.1430    3.6950   25.8320 C   0  0  0  0  0  0  0  0  0  0  0  0
    6.1210    0.0810   21.1170 C   0  0  0  0  0  0  0  0  0  0  0  0
   11.5350   -1.0790   23.2280 C   0  0  0  0  0  0  0  0  0  0  0  0
    7.3890   -0.4240   20.8310 C   0  0  0  0  0  0  0  0  0  0  0  0
   13.5170    0.1140   24.0670 C   0  0  0  0  0  0  0  0  0  0  0  0
   13.7080   -1.4180   22.1950 C   0  0  0  0  0  0  0  0  0  0  0  0
   15.0300    3.2130   24.9350 C   0  0  0  0  0  0  0  0  0  0  0  0
    9.1980   -0.4370   22.4940 C   0  0  0  0  0  0  0  0  0  0  0  0
   15.4090    8.7650   29.0500 C   0  0  0  0  0  0  0  0  0  0  0  0
   13.8780    7.0510   29.8810 C   0  0  0  0  0  0  0  0  0  0  0  0
   12.8510    6.8070   26.2760 C   0  0  0  0  0  0  0  0  0  0  0  0
   14.9680    6.8110   27.6290 C   0  0  0  0  0  0  0  0  0  0  0  0
   14.8630    9.7870   29.9890 C   0  0  0  0  0  0  0  0  0  0  0  0
   13.3150    8.1200   30.8070 C   0  0  0  0  0  0  0  0  0  0  0  0
   12.2150    7.6890   27.3700 C   0  0  0  0  0  0  0  0  0  0  0  0
   13.9360    5.9540   26.9720 C   0  0  2  0  0  0  0  0  0  0  0  0
   14.3180    7.7610   28.6340 C   0  0  0  0  0  0  0  0  0  0  0  0
    5.4070   -0.1110   22.4150 C   0  0  0  0  0  0  0  0  0  0  0  0
   10.0770   -1.4010   23.2520 C   0  0  0  0  0  0  0  0  0  0  0  0
   14.9700    1.9130   24.2870 C   0  0  0  0  0  0  0  0  0  0  0  0
    7.2220    0.5090   18.5390 N   0  0  0  0  0  0  0  0  0  0  0  0
   15.9330    4.2440   24.6440 N   0  0  0  0  0  0  0  0  0  0  0  0
   15.6420    5.2890   25.2740 N   0  0  0  0  0  0  0  0  0  0  0  0
   14.5260    4.9940   26.0140 N   0  0  0  0  0  0  0  0  0  0  0  0
    8.1260   -1.0630   21.8540 N   0  0  0  0  0  0  0  0  0  0  0  0
   14.3840    9.0890   31.1190 N   0  3  0  0  0  0  0  0  0  0  0  0
    9.4250    0.7660   22.3420 O   0  0  0  0  0  0  0  0  0  0  0  0
   13.2730    8.4830   27.9890 O   0  0  0  0  0  0  0  0  0  0  0  0
   14.0570    1.0210   24.9640 O   0  0  0  0  0  0  0  0  0  0  0  0
   14.7220   -2.1660   20.9450 Cl  0  0  0  0  0  0  0  0  0  0  0  0
    4.4970    1.1890   20.2380 H   0  0  0  0  0  0  0  0  0  0  0  0
   11.4510    0.2080   24.8420 H   0  0  0  0  0  0  0  0  0  0  0  0
   11.8540   -2.2940   21.5400 H   0  0  0  0  0  0  0  0  0  0  0  0
   15.3560   -0.5040   23.2120 H   0  0  0  0  0  0  0  0  0  0  0  0
    5.5090    1.4870   18.1340 H   0  0  0  0  0  0  0  0  0  0  0  0
    8.8500   -0.5630   19.1330 H   0  0  0  0  0  0  0  0  0  0  0  0
   13.3280    3.1700   26.3100 H   0  0  0  0  0  0  0  0  0  0  0  0
   15.7790    9.2720   28.1580 H   0  0  0  0  0  0  0  0  0  0  0  0
   16.3610    8.4140   29.4750 H   0  0  0  0  0  0  0  0  0  0  0  0
   14.6090    6.4290   30.3960 H   0  0  0  0  0  0  0  0  0  0  0  0
   13.0600    6.3870   29.5720 H   0  0  0  0  0  0  0  0  0  0  0  0
   12.1250    6.1580   25.7890 H   0  0  0  0  0  0  0  0  0  0  0  0
   13.3410    7.4320   25.5270 H   0  0  0  0  0  0  0  0  0  0  0  0
   15.6700    6.1820   28.1930 H   0  0  0  0  0  0  0  0  0  0  0  0
   15.5380    7.4060   26.9080 H   0  0  0  0  0  0  0  0  0  0  0  0
   15.6200   10.5450   30.1950 H   0  0  0  0  0  0  0  0  0  0  0  0
   14.1400   10.3510   29.4080 H   0  0  0  0  0  0  0  0  0  0  0  0
   12.4620    8.6290   30.3570 H   0  0  0  0  0  0  0  0  0  0  0  0
   12.9240    7.6110   31.6940 H   0  0  0  0  0  0  0  0  0  0  0  0
   11.4820    8.3830   26.9490 H   0  0  0  0  0  0  0  0  0  0  0  0
   11.6400    7.1270   28.1200 H   0  0  0  0  0  0  0  0  0  0  0  0
   13.4630    5.3640   27.7540 H   0  0  0  0  0  0  0  0  0  0  0  0
    5.4750   -1.1270   22.8150 H   0  0  0  0  0  0  0  0  0  0  0  0
    5.7560    0.6180   23.1520 H   0  0  0  0  0  0  0  0  0  0  0  0
    4.3550    0.0430   22.1750 H   0  0  0  0  0  0  0  0  0  0  0  0
    9.9460   -2.4180   22.8900 H   0  0  0  0  0  0  0  0  0  0  0  0
    9.7080   -1.3130   24.2860 H   0  0  0  0  0  0  0  0  0  0  0  0
   14.6190    2.1320   23.2790 H   0  0  0  0  0  0  0  0  0  0  0  0
   15.9630    1.4570   24.3350 H   0  0  0  0  0  0  0  0  0  0  0  0
    7.8710   -1.9700   22.2180 H   0  0  0  0  0  0  0  0  0  0  0  0
   15.1580    8.7050   31.6520 H   0  0  0  0  0  0  0  0  0  0  0  0
   13.9990    9.7920   31.7470 H   0  0  0  0  0  0  0  0  0  0  0  0
  5 41  1  0  0  0  0
  5 27  2  0  0  0  0
  6 27  1  0  0  0  0
  1  5  1  0  0  0  0
  6 42  1  0  0  0  0
  6 10  2  0  0  0  0
  1 37  1  0  0  0  0
  1  8  2  0  0  0  0
  8 10  1  0  0  0  0
 10 31  1  0  0  0  0
 12 36  1  0  0  0  0
  8 24  1  0  0  0  0
  3 39  1  0  0  0  0
 31 66  1  0  0  0  0
 14 31  1  0  0  0  0
 24 61  1  0  0  0  0
  3 12  2  0  0  0  0
  4 12  1  0  0  0  0
  3  9  1  0  0  0  0
 14 33  2  0  0  0  0
 24 59  1  0  0  0  0
 24 60  1  0  0  0  0
 14 25  1  0  0  0  0
 25 62  1  0  0  0  0
  4 40  1  0  0  0  0
  4 11  2  0  0  0  0
  9 25  1  0  0  0  0
  2  9  2  0  0  0  0
 25 63  1  0  0  0  0
 26 64  1  0  0  0  0
  2 11  1  0  0  0  0
 11 35  1  0  0  0  0
  2 38  1  0  0  0  0
 26 65  1  0  0  0  0
 13 26  1  0  0  0  0
 26 35  1  0  0  0  0
 13 28  1  0  0  0  0
 28 29  2  0  0  0  0
  7 13  2  0  0  0  0
 29 30  1  0  0  0  0
 17 49  1  0  0  0  0
 17 48  1  0  0  0  0
  7 30  1  0  0  0  0
  7 43  1  0  0  0  0
 22 30  1  0  0  0  0
 17 22  1  0  0  0  0
 17 21  1  0  0  0  0
 18 51  1  0  0  0  0
 21 56  1  0  0  0  0
 18 22  1  0  0  0  0
 22 58  1  0  0  0  0
 21 34  1  0  0  0  0
 21 57  1  0  0  0  0
 18 50  1  0  0  0  0
 18 23  1  0  0  0  0
 23 34  1  0  0  0  0
 15 44  1  0  0  0  0
 15 23  1  0  0  0  0
 16 23  1  0  0  0  0
 15 45  1  0  0  0  0
 15 19  1  0  0  0  0
 19 53  1  0  0  0  0
 16 47  1  0  0  0  0
 16 46  1  0  0  0  0
 16 20  1  0  0  0  0
 19 52  1  0  0  0  0
 19 32  1  0  0  0  0
 20 54  1  0  0  0  0
 20 32  1  0  0  0  0
 20 55  1  0  0  0  0
 32 67  1  0  0  0  0
 32 68  1  0  0  0  0
M  CHG  1  32   1
M  END
> <CID>
EN300-843582

> <SMILES>
Cc1ccncc1NC(=O)Cc2cc(cc(c2)Cl)OCc3cn(nn3)[C@@H]4CCOC5(C4)CC[NH2+]CC5

> <RUN>
RUN907

> <DDG (kcal/mol)>
-1.16

> <dDDG (kcal/mol)>
0.17

$$$$
EN300-1915724
  -OEChem-08252008263D

 46 48  0     0  0  0  0  0  0999 V2000
   11.6580    1.1450   28.2070 C   0  0  0  0  0  0  0  0  0  0  0  0
   12.1730    0.9770   26.9400 C   0  0  0  0  0  0  0  0  0  0  0  0
    4.6550    0.7700   19.7200 C   0  0  0  0  0  0  0  0  0  0  0  0
   11.1990    0.3070   24.0250 C   0  0  0  0  0  0  0  0  0  0  0  0
   11.9070   -1.3470   22.4990 C   0  0  0  0  0  0  0  0  0  0  0  0
   12.3350    3.3150   26.5940 C   0  0  0  0  0  0  0  0  0  0  0  0
   13.5340    0.1150   23.4260 C   0  0  0  0  0  0  0  0  0  0  0  0
    5.2690    0.6850   18.4570 C   0  0  0  0  0  0  0  0  0  0  0  0
    7.0470   -0.5020   19.3680 C   0  0  0  0  0  0  0  0  0  0  0  0
   11.4940    2.3890   28.6900 C   0  0  0  0  0  0  0  0  0  0  0  0
    5.2250    0.2740   20.8620 C   0  0  0  0  0  0  0  0  0  0  0  0
   10.8170   -0.7470   23.2200 C   0  0  0  0  0  0  0  0  0  0  0  0
    6.5380   -0.2430   20.6780 C   0  0  0  0  0  0  0  0  0  0  0  0
   12.4440    2.0520   26.1140 C   0  0  0  0  0  0  0  0  0  0  0  0
   12.5280    0.8210   24.1460 C   0  0  0  0  0  0  0  0  0  0  0  0
   11.8710    3.4860   27.8820 C   0  0  0  0  0  0  0  0  0  0  0  0
   13.1900   -0.9950   22.6430 C   0  0  0  0  0  0  0  0  0  0  0  0
    8.5470   -0.4620   22.0220 C   0  0  0  0  0  0  0  0  0  0  0  0
    4.7460    0.5930   22.2410 C   0  0  0  0  0  0  0  0  0  0  0  0
    9.3900   -1.1930   23.0740 C   0  0  0  0  0  0  0  0  0  0  0  0
   11.0040    2.5220   30.1180 C   0  0  0  0  0  0  0  0  0  0  0  0
    6.4400   -0.0120   18.3090 N   0  0  0  0  0  0  0  0  0  0  0  0
    7.2150   -0.7210   21.8170 N   0  0  0  0  0  0  0  0  0  0  0  0
    9.1000    0.2480   21.1950 O   0  0  0  0  0  0  0  0  0  0  0  0
   11.6500    4.7460   28.3310 O   0  0  0  0  0  0  0  0  0  0  0  0
   12.9960    1.8710   24.8710 O   0  0  0  0  0  0  0  0  0  0  0  0
   14.4490   -1.9790   21.8620 Cl  0  0  0  0  0  0  0  0  0  0  0  0
    9.2760    1.6600   30.5160 Br  0  0  0  0  0  0  0  0  0  0  0  0
   11.3500    0.3360   28.8640 H   0  0  0  0  0  0  0  0  0  0  0  0
   12.2620   -0.0760   26.6910 H   0  0  0  0  0  0  0  0  0  0  0  0
    3.7630    1.3540   19.9250 H   0  0  0  0  0  0  0  0  0  0  0  0
   10.4490    0.8330   24.6020 H   0  0  0  0  0  0  0  0  0  0  0  0
   11.7610   -2.1340   21.7740 H   0  0  0  0  0  0  0  0  0  0  0  0
   12.4320    4.1970   25.9610 H   0  0  0  0  0  0  0  0  0  0  0  0
   14.5620    0.4440   23.4900 H   0  0  0  0  0  0  0  0  0  0  0  0
    4.9050    1.2100   17.5770 H   0  0  0  0  0  0  0  0  0  0  0  0
    7.9630   -1.0520   19.2070 H   0  0  0  0  0  0  0  0  0  0  0  0
    5.3380    1.4210   22.6360 H   0  0  0  0  0  0  0  0  0  0  0  0
    3.6820    0.8250   22.3750 H   0  0  0  0  0  0  0  0  0  0  0  0
    4.7680   -0.2380   22.9470 H   0  0  0  0  0  0  0  0  0  0  0  0
    9.4490   -2.2780   22.8930 H   0  0  0  0  0  0  0  0  0  0  0  0
    8.8590   -1.0870   24.0270 H   0  0  0  0  0  0  0  0  0  0  0  0
   10.9820    3.5950   30.3330 H   0  0  0  0  0  0  0  0  0  0  0  0
   11.8050    2.1210   30.7530 H   0  0  0  0  0  0  0  0  0  0  0  0
    6.5850   -1.0480   22.5430 H   0  0  0  0  0  0  0  0  0  0  0  0
   11.9390    5.4130   27.6730 H   0  0  0  0  0  0  0  0  0  0  0  0
  8 36  1  0  0  0  0
  8 22  2  0  0  0  0
  9 22  1  0  0  0  0
  3  8  1  0  0  0  0
  9 37  1  0  0  0  0
  9 13  2  0  0  0  0
  3 31  1  0  0  0  0
  3 11  2  0  0  0  0
 11 13  1  0  0  0  0
 13 23  1  0  0  0  0
 11 19  1  0  0  0  0
 18 24  2  0  0  0  0
  5 33  1  0  0  0  0
 18 23  1  0  0  0  0
 23 45  1  0  0  0  0
 17 27  1  0  0  0  0
 18 20  1  0  0  0  0
 19 39  1  0  0  0  0
 19 38  1  0  0  0  0
 19 40  1  0  0  0  0
  5 17  2  0  0  0  0
  5 12  1  0  0  0  0
  7 17  1  0  0  0  0
 20 41  1  0  0  0  0
 12 20  1  0  0  0  0
 20 42  1  0  0  0  0
  4 12  2  0  0  0  0
  7 35  1  0  0  0  0
  7 15  2  0  0  0  0
  4 15  1  0  0  0  0
  4 32  1  0  0  0  0
 15 26  1  0  0  0  0
 14 26  1  0  0  0  0
  6 34  1  0  0  0  0
  6 14  2  0  0  0  0
  2 14  1  0  0  0  0
  6 16  1  0  0  0  0
  2 30  1  0  0  0  0
  1  2  2  0  0  0  0
 25 46  1  0  0  0  0
 16 25  1  0  0  0  0
 10 16  2  0  0  0  0
  1 10  1  0  0  0  0
  1 29  1  0  0  0  0
 10 21  1  0  0  0  0
 21 43  1  0  0  0  0
 21 28  1  0  0  0  0
 21 44  1  0  0  0  0
M  END
> <CID>
EN300-1915724

> <SMILES>
Cc1ccncc1NC(=O)Cc2cc(cc(c2)Cl)Oc3ccc(c(c3)O)CBr

> <RUN>
RUN566

> <DDG (kcal/mol)>
-1.14

> <dDDG (kcal/mol)>
0.10

$$$$
EN300-1909681
  -OEChem-08252008263D

 51 53  0     0  0  0  0  0  0999 V2000
   11.2110    4.0370   27.2790 C   0  0  0  0  0  0  0  0  0  0  0  0
   11.7020    2.8110   27.0330 C   0  0  0  0  0  0  0  0  0  0  0  0
    4.8150    1.7040   18.8820 C   0  0  0  0  0  0  0  0  0  0  0  0
   10.8920    0.4020   23.8420 C   0  0  0  0  0  0  0  0  0  0  0  0
   11.4510    3.3360   24.6460 C   0  0  0  0  0  0  0  0  0  0  0  0
   11.6290   -1.0530   22.0710 C   0  0  0  0  0  0  0  0  0  0  0  0
   13.2120    0.0120   23.5160 C   0  0  0  0  0  0  0  0  0  0  0  0
    5.2510    1.0670   17.6970 C   0  0  0  0  0  0  0  0  0  0  0  0
    7.0610    0.1510   18.7580 C   0  0  0  0  0  0  0  0  0  0  0  0
   10.7050    4.9060   26.2630 C   0  0  0  0  0  0  0  0  0  0  0  0
    5.5670    1.6500   19.9660 C   0  0  0  0  0  0  0  0  0  0  0  0
   10.5870   -0.3790   22.7190 C   0  0  0  0  0  0  0  0  0  0  0  0
   10.8400    4.5310   24.9250 C   0  0  0  0  0  0  0  0  0  0  0  0
    6.6530    0.7750   19.9840 C   0  0  0  0  0  0  0  0  0  0  0  0
   11.8580    2.4170   25.7000 C   0  0  0  0  0  0  0  0  0  0  0  0
   12.2310    0.5510   24.3020 C   0  0  0  0  0  0  0  0  0  0  0  0
   12.9570   -0.8250   22.4660 C   0  0  0  0  0  0  0  0  0  0  0  0
    8.6810    0.3010   21.2650 C   0  0  0  0  0  0  0  0  0  0  0  0
   10.1070    6.2600   26.6450 C   0  0  0  0  0  0  0  0  0  0  0  0
    5.0850    2.4160   21.1380 C   0  0  0  0  0  0  0  0  0  0  0  0
    9.1280   -0.5340   22.3960 C   0  0  0  0  0  0  0  0  0  0  0  0
   10.4830    5.4930   23.7680 C   0  0  0  0  0  0  0  0  0  0  0  0
    9.0740    5.4340   23.3320 C   0  0  0  0  0  0  0  0  0  0  0  0
    6.3310    0.2710   17.6630 N   0  0  0  0  0  0  0  0  0  0  0  0
    7.3920    0.7810   21.1960 N   0  0  0  0  0  0  0  0  0  0  0  0
    9.4620    0.5920   20.3630 O   0  0  0  0  0  0  0  0  0  0  0  0
   12.5330    1.2360   25.4490 O   0  0  0  0  0  0  0  0  0  0  0  0
   14.1870   -1.4260   21.3710 Cl  0  0  0  0  0  0  0  0  0  0  0  0
    8.6600    3.5960   22.6150 Br  0  0  0  0  0  0  0  0  0  0  0  0
   10.8520    4.4230   28.2350 H   0  0  0  0  0  0  0  0  0  0  0  0
   11.8850    2.0530   27.7910 H   0  0  0  0  0  0  0  0  0  0  0  0
    3.8730    2.2440   18.9070 H   0  0  0  0  0  0  0  0  0  0  0  0
   10.1070    0.7930   24.4890 H   0  0  0  0  0  0  0  0  0  0  0  0
   11.5240    3.0480   23.6080 H   0  0  0  0  0  0  0  0  0  0  0  0
   11.3670   -1.7230   21.2490 H   0  0  0  0  0  0  0  0  0  0  0  0
   14.2240    0.2010   23.8440 H   0  0  0  0  0  0  0  0  0  0  0  0
    4.5860    1.1670   16.8430 H   0  0  0  0  0  0  0  0  0  0  0  0
    7.9260   -0.5060   18.7000 H   0  0  0  0  0  0  0  0  0  0  0  0
   10.9250    6.9870   26.7020 H   0  0  0  0  0  0  0  0  0  0  0  0
    9.3150    6.5990   25.9870 H   0  0  0  0  0  0  0  0  0  0  0  0
    9.7000    6.3360   27.6610 H   0  0  0  0  0  0  0  0  0  0  0  0
    5.3650    3.4690   21.0830 H   0  0  0  0  0  0  0  0  0  0  0  0
    3.9940    2.3880   21.0860 H   0  0  0  0  0  0  0  0  0  0  0  0
    5.4530    1.9880   22.0810 H   0  0  0  0  0  0  0  0  0  0  0  0
    9.0570   -1.5720   22.0670 H   0  0  0  0  0  0  0  0  0  0  0  0
    8.5520   -0.4340   23.3170 H   0  0  0  0  0  0  0  0  0  0  0  0
   11.0270    5.1180   22.8870 H   0  0  0  0  0  0  0  0  0  0  0  0
   10.7220    6.5310   23.9770 H   0  0  0  0  0  0  0  0  0  0  0  0
    8.3470    5.6140   24.1330 H   0  0  0  0  0  0  0  0  0  0  0  0
    8.9080    6.1420   22.5150 H   0  0  0  0  0  0  0  0  0  0  0  0
    6.8330    0.6510   22.0320 H   0  0  0  0  0  0  0  0  0  0  0  0
  8 37  1  0  0  0  0
  8 24  2  0  0  0  0
  9 24  1  0  0  0  0
  3  8  1  0  0  0  0
  9 38  1  0  0  0  0
  9 14  2  0  0  0  0
  3 32  1  0  0  0  0
  3 11  2  0  0  0  0
 11 14  1  0  0  0  0
 11 20  1  0  0  0  0
 14 25  1  0  0  0  0
 18 26  2  0  0  0  0
 20 42  1  0  0  0  0
 20 43  1  0  0  0  0
 20 44  1  0  0  0  0
 18 25  1  0  0  0  0
 25 51  1  0  0  0  0
  6 35  1  0  0  0  0
 18 21  1  0  0  0  0
 17 28  1  0  0  0  0
 21 45  1  0  0  0  0
  6 17  2  0  0  0  0
  6 12  1  0  0  0  0
 12 21  1  0  0  0  0
 21 46  1  0  0  0  0
  7 17  1  0  0  0  0
 23 50  1  0  0  0  0
 23 29  1  0  0  0  0
  4 12  2  0  0  0  0
 22 47  1  0  0  0  0
 22 23  1  0  0  0  0
 23 49  1  0  0  0  0
  7 36  1  0  0  0  0
  7 16  2  0  0  0  0
  5 34  1  0  0  0  0
 22 48  1  0  0  0  0
 13 22  1  0  0  0  0
  4 16  1  0  0  0  0
  4 33  1  0  0  0  0
 16 27  1  0  0  0  0
  5 13  2  0  0  0  0
  5 15  1  0  0  0  0
 10 13  1  0  0  0  0
 15 27  1  0  0  0  0
  2 15  2  0  0  0  0
 19 40  1  0  0  0  0
 10 19  1  0  0  0  0
  1 10  2  0  0  0  0
 19 39  1  0  0  0  0
 19 41  1  0  0  0  0
  1  2  1  0  0  0  0
  2 31  1  0  0  0  0
  1 30  1  0  0  0  0
M  END
> <CID>
EN300-1909681

> <SMILES>
Cc1ccc(cc1CCBr)Oc2cc(cc(c2)Cl)CC(=O)Nc3cnccc3C

> <RUN>
RUN2206

> <DDG (kcal/mol)>
-1.14

> <dDDG (kcal/mol)>
0.12

$$$$
EN300-844309
  -OEChem-08252008263D

 53 55  0     0  0  0  0  0  0999 V2000
    6.3500    2.4700   22.8920 C   0  0  0  0  0  0  0  0  0  0  0  0
   13.0820    1.0890   24.4130 C   0  0  0  0  0  0  0  0  0  0  0  0
   12.9350   -0.8220   23.0240 C   0  0  0  0  0  0  0  0  0  0  0  0
   14.3630    1.0300   22.3680 C   0  0  0  0  0  0  0  0  0  0  0  0
    6.7280    2.5350   21.5480 C   0  0  0  0  0  0  0  0  0  0  0  0
    8.6110    1.3130   22.0240 C   0  0  0  0  0  0  0  0  0  0  0  0
   10.7700    4.5240   24.1810 C   0  0  0  0  0  0  0  0  0  0  0  0
    7.0790    1.8080   23.8530 C   0  0  0  0  0  0  0  0  0  0  0  0
   12.4770   -0.1640   24.1640 C   0  0  0  0  0  0  0  0  0  0  0  0
    8.3210    1.2350   23.4120 C   0  0  0  0  0  0  0  0  0  0  0  0
   13.9060    1.7890   23.4320 C   0  0  0  0  0  0  0  0  0  0  0  0
   13.9080   -0.2610   22.1430 C   0  0  0  0  0  0  0  0  0  0  0  0
   11.8640    3.9960   23.5240 C   0  0  0  0  0  0  0  0  0  0  0  0
   10.0880   -0.4590   24.0450 C   0  0  0  0  0  0  0  0  0  0  0  0
    6.5970    1.6510   25.3090 C   0  0  0  0  0  0  0  0  0  0  0  0
   11.2720   -0.5760   25.0020 C   0  0  0  0  0  0  0  0  0  0  0  0
   13.2280    3.9550   24.1390 C   0  0  0  0  0  0  0  0  0  0  0  0
    8.6290    6.7040   23.5040 C   0  0  0  0  0  0  0  0  0  0  0  0
    8.4930    5.1970   23.2570 C   0  0  0  0  0  0  0  0  0  0  0  0
    7.3090    7.3010   23.7520 C   0  0  0  0  0  0  0  0  0  0  0  0
    7.8730    1.9140   21.0630 N   0  0  0  0  0  0  0  0  0  0  0  0
   11.5760    3.8400   22.1880 N   0  0  0  0  0  0  0  0  0  0  0  0
   10.2620    4.1160   22.0660 N   0  0  0  0  0  0  0  0  0  0  0  0
    9.7630    4.4780   23.2110 N   0  0  0  0  0  0  0  0  0  0  0  0
    9.2150    0.6020   24.2860 N   0  0  0  0  0  0  0  0  0  0  0  0
    6.6990    6.8750   24.9990 N   0  3  0  0  0  0  0  0  0  0  0  0
    9.8320   -1.1780   23.1250 O   0  0  0  0  0  0  0  0  0  0  0  0
   14.0980    3.1520   23.3580 O   0  0  0  0  0  0  0  0  0  0  0  0
   14.4480   -1.0710   20.7430 Cl  0  0  0  0  0  0  0  0  0  0  0  0
    5.4250    2.9850   23.1220 H   0  0  0  0  0  0  0  0  0  0  0  0
   12.8530    1.5830   25.3510 H   0  0  0  0  0  0  0  0  0  0  0  0
   12.5490   -1.7780   22.6690 H   0  0  0  0  0  0  0  0  0  0  0  0
   14.9390    1.5260   21.6050 H   0  0  0  0  0  0  0  0  0  0  0  0
    6.2030    3.1600   20.8370 H   0  0  0  0  0  0  0  0  0  0  0  0
    9.5770    0.9570   21.6870 H   0  0  0  0  0  0  0  0  0  0  0  0
   10.7000    4.9340   25.1870 H   0  0  0  0  0  0  0  0  0  0  0  0
    6.5460    2.6610   25.7260 H   0  0  0  0  0  0  0  0  0  0  0  0
    5.5510    1.3510   25.1910 H   0  0  0  0  0  0  0  0  0  0  0  0
    7.2150    0.9310   25.8600 H   0  0  0  0  0  0  0  0  0  0  0  0
   11.4110   -1.6340   25.2320 H   0  0  0  0  0  0  0  0  0  0  0  0
   11.1320    0.0280   25.9010 H   0  0  0  0  0  0  0  0  0  0  0  0
   13.5940    4.9790   24.0160 H   0  0  0  0  0  0  0  0  0  0  0  0
   13.0900    3.6210   25.1650 H   0  0  0  0  0  0  0  0  0  0  0  0
    9.3110    6.7830   24.3570 H   0  0  0  0  0  0  0  0  0  0  0  0
    9.0000    7.1070   22.5530 H   0  0  0  0  0  0  0  0  0  0  0  0
    7.9790    5.0790   22.2970 H   0  0  0  0  0  0  0  0  0  0  0  0
    7.8970    4.6980   24.0290 H   0  0  0  0  0  0  0  0  0  0  0  0
    7.5020    8.3740   23.7980 H   0  0  0  0  0  0  0  0  0  0  0  0
    6.5180    7.2850   22.9920 H   0  0  0  0  0  0  0  0  0  0  0  0
    9.3110    1.0200   25.2130 H   0  0  0  0  0  0  0  0  0  0  0  0
    5.9060    6.2440   24.8690 H   0  0  0  0  0  0  0  0  0  0  0  0
    6.3490    7.7010   25.4920 H   0  0  0  0  0  0  0  0  0  0  0  0
    7.3680    6.5040   25.6750 H   0  0  0  0  0  0  0  0  0  0  0  0
 12 29  1  0  0  0  0
  5 34  1  0  0  0  0
  5 21  2  0  0  0  0
  6 21  1  0  0  0  0
  1  5  1  0  0  0  0
  4 33  1  0  0  0  0
  6 35  1  0  0  0  0
  6 10  2  0  0  0  0
 22 23  2  0  0  0  0
 23 24  1  0  0  0  0
  4 12  2  0  0  0  0
  3 12  1  0  0  0  0
 13 22  1  0  0  0  0
 19 46  1  0  0  0  0
  4 11  1  0  0  0  0
 18 45  1  0  0  0  0
  3 32  1  0  0  0  0
  1 30  1  0  0  0  0
  1  8  2  0  0  0  0
 20 49  1  0  0  0  0
  3  9  2  0  0  0  0
 14 27  2  0  0  0  0
 19 24  1  0  0  0  0
  7 24  1  0  0  0  0
 18 19  1  0  0  0  0
 19 47  1  0  0  0  0
 11 28  1  0  0  0  0
 17 28  1  0  0  0  0
  8 10  1  0  0  0  0
 10 25  1  0  0  0  0
  2 11  2  0  0  0  0
 18 20  1  0  0  0  0
 18 44  1  0  0  0  0
 13 17  1  0  0  0  0
  7 13  2  0  0  0  0
 20 48  1  0  0  0  0
 20 26  1  0  0  0  0
  8 15  1  0  0  0  0
 17 42  1  0  0  0  0
 14 25  1  0  0  0  0
 14 16  1  0  0  0  0
 17 43  1  0  0  0  0
  2  9  1  0  0  0  0
  9 16  1  0  0  0  0
  7 36  1  0  0  0  0
 25 50  1  0  0  0  0
  2 31  1  0  0  0  0
 26 51  1  0  0  0  0
 26 52  1  0  0  0  0
 26 53  1  0  0  0  0
 16 40  1  0  0  0  0
 16 41  1  0  0  0  0
 15 38  1  0  0  0  0
 15 37  1  0  0  0  0
 15 39  1  0  0  0  0
M  CHG  1  26   1
M  END
> <CID>
EN300-844309

> <SMILES>
Cc1ccncc1NC(=O)Cc2cc(cc(c2)Cl)OCc3cn(nn3)CCC[NH3+]

> <RUN>
RUN645

> <DDG (kcal/mol)>
-1.13

> <dDDG (kcal/mol)>
0.13

$$$$
EN300-1274638
  -OEChem-08252008263D

 59 62  0     1  0  0  0  0  0999 V2000
    9.3190    1.5410   25.0960 C   0  0  0  0  0  0  0  0  0  0  0  0
    9.0190   -0.0660   26.9020 C   0  0  0  0  0  0  0  0  0  0  0  0
   10.4790    0.8690   24.7040 C   0  0  0  0  0  0  0  0  0  0  0  0
   10.1330   -0.7770   26.4240 C   0  0  0  0  0  0  0  0  0  0  0  0
    6.6000    1.4060   19.5760 C   0  0  0  0  0  0  0  0  0  0  0  0
   10.4160   -2.2130   23.4030 C   0  0  0  0  0  0  0  0  0  0  0  0
   11.3780   -3.4670   21.5330 C   0  0  0  0  0  0  0  0  0  0  0  0
   12.8840   -2.3040   23.0740 C   0  0  0  0  0  0  0  0  0  0  0  0
    6.3680    0.9410   18.3030 C   0  0  0  0  0  0  0  0  0  0  0  0
    7.3760   -1.0180   18.7710 C   0  0  0  0  0  0  0  0  0  0  0  0
    7.2530    0.6270   20.5270 C   0  0  0  0  0  0  0  0  0  0  0  0
   10.2770   -3.1590   22.3010 C   0  0  0  0  0  0  0  0  0  0  0  0
    8.6130    1.0330   26.2090 C   0  0  0  0  0  0  0  0  0  0  0  0
    7.5500   -0.6790   20.1120 C   0  0  0  0  0  0  0  0  0  0  0  0
   10.9310   -0.2810   25.3630 C   0  0  0  0  0  0  0  0  0  0  0  0
   11.7100   -1.8290   23.8220 C   0  0  0  0  0  0  0  0  0  0  0  0
   12.7100   -3.0770   21.9080 C   0  0  0  0  0  0  0  0  0  0  0  0
    6.5140    1.4180   27.4670 C   0  0  3  0  0  0  0  0  0  0  0  0
    8.0270   -2.9360   20.9790 C   0  0  0  0  0  0  0  0  0  0  0  0
    4.9850    0.0160   28.6250 C   0  0  1  0  0  0  0  0  0  0  0  0
    4.4820    1.3080   29.1200 C   0  0  1  0  0  0  0  0  0  0  0  0
    7.4100    1.1040   21.9500 C   0  0  0  0  0  0  0  0  0  0  0  0
    3.8240   -0.7160   27.9480 C   0  0  0  0  0  0  0  0  0  0  0  0
    8.9100   -3.7810   21.9380 C   0  0  0  0  0  0  0  0  0  0  0  0
    4.4200    1.4000   30.6190 C   0  0  0  0  0  0  0  0  0  0  0  0
    6.8100   -0.1770   17.8170 N   0  0  0  0  0  0  0  0  0  0  0  0
    6.0480    0.1570   27.6710 N   0  0  0  0  0  0  0  0  0  0  0  0
    7.6070    1.8520   26.6690 N   0  0  0  0  0  0  0  0  0  0  0  0
    7.9860   -1.5750   21.1530 N   0  0  0  0  0  0  0  0  0  0  0  0
    7.2240   -3.5300   20.2050 O   0  0  0  0  0  0  0  0  0  0  0  0
   11.9820   -1.0830   24.9620 O   0  0  0  0  0  0  0  0  0  0  0  0
    5.5110    2.6560   28.3310 S   0  0  0  0  0  0  0  0  0  0  0  0
   14.1540   -3.4580   20.9770 Cl  0  0  0  0  0  0  0  0  0  0  0  0
    3.1290    2.8660   31.1290 Br  0  0  0  0  0  0  0  0  0  0  0  0
    9.0810    2.4180   24.5100 H   0  0  0  0  0  0  0  0  0  0  0  0
    8.5990   -0.4440   27.8290 H   0  0  0  0  0  0  0  0  0  0  0  0
   11.0160    1.2790   23.8570 H   0  0  0  0  0  0  0  0  0  0  0  0
   10.4210   -1.7310   26.8620 H   0  0  0  0  0  0  0  0  0  0  0  0
    6.1220    2.3470   19.8040 H   0  0  0  0  0  0  0  0  0  0  0  0
    9.5290   -2.0360   24.0010 H   0  0  0  0  0  0  0  0  0  0  0  0
   11.3370   -4.1100   20.6660 H   0  0  0  0  0  0  0  0  0  0  0  0
   13.8740   -1.8770   23.1730 H   0  0  0  0  0  0  0  0  0  0  0  0
    5.7570    1.5190   17.6170 H   0  0  0  0  0  0  0  0  0  0  0  0
    7.7690   -1.9830   18.4470 H   0  0  0  0  0  0  0  0  0  0  0  0
    5.3520   -0.5480   29.4870 H   0  0  0  0  0  0  0  0  0  0  0  0
    3.5050    1.4760   28.6700 H   0  0  0  0  0  0  0  0  0  0  0  0
    7.3650    2.1870   22.0980 H   0  0  0  0  0  0  0  0  0  0  0  0
    6.6830    0.6880   22.6610 H   0  0  0  0  0  0  0  0  0  0  0  0
    8.4190    0.9430   22.3480 H   0  0  0  0  0  0  0  0  0  0  0  0
    3.5210   -0.1990   27.0400 H   0  0  0  0  0  0  0  0  0  0  0  0
    3.0570   -0.8370   28.7250 H   0  0  0  0  0  0  0  0  0  0  0  0
    4.2510   -1.7110   27.7740 H   0  0  0  0  0  0  0  0  0  0  0  0
    9.0760   -4.7390   21.4530 H   0  0  0  0  0  0  0  0  0  0  0  0
    8.3380   -3.9390   22.8640 H   0  0  0  0  0  0  0  0  0  0  0  0
    5.4120    1.6730   30.9910 H   0  0  0  0  0  0  0  0  0  0  0  0
    4.1170    0.3880   30.8810 H   0  0  0  0  0  0  0  0  0  0  0  0
    6.4410   -0.6520   27.1900 H   0  0  0  0  0  0  0  0  0  0  0  0
    7.6750    2.8470   26.4430 H   0  0  0  0  0  0  0  0  0  0  0  0
    8.4150   -1.2200   22.0020 H   0  0  0  0  0  0  0  0  0  0  0  0
  9 43  1  0  0  0  0
  9 26  2  0  0  0  0
 10 26  1  0  0  0  0
  5  9  1  0  0  0  0
 10 44  1  0  0  0  0
 10 14  2  0  0  0  0
  5 39  1  0  0  0  0
  5 11  2  0  0  0  0
 11 14  1  0  0  0  0
 14 29  1  0  0  0  0
 19 30  2  0  0  0  0
 11 22  1  0  0  0  0
  7 41  1  0  0  0  0
 17 33  1  0  0  0  0
 19 29  1  0  0  0  0
 19 24  1  0  0  0  0
 29 59  1  0  0  0  0
 24 53  1  0  0  0  0
  7 17  2  0  0  0  0
  7 12  1  0  0  0  0
  8 17  1  0  0  0  0
 12 24  1  0  0  0  0
 24 54  1  0  0  0  0
 22 47  1  0  0  0  0
 22 49  1  0  0  0  0
 22 48  1  0  0  0  0
  6 12  2  0  0  0  0
  8 42  1  0  0  0  0
  8 16  2  0  0  0  0
  6 16  1  0  0  0  0
  6 40  1  0  0  0  0
 16 31  1  0  0  0  0
  3 37  1  0  0  0  0
  1 35  1  0  0  0  0
  1  3  2  0  0  0  0
  3 15  1  0  0  0  0
 15 31  1  0  0  0  0
  1 13  1  0  0  0  0
  4 15  2  0  0  0  0
 13 28  1  0  0  0  0
  2 13  2  0  0  0  0
  4 38  1  0  0  0  0
  2  4  1  0  0  0  0
 28 58  1  0  0  0  0
 18 28  1  0  0  0  0
  2 36  1  0  0  0  0
 23 50  1  0  0  0  0
 27 57  1  0  0  0  0
 18 27  1  0  0  0  0
 18 32  1  0  0  0  0
 20 27  1  0  0  0  0
 23 52  1  0  0  0  0
 20 23  1  0  0  0  0
 23 51  1  0  0  0  0
 21 32  1  0  0  0  0
 20 21  1  0  0  0  0
 20 45  1  0  0  0  0
 21 46  1  0  0  0  0
 21 25  1  0  0  0  0
 25 56  1  0  0  0  0
 25 55  1  0  0  0  0
 25 34  1  0  0  0  0
M  END
> <CID>
EN300-1274638

> <SMILES>
Cc1ccncc1NC(=O)Cc2cc(cc(c2)Cl)Oc3ccc(cc3)NC4=[NH+][C@@H]([C@H](S4)CBr)C

> <RUN>
RUN3788

> <DDG (kcal/mol)>
-1.13

> <dDDG (kcal/mol)>
0.14

$$$$
EN300-60436
  -OEChem-08252008263D

 57 60  0     0  0  0  0  0  0999 V2000
   13.9270   11.1480   23.7380 C   0  0  0  0  0  0  0  0  0  0  0  0
   14.0770   11.0610   22.3020 C   0  0  0  0  0  0  0  0  0  0  0  0
   13.5360   10.0000   24.4740 C   0  0  0  0  0  0  0  0  0  0  0  0
   13.8620    9.8040   21.6570 C   0  0  0  0  0  0  0  0  0  0  0  0
    4.9370    0.6060   19.6680 C   0  0  0  0  0  0  0  0  0  0  0  0
   11.6700    2.6140   23.3360 C   0  0  0  0  0  0  0  0  0  0  0  0
   12.3210    0.3460   23.7100 C   0  0  0  0  0  0  0  0  0  0  0  0
   14.0170    1.9750   23.4150 C   0  0  0  0  0  0  0  0  0  0  0  0
    5.5790   -0.1240   18.6710 C   0  0  0  0  0  0  0  0  0  0  0  0
    7.6050    0.0360   19.7790 C   0  0  0  0  0  0  0  0  0  0  0  0
   13.3770    8.7870   23.7930 C   0  0  0  0  0  0  0  0  0  0  0  0
   12.9410    7.4400   24.2920 C   0  0  0  0  0  0  0  0  0  0  0  0
    5.6580    0.8890   20.8680 C   0  0  0  0  0  0  0  0  0  0  0  0
   11.3000    1.3110   23.5630 C   0  0  0  0  0  0  0  0  0  0  0  0
    7.0070    0.5860   20.9420 C   0  0  0  0  0  0  0  0  0  0  0  0
   13.5530    8.6780   22.4120 C   0  0  0  0  0  0  0  0  0  0  0  0
   12.9970    2.9930   23.3850 C   0  0  0  0  0  0  0  0  0  0  0  0
   13.6480    0.6660   23.6290 C   0  0  0  0  0  0  0  0  0  0  0  0
   12.8660    6.6900   23.1210 C   0  0  0  0  0  0  0  0  0  0  0  0
   12.8590    7.0610   25.7110 C   0  0  0  0  0  0  0  0  0  0  0  0
    9.0750    1.1250   22.2620 C   0  0  0  0  0  0  0  0  0  0  0  0
    4.9090    1.5140   21.9620 C   0  0  0  0  0  0  0  0  0  0  0  0
   12.0210    7.8520   28.5700 C   0  0  0  0  0  0  0  0  0  0  0  0
    9.7600    0.9260   23.5870 C   0  0  0  0  0  0  0  0  0  0  0  0
   12.4500    5.2550   23.1020 C   0  0  0  0  0  0  0  0  0  0  0  0
   13.3250    7.2600   28.0710 C   0  0  0  0  0  0  0  0  0  0  0  0
    6.8380   -0.4190   18.7360 N   0  0  0  0  0  0  0  0  0  0  0  0
    7.7420    0.8650   22.1220 N   0  0  0  0  0  0  0  0  0  0  0  0
   12.1270    6.1190   25.9590 O   0  0  0  0  0  0  0  0  0  0  0  0
    9.6150    1.5470   21.2750 O   0  0  0  0  0  0  0  0  0  0  0  0
   13.2550    7.3980   22.0420 O   0  0  0  0  0  0  0  0  0  0  0  0
   13.4920    4.2720   23.2380 O   0  0  0  0  0  0  0  0  0  0  0  0
   13.5250    7.7290   26.6830 O   0  0  0  0  0  0  0  0  0  0  0  0
   14.7700   -0.6360   23.7810 Cl  0  0  0  0  0  0  0  0  0  0  0  0
   14.1160   12.0780   24.2600 H   0  0  0  0  0  0  0  0  0  0  0  0
   14.3370   11.8960   21.6510 H   0  0  0  0  0  0  0  0  0  0  0  0
   13.4030   10.0810   25.5490 H   0  0  0  0  0  0  0  0  0  0  0  0
   13.9790    9.6720   20.5810 H   0  0  0  0  0  0  0  0  0  0  0  0
    3.9140    0.9660   19.6010 H   0  0  0  0  0  0  0  0  0  0  0  0
   10.9030    3.3180   23.0550 H   0  0  0  0  0  0  0  0  0  0  0  0
   11.9890   -0.6830   23.8250 H   0  0  0  0  0  0  0  0  0  0  0  0
   15.0610    2.2560   23.3320 H   0  0  0  0  0  0  0  0  0  0  0  0
    5.0030   -0.3560   17.7800 H   0  0  0  0  0  0  0  0  0  0  0  0
    8.6590   -0.1990   19.8220 H   0  0  0  0  0  0  0  0  0  0  0  0
    4.1840    2.2540   21.6060 H   0  0  0  0  0  0  0  0  0  0  0  0
    4.3460    0.7320   22.4760 H   0  0  0  0  0  0  0  0  0  0  0  0
    5.5780    2.0720   22.6220 H   0  0  0  0  0  0  0  0  0  0  0  0
   11.6890    7.6610   29.5960 H   0  0  0  0  0  0  0  0  0  0  0  0
   12.0590    8.9450   28.6070 H   0  0  0  0  0  0  0  0  0  0  0  0
   11.1590    7.6020   27.9360 H   0  0  0  0  0  0  0  0  0  0  0  0
    9.6200   -0.1360   23.7960 H   0  0  0  0  0  0  0  0  0  0  0  0
    9.2860    1.5390   24.3570 H   0  0  0  0  0  0  0  0  0  0  0  0
   11.6420    5.1190   23.8350 H   0  0  0  0  0  0  0  0  0  0  0  0
   11.9930    5.0820   22.1220 H   0  0  0  0  0  0  0  0  0  0  0  0
   13.1960    6.1710   28.1210 H   0  0  0  0  0  0  0  0  0  0  0  0
   14.0970    7.6140   28.7520 H   0  0  0  0  0  0  0  0  0  0  0  0
    7.2110    0.6910   22.9810 H   0  0  0  0  0  0  0  0  0  0  0  0
  9 43  1  0  0  0  0
  9 27  2  0  0  0  0
  5  9  1  0  0  0  0
 10 27  1  0  0  0  0
  5 39  1  0  0  0  0
  5 13  2  0  0  0  0
 10 44  1  0  0  0  0
 10 15  2  0  0  0  0
  4 38  1  0  0  0  0
 13 15  1  0  0  0  0
 13 22  1  0  0  0  0
 15 28  1  0  0  0  0
 21 30  2  0  0  0  0
 22 45  1  0  0  0  0
  2 36  1  0  0  0  0
  2  4  2  0  0  0  0
  4 16  1  0  0  0  0
 22 46  1  0  0  0  0
 22 47  1  0  0  0  0
 16 31  1  0  0  0  0
 19 31  1  0  0  0  0
 21 28  1  0  0  0  0
 28 57  1  0  0  0  0
 25 54  1  0  0  0  0
 21 24  1  0  0  0  0
  1  2  1  0  0  0  0
 11 16  2  0  0  0  0
  6 40  1  0  0  0  0
 19 25  1  0  0  0  0
 25 32  1  0  0  0  0
 25 53  1  0  0  0  0
 12 19  2  0  0  0  0
 17 32  1  0  0  0  0
  8 42  1  0  0  0  0
  6 17  2  0  0  0  0
  6 14  1  0  0  0  0
  8 17  1  0  0  0  0
  8 18  2  0  0  0  0
 14 24  1  0  0  0  0
  7 14  2  0  0  0  0
 24 51  1  0  0  0  0
 24 52  1  0  0  0  0
  7 18  1  0  0  0  0
 18 34  1  0  0  0  0
  7 41  1  0  0  0  0
  1 35  1  0  0  0  0
  1  3  2  0  0  0  0
 11 12  1  0  0  0  0
  3 11  1  0  0  0  0
 12 20  1  0  0  0  0
  3 37  1  0  0  0  0
 20 29  2  0  0  0  0
 20 33  1  0  0  0  0
 26 33  1  0  0  0  0
 23 50  1  0  0  0  0
 26 55  1  0  0  0  0
 23 26  1  0  0  0  0
 26 56  1  0  0  0  0
 23 49  1  0  0  0  0
 23 48  1  0  0  0  0
M  END
> <CID>
EN300-60436

> <SMILES>
CCOC(=O)c1c2ccccc2oc1COc3cc(cc(c3)Cl)CC(=O)Nc4cnccc4C

> <RUN>
RUN4577

> <DDG (kcal/mol)>
-1.12

> <dDDG (kcal/mol)>
0.30

$$$$
EN300-1910987
  -OEChem-08252008263D

 49 51  0     0  0  0  0  0  0999 V2000
   12.3450    0.4220   26.0830 C   0  0  0  0  0  0  0  0  0  0  0  0
   12.2020    1.7890   26.3090 C   0  0  0  0  0  0  0  0  0  0  0  0
   12.8050   -0.0570   24.8480 C   0  0  0  0  0  0  0  0  0  0  0  0
    6.2870    2.4790   18.6110 C   0  0  0  0  0  0  0  0  0  0  0  0
   11.1100   -0.7310   22.4370 C   0  0  0  0  0  0  0  0  0  0  0  0
   10.7850   -2.7910   21.2060 C   0  0  0  0  0  0  0  0  0  0  0  0
   12.8720   -1.5480   21.1680 C   0  0  0  0  0  0  0  0  0  0  0  0
    6.9070    2.0110   17.4820 C   0  0  0  0  0  0  0  0  0  0  0  0
    8.0850    0.3830   18.7230 C   0  0  0  0  0  0  0  0  0  0  0  0
   12.4390    2.6940   25.3060 C   0  0  0  0  0  0  0  0  0  0  0  0
    6.5650    1.8430   19.8600 C   0  0  0  0  0  0  0  0  0  0  0  0
   10.3050   -1.7520   22.0330 C   0  0  0  0  0  0  0  0  0  0  0  0
    7.4080    0.6700   19.9320 C   0  0  0  0  0  0  0  0  0  0  0  0
   12.9930    0.8510   23.7540 C   0  0  0  0  0  0  0  0  0  0  0  0
   12.4030   -0.6030   22.0920 C   0  0  0  0  0  0  0  0  0  0  0  0
   12.7930    2.2910   24.0370 C   0  0  0  0  0  0  0  0  0  0  0  0
   12.0810   -2.6670   20.7580 C   0  0  0  0  0  0  0  0  0  0  0  0
    7.9430   -1.2890   21.2890 C   0  0  0  0  0  0  0  0  0  0  0  0
    6.1230    2.6250   21.0440 C   0  0  0  0  0  0  0  0  0  0  0  0
   14.3440    3.3840   22.7330 C   0  0  0  0  0  0  0  0  0  0  0  0
    8.8350   -1.7650   22.4220 C   0  0  0  0  0  0  0  0  0  0  0  0
   12.1820    4.1150   25.6500 C   0  0  0  0  0  0  0  0  0  0  0  0
    7.7900    1.0180   17.5800 N   0  0  0  0  0  0  0  0  0  0  0  0
    7.6730    0.0720   21.2110 N   0  0  0  0  0  0  0  0  0  0  0  0
    7.3540   -1.9920   20.4910 O   0  0  0  0  0  0  0  0  0  0  0  0
   13.1800    0.5130   22.4670 O   0  0  0  0  0  0  0  0  0  0  0  0
   12.9660    3.2310   23.0320 O   0  0  0  0  0  0  0  0  0  0  0  0
   12.7220   -3.9880   19.8100 Cl  0  0  0  0  0  0  0  0  0  0  0  0
   13.7200    4.8940   26.7110 Br  0  0  0  0  0  0  0  0  0  0  0  0
   12.0790   -0.2900   26.8590 H   0  0  0  0  0  0  0  0  0  0  0  0
   11.9460    2.0370   27.3390 H   0  0  0  0  0  0  0  0  0  0  0  0
   12.8710   -1.1160   24.6390 H   0  0  0  0  0  0  0  0  0  0  0  0
    5.8180    3.4420   18.4660 H   0  0  0  0  0  0  0  0  0  0  0  0
   10.6530    0.0460   23.0470 H   0  0  0  0  0  0  0  0  0  0  0  0
   10.1220   -3.6010   20.9340 H   0  0  0  0  0  0  0  0  0  0  0  0
   13.8610   -1.3130   20.7870 H   0  0  0  0  0  0  0  0  0  0  0  0
    6.8730    2.5300   16.5260 H   0  0  0  0  0  0  0  0  0  0  0  0
    8.6770   -0.5220   18.6670 H   0  0  0  0  0  0  0  0  0  0  0  0
    5.0640    2.9110   21.0110 H   0  0  0  0  0  0  0  0  0  0  0  0
    6.2070    2.0840   21.9930 H   0  0  0  0  0  0  0  0  0  0  0  0
    6.7800    3.4690   21.3040 H   0  0  0  0  0  0  0  0  0  0  0  0
   14.7780    2.7460   21.9590 H   0  0  0  0  0  0  0  0  0  0  0  0
   14.9380    3.3440   23.6510 H   0  0  0  0  0  0  0  0  0  0  0  0
   14.4550    4.4010   22.3300 H   0  0  0  0  0  0  0  0  0  0  0  0
    8.5420   -2.7350   22.8150 H   0  0  0  0  0  0  0  0  0  0  0  0
    8.6780   -1.1590   23.3290 H   0  0  0  0  0  0  0  0  0  0  0  0
   11.9610    4.7390   24.7860 H   0  0  0  0  0  0  0  0  0  0  0  0
   11.3320    4.1610   26.3330 H   0  0  0  0  0  0  0  0  0  0  0  0
    8.1110    0.7000   21.8830 H   0  0  0  0  0  0  0  0  0  0  0  0
  8 37  1  0  0  0  0
  8 23  2  0  0  0  0
  4  8  1  0  0  0  0
  9 23  1  0  0  0  0
  4 33  1  0  0  0  0
  4 11  2  0  0  0  0
  9 38  1  0  0  0  0
  9 13  2  0  0  0  0
 17 28  1  0  0  0  0
 11 13  1  0  0  0  0
 11 19  1  0  0  0  0
 13 24  1  0  0  0  0
 18 25  2  0  0  0  0
  7 17  2  0  0  0  0
  6 17  1  0  0  0  0
  7 36  1  0  0  0  0
  6 35  1  0  0  0  0
 19 39  1  0  0  0  0
 19 41  1  0  0  0  0
 19 40  1  0  0  0  0
  7 15  1  0  0  0  0
  6 12  2  0  0  0  0
 18 24  1  0  0  0  0
 24 49  1  0  0  0  0
 18 21  1  0  0  0  0
 20 42  1  0  0  0  0
 12 21  1  0  0  0  0
  5 12  1  0  0  0  0
  5 15  2  0  0  0  0
 15 26  1  0  0  0  0
 20 44  1  0  0  0  0
 21 45  1  0  0  0  0
 21 46  1  0  0  0  0
  5 34  1  0  0  0  0
 14 26  1  0  0  0  0
 20 27  1  0  0  0  0
 20 43  1  0  0  0  0
 16 27  1  0  0  0  0
 14 16  2  0  0  0  0
  3 14  1  0  0  0  0
 10 16  1  0  0  0  0
  3 32  1  0  0  0  0
 22 47  1  0  0  0  0
  1  3  2  0  0  0  0
 10 22  1  0  0  0  0
  2 10  2  0  0  0  0
 22 48  1  0  0  0  0
 22 29  1  0  0  0  0
  1  2  1  0  0  0  0
  1 30  1  0  0  0  0
  2 31  1  0  0  0  0
M  END
> <CID>
EN300-1910987

> <SMILES>
Cc1ccncc1NC(=O)Cc2cc(cc(c2)Cl)Oc3cccc(c3OC)CBr

> <RUN>
RUN1168

> <DDG (kcal/mol)>
-1.12

> <dDDG (kcal/mol)>
0.13

$$$$
EN300-1938856
  -OEChem-08252008263D

 56 59  0     1  0  0  0  0  0999 V2000
   11.0110    7.1980   25.7490 C   0  0  0  0  0  0  0  0  0  0  0  0
   11.3830    8.5700   26.1900 C   0  0  0  0  0  0  0  0  0  0  0  0
    3.6440    1.1120   19.2380 C   0  0  0  0  0  0  0  0  0  0  0  0
   10.0310    1.7310   23.4130 C   0  0  0  0  0  0  0  0  0  0  0  0
   10.8970   -0.2710   22.3840 C   0  0  0  0  0  0  0  0  0  0  0  0
   12.3810    1.5290   22.8290 C   0  0  0  0  0  0  0  0  0  0  0  0
    4.1480    0.8330   17.9730 C   0  0  0  0  0  0  0  0  0  0  0  0
    6.1540    0.3440   18.8520 C   0  0  0  0  0  0  0  0  0  0  0  0
    4.3810    0.9030   20.4210 C   0  0  0  0  0  0  0  0  0  0  0  0
    9.7860    0.4920   22.9150 C   0  0  0  0  0  0  0  0  0  0  0  0
    5.6820    0.4660   20.1810 C   0  0  0  0  0  0  0  0  0  0  0  0
   11.3350    2.3350   23.2910 C   0  0  0  0  0  0  0  0  0  0  0  0
   12.2030    0.2240   22.3270 C   0  0  0  0  0  0  0  0  0  0  0  0
   11.3550    7.1370   24.4610 C   0  0  0  0  0  0  0  0  0  0  0  0
   11.8640    9.1970   25.0810 C   0  0  0  0  0  0  0  0  0  0  0  0
   11.5880    6.1770   22.1740 C   0  0  0  0  0  0  0  0  0  0  0  0
   11.2680    5.9680   23.4810 C   0  0  0  0  0  0  0  0  0  0  0  0
    7.8070    0.4390   21.4820 C   0  0  0  0  0  0  0  0  0  0  0  0
   11.6570   11.7460   25.8120 C   0  0  0  0  0  0  0  0  0  0  0  0
   12.3860   10.5820   25.0940 C   0  0  1  0  0  0  0  0  0  0  0  0
   13.0120   11.3280   26.2390 C   0  0  1  0  0  0  0  0  0  0  0  0
    3.7330    0.9710   21.7390 C   0  0  0  0  0  0  0  0  0  0  0  0
   14.1930   12.3760   26.0700 C   0  0  0  0  0  0  0  0  0  0  0  0
    8.3630   -0.0490   22.8150 C   0  0  0  0  0  0  0  0  0  0  0  0
   10.5520    4.6360   23.8170 C   0  0  0  0  0  0  0  0  0  0  0  0
    5.4200    0.5280   17.7810 N   0  0  0  0  0  0  0  0  0  0  0  0
    6.4580    0.1000   21.2560 N   0  0  0  0  0  0  0  0  0  0  0  0
    8.3540    1.3410   20.8990 O   0  0  0  0  0  0  0  0  0  0  0  0
   11.9160    8.3040   24.0660 O   0  0  0  0  0  0  0  0  0  0  0  0
   11.6150    3.6200   23.8350 O   0  0  0  0  0  0  0  0  0  0  0  0
   13.6590   -0.6180   21.7150 Cl  0  0  0  0  0  0  0  0  0  0  0  0
   10.6060    6.5110   26.4810 H   0  0  0  0  0  0  0  0  0  0  0  0
   11.0850    9.0390   27.1150 H   0  0  0  0  0  0  0  0  0  0  0  0
    2.6430    1.5090   19.3710 H   0  0  0  0  0  0  0  0  0  0  0  0
    9.2240    2.2530   23.9140 H   0  0  0  0  0  0  0  0  0  0  0  0
   10.6180   -1.2480   22.0190 H   0  0  0  0  0  0  0  0  0  0  0  0
   13.3950    1.9210   22.7540 H   0  0  0  0  0  0  0  0  0  0  0  0
    3.5990    0.9550   17.0470 H   0  0  0  0  0  0  0  0  0  0  0  0
    7.1820    0.0500   18.6630 H   0  0  0  0  0  0  0  0  0  0  0  0
   11.4520    5.5380   21.3090 H   0  0  0  0  0  0  0  0  0  0  0  0
   12.0470    7.1400   21.9490 H   0  0  0  0  0  0  0  0  0  0  0  0
   11.5070   12.6870   25.2650 H   0  0  0  0  0  0  0  0  0  0  0  0
   10.8070   11.4550   26.4400 H   0  0  0  0  0  0  0  0  0  0  0  0
   12.8150   10.8290   24.1170 H   0  0  0  0  0  0  0  0  0  0  0  0
   13.1470   10.7730   27.1740 H   0  0  0  0  0  0  0  0  0  0  0  0
    2.6500    1.0520   21.6210 H   0  0  0  0  0  0  0  0  0  0  0  0
    3.9100    0.0790   22.3520 H   0  0  0  0  0  0  0  0  0  0  0  0
    4.1180    1.8620   22.2480 H   0  0  0  0  0  0  0  0  0  0  0  0
   15.0840   11.8360   25.7440 H   0  0  0  0  0  0  0  0  0  0  0  0
   14.4090   12.9390   26.9820 H   0  0  0  0  0  0  0  0  0  0  0  0
   14.0530   13.1590   25.3280 H   0  0  0  0  0  0  0  0  0  0  0  0
    8.2980   -1.1350   22.9260 H   0  0  0  0  0  0  0  0  0  0  0  0
    7.7590    0.3860   23.6110 H   0  0  0  0  0  0  0  0  0  0  0  0
    9.7650    4.3310   23.1220 H   0  0  0  0  0  0  0  0  0  0  0  0
   10.1140    4.5770   24.8180 H   0  0  0  0  0  0  0  0  0  0  0  0
    6.1240   -0.5750   21.9400 H   0  0  0  0  0  0  0  0  0  0  0  0
  7 38  1  0  0  0  0
  7 26  2  0  0  0  0
  8 26  1  0  0  0  0
  3  7  1  0  0  0  0
  8 39  1  0  0  0  0
  8 11  2  0  0  0  0
  3 34  1  0  0  0  0
  3  9  2  0  0  0  0
  9 11  1  0  0  0  0
 11 27  1  0  0  0  0
  9 22  1  0  0  0  0
 18 28  2  0  0  0  0
 18 27  1  0  0  0  0
 27 56  1  0  0  0  0
 16 40  1  0  0  0  0
 18 24  1  0  0  0  0
 22 46  1  0  0  0  0
 13 31  1  0  0  0  0
 22 48  1  0  0  0  0
 22 47  1  0  0  0  0
 16 41  1  0  0  0  0
  5 36  1  0  0  0  0
 16 17  2  0  0  0  0
  5 13  2  0  0  0  0
  6 13  1  0  0  0  0
  5 10  1  0  0  0  0
  6 37  1  0  0  0  0
 10 24  1  0  0  0  0
 24 52  1  0  0  0  0
 24 53  1  0  0  0  0
  6 12  2  0  0  0  0
  4 10  2  0  0  0  0
 25 54  1  0  0  0  0
  4 12  1  0  0  0  0
 12 30  1  0  0  0  0
  4 35  1  0  0  0  0
 17 25  1  0  0  0  0
 14 17  1  0  0  0  0
 25 30  1  0  0  0  0
 25 55  1  0  0  0  0
 14 29  1  0  0  0  0
 15 29  1  0  0  0  0
 20 44  1  0  0  0  0
  1 14  2  0  0  0  0
 15 20  1  0  0  0  0
  2 15  2  0  0  0  0
 19 20  1  0  0  0  0
 20 21  1  0  0  0  0
 19 42  1  0  0  0  0
 23 51  1  0  0  0  0
 23 49  1  0  0  0  0
  1  2  1  0  0  0  0
  1 32  1  0  0  0  0
 19 21  1  0  0  0  0
 19 43  1  0  0  0  0
 21 23  1  0  0  0  0
 23 50  1  0  0  0  0
  2 33  1  0  0  0  0
 21 45  1  0  0  0  0
M  END
> <CID>
EN300-1938856

> <SMILES>
Cc1ccncc1NC(=O)Cc2cc(cc(c2)Cl)OCC(=C)c3ccc(o3)[C@H]4C[C@@H]4C

> <RUN>
RUN4615

> <DDG (kcal/mol)>
-1.12

> <dDDG (kcal/mol)>
0.37

$$$$
EN300-701252
  -OEChem-08252008263D

 45 47  0     0  0  0  0  0  0999 V2000
    5.3950    1.9770   19.5300 C   0  0  0  0  0  0  0  0  0  0  0  0
    9.0880   -1.4810   24.0690 C   0  0  0  0  0  0  0  0  0  0  0  0
   10.6160   -1.0800   22.3150 C   0  0  0  0  0  0  0  0  0  0  0  0
   10.8820    0.1500   24.3460 C   0  0  0  0  0  0  0  0  0  0  0  0
    5.3560    1.4810   18.2140 C   0  0  0  0  0  0  0  0  0  0  0  0
    6.6620   -0.3140   18.7310 C   0  0  0  0  0  0  0  0  0  0  0  0
    9.2180    2.2930   25.8810 C   0  0  0  0  0  0  0  0  0  0  0  0
    6.1810    1.3220   20.5290 C   0  0  0  0  0  0  0  0  0  0  0  0
    9.5120   -1.7790   22.7580 C   0  0  0  0  0  0  0  0  0  0  0  0
    6.7860    0.0620   20.0830 C   0  0  0  0  0  0  0  0  0  0  0  0
    9.6850   -0.4510   24.8440 C   0  0  0  0  0  0  0  0  0  0  0  0
    9.2720    1.1070   26.4930 C   0  0  0  0  0  0  0  0  0  0  0  0
   11.4010   -0.1720   23.1270 C   0  0  0  0  0  0  0  0  0  0  0  0
    9.3290    1.4920   27.8830 C   0  0  0  0  0  0  0  0  0  0  0  0
    7.7070   -2.0800   21.0060 C   0  0  0  0  0  0  0  0  0  0  0  0
    6.2930    1.9090   21.9120 C   0  0  0  0  0  0  0  0  0  0  0  0
    9.3090    4.7690   26.5700 C   0  0  0  0  0  0  0  0  0  0  0  0
    8.7230   -2.7420   21.9030 C   0  0  0  0  0  0  0  0  0  0  0  0
    9.3860    0.4810   28.9980 C   0  0  0  0  0  0  0  0  0  0  0  0
    5.8980    0.3120   17.8300 N   0  0  0  0  0  0  0  0  0  0  0  0
    9.3900    2.7490   28.0900 N   0  0  0  0  0  0  0  0  0  0  0  0
    9.3700    3.3020   26.8260 N   0  0  0  0  0  0  0  0  0  0  0  0
    7.4870   -0.6770   21.0180 N   0  0  0  0  0  0  0  0  0  0  0  0
    7.0280   -2.6950   20.1480 O   0  0  0  0  0  0  0  0  0  0  0  0
    9.0820   -0.1380   25.9850 O   0  0  0  0  0  0  0  0  0  0  0  0
   12.8190    0.6370   22.5950 Cl  0  0  0  0  0  0  0  0  0  0  0  0
   11.0820   -0.5400   28.8380 Br  0  0  0  0  0  0  0  0  0  0  0  0
    4.9860    2.9410   19.7940 H   0  0  0  0  0  0  0  0  0  0  0  0
    8.2780   -2.0360   24.5220 H   0  0  0  0  0  0  0  0  0  0  0  0
   10.9980   -1.2490   21.3170 H   0  0  0  0  0  0  0  0  0  0  0  0
   11.3850    0.9100   24.9440 H   0  0  0  0  0  0  0  0  0  0  0  0
    4.6220    2.0360   17.6570 H   0  0  0  0  0  0  0  0  0  0  0  0
    7.1310   -1.2520   18.4670 H   0  0  0  0  0  0  0  0  0  0  0  0
    8.8440    2.4120   24.8740 H   0  0  0  0  0  0  0  0  0  0  0  0
    7.1080    1.3780   22.4130 H   0  0  0  0  0  0  0  0  0  0  0  0
    6.7480    2.9070   21.8800 H   0  0  0  0  0  0  0  0  0  0  0  0
    5.3400    1.9640   22.4580 H   0  0  0  0  0  0  0  0  0  0  0  0
    9.8240    5.0610   25.6460 H   0  0  0  0  0  0  0  0  0  0  0  0
    8.3020    5.1980   26.4930 H   0  0  0  0  0  0  0  0  0  0  0  0
    9.7630    5.1540   27.4870 H   0  0  0  0  0  0  0  0  0  0  0  0
    9.4360   -3.3580   21.3370 H   0  0  0  0  0  0  0  0  0  0  0  0
    8.1860   -3.3350   22.6430 H   0  0  0  0  0  0  0  0  0  0  0  0
    8.5470   -0.2210   28.9150 H   0  0  0  0  0  0  0  0  0  0  0  0
    9.3460    0.9950   29.9690 H   0  0  0  0  0  0  0  0  0  0  0  0
    8.0390   -0.0960   21.6490 H   0  0  0  0  0  0  0  0  0  0  0  0
  5 32  1  0  0  0  0
  5 20  2  0  0  0  0
  6 20  1  0  0  0  0
  1  5  1  0  0  0  0
  6 33  1  0  0  0  0
  6 10  2  0  0  0  0
  1 28  1  0  0  0  0
  1  8  2  0  0  0  0
  8 10  1  0  0  0  0
 10 23  1  0  0  0  0
 15 24  2  0  0  0  0
  8 16  1  0  0  0  0
 15 23  1  0  0  0  0
 15 18  1  0  0  0  0
 23 45  1  0  0  0  0
  3 30  1  0  0  0  0
 18 41  1  0  0  0  0
 16 36  1  0  0  0  0
 18 42  1  0  0  0  0
  9 18  1  0  0  0  0
 16 35  1  0  0  0  0
 16 37  1  0  0  0  0
  3  9  2  0  0  0  0
  3 13  1  0  0  0  0
 13 26  1  0  0  0  0
  2  9  1  0  0  0  0
  4 13  2  0  0  0  0
  2 29  1  0  0  0  0
  2 11  2  0  0  0  0
  4 11  1  0  0  0  0
  4 31  1  0  0  0  0
 11 25  1  0  0  0  0
  7 34  1  0  0  0  0
 17 38  1  0  0  0  0
  7 12  2  0  0  0  0
  7 22  1  0  0  0  0
 12 25  1  0  0  0  0
 12 14  1  0  0  0  0
 17 39  1  0  0  0  0
 17 22  1  0  0  0  0
 17 40  1  0  0  0  0
 21 22  1  0  0  0  0
 14 21  2  0  0  0  0
 14 19  1  0  0  0  0
 19 27  1  0  0  0  0
 19 43  1  0  0  0  0
 19 44  1  0  0  0  0
M  END
> <CID>
EN300-701252

> <SMILES>
Cc1ccncc1NC(=O)Cc2cc(cc(c2)Cl)Oc3cn(nc3CBr)C

> <RUN>
RUN1206

> <DDG (kcal/mol)>
-1.11

> <dDDG (kcal/mol)>
0.11

$$$$
EN300-24531
  -OEChem-08252008263D

 51 54  0     0  0  0  0  0  0999 V2000
   12.6630    7.9860   28.7940 C   0  0  0  0  0  0  0  0  0  0  0  0
   10.6740    6.8100   29.3630 C   0  0  0  0  0  0  0  0  0  0  0  0
   12.3520    8.9050   29.7850 C   0  0  0  0  0  0  0  0  0  0  0  0
   10.3880    7.7390   30.3220 C   0  0  0  0  0  0  0  0  0  0  0  0
    5.2920    1.4380   19.0020 C   0  0  0  0  0  0  0  0  0  0  0  0
   11.1810    0.8070   23.7340 C   0  0  0  0  0  0  0  0  0  0  0  0
   12.1570   -1.1570   22.7900 C   0  0  0  0  0  0  0  0  0  0  0  0
   13.5640    0.5440   23.7590 C   0  0  0  0  0  0  0  0  0  0  0  0
   11.3110    4.9420   26.9560 C   0  0  0  0  0  0  0  0  0  0  0  0
    5.7530    0.9800   17.8180 C   0  0  0  0  0  0  0  0  0  0  0  0
    7.3930   -0.1690   18.8940 C   0  0  0  0  0  0  0  0  0  0  0  0
   11.8300    6.9220   28.5160 C   0  0  0  0  0  0  0  0  0  0  0  0
    5.8490    1.0800   20.2410 C   0  0  0  0  0  0  0  0  0  0  0  0
   10.9860   -0.3710   23.0410 C   0  0  0  0  0  0  0  0  0  0  0  0
    6.9630    0.2640   20.1760 C   0  0  0  0  0  0  0  0  0  0  0  0
   12.4420    1.2900   24.1260 C   0  0  0  0  0  0  0  0  0  0  0  0
   11.2990    8.7550   30.6620 C   0  0  0  0  0  0  0  0  0  0  0  0
   13.4530   -0.7230   23.1380 C   0  0  0  0  0  0  0  0  0  0  0  0
   12.1300    6.0350   27.4250 C   0  0  0  0  0  0  0  0  0  0  0  0
   11.9740    4.3610   25.9320 C   0  0  0  0  0  0  0  0  0  0  0  0
    8.8520    0.0630   21.8070 C   0  0  0  0  0  0  0  0  0  0  0  0
    5.3100    1.6720   21.5840 C   0  0  0  0  0  0  0  0  0  0  0  0
    9.6430   -0.8850   22.6770 C   0  0  0  0  0  0  0  0  0  0  0  0
   11.5100    3.2770   25.1660 C   0  0  0  0  0  0  0  0  0  0  0  0
    6.8300    0.1710   17.7460 N   0  0  0  0  0  0  0  0  0  0  0  0
   13.1750    6.1450   26.6500 N   0  0  0  0  0  0  0  0  0  0  0  0
    7.5690   -0.2340   21.3690 N   0  0  0  0  0  0  0  0  0  0  0  0
    9.4010    1.0900   21.4390 O   0  0  0  0  0  0  0  0  0  0  0  0
   13.1240    5.0650   25.7130 O   0  0  0  0  0  0  0  0  0  0  0  0
   12.6630    2.4120   24.8650 O   0  0  0  0  0  0  0  0  0  0  0  0
   11.1770    9.8090   31.9270 Cl  0  0  0  0  0  0  0  0  0  0  0  0
   14.8350   -1.6470   22.9650 Cl  0  0  0  0  0  0  0  0  0  0  0  0
   13.5520    8.0080   28.1740 H   0  0  0  0  0  0  0  0  0  0  0  0
   10.0790    5.9290   29.1640 H   0  0  0  0  0  0  0  0  0  0  0  0
   13.0610    9.6620   30.1230 H   0  0  0  0  0  0  0  0  0  0  0  0
    9.4250    7.6520   30.8180 H   0  0  0  0  0  0  0  0  0  0  0  0
    4.4020    2.0610   19.0540 H   0  0  0  0  0  0  0  0  0  0  0  0
   10.2530    1.3360   23.9090 H   0  0  0  0  0  0  0  0  0  0  0  0
   12.0140   -2.0970   22.2550 H   0  0  0  0  0  0  0  0  0  0  0  0
   14.5970    0.7970   23.9900 H   0  0  0  0  0  0  0  0  0  0  0  0
   10.3350    4.5910   27.2600 H   0  0  0  0  0  0  0  0  0  0  0  0
    5.3150    1.1780   16.8470 H   0  0  0  0  0  0  0  0  0  0  0  0
    8.2750   -0.7920   18.7530 H   0  0  0  0  0  0  0  0  0  0  0  0
    4.6040    2.4920   21.4280 H   0  0  0  0  0  0  0  0  0  0  0  0
    4.8140    0.9720   22.2510 H   0  0  0  0  0  0  0  0  0  0  0  0
    6.0860    2.2210   22.1250 H   0  0  0  0  0  0  0  0  0  0  0  0
    9.6930   -1.9340   22.3630 H   0  0  0  0  0  0  0  0  0  0  0  0
    9.1010   -1.0900   23.6030 H   0  0  0  0  0  0  0  0  0  0  0  0
   10.7510    2.7700   25.7590 H   0  0  0  0  0  0  0  0  0  0  0  0
   11.1420    3.6930   24.2200 H   0  0  0  0  0  0  0  0  0  0  0  0
    7.1390   -1.0570   21.7770 H   0  0  0  0  0  0  0  0  0  0  0  0
 10 42  1  0  0  0  0
 10 25  2  0  0  0  0
 11 25  1  0  0  0  0
  5 10  1  0  0  0  0
 11 43  1  0  0  0  0
 11 15  2  0  0  0  0
  5 37  1  0  0  0  0
  5 13  2  0  0  0  0
 13 15  1  0  0  0  0
 15 27  1  0  0  0  0
 13 22  1  0  0  0  0
 27 51  1  0  0  0  0
 21 27  1  0  0  0  0
 22 44  1  0  0  0  0
 21 28  2  0  0  0  0
 22 46  1  0  0  0  0
 22 45  1  0  0  0  0
 21 23  1  0  0  0  0
  7 39  1  0  0  0  0
 23 47  1  0  0  0  0
 14 23  1  0  0  0  0
 23 48  1  0  0  0  0
  7 14  2  0  0  0  0
  7 18  1  0  0  0  0
 18 32  1  0  0  0  0
  6 14  1  0  0  0  0
  8 18  2  0  0  0  0
  6 38  1  0  0  0  0
  6 16  2  0  0  0  0
  8 40  1  0  0  0  0
  8 16  1  0  0  0  0
 16 30  1  0  0  0  0
 24 50  1  0  0  0  0
 24 30  1  0  0  0  0
 24 49  1  0  0  0  0
 20 24  1  0  0  0  0
 20 29  1  0  0  0  0
 26 29  1  0  0  0  0
  9 20  2  0  0  0  0
 19 26  2  0  0  0  0
  9 41  1  0  0  0  0
  9 19  1  0  0  0  0
 12 19  1  0  0  0  0
  1 33  1  0  0  0  0
  1 12  2  0  0  0  0
  2 12  1  0  0  0  0
  1  3  1  0  0  0  0
  2 34  1  0  0  0  0
  2  4  2  0  0  0  0
  3 35  1  0  0  0  0
  3 17  2  0  0  0  0
  4 17  1  0  0  0  0
  4 36  1  0  0  0  0
 17 31  1  0  0  0  0
M  END
> <CID>
EN300-24531

> <SMILES>
Cc1ccncc1NC(=O)Cc2cc(cc(c2)Cl)OCc3cc(no3)c4ccc(cc4)Cl

> <RUN>
RUN3389

> <DDG (kcal/mol)>
-1.09

> <dDDG (kcal/mol)>
0.14

$$$$
EN300-1897350
  -OEChem-08252008263D

 55 58  0     0  0  0  0  0  0999 V2000
   16.1070    8.8030   19.9150 C   0  0  0  0  0  0  0  0  0  0  0  0
   16.3560    7.4540   19.7810 C   0  0  0  0  0  0  0  0  0  0  0  0
   15.2700    9.2960   20.8770 C   0  0  0  0  0  0  0  0  0  0  0  0
   15.8240    6.5240   20.7450 C   0  0  0  0  0  0  0  0  0  0  0  0
   13.9070    8.8690   22.9270 C   0  0  0  0  0  0  0  0  0  0  0  0
   13.4910    8.0340   23.9650 C   0  0  0  0  0  0  0  0  0  0  0  0
    6.3200    6.6790   24.1240 C   0  0  0  0  0  0  0  0  0  0  0  0
   11.9650    2.9600   22.3790 C   0  0  0  0  0  0  0  0  0  0  0  0
   12.0580    0.5700   23.0350 C   0  0  0  0  0  0  0  0  0  0  0  0
   14.0440    1.7710   22.4950 C   0  0  0  0  0  0  0  0  0  0  0  0
    6.7920    7.0750   25.3440 C   0  0  0  0  0  0  0  0  0  0  0  0
    8.3630    5.3750   25.5270 C   0  0  0  0  0  0  0  0  0  0  0  0
   14.7040    8.4300   21.8150 C   0  0  0  0  0  0  0  0  0  0  0  0
   15.0480    7.0460   21.8500 C   0  0  0  0  0  0  0  0  0  0  0  0
    7.0330    5.6280   23.4490 C   0  0  0  0  0  0  0  0  0  0  0  0
   11.3240    1.7690   22.8610 C   0  0  0  0  0  0  0  0  0  0  0  0
   14.5200    6.2000   22.8960 C   0  0  0  0  0  0  0  0  0  0  0  0
    8.0810    4.8870   24.1830 C   0  0  0  0  0  0  0  0  0  0  0  0
   13.6610    6.6550   23.8900 C   0  0  0  0  0  0  0  0  0  0  0  0
   13.3410    2.9660   22.2140 C   0  0  0  0  0  0  0  0  0  0  0  0
   13.3950    0.5970   22.9010 C   0  0  0  0  0  0  0  0  0  0  0  0
    9.3290    2.7380   24.0600 C   0  0  0  0  0  0  0  0  0  0  0  0
    6.5650    5.2890   22.0050 C   0  0  0  0  0  0  0  0  0  0  0  0
   12.5000    6.3100   26.0030 C   0  0  0  0  0  0  0  0  0  0  0  0
    9.8290    1.7100   23.0900 C   0  0  0  0  0  0  0  0  0  0  0  0
   14.8420    4.7200   22.8470 C   0  0  0  0  0  0  0  0  0  0  0  0
    7.7450    6.4620   26.0520 N   0  0  0  0  0  0  0  0  0  0  0  0
    8.7510    3.9050   23.5210 N   0  0  0  0  0  0  0  0  0  0  0  0
    9.3120    2.5390   25.2490 O   0  0  0  0  0  0  0  0  0  0  0  0
   13.1830    5.7540   24.8720 O   0  0  0  0  0  0  0  0  0  0  0  0
   13.9820    4.1630   21.8350 O   0  0  0  0  0  0  0  0  0  0  0  0
   14.3990   -0.8140   23.1610 Cl  0  0  0  0  0  0  0  0  0  0  0  0
   16.4570    9.4330   19.0980 H   0  0  0  0  0  0  0  0  0  0  0  0
   16.8260    7.1220   18.8530 H   0  0  0  0  0  0  0  0  0  0  0  0
   14.9140   10.3220   20.8370 H   0  0  0  0  0  0  0  0  0  0  0  0
   15.9000    5.4850   20.4390 H   0  0  0  0  0  0  0  0  0  0  0  0
   13.5560    9.8980   22.9080 H   0  0  0  0  0  0  0  0  0  0  0  0
   12.9170    8.5060   24.7480 H   0  0  0  0  0  0  0  0  0  0  0  0
    5.5140    7.3100   23.7540 H   0  0  0  0  0  0  0  0  0  0  0  0
   11.4070    3.8920   22.3300 H   0  0  0  0  0  0  0  0  0  0  0  0
   11.6360   -0.3320   23.4620 H   0  0  0  0  0  0  0  0  0  0  0  0
   15.1130    1.9580   22.5200 H   0  0  0  0  0  0  0  0  0  0  0  0
    6.3940    7.9560   25.8310 H   0  0  0  0  0  0  0  0  0  0  0  0
    9.1410    4.8590   26.0610 H   0  0  0  0  0  0  0  0  0  0  0  0
    6.1660    6.2060   21.5680 H   0  0  0  0  0  0  0  0  0  0  0  0
    7.3490    4.8910   21.3580 H   0  0  0  0  0  0  0  0  0  0  0  0
    5.7760    4.5470   22.1460 H   0  0  0  0  0  0  0  0  0  0  0  0
   11.5250    6.5810   25.5950 H   0  0  0  0  0  0  0  0  0  0  0  0
   13.1920    6.9940   26.5190 H   0  0  0  0  0  0  0  0  0  0  0  0
   12.2800    5.4930   26.7070 H   0  0  0  0  0  0  0  0  0  0  0  0
    9.3580    1.8720   22.1130 H   0  0  0  0  0  0  0  0  0  0  0  0
    9.5260    0.6920   23.3510 H   0  0  0  0  0  0  0  0  0  0  0  0
   14.6350    4.2610   23.8150 H   0  0  0  0  0  0  0  0  0  0  0  0
   15.9150    4.5310   22.6870 H   0  0  0  0  0  0  0  0  0  0  0  0
    8.6510    3.8770   22.5140 H   0  0  0  0  0  0  0  0  0  0  0  0
  2 34  1  0  0  0  0
  1 33  1  0  0  0  0
  1  2  2  0  0  0  0
  2  4  1  0  0  0  0
  1  3  1  0  0  0  0
  4 36  1  0  0  0  0
  4 14  2  0  0  0  0
  3 35  1  0  0  0  0
  3 13  2  0  0  0  0
 23 46  1  0  0  0  0
 23 45  1  0  0  0  0
 13 14  1  0  0  0  0
  5 13  1  0  0  0  0
 20 31  1  0  0  0  0
 26 31  1  0  0  0  0
 14 17  1  0  0  0  0
 23 47  1  0  0  0  0
 15 23  1  0  0  0  0
 25 51  1  0  0  0  0
  8 20  2  0  0  0  0
 10 20  1  0  0  0  0
  8 40  1  0  0  0  0
  8 16  1  0  0  0  0
 10 42  1  0  0  0  0
 10 21  2  0  0  0  0
 28 55  1  0  0  0  0
 26 54  1  0  0  0  0
 17 26  1  0  0  0  0
 26 53  1  0  0  0  0
  9 16  2  0  0  0  0
 16 25  1  0  0  0  0
 17 19  2  0  0  0  0
  9 21  1  0  0  0  0
 21 32  1  0  0  0  0
  5 37  1  0  0  0  0
  5  6  2  0  0  0  0
  9 41  1  0  0  0  0
 25 52  1  0  0  0  0
 22 25  1  0  0  0  0
  7 15  2  0  0  0  0
 15 18  1  0  0  0  0
 22 28  1  0  0  0  0
 18 28  1  0  0  0  0
  7 39  1  0  0  0  0
  6 19  1  0  0  0  0
 19 30  1  0  0  0  0
  6 38  1  0  0  0  0
 22 29  2  0  0  0  0
  7 11  1  0  0  0  0
 12 18  2  0  0  0  0
 24 30  1  0  0  0  0
 11 43  1  0  0  0  0
 11 27  2  0  0  0  0
 12 27  1  0  0  0  0
 12 44  1  0  0  0  0
 24 48  1  0  0  0  0
 24 49  1  0  0  0  0
 24 50  1  0  0  0  0
M  END
> <CID>
EN300-1897350

> <SMILES>
Cc1ccncc1NC(=O)Cc2cc(cc(c2)Cl)OCc3c4ccccc4ccc3OC

> <RUN>
RUN3624

> <DDG (kcal/mol)>
-1.05

> <dDDG (kcal/mol)>
0.16

$$$$
EN300-378667
  -OEChem-08252008263D

 59 62  0     0  0  0  0  0  0999 V2000
   11.7170    6.2050   29.7430 C   0  0  0  0  0  0  0  0  0  0  0  0
   12.5120    6.2170   30.8590 C   0  0  0  0  0  0  0  0  0  0  0  0
   10.5170    5.5330   29.6290 C   0  0  0  0  0  0  0  0  0  0  0  0
   10.1920    0.2530   28.3070 C   0  0  0  0  0  0  0  0  0  0  0  0
    8.2140    1.4230   27.4130 C   0  0  0  0  0  0  0  0  0  0  0  0
   10.1580    1.0130   29.4850 C   0  0  0  0  0  0  0  0  0  0  0  0
    8.2440    2.1820   28.5900 C   0  0  0  0  0  0  0  0  0  0  0  0
   12.0760    5.4830   31.9520 C   0  0  0  0  0  0  0  0  0  0  0  0
    6.4880    2.0780   19.2850 C   0  0  0  0  0  0  0  0  0  0  0  0
   10.0290   -1.2770   23.3020 C   0  0  0  0  0  0  0  0  0  0  0  0
   11.6830   -1.5530   21.6220 C   0  0  0  0  0  0  0  0  0  0  0  0
   12.0570   -0.0920   23.5240 C   0  0  0  0  0  0  0  0  0  0  0  0
    6.1590    1.6290   18.0300 C   0  0  0  0  0  0  0  0  0  0  0  0
    7.6070   -0.1300   18.2260 C   0  0  0  0  0  0  0  0  0  0  0  0
    9.3100    0.4910   27.2170 C   0  0  0  0  0  0  0  0  0  0  0  0
   10.0470    4.8100   30.8200 C   0  0  0  0  0  0  0  0  0  0  0  0
    7.4240    1.3840   20.0910 C   0  0  0  0  0  0  0  0  0  0  0  0
   10.4380   -1.9290   22.1270 C   0  0  0  0  0  0  0  0  0  0  0  0
    7.9810    0.1950   19.5650 C   0  0  0  0  0  0  0  0  0  0  0  0
    9.1430    1.9420   29.6150 C   0  0  0  0  0  0  0  0  0  0  0  0
   10.8010   -0.3630   23.9720 C   0  0  0  0  0  0  0  0  0  0  0  0
   10.8890    4.6990   31.9370 C   0  0  0  0  0  0  0  0  0  0  0  0
   12.5320   -0.7070   22.3090 C   0  0  0  0  0  0  0  0  0  0  0  0
    8.5920   -2.0940   20.4000 C   0  0  0  0  0  0  0  0  0  0  0  0
    7.7400    1.8750   21.5680 C   0  0  0  0  0  0  0  0  0  0  0  0
    9.4740   -2.8400   21.3690 C   0  0  0  0  0  0  0  0  0  0  0  0
    9.3440   -0.3160   25.9840 C   0  0  0  0  0  0  0  0  0  0  0  0
    8.8030    4.0020   30.8500 C   0  0  0  0  0  0  0  0  0  0  0  0
    6.6980    0.5210   17.4330 N   0  0  0  0  0  0  0  0  0  0  0  0
    8.7130   -0.7200   20.2810 N   0  0  0  0  0  0  0  0  0  0  0  0
    7.8080   -2.7060   19.7340 O   0  0  0  0  0  0  0  0  0  0  0  0
    9.0450    2.5670   30.8080 O   0  0  0  0  0  0  0  0  0  0  0  0
   10.4500    0.2280   25.1880 O   0  0  0  0  0  0  0  0  0  0  0  0
   10.5410    4.0780   33.0460 F   0  0  0  0  0  0  0  0  0  0  0  0
   14.1090   -0.2910   21.5900 Cl  0  0  0  0  0  0  0  0  0  0  0  0
   12.1020    6.8400   28.9450 H   0  0  0  0  0  0  0  0  0  0  0  0
   13.4230    6.8100   30.7830 H   0  0  0  0  0  0  0  0  0  0  0  0
    9.9040    5.5500   28.7320 H   0  0  0  0  0  0  0  0  0  0  0  0
   11.0180   -0.4500   28.3710 H   0  0  0  0  0  0  0  0  0  0  0  0
    7.4310    1.6040   26.6750 H   0  0  0  0  0  0  0  0  0  0  0  0
   10.8560    0.9420   30.3140 H   0  0  0  0  0  0  0  0  0  0  0  0
    7.4780    2.9520   28.6780 H   0  0  0  0  0  0  0  0  0  0  0  0
   12.7050    5.5120   32.8390 H   0  0  0  0  0  0  0  0  0  0  0  0
    5.9200    2.9210   19.6640 H   0  0  0  0  0  0  0  0  0  0  0  0
    9.0070   -1.4360   23.6160 H   0  0  0  0  0  0  0  0  0  0  0  0
   11.9310   -1.8980   20.6320 H   0  0  0  0  0  0  0  0  0  0  0  0
   12.6930    0.5980   24.0710 H   0  0  0  0  0  0  0  0  0  0  0  0
    5.4830    2.2390   17.4480 H   0  0  0  0  0  0  0  0  0  0  0  0
    8.0320   -0.9710   17.6980 H   0  0  0  0  0  0  0  0  0  0  0  0
    6.9120    1.5800   22.2180 H   0  0  0  0  0  0  0  0  0  0  0  0
    8.6860    1.4460   21.8830 H   0  0  0  0  0  0  0  0  0  0  0  0
    7.9110    2.9540   21.6120 H   0  0  0  0  0  0  0  0  0  0  0  0
   10.1210   -3.5200   20.8030 H   0  0  0  0  0  0  0  0  0  0  0  0
    8.9540   -3.4710   22.1000 H   0  0  0  0  0  0  0  0  0  0  0  0
    9.5450   -1.3690   26.1840 H   0  0  0  0  0  0  0  0  0  0  0  0
    8.3680   -0.3080   25.4770 H   0  0  0  0  0  0  0  0  0  0  0  0
    8.2720    4.1080   31.8000 H   0  0  0  0  0  0  0  0  0  0  0  0
    8.2030    4.3440   29.9990 H   0  0  0  0  0  0  0  0  0  0  0  0
    9.2850   -0.2640   20.9940 H   0  0  0  0  0  0  0  0  0  0  0  0
 13 29  2  0  0  0  0
 14 29  1  0  0  0  0
 13 48  1  0  0  0  0
 14 49  1  0  0  0  0
  9 13  1  0  0  0  0
 14 19  2  0  0  0  0
  9 44  1  0  0  0  0
  9 17  2  0  0  0  0
 17 19  1  0  0  0  0
 19 30  1  0  0  0  0
 24 31  2  0  0  0  0
 17 25  1  0  0  0  0
 24 30  1  0  0  0  0
 30 59  1  0  0  0  0
 24 26  1  0  0  0  0
 11 46  1  0  0  0  0
 26 53  1  0  0  0  0
 26 54  1  0  0  0  0
 18 26  1  0  0  0  0
 25 52  1  0  0  0  0
 25 51  1  0  0  0  0
 25 50  1  0  0  0  0
 23 35  1  0  0  0  0
 11 18  2  0  0  0  0
 11 23  1  0  0  0  0
 10 18  1  0  0  0  0
 12 23  2  0  0  0  0
 10 45  1  0  0  0  0
 10 21  2  0  0  0  0
 12 21  1  0  0  0  0
 12 47  1  0  0  0  0
 21 33  1  0  0  0  0
 27 33  1  0  0  0  0
 27 56  1  0  0  0  0
 27 55  1  0  0  0  0
 15 27  1  0  0  0  0
  5 40  1  0  0  0  0
  5 15  2  0  0  0  0
  4 15  1  0  0  0  0
  5  7  1  0  0  0  0
  4 39  1  0  0  0  0
  4  6  2  0  0  0  0
  7 42  1  0  0  0  0
  7 20  2  0  0  0  0
  3 38  1  0  0  0  0
  1 36  1  0  0  0  0
  6 20  1  0  0  0  0
  6 41  1  0  0  0  0
 20 32  1  0  0  0  0
  1  3  2  0  0  0  0
  3 16  1  0  0  0  0
  1  2  1  0  0  0  0
 28 58  1  0  0  0  0
  2 37  1  0  0  0  0
 28 32  1  0  0  0  0
 16 28  1  0  0  0  0
 16 22  2  0  0  0  0
 28 57  1  0  0  0  0
  2  8  2  0  0  0  0
  8 22  1  0  0  0  0
 22 34  1  0  0  0  0
  8 43  1  0  0  0  0
M  END
> <CID>
EN300-378667

> <SMILES>
Cc1ccncc1NC(=O)Cc2cc(cc(c2)Cl)OCc3ccc(cc3)OCc4ccccc4F

> <RUN>
RUN2751

> <DDG (kcal/mol)>
-1.05

> <dDDG (kcal/mol)>
0.15

$$$$
EN300-24227
  -OEChem-08252008263D

 55 58  0     0  0  0  0  0  0999 V2000
   11.6660    7.3120   29.5650 C   0  0  0  0  0  0  0  0  0  0  0  0
   11.4480    5.2620   30.8870 C   0  0  0  0  0  0  0  0  0  0  0  0
   11.7070    8.0280   30.8390 C   0  0  0  0  0  0  0  0  0  0  0  0
   11.5840    5.9680   32.1330 C   0  0  0  0  0  0  0  0  0  0  0  0
    4.4600   -0.2170   19.9840 C   0  0  0  0  0  0  0  0  0  0  0  0
   10.9050   -0.0600   24.4640 C   0  0  0  0  0  0  0  0  0  0  0  0
   12.3710   -1.2380   22.9070 C   0  0  0  0  0  0  0  0  0  0  0  0
   13.3430   -0.0670   24.7420 C   0  0  0  0  0  0  0  0  0  0  0  0
   10.9450    3.7780   28.2730 C   0  0  0  0  0  0  0  0  0  0  0  0
    4.9460   -0.1480   18.6980 C   0  0  0  0  0  0  0  0  0  0  0  0
    7.1660   -0.5140   19.4660 C   0  0  0  0  0  0  0  0  0  0  0  0
   11.4780    5.9220   29.6020 C   0  0  0  0  0  0  0  0  0  0  0  0
    5.2600   -0.4230   21.0550 C   0  0  0  0  0  0  0  0  0  0  0  0
   11.0630   -0.8830   23.2640 C   0  0  0  0  0  0  0  0  0  0  0  0
    6.6630   -0.5770   20.8070 C   0  0  0  0  0  0  0  0  0  0  0  0
   11.6740    7.3900   32.0670 C   0  0  0  0  0  0  0  0  0  0  0  0
   12.0760    0.4010   25.1330 C   0  0  0  0  0  0  0  0  0  0  0  0
   13.4640   -0.8780   23.6660 C   0  0  0  0  0  0  0  0  0  0  0  0
   11.5000    5.1120   28.3700 C   0  0  0  0  0  0  0  0  0  0  0  0
   11.2370    3.4050   27.0420 C   0  0  0  0  0  0  0  0  0  0  0  0
    8.8460   -0.3720   21.9390 C   0  0  0  0  0  0  0  0  0  0  0  0
    4.6870   -0.3470   22.4370 C   0  0  0  0  0  0  0  0  0  0  0  0
   11.6850    7.5300   34.5030 C   0  0  0  0  0  0  0  0  0  0  0  0
    9.8120   -1.3910   22.5690 C   0  0  0  0  0  0  0  0  0  0  0  0
   10.9070    2.0810   26.4360 C   0  0  0  0  0  0  0  0  0  0  0  0
    6.2950   -0.3580   18.4260 N   0  0  0  0  0  0  0  0  0  0  0  0
   12.1470    5.4650   27.3440 N   0  0  0  0  0  0  0  0  0  0  0  0
    7.5300   -0.7310   21.9020 N   0  0  0  0  0  0  0  0  0  0  0  0
    9.3320    0.6030   21.2610 O   0  0  0  0  0  0  0  0  0  0  0  0
   12.1000    4.3000   26.4570 O   0  0  0  0  0  0  0  0  0  0  0  0
   11.7890    8.1660   33.2170 O   0  0  0  0  0  0  0  0  0  0  0  0
   12.0810    1.3490   26.2080 O   0  0  0  0  0  0  0  0  0  0  0  0
   15.0720   -1.2890   23.1560 Cl  0  0  0  0  0  0  0  0  0  0  0  0
   11.7650    7.8350   28.6220 H   0  0  0  0  0  0  0  0  0  0  0  0
   11.3340    4.1840   30.8930 H   0  0  0  0  0  0  0  0  0  0  0  0
   11.8730    9.1000   30.8940 H   0  0  0  0  0  0  0  0  0  0  0  0
   11.6640    5.4180   33.0690 H   0  0  0  0  0  0  0  0  0  0  0  0
    3.4560    0.1540   20.1490 H   0  0  0  0  0  0  0  0  0  0  0  0
    9.9130    0.2440   24.7740 H   0  0  0  0  0  0  0  0  0  0  0  0
   12.5800   -1.9400   22.1050 H   0  0  0  0  0  0  0  0  0  0  0  0
   14.2070    0.4090   25.2030 H   0  0  0  0  0  0  0  0  0  0  0  0
   10.3570    3.2880   29.0440 H   0  0  0  0  0  0  0  0  0  0  0  0
    4.2620    0.1160   17.8900 H   0  0  0  0  0  0  0  0  0  0  0  0
    8.2140   -0.6360   19.2120 H   0  0  0  0  0  0  0  0  0  0  0  0
    5.3120    0.3020   23.0460 H   0  0  0  0  0  0  0  0  0  0  0  0
    3.7210    0.1790   22.4800 H   0  0  0  0  0  0  0  0  0  0  0  0
    4.5270   -1.3040   22.9470 H   0  0  0  0  0  0  0  0  0  0  0  0
   11.4610    8.2370   35.3190 H   0  0  0  0  0  0  0  0  0  0  0  0
   12.6030    6.9680   34.7130 H   0  0  0  0  0  0  0  0  0  0  0  0
   10.7980    6.8840   34.4630 H   0  0  0  0  0  0  0  0  0  0  0  0
   10.1620   -2.0340   21.7460 H   0  0  0  0  0  0  0  0  0  0  0  0
    9.2550   -1.9750   23.3030 H   0  0  0  0  0  0  0  0  0  0  0  0
   10.3490    1.4970   27.1840 H   0  0  0  0  0  0  0  0  0  0  0  0
   10.3630    2.2140   25.4920 H   0  0  0  0  0  0  0  0  0  0  0  0
    7.3190   -1.4910   22.5460 H   0  0  0  0  0  0  0  0  0  0  0  0
 10 43  1  0  0  0  0
 10 26  2  0  0  0  0
 11 26  1  0  0  0  0
  5 10  1  0  0  0  0
 11 44  1  0  0  0  0
 11 15  2  0  0  0  0
  5 38  1  0  0  0  0
  5 13  2  0  0  0  0
 13 15  1  0  0  0  0
 15 28  1  0  0  0  0
 13 22  1  0  0  0  0
 21 29  2  0  0  0  0
 24 51  1  0  0  0  0
 21 28  1  0  0  0  0
 28 55  1  0  0  0  0
 21 24  1  0  0  0  0
  7 40  1  0  0  0  0
 22 46  1  0  0  0  0
 22 47  1  0  0  0  0
 22 45  1  0  0  0  0
 14 24  1  0  0  0  0
 24 52  1  0  0  0  0
  7 14  2  0  0  0  0
  7 18  1  0  0  0  0
 18 33  1  0  0  0  0
  6 14  1  0  0  0  0
  8 18  2  0  0  0  0
  6 39  1  0  0  0  0
  6 17  2  0  0  0  0
  8 17  1  0  0  0  0
  8 41  1  0  0  0  0
 17 32  1  0  0  0  0
 25 54  1  0  0  0  0
 25 32  1  0  0  0  0
 20 25  1  0  0  0  0
 25 53  1  0  0  0  0
 20 30  1  0  0  0  0
 27 30  1  0  0  0  0
  9 20  2  0  0  0  0
 19 27  2  0  0  0  0
  9 19  1  0  0  0  0
  9 42  1  0  0  0  0
 12 19  1  0  0  0  0
  1 34  1  0  0  0  0
  1 12  2  0  0  0  0
  1  3  1  0  0  0  0
  2 12  1  0  0  0  0
  3 36  1  0  0  0  0
  3 16  2  0  0  0  0
  2 35  1  0  0  0  0
  2  4  2  0  0  0  0
  4 16  1  0  0  0  0
 16 31  1  0  0  0  0
  4 37  1  0  0  0  0
 23 31  1  0  0  0  0
 23 50  1  0  0  0  0
 23 49  1  0  0  0  0
 23 48  1  0  0  0  0
M  END
> <CID>
EN300-24227

> <SMILES>
Cc1ccncc1NC(=O)Cc2cc(cc(c2)Cl)OCc3cc(no3)c4ccc(cc4)OC

> <RUN>
RUN3755

> <DDG (kcal/mol)>
-1.04

> <dDDG (kcal/mol)>
0.15

$$$$
EN300-2009659
  -OEChem-08252008263D

 50 52  0     0  0  0  0  0  0999 V2000
   16.4050    7.1570   20.5210 C   0  0  0  0  0  0  0  0  0  0  0  0
   15.6560    5.2550   21.7190 C   0  0  0  0  0  0  0  0  0  0  0  0
   14.8560    4.5700   22.6290 C   0  0  0  0  0  0  0  0  0  0  0  0
    4.8570    0.8250   19.4120 C   0  0  0  0  0  0  0  0  0  0  0  0
   14.0470    6.7420   23.4270 C   0  0  0  0  0  0  0  0  0  0  0  0
   11.5270    1.0600   23.6190 C   0  0  0  0  0  0  0  0  0  0  0  0
   11.9680   -0.9670   22.3780 C   0  0  0  0  0  0  0  0  0  0  0  0
   13.8240    0.3980   23.1630 C   0  0  0  0  0  0  0  0  0  0  0  0
    5.3270    1.0050   18.1750 C   0  0  0  0  0  0  0  0  0  0  0  0
    7.3890    0.2680   18.8900 C   0  0  0  0  0  0  0  0  0  0  0  0
   15.6010    6.6300   21.5960 C   0  0  0  0  0  0  0  0  0  0  0  0
   13.9970    5.3290   23.4860 C   0  0  0  0  0  0  0  0  0  0  0  0
    5.5700    0.2830   20.4720 C   0  0  0  0  0  0  0  0  0  0  0  0
   11.0240   -0.0910   22.9860 C   0  0  0  0  0  0  0  0  0  0  0  0
   14.7380    7.4400   22.4350 C   0  0  0  0  0  0  0  0  0  0  0  0
    6.9190    0.0800   20.1780 C   0  0  0  0  0  0  0  0  0  0  0  0
   12.9230    1.3050   23.7920 C   0  0  0  0  0  0  0  0  0  0  0  0
   13.3380   -0.7550   22.4740 C   0  0  0  0  0  0  0  0  0  0  0  0
   13.3420    4.7600   24.6300 C   0  0  0  0  0  0  0  0  0  0  0  0
    8.9760   -0.0170   21.4580 C   0  0  0  0  0  0  0  0  0  0  0  0
    4.9930   -0.0460   21.7750 C   0  0  0  0  0  0  0  0  0  0  0  0
    9.5590   -0.3650   22.8590 C   0  0  0  0  0  0  0  0  0  0  0  0
   12.5550    3.5140   24.5130 C   0  0  0  0  0  0  0  0  0  0  0  0
   17.0920    7.6650   19.7440 N   0  0  0  0  0  0  0  0  0  0  0  0
    6.6580    0.8100   17.8860 N   0  0  0  0  0  0  0  0  0  0  0  0
    7.6910   -0.4430   21.2110 N   0  0  0  0  0  0  0  0  0  0  0  0
   14.6640    8.8630   22.2850 N   0  0  0  0  0  0  0  0  0  0  0  0
   13.2700    5.3530   25.7170 O   0  0  0  0  0  0  0  0  0  0  0  0
    9.5930    0.8160   20.7830 O   0  0  0  0  0  0  0  0  0  0  0  0
   15.7030    9.4420   22.1420 O   0  0  0  0  0  0  0  0  0  0  0  0
   13.5280    9.3080   22.2150 O   0  0  0  0  0  0  0  0  0  0  0  0
   13.5010    2.4030   24.4520 O   0  0  0  0  0  0  0  0  0  0  0  0
   14.3240   -1.8950   21.6070 Cl  0  0  0  0  0  0  0  0  0  0  0  0
   16.3640    4.6520   21.1560 H   0  0  0  0  0  0  0  0  0  0  0  0
   14.8810    3.4850   22.7350 H   0  0  0  0  0  0  0  0  0  0  0  0
    3.7850    0.9770   19.5620 H   0  0  0  0  0  0  0  0  0  0  0  0
   13.5800    7.3360   24.2070 H   0  0  0  0  0  0  0  0  0  0  0  0
   10.8110    1.7130   24.1120 H   0  0  0  0  0  0  0  0  0  0  0  0
   11.6610   -1.8480   21.8290 H   0  0  0  0  0  0  0  0  0  0  0  0
   14.9040    0.4690   23.2340 H   0  0  0  0  0  0  0  0  0  0  0  0
    4.5760    1.3100   17.4500 H   0  0  0  0  0  0  0  0  0  0  0  0
    8.4420    0.1580   18.6810 H   0  0  0  0  0  0  0  0  0  0  0  0
    5.0300   -1.1110   22.0090 H   0  0  0  0  0  0  0  0  0  0  0  0
    5.4850    0.4680   22.6090 H   0  0  0  0  0  0  0  0  0  0  0  0
    3.9510    0.2980   21.7580 H   0  0  0  0  0  0  0  0  0  0  0  0
    9.3660   -1.4160   23.1040 H   0  0  0  0  0  0  0  0  0  0  0  0
    8.9310    0.1230   23.6090 H   0  0  0  0  0  0  0  0  0  0  0  0
   11.8950    3.5910   23.6430 H   0  0  0  0  0  0  0  0  0  0  0  0
   11.9260    3.3790   25.4030 H   0  0  0  0  0  0  0  0  0  0  0  0
    7.2500   -0.9700   21.9620 H   0  0  0  0  0  0  0  0  0  0  0  0
  9 41  1  0  0  0  0
  9 25  2  0  0  0  0
 10 25  1  0  0  0  0
  4  9  1  0  0  0  0
 10 42  1  0  0  0  0
 10 16  2  0  0  0  0
  4 36  1  0  0  0  0
  4 13  2  0  0  0  0
  1 24  3  0  0  0  0
 13 16  1  0  0  0  0
 16 26  1  0  0  0  0
 13 21  1  0  0  0  0
  1 11  1  0  0  0  0
 20 29  2  0  0  0  0
  2 34  1  0  0  0  0
 20 26  1  0  0  0  0
 26 50  1  0  0  0  0
 20 22  1  0  0  0  0
  2 11  2  0  0  0  0
 11 15  1  0  0  0  0
 18 33  1  0  0  0  0
  2  3  1  0  0  0  0
 21 45  1  0  0  0  0
 21 43  1  0  0  0  0
 21 44  1  0  0  0  0
  7 39  1  0  0  0  0
 27 30  2  0  0  0  0
 27 31  2  0  0  0  0
 15 27  1  0  0  0  0
  7 18  2  0  0  0  0
  7 14  1  0  0  0  0
  5 15  2  0  0  0  0
  8 18  1  0  0  0  0
  3 35  1  0  0  0  0
  3 12  2  0  0  0  0
 14 22  1  0  0  0  0
 22 46  1  0  0  0  0
 22 47  1  0  0  0  0
  6 14  2  0  0  0  0
  8 40  1  0  0  0  0
  8 17  2  0  0  0  0
  5 12  1  0  0  0  0
  5 37  1  0  0  0  0
 12 19  1  0  0  0  0
  6 17  1  0  0  0  0
  6 38  1  0  0  0  0
 23 48  1  0  0  0  0
 17 32  1  0  0  0  0
 23 32  1  0  0  0  0
 19 23  1  0  0  0  0
 23 49  1  0  0  0  0
 19 28  2  0  0  0  0
M  END
> <CID>
EN300-2009659

> <SMILES>
Cc1ccncc1NC(=O)Cc2cc(cc(c2)Cl)OCC(=O)c3ccc(c(c3)N(=O)=O)C#N

> <RUN>
RUN4481

> <DDG (kcal/mol)>
-1.03

> <dDDG (kcal/mol)>
0.20

$$$$
EN300-301686
  -OEChem-08252008263D

 63 66  0     0  0  0  0  0  0999 V2000
   15.1780    7.9900   20.7290 C   0  0  0  0  0  0  0  0  0  0  0  0
   15.4720    9.0670   21.6380 C   0  0  0  0  0  0  0  0  0  0  0  0
   14.6520    6.7750   21.2300 C   0  0  0  0  0  0  0  0  0  0  0  0
   15.0900    8.8910   22.9620 C   0  0  0  0  0  0  0  0  0  0  0  0
    4.7410    1.5020   18.9510 C   0  0  0  0  0  0  0  0  0  0  0  0
   11.3400    1.8680   23.3880 C   0  0  0  0  0  0  0  0  0  0  0  0
   11.7690   -0.3170   22.5940 C   0  0  0  0  0  0  0  0  0  0  0  0
   13.6490    1.1310   22.9860 C   0  0  0  0  0  0  0  0  0  0  0  0
    5.1740    1.0420   17.6770 C   0  0  0  0  0  0  0  0  0  0  0  0
    7.1440    0.2080   18.7290 C   0  0  0  0  0  0  0  0  0  0  0  0
   14.5470    6.6030   22.6180 C   0  0  0  0  0  0  0  0  0  0  0  0
    5.5310    1.3830   20.1110 C   0  0  0  0  0  0  0  0  0  0  0  0
   10.8420    0.6550   22.9590 C   0  0  0  0  0  0  0  0  0  0  0  0
   14.7450    7.6410   23.4840 C   0  0  0  0  0  0  0  0  0  0  0  0
    6.7680    0.7640   19.9940 C   0  0  0  0  0  0  0  0  0  0  0  0
   12.7060    2.1670   23.4090 C   0  0  0  0  0  0  0  0  0  0  0  0
   13.1260   -0.0630   22.5020 C   0  0  0  0  0  0  0  0  0  0  0  0
   14.1140    5.5010   23.3880 C   0  0  0  0  0  0  0  0  0  0  0  0
    8.8080    0.4130   21.3900 C   0  0  0  0  0  0  0  0  0  0  0  0
   14.7580    7.8360   25.9780 C   0  0  0  0  0  0  0  0  0  0  0  0
    5.0590    1.9680   21.4270 C   0  0  0  0  0  0  0  0  0  0  0  0
   14.3910    6.3500   29.2550 C   0  0  0  0  0  0  0  0  0  0  0  0
   16.0300    8.1360   28.8470 C   0  0  0  0  0  0  0  0  0  0  0  0
   13.6570    8.6640   28.5790 C   0  0  0  0  0  0  0  0  0  0  0  0
    9.3490    0.5380   22.8400 C   0  0  0  0  0  0  0  0  0  0  0  0
   13.8830    4.1110   22.9850 C   0  0  0  0  0  0  0  0  0  0  0  0
   14.7240    7.5760   28.3790 C   0  0  0  0  0  0  0  0  0  0  0  0
    6.3680    0.3700   17.6370 N   0  0  0  0  0  0  0  0  0  0  0  0
   14.2430    5.8710   24.6630 N   0  0  0  0  0  0  0  0  0  0  0  0
   14.4980    7.1790   24.7560 N   0  0  0  0  0  0  0  0  0  0  0  0
    7.4670    0.5060   21.1580 N   0  0  0  0  0  0  0  0  0  0  0  0
    9.5680    0.5700   20.4380 O   0  0  0  0  0  0  0  0  0  0  0  0
   14.8590    9.0570   26.0010 O   0  0  0  0  0  0  0  0  0  0  0  0
   13.1090    3.4030   23.8670 O   0  0  0  0  0  0  0  0  0  0  0  0
   14.8530    6.9810   27.0490 O   0  0  0  0  0  0  0  0  0  0  0  0
   14.0820   -1.1930   21.6090 Cl  0  0  0  0  0  0  0  0  0  0  0  0
   15.3320    8.1190   19.6610 H   0  0  0  0  0  0  0  0  0  0  0  0
   15.8390   10.0340   21.3100 H   0  0  0  0  0  0  0  0  0  0  0  0
   14.4900    5.9600   20.5320 H   0  0  0  0  0  0  0  0  0  0  0  0
   15.2290    9.7650   23.5900 H   0  0  0  0  0  0  0  0  0  0  0  0
    3.7330    1.9270   18.9590 H   0  0  0  0  0  0  0  0  0  0  0  0
   10.6700    2.6310   23.7630 H   0  0  0  0  0  0  0  0  0  0  0  0
   11.4450   -1.2850   22.2380 H   0  0  0  0  0  0  0  0  0  0  0  0
   14.6920    1.3140   22.7620 H   0  0  0  0  0  0  0  0  0  0  0  0
    4.5510    1.0590   16.7890 H   0  0  0  0  0  0  0  0  0  0  0  0
    8.1410   -0.2280   18.7040 H   0  0  0  0  0  0  0  0  0  0  0  0
    4.8180    1.0570   21.9700 H   0  0  0  0  0  0  0  0  0  0  0  0
    5.6780    2.6770   21.9770 H   0  0  0  0  0  0  0  0  0  0  0  0
    4.1340    2.5390   21.2590 H   0  0  0  0  0  0  0  0  0  0  0  0
   14.9060    5.4110   29.0340 H   0  0  0  0  0  0  0  0  0  0  0  0
   14.6800    6.5130   30.2990 H   0  0  0  0  0  0  0  0  0  0  0  0
   13.3080    6.1870   29.2110 H   0  0  0  0  0  0  0  0  0  0  0  0
   15.8840    8.6400   29.8080 H   0  0  0  0  0  0  0  0  0  0  0  0
   16.4970    8.8890   28.2040 H   0  0  0  0  0  0  0  0  0  0  0  0
   16.7110    7.2790   28.7890 H   0  0  0  0  0  0  0  0  0  0  0  0
   14.1640    9.6280   28.5720 H   0  0  0  0  0  0  0  0  0  0  0  0
   12.8310    8.5520   27.8750 H   0  0  0  0  0  0  0  0  0  0  0  0
   13.2010    8.4800   29.5530 H   0  0  0  0  0  0  0  0  0  0  0  0
    9.0200   -0.3460   23.3970 H   0  0  0  0  0  0  0  0  0  0  0  0
    8.8090    1.3610   23.3180 H   0  0  0  0  0  0  0  0  0  0  0  0
   13.4500    4.1030   21.9830 H   0  0  0  0  0  0  0  0  0  0  0  0
   14.8850    3.6740   22.9150 H   0  0  0  0  0  0  0  0  0  0  0  0
    6.9790    0.2610   22.0080 H   0  0  0  0  0  0  0  0  0  0  0  0
  9 45  1  0  0  0  0
  9 28  2  0  0  0  0
 10 28  1  0  0  0  0
  5  9  1  0  0  0  0
 10 46  1  0  0  0  0
 10 15  2  0  0  0  0
  5 41  1  0  0  0  0
  5 12  2  0  0  0  0
  1 37  1  0  0  0  0
 12 15  1  0  0  0  0
 15 31  1  0  0  0  0
 12 21  1  0  0  0  0
 19 32  2  0  0  0  0
  3 39  1  0  0  0  0
  1  3  2  0  0  0  0
  1  2  1  0  0  0  0
 19 31  1  0  0  0  0
 31 63  1  0  0  0  0
  3 11  1  0  0  0  0
 21 49  1  0  0  0  0
  2 38  1  0  0  0  0
 19 25  1  0  0  0  0
 21 47  1  0  0  0  0
 21 48  1  0  0  0  0
 17 36  1  0  0  0  0
  2  4  2  0  0  0  0
 26 61  1  0  0  0  0
  7 43  1  0  0  0  0
  7 17  2  0  0  0  0
  8 17  1  0  0  0  0
  7 13  1  0  0  0  0
 11 18  1  0  0  0  0
 11 14  2  0  0  0  0
  8 44  1  0  0  0  0
 13 25  1  0  0  0  0
 25 60  1  0  0  0  0
 25 59  1  0  0  0  0
 26 62  1  0  0  0  0
  6 13  2  0  0  0  0
  4 14  1  0  0  0  0
  4 40  1  0  0  0  0
 18 26  1  0  0  0  0
 26 34  1  0  0  0  0
  8 16  2  0  0  0  0
  6 16  1  0  0  0  0
  6 42  1  0  0  0  0
 18 29  2  0  0  0  0
 16 34  1  0  0  0  0
 14 30  1  0  0  0  0
 29 30  1  0  0  0  0
 20 30  1  0  0  0  0
 20 33  2  0  0  0  0
 20 35  1  0  0  0  0
 27 35  1  0  0  0  0
 24 57  1  0  0  0  0
 23 54  1  0  0  0  0
 24 27  1  0  0  0  0
 23 27  1  0  0  0  0
 22 27  1  0  0  0  0
 24 56  1  0  0  0  0
 24 58  1  0  0  0  0
 23 55  1  0  0  0  0
 23 53  1  0  0  0  0
 22 50  1  0  0  0  0
 22 52  1  0  0  0  0
 22 51  1  0  0  0  0
M  END
> <CID>
EN300-301686

> <SMILES>
Cc1ccncc1NC(=O)Cc2cc(cc(c2)Cl)OCc3c4ccccc4n(n3)C(=O)OC(C)(C)C

> <RUN>
RUN4523

> <DDG (kcal/mol)>
-1.02

> <dDDG (kcal/mol)>
0.27

$$$$
EN300-1274639
  -OEChem-08252008263D

 59 62  0     1  0  0  0  0  0999 V2000
    7.8020    1.0810   26.5460 C   0  0  0  0  0  0  0  0  0  0  0  0
    7.1540    2.3170   26.4850 C   0  0  0  0  0  0  0  0  0  0  0  0
    9.0020    0.8410   25.8270 C   0  0  0  0  0  0  0  0  0  0  0  0
    5.4280    2.9410   19.1370 C   0  0  0  0  0  0  0  0  0  0  0  0
    9.6850   -0.2380   22.9080 C   0  0  0  0  0  0  0  0  0  0  0  0
   11.1630   -1.4790   21.4720 C   0  0  0  0  0  0  0  0  0  0  0  0
    8.9840    3.0520   24.9950 C   0  0  0  0  0  0  0  0  0  0  0  0
   12.0490    0.1560   22.9240 C   0  0  0  0  0  0  0  0  0  0  0  0
    5.3890    2.6590   17.7910 C   0  0  0  0  0  0  0  0  0  0  0  0
    6.8150    0.8890   18.0670 C   0  0  0  0  0  0  0  0  0  0  0  0
    6.2640    2.2660   19.9880 C   0  0  0  0  0  0  0  0  0  0  0  0
    9.8900   -1.1860   21.9120 C   0  0  0  0  0  0  0  0  0  0  0  0
    7.8280    3.3060   25.7700 C   0  0  0  0  0  0  0  0  0  0  0  0
    6.9680    1.1920   19.4720 C   0  0  0  0  0  0  0  0  0  0  0  0
    9.5720    1.7810   24.9680 C   0  0  0  0  0  0  0  0  0  0  0  0
   10.8010    0.4680   23.3530 C   0  0  0  0  0  0  0  0  0  0  0  0
   12.2910   -0.8650   21.9960 C   0  0  0  0  0  0  0  0  0  0  0  0
    6.4830    5.3400   26.6810 C   0  0  3  0  0  0  0  0  0  0  0  0
    7.9200   -1.0240   20.1330 C   0  0  0  0  0  0  0  0  0  0  0  0
    5.4540    6.1880   28.6940 C   0  0  2  0  0  0  0  0  0  0  0  0
    4.8920    7.0730   27.6290 C   0  0  2  0  0  0  0  0  0  0  0  0
    6.2660    2.6120   21.4680 C   0  0  0  0  0  0  0  0  0  0  0  0
    6.2430    6.9660   29.7470 C   0  0  0  0  0  0  0  0  0  0  0  0
    8.6930   -1.7950   21.2350 C   0  0  0  0  0  0  0  0  0  0  0  0
    3.3860    7.0300   27.7970 C   0  0  0  0  0  0  0  0  0  0  0  0
    6.0480    1.5950   17.2720 N   0  0  0  0  0  0  0  0  0  0  0  0
    6.3020    5.1880   27.9450 N   0  0  0  0  0  0  0  0  0  0  0  0
    7.2590    4.6350   25.7200 N   0  0  0  0  0  0  0  0  0  0  0  0
    7.8270    0.3920   20.2960 N   0  0  0  0  0  0  0  0  0  0  0  0
    7.0890   -1.6850   19.4140 O   0  0  0  0  0  0  0  0  0  0  0  0
   10.7270    1.5090   24.2410 O   0  0  0  0  0  0  0  0  0  0  0  0
    5.3860    6.4750   25.9970 S   0  0  0  0  0  0  0  0  0  0  0  0
   13.8410   -1.3900   21.3630 Cl  0  0  0  0  0  0  0  0  0  0  0  0
    2.6110    5.1710   27.4920 Br  0  0  0  0  0  0  0  0  0  0  0  0
    7.3780    0.2580   27.0950 H   0  0  0  0  0  0  0  0  0  0  0  0
    6.2280    2.5560   27.0060 H   0  0  0  0  0  0  0  0  0  0  0  0
    9.5400   -0.0910   25.9670 H   0  0  0  0  0  0  0  0  0  0  0  0
    4.8610    3.7600   19.5670 H   0  0  0  0  0  0  0  0  0  0  0  0
    8.7020   -0.1110   23.3730 H   0  0  0  0  0  0  0  0  0  0  0  0
   11.3100   -2.2240   20.6990 H   0  0  0  0  0  0  0  0  0  0  0  0
    9.4080    3.8680   24.4250 H   0  0  0  0  0  0  0  0  0  0  0  0
   12.8670    0.7750   23.2650 H   0  0  0  0  0  0  0  0  0  0  0  0
    4.8700    3.3480   17.1350 H   0  0  0  0  0  0  0  0  0  0  0  0
    7.3480    0.0210   17.6870 H   0  0  0  0  0  0  0  0  0  0  0  0
    4.6750    5.6650   29.2520 H   0  0  0  0  0  0  0  0  0  0  0  0
    5.3470    8.0730   27.7050 H   0  0  0  0  0  0  0  0  0  0  0  0
    6.9470    3.4460   21.6680 H   0  0  0  0  0  0  0  0  0  0  0  0
    5.2630    2.9800   21.6790 H   0  0  0  0  0  0  0  0  0  0  0  0
    6.4350    1.8260   22.2090 H   0  0  0  0  0  0  0  0  0  0  0  0
    5.6350    7.7330   30.2470 H   0  0  0  0  0  0  0  0  0  0  0  0
    7.1130    7.4650   29.3070 H   0  0  0  0  0  0  0  0  0  0  0  0
    6.6280    6.2680   30.5010 H   0  0  0  0  0  0  0  0  0  0  0  0
    9.0510   -2.6600   20.6650 H   0  0  0  0  0  0  0  0  0  0  0  0
    8.0040   -2.2050   21.9770 H   0  0  0  0  0  0  0  0  0  0  0  0
    2.8950    7.7760   27.1630 H   0  0  0  0  0  0  0  0  0  0  0  0
    3.1710    7.2240   28.8510 H   0  0  0  0  0  0  0  0  0  0  0  0
    6.9260    4.6140   28.5100 H   0  0  0  0  0  0  0  0  0  0  0  0
    7.4310    5.1340   24.8520 H   0  0  0  0  0  0  0  0  0  0  0  0
    8.2790    0.8680   21.0830 H   0  0  0  0  0  0  0  0  0  0  0  0
  9 43  1  0  0  0  0
  9 26  2  0  0  0  0
 10 26  1  0  0  0  0
 10 44  1  0  0  0  0
  4  9  1  0  0  0  0
 10 14  2  0  0  0  0
  4 38  1  0  0  0  0
  4 11  2  0  0  0  0
 19 30  2  0  0  0  0
 11 14  1  0  0  0  0
 14 29  1  0  0  0  0
 11 22  1  0  0  0  0
 19 29  1  0  0  0  0
 19 24  1  0  0  0  0
 29 59  1  0  0  0  0
 24 53  1  0  0  0  0
  6 40  1  0  0  0  0
 12 24  1  0  0  0  0
 24 54  1  0  0  0  0
 17 33  1  0  0  0  0
 22 47  1  0  0  0  0
 22 48  1  0  0  0  0
 22 49  1  0  0  0  0
  6 12  2  0  0  0  0
  6 17  1  0  0  0  0
  5 12  1  0  0  0  0
  8 17  2  0  0  0  0
  5 16  2  0  0  0  0
  5 39  1  0  0  0  0
  8 42  1  0  0  0  0
  8 16  1  0  0  0  0
 16 31  1  0  0  0  0
 15 31  1  0  0  0  0
  7 41  1  0  0  0  0
 28 58  1  0  0  0  0
  7 15  2  0  0  0  0
  3 15  1  0  0  0  0
  7 13  1  0  0  0  0
 13 28  1  0  0  0  0
 18 28  1  0  0  0  0
  2 13  2  0  0  0  0
  3 37  1  0  0  0  0
  1  3  2  0  0  0  0
 18 32  1  0  0  0  0
 21 32  1  0  0  0  0
  1  2  1  0  0  0  0
  2 36  1  0  0  0  0
  1 35  1  0  0  0  0
 18 27  1  0  0  0  0
 25 55  1  0  0  0  0
 25 34  1  0  0  0  0
 21 46  1  0  0  0  0
 21 25  1  0  0  0  0
 20 21  1  0  0  0  0
 25 56  1  0  0  0  0
 27 57  1  0  0  0  0
 20 27  1  0  0  0  0
 20 45  1  0  0  0  0
 20 23  1  0  0  0  0
 23 51  1  0  0  0  0
 23 50  1  0  0  0  0
 23 52  1  0  0  0  0
M  END
> <CID>
EN300-1274639

> <SMILES>
Cc1ccncc1NC(=O)Cc2cc(cc(c2)Cl)Oc3cccc(c3)NC4=[NH+][C@H]([C@@H](S4)CBr)C

> <RUN>
RUN1452

> <DDG (kcal/mol)>
-1.02

> <dDDG (kcal/mol)>
0.16

$$$$
EN300-1914939
  -OEChem-08252008263D

 49 51  0     0  0  0  0  0  0999 V2000
   10.3580    3.7680   27.5240 C   0  0  0  0  0  0  0  0  0  0  0  0
   10.5070    2.4030   27.3380 C   0  0  0  0  0  0  0  0  0  0  0  0
    3.7660    0.0050   19.6740 C   0  0  0  0  0  0  0  0  0  0  0  0
    9.8400   -0.4180   24.6970 C   0  0  0  0  0  0  0  0  0  0  0  0
   10.6390   -1.8200   22.8820 C   0  0  0  0  0  0  0  0  0  0  0  0
   11.7550    2.8670   25.3610 C   0  0  0  0  0  0  0  0  0  0  0  0
   12.2390   -0.6040   24.3030 C   0  0  0  0  0  0  0  0  0  0  0  0
    4.3750    0.2380   18.3910 C   0  0  0  0  0  0  0  0  0  0  0  0
    6.3120   -0.7250   19.3050 C   0  0  0  0  0  0  0  0  0  0  0  0
   10.8410    4.7110   26.6190 C   0  0  0  0  0  0  0  0  0  0  0  0
    4.4560   -0.5790   20.7450 C   0  0  0  0  0  0  0  0  0  0  0  0
    9.5790   -1.3190   23.6760 C   0  0  0  0  0  0  0  0  0  0  0  0
    5.7230   -0.9840   20.5400 C   0  0  0  0  0  0  0  0  0  0  0  0
   11.2580    2.0000   26.2750 C   0  0  0  0  0  0  0  0  0  0  0  0
   11.1950   -0.0600   25.0090 C   0  0  0  0  0  0  0  0  0  0  0  0
   11.5240    4.2520   25.4710 C   0  0  0  0  0  0  0  0  0  0  0  0
   12.0030   -1.5140   23.2510 C   0  0  0  0  0  0  0  0  0  0  0  0
    7.6580   -1.0280   22.1560 C   0  0  0  0  0  0  0  0  0  0  0  0
    3.6770   -0.7670   22.0640 C   0  0  0  0  0  0  0  0  0  0  0  0
   12.9560    4.8290   23.6610 C   0  0  0  0  0  0  0  0  0  0  0  0
    8.1880   -1.7570   23.3590 C   0  0  0  0  0  0  0  0  0  0  0  0
   10.7920    6.2410   26.9830 C   0  0  0  0  0  0  0  0  0  0  0  0
    5.6740   -0.0440   18.2880 N   0  0  0  0  0  0  0  0  0  0  0  0
    6.5100   -1.5630   21.5500 N   0  0  0  0  0  0  0  0  0  0  0  0
    8.2350   -0.0090   21.6550 O   0  0  0  0  0  0  0  0  0  0  0  0
   11.5850    0.6760   26.1380 O   0  0  0  0  0  0  0  0  0  0  0  0
   11.9300    5.1430   24.6140 O   0  0  0  0  0  0  0  0  0  0  0  0
   13.3070   -2.3010   22.3850 Cl  0  0  0  0  0  0  0  0  0  0  0  0
   12.4380    6.7760   27.9170 Br  0  0  0  0  0  0  0  0  0  0  0  0
    9.8580    4.1430   28.4040 H   0  0  0  0  0  0  0  0  0  0  0  0
   10.0810    1.6990   28.0380 H   0  0  0  0  0  0  0  0  0  0  0  0
    2.7140    0.2520   19.7530 H   0  0  0  0  0  0  0  0  0  0  0  0
    8.9810    0.1020   25.1220 H   0  0  0  0  0  0  0  0  0  0  0  0
   10.4100   -2.5770   22.1380 H   0  0  0  0  0  0  0  0  0  0  0  0
   12.2520    2.5520   24.4450 H   0  0  0  0  0  0  0  0  0  0  0  0
   13.2680   -0.3980   24.6060 H   0  0  0  0  0  0  0  0  0  0  0  0
    3.7310    0.6850   17.6430 H   0  0  0  0  0  0  0  0  0  0  0  0
    7.3120   -1.0910   19.1110 H   0  0  0  0  0  0  0  0  0  0  0  0
    2.5930   -0.7610   21.8920 H   0  0  0  0  0  0  0  0  0  0  0  0
    3.9750   -1.6980   22.5610 H   0  0  0  0  0  0  0  0  0  0  0  0
    3.8970    0.0490   22.7640 H   0  0  0  0  0  0  0  0  0  0  0  0
   13.4980    5.6880   23.2580 H   0  0  0  0  0  0  0  0  0  0  0  0
   12.4060    4.3870   22.8200 H   0  0  0  0  0  0  0  0  0  0  0  0
   13.6940    4.1810   24.1270 H   0  0  0  0  0  0  0  0  0  0  0  0
    8.0840   -2.8480   23.3000 H   0  0  0  0  0  0  0  0  0  0  0  0
    7.5710   -1.5880   24.2460 H   0  0  0  0  0  0  0  0  0  0  0  0
    9.8730    6.4830   27.5060 H   0  0  0  0  0  0  0  0  0  0  0  0
   10.7200    6.7550   26.0220 H   0  0  0  0  0  0  0  0  0  0  0  0
    6.1870   -2.3170   22.1490 H   0  0  0  0  0  0  0  0  0  0  0  0
  8 37  1  0  0  0  0
  8 23  2  0  0  0  0
  9 23  1  0  0  0  0
  3  8  1  0  0  0  0
  9 38  1  0  0  0  0
  9 13  2  0  0  0  0
  3 32  1  0  0  0  0
  3 11  2  0  0  0  0
 11 13  1  0  0  0  0
 13 24  1  0  0  0  0
 11 19  1  0  0  0  0
 24 49  1  0  0  0  0
 18 24  1  0  0  0  0
 18 25  2  0  0  0  0
 19 39  1  0  0  0  0
 19 40  1  0  0  0  0
 19 41  1  0  0  0  0
  5 34  1  0  0  0  0
 18 21  1  0  0  0  0
 17 28  1  0  0  0  0
 20 43  1  0  0  0  0
  5 17  2  0  0  0  0
  5 12  1  0  0  0  0
  7 17  1  0  0  0  0
 20 42  1  0  0  0  0
 21 45  1  0  0  0  0
 12 21  1  0  0  0  0
 21 46  1  0  0  0  0
 20 44  1  0  0  0  0
 20 27  1  0  0  0  0
  4 12  2  0  0  0  0
  7 36  1  0  0  0  0
  7 15  2  0  0  0  0
  6 35  1  0  0  0  0
 16 27  1  0  0  0  0
  4 15  1  0  0  0  0
  4 33  1  0  0  0  0
 15 26  1  0  0  0  0
  6 16  2  0  0  0  0
  6 14  1  0  0  0  0
 10 16  1  0  0  0  0
 22 48  1  0  0  0  0
 14 26  1  0  0  0  0
  2 14  2  0  0  0  0
 10 22  1  0  0  0  0
  1 10  2  0  0  0  0
 22 47  1  0  0  0  0
 22 29  1  0  0  0  0
  1  2  1  0  0  0  0
  2 31  1  0  0  0  0
  1 30  1  0  0  0  0
M  END
> <CID>
EN300-1914939

> <SMILES>
Cc1ccncc1NC(=O)Cc2cc(cc(c2)Cl)Oc3ccc(c(c3)OC)CBr

> <RUN>
RUN2542

> <DDG (kcal/mol)>
-1.00

> <dDDG (kcal/mol)>
0.12

$$$$
EN300-372060
  -OEChem-08252008263D

 51 54  0     0  0  0  0  0  0999 V2000
   16.6680   11.2110   23.5260 C   0  0  0  0  0  0  0  0  0  0  0  0
   16.2540   10.0150   22.9680 C   0  0  0  0  0  0  0  0  0  0  0  0
   17.4530   11.2080   24.7290 C   0  0  0  0  0  0  0  0  0  0  0  0
   16.4010    8.8090   23.7700 C   0  0  0  0  0  0  0  0  0  0  0  0
    7.5190    5.3050   28.4610 C   0  0  0  0  0  0  0  0  0  0  0  0
   18.5820    9.9690   26.5070 C   0  0  0  0  0  0  0  0  0  0  0  0
   14.6330    4.0730   27.4080 C   0  0  0  0  0  0  0  0  0  0  0  0
   13.9210    2.1370   26.2250 C   0  0  0  0  0  0  0  0  0  0  0  0
   17.9110    7.6830   26.9610 C   0  0  0  0  0  0  0  0  0  0  0  0
   15.4350    3.6160   25.1810 C   0  0  0  0  0  0  0  0  0  0  0  0
    7.7780    6.2460   29.4700 C   0  0  0  0  0  0  0  0  0  0  0  0
    9.7180    5.2780   30.0890 C   0  0  0  0  0  0  0  0  0  0  0  0
   17.7720    9.9670   25.3730 C   0  0  0  0  0  0  0  0  0  0  0  0
   17.1820    8.7580   24.9550 C   0  0  0  0  0  0  0  0  0  0  0  0
    8.4860    4.3390   28.2570 C   0  0  0  0  0  0  0  0  0  0  0  0
   13.8470    2.9220   27.3450 C   0  0  0  0  0  0  0  0  0  0  0  0
   17.1520    7.6630   25.7700 C   0  0  0  0  0  0  0  0  0  0  0  0
    9.6710    4.3340   29.0220 C   0  0  0  0  0  0  0  0  0  0  0  0
   15.4670    4.3940   26.3260 C   0  0  0  0  0  0  0  0  0  0  0  0
   18.6860    8.8010   27.2970 C   0  0  0  0  0  0  0  0  0  0  0  0
   14.6510    2.4850   25.0810 C   0  0  0  0  0  0  0  0  0  0  0  0
   12.0700    3.6410   28.8590 C   0  0  0  0  0  0  0  0  0  0  0  0
    8.2670    3.2550   27.1950 C   0  0  0  0  0  0  0  0  0  0  0  0
   12.9920    2.4610   28.4780 C   0  0  0  0  0  0  0  0  0  0  0  0
   16.3240    6.4490   25.4690 C   0  0  0  0  0  0  0  0  0  0  0  0
    8.8800    6.3220   30.2280 N   0  0  0  0  0  0  0  0  0  0  0  0
   10.7100    3.4830   28.6180 N   0  0  0  0  0  0  0  0  0  0  0  0
   12.4410    4.5750   29.5770 O   0  0  0  0  0  0  0  0  0  0  0  0
   16.4090    5.4590   26.5090 O   0  0  0  0  0  0  0  0  0  0  0  0
   19.8830    8.7300   28.5280 Cl  0  0  0  0  0  0  0  0  0  0  0  0
   14.5890    1.5300   23.6110 Cl  0  0  0  0  0  0  0  0  0  0  0  0
   16.5120   12.1290   22.9680 H   0  0  0  0  0  0  0  0  0  0  0  0
   15.8870    9.7890   21.9700 H   0  0  0  0  0  0  0  0  0  0  0  0
   17.9320   12.0970   25.1030 H   0  0  0  0  0  0  0  0  0  0  0  0
   15.7540    8.0130   23.4320 H   0  0  0  0  0  0  0  0  0  0  0  0
    6.6130    5.4260   27.8680 H   0  0  0  0  0  0  0  0  0  0  0  0
   19.1680   10.8650   26.7040 H   0  0  0  0  0  0  0  0  0  0  0  0
   14.7320    4.7620   28.2380 H   0  0  0  0  0  0  0  0  0  0  0  0
   13.3230    1.2350   26.3160 H   0  0  0  0  0  0  0  0  0  0  0  0
   17.8190    6.8890   27.6990 H   0  0  0  0  0  0  0  0  0  0  0  0
   16.1630    3.7720   24.3920 H   0  0  0  0  0  0  0  0  0  0  0  0
    7.0210    7.0020   29.6380 H   0  0  0  0  0  0  0  0  0  0  0  0
   10.5210    5.2570   30.8220 H   0  0  0  0  0  0  0  0  0  0  0  0
    8.9370    3.3480   26.3270 H   0  0  0  0  0  0  0  0  0  0  0  0
    8.3540    2.2490   27.6200 H   0  0  0  0  0  0  0  0  0  0  0  0
    7.3020    3.3200   26.6890 H   0  0  0  0  0  0  0  0  0  0  0  0
   12.5340    1.4940   28.2870 H   0  0  0  0  0  0  0  0  0  0  0  0
   13.6230    2.3990   29.3670 H   0  0  0  0  0  0  0  0  0  0  0  0
   15.3060    6.8210   25.3330 H   0  0  0  0  0  0  0  0  0  0  0  0
   16.8260    5.9940   24.6060 H   0  0  0  0  0  0  0  0  0  0  0  0
   10.4190    2.6350   28.1360 H   0  0  0  0  0  0  0  0  0  0  0  0
  2 33  1  0  0  0  0
  1  2  2  0  0  0  0
  2  4  1  0  0  0  0
  1 32  1  0  0  0  0
  4 35  1  0  0  0  0
  1  3  1  0  0  0  0
 21 31  1  0  0  0  0
  4 14  2  0  0  0  0
 10 41  1  0  0  0  0
 25 50  1  0  0  0  0
  3 34  1  0  0  0  0
  3 13  2  0  0  0  0
 13 14  1  0  0  0  0
 14 17  1  0  0  0  0
 10 21  2  0  0  0  0
  8 21  1  0  0  0  0
 10 19  1  0  0  0  0
 25 49  1  0  0  0  0
  6 13  1  0  0  0  0
 17 25  1  0  0  0  0
 25 29  1  0  0  0  0
  9 17  2  0  0  0  0
  8 39  1  0  0  0  0
  8 16  2  0  0  0  0
 19 29  1  0  0  0  0
  7 19  2  0  0  0  0
 23 44  1  0  0  0  0
  6 37  1  0  0  0  0
  6 20  2  0  0  0  0
 23 46  1  0  0  0  0
  9 20  1  0  0  0  0
  9 40  1  0  0  0  0
 23 45  1  0  0  0  0
 15 23  1  0  0  0  0
 20 30  1  0  0  0  0
  7 16  1  0  0  0  0
 16 24  1  0  0  0  0
  7 38  1  0  0  0  0
  5 36  1  0  0  0  0
 27 51  1  0  0  0  0
  5 15  2  0  0  0  0
 15 18  1  0  0  0  0
 24 47  1  0  0  0  0
  5 11  1  0  0  0  0
 22 24  1  0  0  0  0
 24 48  1  0  0  0  0
 22 27  1  0  0  0  0
 18 27  1  0  0  0  0
 22 28  2  0  0  0  0
 12 18  2  0  0  0  0
 11 42  1  0  0  0  0
 11 26  2  0  0  0  0
 12 26  1  0  0  0  0
 12 43  1  0  0  0  0
M  END
> <CID>
EN300-372060

> <SMILES>
Cc1ccncc1NC(=O)Cc2cc(cc(c2)Cl)OCc3cc(cc4c3cccc4)Cl

> <RUN>
RUN2293

> <DDG (kcal/mol)>
-0.99

> <dDDG (kcal/mol)>
0.12

$$$$
EN300-1926474
  -OEChem-08252008263D

 51 53  0     1  0  0  0  0  0999 V2000
   10.9260    5.1970   24.7370 C   0  0  0  0  0  0  0  0  0  0  0  0
   11.6070    4.4060   23.8250 C   0  0  0  0  0  0  0  0  0  0  0  0
   11.6070    5.9560   25.7010 C   0  0  0  0  0  0  0  0  0  0  0  0
    4.5590    0.9800   19.7540 C   0  0  0  0  0  0  0  0  0  0  0  0
   11.6320    0.7350   23.9580 C   0  0  0  0  0  0  0  0  0  0  0  0
   11.4990   -1.0540   22.2750 C   0  0  0  0  0  0  0  0  0  0  0  0
   13.5480   -0.0570   22.7090 C   0  0  0  0  0  0  0  0  0  0  0  0
    5.0290    0.7580   18.5140 C   0  0  0  0  0  0  0  0  0  0  0  0
    7.0380    0.0080   19.4440 C   0  0  0  0  0  0  0  0  0  0  0  0
   13.0540    4.5170   23.8530 C   0  0  0  0  0  0  0  0  0  0  0  0
    5.2410    0.7290   20.9110 C   0  0  0  0  0  0  0  0  0  0  0  0
   10.8630   -0.1680   23.1600 C   0  0  0  0  0  0  0  0  0  0  0  0
   13.0300    6.0990   25.7520 C   0  0  0  0  0  0  0  0  0  0  0  0
    6.5480    0.1830   20.7520 C   0  0  0  0  0  0  0  0  0  0  0  0
   12.9730    0.7970   23.6960 C   0  0  0  0  0  0  0  0  0  0  0  0
   13.7640    5.2940   24.7940 C   0  0  0  0  0  0  0  0  0  0  0  0
   12.8100   -1.0010   22.0420 C   0  0  0  0  0  0  0  0  0  0  0  0
    8.6890    0.1970   22.0150 C   0  0  0  0  0  0  0  0  0  0  0  0
    4.5680    0.9250   22.2960 C   0  0  0  0  0  0  0  0  0  0  0  0
    9.3830   -0.0980   23.3590 C   0  0  0  0  0  0  0  0  0  0  0  0
   14.6390    2.5370   23.6060 C   0  0  0  0  0  0  0  0  0  0  0  0
   13.8200    3.6820   22.8360 C   0  0  2  0  0  0  0  0  0  0  0  0
    6.3010    0.2480   18.3340 N   0  0  0  0  0  0  0  0  0  0  0  0
    7.3860   -0.0180   21.8850 N   0  0  0  0  0  0  0  0  0  0  0  0
   13.6830    6.8890   26.7570 N   0  0  0  0  0  0  0  0  0  0  0  0
    9.1940    0.9320   21.2050 O   0  0  0  0  0  0  0  0  0  0  0  0
   14.8970    6.7400   26.8960 O   0  0  0  0  0  0  0  0  0  0  0  0
   12.9380    7.7010   27.3520 O   0  0  0  0  0  0  0  0  0  0  0  0
   14.6190    4.5020   22.0510 O   0  0  0  0  0  0  0  0  0  0  0  0
   13.7370    1.7020   24.3870 O   0  0  0  0  0  0  0  0  0  0  0  0
   15.1180    5.3540   24.7300 F   0  0  0  0  0  0  0  0  0  0  0  0
   13.6140   -2.0820   20.9080 Cl  0  0  0  0  0  0  0  0  0  0  0  0
    9.8470    5.1510   24.8200 H   0  0  0  0  0  0  0  0  0  0  0  0
   11.1470    3.8250   23.0260 H   0  0  0  0  0  0  0  0  0  0  0  0
   10.9330    6.5930   26.2560 H   0  0  0  0  0  0  0  0  0  0  0  0
    3.5560    1.3530   19.9430 H   0  0  0  0  0  0  0  0  0  0  0  0
   11.2020    1.2850   24.7820 H   0  0  0  0  0  0  0  0  0  0  0  0
   10.9100   -1.8460   21.8230 H   0  0  0  0  0  0  0  0  0  0  0  0
   14.6020   -0.1020   22.4730 H   0  0  0  0  0  0  0  0  0  0  0  0
    4.5070    1.0530   17.6040 H   0  0  0  0  0  0  0  0  0  0  0  0
    8.0380   -0.3890   19.3260 H   0  0  0  0  0  0  0  0  0  0  0  0
    4.0810   -0.0130   22.5560 H   0  0  0  0  0  0  0  0  0  0  0  0
    5.2730    1.3060   23.0520 H   0  0  0  0  0  0  0  0  0  0  0  0
    3.7820    1.6760   22.2380 H   0  0  0  0  0  0  0  0  0  0  0  0
    9.0790   -1.0510   23.7960 H   0  0  0  0  0  0  0  0  0  0  0  0
    9.1650    0.7310   24.0430 H   0  0  0  0  0  0  0  0  0  0  0  0
   15.0450    1.9530   22.7770 H   0  0  0  0  0  0  0  0  0  0  0  0
   15.5000    2.9330   24.1610 H   0  0  0  0  0  0  0  0  0  0  0  0
   13.0680    3.2230   22.1890 H   0  0  0  0  0  0  0  0  0  0  0  0
    6.9250   -0.5560   22.6240 H   0  0  0  0  0  0  0  0  0  0  0  0
   15.0200    4.0620   21.2780 H   0  0  0  0  0  0  0  0  0  0  0  0
  8 40  1  0  0  0  0
  8 23  2  0  0  0  0
  9 23  1  0  0  0  0
  4  8  1  0  0  0  0
  9 41  1  0  0  0  0
  9 14  2  0  0  0  0
  4 36  1  0  0  0  0
  4 11  2  0  0  0  0
 11 14  1  0  0  0  0
 14 24  1  0  0  0  0
 17 32  1  0  0  0  0
 11 19  1  0  0  0  0
 18 26  2  0  0  0  0
 29 51  1  0  0  0  0
  6 38  1  0  0  0  0
 18 24  1  0  0  0  0
 24 50  1  0  0  0  0
 18 20  1  0  0  0  0
  6 17  2  0  0  0  0
  7 17  1  0  0  0  0
 22 29  1  0  0  0  0
 22 49  1  0  0  0  0
 19 44  1  0  0  0  0
  6 12  1  0  0  0  0
 19 42  1  0  0  0  0
 19 43  1  0  0  0  0
  7 39  1  0  0  0  0
  7 15  2  0  0  0  0
 21 47  1  0  0  0  0
 21 22  1  0  0  0  0
 10 22  1  0  0  0  0
  2 34  1  0  0  0  0
 12 20  1  0  0  0  0
  5 12  2  0  0  0  0
 20 45  1  0  0  0  0
 20 46  1  0  0  0  0
 21 48  1  0  0  0  0
 21 30  1  0  0  0  0
  5 15  1  0  0  0  0
 15 30  1  0  0  0  0
  2 10  2  0  0  0  0
  1  2  1  0  0  0  0
 10 16  1  0  0  0  0
  5 37  1  0  0  0  0
 16 31  1  0  0  0  0
  1 33  1  0  0  0  0
  1  3  2  0  0  0  0
 13 16  2  0  0  0  0
  3 13  1  0  0  0  0
  3 35  1  0  0  0  0
 13 25  1  0  0  0  0
 25 27  2  0  0  0  0
 25 28  2  0  0  0  0
M  END
> <CID>
EN300-1926474

> <SMILES>
Cc1ccncc1NC(=O)Cc2cc(cc(c2)Cl)OC[C@@H](c3cccc(c3F)N(=O)=O)O

> <RUN>
RUN1782

> <DDG (kcal/mol)>
-0.98

> <dDDG (kcal/mol)>
0.17

$$$$
EN300-117814
  -OEChem-08252008263D

 51 53  0     0  0  0  0  0  0999 V2000
   11.6260    1.2800   27.5720 C   0  0  0  0  0  0  0  0  0  0  0  0
   12.6410    0.9160   26.6860 C   0  0  0  0  0  0  0  0  0  0  0  0
    6.7260    1.6730   20.4440 C   0  0  0  0  0  0  0  0  0  0  0  0
   12.4340   -0.3780   23.6980 C   0  0  0  0  0  0  0  0  0  0  0  0
   12.5420    2.9670   25.6450 C   0  0  0  0  0  0  0  0  0  0  0  0
   13.2860   -1.5430   21.7360 C   0  0  0  0  0  0  0  0  0  0  0  0
   14.7370   -0.0460   22.9820 C   0  0  0  0  0  0  0  0  0  0  0  0
    6.4740    1.2240   19.1720 C   0  0  0  0  0  0  0  0  0  0  0  0
    8.4110   -0.1350   19.2270 C   0  0  0  0  0  0  0  0  0  0  0  0
   11.0360    2.5460   27.5190 C   0  0  0  0  0  0  0  0  0  0  0  0
    7.8100    1.1690   21.2100 C   0  0  0  0  0  0  0  0  0  0  0  0
   12.2550   -1.3420   22.6650 C   0  0  0  0  0  0  0  0  0  0  0  0
   11.5380    3.4000   26.4910 C   0  0  0  0  0  0  0  0  0  0  0  0
    8.7020    0.2280   20.6050 C   0  0  0  0  0  0  0  0  0  0  0  0
   13.0220    1.7150   25.6160 C   0  0  0  0  0  0  0  0  0  0  0  0
   13.6770    0.3420   23.7680 C   0  0  0  0  0  0  0  0  0  0  0  0
   14.5410   -1.0250   21.9840 C   0  0  0  0  0  0  0  0  0  0  0  0
    9.9780    2.7770   28.4380 C   0  0  0  0  0  0  0  0  0  0  0  0
   10.0350   -1.6490   21.5370 C   0  0  0  0  0  0  0  0  0  0  0  0
    7.8360    1.4840   22.7050 C   0  0  0  0  0  0  0  0  0  0  0  0
    9.0700    4.1990   30.1350 C   0  0  0  0  0  0  0  0  0  0  0  0
   10.9750   -2.1340   22.6200 C   0  0  0  0  0  0  0  0  0  0  0  0
   10.9460    4.7700   26.2910 C   0  0  0  0  0  0  0  0  0  0  0  0
    7.3590    0.3790   18.5150 N   0  0  0  0  0  0  0  0  0  0  0  0
    9.8060   -0.2830   21.3030 N   0  0  0  0  0  0  0  0  0  0  0  0
    9.0600    2.0040   28.4340 O   0  0  0  0  0  0  0  0  0  0  0  0
    9.2310   -2.4650   21.0470 O   0  0  0  0  0  0  0  0  0  0  0  0
   13.9030    1.3830   24.5950 O   0  0  0  0  0  0  0  0  0  0  0  0
   10.0660    3.9460   29.1490 O   0  0  0  0  0  0  0  0  0  0  0  0
   15.9570   -1.3730   21.0960 Cl  0  0  0  0  0  0  0  0  0  0  0  0
    9.6240    4.5860   24.8140 Br  0  0  0  0  0  0  0  0  0  0  0  0
   11.3220    0.5570   28.3230 H   0  0  0  0  0  0  0  0  0  0  0  0
   13.1930   -0.0120   26.6540 H   0  0  0  0  0  0  0  0  0  0  0  0
    5.9920    2.3800   20.8250 H   0  0  0  0  0  0  0  0  0  0  0  0
   11.6150   -0.1860   24.3750 H   0  0  0  0  0  0  0  0  0  0  0  0
   12.9540    3.7080   24.9680 H   0  0  0  0  0  0  0  0  0  0  0  0
   13.1770   -2.1700   20.8460 H   0  0  0  0  0  0  0  0  0  0  0  0
   15.7770    0.2150   23.1360 H   0  0  0  0  0  0  0  0  0  0  0  0
    5.6070    1.5960   18.6340 H   0  0  0  0  0  0  0  0  0  0  0  0
    9.0970   -0.8390   18.7660 H   0  0  0  0  0  0  0  0  0  0  0  0
    7.3300    0.6340   23.1690 H   0  0  0  0  0  0  0  0  0  0  0  0
    8.8460    1.6100   23.1070 H   0  0  0  0  0  0  0  0  0  0  0  0
    7.2440    2.3840   22.8830 H   0  0  0  0  0  0  0  0  0  0  0  0
    8.0470    4.2560   29.7410 H   0  0  0  0  0  0  0  0  0  0  0  0
    9.3280    5.1000   30.6890 H   0  0  0  0  0  0  0  0  0  0  0  0
    8.9980    3.3040   30.7600 H   0  0  0  0  0  0  0  0  0  0  0  0
   11.3180   -3.1230   22.3090 H   0  0  0  0  0  0  0  0  0  0  0  0
   10.5080   -2.3060   23.6020 H   0  0  0  0  0  0  0  0  0  0  0  0
   11.7320    5.4340   25.8950 H   0  0  0  0  0  0  0  0  0  0  0  0
   10.5660    5.2840   27.1790 H   0  0  0  0  0  0  0  0  0  0  0  0
   10.2330    0.3220   22.0020 H   0  0  0  0  0  0  0  0  0  0  0  0
  8 24  2  0  0  0  0
  9 24  1  0  0  0  0
  8 39  1  0  0  0  0
  9 40  1  0  0  0  0
  3  8  1  0  0  0  0
  9 14  2  0  0  0  0
  3 34  1  0  0  0  0
  3 11  2  0  0  0  0
 11 14  1  0  0  0  0
 14 25  1  0  0  0  0
  6 37  1  0  0  0  0
 19 27  2  0  0  0  0
 17 30  1  0  0  0  0
 11 20  1  0  0  0  0
 19 25  1  0  0  0  0
 25 51  1  0  0  0  0
 19 22  1  0  0  0  0
  6 17  2  0  0  0  0
  6 12  1  0  0  0  0
  7 17  1  0  0  0  0
 22 47  1  0  0  0  0
 12 22  1  0  0  0  0
 22 48  1  0  0  0  0
  4 12  2  0  0  0  0
 20 43  1  0  0  0  0
 20 42  1  0  0  0  0
 20 41  1  0  0  0  0
  7 38  1  0  0  0  0
  7 16  2  0  0  0  0
  4 16  1  0  0  0  0
  4 35  1  0  0  0  0
 16 28  1  0  0  0  0
 15 28  1  0  0  0  0
 23 31  1  0  0  0  0
  5 36  1  0  0  0  0
  5 15  2  0  0  0  0
  2 15  1  0  0  0  0
  5 13  1  0  0  0  0
 23 49  1  0  0  0  0
 13 23  1  0  0  0  0
 23 50  1  0  0  0  0
 10 13  2  0  0  0  0
  2 33  1  0  0  0  0
  1  2  2  0  0  0  0
  1 10  1  0  0  0  0
 10 18  1  0  0  0  0
  1 32  1  0  0  0  0
 18 26  2  0  0  0  0
 18 29  1  0  0  0  0
 21 29  1  0  0  0  0
 21 44  1  0  0  0  0
 21 45  1  0  0  0  0
 21 46  1  0  0  0  0
M  END
> <CID>
EN300-117814

> <SMILES>
Cc1ccncc1NC(=O)Cc2cc(cc(c2)Cl)Oc3ccc(c(c3)CBr)C(=O)OC

> <RUN>
RUN1589

> <DDG (kcal/mol)>
-0.96

> <dDDG (kcal/mol)>
0.12

$$$$
EN300-1918362
  -OEChem-08252008263D

 49 52  0     0  0  0  0  0  0999 V2000
    5.9900    3.5040   25.6070 C   0  0  0  0  0  0  0  0  0  0  0  0
    4.9970    2.5300   25.4900 C   0  0  0  0  0  0  0  0  0  0  0  0
    7.2660    3.2230   25.8760 C   0  0  0  0  0  0  0  0  0  0  0  0
    5.3370    1.2380   25.7250 C   0  0  0  0  0  0  0  0  0  0  0  0
    6.4270    2.4210   20.1030 C   0  0  0  0  0  0  0  0  0  0  0  0
   10.3820   -1.4920   23.2930 C   0  0  0  0  0  0  0  0  0  0  0  0
   11.6700   -2.3060   21.4950 C   0  0  0  0  0  0  0  0  0  0  0  0
   12.6900   -0.7670   23.0830 C   0  0  0  0  0  0  0  0  0  0  0  0
    6.1700    2.1220   18.7340 C   0  0  0  0  0  0  0  0  0  0  0  0
    7.3540    0.1540   18.8740 C   0  0  0  0  0  0  0  0  0  0  0  0
    7.6390    1.8820   26.0380 C   0  0  0  0  0  0  0  0  0  0  0  0
    7.1390    1.5140   20.8560 C   0  0  0  0  0  0  0  0  0  0  0  0
   10.4170   -2.2190   22.0750 C   0  0  0  0  0  0  0  0  0  0  0  0
    6.6270    0.8950   26.0540 C   0  0  0  0  0  0  0  0  0  0  0  0
    7.5960    0.3260   20.2690 C   0  0  0  0  0  0  0  0  0  0  0  0
   11.4510   -0.7300   23.8250 C   0  0  0  0  0  0  0  0  0  0  0  0
   12.8010   -1.5320   21.8870 C   0  0  0  0  0  0  0  0  0  0  0  0
    8.9470    1.5180   26.0180 C   0  0  0  0  0  0  0  0  0  0  0  0
    9.2310    0.1100   26.1790 C   0  0  0  0  0  0  0  0  0  0  0  0
    8.3180   -1.9820   20.7000 C   0  0  0  0  0  0  0  0  0  0  0  0
    7.4970    1.7830   22.3130 C   0  0  0  0  0  0  0  0  0  0  0  0
    9.2750   -2.9380   21.4650 C   0  0  0  0  0  0  0  0  0  0  0  0
   10.5920   -0.3320   26.0810 C   0  0  0  0  0  0  0  0  0  0  0  0
    6.6780    1.0680   18.1220 N   0  0  0  0  0  0  0  0  0  0  0  0
    6.9630   -0.3430   26.3710 N   0  0  0  0  0  0  0  0  0  0  0  0
    8.1950   -0.7990   26.4400 N   0  0  0  0  0  0  0  0  0  0  0  0
    8.1870   -0.6680   21.0690 N   0  0  0  0  0  0  0  0  0  0  0  0
    7.4190   -2.5060   19.9760 O   0  0  0  0  0  0  0  0  0  0  0  0
   11.2990    0.1210   24.8740 O   0  0  0  0  0  0  0  0  0  0  0  0
   14.1390   -1.4780   20.8510 Cl  0  0  0  0  0  0  0  0  0  0  0  0
   10.2930    2.6320   25.7900 Cl  0  0  0  0  0  0  0  0  0  0  0  0
    5.6900    4.5330   25.4320 H   0  0  0  0  0  0  0  0  0  0  0  0
    3.9780    2.7960   25.2100 H   0  0  0  0  0  0  0  0  0  0  0  0
    8.0000    4.0260   25.9020 H   0  0  0  0  0  0  0  0  0  0  0  0
    4.6210    0.4220   25.6600 H   0  0  0  0  0  0  0  0  0  0  0  0
    6.0740    3.3290   20.5940 H   0  0  0  0  0  0  0  0  0  0  0  0
    9.3960   -1.4600   23.7510 H   0  0  0  0  0  0  0  0  0  0  0  0
   11.8710   -2.8110   20.5590 H   0  0  0  0  0  0  0  0  0  0  0  0
   13.5270   -0.1870   23.4690 H   0  0  0  0  0  0  0  0  0  0  0  0
    5.5950    2.8820   18.2300 H   0  0  0  0  0  0  0  0  0  0  0  0
    7.8210   -0.6470   18.3100 H   0  0  0  0  0  0  0  0  0  0  0  0
    7.2570    2.7950   22.6450 H   0  0  0  0  0  0  0  0  0  0  0  0
    7.0290    1.0190   22.9460 H   0  0  0  0  0  0  0  0  0  0  0  0
    8.5820    1.7080   22.3820 H   0  0  0  0  0  0  0  0  0  0  0  0
    9.6950   -3.7540   20.8650 H   0  0  0  0  0  0  0  0  0  0  0  0
    8.7130   -3.4640   22.2400 H   0  0  0  0  0  0  0  0  0  0  0  0
   11.1360   -0.1320   27.0140 H   0  0  0  0  0  0  0  0  0  0  0  0
   10.5790   -1.4260   26.1000 H   0  0  0  0  0  0  0  0  0  0  0  0
    8.5150   -0.2900   21.9610 H   0  0  0  0  0  0  0  0  0  0  0  0
  9 24  2  0  0  0  0
 10 24  1  0  0  0  0
  9 40  1  0  0  0  0
 10 41  1  0  0  0  0
  5  9  1  0  0  0  0
 10 15  2  0  0  0  0
 20 28  2  0  0  0  0
  5 36  1  0  0  0  0
  5 12  2  0  0  0  0
 12 15  1  0  0  0  0
 15 27  1  0  0  0  0
  7 38  1  0  0  0  0
 20 27  1  0  0  0  0
 20 22  1  0  0  0  0
 17 30  1  0  0  0  0
 12 21  1  0  0  0  0
 22 45  1  0  0  0  0
 27 49  1  0  0  0  0
 13 22  1  0  0  0  0
 22 46  1  0  0  0  0
  7 17  2  0  0  0  0
  7 13  1  0  0  0  0
  8 17  1  0  0  0  0
  6 13  2  0  0  0  0
 21 44  1  0  0  0  0
 21 42  1  0  0  0  0
 21 43  1  0  0  0  0
  8 39  1  0  0  0  0
  8 16  2  0  0  0  0
  6 37  1  0  0  0  0
  6 16  1  0  0  0  0
 16 29  1  0  0  0  0
 23 29  1  0  0  0  0
  2 33  1  0  0  0  0
  1 32  1  0  0  0  0
  1  2  2  0  0  0  0
  2  4  1  0  0  0  0
  1  3  1  0  0  0  0
  4 35  1  0  0  0  0
  4 14  2  0  0  0  0
 18 31  1  0  0  0  0
  3 34  1  0  0  0  0
  3 11  2  0  0  0  0
 11 18  1  0  0  0  0
 18 19  2  0  0  0  0
 11 14  1  0  0  0  0
 14 25  1  0  0  0  0
 23 48  1  0  0  0  0
 19 23  1  0  0  0  0
 23 47  1  0  0  0  0
 19 26  1  0  0  0  0
 25 26  2  0  0  0  0
M  END
> <CID>
EN300-1918362

> <SMILES>
Cc1ccncc1NC(=O)Cc2cc(cc(c2)Cl)OCc3c(c4ccccc4nn3)Cl

> <RUN>
RUN3740

> <DDG (kcal/mol)>
-0.95

> <dDDG (kcal/mol)>
0.14

$$$$
EN300-87636
  -OEChem-08252008263D

 37 38  0     0  0  0  0  0  0999 V2000
    5.4310    2.9220   19.0190 C   0  0  0  0  0  0  0  0  0  0  0  0
   11.1300    1.5110   23.1680 C   0  0  0  0  0  0  0  0  0  0  0  0
   11.0260   -0.7030   23.9420 C   0  0  0  0  0  0  0  0  0  0  0  0
   13.1360    0.2850   23.4840 C   0  0  0  0  0  0  0  0  0  0  0  0
    5.8140    2.0440   17.9330 C   0  0  0  0  0  0  0  0  0  0  0  0
    7.5550    1.1020   19.1690 C   0  0  0  0  0  0  0  0  0  0  0  0
    6.1000    2.8390   20.1960 C   0  0  0  0  0  0  0  0  0  0  0  0
   10.3480    0.4110   23.5690 C   0  0  0  0  0  0  0  0  0  0  0  0
    7.2320    1.9460   20.2750 C   0  0  0  0  0  0  0  0  0  0  0  0
   12.5020    1.4560   23.1020 C   0  0  0  0  0  0  0  0  0  0  0  0
   12.3960   -0.7860   23.8330 C   0  0  0  0  0  0  0  0  0  0  0  0
    8.3440    0.5970   22.0300 C   0  0  0  0  0  0  0  0  0  0  0  0
    5.7830    3.6600   21.4030 C   0  0  0  0  0  0  0  0  0  0  0  0
    8.8020    0.4350   23.4600 C   0  0  0  0  0  0  0  0  0  0  0  0
   14.6170    2.6670   22.6440 C   0  0  0  0  0  0  0  0  0  0  0  0
    6.8180    1.1540   18.0290 N   0  0  0  0  0  0  0  0  0  0  0  0
    7.8350    1.8090   21.5290 N   0  0  0  0  0  0  0  0  0  0  0  0
   15.0800    4.0480   22.7560 N   0  0  0  0  0  0  0  0  0  0  0  0
    8.6200   -0.3320   21.3190 O   0  0  0  0  0  0  0  0  0  0  0  0
   14.9750    4.5230   23.9060 O   0  0  0  0  0  0  0  0  0  0  0  0
   15.4290    4.7080   21.7480 O   0  0  0  0  0  0  0  0  0  0  0  0
   13.1740    2.6100   22.7840 O   0  0  0  0  0  0  0  0  0  0  0  0
   13.2030   -2.1770   24.3910 Cl  0  0  0  0  0  0  0  0  0  0  0  0
    4.5910    3.5600   18.7490 H   0  0  0  0  0  0  0  0  0  0  0  0
   10.5720    2.3980   22.8690 H   0  0  0  0  0  0  0  0  0  0  0  0
   10.4960   -1.6140   24.2140 H   0  0  0  0  0  0  0  0  0  0  0  0
   14.2030    0.1660   23.2780 H   0  0  0  0  0  0  0  0  0  0  0  0
    5.3120    2.1060   16.9690 H   0  0  0  0  0  0  0  0  0  0  0  0
    8.4260    0.4590   19.1290 H   0  0  0  0  0  0  0  0  0  0  0  0
    5.9060    3.1490   22.3710 H   0  0  0  0  0  0  0  0  0  0  0  0
    6.5460    4.4450   21.3830 H   0  0  0  0  0  0  0  0  0  0  0  0
    4.7910    4.1170   21.3020 H   0  0  0  0  0  0  0  0  0  0  0  0
    8.3530   -0.5140   23.7550 H   0  0  0  0  0  0  0  0  0  0  0  0
    8.3550    1.2840   23.9830 H   0  0  0  0  0  0  0  0  0  0  0  0
   14.9840    2.2780   21.6880 H   0  0  0  0  0  0  0  0  0  0  0  0
   15.1450    2.0610   23.3870 H   0  0  0  0  0  0  0  0  0  0  0  0
    7.5310    2.4530   22.2630 H   0  0  0  0  0  0  0  0  0  0  0  0
  5 28  1  0  0  0  0
  5 16  2  0  0  0  0
  1  5  1  0  0  0  0
  6 16  1  0  0  0  0
  1 24  1  0  0  0  0
  1  7  2  0  0  0  0
  6 29  1  0  0  0  0
  6  9  2  0  0  0  0
  7  9  1  0  0  0  0
  7 13  1  0  0  0  0
  9 17  1  0  0  0  0
 13 32  1  0  0  0  0
 12 19  2  0  0  0  0
 13 31  1  0  0  0  0
 13 30  1  0  0  0  0
 12 17  1  0  0  0  0
 17 37  1  0  0  0  0
 15 35  1  0  0  0  0
 18 21  2  0  0  0  0
 12 14  1  0  0  0  0
 15 18  1  0  0  0  0
 15 22  1  0  0  0  0
 15 36  1  0  0  0  0
 18 20  2  0  0  0  0
 10 22  1  0  0  0  0
  2 25  1  0  0  0  0
  2 10  2  0  0  0  0
  4 10  1  0  0  0  0
  2  8  1  0  0  0  0
  4 27  1  0  0  0  0
  8 14  1  0  0  0  0
 14 33  1  0  0  0  0
 14 34  1  0  0  0  0
  4 11  2  0  0  0  0
  3  8  2  0  0  0  0
  3 11  1  0  0  0  0
 11 23  1  0  0  0  0
  3 26  1  0  0  0  0
M  END
> <CID>
EN300-87636

> <SMILES>
Cc1ccncc1NC(=O)Cc2cc(cc(c2)Cl)OCN(=O)=O

> <RUN>
RUN786

> <DDG (kcal/mol)>
-0.95

> <dDDG (kcal/mol)>
0.08

$$$$
EN300-1296572
  -OEChem-08252008263D

 56 59  0     0  0  0  0  0  0999 V2000
    5.4930    2.5470   27.4370 C   0  0  0  0  0  0  0  0  0  0  0  0
    7.5840    3.2630   28.3810 C   0  0  0  0  0  0  0  0  0  0  0  0
    4.7770    3.5330   28.2230 C   0  0  0  0  0  0  0  0  0  0  0  0
    6.8790    4.3070   29.1230 C   0  0  0  0  0  0  0  0  0  0  0  0
    5.9850    1.3690   19.5460 C   0  0  0  0  0  0  0  0  0  0  0  0
    9.3500   -2.7410   23.7890 C   0  0  0  0  0  0  0  0  0  0  0  0
   10.7270   -3.0700   21.8190 C   0  0  0  0  0  0  0  0  0  0  0  0
   11.7060   -2.0190   23.7430 C   0  0  0  0  0  0  0  0  0  0  0  0
    5.6480    1.0620   18.2450 C   0  0  0  0  0  0  0  0  0  0  0  0
    7.8220   -0.1130   25.4560 C   0  0  0  0  0  0  0  0  0  0  0  0
    6.5030   -0.9770   18.6430 C   0  0  0  0  0  0  0  0  0  0  0  0
    6.7740    0.5390   20.3710 C   0  0  0  0  0  0  0  0  0  0  0  0
    9.4810   -3.2220   22.4640 C   0  0  0  0  0  0  0  0  0  0  0  0
    8.6220   -0.4600   26.5700 C   0  0  0  0  0  0  0  0  0  0  0  0
    6.8720    2.4420   27.5430 C   0  0  0  0  0  0  0  0  0  0  0  0
    6.9440   -0.7680   19.9090 C   0  0  0  0  0  0  0  0  0  0  0  0
    5.4960    4.3740   29.0500 C   0  0  0  0  0  0  0  0  0  0  0  0
   10.4760   -2.1410   24.4530 C   0  0  0  0  0  0  0  0  0  0  0  0
   11.8730   -2.5840   22.4670 C   0  0  0  0  0  0  0  0  0  0  0  0
    8.4540    0.4890   27.5120 C   0  0  0  0  0  0  0  0  0  0  0  0
    7.6200   -3.0920   20.6530 C   0  0  0  0  0  0  0  0  0  0  0  0
    7.1800    1.0420   21.7810 C   0  0  0  0  0  0  0  0  0  0  0  0
    8.8920    0.5530   28.9570 C   0  0  0  0  0  0  0  0  0  0  0  0
    8.2960   -3.9150   21.7780 C   0  0  0  0  0  0  0  0  0  0  0  0
    9.4840   -1.7530   26.6380 C   0  0  0  0  0  0  0  0  0  0  0  0
    5.9720   -0.1360   17.8100 N   0  0  0  0  0  0  0  0  0  0  0  0
    7.2940    1.0670   25.6540 N   0  0  0  0  0  0  0  0  0  0  0  0
    7.5440    1.3870   26.9380 N   0  0  0  0  0  0  0  0  0  0  0  0
    7.5110   -1.7030   20.8230 N   0  0  0  0  0  0  0  0  0  0  0  0
    6.7790   -3.5890   19.8660 O   0  0  0  0  0  0  0  0  0  0  0  0
    4.8280    5.3470   29.6730 O   0  0  0  0  0  0  0  0  0  0  0  0
   10.5850   -1.6280   25.7320 O   0  0  0  0  0  0  0  0  0  0  0  0
   13.4350   -2.6100   21.5750 Cl  0  0  0  0  0  0  0  0  0  0  0  0
    4.8590    1.9040   26.8390 H   0  0  0  0  0  0  0  0  0  0  0  0
    8.6580    3.3850   28.4510 H   0  0  0  0  0  0  0  0  0  0  0  0
    3.6950    3.5060   28.2260 H   0  0  0  0  0  0  0  0  0  0  0  0
    7.4750    5.0640   29.6280 H   0  0  0  0  0  0  0  0  0  0  0  0
    5.7300    2.3250   19.9900 H   0  0  0  0  0  0  0  0  0  0  0  0
    8.4160   -2.8850   24.3170 H   0  0  0  0  0  0  0  0  0  0  0  0
   10.7720   -3.4760   20.8070 H   0  0  0  0  0  0  0  0  0  0  0  0
   12.6640   -1.6960   24.1390 H   0  0  0  0  0  0  0  0  0  0  0  0
    5.0620    1.7270   17.6090 H   0  0  0  0  0  0  0  0  0  0  0  0
    7.9090   -0.6250   24.4980 H   0  0  0  0  0  0  0  0  0  0  0  0
    6.3990   -1.9970   18.2750 H   0  0  0  0  0  0  0  0  0  0  0  0
    7.0180    2.1230   21.8770 H   0  0  0  0  0  0  0  0  0  0  0  0
    6.4440    0.6010   22.4550 H   0  0  0  0  0  0  0  0  0  0  0  0
    8.2330    0.7860   21.9490 H   0  0  0  0  0  0  0  0  0  0  0  0
    9.5650   -0.2580   29.2430 H   0  0  0  0  0  0  0  0  0  0  0  0
    9.5340    1.4220   29.0890 H   0  0  0  0  0  0  0  0  0  0  0  0
    8.0220    0.5570   29.6180 H   0  0  0  0  0  0  0  0  0  0  0  0
    8.7630   -4.7820   21.3070 H   0  0  0  0  0  0  0  0  0  0  0  0
    7.5810   -4.2150   22.5520 H   0  0  0  0  0  0  0  0  0  0  0  0
    9.7640   -1.8910   27.6850 H   0  0  0  0  0  0  0  0  0  0  0  0
    8.8450   -2.6140   26.4330 H   0  0  0  0  0  0  0  0  0  0  0  0
    8.1190   -1.2260   21.5000 H   0  0  0  0  0  0  0  0  0  0  0  0
    4.1300    5.6140   29.0460 H   0  0  0  0  0  0  0  0  0  0  0  0
  9 42  1  0  0  0  0
  9 26  2  0  0  0  0
 11 26  1  0  0  0  0
  5  9  1  0  0  0  0
 11 44  1  0  0  0  0
 11 16  2  0  0  0  0
  5 38  1  0  0  0  0
  5 12  2  0  0  0  0
 21 30  2  0  0  0  0
 12 16  1  0  0  0  0
 16 29  1  0  0  0  0
 12 22  1  0  0  0  0
 21 29  1  0  0  0  0
 21 24  1  0  0  0  0
  7 40  1  0  0  0  0
 29 55  1  0  0  0  0
 24 51  1  0  0  0  0
 19 33  1  0  0  0  0
 13 24  1  0  0  0  0
 24 52  1  0  0  0  0
 22 45  1  0  0  0  0
 22 47  1  0  0  0  0
 22 46  1  0  0  0  0
  7 13  2  0  0  0  0
  7 19  1  0  0  0  0
  6 13  1  0  0  0  0
  8 19  2  0  0  0  0
  8 41  1  0  0  0  0
  8 18  1  0  0  0  0
  6 39  1  0  0  0  0
  6 18  2  0  0  0  0
 18 32  1  0  0  0  0
 10 43  1  0  0  0  0
 10 27  2  0  0  0  0
 10 14  1  0  0  0  0
 27 28  1  0  0  0  0
 25 32  1  0  0  0  0
 25 54  1  0  0  0  0
 14 25  1  0  0  0  0
 14 20  2  0  0  0  0
 25 53  1  0  0  0  0
  1 34  1  0  0  0  0
 20 28  1  0  0  0  0
 15 28  1  0  0  0  0
  1 15  2  0  0  0  0
  1  3  1  0  0  0  0
 20 23  1  0  0  0  0
  2 15  1  0  0  0  0
  3 36  1  0  0  0  0
  3 17  2  0  0  0  0
  2 35  1  0  0  0  0
  2  4  2  0  0  0  0
 23 49  1  0  0  0  0
 23 48  1  0  0  0  0
 23 50  1  0  0  0  0
 31 56  1  0  0  0  0
  4 17  1  0  0  0  0
 17 31  1  0  0  0  0
  4 37  1  0  0  0  0
M  END
> <CID>
EN300-1296572

> <SMILES>
Cc1ccncc1NC(=O)Cc2cc(cc(c2)Cl)OCc3cnn(c3C)c4ccc(cc4)O

> <RUN>
RUN1383

> <DDG (kcal/mol)>
-0.94

> <dDDG (kcal/mol)>
0.15

$$$$
EN300-1910562
  -OEChem-08252008263D

 50 52  0     0  0  0  0  0  0999 V2000
   11.9120    1.5230   24.4150 C   0  0  0  0  0  0  0  0  0  0  0  0
   11.6230    2.8580   24.5400 C   0  0  0  0  0  0  0  0  0  0  0  0
    6.2650    2.1950   18.9470 C   0  0  0  0  0  0  0  0  0  0  0  0
   13.8920    1.9560   23.1390 C   0  0  0  0  0  0  0  0  0  0  0  0
   11.0290   -1.6530   22.2620 C   0  0  0  0  0  0  0  0  0  0  0  0
   10.4050   -3.5700   21.0070 C   0  0  0  0  0  0  0  0  0  0  0  0
   12.5920   -2.6740   20.7990 C   0  0  0  0  0  0  0  0  0  0  0  0
    6.2510    1.6170   17.6790 C   0  0  0  0  0  0  0  0  0  0  0  0
    7.2270   -0.2580   18.6540 C   0  0  0  0  0  0  0  0  0  0  0  0
   13.0180    0.9930   23.6750 C   0  0  0  0  0  0  0  0  0  0  0  0
    6.9150    1.6490   20.0810 C   0  0  0  0  0  0  0  0  0  0  0  0
   10.0520   -2.5920   21.9170 C   0  0  0  0  0  0  0  0  0  0  0  0
    7.4440    0.3240   19.9330 C   0  0  0  0  0  0  0  0  0  0  0  0
   12.4430    3.7790   23.8850 C   0  0  0  0  0  0  0  0  0  0  0  0
   12.3350   -1.7630   21.8120 C   0  0  0  0  0  0  0  0  0  0  0  0
   13.5640    3.3570   23.1000 C   0  0  0  0  0  0  0  0  0  0  0  0
   11.6110   -3.5470   20.3730 C   0  0  0  0  0  0  0  0  0  0  0  0
    7.7550   -1.7440   21.3200 C   0  0  0  0  0  0  0  0  0  0  0  0
    7.1270    2.4700   21.2840 C   0  0  0  0  0  0  0  0  0  0  0  0
   12.2690    5.7520   25.0830 C   0  0  0  0  0  0  0  0  0  0  0  0
    8.6140   -2.4400   22.4440 C   0  0  0  0  0  0  0  0  0  0  0  0
   13.3040   -0.5440   23.5870 C   0  0  0  0  0  0  0  0  0  0  0  0
    6.6960    0.3540   17.5980 N   0  0  0  0  0  0  0  0  0  0  0  0
    8.0600   -0.4080   20.9830 N   0  0  0  0  0  0  0  0  0  0  0  0
    6.7740   -2.3480   20.7980 O   0  0  0  0  0  0  0  0  0  0  0  0
   14.4170    4.2190   22.5150 O   0  0  0  0  0  0  0  0  0  0  0  0
   12.0530    5.0980   23.8190 O   0  0  0  0  0  0  0  0  0  0  0  0
   13.3640   -0.8910   22.1990 O   0  0  0  0  0  0  0  0  0  0  0  0
   11.9030   -4.6870   19.1650 Cl  0  0  0  0  0  0  0  0  0  0  0  0
   11.1160    0.8830   24.7690 H   0  0  0  0  0  0  0  0  0  0  0  0
   10.7220    3.1610   25.0650 H   0  0  0  0  0  0  0  0  0  0  0  0
    5.9410    3.2260   19.0380 H   0  0  0  0  0  0  0  0  0  0  0  0
   14.7960    1.6410   22.6420 H   0  0  0  0  0  0  0  0  0  0  0  0
   10.7920   -0.7890   22.8730 H   0  0  0  0  0  0  0  0  0  0  0  0
    9.6470   -4.2570   20.6310 H   0  0  0  0  0  0  0  0  0  0  0  0
   13.5200   -2.6450   20.2440 H   0  0  0  0  0  0  0  0  0  0  0  0
    5.7720    2.0760   16.8150 H   0  0  0  0  0  0  0  0  0  0  0  0
    7.5050   -1.3060   18.5940 H   0  0  0  0  0  0  0  0  0  0  0  0
    6.1500    2.8660   21.5950 H   0  0  0  0  0  0  0  0  0  0  0  0
    7.4680    2.0300   22.2260 H   0  0  0  0  0  0  0  0  0  0  0  0
    7.7500    3.3280   21.0180 H   0  0  0  0  0  0  0  0  0  0  0  0
   11.4300    5.4510   25.7120 H   0  0  0  0  0  0  0  0  0  0  0  0
   13.1860    5.3730   25.5470 H   0  0  0  0  0  0  0  0  0  0  0  0
   12.3070    6.8430   24.9600 H   0  0  0  0  0  0  0  0  0  0  0  0
    8.2190   -3.4430   22.6670 H   0  0  0  0  0  0  0  0  0  0  0  0
    8.6400   -1.8860   23.3850 H   0  0  0  0  0  0  0  0  0  0  0  0
   14.2410   -0.7080   24.1370 H   0  0  0  0  0  0  0  0  0  0  0  0
   12.5250   -1.0070   24.1970 H   0  0  0  0  0  0  0  0  0  0  0  0
    8.6140    0.1830   21.5950 H   0  0  0  0  0  0  0  0  0  0  0  0
   14.1140    5.1030   22.8040 H   0  0  0  0  0  0  0  0  0  0  0  0
  8 37  1  0  0  0  0
  8 23  2  0  0  0  0
  9 23  1  0  0  0  0
  3  8  1  0  0  0  0
  9 38  1  0  0  0  0
  9 13  2  0  0  0  0
  3 32  1  0  0  0  0
  3 11  2  0  0  0  0
 17 29  1  0  0  0  0
 11 13  1  0  0  0  0
 13 24  1  0  0  0  0
 11 19  1  0  0  0  0
  7 36  1  0  0  0  0
  7 17  2  0  0  0  0
  6 17  1  0  0  0  0
  6 35  1  0  0  0  0
 18 25  2  0  0  0  0
  7 15  1  0  0  0  0
 18 24  1  0  0  0  0
 24 49  1  0  0  0  0
  6 12  2  0  0  0  0
 19 41  1  0  0  0  0
 19 39  1  0  0  0  0
 19 40  1  0  0  0  0
 18 21  1  0  0  0  0
 15 28  1  0  0  0  0
  5 15  2  0  0  0  0
  5 12  1  0  0  0  0
 12 21  1  0  0  0  0
 22 28  1  0  0  0  0
  5 34  1  0  0  0  0
 21 45  1  0  0  0  0
 21 46  1  0  0  0  0
 26 50  1  0  0  0  0
 16 26  1  0  0  0  0
  4 33  1  0  0  0  0
  4 16  2  0  0  0  0
 14 16  1  0  0  0  0
  4 10  1  0  0  0  0
 10 22  1  0  0  0  0
 22 47  1  0  0  0  0
 22 48  1  0  0  0  0
  1 10  2  0  0  0  0
 14 27  1  0  0  0  0
 20 27  1  0  0  0  0
  2 14  2  0  0  0  0
  1  2  1  0  0  0  0
  1 30  1  0  0  0  0
  2 31  1  0  0  0  0
 20 44  1  0  0  0  0
 20 43  1  0  0  0  0
 20 42  1  0  0  0  0
M  END
> <CID>
EN300-1910562

> <SMILES>
Cc1ccncc1NC(=O)Cc2cc(cc(c2)Cl)OCc3ccc(c(c3)O)OC

> <RUN>
RUN2172

> <DDG (kcal/mol)>
-0.93

> <dDDG (kcal/mol)>
0.14

$$$$
EN300-1912582
  -OEChem-08252008263D

 48 50  0     0  0  0  0  0  0999 V2000
   13.3160   -0.9310   25.6430 C   0  0  0  0  0  0  0  0  0  0  0  0
   13.4450   -1.1080   24.3130 C   0  0  0  0  0  0  0  0  0  0  0  0
    6.0380    2.1590   18.9190 C   0  0  0  0  0  0  0  0  0  0  0  0
   12.6460    1.3190   25.3630 C   0  0  0  0  0  0  0  0  0  0  0  0
   11.1910   -1.3030   22.0820 C   0  0  0  0  0  0  0  0  0  0  0  0
   10.8060   -3.4610   21.0470 C   0  0  0  0  0  0  0  0  0  0  0  0
   12.9860   -2.3770   20.8690 C   0  0  0  0  0  0  0  0  0  0  0  0
    6.0410    1.5680   17.6230 C   0  0  0  0  0  0  0  0  0  0  0  0
    7.4130   -0.1490   18.3560 C   0  0  0  0  0  0  0  0  0  0  0  0
   12.8970    0.2430   26.2170 C   0  0  0  0  0  0  0  0  0  0  0  0
    6.8030    1.6250   19.9180 C   0  0  0  0  0  0  0  0  0  0  0  0
   12.9370    1.2200   23.9230 C   0  0  0  0  0  0  0  0  0  0  0  0
   10.3140   -2.3320   21.7300 C   0  0  0  0  0  0  0  0  0  0  0  0
    7.5040    0.3940   19.6960 C   0  0  0  0  0  0  0  0  0  0  0  0
   13.2950   -0.0460   23.4350 C   0  0  0  0  0  0  0  0  0  0  0  0
   12.5470   -1.2880   21.6670 C   0  0  0  0  0  0  0  0  0  0  0  0
   12.1370   -3.4200   20.5790 C   0  0  0  0  0  0  0  0  0  0  0  0
    8.0770   -1.6270   20.9880 C   0  0  0  0  0  0  0  0  0  0  0  0
   12.4470    0.2350   27.6710 C   0  0  0  0  0  0  0  0  0  0  0  0
    6.7030    2.3160   21.2230 C   0  0  0  0  0  0  0  0  0  0  0  0
    8.8390   -2.2810   22.1290 C   0  0  0  0  0  0  0  0  0  0  0  0
   12.6930    2.4340   22.9510 C   0  0  0  0  0  0  0  0  0  0  0  0
    6.7650    0.4680   17.3660 N   0  0  0  0  0  0  0  0  0  0  0  0
    8.2080   -0.2330   20.7110 N   0  0  0  0  0  0  0  0  0  0  0  0
    7.2760   -2.3180   20.3440 O   0  0  0  0  0  0  0  0  0  0  0  0
   13.3860   -0.2480   22.0660 O   0  0  0  0  0  0  0  0  0  0  0  0
   12.7790   -4.6870   19.5270 Cl  0  0  0  0  0  0  0  0  0  0  0  0
   10.9410    2.1660   22.0020 Br  0  0  0  0  0  0  0  0  0  0  0  0
   13.4420   -1.7880   26.3000 H   0  0  0  0  0  0  0  0  0  0  0  0
   13.6540   -2.1260   23.9960 H   0  0  0  0  0  0  0  0  0  0  0  0
    5.5130    3.0920   19.1110 H   0  0  0  0  0  0  0  0  0  0  0  0
   12.4380    2.3570   25.6010 H   0  0  0  0  0  0  0  0  0  0  0  0
   10.7800   -0.5160   22.6950 H   0  0  0  0  0  0  0  0  0  0  0  0
   10.1490   -4.3040   20.8740 H   0  0  0  0  0  0  0  0  0  0  0  0
   13.9800   -2.4710   20.4460 H   0  0  0  0  0  0  0  0  0  0  0  0
    5.4580    1.8610   16.7490 H   0  0  0  0  0  0  0  0  0  0  0  0
    8.0000   -1.0290   18.1200 H   0  0  0  0  0  0  0  0  0  0  0  0
   11.7420   -0.5990   27.7250 H   0  0  0  0  0  0  0  0  0  0  0  0
   13.2270    0.1000   28.4320 H   0  0  0  0  0  0  0  0  0  0  0  0
   11.8910    1.1600   27.8810 H   0  0  0  0  0  0  0  0  0  0  0  0
    5.9450    1.8670   21.8830 H   0  0  0  0  0  0  0  0  0  0  0  0
    7.6760    2.3090   21.7190 H   0  0  0  0  0  0  0  0  0  0  0  0
    6.3830    3.3580   21.1300 H   0  0  0  0  0  0  0  0  0  0  0  0
    8.4300   -3.2850   22.2130 H   0  0  0  0  0  0  0  0  0  0  0  0
    8.8390   -1.7660   23.1010 H   0  0  0  0  0  0  0  0  0  0  0  0
   12.5400    3.3060   23.6060 H   0  0  0  0  0  0  0  0  0  0  0  0
   13.5600    2.5480   22.2980 H   0  0  0  0  0  0  0  0  0  0  0  0
    8.7820    0.2670   21.3880 H   0  0  0  0  0  0  0  0  0  0  0  0
  8 36  1  0  0  0  0
  8 23  2  0  0  0  0
  9 23  1  0  0  0  0
  3  8  1  0  0  0  0
  9 37  1  0  0  0  0
  9 14  2  0  0  0  0
  3 31  1  0  0  0  0
  3 11  2  0  0  0  0
 17 27  1  0  0  0  0
 11 14  1  0  0  0  0
 14 24  1  0  0  0  0
 11 20  1  0  0  0  0
 18 25  2  0  0  0  0
  7 35  1  0  0  0  0
  7 17  2  0  0  0  0
  6 17  1  0  0  0  0
 18 24  1  0  0  0  0
 24 48  1  0  0  0  0
  7 16  1  0  0  0  0
  6 34  1  0  0  0  0
 18 21  1  0  0  0  0
  6 13  2  0  0  0  0
 20 43  1  0  0  0  0
 20 42  1  0  0  0  0
 20 41  1  0  0  0  0
 16 26  1  0  0  0  0
  5 16  2  0  0  0  0
  5 13  1  0  0  0  0
 13 21  1  0  0  0  0
 22 28  1  0  0  0  0
 15 26  1  0  0  0  0
  5 33  1  0  0  0  0
 21 44  1  0  0  0  0
 21 45  1  0  0  0  0
 22 47  1  0  0  0  0
 22 46  1  0  0  0  0
 12 22  1  0  0  0  0
 12 15  2  0  0  0  0
  2 15  1  0  0  0  0
  4 12  1  0  0  0  0
  2 30  1  0  0  0  0
  1  2  2  0  0  0  0
  4 32  1  0  0  0  0
  4 10  2  0  0  0  0
  1 10  1  0  0  0  0
  1 29  1  0  0  0  0
 10 19  1  0  0  0  0
 19 38  1  0  0  0  0
 19 40  1  0  0  0  0
 19 39  1  0  0  0  0
M  END
> <CID>
EN300-1912582

> <SMILES>
Cc1ccc(c(c1)CBr)Oc2cc(cc(c2)Cl)CC(=O)Nc3cnccc3C

> <RUN>
RUN1011

> <DDG (kcal/mol)>
-0.92

> <dDDG (kcal/mol)>
0.14

$$$$
EN300-1461330
  -OEChem-08252008263D

 67 70  0     0  0  0  0  0  0999 V2000
    6.1900    2.6450   20.0680 C   0  0  0  0  0  0  0  0  0  0  0  0
   10.2190   -0.7330   23.5890 C   0  0  0  0  0  0  0  0  0  0  0  0
   11.1710   -2.0850   21.7720 C   0  0  0  0  0  0  0  0  0  0  0  0
   12.5260   -0.3870   22.8900 C   0  0  0  0  0  0  0  0  0  0  0  0
    6.1950    2.3040   18.7420 C   0  0  0  0  0  0  0  0  0  0  0  0
    7.1260    0.1830   19.1320 C   0  0  0  0  0  0  0  0  0  0  0  0
   11.0950    3.9280   26.0720 C   0  0  0  0  0  0  0  0  0  0  0  0
    6.6900    1.7600   21.0420 C   0  0  0  0  0  0  0  0  0  0  0  0
   10.0790   -1.7210   22.5890 C   0  0  0  0  0  0  0  0  0  0  0  0
   11.5080    3.4030   24.8540 C   0  0  0  0  0  0  0  0  0  0  0  0
    7.2290    0.5370   20.5110 C   0  0  0  0  0  0  0  0  0  0  0  0
   11.3710   -0.0400   23.7760 C   0  0  0  0  0  0  0  0  0  0  0  0
   12.4740   -1.4710   21.9570 C   0  0  0  0  0  0  0  0  0  0  0  0
   12.5560    4.2260   24.3830 C   0  0  0  0  0  0  0  0  0  0  0  0
    7.8260   -1.6210   21.4360 C   0  0  0  0  0  0  0  0  0  0  0  0
   11.7630    5.2120   28.6940 C   0  0  0  0  0  0  0  0  0  0  0  0
   12.4110    7.2480   27.2150 C   0  0  0  0  0  0  0  0  0  0  0  0
   11.6790    6.0380   29.9050 C   0  0  0  0  0  0  0  0  0  0  0  0
   12.4150    8.0870   28.4690 C   0  0  0  0  0  0  0  0  0  0  0  0
   11.5240    5.9890   27.3300 C   0  0  0  0  0  0  0  0  0  0  0  0
   12.5660    7.3070   29.8000 C   0  0  0  0  0  0  0  0  0  0  0  0
    6.6320    2.1560   22.4840 C   0  0  0  0  0  0  0  0  0  0  0  0
   13.3990    4.0420   23.1310 C   0  0  0  0  0  0  0  0  0  0  0  0
   14.0360    6.8370   29.8990 C   0  0  0  0  0  0  0  0  0  0  0  0
   12.3230    8.3090   30.9200 C   0  0  0  0  0  0  0  0  0  0  0  0
    8.7760   -2.3740   22.4050 C   0  0  0  0  0  0  0  0  0  0  0  0
   10.8730    2.2840   24.0680 C   0  0  0  0  0  0  0  0  0  0  0  0
    6.6130    1.0910   18.2470 N   0  0  0  0  0  0  0  0  0  0  0  0
   12.7710    5.2170   25.2240 N   0  0  0  0  0  0  0  0  0  0  0  0
   11.8560    5.0590   26.2290 N   0  0  0  0  0  0  0  0  0  0  0  0
    7.8100   -0.2900   21.4340 N   0  0  0  0  0  0  0  0  0  0  0  0
    6.9640   -2.2730   20.8330 O   0  0  0  0  0  0  0  0  0  0  0  0
   11.5060    1.1080   24.5690 O   0  0  0  0  0  0  0  0  0  0  0  0
   13.9190   -1.8480   21.0400 Cl  0  0  0  0  0  0  0  0  0  0  0  0
    5.7270    3.5690   20.4040 H   0  0  0  0  0  0  0  0  0  0  0  0
    9.4290   -0.5130   24.3100 H   0  0  0  0  0  0  0  0  0  0  0  0
   11.0340   -2.8410   21.0120 H   0  0  0  0  0  0  0  0  0  0  0  0
   13.3800    0.2630   23.0120 H   0  0  0  0  0  0  0  0  0  0  0  0
    5.7080    3.0340   18.1050 H   0  0  0  0  0  0  0  0  0  0  0  0
    7.6100   -0.7050   18.7250 H   0  0  0  0  0  0  0  0  0  0  0  0
   10.2630    3.5100   26.6200 H   0  0  0  0  0  0  0  0  0  0  0  0
   12.7070    4.6630   28.6520 H   0  0  0  0  0  0  0  0  0  0  0  0
   11.0140    4.4230   28.8010 H   0  0  0  0  0  0  0  0  0  0  0  0
   12.0880    7.8910   26.3960 H   0  0  0  0  0  0  0  0  0  0  0  0
   13.4370    6.9240   27.0360 H   0  0  0  0  0  0  0  0  0  0  0  0
   10.6420    6.3320   30.0860 H   0  0  0  0  0  0  0  0  0  0  0  0
   12.0200    5.4570   30.7620 H   0  0  0  0  0  0  0  0  0  0  0  0
   13.2050    8.8350   28.3440 H   0  0  0  0  0  0  0  0  0  0  0  0
   11.4620    8.6250   28.5000 H   0  0  0  0  0  0  0  0  0  0  0  0
   10.4840    6.3210   27.2190 H   0  0  0  0  0  0  0  0  0  0  0  0
    6.8230    3.2260   22.6510 H   0  0  0  0  0  0  0  0  0  0  0  0
    5.6700    1.9550   22.9800 H   0  0  0  0  0  0  0  0  0  0  0  0
    7.4730    1.6400   22.9500 H   0  0  0  0  0  0  0  0  0  0  0  0
   13.7770    3.0360   22.9860 H   0  0  0  0  0  0  0  0  0  0  0  0
   12.8190    4.3300   22.2520 H   0  0  0  0  0  0  0  0  0  0  0  0
   14.3540    4.5710   23.2510 H   0  0  0  0  0  0  0  0  0  0  0  0
   14.2630    6.4810   28.8990 H   0  0  0  0  0  0  0  0  0  0  0  0
   14.0630    5.9770   30.5790 H   0  0  0  0  0  0  0  0  0  0  0  0
   14.7550    7.6230   30.1910 H   0  0  0  0  0  0  0  0  0  0  0  0
   12.3410    7.7820   31.8750 H   0  0  0  0  0  0  0  0  0  0  0  0
   11.4150    8.8760   30.6900 H   0  0  0  0  0  0  0  0  0  0  0  0
   13.1460    9.0100   31.0790 H   0  0  0  0  0  0  0  0  0  0  0  0
    8.9090   -3.4100   22.0850 H   0  0  0  0  0  0  0  0  0  0  0  0
    8.2920   -2.5620   23.3730 H   0  0  0  0  0  0  0  0  0  0  0  0
    9.8160    2.2630   24.3430 H   0  0  0  0  0  0  0  0  0  0  0  0
   11.0680    2.5370   23.0200 H   0  0  0  0  0  0  0  0  0  0  0  0
    8.3490    0.0390   22.2340 H   0  0  0  0  0  0  0  0  0  0  0  0
  5 39  1  0  0  0  0
  5 28  2  0  0  0  0
  6 28  1  0  0  0  0
  6 40  1  0  0  0  0
  1  5  1  0  0  0  0
  6 11  2  0  0  0  0
  1 35  1  0  0  0  0
  1  8  2  0  0  0  0
  8 11  1  0  0  0  0
 11 31  1  0  0  0  0
 15 32  2  0  0  0  0
  3 37  1  0  0  0  0
 13 34  1  0  0  0  0
  8 22  1  0  0  0  0
 15 31  1  0  0  0  0
 31 67  1  0  0  0  0
 15 26  1  0  0  0  0
  3 13  2  0  0  0  0
  3  9  1  0  0  0  0
  4 13  1  0  0  0  0
 26 63  1  0  0  0  0
 23 55  1  0  0  0  0
  9 26  1  0  0  0  0
 26 64  1  0  0  0  0
 22 51  1  0  0  0  0
 22 53  1  0  0  0  0
 22 52  1  0  0  0  0
  2  9  2  0  0  0  0
  4 38  1  0  0  0  0
  4 12  2  0  0  0  0
 23 54  1  0  0  0  0
 27 66  1  0  0  0  0
 23 56  1  0  0  0  0
 14 23  1  0  0  0  0
  2 12  1  0  0  0  0
  2 36  1  0  0  0  0
 12 33  1  0  0  0  0
 27 65  1  0  0  0  0
 27 33  1  0  0  0  0
 10 27  1  0  0  0  0
 10 14  1  0  0  0  0
 14 29  2  0  0  0  0
  7 10  2  0  0  0  0
 29 30  1  0  0  0  0
  7 30  1  0  0  0  0
  7 41  1  0  0  0  0
 20 30  1  0  0  0  0
 17 44  1  0  0  0  0
 17 45  1  0  0  0  0
 17 20  1  0  0  0  0
 17 19  1  0  0  0  0
 20 50  1  0  0  0  0
 16 20  1  0  0  0  0
 19 48  1  0  0  0  0
 19 49  1  0  0  0  0
 19 21  1  0  0  0  0
 16 42  1  0  0  0  0
 16 43  1  0  0  0  0
 16 18  1  0  0  0  0
 24 57  1  0  0  0  0
 21 24  1  0  0  0  0
 18 21  1  0  0  0  0
 21 25  1  0  0  0  0
 24 59  1  0  0  0  0
 24 58  1  0  0  0  0
 18 46  1  0  0  0  0
 18 47  1  0  0  0  0
 25 61  1  0  0  0  0
 25 62  1  0  0  0  0
 25 60  1  0  0  0  0
M  END
> <CID>
EN300-1461330

> <SMILES>
Cc1ccncc1NC(=O)Cc2cc(cc(c2)Cl)OCc3cn(nc3C)C4CCC(CC4)(C)C

> <RUN>
RUN735

> <DDG (kcal/mol)>
-0.92

> <dDDG (kcal/mol)>
0.16

$$$$
EN300-1912943
  -OEChem-08252008263D

 54 56  0     1  0  0  0  0  0999 V2000
   10.6180    5.6620   25.1790 C   0  0  0  0  0  0  0  0  0  0  0  0
    9.5560    5.1630   25.8840 C   0  0  0  0  0  0  0  0  0  0  0  0
    4.6920    2.2670   18.4170 C   0  0  0  0  0  0  0  0  0  0  0  0
    9.5960    4.8580   23.1540 C   0  0  0  0  0  0  0  0  0  0  0  0
   10.5770    1.7630   21.6670 C   0  0  0  0  0  0  0  0  0  0  0  0
   11.4420   -0.3850   22.3880 C   0  0  0  0  0  0  0  0  0  0  0  0
   12.9220    1.5570   22.2320 C   0  0  0  0  0  0  0  0  0  0  0  0
    5.0240    1.7680   17.1680 C   0  0  0  0  0  0  0  0  0  0  0  0
    7.0450    0.9300   17.9970 C   0  0  0  0  0  0  0  0  0  0  0  0
   10.7040    5.4180   23.8260 C   0  0  0  0  0  0  0  0  0  0  0  0
    5.5630    2.0210   19.5520 C   0  0  0  0  0  0  0  0  0  0  0  0
   10.2960    0.4510   21.9760 C   0  0  0  0  0  0  0  0  0  0  0  0
    6.7730    1.3980   19.3120 C   0  0  0  0  0  0  0  0  0  0  0  0
    8.4660    4.4220   25.2310 C   0  0  0  0  0  0  0  0  0  0  0  0
   11.8480    2.3720   21.7940 C   0  0  0  0  0  0  0  0  0  0  0  0
    8.5270    4.3100   23.8510 C   0  0  0  0  0  0  0  0  0  0  0  0
   12.6850    0.1650   22.4850 C   0  0  0  0  0  0  0  0  0  0  0  0
    8.3270    0.0180   20.6070 C   0  0  0  0  0  0  0  0  0  0  0  0
    5.2730    2.5260   20.9660 C   0  0  0  0  0  0  0  0  0  0  0  0
    7.3960    3.3880   27.1490 C   0  0  0  0  0  0  0  0  0  0  0  0
    8.9470   -0.1310   22.0310 C   0  0  0  0  0  0  0  0  0  0  0  0
   12.6710    4.4540   22.5770 C   0  0  0  0  0  0  0  0  0  0  0  0
   11.9740    5.7960   23.0070 C   0  0  1  0  0  0  0  0  0  0  0  0
    6.1460    1.0450   16.9790 N   0  0  0  0  0  0  0  0  0  0  0  0
    7.6190    1.1440   20.3610 N   0  0  0  0  0  0  0  0  0  0  0  0
    8.5490   -0.8070   19.7080 O   0  0  0  0  0  0  0  0  0  0  0  0
    7.5080    3.8300   23.1130 O   0  0  0  0  0  0  0  0  0  0  0  0
   11.6980    6.6730   21.9160 O   0  0  0  0  0  0  0  0  0  0  0  0
    7.3230    3.9860   25.8480 O   0  0  0  0  0  0  0  0  0  0  0  0
   11.9570    3.7450   21.5640 O   0  0  0  0  0  0  0  0  0  0  0  0
   14.0060   -0.8430   22.8650 Cl  0  0  0  0  0  0  0  0  0  0  0  0
   11.4430    6.2000   25.6340 H   0  0  0  0  0  0  0  0  0  0  0  0
    9.6730    5.3900   26.9410 H   0  0  0  0  0  0  0  0  0  0  0  0
    3.8100    2.8040   18.7320 H   0  0  0  0  0  0  0  0  0  0  0  0
    9.4980    4.8420   22.0740 H   0  0  0  0  0  0  0  0  0  0  0  0
    9.7550    2.4110   21.4130 H   0  0  0  0  0  0  0  0  0  0  0  0
   11.3230   -1.4290   22.6390 H   0  0  0  0  0  0  0  0  0  0  0  0
   13.9210    1.8670   22.5050 H   0  0  0  0  0  0  0  0  0  0  0  0
    4.1970    1.8940   16.4790 H   0  0  0  0  0  0  0  0  0  0  0  0
    7.9400    0.3930   17.6970 H   0  0  0  0  0  0  0  0  0  0  0  0
    5.1640    1.6350   21.5810 H   0  0  0  0  0  0  0  0  0  0  0  0
    5.9780    3.2790   21.3350 H   0  0  0  0  0  0  0  0  0  0  0  0
    4.2680    2.9610   20.9690 H   0  0  0  0  0  0  0  0  0  0  0  0
    7.8280    4.0260   27.9290 H   0  0  0  0  0  0  0  0  0  0  0  0
    8.0620    2.5420   26.9820 H   0  0  0  0  0  0  0  0  0  0  0  0
    6.4290    3.0060   27.4840 H   0  0  0  0  0  0  0  0  0  0  0  0
    8.9560   -1.1960   22.2860 H   0  0  0  0  0  0  0  0  0  0  0  0
    8.4040    0.2900   22.8740 H   0  0  0  0  0  0  0  0  0  0  0  0
   13.6610    4.6390   22.1320 H   0  0  0  0  0  0  0  0  0  0  0  0
   12.9020    3.8330   23.4440 H   0  0  0  0  0  0  0  0  0  0  0  0
   12.7460    6.1810   23.6690 H   0  0  0  0  0  0  0  0  0  0  0  0
    7.3800    1.6500   21.2100 H   0  0  0  0  0  0  0  0  0  0  0  0
    6.7350    3.8690   23.7060 H   0  0  0  0  0  0  0  0  0  0  0  0
   11.2650    6.1440   21.2230 H   0  0  0  0  0  0  0  0  0  0  0  0
  8 39  1  0  0  0  0
  8 24  2  0  0  0  0
  9 24  1  0  0  0  0
  3  8  1  0  0  0  0
  9 40  1  0  0  0  0
  9 13  2  0  0  0  0
  3 34  1  0  0  0  0
  3 11  2  0  0  0  0
 11 13  1  0  0  0  0
 13 25  1  0  0  0  0
 11 19  1  0  0  0  0
 18 26  2  0  0  0  0
 18 25  1  0  0  0  0
 25 52  1  0  0  0  0
 18 21  1  0  0  0  0
 19 43  1  0  0  0  0
 19 42  1  0  0  0  0
 19 41  1  0  0  0  0
 28 54  1  0  0  0  0
  5 36  1  0  0  0  0
 15 30  1  0  0  0  0
 22 30  1  0  0  0  0
  5 15  2  0  0  0  0
  5 12  1  0  0  0  0
  7 15  1  0  0  0  0
 23 28  1  0  0  0  0
 12 21  1  0  0  0  0
  6 12  2  0  0  0  0
 21 47  1  0  0  0  0
 21 48  1  0  0  0  0
  4 35  1  0  0  0  0
 22 49  1  0  0  0  0
  7 17  2  0  0  0  0
  7 38  1  0  0  0  0
  6 17  1  0  0  0  0
  6 37  1  0  0  0  0
 17 31  1  0  0  0  0
 22 23  1  0  0  0  0
 22 50  1  0  0  0  0
 23 51  1  0  0  0  0
 10 23  1  0  0  0  0
 27 53  1  0  0  0  0
 16 27  1  0  0  0  0
  4 10  2  0  0  0  0
  4 16  1  0  0  0  0
  1 10  1  0  0  0  0
 14 16  2  0  0  0  0
  1 32  1  0  0  0  0
  1  2  2  0  0  0  0
 14 29  1  0  0  0  0
  2 14  1  0  0  0  0
 20 29  1  0  0  0  0
  2 33  1  0  0  0  0
 20 45  1  0  0  0  0
 20 46  1  0  0  0  0
 20 44  1  0  0  0  0
M  END
> <CID>
EN300-1912943

> <SMILES>
Cc1ccncc1NC(=O)Cc2cc(cc(c2)Cl)OC[C@H](c3ccc(c(c3)O)OC)O

> <RUN>
RUN3195

> <DDG (kcal/mol)>
-0.91

> <dDDG (kcal/mol)>
0.20

$$$$
EN300-160173
  -OEChem-08252008263D

 49 51  0     0  0  0  0  0  0999 V2000
    4.7000    1.6060   18.1430 C   0  0  0  0  0  0  0  0  0  0  0  0
   11.0130    1.3900   23.3200 C   0  0  0  0  0  0  0  0  0  0  0  0
   11.0110   -0.7430   22.1360 C   0  0  0  0  0  0  0  0  0  0  0  0
   12.7770    4.4350   25.1890 C   0  0  0  0  0  0  0  0  0  0  0  0
   11.4670    2.5110   25.9430 C   0  0  0  0  0  0  0  0  0  0  0  0
   11.0220    4.6340   26.9220 C   0  0  0  0  0  0  0  0  0  0  0  0
   13.0210    0.1650   22.9440 C   0  0  0  0  0  0  0  0  0  0  0  0
    5.4400    1.2750   16.9850 C   0  0  0  0  0  0  0  0  0  0  0  0
    7.1050    0.4430   18.2840 C   0  0  0  0  0  0  0  0  0  0  0  0
    5.2370    1.3850   19.3840 C   0  0  0  0  0  0  0  0  0  0  0  0
   10.3960    0.3160   22.7140 C   0  0  0  0  0  0  0  0  0  0  0  0
    6.4890    0.7830   19.4480 C   0  0  0  0  0  0  0  0  0  0  0  0
   12.3590    1.2710   23.5330 C   0  0  0  0  0  0  0  0  0  0  0  0
   12.4790    3.0590   25.0710 C   0  0  0  0  0  0  0  0  0  0  0  0
   11.9230    5.2290   26.0540 C   0  0  0  0  0  0  0  0  0  0  0  0
   10.8060    3.2730   26.8910 C   0  0  0  0  0  0  0  0  0  0  0  0
   12.3730   -0.8230   22.2690 C   0  0  0  0  0  0  0  0  0  0  0  0
    8.3930    0.6720   21.0130 C   0  0  0  0  0  0  0  0  0  0  0  0
    4.4870    1.5730   20.7020 C   0  0  0  0  0  0  0  0  0  0  0  0
    8.8750    0.3860   22.4860 C   0  0  0  0  0  0  0  0  0  0  0  0
   12.6640    7.2630   24.8910 C   0  0  0  0  0  0  0  0  0  0  0  0
   12.5250    8.7540   25.0950 C   0  0  0  0  0  0  0  0  0  0  0  0
    6.5620    0.6280   17.1230 N   0  0  0  0  0  0  0  0  0  0  0  0
    7.0940    0.4500   20.6460 N   0  0  0  0  0  0  0  0  0  0  0  0
    9.1290    1.3660   20.3220 O   0  0  0  0  0  0  0  0  0  0  0  0
   13.1310    2.2930   24.1340 O   0  0  0  0  0  0  0  0  0  0  0  0
   11.9580    6.6460   25.9810 O   0  0  0  0  0  0  0  0  0  0  0  0
    9.8600    2.7390   27.6800 F   0  0  0  0  0  0  0  0  0  0  0  0
   13.1700   -2.2330   21.6830 Cl  0  0  0  0  0  0  0  0  0  0  0  0
   13.7870    9.6870   23.9170 Br  0  0  0  0  0  0  0  0  0  0  0  0
    3.7050    2.0500   18.1600 H   0  0  0  0  0  0  0  0  0  0  0  0
   10.4300    2.2650   23.6050 H   0  0  0  0  0  0  0  0  0  0  0  0
   10.5750   -1.5670   21.5750 H   0  0  0  0  0  0  0  0  0  0  0  0
   13.5860    4.9600   24.6950 H   0  0  0  0  0  0  0  0  0  0  0  0
   11.2200    1.4570   25.9050 H   0  0  0  0  0  0  0  0  0  0  0  0
   10.4220    5.2220   27.6060 H   0  0  0  0  0  0  0  0  0  0  0  0
   14.1060    0.0790   22.9060 H   0  0  0  0  0  0  0  0  0  0  0  0
    5.0320    1.4820   16.0000 H   0  0  0  0  0  0  0  0  0  0  0  0
    8.0550   -0.0810   18.3180 H   0  0  0  0  0  0  0  0  0  0  0  0
    5.0980    2.2010   21.3550 H   0  0  0  0  0  0  0  0  0  0  0  0
    3.5820    2.1680   20.5160 H   0  0  0  0  0  0  0  0  0  0  0  0
    4.2600    0.5610   21.0630 H   0  0  0  0  0  0  0  0  0  0  0  0
    8.4760   -0.5880   22.7840 H   0  0  0  0  0  0  0  0  0  0  0  0
    8.3910    1.0430   23.2270 H   0  0  0  0  0  0  0  0  0  0  0  0
   13.7350    7.0570   24.8130 H   0  0  0  0  0  0  0  0  0  0  0  0
   12.2810    6.9610   23.9110 H   0  0  0  0  0  0  0  0  0  0  0  0
   12.5440    9.0160   26.1560 H   0  0  0  0  0  0  0  0  0  0  0  0
   11.5140    9.0610   24.8110 H   0  0  0  0  0  0  0  0  0  0  0  0
    6.5530    0.0630   21.4120 H   0  0  0  0  0  0  0  0  0  0  0  0
  8 38  1  0  0  0  0
  8 23  2  0  0  0  0
  1  8  1  0  0  0  0
  9 23  1  0  0  0  0
  1 31  1  0  0  0  0
  1 10  2  0  0  0  0
  9 39  1  0  0  0  0
  9 12  2  0  0  0  0
 10 12  1  0  0  0  0
 10 19  1  0  0  0  0
 12 24  1  0  0  0  0
 18 25  2  0  0  0  0
 19 41  1  0  0  0  0
 18 24  1  0  0  0  0
 24 49  1  0  0  0  0
 19 42  1  0  0  0  0
 19 40  1  0  0  0  0
 18 20  1  0  0  0  0
  3 33  1  0  0  0  0
 17 29  1  0  0  0  0
  3 17  2  0  0  0  0
  3 11  1  0  0  0  0
  7 17  1  0  0  0  0
 11 20  1  0  0  0  0
 20 43  1  0  0  0  0
 20 44  1  0  0  0  0
  2 11  2  0  0  0  0
  7 37  1  0  0  0  0
  7 13  2  0  0  0  0
  2 13  1  0  0  0  0
  2 32  1  0  0  0  0
 13 26  1  0  0  0  0
 21 46  1  0  0  0  0
 22 30  1  0  0  0  0
 14 26  1  0  0  0  0
  4 34  1  0  0  0  0
 22 48  1  0  0  0  0
 21 45  1  0  0  0  0
 21 22  1  0  0  0  0
 21 27  1  0  0  0  0
  4 14  2  0  0  0  0
  5 14  1  0  0  0  0
 22 47  1  0  0  0  0
  4 15  1  0  0  0  0
  5 35  1  0  0  0  0
  5 16  2  0  0  0  0
 15 27  1  0  0  0  0
  6 15  2  0  0  0  0
  6 16  1  0  0  0  0
 16 28  1  0  0  0  0
  6 36  1  0  0  0  0
M  END
> <CID>
EN300-160173

> <SMILES>
Cc1ccncc1NC(=O)Cc2cc(cc(c2)Cl)Oc3cc(cc(c3)F)OCCBr

> <RUN>
RUN2023

> <DDG (kcal/mol)>
-0.91

> <dDDG (kcal/mol)>
0.16

$$$$
EN300-24230
  -OEChem-08252008263D

 51 54  0     0  0  0  0  0  0999 V2000
   21.9300    8.3710   19.7290 C   0  0  0  0  0  0  0  0  0  0  0  0
   23.0380    9.1480   19.4000 C   0  0  0  0  0  0  0  0  0  0  0  0
   10.1010   -1.4260   21.5750 C   0  0  0  0  0  0  0  0  0  0  0  0
   15.1010    3.9970   22.6350 C   0  0  0  0  0  0  0  0  0  0  0  0
   14.6270    1.6660   23.3300 C   0  0  0  0  0  0  0  0  0  0  0  0
   16.6980    2.2700   22.2320 C   0  0  0  0  0  0  0  0  0  0  0  0
   21.8200   10.2280   17.6900 C   0  0  0  0  0  0  0  0  0  0  0  0
   19.8220    6.1860   19.8960 C   0  0  0  0  0  0  0  0  0  0  0  0
    9.0390   -0.9810   20.8640 C   0  0  0  0  0  0  0  0  0  0  0  0
    9.4950    1.1770   21.7110 C   0  0  0  0  0  0  0  0  0  0  0  0
   20.7480    8.4560   19.0010 C   0  0  0  0  0  0  0  0  0  0  0  0
   10.8560   -0.6510   22.4340 C   0  0  0  0  0  0  0  0  0  0  0  0
   14.2260    3.0260   23.2130 C   0  0  0  0  0  0  0  0  0  0  0  0
   10.5300    0.7210   22.4680 C   0  0  0  0  0  0  0  0  0  0  0  0
   16.3170    3.6390   22.1180 C   0  0  0  0  0  0  0  0  0  0  0  0
   22.9790   10.1810   18.4670 C   0  0  0  0  0  0  0  0  0  0  0  0
   15.8620    1.2890   22.8950 C   0  0  0  0  0  0  0  0  0  0  0  0
   20.7600    9.3190   17.8240 C   0  0  0  0  0  0  0  0  0  0  0  0
   19.6260    7.5300   19.3090 C   0  0  0  0  0  0  0  0  0  0  0  0
   18.5530    5.6120   19.8840 C   0  0  0  0  0  0  0  0  0  0  0  0
   11.7620    2.8130   22.8530 C   0  0  0  0  0  0  0  0  0  0  0  0
   11.9930   -1.3070   23.1710 C   0  0  0  0  0  0  0  0  0  0  0  0
   12.8460    3.4340   23.7030 C   0  0  0  0  0  0  0  0  0  0  0  0
   17.9180    4.3780   20.4050 C   0  0  0  0  0  0  0  0  0  0  0  0
    8.6810    0.3400   20.9420 N   0  0  0  0  0  0  0  0  0  0  0  0
   18.3800    7.7090   19.0440 N   0  0  0  0  0  0  0  0  0  0  0  0
   11.2780    1.5760   23.2100 N   0  0  0  0  0  0  0  0  0  0  0  0
   11.3570    3.4030   21.8590 O   0  0  0  0  0  0  0  0  0  0  0  0
   17.6510    6.5700   19.5080 O   0  0  0  0  0  0  0  0  0  0  0  0
   17.0610    4.6760   21.5180 O   0  0  0  0  0  0  0  0  0  0  0  0
   24.3640   11.1120   18.0010 Cl  0  0  0  0  0  0  0  0  0  0  0  0
   16.4390   -0.2490   23.2450 Cl  0  0  0  0  0  0  0  0  0  0  0  0
   19.4570    9.4150   16.5880 Cl  0  0  0  0  0  0  0  0  0  0  0  0
   22.0170    7.6080   20.5000 H   0  0  0  0  0  0  0  0  0  0  0  0
   23.9380    8.9220   19.9720 H   0  0  0  0  0  0  0  0  0  0  0  0
   10.3960   -2.4700   21.5160 H   0  0  0  0  0  0  0  0  0  0  0  0
   14.9560    5.0630   22.4710 H   0  0  0  0  0  0  0  0  0  0  0  0
   13.9990    0.9740   23.8750 H   0  0  0  0  0  0  0  0  0  0  0  0
   17.6750    1.9530   21.8900 H   0  0  0  0  0  0  0  0  0  0  0  0
   21.7080   10.8120   16.7830 H   0  0  0  0  0  0  0  0  0  0  0  0
   20.7400    5.8250   20.3610 H   0  0  0  0  0  0  0  0  0  0  0  0
    8.5080   -1.6420   20.1820 H   0  0  0  0  0  0  0  0  0  0  0  0
    9.2800    2.2380   21.7000 H   0  0  0  0  0  0  0  0  0  0  0  0
   12.8160   -1.3990   22.4600 H   0  0  0  0  0  0  0  0  0  0  0  0
   12.2800   -0.7170   24.0510 H   0  0  0  0  0  0  0  0  0  0  0  0
   11.6620   -2.2350   23.6370 H   0  0  0  0  0  0  0  0  0  0  0  0
   12.6590    3.1240   24.7400 H   0  0  0  0  0  0  0  0  0  0  0  0
   12.6580    4.5190   23.7460 H   0  0  0  0  0  0  0  0  0  0  0  0
   17.3650    4.0270   19.5270 H   0  0  0  0  0  0  0  0  0  0  0  0
   18.7720    3.7200   20.6220 H   0  0  0  0  0  0  0  0  0  0  0  0
   11.7560    1.1740   24.0120 H   0  0  0  0  0  0  0  0  0  0  0  0
 18 33  1  0  0  0  0
  7 40  1  0  0  0  0
  7 18  2  0  0  0  0
  7 16  1  0  0  0  0
 11 18  1  0  0  0  0
 16 31  1  0  0  0  0
  2 16  2  0  0  0  0
 11 19  1  0  0  0  0
  1 11  2  0  0  0  0
 19 26  2  0  0  0  0
 26 29  1  0  0  0  0
  8 19  1  0  0  0  0
  1  2  1  0  0  0  0
  2 35  1  0  0  0  0
 20 29  1  0  0  0  0
 24 49  1  0  0  0  0
  1 34  1  0  0  0  0
  8 20  2  0  0  0  0
 20 24  1  0  0  0  0
  8 41  1  0  0  0  0
  9 42  1  0  0  0  0
 24 50  1  0  0  0  0
 24 30  1  0  0  0  0
  9 25  2  0  0  0  0
  3  9  1  0  0  0  0
 10 25  1  0  0  0  0
  3 36  1  0  0  0  0
 15 30  1  0  0  0  0
  3 12  2  0  0  0  0
 10 43  1  0  0  0  0
 10 14  2  0  0  0  0
 21 28  2  0  0  0  0
  6 39  1  0  0  0  0
  6 15  2  0  0  0  0
  4 15  1  0  0  0  0
  6 17  1  0  0  0  0
 12 14  1  0  0  0  0
 12 22  1  0  0  0  0
 22 44  1  0  0  0  0
 14 27  1  0  0  0  0
  4 37  1  0  0  0  0
  4 13  2  0  0  0  0
 21 27  1  0  0  0  0
 21 23  1  0  0  0  0
 17 32  1  0  0  0  0
  5 17  2  0  0  0  0
 22 46  1  0  0  0  0
 22 45  1  0  0  0  0
 27 51  1  0  0  0  0
  5 13  1  0  0  0  0
 13 23  1  0  0  0  0
  5 38  1  0  0  0  0
 23 48  1  0  0  0  0
 23 47  1  0  0  0  0
M  END
> <CID>
EN300-24230

> <SMILES>
Cc1ccncc1NC(=O)Cc2cc(cc(c2)Cl)OCc3cc(no3)c4ccc(cc4Cl)Cl

> <RUN>
RUN3009

> <DDG (kcal/mol)>
-0.90

> <dDDG (kcal/mol)>
0.16

$$$$
EN300-1591418
  -OEChem-08252008263D

 53 56  0     0  0  0  0  0  0999 V2000
    8.7510    2.7970   22.5590 C   0  0  0  0  0  0  0  0  0  0  0  0
    9.2270    4.3040   25.9170 C   0  0  0  0  0  0  0  0  0  0  0  0
    9.4010    4.0740   24.5810 C   0  0  0  0  0  0  0  0  0  0  0  0
    8.2910    3.6250   26.6350 C   0  0  0  0  0  0  0  0  0  0  0  0
    5.0440    1.8300   18.4340 C   0  0  0  0  0  0  0  0  0  0  0  0
    5.3160    0.0650   27.5240 C   0  0  0  0  0  0  0  0  0  0  0  0
    7.6120    2.2720   24.7310 C   0  0  0  0  0  0  0  0  0  0  0  0
    8.3860   -1.4730   23.3390 C   0  0  0  0  0  0  0  0  0  0  0  0
   10.0860   -1.2070   21.7080 C   0  0  0  0  0  0  0  0  0  0  0  0
   10.1500    0.0100   23.8570 C   0  0  0  0  0  0  0  0  0  0  0  0
    5.1250    1.3750   17.0970 C   0  0  0  0  0  0  0  0  0  0  0  0
    5.1860    1.2830   28.3430 C   0  0  0  0  0  0  0  0  0  0  0  0
    6.1450   -0.5750   17.8750 C   0  0  0  0  0  0  0  0  0  0  0  0
    8.5830    3.0700   23.9710 C   0  0  0  0  0  0  0  0  0  0  0  0
    5.6730    1.1820   19.4540 C   0  0  0  0  0  0  0  0  0  0  0  0
    8.8350   -1.7850   22.0470 C   0  0  0  0  0  0  0  0  0  0  0  0
    7.5050    2.5230   26.0780 C   0  0  0  0  0  0  0  0  0  0  0  0
    6.1840   -0.0950   19.1930 C   0  0  0  0  0  0  0  0  0  0  0  0
    8.9390   -0.6000   24.2580 C   0  0  0  0  0  0  0  0  0  0  0  0
   10.7050   -0.2830   22.5980 C   0  0  0  0  0  0  0  0  0  0  0  0
    6.2850    0.3920   26.6110 C   0  0  0  0  0  0  0  0  0  0  0  0
    7.0600   -2.1670   20.1750 C   0  0  0  0  0  0  0  0  0  0  0  0
    5.7020    1.7930   20.8470 C   0  0  0  0  0  0  0  0  0  0  0  0
    8.0950   -2.7670   21.1480 C   0  0  0  0  0  0  0  0  0  0  0  0
    6.9150   -0.5110   25.5670 C   0  0  0  0  0  0  0  0  0  0  0  0
    8.7250    2.4770   21.4310 N   0  0  0  0  0  0  0  0  0  0  0  0
    5.6580    0.1750   16.8750 N   0  0  0  0  0  0  0  0  0  0  0  0
    6.0300    2.1740   27.9390 N   0  0  0  0  0  0  0  0  0  0  0  0
    6.6690    1.6990   26.8600 N   0  0  0  0  0  0  0  0  0  0  0  0
    6.7040   -0.8470   20.2590 N   0  0  0  0  0  0  0  0  0  0  0  0
    6.5290   -2.8750   19.3490 O   0  0  0  0  0  0  0  0  0  0  0  0
    8.3290   -0.3130   25.4790 O   0  0  0  0  0  0  0  0  0  0  0  0
   12.1020    0.6040   22.0910 Cl  0  0  0  0  0  0  0  0  0  0  0  0
    9.8750    5.0120   26.4220 H   0  0  0  0  0  0  0  0  0  0  0  0
   10.1020    4.7010   24.0450 H   0  0  0  0  0  0  0  0  0  0  0  0
    8.2720    3.8400   27.6990 H   0  0  0  0  0  0  0  0  0  0  0  0
    4.4900    2.7400   18.6590 H   0  0  0  0  0  0  0  0  0  0  0  0
    4.8080   -0.8900   27.6580 H   0  0  0  0  0  0  0  0  0  0  0  0
    7.0500    1.6390   24.0630 H   0  0  0  0  0  0  0  0  0  0  0  0
    7.5580   -2.0520   23.7410 H   0  0  0  0  0  0  0  0  0  0  0  0
   10.6160   -1.4620   20.8020 H   0  0  0  0  0  0  0  0  0  0  0  0
   10.7080    0.6740   24.5060 H   0  0  0  0  0  0  0  0  0  0  0  0
    4.6630    1.8910   16.2620 H   0  0  0  0  0  0  0  0  0  0  0  0
    4.4840    1.3470   29.1630 H   0  0  0  0  0  0  0  0  0  0  0  0
    6.5980   -1.5090   17.5810 H   0  0  0  0  0  0  0  0  0  0  0  0
    5.9070    2.8700   20.8570 H   0  0  0  0  0  0  0  0  0  0  0  0
    4.7530    1.5530   21.3350 H   0  0  0  0  0  0  0  0  0  0  0  0
    6.5120    1.3150   21.4190 H   0  0  0  0  0  0  0  0  0  0  0  0
    8.8310   -3.3640   20.6010 H   0  0  0  0  0  0  0  0  0  0  0  0
    7.5180   -3.4940   21.7380 H   0  0  0  0  0  0  0  0  0  0  0  0
    6.7990   -1.5470   25.8910 H   0  0  0  0  0  0  0  0  0  0  0  0
    6.4130   -0.3800   24.5960 H   0  0  0  0  0  0  0  0  0  0  0  0
    7.2100   -0.3320   20.9790 H   0  0  0  0  0  0  0  0  0  0  0  0
 11 43  1  0  0  0  0
 11 27  2  0  0  0  0
 13 27  1  0  0  0  0
  5 11  1  0  0  0  0
 13 45  1  0  0  0  0
 13 18  2  0  0  0  0
  5 37  1  0  0  0  0
  5 15  2  0  0  0  0
 15 18  1  0  0  0  0
 18 30  1  0  0  0  0
 22 31  2  0  0  0  0
 15 23  1  0  0  0  0
 22 30  1  0  0  0  0
 22 24  1  0  0  0  0
 30 53  1  0  0  0  0
 24 49  1  0  0  0  0
  9 41  1  0  0  0  0
 23 46  1  0  0  0  0
 23 47  1  0  0  0  0
 23 48  1  0  0  0  0
 24 50  1  0  0  0  0
 16 24  1  0  0  0  0
  1 26  3  0  0  0  0
  9 16  2  0  0  0  0
  9 20  1  0  0  0  0
  8 16  1  0  0  0  0
 20 33  1  0  0  0  0
  1 14  1  0  0  0  0
 10 20  2  0  0  0  0
  8 40  1  0  0  0  0
  8 19  2  0  0  0  0
 10 19  1  0  0  0  0
 10 42  1  0  0  0  0
  3 14  2  0  0  0  0
  7 14  1  0  0  0  0
  3 35  1  0  0  0  0
  7 39  1  0  0  0  0
 19 32  1  0  0  0  0
  2  3  1  0  0  0  0
 25 52  1  0  0  0  0
  7 17  2  0  0  0  0
 25 32  1  0  0  0  0
 25 51  1  0  0  0  0
 21 25  1  0  0  0  0
  2 34  1  0  0  0  0
  2  4  2  0  0  0  0
  4 17  1  0  0  0  0
 17 29  1  0  0  0  0
 21 29  1  0  0  0  0
  6 21  2  0  0  0  0
  4 36  1  0  0  0  0
 28 29  1  0  0  0  0
  6 38  1  0  0  0  0
  6 12  1  0  0  0  0
 12 28  2  0  0  0  0
 12 44  1  0  0  0  0
M  END
> <CID>
EN300-1591418

> <SMILES>
Cc1ccncc1NC(=O)Cc2cc(cc(c2)Cl)OCc3ccnn3c4cccc(c4)C#N

> <RUN>
RUN1247

> <DDG (kcal/mol)>
-0.90

> <dDDG (kcal/mol)>
0.16

$$$$
EN300-4257713
  -OEChem-08252008263D

 38 39  0     0  0  0  0  0  0999 V2000
    4.8270    1.3870   19.0290 C   0  0  0  0  0  0  0  0  0  0  0  0
   11.5170    2.1040   23.2480 C   0  0  0  0  0  0  0  0  0  0  0  0
   11.7780   -0.1080   22.2460 C   0  0  0  0  0  0  0  0  0  0  0  0
   13.6330    1.3290   22.5590 C   0  0  0  0  0  0  0  0  0  0  0  0
    5.4650    0.6440   18.0040 C   0  0  0  0  0  0  0  0  0  0  0  0
    7.2850    0.1430   19.2970 C   0  0  0  0  0  0  0  0  0  0  0  0
    5.4350    1.3390   20.2720 C   0  0  0  0  0  0  0  0  0  0  0  0
   10.9640    0.8380   22.9190 C   0  0  0  0  0  0  0  0  0  0  0  0
    6.7160    0.7620   20.3660 C   0  0  0  0  0  0  0  0  0  0  0  0
   12.8610    2.3790   23.0560 C   0  0  0  0  0  0  0  0  0  0  0  0
   13.2000    0.1380   22.0940 C   0  0  0  0  0  0  0  0  0  0  0  0
    8.7950    0.8970   21.7340 C   0  0  0  0  0  0  0  0  0  0  0  0
    4.6770    1.7480   21.5060 C   0  0  0  0  0  0  0  0  0  0  0  0
    9.4890    0.6160   23.0850 C   0  0  0  0  0  0  0  0  0  0  0  0
   12.8070    4.6900   22.6630 C   0  0  0  0  0  0  0  0  0  0  0  0
    6.6050   -0.0450   18.1380 N   0  0  0  0  0  0  0  0  0  0  0  0
    7.4240    0.7420   21.6040 N   0  0  0  0  0  0  0  0  0  0  0  0
    9.4550    1.4560   20.8910 O   0  0  0  0  0  0  0  0  0  0  0  0
   14.1800    6.4890   24.0520 O   0  0  0  0  0  0  0  0  0  0  0  0
   12.1670    7.2610   22.9450 O   0  0  0  0  0  0  0  0  0  0  0  0
   13.5000    3.6120   23.3300 O   0  0  0  0  0  0  0  0  0  0  0  0
   12.7660    6.1990   23.7650 S   0  0  0  0  0  0  0  0  0  0  0  0
   14.3140   -1.0200   21.3740 Cl  0  0  0  0  0  0  0  0  0  0  0  0
   11.7560    5.7920   25.6030 Cl  0  0  0  0  0  0  0  0  0  0  0  0
    3.8340    1.8120   18.8950 H   0  0  0  0  0  0  0  0  0  0  0  0
   10.7810    2.8500   23.5370 H   0  0  0  0  0  0  0  0  0  0  0  0
   11.3120   -0.9960   21.8440 H   0  0  0  0  0  0  0  0  0  0  0  0
   14.6830    1.5960   22.5290 H   0  0  0  0  0  0  0  0  0  0  0  0
    5.0300    0.5450   17.0140 H   0  0  0  0  0  0  0  0  0  0  0  0
    8.2290   -0.4030   19.3310 H   0  0  0  0  0  0  0  0  0  0  0  0
    5.2460    2.3900   22.1710 H   0  0  0  0  0  0  0  0  0  0  0  0
    3.7740    2.3040   21.2180 H   0  0  0  0  0  0  0  0  0  0  0  0
    4.2270    0.9980   22.1760 H   0  0  0  0  0  0  0  0  0  0  0  0
    9.4120   -0.4090   23.4660 H   0  0  0  0  0  0  0  0  0  0  0  0
    9.1260    1.3360   23.8330 H   0  0  0  0  0  0  0  0  0  0  0  0
   11.7700    4.4690   22.4150 H   0  0  0  0  0  0  0  0  0  0  0  0
   13.3020    4.9740   21.7300 H   0  0  0  0  0  0  0  0  0  0  0  0
    6.8590    0.4980   22.4180 H   0  0  0  0  0  0  0  0  0  0  0  0
  5 29  1  0  0  0  0
  5 16  2  0  0  0  0
  1  5  1  0  0  0  0
  6 16  1  0  0  0  0
  1 25  1  0  0  0  0
  1  7  2  0  0  0  0
  6 30  1  0  0  0  0
  6  9  2  0  0  0  0
  7  9  1  0  0  0  0
  7 13  1  0  0  0  0
  9 17  1  0  0  0  0
 12 18  2  0  0  0  0
 13 32  1  0  0  0  0
 11 23  1  0  0  0  0
 13 31  1  0  0  0  0
 13 33  1  0  0  0  0
 12 17  1  0  0  0  0
 17 38  1  0  0  0  0
 15 37  1  0  0  0  0
 12 14  1  0  0  0  0
  3 27  1  0  0  0  0
  3 11  2  0  0  0  0
  4 11  1  0  0  0  0
  3  8  1  0  0  0  0
 15 36  1  0  0  0  0
  4 28  1  0  0  0  0
  4 10  2  0  0  0  0
 15 21  1  0  0  0  0
 15 22  1  0  0  0  0
  8 14  1  0  0  0  0
  2  8  2  0  0  0  0
 20 22  2  0  0  0  0
  2 10  1  0  0  0  0
 10 21  1  0  0  0  0
 14 34  1  0  0  0  0
 14 35  1  0  0  0  0
  2 26  1  0  0  0  0
 19 22  2  0  0  0  0
 22 24  1  0  0  0  0
M  END
> <CID>
EN300-4257713

> <SMILES>
Cc1ccncc1NC(=O)Cc2cc(cc(c2)Cl)OCS(=O)(=O)Cl

> <RUN>
RUN548

> <DDG (kcal/mol)>
-0.89

> <dDDG (kcal/mol)>
0.08

$$$$
EN300-1918008
  -OEChem-08252008263D

 52 55  0     0  0  0  0  0  0999 V2000
   11.1480    7.3200   22.8550 C   0  0  0  0  0  0  0  0  0  0  0  0
   11.6250    8.2690   25.0030 C   0  0  0  0  0  0  0  0  0  0  0  0
    9.8820    7.9010   22.8610 C   0  0  0  0  0  0  0  0  0  0  0  0
   10.3250    8.7970   25.0560 C   0  0  0  0  0  0  0  0  0  0  0  0
    4.7910    1.4430   19.8750 C   0  0  0  0  0  0  0  0  0  0  0  0
   11.7540    1.9280   23.0680 C   0  0  0  0  0  0  0  0  0  0  0  0
   12.1000   -0.4360   22.9620 C   0  0  0  0  0  0  0  0  0  0  0  0
   13.9560    1.1230   22.7170 C   0  0  0  0  0  0  0  0  0  0  0  0
    5.3540    1.2610   18.6690 C   0  0  0  0  0  0  0  0  0  0  0  0
   15.2450    5.6590   23.6560 C   0  0  0  0  0  0  0  0  0  0  0  0
    7.3980    0.7900   19.5800 C   0  0  0  0  0  0  0  0  0  0  0  0
   12.0210    7.5220   23.8630 C   0  0  0  0  0  0  0  0  0  0  0  0
    5.4980    1.2370   21.0350 C   0  0  0  0  0  0  0  0  0  0  0  0
   11.2190    0.6350   23.0440 C   0  0  0  0  0  0  0  0  0  0  0  0
   13.7850    5.7740   23.4540 C   0  0  0  0  0  0  0  0  0  0  0  0
    6.8700    0.8930   20.9100 C   0  0  0  0  0  0  0  0  0  0  0  0
   13.1360    2.2280   22.8420 C   0  0  0  0  0  0  0  0  0  0  0  0
    9.4330    8.6050   23.9980 C   0  0  0  0  0  0  0  0  0  0  0  0
   13.4400   -0.1760   22.7340 C   0  0  0  0  0  0  0  0  0  0  0  0
   13.3910    6.9020   23.9320 C   0  0  0  0  0  0  0  0  0  0  0  0
    9.0230    0.9610   21.9950 C   0  0  0  0  0  0  0  0  0  0  0  0
    4.9050    1.3850   22.4170 C   0  0  0  0  0  0  0  0  0  0  0  0
    9.7810    0.4350   23.2020 C   0  0  0  0  0  0  0  0  0  0  0  0
   12.9640    4.7270   22.7530 C   0  0  0  0  0  0  0  0  0  0  0  0
    6.6260    0.8780   18.4890 N   0  0  0  0  0  0  0  0  0  0  0  0
   15.6180    6.7910   24.2530 N   0  0  0  0  0  0  0  0  0  0  0  0
   14.4870    7.4730   24.4680 N   0  0  0  0  0  0  0  0  0  0  0  0
    7.6900    0.7550   22.0300 N   0  0  0  0  0  0  0  0  0  0  0  0
    9.5150    1.7740   21.1670 O   0  0  0  0  0  0  0  0  0  0  0  0
   13.7380    3.4750   22.8970 O   0  0  0  0  0  0  0  0  0  0  0  0
    8.2360    9.2300   23.9360 F   0  0  0  0  0  0  0  0  0  0  0  0
   14.5150   -1.4790   22.3750 Cl  0  0  0  0  0  0  0  0  0  0  0  0
   11.5290    6.6990   22.0610 H   0  0  0  0  0  0  0  0  0  0  0  0
   12.3010    8.4640   25.8260 H   0  0  0  0  0  0  0  0  0  0  0  0
    9.2930    7.7110   21.9690 H   0  0  0  0  0  0  0  0  0  0  0  0
    9.9500    9.3610   25.9070 H   0  0  0  0  0  0  0  0  0  0  0  0
    3.7300    1.6290   19.7470 H   0  0  0  0  0  0  0  0  0  0  0  0
   11.0000    2.6820   23.2530 H   0  0  0  0  0  0  0  0  0  0  0  0
   11.7190   -1.4310   23.1820 H   0  0  0  0  0  0  0  0  0  0  0  0
   14.9970    1.3020   22.4580 H   0  0  0  0  0  0  0  0  0  0  0  0
    4.8540    1.2720   17.7010 H   0  0  0  0  0  0  0  0  0  0  0  0
   15.9080    4.8580   23.3300 H   0  0  0  0  0  0  0  0  0  0  0  0
    8.4300    0.5430   19.3570 H   0  0  0  0  0  0  0  0  0  0  0  0
    4.6160    0.4120   22.8330 H   0  0  0  0  0  0  0  0  0  0  0  0
    5.6390    1.8130   23.1000 H   0  0  0  0  0  0  0  0  0  0  0  0
    4.1210    2.1480   22.4690 H   0  0  0  0  0  0  0  0  0  0  0  0
    9.6500   -0.6380   23.3360 H   0  0  0  0  0  0  0  0  0  0  0  0
    9.3570    1.0080   24.0230 H   0  0  0  0  0  0  0  0  0  0  0  0
   11.9270    4.7930   23.0910 H   0  0  0  0  0  0  0  0  0  0  0  0
   12.9520    4.9530   21.6730 H   0  0  0  0  0  0  0  0  0  0  0  0
   14.5400    8.3580   24.9650 H   0  0  0  0  0  0  0  0  0  0  0  0
    7.3770    0.3860   22.9350 H   0  0  0  0  0  0  0  0  0  0  0  0
  9 41  1  0  0  0  0
  9 25  2  0  0  0  0
 11 25  1  0  0  0  0
  5  9  1  0  0  0  0
 11 43  1  0  0  0  0
 11 16  2  0  0  0  0
  5 37  1  0  0  0  0
  5 13  2  0  0  0  0
 13 16  1  0  0  0  0
 16 28  1  0  0  0  0
 13 22  1  0  0  0  0
 21 29  2  0  0  0  0
 24 50  1  0  0  0  0
  3 35  1  0  0  0  0
 21 28  1  0  0  0  0
 21 23  1  0  0  0  0
 28 52  1  0  0  0  0
  1 33  1  0  0  0  0
 19 32  1  0  0  0  0
 22 46  1  0  0  0  0
 22 44  1  0  0  0  0
 22 45  1  0  0  0  0
  8 40  1  0  0  0  0
  8 19  2  0  0  0  0
  8 17  1  0  0  0  0
  7 19  1  0  0  0  0
 24 30  1  0  0  0  0
 24 49  1  0  0  0  0
 15 24  1  0  0  0  0
 17 30  1  0  0  0  0
  6 17  2  0  0  0  0
  1  3  2  0  0  0  0
  1 12  1  0  0  0  0
  3 18  1  0  0  0  0
  7 14  2  0  0  0  0
  7 39  1  0  0  0  0
  6 14  1  0  0  0  0
 14 23  1  0  0  0  0
  6 38  1  0  0  0  0
 23 47  1  0  0  0  0
 23 48  1  0  0  0  0
 10 42  1  0  0  0  0
 10 15  1  0  0  0  0
 15 20  2  0  0  0  0
 10 26  2  0  0  0  0
 12 20  1  0  0  0  0
  2 12  2  0  0  0  0
 20 27  1  0  0  0  0
 18 31  1  0  0  0  0
  4 18  2  0  0  0  0
 26 27  1  0  0  0  0
 27 51  1  0  0  0  0
  2  4  1  0  0  0  0
  2 34  1  0  0  0  0
  4 36  1  0  0  0  0
M  END
> <CID>
EN300-1918008

> <SMILES>
Cc1ccncc1NC(=O)Cc2cc(cc(c2)Cl)OCc3cn[nH]c3c4ccc(cc4)F

> <RUN>
RUN1345

> <DDG (kcal/mol)>
-0.87

> <dDDG (kcal/mol)>
0.14

$$$$
EN300-1917400
  -OEChem-08252008263D

 46 48  0     1  0  0  0  0  0999 V2000
    4.8850    1.8280   19.4720 C   0  0  0  0  0  0  0  0  0  0  0  0
   11.5130    0.9210   23.5300 C   0  0  0  0  0  0  0  0  0  0  0  0
   11.9230   -0.9250   22.0750 C   0  0  0  0  0  0  0  0  0  0  0  0
   13.6860    0.4760   22.7950 C   0  0  0  0  0  0  0  0  0  0  0  0
   15.0150    6.2240   23.1000 C   0  0  0  0  0  0  0  0  0  0  0  0
    5.5620    1.8640   18.2760 C   0  0  0  0  0  0  0  0  0  0  0  0
    7.3020    0.7780   19.1840 C   0  0  0  0  0  0  0  0  0  0  0  0
   16.9500    6.4220   21.9050 C   0  0  0  0  0  0  0  0  0  0  0  0
    5.4070    1.2550   20.6120 C   0  0  0  0  0  0  0  0  0  0  0  0
   10.9950   -0.1130   22.7830 C   0  0  0  0  0  0  0  0  0  0  0  0
    6.6700    0.7300   20.4580 C   0  0  0  0  0  0  0  0  0  0  0  0
   12.8750    1.2840   23.5700 C   0  0  0  0  0  0  0  0  0  0  0  0
   13.2620   -0.6040   22.0470 C   0  0  0  0  0  0  0  0  0  0  0  0
   16.1110    7.0850   22.7440 C   0  0  0  0  0  0  0  0  0  0  0  0
   15.0070    5.0660   22.4240 C   0  0  0  0  0  0  0  0  0  0  0  0
    8.7770    0.4890   21.7910 C   0  0  0  0  0  0  0  0  0  0  0  0
    4.5660    1.1420   21.8570 C   0  0  0  0  0  0  0  0  0  0  0  0
    9.5200   -0.4100   22.7330 C   0  0  0  0  0  0  0  0  0  0  0  0
   14.2750    3.2690   23.7960 C   0  0  0  0  0  0  0  0  0  0  0  0
   13.8850    4.0800   22.5340 C   0  0  1  0  0  0  0  0  0  0  0  0
    6.7690    1.3150   18.1230 N   0  0  0  0  0  0  0  0  0  0  0  0
    7.4270    0.2750   21.6040 N   0  0  0  0  0  0  0  0  0  0  0  0
    9.3130    1.5580   21.3400 O   0  0  0  0  0  0  0  0  0  0  0  0
   12.6740    4.7220   22.7670 O   0  0  0  0  0  0  0  0  0  0  0  0
   13.2610    2.3720   24.3250 O   0  0  0  0  0  0  0  0  0  0  0  0
   16.3470    4.8810   21.3840 S   0  0  0  0  0  0  0  0  0  0  0  0
   14.5460   -1.6170   21.4000 Cl  0  0  0  0  0  0  0  0  0  0  0  0
   16.3820    8.6810   23.3730 Cl  0  0  0  0  0  0  0  0  0  0  0  0
    3.8980    2.2520   19.6030 H   0  0  0  0  0  0  0  0  0  0  0  0
   10.7810    1.5280   24.0420 H   0  0  0  0  0  0  0  0  0  0  0  0
   11.5360   -1.8320   21.6200 H   0  0  0  0  0  0  0  0  0  0  0  0
   14.7540    0.6350   22.7410 H   0  0  0  0  0  0  0  0  0  0  0  0
   14.3290    6.5520   23.8710 H   0  0  0  0  0  0  0  0  0  0  0  0
    5.0610    2.3650   17.4560 H   0  0  0  0  0  0  0  0  0  0  0  0
    8.2760    0.3100   19.1360 H   0  0  0  0  0  0  0  0  0  0  0  0
   17.8320    6.9240   21.5040 H   0  0  0  0  0  0  0  0  0  0  0  0
    3.5320    1.4510   21.7330 H   0  0  0  0  0  0  0  0  0  0  0  0
    4.5430    0.1340   22.2970 H   0  0  0  0  0  0  0  0  0  0  0  0
    5.0200    1.7570   22.6330 H   0  0  0  0  0  0  0  0  0  0  0  0
    9.3520   -1.4240   22.3380 H   0  0  0  0  0  0  0  0  0  0  0  0
    9.0400   -0.2870   23.7050 H   0  0  0  0  0  0  0  0  0  0  0  0
   15.1210    2.5960   23.5980 H   0  0  0  0  0  0  0  0  0  0  0  0
   14.6280    3.9040   24.6160 H   0  0  0  0  0  0  0  0  0  0  0  0
   13.7780    3.3990   21.6820 H   0  0  0  0  0  0  0  0  0  0  0  0
    7.0140   -0.4950   22.1330 H   0  0  0  0  0  0  0  0  0  0  0  0
   12.2830    5.1580   21.9920 H   0  0  0  0  0  0  0  0  0  0  0  0
  6 34  1  0  0  0  0
  6 21  2  0  0  0  0
  7 21  1  0  0  0  0
  1  6  1  0  0  0  0
  7 35  1  0  0  0  0
  7 11  2  0  0  0  0
  1 29  1  0  0  0  0
  1  9  2  0  0  0  0
  9 11  1  0  0  0  0
 11 22  1  0  0  0  0
  9 17  1  0  0  0  0
 16 23  2  0  0  0  0
  8 26  1  0  0  0  0
 15 26  1  0  0  0  0
 13 27  1  0  0  0  0
  8 36  1  0  0  0  0
 16 22  1  0  0  0  0
 22 45  1  0  0  0  0
  3 31  1  0  0  0  0
 20 44  1  0  0  0  0
 17 37  1  0  0  0  0
 16 18  1  0  0  0  0
 17 38  1  0  0  0  0
 17 39  1  0  0  0  0
  8 14  2  0  0  0  0
 24 46  1  0  0  0  0
  3 13  2  0  0  0  0
  4 13  1  0  0  0  0
  3 10  1  0  0  0  0
 18 40  1  0  0  0  0
 15 20  1  0  0  0  0
  5 15  2  0  0  0  0
 20 24  1  0  0  0  0
 19 20  1  0  0  0  0
 10 18  1  0  0  0  0
 18 41  1  0  0  0  0
  4 32  1  0  0  0  0
  5 14  1  0  0  0  0
 14 28  1  0  0  0  0
  2 10  2  0  0  0  0
  4 12  2  0  0  0  0
  5 33  1  0  0  0  0
  2 12  1  0  0  0  0
  2 30  1  0  0  0  0
 12 25  1  0  0  0  0
 19 42  1  0  0  0  0
 19 25  1  0  0  0  0
 19 43  1  0  0  0  0
M  END
> <CID>
EN300-1917400

> <SMILES>
Cc1ccncc1NC(=O)Cc2cc(cc(c2)Cl)OC[C@H](c3cc(cs3)Cl)O

> <RUN>
RUN2584

> <DDG (kcal/mol)>
-0.87

> <dDDG (kcal/mol)>
0.18

$$$$
EN300-156205
  -OEChem-08252008263D

 48 50  0     0  0  0  0  0  0999 V2000
   12.6920    3.8160   26.5100 C   0  0  0  0  0  0  0  0  0  0  0  0
   13.5530    3.4850   25.4410 C   0  0  0  0  0  0  0  0  0  0  0  0
    5.5360    1.3020   19.2820 C   0  0  0  0  0  0  0  0  0  0  0  0
   12.4560    0.6140   23.2820 C   0  0  0  0  0  0  0  0  0  0  0  0
   13.5140    1.1980   26.1800 C   0  0  0  0  0  0  0  0  0  0  0  0
   12.5650   -1.1770   21.7420 C   0  0  0  0  0  0  0  0  0  0  0  0
   14.6080   -0.0150   22.3060 C   0  0  0  0  0  0  0  0  0  0  0  0
    6.0410    0.9860   18.0170 C   0  0  0  0  0  0  0  0  0  0  0  0
    7.8900    0.1680   18.9480 C   0  0  0  0  0  0  0  0  0  0  0  0
   12.3110    2.8790   27.4570 C   0  0  0  0  0  0  0  0  0  0  0  0
    6.1920    0.9780   20.4250 C   0  0  0  0  0  0  0  0  0  0  0  0
   11.8420   -0.3220   22.5430 C   0  0  0  0  0  0  0  0  0  0  0  0
   12.7480    1.5630   27.3210 C   0  0  0  0  0  0  0  0  0  0  0  0
    7.4450    0.3460   20.3070 C   0  0  0  0  0  0  0  0  0  0  0  0
   13.9770    2.1350   25.2180 C   0  0  0  0  0  0  0  0  0  0  0  0
   13.8750    0.8420   23.2560 C   0  0  0  0  0  0  0  0  0  0  0  0
   13.8980   -0.9560   21.5440 C   0  0  0  0  0  0  0  0  0  0  0  0
    9.5080    0.2100   21.5640 C   0  0  0  0  0  0  0  0  0  0  0  0
    5.7310    1.6160   21.7110 C   0  0  0  0  0  0  0  0  0  0  0  0
   12.3350    0.3580   28.2150 C   0  0  0  0  0  0  0  0  0  0  0  0
   10.3810   -0.5610   22.6180 C   0  0  0  0  0  0  0  0  0  0  0  0
   11.4970    3.3360   28.6480 C   0  0  0  0  0  0  0  0  0  0  0  0
    7.1640    0.3760   17.8250 N   0  0  0  0  0  0  0  0  0  0  0  0
    8.1580    0.0220   21.4180 N   0  0  0  0  0  0  0  0  0  0  0  0
   10.0750    1.0640   20.8850 O   0  0  0  0  0  0  0  0  0  0  0  0
   14.5870    1.7380   24.0280 O   0  0  0  0  0  0  0  0  0  0  0  0
   14.7530   -1.9590   20.4540 Cl  0  0  0  0  0  0  0  0  0  0  0  0
    9.5330    3.4940   28.1170 Br  0  0  0  0  0  0  0  0  0  0  0  0
   12.4290    4.8640   26.6460 H   0  0  0  0  0  0  0  0  0  0  0  0
   13.8560    4.1710   24.6540 H   0  0  0  0  0  0  0  0  0  0  0  0
    4.5670    1.7950   19.2400 H   0  0  0  0  0  0  0  0  0  0  0  0
   11.9320    1.2540   23.9860 H   0  0  0  0  0  0  0  0  0  0  0  0
   13.8160    0.1600   26.0390 H   0  0  0  0  0  0  0  0  0  0  0  0
   12.0120   -1.8510   21.1010 H   0  0  0  0  0  0  0  0  0  0  0  0
   15.6800    0.1010   22.2100 H   0  0  0  0  0  0  0  0  0  0  0  0
    5.3950    1.0690   17.1530 H   0  0  0  0  0  0  0  0  0  0  0  0
    8.8460   -0.2400   18.6150 H   0  0  0  0  0  0  0  0  0  0  0  0
    6.5810    2.1760   22.1110 H   0  0  0  0  0  0  0  0  0  0  0  0
    4.9330    2.3550   21.5630 H   0  0  0  0  0  0  0  0  0  0  0  0
    5.4860    0.9160   22.5150 H   0  0  0  0  0  0  0  0  0  0  0  0
   11.5030    0.5650   28.8970 H   0  0  0  0  0  0  0  0  0  0  0  0
   11.8830   -0.4810   27.6850 H   0  0  0  0  0  0  0  0  0  0  0  0
   13.1950   -0.0380   28.7590 H   0  0  0  0  0  0  0  0  0  0  0  0
   10.0110   -1.5670   22.4300 H   0  0  0  0  0  0  0  0  0  0  0  0
    9.9770   -0.3410   23.6120 H   0  0  0  0  0  0  0  0  0  0  0  0
   11.8250    4.3590   28.8580 H   0  0  0  0  0  0  0  0  0  0  0  0
   11.7110    2.7750   29.5570 H   0  0  0  0  0  0  0  0  0  0  0  0
    7.7050   -0.5850   22.0960 H   0  0  0  0  0  0  0  0  0  0  0  0
  8 36  1  0  0  0  0
  8 23  2  0  0  0  0
  9 23  1  0  0  0  0
  3  8  1  0  0  0  0
  9 37  1  0  0  0  0
  9 14  2  0  0  0  0
  3 31  1  0  0  0  0
  3 11  2  0  0  0  0
 11 14  1  0  0  0  0
 14 24  1  0  0  0  0
 11 19  1  0  0  0  0
 17 27  1  0  0  0  0
 18 25  2  0  0  0  0
  6 34  1  0  0  0  0
 18 24  1  0  0  0  0
 24 48  1  0  0  0  0
  6 17  2  0  0  0  0
  7 17  1  0  0  0  0
 19 39  1  0  0  0  0
 18 21  1  0  0  0  0
 19 38  1  0  0  0  0
 19 40  1  0  0  0  0
  6 12  1  0  0  0  0
  7 35  1  0  0  0  0
  7 16  2  0  0  0  0
 21 44  1  0  0  0  0
 12 21  1  0  0  0  0
  4 12  2  0  0  0  0
 21 45  1  0  0  0  0
  4 16  1  0  0  0  0
 16 26  1  0  0  0  0
  4 32  1  0  0  0  0
 15 26  1  0  0  0  0
  2 30  1  0  0  0  0
  2 15  2  0  0  0  0
  5 15  1  0  0  0  0
  1  2  1  0  0  0  0
  5 33  1  0  0  0  0
  5 13  2  0  0  0  0
  1 29  1  0  0  0  0
  1 10  2  0  0  0  0
 10 13  1  0  0  0  0
 13 20  1  0  0  0  0
 10 22  1  0  0  0  0
 20 42  1  0  0  0  0
 22 28  1  0  0  0  0
 20 43  1  0  0  0  0
 20 41  1  0  0  0  0
 22 46  1  0  0  0  0
 22 47  1  0  0  0  0
M  END
> <CID>
EN300-156205

> <SMILES>
Cc1ccncc1NC(=O)Cc2cc(cc(c2)Cl)Oc3ccc(c(c3)C)CBr

> <RUN>
RUN1704

> <DDG (kcal/mol)>
-0.87

> <dDDG (kcal/mol)>
0.10

$$$$
EN300-1894071
  -OEChem-08252008263D

 51 54  0     0  0  0  0  0  0999 V2000
    5.1030    2.4170   18.6730 C   0  0  0  0  0  0  0  0  0  0  0  0
   11.3620    1.2510   23.2430 C   0  0  0  0  0  0  0  0  0  0  0  0
    9.6000    0.9000   24.8210 C   0  0  0  0  0  0  0  0  0  0  0  0
   11.5600   -0.5820   24.7970 C   0  0  0  0  0  0  0  0  0  0  0  0
    5.7110    1.4820   17.8700 C   0  0  0  0  0  0  0  0  0  0  0  0
    7.4360    1.2670   19.4000 C   0  0  0  0  0  0  0  0  0  0  0  0
   11.9410   -3.6320   21.5320 C   0  0  0  0  0  0  0  0  0  0  0  0
    5.6970    2.7380   19.8970 C   0  0  0  0  0  0  0  0  0  0  0  0
   10.1030    1.6440   23.7700 C   0  0  0  0  0  0  0  0  0  0  0  0
    6.9020    2.1640   20.2750 C   0  0  0  0  0  0  0  0  0  0  0  0
   12.1460    0.2160   23.7660 C   0  0  0  0  0  0  0  0  0  0  0  0
   10.2760   -0.1550   25.3140 C   0  0  0  0  0  0  0  0  0  0  0  0
   12.7230   -3.2680   22.5800 C   0  0  0  0  0  0  0  0  0  0  0  0
   11.1780   -4.3340   23.7500 C   0  0  0  0  0  0  0  0  0  0  0  0
    8.8520    2.5290   21.8390 C   0  0  0  0  0  0  0  0  0  0  0  0
    9.9160   -6.2100   25.1080 C   0  0  0  0  0  0  0  0  0  0  0  0
    9.0160   -4.9660   25.0860 C   0  0  0  0  0  0  0  0  0  0  0  0
   10.5520   -4.8370   25.0240 C   0  0  0  0  0  0  0  0  0  0  0  0
    4.8990    3.5980   20.8370 C   0  0  0  0  0  0  0  0  0  0  0  0
    9.3760    2.8150   23.2270 C   0  0  0  0  0  0  0  0  0  0  0  0
   14.0180   -2.4900   22.4540 C   0  0  0  0  0  0  0  0  0  0  0  0
   14.0210   -1.2570   23.3960 C   0  0  0  0  0  0  0  0  0  0  0  0
    6.8800    0.8850   18.2140 N   0  0  0  0  0  0  0  0  0  0  0  0
   12.3000   -3.6650   23.8110 N   0  0  0  0  0  0  0  0  0  0  0  0
    7.5550    2.6510   21.4340 N   0  0  0  0  0  0  0  0  0  0  0  0
    9.6530    2.3060   20.9860 O   0  0  0  0  0  0  0  0  0  0  0  0
   13.3200   -0.1190   23.0420 O   0  0  0  0  0  0  0  0  0  0  0  0
   10.4940   -4.4880   22.1200 S   0  0  0  0  0  0  0  0  0  0  0  0
    9.5440   -1.0840   26.6270 Cl  0  0  0  0  0  0  0  0  0  0  0  0
    4.2170    2.9160   18.3140 H   0  0  0  0  0  0  0  0  0  0  0  0
   11.7720    1.7510   22.3790 H   0  0  0  0  0  0  0  0  0  0  0  0
    8.6040    1.0350   25.2290 H   0  0  0  0  0  0  0  0  0  0  0  0
   12.0160   -1.4840   25.1840 H   0  0  0  0  0  0  0  0  0  0  0  0
    5.2230    1.1140   16.9770 H   0  0  0  0  0  0  0  0  0  0  0  0
    8.3090    0.6910   19.6970 H   0  0  0  0  0  0  0  0  0  0  0  0
   12.0250   -3.2530   20.5200 H   0  0  0  0  0  0  0  0  0  0  0  0
   10.0470   -6.7570   26.0620 H   0  0  0  0  0  0  0  0  0  0  0  0
    9.9140   -6.8750   24.2360 H   0  0  0  0  0  0  0  0  0  0  0  0
    8.3040   -5.1850   25.8850 H   0  0  0  0  0  0  0  0  0  0  0  0
    8.8230   -4.3620   25.9800 H   0  0  0  0  0  0  0  0  0  0  0  0
   11.0890   -4.3860   25.8630 H   0  0  0  0  0  0  0  0  0  0  0  0
    4.8120    3.2070   21.8560 H   0  0  0  0  0  0  0  0  0  0  0  0
    5.3730    4.5810   20.9140 H   0  0  0  0  0  0  0  0  0  0  0  0
    3.9060    3.7170   20.4010 H   0  0  0  0  0  0  0  0  0  0  0  0
    8.4930    2.9560   23.8640 H   0  0  0  0  0  0  0  0  0  0  0  0
    9.9350    3.7500   23.1880 H   0  0  0  0  0  0  0  0  0  0  0  0
   14.7640   -3.1240   22.9290 H   0  0  0  0  0  0  0  0  0  0  0  0
   14.4160   -2.4280   21.4390 H   0  0  0  0  0  0  0  0  0  0  0  0
   13.8240   -1.5940   24.4220 H   0  0  0  0  0  0  0  0  0  0  0  0
   15.0630   -0.9150   23.4610 H   0  0  0  0  0  0  0  0  0  0  0  0
    7.0390    3.2230   22.1070 H   0  0  0  0  0  0  0  0  0  0  0  0
  5 34  1  0  0  0  0
  5 23  2  0  0  0  0
  1  5  1  0  0  0  0
  6 23  1  0  0  0  0
  1 30  1  0  0  0  0
  1  8  2  0  0  0  0
  6 35  1  0  0  0  0
  6 10  2  0  0  0  0
  8 10  1  0  0  0  0
  8 19  1  0  0  0  0
 10 25  1  0  0  0  0
 19 44  1  0  0  0  0
  7 36  1  0  0  0  0
 19 43  1  0  0  0  0
 19 42  1  0  0  0  0
 15 26  2  0  0  0  0
 15 25  1  0  0  0  0
 25 51  1  0  0  0  0
 21 48  1  0  0  0  0
  7 28  1  0  0  0  0
  7 13  2  0  0  0  0
 15 20  1  0  0  0  0
 14 28  1  0  0  0  0
  2 31  1  0  0  0  0
 13 21  1  0  0  0  0
 21 47  1  0  0  0  0
 21 22  1  0  0  0  0
 13 24  1  0  0  0  0
 22 27  1  0  0  0  0
 11 27  1  0  0  0  0
 20 46  1  0  0  0  0
  9 20  1  0  0  0  0
 20 45  1  0  0  0  0
  2 11  2  0  0  0  0
  2  9  1  0  0  0  0
 22 50  1  0  0  0  0
 22 49  1  0  0  0  0
 14 24  2  0  0  0  0
 14 18  1  0  0  0  0
  4 11  1  0  0  0  0
  3  9  2  0  0  0  0
 16 38  1  0  0  0  0
  4 33  1  0  0  0  0
  4 12  2  0  0  0  0
  3 32  1  0  0  0  0
  3 12  1  0  0  0  0
 17 18  1  0  0  0  0
 16 18  1  0  0  0  0
 18 41  1  0  0  0  0
 16 17  1  0  0  0  0
 17 39  1  0  0  0  0
 17 40  1  0  0  0  0
 16 37  1  0  0  0  0
 12 29  1  0  0  0  0
M  END
> <CID>
EN300-1894071

> <SMILES>
Cc1ccncc1NC(=O)Cc2cc(cc(c2)Cl)OCCc3csc(n3)C4CC4

> <RUN>
RUN2324

> <DDG (kcal/mol)>
-0.86

> <dDDG (kcal/mol)>
0.16

$$$$
EN300-7437130
  -OEChem-08252008263D

 48 50  0     0  0  0  0  0  0999 V2000
   11.3640    0.4330   24.8540 C   0  0  0  0  0  0  0  0  0  0  0  0
   11.4440    1.7690   24.4540 C   0  0  0  0  0  0  0  0  0  0  0  0
    4.3470    1.8700   17.6850 C   0  0  0  0  0  0  0  0  0  0  0  0
    9.9950    3.6450   22.6280 C   0  0  0  0  0  0  0  0  0  0  0  0
   12.7020    1.0490   22.5710 C   0  0  0  0  0  0  0  0  0  0  0  0
    9.1180    5.9070   22.7540 C   0  0  0  0  0  0  0  0  0  0  0  0
   11.5030    5.5300   22.9570 C   0  0  0  0  0  0  0  0  0  0  0  0
    5.1380    0.9550   17.0000 C   0  0  0  0  0  0  0  0  0  0  0  0
    6.6280    1.2110   18.7410 C   0  0  0  0  0  0  0  0  0  0  0  0
   12.0960   -0.6040   24.2190 C   0  0  0  0  0  0  0  0  0  0  0  0
    4.6100    2.3940   18.8890 C   0  0  0  0  0  0  0  0  0  0  0  0
    8.8830    4.4920   22.6310 C   0  0  0  0  0  0  0  0  0  0  0  0
   12.6880   -0.2650   22.9900 C   0  0  0  0  0  0  0  0  0  0  0  0
    5.8010    2.1290   19.4210 C   0  0  0  0  0  0  0  0  0  0  0  0
   12.1960    2.0830   23.3080 C   0  0  0  0  0  0  0  0  0  0  0  0
   11.2730    4.1560   22.8910 C   0  0  0  0  0  0  0  0  0  0  0  0
   10.4530    6.4110   22.9310 C   0  0  0  0  0  0  0  0  0  0  0  0
    7.3880    3.0230   21.1050 C   0  0  0  0  0  0  0  0  0  0  0  0
    3.6750    3.3890   19.5030 C   0  0  0  0  0  0  0  0  0  0  0  0
    7.5670    3.9030   22.4180 C   0  0  0  0  0  0  0  0  0  0  0  0
   13.3380   -1.2150   22.0870 C   0  0  0  0  0  0  0  0  0  0  0  0
   12.1160   -2.0330   24.7740 C   0  0  0  0  0  0  0  0  0  0  0  0
    6.3240    0.6190   17.5400 N   0  0  0  0  0  0  0  0  0  0  0  0
    6.0920    2.7530   20.6430 N   0  0  0  0  0  0  0  0  0  0  0  0
    8.3530    2.7550   20.4030 O   0  0  0  0  0  0  0  0  0  0  0  0
   12.4390    3.3780   22.8880 O   0  0  0  0  0  0  0  0  0  0  0  0
   11.6060   -2.9650   23.9160 F   0  0  0  0  0  0  0  0  0  0  0  0
   13.4460   -2.3830   25.1140 F   0  0  0  0  0  0  0  0  0  0  0  0
   11.3710   -2.0110   25.9630 F   0  0  0  0  0  0  0  0  0  0  0  0
   10.7630    8.1990   22.8900 Cl  0  0  0  0  0  0  0  0  0  0  0  0
   12.0250   -1.5950   20.6180 Br  0  0  0  0  0  0  0  0  0  0  0  0
   10.7790    0.2550   25.7520 H   0  0  0  0  0  0  0  0  0  0  0  0
   10.9930    2.5270   25.0770 H   0  0  0  0  0  0  0  0  0  0  0  0
    3.3890    2.0310   17.1940 H   0  0  0  0  0  0  0  0  0  0  0  0
    9.8150    2.5840   22.4930 H   0  0  0  0  0  0  0  0  0  0  0  0
   13.1570    1.3130   21.6290 H   0  0  0  0  0  0  0  0  0  0  0  0
    8.3040    6.5990   22.5560 H   0  0  0  0  0  0  0  0  0  0  0  0
   12.5320    5.8420   23.0990 H   0  0  0  0  0  0  0  0  0  0  0  0
    4.7790    0.7380   16.0050 H   0  0  0  0  0  0  0  0  0  0  0  0
    7.5340    0.8210   19.1990 H   0  0  0  0  0  0  0  0  0  0  0  0
    3.8990    4.4480   19.2790 H   0  0  0  0  0  0  0  0  0  0  0  0
    2.6860    3.1730   19.1080 H   0  0  0  0  0  0  0  0  0  0  0  0
    3.6190    3.2550   20.5840 H   0  0  0  0  0  0  0  0  0  0  0  0
    7.2900    3.3850   23.3510 H   0  0  0  0  0  0  0  0  0  0  0  0
    6.8210    4.6980   22.3560 H   0  0  0  0  0  0  0  0  0  0  0  0
   13.6250   -2.1760   22.5260 H   0  0  0  0  0  0  0  0  0  0  0  0
   14.1660   -0.7470   21.5570 H   0  0  0  0  0  0  0  0  0  0  0  0
    5.3620    3.2300   21.1700 H   0  0  0  0  0  0  0  0  0  0  0  0
  8 39  1  0  0  0  0
  8 23  2  0  0  0  0
  3  8  1  0  0  0  0
  3 34  1  0  0  0  0
  9 23  1  0  0  0  0
  3 11  2  0  0  0  0
  9 40  1  0  0  0  0
  9 14  2  0  0  0  0
 11 14  1  0  0  0  0
 11 19  1  0  0  0  0
 19 42  1  0  0  0  0
 19 41  1  0  0  0  0
 14 24  1  0  0  0  0
 19 43  1  0  0  0  0
 18 25  2  0  0  0  0
 21 31  1  0  0  0  0
 18 24  1  0  0  0  0
 24 48  1  0  0  0  0
 18 20  1  0  0  0  0
 21 47  1  0  0  0  0
  5 36  1  0  0  0  0
 21 46  1  0  0  0  0
 13 21  1  0  0  0  0
 20 45  1  0  0  0  0
 12 20  1  0  0  0  0
 20 44  1  0  0  0  0
  4 35  1  0  0  0  0
  6 37  1  0  0  0  0
  5 13  2  0  0  0  0
  5 15  1  0  0  0  0
  4 12  2  0  0  0  0
  4 16  1  0  0  0  0
  6 12  1  0  0  0  0
  6 17  2  0  0  0  0
 16 26  1  0  0  0  0
 15 26  1  0  0  0  0
 17 30  1  0  0  0  0
  7 16  2  0  0  0  0
  7 17  1  0  0  0  0
  7 38  1  0  0  0  0
 10 13  1  0  0  0  0
  2 15  2  0  0  0  0
 22 27  1  0  0  0  0
 10 22  1  0  0  0  0
  1 10  2  0  0  0  0
  1  2  1  0  0  0  0
  2 33  1  0  0  0  0
 22 28  1  0  0  0  0
 22 29  1  0  0  0  0
  1 32  1  0  0  0  0
M  END
> <CID>
EN300-7437130

> <SMILES>
Cc1ccncc1NC(=O)Cc2cc(cc(c2)Cl)Oc3ccc(c(c3)CBr)C(F)(F)F

> <RUN>
RUN3604

> <DDG (kcal/mol)>
-0.86

> <dDDG (kcal/mol)>
0.12

$$$$
EN300-1724721
  -OEChem-08252008263D

 47 49  0     0  0  0  0  0  0999 V2000
    8.4520   -3.9910   28.1670 C   0  0  0  0  0  0  0  0  0  0  0  0
    8.2300   -5.2920   28.5000 C   0  0  0  0  0  0  0  0  0  0  0  0
    9.4200   -3.6340   27.2480 C   0  0  0  0  0  0  0  0  0  0  0  0
    4.7650    1.2830   19.3530 C   0  0  0  0  0  0  0  0  0  0  0  0
    9.2800   -3.7930   23.8910 C   0  0  0  0  0  0  0  0  0  0  0  0
    9.8530   -2.4780   21.9430 C   0  0  0  0  0  0  0  0  0  0  0  0
   11.4680   -2.9330   23.6870 C   0  0  0  0  0  0  0  0  0  0  0  0
    4.9500    0.9070   18.0270 C   0  0  0  0  0  0  0  0  0  0  0  0
    6.2520   -0.7750   18.6030 C   0  0  0  0  0  0  0  0  0  0  0  0
    5.3910    0.6090   20.3740 C   0  0  0  0  0  0  0  0  0  0  0  0
    8.9070   -3.2320   22.6940 C   0  0  0  0  0  0  0  0  0  0  0  0
    9.8760   -6.0370   26.8340 C   0  0  0  0  0  0  0  0  0  0  0  0
    8.9570   -6.3040   27.8450 C   0  0  0  0  0  0  0  0  0  0  0  0
    6.1780   -0.5160   19.9770 C   0  0  0  0  0  0  0  0  0  0  0  0
   10.1190   -4.6820   26.5260 C   0  0  0  0  0  0  0  0  0  0  0  0
   10.5470   -3.6620   24.3870 C   0  0  0  0  0  0  0  0  0  0  0  0
   11.1570   -2.3430   22.4370 C   0  0  0  0  0  0  0  0  0  0  0  0
    7.0710   -2.6780   20.8760 C   0  0  0  0  0  0  0  0  0  0  0  0
    5.1690    1.1610   21.7910 C   0  0  0  0  0  0  0  0  0  0  0  0
    7.5360   -3.4180   22.1320 C   0  0  0  0  0  0  0  0  0  0  0  0
   10.4000   -7.1240   26.0170 C   0  0  0  0  0  0  0  0  0  0  0  0
    5.6690   -0.1400   17.6540 N   0  0  0  0  0  0  0  0  0  0  0  0
    6.8510   -1.3080   20.9170 N   0  0  0  0  0  0  0  0  0  0  0  0
    8.6800   -7.5710   28.3340 N   0  0  0  0  0  0  0  0  0  0  0  0
    6.8580   -3.3590   19.8490 O   0  0  0  0  0  0  0  0  0  0  0  0
    7.6610   -8.1080   27.8940 O   0  0  0  0  0  0  0  0  0  0  0  0
    9.4600   -8.0650   29.1710 O   0  0  0  0  0  0  0  0  0  0  0  0
   11.0060   -4.2920   25.5500 O   0  0  0  0  0  0  0  0  0  0  0  0
   12.3250   -1.5040   21.5130 Cl  0  0  0  0  0  0  0  0  0  0  0  0
    9.1580   -7.5060   24.5240 Br  0  0  0  0  0  0  0  0  0  0  0  0
    7.9540   -3.2060   28.7360 H   0  0  0  0  0  0  0  0  0  0  0  0
    7.4880   -5.4850   29.2640 H   0  0  0  0  0  0  0  0  0  0  0  0
    9.5840   -2.5810   27.0450 H   0  0  0  0  0  0  0  0  0  0  0  0
    4.0110    2.0470   19.5440 H   0  0  0  0  0  0  0  0  0  0  0  0
    8.6380   -4.4430   24.4740 H   0  0  0  0  0  0  0  0  0  0  0  0
    9.5350   -2.0670   20.9840 H   0  0  0  0  0  0  0  0  0  0  0  0
   12.4620   -2.7340   24.0900 H   0  0  0  0  0  0  0  0  0  0  0  0
    4.5330    1.4560   17.1970 H   0  0  0  0  0  0  0  0  0  0  0  0
    6.9750   -1.5140   18.2880 H   0  0  0  0  0  0  0  0  0  0  0  0
    4.2430    0.8480   22.2750 H   0  0  0  0  0  0  0  0  0  0  0  0
    6.0060    1.0210   22.4770 H   0  0  0  0  0  0  0  0  0  0  0  0
    5.0380    2.2520   21.7620 H   0  0  0  0  0  0  0  0  0  0  0  0
    7.3260   -4.4670   21.9190 H   0  0  0  0  0  0  0  0  0  0  0  0
    6.8300   -3.1720   22.9420 H   0  0  0  0  0  0  0  0  0  0  0  0
   11.3700   -6.8400   25.6070 H   0  0  0  0  0  0  0  0  0  0  0  0
   10.6010   -8.0630   26.5540 H   0  0  0  0  0  0  0  0  0  0  0  0
    6.9550   -0.9250   21.8650 H   0  0  0  0  0  0  0  0  0  0  0  0
  8 38  1  0  0  0  0
  8 22  2  0  0  0  0
  9 22  1  0  0  0  0
  4  8  1  0  0  0  0
  9 39  1  0  0  0  0
  9 14  2  0  0  0  0
  4 34  1  0  0  0  0
  4 10  2  0  0  0  0
 18 25  2  0  0  0  0
 10 14  1  0  0  0  0
 14 23  1  0  0  0  0
 10 19  1  0  0  0  0
 18 23  1  0  0  0  0
 18 20  1  0  0  0  0
 23 47  1  0  0  0  0
  6 36  1  0  0  0  0
 17 29  1  0  0  0  0
 19 42  1  0  0  0  0
 19 40  1  0  0  0  0
 19 41  1  0  0  0  0
 20 43  1  0  0  0  0
  6 17  2  0  0  0  0
  6 11  1  0  0  0  0
 11 20  1  0  0  0  0
 20 44  1  0  0  0  0
  7 17  1  0  0  0  0
  5 11  2  0  0  0  0
  7 37  1  0  0  0  0
  7 16  2  0  0  0  0
  5 16  1  0  0  0  0
  5 35  1  0  0  0  0
 16 28  1  0  0  0  0
 21 30  1  0  0  0  0
 15 28  1  0  0  0  0
 21 45  1  0  0  0  0
 21 46  1  0  0  0  0
 12 21  1  0  0  0  0
 12 15  2  0  0  0  0
  3 15  1  0  0  0  0
 12 13  1  0  0  0  0
  3 33  1  0  0  0  0
  1  3  2  0  0  0  0
 13 24  1  0  0  0  0
  2 13  2  0  0  0  0
 24 26  2  0  0  0  0
  1  2  1  0  0  0  0
  1 31  1  0  0  0  0
 24 27  2  0  0  0  0
  2 32  1  0  0  0  0
M  END
> <CID>
EN300-1724721

> <SMILES>
Cc1ccncc1NC(=O)Cc2cc(cc(c2)Cl)Oc3cccc(c3CBr)N(=O)=O

> <RUN>
RUN2085

> <DDG (kcal/mol)>
-0.85

> <dDDG (kcal/mol)>
0.13

$$$$
EN300-29546
  -OEChem-08252008263D

 45 47  0     0  0  0  0  0  0999 V2000
   10.6730    2.6340   23.4210 C   0  0  0  0  0  0  0  0  0  0  0  0
    9.7870    3.7020   23.4180 C   0  0  0  0  0  0  0  0  0  0  0  0
    6.1690    2.2830   19.5410 C   0  0  0  0  0  0  0  0  0  0  0  0
   10.1310   -1.2170   23.1620 C   0  0  0  0  0  0  0  0  0  0  0  0
    8.6200    2.8360   25.3410 C   0  0  0  0  0  0  0  0  0  0  0  0
   11.2430   -2.1580   21.2580 C   0  0  0  0  0  0  0  0  0  0  0  0
   12.3590   -0.5480   22.6230 C   0  0  0  0  0  0  0  0  0  0  0  0
    6.1980    2.0380   18.2180 C   0  0  0  0  0  0  0  0  0  0  0  0
    7.2460    0.0410   18.5390 C   0  0  0  0  0  0  0  0  0  0  0  0
    6.7250    1.3780   20.4810 C   0  0  0  0  0  0  0  0  0  0  0  0
   10.0720   -2.0820   22.0520 C   0  0  0  0  0  0  0  0  0  0  0  0
    9.4500    1.6950   25.3090 C   0  0  0  0  0  0  0  0  0  0  0  0
    7.2370    0.2100   19.9360 C   0  0  0  0  0  0  0  0  0  0  0  0
   10.4530    1.5750   24.2820 C   0  0  0  0  0  0  0  0  0  0  0  0
   11.2620   -0.3640   23.3440 C   0  0  0  0  0  0  0  0  0  0  0  0
    8.7300    3.8210   24.4050 C   0  0  0  0  0  0  0  0  0  0  0  0
   12.4270   -1.4490   21.5790 C   0  0  0  0  0  0  0  0  0  0  0  0
    8.0520   -2.0540   20.5880 C   0  0  0  0  0  0  0  0  0  0  0  0
    6.6210    1.6320   22.0060 C   0  0  0  0  0  0  0  0  0  0  0  0
    8.8120   -2.7870   21.5810 C   0  0  0  0  0  0  0  0  0  0  0  0
    9.2300    0.5890   26.3570 C   0  0  0  0  0  0  0  0  0  0  0  0
    6.7880    1.0160   17.6540 N   0  0  0  0  0  0  0  0  0  0  0  0
    7.8570   -0.7230   20.8240 N   0  0  0  0  0  0  0  0  0  0  0  0
    7.4690   -2.5720   19.6370 O   0  0  0  0  0  0  0  0  0  0  0  0
   11.3070    0.5650   24.3600 O   0  0  0  0  0  0  0  0  0  0  0  0
    7.8530    4.8600   24.3100 F   0  0  0  0  0  0  0  0  0  0  0  0
   13.8860   -1.6350   20.7260 Cl  0  0  0  0  0  0  0  0  0  0  0  0
    7.5460   -0.3570   25.8890 Br  0  0  0  0  0  0  0  0  0  0  0  0
   11.4990    2.6530   22.7170 H   0  0  0  0  0  0  0  0  0  0  0  0
    9.9060    4.6140   22.8370 H   0  0  0  0  0  0  0  0  0  0  0  0
    5.7410    3.2040   19.9260 H   0  0  0  0  0  0  0  0  0  0  0  0
    9.2820   -1.1730   23.8310 H   0  0  0  0  0  0  0  0  0  0  0  0
    7.8380    2.8840   26.0910 H   0  0  0  0  0  0  0  0  0  0  0  0
   11.2970   -2.7920   20.3660 H   0  0  0  0  0  0  0  0  0  0  0  0
   13.1810    0.1320   22.7830 H   0  0  0  0  0  0  0  0  0  0  0  0
    5.6700    2.7430   17.5830 H   0  0  0  0  0  0  0  0  0  0  0  0
    7.7460   -0.8150   18.0990 H   0  0  0  0  0  0  0  0  0  0  0  0
    5.8280    1.0510   22.4760 H   0  0  0  0  0  0  0  0  0  0  0  0
    7.5820    1.4400   22.4990 H   0  0  0  0  0  0  0  0  0  0  0  0
    6.4310    2.6890   22.2100 H   0  0  0  0  0  0  0  0  0  0  0  0
    8.9650   -3.7330   21.0450 H   0  0  0  0  0  0  0  0  0  0  0  0
    8.2490   -3.1140   22.4500 H   0  0  0  0  0  0  0  0  0  0  0  0
   10.0810   -0.1000   26.3890 H   0  0  0  0  0  0  0  0  0  0  0  0
    9.1630    1.0740   27.3280 H   0  0  0  0  0  0  0  0  0  0  0  0
    8.1010   -0.4100   21.7600 H   0  0  0  0  0  0  0  0  0  0  0  0
  8 36  1  0  0  0  0
  8 22  2  0  0  0  0
  9 22  1  0  0  0  0
  9 37  1  0  0  0  0
  3  8  1  0  0  0  0
  9 13  2  0  0  0  0
  3 31  1  0  0  0  0
  3 10  2  0  0  0  0
 18 24  2  0  0  0  0
 10 13  1  0  0  0  0
 13 23  1  0  0  0  0
  6 34  1  0  0  0  0
 10 19  1  0  0  0  0
 18 23  1  0  0  0  0
 18 20  1  0  0  0  0
 17 27  1  0  0  0  0
 23 45  1  0  0  0  0
 20 41  1  0  0  0  0
  6 17  2  0  0  0  0
  6 11  1  0  0  0  0
  7 17  1  0  0  0  0
 11 20  1  0  0  0  0
 20 42  1  0  0  0  0
 19 40  1  0  0  0  0
 19 38  1  0  0  0  0
 19 39  1  0  0  0  0
  4 11  2  0  0  0  0
  7 35  1  0  0  0  0
  7 15  2  0  0  0  0
  1 29  1  0  0  0  0
  2 30  1  0  0  0  0
  4 15  1  0  0  0  0
  4 32  1  0  0  0  0
 15 25  1  0  0  0  0
  1  2  2  0  0  0  0
  2 16  1  0  0  0  0
  1 14  1  0  0  0  0
 14 25  1  0  0  0  0
 12 14  2  0  0  0  0
 16 26  1  0  0  0  0
  5 16  2  0  0  0  0
  5 12  1  0  0  0  0
 12 21  1  0  0  0  0
  5 33  1  0  0  0  0
 21 28  1  0  0  0  0
 21 43  1  0  0  0  0
 21 44  1  0  0  0  0
M  END
> <CID>
EN300-29546

> <SMILES>
Cc1ccncc1NC(=O)Cc2cc(cc(c2)Cl)Oc3ccc(cc3CBr)F

> <RUN>
RUN1118

> <DDG (kcal/mol)>
-0.85

> <dDDG (kcal/mol)>
0.13

$$$$
EN300-7494548
  -OEChem-08252008263D

 62 65  0     0  0  0  0  0  0999 V2000
   10.9250    3.9390   25.7180 C   0  0  0  0  0  0  0  0  0  0  0  0
   12.7080    4.4610   24.3320 C   0  0  0  0  0  0  0  0  0  0  0  0
   11.1260    2.5320   25.4790 C   0  0  0  0  0  0  0  0  0  0  0  0
   12.8610    3.0610   23.9730 C   0  0  0  0  0  0  0  0  0  0  0  0
    5.5820    2.4590   18.9560 C   0  0  0  0  0  0  0  0  0  0  0  0
    9.5400   -1.2780   22.5700 C   0  0  0  0  0  0  0  0  0  0  0  0
   10.4750   -2.7710   20.9240 C   0  0  0  0  0  0  0  0  0  0  0  0
   11.9500   -1.5750   22.3670 C   0  0  0  0  0  0  0  0  0  0  0  0
    5.5740    2.1430   17.5160 C   0  0  0  0  0  0  0  0  0  0  0  0
    6.7680    0.2650   17.8780 C   0  0  0  0  0  0  0  0  0  0  0  0
   11.7230    4.9210   25.1970 C   0  0  0  0  0  0  0  0  0  0  0  0
   12.0540    2.1340   24.5410 C   0  0  0  0  0  0  0  0  0  0  0  0
    6.2500    1.6140   19.8680 C   0  0  0  0  0  0  0  0  0  0  0  0
    9.3290   -2.2720   21.6130 C   0  0  0  0  0  0  0  0  0  0  0  0
    6.8300    0.5180   19.3070 C   0  0  0  0  0  0  0  0  0  0  0  0
   10.8210   -0.9690   22.9970 C   0  0  0  0  0  0  0  0  0  0  0  0
   11.8290   -2.4720   21.3160 C   0  0  0  0  0  0  0  0  0  0  0  0
    7.3070   -1.7900   20.1080 C   0  0  0  0  0  0  0  0  0  0  0  0
   11.1010    6.7760   22.9540 C   0  0  0  0  0  0  0  0  0  0  0  0
   10.1060    8.3330   24.5700 C   0  0  0  0  0  0  0  0  0  0  0  0
   12.2470    7.7840   22.7580 C   0  0  0  0  0  0  0  0  0  0  0  0
   11.1390    9.4260   24.2810 C   0  0  0  0  0  0  0  0  0  0  0  0
    6.4150    2.0300   21.2600 C   0  0  0  0  0  0  0  0  0  0  0  0
    7.8870   -2.6350   21.2120 C   0  0  0  0  0  0  0  0  0  0  0  0
   11.4920    6.4310   25.4580 C   0  0  0  0  0  0  0  0  0  0  0  0
   12.2060    0.6610   24.0990 C   0  0  0  0  0  0  0  0  0  0  0  0
    6.1220    1.0790   17.0170 N   0  0  0  0  0  0  0  0  0  0  0  0
    7.4080   -0.4090   20.2160 N   0  0  0  0  0  0  0  0  0  0  0  0
   10.6230    6.9600   24.3500 N   0  3  0  0  0  0  0  0  0  0  0  0
    6.6970   -2.3640   19.1900 O   0  0  0  0  0  0  0  0  0  0  0  0
   11.8410    9.1320   23.0630 O   0  0  0  0  0  0  0  0  0  0  0  0
   10.9590   -0.0100   23.9380 O   0  0  0  0  0  0  0  0  0  0  0  0
   13.1960   -3.3220   20.6410 Cl  0  0  0  0  0  0  0  0  0  0  0  0
   10.2750    4.3360   26.4850 H   0  0  0  0  0  0  0  0  0  0  0  0
   13.2220    5.2520   23.8040 H   0  0  0  0  0  0  0  0  0  0  0  0
   10.5930    1.7590   26.0210 H   0  0  0  0  0  0  0  0  0  0  0  0
   13.5250    2.7540   23.1620 H   0  0  0  0  0  0  0  0  0  0  0  0
    5.2610    3.4380   19.2940 H   0  0  0  0  0  0  0  0  0  0  0  0
    8.7970   -0.6260   23.0240 H   0  0  0  0  0  0  0  0  0  0  0  0
   10.4610   -3.4600   20.0830 H   0  0  0  0  0  0  0  0  0  0  0  0
   12.9560   -1.3070   22.6540 H   0  0  0  0  0  0  0  0  0  0  0  0
    4.9870    2.7020   16.7900 H   0  0  0  0  0  0  0  0  0  0  0  0
    7.1500   -0.6990   17.5500 H   0  0  0  0  0  0  0  0  0  0  0  0
   10.3070    7.0440   22.2430 H   0  0  0  0  0  0  0  0  0  0  0  0
   11.4310    5.7460   22.7860 H   0  0  0  0  0  0  0  0  0  0  0  0
    9.8930    8.4670   25.6410 H   0  0  0  0  0  0  0  0  0  0  0  0
    9.1370    8.5140   24.1100 H   0  0  0  0  0  0  0  0  0  0  0  0
   13.0280    7.4860   23.4660 H   0  0  0  0  0  0  0  0  0  0  0  0
   12.8180    7.6410   21.8450 H   0  0  0  0  0  0  0  0  0  0  0  0
   10.5990   10.3790   24.3230 H   0  0  0  0  0  0  0  0  0  0  0  0
   11.9260    9.4010   25.0400 H   0  0  0  0  0  0  0  0  0  0  0  0
    5.7130    2.8400   21.4650 H   0  0  0  0  0  0  0  0  0  0  0  0
    6.2480    1.2600   22.0090 H   0  0  0  0  0  0  0  0  0  0  0  0
    7.4240    2.4040   21.4350 H   0  0  0  0  0  0  0  0  0  0  0  0
    7.9310   -3.6960   20.9320 H   0  0  0  0  0  0  0  0  0  0  0  0
    7.2100   -2.4240   22.0490 H   0  0  0  0  0  0  0  0  0  0  0  0
   11.0030    6.5460   26.4260 H   0  0  0  0  0  0  0  0  0  0  0  0
   12.3450    7.1210   25.4040 H   0  0  0  0  0  0  0  0  0  0  0  0
   12.7120    0.7000   23.1320 H   0  0  0  0  0  0  0  0  0  0  0  0
   12.8100    0.2230   24.8970 H   0  0  0  0  0  0  0  0  0  0  0  0
    7.8360   -0.0660   21.0720 H   0  0  0  0  0  0  0  0  0  0  0  0
    9.8500    6.3150   24.4590 H   0  0  0  0  0  0  0  0  0  0  0  0
  9 42  1  0  0  0  0
  9 27  2  0  0  0  0
 10 27  1  0  0  0  0
  5  9  1  0  0  0  0
 10 43  1  0  0  0  0
 10 15  2  0  0  0  0
  5 38  1  0  0  0  0
  5 13  2  0  0  0  0
 18 30  2  0  0  0  0
 13 15  1  0  0  0  0
 15 28  1  0  0  0  0
 13 23  1  0  0  0  0
  7 40  1  0  0  0  0
 18 28  1  0  0  0  0
 18 24  1  0  0  0  0
 28 61  1  0  0  0  0
 17 33  1  0  0  0  0
  7 17  2  0  0  0  0
  7 14  1  0  0  0  0
 24 55  1  0  0  0  0
 14 24  1  0  0  0  0
 24 56  1  0  0  0  0
 23 54  1  0  0  0  0
 23 52  1  0  0  0  0
 23 53  1  0  0  0  0
  8 17  1  0  0  0  0
  6 14  2  0  0  0  0
 21 49  1  0  0  0  0
 19 44  1  0  0  0  0
  8 41  1  0  0  0  0
  8 16  2  0  0  0  0
  6 16  1  0  0  0  0
  6 39  1  0  0  0  0
 19 21  1  0  0  0  0
 21 31  1  0  0  0  0
 21 48  1  0  0  0  0
 19 45  1  0  0  0  0
 19 29  1  0  0  0  0
 16 32  1  0  0  0  0
 22 31  1  0  0  0  0
 26 59  1  0  0  0  0
  4 37  1  0  0  0  0
  2 35  1  0  0  0  0
 26 32  1  0  0  0  0
  2  4  2  0  0  0  0
  4 12  1  0  0  0  0
 12 26  1  0  0  0  0
 26 60  1  0  0  0  0
 20 47  1  0  0  0  0
 22 50  1  0  0  0  0
 20 22  1  0  0  0  0
 22 51  1  0  0  0  0
  2 11  1  0  0  0  0
 29 62  1  0  0  0  0
 20 29  1  0  0  0  0
 25 29  1  0  0  0  0
  3 12  2  0  0  0  0
 20 46  1  0  0  0  0
 11 25  1  0  0  0  0
  1 11  2  0  0  0  0
 25 58  1  0  0  0  0
 25 57  1  0  0  0  0
  1  3  1  0  0  0  0
  3 36  1  0  0  0  0
  1 34  1  0  0  0  0
M  CHG  1  29   1
M  END
> <CID>
EN300-7494548

> <SMILES>
Cc1ccncc1NC(=O)Cc2cc(cc(c2)Cl)OCc3ccc(cc3)C[NH+]4CCOCC4

> <RUN>
RUN3552

> <DDG (kcal/mol)>
-0.84

> <dDDG (kcal/mol)>
0.15

$$$$
EN300-643001
  -OEChem-08252008263D

 45 47  0     0  0  0  0  0  0999 V2000
    4.8610    1.4650   19.4720 C   0  0  0  0  0  0  0  0  0  0  0  0
   11.0680   -1.0160   24.1260 C   0  0  0  0  0  0  0  0  0  0  0  0
   11.7690   -1.9510   22.0020 C   0  0  0  0  0  0  0  0  0  0  0  0
   13.4000   -1.2550   23.5900 C   0  0  0  0  0  0  0  0  0  0  0  0
    5.4890    1.3440   18.2440 C   0  0  0  0  0  0  0  0  0  0  0  0
    7.3370    0.4610   19.2050 C   0  0  0  0  0  0  0  0  0  0  0  0
   11.9490   -2.2600   26.9690 C   0  0  0  0  0  0  0  0  0  0  0  0
    5.4800    0.8480   20.5860 C   0  0  0  0  0  0  0  0  0  0  0  0
   10.7020   -1.5810   22.8800 C   0  0  0  0  0  0  0  0  0  0  0  0
    6.7330    0.2550   20.4580 C   0  0  0  0  0  0  0  0  0  0  0  0
   12.3700   -0.8200   24.5130 C   0  0  0  0  0  0  0  0  0  0  0  0
   12.2710   -0.9570   26.8870 C   0  0  0  0  0  0  0  0  0  0  0  0
   13.0890   -1.8890   22.3960 C   0  0  0  0  0  0  0  0  0  0  0  0
   12.4120   -0.4990   28.2390 C   0  0  0  0  0  0  0  0  0  0  0  0
    8.7250   -0.4890   21.6790 C   0  0  0  0  0  0  0  0  0  0  0  0
    4.7900    0.9890   21.9150 C   0  0  0  0  0  0  0  0  0  0  0  0
   11.7920   -4.0120   28.7840 C   0  0  0  0  0  0  0  0  0  0  0  0
    9.2370   -1.6140   22.4960 C   0  0  0  0  0  0  0  0  0  0  0  0
   12.6240    0.9630   28.5440 C   0  0  0  0  0  0  0  0  0  0  0  0
    6.7500    0.9690   18.1210 N   0  0  0  0  0  0  0  0  0  0  0  0
   12.2520   -1.5220   29.1150 N   0  0  0  0  0  0  0  0  0  0  0  0
   11.9930   -2.6230   28.3070 N   0  0  0  0  0  0  0  0  0  0  0  0
    7.3900   -0.3320   21.5290 N   0  0  0  0  0  0  0  0  0  0  0  0
    9.5630    0.2270   21.1220 O   0  0  0  0  0  0  0  0  0  0  0  0
   12.5840   -0.1950   25.7400 O   0  0  0  0  0  0  0  0  0  0  0  0
   14.3610   -2.3600   21.2460 Cl  0  0  0  0  0  0  0  0  0  0  0  0
   14.5630    1.5100   28.3550 Br  0  0  0  0  0  0  0  0  0  0  0  0
    3.8160    1.7660   19.5490 H   0  0  0  0  0  0  0  0  0  0  0  0
   10.2200   -0.6520   24.6950 H   0  0  0  0  0  0  0  0  0  0  0  0
   11.5390   -2.2690   20.9860 H   0  0  0  0  0  0  0  0  0  0  0  0
   14.4330   -1.0770   23.8720 H   0  0  0  0  0  0  0  0  0  0  0  0
    4.9530    1.5980   17.3320 H   0  0  0  0  0  0  0  0  0  0  0  0
    8.3480    0.2130   18.8770 H   0  0  0  0  0  0  0  0  0  0  0  0
   11.6940   -2.8940   26.1290 H   0  0  0  0  0  0  0  0  0  0  0  0
    3.8390    1.5170   21.7900 H   0  0  0  0  0  0  0  0  0  0  0  0
    4.7030    0.0160   22.4300 H   0  0  0  0  0  0  0  0  0  0  0  0
    5.4400    1.5890   22.5530 H   0  0  0  0  0  0  0  0  0  0  0  0
   10.9230   -4.3810   28.2310 H   0  0  0  0  0  0  0  0  0  0  0  0
   12.7470   -4.5080   28.5790 H   0  0  0  0  0  0  0  0  0  0  0  0
   11.8440   -4.1340   29.8720 H   0  0  0  0  0  0  0  0  0  0  0  0
    9.0170   -2.5560   21.9970 H   0  0  0  0  0  0  0  0  0  0  0  0
    8.6450   -1.5600   23.4160 H   0  0  0  0  0  0  0  0  0  0  0  0
   12.3520    0.9980   29.6070 H   0  0  0  0  0  0  0  0  0  0  0  0
   11.9210    1.5150   27.9060 H   0  0  0  0  0  0  0  0  0  0  0  0
    6.8070   -0.6480   22.3100 H   0  0  0  0  0  0  0  0  0  0  0  0
  5 32  1  0  0  0  0
  5 20  2  0  0  0  0
  6 20  1  0  0  0  0
  1  5  1  0  0  0  0
  6 33  1  0  0  0  0
  6 10  2  0  0  0  0
  1 28  1  0  0  0  0
  1  8  2  0  0  0  0
  8 10  1  0  0  0  0
 10 23  1  0  0  0  0
  8 16  1  0  0  0  0
  3 30  1  0  0  0  0
 15 24  2  0  0  0  0
 13 26  1  0  0  0  0
 15 23  1  0  0  0  0
 23 45  1  0  0  0  0
 15 18  1  0  0  0  0
 16 35  1  0  0  0  0
 16 36  1  0  0  0  0
 16 37  1  0  0  0  0
 18 41  1  0  0  0  0
  3 13  2  0  0  0  0
  3  9  1  0  0  0  0
  4 13  1  0  0  0  0
  9 18  1  0  0  0  0
 18 42  1  0  0  0  0
  2  9  2  0  0  0  0
  4 31  1  0  0  0  0
  4 11  2  0  0  0  0
  2 11  1  0  0  0  0
  2 29  1  0  0  0  0
 11 25  1  0  0  0  0
 12 25  1  0  0  0  0
  7 34  1  0  0  0  0
  7 12  2  0  0  0  0
 12 14  1  0  0  0  0
  7 22  1  0  0  0  0
 19 44  1  0  0  0  0
 17 38  1  0  0  0  0
 14 19  1  0  0  0  0
 14 21  2  0  0  0  0
 17 22  1  0  0  0  0
 21 22  1  0  0  0  0
 19 27  1  0  0  0  0
 19 43  1  0  0  0  0
 17 39  1  0  0  0  0
 17 40  1  0  0  0  0
M  END
> <CID>
EN300-643001

> <SMILES>
Cc1ccncc1NC(=O)Cc2cc(cc(c2)Cl)Oc3cn(nc3CBr)C

> <RUN>
RUN1207

> <DDG (kcal/mol)>
-0.84

> <dDDG (kcal/mol)>
0.13

$$$$
EN300-7377816
  -OEChem-08252008263D

 60 62  0     0  0  0  0  0  0999 V2000
   12.1500   -0.9960   26.7890 C   0  0  0  0  0  0  0  0  0  0  0  0
   11.0180    0.9420   25.9980 C   0  0  0  0  0  0  0  0  0  0  0  0
   12.8520   -1.1090   25.5140 C   0  0  0  0  0  0  0  0  0  0  0  0
   11.7300    0.8880   24.7880 C   0  0  0  0  0  0  0  0  0  0  0  0
    5.2780    2.0930   18.8400 C   0  0  0  0  0  0  0  0  0  0  0  0
   10.2400   -1.1490   22.2040 C   0  0  0  0  0  0  0  0  0  0  0  0
   10.0310   -3.3770   21.2410 C   0  0  0  0  0  0  0  0  0  0  0  0
   12.1460   -2.1980   21.1280 C   0  0  0  0  0  0  0  0  0  0  0  0
    5.7320    1.7470   17.5960 C   0  0  0  0  0  0  0  0  0  0  0  0
    6.9520   -0.0190   18.4170 C   0  0  0  0  0  0  0  0  0  0  0  0
   11.2440    0.0160   27.0440 C   0  0  0  0  0  0  0  0  0  0  0  0
   12.6390   -0.1570   24.5140 C   0  0  0  0  0  0  0  0  0  0  0  0
    5.7830    1.4320   19.9440 C   0  0  0  0  0  0  0  0  0  0  0  0
    9.4420   -2.2960   21.9240 C   0  0  0  0  0  0  0  0  0  0  0  0
    6.6640    0.3880   19.7270 C   0  0  0  0  0  0  0  0  0  0  0  0
   11.5810   -1.1010   21.8090 C   0  0  0  0  0  0  0  0  0  0  0  0
   11.4020   -3.3530   20.8940 C   0  0  0  0  0  0  0  0  0  0  0  0
   10.4260    0.0090   28.2400 C   0  0  0  0  0  0  0  0  0  0  0  0
    7.2270   -1.7640   20.9250 C   0  0  0  0  0  0  0  0  0  0  0  0
    5.2630    1.9110   21.2890 C   0  0  0  0  0  0  0  0  0  0  0  0
    9.7320   -0.6000   31.3070 C   0  0  0  0  0  0  0  0  0  0  0  0
    8.2010   -1.2640   29.5150 C   0  0  0  0  0  0  0  0  0  0  0  0
    9.8540   -2.9080   30.4330 C   0  0  0  0  0  0  0  0  0  0  0  0
    7.9370   -2.3150   22.1440 C   0  0  0  0  0  0  0  0  0  0  0  0
   13.3530   -0.2700   23.1810 C   0  0  0  0  0  0  0  0  0  0  0  0
    9.5880   -1.4560   30.0390 C   0  0  0  0  0  0  0  0  0  0  0  0
    6.5300    0.7000   17.3330 N   0  0  0  0  0  0  0  0  0  0  0  0
    7.0530   -0.4170   20.8260 N   0  0  0  0  0  0  0  0  0  0  0  0
    9.6650    0.9410   28.4080 O   0  0  0  0  0  0  0  0  0  0  0  0
    6.7740   -2.5610   20.0830 O   0  0  0  0  0  0  0  0  0  0  0  0
   12.3040   -0.0520   22.1860 O   0  0  0  0  0  0  0  0  0  0  0  0
   10.5570   -1.1220   29.0110 O   0  0  0  0  0  0  0  0  0  0  0  0
   12.2080   -4.7590   20.1330 Cl  0  0  0  0  0  0  0  0  0  0  0  0
   12.3760   -1.7280   27.5520 H   0  0  0  0  0  0  0  0  0  0  0  0
   10.3240    1.7590   26.1790 H   0  0  0  0  0  0  0  0  0  0  0  0
   13.3830   -1.9570   25.1030 H   0  0  0  0  0  0  0  0  0  0  0  0
   11.5490    1.5870   23.9880 H   0  0  0  0  0  0  0  0  0  0  0  0
    4.7420    3.0200   18.9590 H   0  0  0  0  0  0  0  0  0  0  0  0
    9.8870   -0.3500   22.8500 H   0  0  0  0  0  0  0  0  0  0  0  0
    9.4270   -4.2680   21.0660 H   0  0  0  0  0  0  0  0  0  0  0  0
   13.1420   -2.0900   20.7230 H   0  0  0  0  0  0  0  0  0  0  0  0
    5.4150    2.4870   16.8660 H   0  0  0  0  0  0  0  0  0  0  0  0
    7.4870   -0.9420   18.2450 H   0  0  0  0  0  0  0  0  0  0  0  0
    5.0330    1.0330   21.9000 H   0  0  0  0  0  0  0  0  0  0  0  0
    6.0780    2.5430   21.6700 H   0  0  0  0  0  0  0  0  0  0  0  0
    4.3580    2.5130   21.3360 H   0  0  0  0  0  0  0  0  0  0  0  0
    9.6250    0.4910   31.2340 H   0  0  0  0  0  0  0  0  0  0  0  0
    8.9490   -0.8410   32.0360 H   0  0  0  0  0  0  0  0  0  0  0  0
   10.7000   -0.8020   31.7910 H   0  0  0  0  0  0  0  0  0  0  0  0
    7.8670   -0.2200   29.5300 H   0  0  0  0  0  0  0  0  0  0  0  0
    7.4060   -1.7280   30.1030 H   0  0  0  0  0  0  0  0  0  0  0  0
    8.0250   -1.7150   28.5350 H   0  0  0  0  0  0  0  0  0  0  0  0
   10.7930   -3.0870   30.9660 H   0  0  0  0  0  0  0  0  0  0  0  0
    9.0560   -3.2990   31.0800 H   0  0  0  0  0  0  0  0  0  0  0  0
    9.8690   -3.5580   29.5490 H   0  0  0  0  0  0  0  0  0  0  0  0
    7.5330   -3.2130   22.6390 H   0  0  0  0  0  0  0  0  0  0  0  0
    7.8360   -1.5410   22.9060 H   0  0  0  0  0  0  0  0  0  0  0  0
   14.1400    0.4970   23.1160 H   0  0  0  0  0  0  0  0  0  0  0  0
   13.9000   -1.1990   23.0040 H   0  0  0  0  0  0  0  0  0  0  0  0
    7.1320    0.1120   21.6900 H   0  0  0  0  0  0  0  0  0  0  0  0
  9 42  1  0  0  0  0
  9 27  2  0  0  0  0
 10 27  1  0  0  0  0
  5  9  1  0  0  0  0
 10 43  1  0  0  0  0
 10 15  2  0  0  0  0
  5 38  1  0  0  0  0
  5 13  2  0  0  0  0
 13 15  1  0  0  0  0
 15 28  1  0  0  0  0
 13 20  1  0  0  0  0
 19 30  2  0  0  0  0
 17 33  1  0  0  0  0
  8 41  1  0  0  0  0
 19 28  1  0  0  0  0
 28 60  1  0  0  0  0
  8 17  2  0  0  0  0
  7 17  1  0  0  0  0
 19 24  1  0  0  0  0
  7 40  1  0  0  0  0
  8 16  1  0  0  0  0
  7 14  2  0  0  0  0
 20 46  1  0  0  0  0
 20 45  1  0  0  0  0
 20 44  1  0  0  0  0
 16 31  1  0  0  0  0
  6 16  2  0  0  0  0
 14 24  1  0  0  0  0
  6 14  1  0  0  0  0
 24 56  1  0  0  0  0
 24 57  1  0  0  0  0
 25 31  1  0  0  0  0
  6 39  1  0  0  0  0
 25 59  1  0  0  0  0
 25 58  1  0  0  0  0
 12 25  1  0  0  0  0
  4 37  1  0  0  0  0
  4 12  2  0  0  0  0
  3 12  1  0  0  0  0
  2  4  1  0  0  0  0
  3 36  1  0  0  0  0
  1  3  2  0  0  0  0
  2 35  1  0  0  0  0
  2 11  2  0  0  0  0
  1 11  1  0  0  0  0
  1 34  1  0  0  0  0
 11 18  1  0  0  0  0
 18 29  2  0  0  0  0
 18 32  1  0  0  0  0
 22 52  1  0  0  0  0
 26 32  1  0  0  0  0
 22 50  1  0  0  0  0
 22 26  1  0  0  0  0
 22 51  1  0  0  0  0
 23 55  1  0  0  0  0
 23 26  1  0  0  0  0
 21 26  1  0  0  0  0
 23 53  1  0  0  0  0
 23 54  1  0  0  0  0
 21 47  1  0  0  0  0
 21 49  1  0  0  0  0
 21 48  1  0  0  0  0
M  END
> <CID>
EN300-7377816

> <SMILES>
Cc1ccncc1NC(=O)Cc2cc(cc(c2)Cl)OCc3ccc(cc3)C(=O)OC(C)(C)C

> <RUN>
RUN4473

> <DDG (kcal/mol)>
-0.84

> <dDDG (kcal/mol)>
0.17

$$$$
EN300-1277860
  -OEChem-08252008263D

 48 51  0     0  0  0  0  0  0999 V2000
    5.1910    0.9810   19.4190 C   0  0  0  0  0  0  0  0  0  0  0  0
    8.9570   -2.9570   24.4340 C   0  0  0  0  0  0  0  0  0  0  0  0
   10.0820   -3.0090   22.2420 C   0  0  0  0  0  0  0  0  0  0  0  0
   11.2450   -2.2270   24.1830 C   0  0  0  0  0  0  0  0  0  0  0  0
    5.3230    0.5690   18.1140 C   0  0  0  0  0  0  0  0  0  0  0  0
    6.6790   -1.1620   18.7540 C   0  0  0  0  0  0  0  0  0  0  0  0
    5.8950    0.3750   20.4320 C   0  0  0  0  0  0  0  0  0  0  0  0
    8.9290   -3.2220   23.0290 C   0  0  0  0  0  0  0  0  0  0  0  0
    6.6040   -0.7960   20.1050 C   0  0  0  0  0  0  0  0  0  0  0  0
   10.1060   -2.4620   24.9440 C   0  0  0  0  0  0  0  0  0  0  0  0
   11.1830   -2.5470   22.7940 C   0  0  0  0  0  0  0  0  0  0  0  0
    9.4330   -1.3770   28.5090 C   0  0  0  0  0  0  0  0  0  0  0  0
    9.4760   -2.0420   29.7120 C   0  0  0  0  0  0  0  0  0  0  0  0
    7.1490   -3.0300   21.1490 C   0  0  0  0  0  0  0  0  0  0  0  0
   10.8130    1.6960   27.0480 C   0  0  0  0  0  0  0  0  0  0  0  0
   10.0910    2.4590   28.1200 C   0  0  0  0  0  0  0  0  0  0  0  0
    9.5910    1.0540   27.8210 C   0  0  0  0  0  0  0  0  0  0  0  0
    5.9050    1.0330   21.8340 C   0  0  0  0  0  0  0  0  0  0  0  0
    7.6170   -3.7180   22.4200 C   0  0  0  0  0  0  0  0  0  0  0  0
    9.1080   -1.9730   27.1420 C   0  0  0  0  0  0  0  0  0  0  0  0
    5.9770   -0.5520   17.7500 N   0  0  0  0  0  0  0  0  0  0  0  0
    9.9360   -1.1730   30.7170 N   0  0  0  0  0  0  0  0  0  0  0  0
   10.0680   -0.0580   30.1340 N   0  0  0  0  0  0  0  0  0  0  0  0
    9.7720   -0.0880   28.7730 N   0  0  0  0  0  0  0  0  0  0  0  0
    6.9390   -1.6470   21.1720 N   0  0  0  0  0  0  0  0  0  0  0  0
    6.9370   -3.6990   20.1330 O   0  0  0  0  0  0  0  0  0  0  0  0
   10.2140   -2.0290   26.2930 O   0  0  0  0  0  0  0  0  0  0  0  0
   12.5840   -2.1480   21.7700 Cl  0  0  0  0  0  0  0  0  0  0  0  0
    9.0290   -3.8720   30.0570 Br  0  0  0  0  0  0  0  0  0  0  0  0
    4.6980    1.9430   19.4790 H   0  0  0  0  0  0  0  0  0  0  0  0
    8.0900   -3.0550   25.0720 H   0  0  0  0  0  0  0  0  0  0  0  0
    9.9750   -3.2220   21.1920 H   0  0  0  0  0  0  0  0  0  0  0  0
   12.1480   -1.8570   24.6500 H   0  0  0  0  0  0  0  0  0  0  0  0
    4.7490    1.0370   17.3210 H   0  0  0  0  0  0  0  0  0  0  0  0
    7.3210   -2.0170   18.5380 H   0  0  0  0  0  0  0  0  0  0  0  0
   10.7180    1.4030   25.9920 H   0  0  0  0  0  0  0  0  0  0  0  0
   10.8270    2.3840   26.2050 H   0  0  0  0  0  0  0  0  0  0  0  0
   10.6250    2.7390   29.0360 H   0  0  0  0  0  0  0  0  0  0  0  0
    9.4710    3.2960   27.7780 H   0  0  0  0  0  0  0  0  0  0  0  0
    8.7240    0.8610   27.1770 H   0  0  0  0  0  0  0  0  0  0  0  0
    6.7160    1.7130   22.0930 H   0  0  0  0  0  0  0  0  0  0  0  0
    5.0160    1.6720   21.9160 H   0  0  0  0  0  0  0  0  0  0  0  0
    5.7130    0.2670   22.5890 H   0  0  0  0  0  0  0  0  0  0  0  0
    7.7120   -4.7880   22.1820 H   0  0  0  0  0  0  0  0  0  0  0  0
    6.8510   -3.5800   23.1950 H   0  0  0  0  0  0  0  0  0  0  0  0
    8.8170   -3.0100   27.3110 H   0  0  0  0  0  0  0  0  0  0  0  0
    8.3130   -1.4030   26.6520 H   0  0  0  0  0  0  0  0  0  0  0  0
    7.0440   -1.2130   22.1000 H   0  0  0  0  0  0  0  0  0  0  0  0
  5 34  1  0  0  0  0
  5 21  2  0  0  0  0
  6 21  1  0  0  0  0
  1  5  1  0  0  0  0
  6 35  1  0  0  0  0
  6  9  2  0  0  0  0
  1 30  1  0  0  0  0
  1  7  2  0  0  0  0
  7  9  1  0  0  0  0
  9 25  1  0  0  0  0
 14 26  2  0  0  0  0
  7 18  1  0  0  0  0
 14 25  1  0  0  0  0
 14 19  1  0  0  0  0
 25 48  1  0  0  0  0
  3 32  1  0  0  0  0
 11 28  1  0  0  0  0
 18 42  1  0  0  0  0
 18 41  1  0  0  0  0
 18 43  1  0  0  0  0
 19 44  1  0  0  0  0
  3 11  2  0  0  0  0
  3  8  1  0  0  0  0
  8 19  1  0  0  0  0
 19 45  1  0  0  0  0
  4 11  1  0  0  0  0
  2  8  2  0  0  0  0
  4 33  1  0  0  0  0
  4 10  2  0  0  0  0
  2 10  1  0  0  0  0
  2 31  1  0  0  0  0
 10 27  1  0  0  0  0
 15 36  1  0  0  0  0
 15 37  1  0  0  0  0
 20 27  1  0  0  0  0
 20 47  1  0  0  0  0
 15 17  1  0  0  0  0
 15 16  1  0  0  0  0
 20 46  1  0  0  0  0
 12 20  1  0  0  0  0
 17 40  1  0  0  0  0
 16 39  1  0  0  0  0
 16 17  1  0  0  0  0
 17 24  1  0  0  0  0
 16 38  1  0  0  0  0
 12 24  1  0  0  0  0
 12 13  2  0  0  0  0
 23 24  1  0  0  0  0
 13 29  1  0  0  0  0
 13 22  1  0  0  0  0
 22 23  2  0  0  0  0
M  END
> <CID>
EN300-1277860

> <SMILES>
Cc1ccncc1NC(=O)Cc2cc(cc(c2)Cl)OCc3c(nnn3C4CC4)Br

> <RUN>
RUN1144

> <DDG (kcal/mol)>
-0.83

> <dDDG (kcal/mol)>
0.13

$$$$
EN300-740743
  -OEChem-08252008263D

 57 60  0     1  0  0  0  0  0999 V2000
    5.4510    1.4420   19.1110 C   0  0  0  0  0  0  0  0  0  0  0  0
   11.9790    1.1230   22.8760 C   0  0  0  0  0  0  0  0  0  0  0  0
   12.1350   -1.1220   21.8960 C   0  0  0  0  0  0  0  0  0  0  0  0
   14.0530    0.2590   21.9670 C   0  0  0  0  0  0  0  0  0  0  0  0
    5.8180    0.8320   17.9160 C   0  0  0  0  0  0  0  0  0  0  0  0
    7.4590   -0.3590   18.9130 C   0  0  0  0  0  0  0  0  0  0  0  0
    6.1880    1.1290   20.2790 C   0  0  0  0  0  0  0  0  0  0  0  0
   11.3730   -0.0540   22.4290 C   0  0  0  0  0  0  0  0  0  0  0  0
    7.1860    0.1470   20.1660 C   0  0  0  0  0  0  0  0  0  0  0  0
   13.3470    1.3100   22.6090 C   0  0  0  0  0  0  0  0  0  0  0  0
   13.4650   -0.9010   21.6570 C   0  0  0  0  0  0  0  0  0  0  0  0
   14.3430    4.9120   22.5470 C   0  0  0  0  0  0  0  0  0  0  0  0
    9.0600    0.4160   21.6970 C   0  0  0  0  0  0  0  0  0  0  0  0
   14.9000    7.3340   22.3310 C   0  0  0  0  0  0  0  0  0  0  0  0
   14.7460    8.2840   23.5090 C   0  0  0  0  0  0  0  0  0  0  0  0
   11.1470    8.4370   24.1370 C   0  0  0  0  0  0  0  0  0  0  0  0
   12.4860    6.5850   22.6120 C   0  0  0  0  0  0  0  0  0  0  0  0
   12.3640    7.5980   23.8110 C   0  0  1  0  0  0  0  0  0  0  0  0
    5.8290    1.7850   21.6000 C   0  0  0  0  0  0  0  0  0  0  0  0
    9.9060   -0.3180   22.7220 C   0  0  0  0  0  0  0  0  0  0  0  0
   13.4250    3.6560   22.4210 C   0  0  0  0  0  0  0  0  0  0  0  0
    6.8050   -0.0020   17.7840 N   0  0  0  0  0  0  0  0  0  0  0  0
   11.5670    9.3120   25.2110 N   0  0  0  0  0  0  0  0  0  0  0  0
   13.9240    6.2440   22.3990 N   0  0  0  0  0  0  0  0  0  0  0  0
   13.4080    8.6730   23.7100 N   0  0  1  0  0  0  0  0  0  0  0  0
    7.9690   -0.2330   21.2800 N   0  0  0  0  0  0  0  0  0  0  0  0
   15.5550    4.7550   22.7380 O   0  0  0  0  0  0  0  0  0  0  0  0
    9.3680    1.5060   21.1630 O   0  0  0  0  0  0  0  0  0  0  0  0
   14.0300    9.4000   26.0430 O   0  0  0  0  0  0  0  0  0  0  0  0
   13.2170   11.1240   24.4130 O   0  0  0  0  0  0  0  0  0  0  0  0
   14.0420    2.5110   22.8470 O   0  0  0  0  0  0  0  0  0  0  0  0
   13.1260    9.7670   24.9080 S   0  0  0  0  0  0  0  0  0  0  0  0
   14.4070   -1.9960   20.6020 Cl  0  0  0  0  0  0  0  0  0  0  0  0
    4.5760    2.0790   19.1300 H   0  0  0  0  0  0  0  0  0  0  0  0
   11.3230    1.8250   23.3900 H   0  0  0  0  0  0  0  0  0  0  0  0
   11.6970   -2.0540   21.5480 H   0  0  0  0  0  0  0  0  0  0  0  0
   15.0940    0.4720   21.7460 H   0  0  0  0  0  0  0  0  0  0  0  0
    5.2950    1.0560   16.9980 H   0  0  0  0  0  0  0  0  0  0  0  0
    8.2370   -1.1120   18.9440 H   0  0  0  0  0  0  0  0  0  0  0  0
   15.9120    6.9190   22.3950 H   0  0  0  0  0  0  0  0  0  0  0  0
   14.7910    7.9210   21.4120 H   0  0  0  0  0  0  0  0  0  0  0  0
   15.1490    9.2700   23.2560 H   0  0  0  0  0  0  0  0  0  0  0  0
   15.1360    7.8070   24.4170 H   0  0  0  0  0  0  0  0  0  0  0  0
   10.7600    8.9800   23.2720 H   0  0  0  0  0  0  0  0  0  0  0  0
   10.3270    7.8480   24.5760 H   0  0  0  0  0  0  0  0  0  0  0  0
   11.9010    5.6850   22.8240 H   0  0  0  0  0  0  0  0  0  0  0  0
   12.0740    6.9560   21.6690 H   0  0  0  0  0  0  0  0  0  0  0  0
   12.5450    7.0640   24.7480 H   0  0  0  0  0  0  0  0  0  0  0  0
    6.2740    2.7860   21.5440 H   0  0  0  0  0  0  0  0  0  0  0  0
    4.7480    1.7990   21.7830 H   0  0  0  0  0  0  0  0  0  0  0  0
    6.2740    1.2380   22.4320 H   0  0  0  0  0  0  0  0  0  0  0  0
    9.6170   -1.3770   22.7250 H   0  0  0  0  0  0  0  0  0  0  0  0
    9.5130    0.0480   23.6770 H   0  0  0  0  0  0  0  0  0  0  0  0
   13.1320    3.5890   21.3660 H   0  0  0  0  0  0  0  0  0  0  0  0
   12.4740    3.8130   22.9320 H   0  0  0  0  0  0  0  0  0  0  0  0
   11.1040   10.2110   25.0610 H   0  0  0  0  0  0  0  0  0  0  0  0
    7.7870   -1.1340   21.7210 H   0  0  0  0  0  0  0  0  0  0  0  0
  5 38  1  0  0  0  0
  5 22  2  0  0  0  0
  6 22  1  0  0  0  0
  1  5  1  0  0  0  0
  6 39  1  0  0  0  0
  6  9  2  0  0  0  0
  1 34  1  0  0  0  0
  1  7  2  0  0  0  0
  7  9  1  0  0  0  0
  9 26  1  0  0  0  0
  7 19  1  0  0  0  0
 11 33  1  0  0  0  0
 13 28  2  0  0  0  0
 13 26  1  0  0  0  0
 26 57  1  0  0  0  0
 21 54  1  0  0  0  0
 14 41  1  0  0  0  0
 19 49  1  0  0  0  0
  3 36  1  0  0  0  0
 19 50  1  0  0  0  0
 19 51  1  0  0  0  0
  3 11  2  0  0  0  0
  4 11  1  0  0  0  0
 17 47  1  0  0  0  0
 13 20  1  0  0  0  0
  4 37  1  0  0  0  0
  3  8  1  0  0  0  0
  4 10  2  0  0  0  0
 14 40  1  0  0  0  0
 14 24  1  0  0  0  0
 14 15  1  0  0  0  0
 12 24  1  0  0  0  0
 17 24  1  0  0  0  0
 12 21  1  0  0  0  0
 21 31  1  0  0  0  0
 21 55  1  0  0  0  0
  8 20  1  0  0  0  0
  2  8  2  0  0  0  0
 12 27  2  0  0  0  0
 10 31  1  0  0  0  0
  2 10  1  0  0  0  0
 17 46  1  0  0  0  0
 17 18  1  0  0  0  0
 20 52  1  0  0  0  0
 20 53  1  0  0  0  0
  2 35  1  0  0  0  0
 15 42  1  0  0  0  0
 16 44  1  0  0  0  0
 15 25  1  0  0  0  0
 15 43  1  0  0  0  0
 18 25  1  0  0  0  0
 25 32  1  0  0  0  0
 16 18  1  0  0  0  0
 18 48  1  0  0  0  0
 16 45  1  0  0  0  0
 16 23  1  0  0  0  0
 30 32  2  0  0  0  0
 23 32  1  0  0  0  0
 29 32  2  0  0  0  0
 23 56  1  0  0  0  0
M  END
> <CID>
EN300-740743

> <SMILES>
Cc1ccncc1NC(=O)Cc2cc(cc(c2)Cl)OCC(=O)N3CC[N@@]4[C@H](C3)CNS4(=O)=O

> <RUN>
RUN3691

> <DDG (kcal/mol)>
-0.83

> <dDDG (kcal/mol)>
0.17

$$$$
EN300-154526
  -OEChem-08252008263D

 47 49  0     0  0  0  0  0  0999 V2000
   12.2300   -3.1460   24.8430 C   0  0  0  0  0  0  0  0  0  0  0  0
   11.1910   -3.9060   24.5090 C   0  0  0  0  0  0  0  0  0  0  0  0
    4.4290    2.6740   18.9810 C   0  0  0  0  0  0  0  0  0  0  0  0
    8.2280   -3.1120   23.2100 C   0  0  0  0  0  0  0  0  0  0  0  0
    6.0570   -3.6530   24.0440 C   0  0  0  0  0  0  0  0  0  0  0  0
   11.4190   -3.2940   22.2060 C   0  0  0  0  0  0  0  0  0  0  0  0
    7.6050   -5.3790   23.6480 C   0  0  0  0  0  0  0  0  0  0  0  0
    4.9350    1.9650   17.9390 C   0  0  0  0  0  0  0  0  0  0  0  0
    6.0190    0.4660   19.1740 C   0  0  0  0  0  0  0  0  0  0  0  0
   12.8450   -2.3280   23.9090 C   0  0  0  0  0  0  0  0  0  0  0  0
    4.7480    2.2180   20.3230 C   0  0  0  0  0  0  0  0  0  0  0  0
    6.9750   -2.6990   23.5450 C   0  0  0  0  0  0  0  0  0  0  0  0
   12.4470   -2.3280   22.5760 C   0  0  0  0  0  0  0  0  0  0  0  0
    5.4630    0.9750   20.3900 C   0  0  0  0  0  0  0  0  0  0  0  0
   10.8100   -4.1080   23.1820 C   0  0  0  0  0  0  0  0  0  0  0  0
    8.5470   -4.4610   23.2060 C   0  0  0  0  0  0  0  0  0  0  0  0
    6.3630   -5.0110   24.0710 C   0  0  0  0  0  0  0  0  0  0  0  0
    6.0890   -0.9460   21.9720 C   0  0  0  0  0  0  0  0  0  0  0  0
    4.2640    3.0770   21.4370 C   0  0  0  0  0  0  0  0  0  0  0  0
    6.5260   -1.2980   23.3780 C   0  0  0  0  0  0  0  0  0  0  0  0
   13.9100   -1.4410   24.3420 C   0  0  0  0  0  0  0  0  0  0  0  0
    5.7360    0.9440   17.9690 N   0  0  0  0  0  0  0  0  0  0  0  0
    5.7530    0.4150   21.6390 N   0  0  0  0  0  0  0  0  0  0  0  0
   13.0240   -1.5200   21.6630 N   0  0  0  0  0  0  0  0  0  0  0  0
    5.9310   -1.8560   21.1370 O   0  0  0  0  0  0  0  0  0  0  0  0
   13.7020   -2.0560   20.8090 O   0  0  0  0  0  0  0  0  0  0  0  0
   12.7330   -0.3940   21.7420 O   0  0  0  0  0  0  0  0  0  0  0  0
    9.7870   -5.0050   22.9500 O   0  0  0  0  0  0  0  0  0  0  0  0
    5.2620   -6.1690   24.6570 Cl  0  0  0  0  0  0  0  0  0  0  0  0
   13.1400    0.1990   25.0630 Br  0  0  0  0  0  0  0  0  0  0  0  0
   12.5660   -3.1380   25.8710 H   0  0  0  0  0  0  0  0  0  0  0  0
   10.6120   -4.4290   25.2610 H   0  0  0  0  0  0  0  0  0  0  0  0
    3.9320    3.5910   18.6930 H   0  0  0  0  0  0  0  0  0  0  0  0
    8.8460   -2.3310   22.7870 H   0  0  0  0  0  0  0  0  0  0  0  0
    5.0480   -3.4160   24.3850 H   0  0  0  0  0  0  0  0  0  0  0  0
   11.1460   -3.1640   21.1660 H   0  0  0  0  0  0  0  0  0  0  0  0
    8.0510   -6.3610   23.7620 H   0  0  0  0  0  0  0  0  0  0  0  0
    4.8690    2.2960   16.9030 H   0  0  0  0  0  0  0  0  0  0  0  0
    6.6210   -0.4320   19.1240 H   0  0  0  0  0  0  0  0  0  0  0  0
    5.1160    3.4380   22.0310 H   0  0  0  0  0  0  0  0  0  0  0  0
    3.6700    3.8650   20.9570 H   0  0  0  0  0  0  0  0  0  0  0  0
    3.6080    2.5210   22.0970 H   0  0  0  0  0  0  0  0  0  0  0  0
    5.7750   -0.9710   24.0970 H   0  0  0  0  0  0  0  0  0  0  0  0
    7.2730   -0.5210   23.6020 H   0  0  0  0  0  0  0  0  0  0  0  0
   14.5350   -1.3800   23.4410 H   0  0  0  0  0  0  0  0  0  0  0  0
   14.5170   -1.8770   25.1340 H   0  0  0  0  0  0  0  0  0  0  0  0
    5.7490    1.0440   22.4370 H   0  0  0  0  0  0  0  0  0  0  0  0
  8 38  1  0  0  0  0
  8 22  2  0  0  0  0
  3  8  1  0  0  0  0
  9 22  1  0  0  0  0
  3 33  1  0  0  0  0
  3 11  2  0  0  0  0
  9 39  1  0  0  0  0
  9 14  2  0  0  0  0
 11 14  1  0  0  0  0
 11 19  1  0  0  0  0
 14 23  1  0  0  0  0
 24 26  2  0  0  0  0
 19 41  1  0  0  0  0
 18 25  2  0  0  0  0
  6 36  1  0  0  0  0
 19 40  1  0  0  0  0
 19 42  1  0  0  0  0
 18 23  1  0  0  0  0
 23 47  1  0  0  0  0
 24 27  2  0  0  0  0
 13 24  1  0  0  0  0
 18 20  1  0  0  0  0
  6 13  2  0  0  0  0
  6 15  1  0  0  0  0
 10 13  1  0  0  0  0
  4 34  1  0  0  0  0
 15 28  1  0  0  0  0
 16 28  1  0  0  0  0
  2 15  2  0  0  0  0
  4 16  2  0  0  0  0
  7 16  1  0  0  0  0
  4 12  1  0  0  0  0
 12 20  1  0  0  0  0
 20 44  1  0  0  0  0
 20 43  1  0  0  0  0
 21 45  1  0  0  0  0
  5 12  2  0  0  0  0
  7 37  1  0  0  0  0
  7 17  2  0  0  0  0
 10 21  1  0  0  0  0
  1 10  2  0  0  0  0
  5 17  1  0  0  0  0
  5 35  1  0  0  0  0
 17 29  1  0  0  0  0
 21 30  1  0  0  0  0
 21 46  1  0  0  0  0
  1  2  1  0  0  0  0
  2 32  1  0  0  0  0
  1 31  1  0  0  0  0
M  END
> <CID>
EN300-154526

> <SMILES>
Cc1ccncc1NC(=O)Cc2cc(cc(c2)Cl)Oc3ccc(c(c3)N(=O)=O)CBr

> <RUN>
RUN2558

> <DDG (kcal/mol)>
-0.82

> <dDDG (kcal/mol)>
0.13

$$$$
EN300-43523
  -OEChem-08252008263D

 38 39  0     0  0  0  0  0  0999 V2000
    6.1020    1.3760   19.2350 C   0  0  0  0  0  0  0  0  0  0  0  0
   12.3340    0.7550   22.8760 C   0  0  0  0  0  0  0  0  0  0  0  0
   12.7530   -1.4740   22.0190 C   0  0  0  0  0  0  0  0  0  0  0  0
   14.4210    0.2410   21.9090 C   0  0  0  0  0  0  0  0  0  0  0  0
    6.2430    0.4910   18.1560 C   0  0  0  0  0  0  0  0  0  0  0  0
    7.9460   -0.6750   19.2770 C   0  0  0  0  0  0  0  0  0  0  0  0
    7.0070    1.2790   20.3460 C   0  0  0  0  0  0  0  0  0  0  0  0
   11.8620   -0.5330   22.6350 C   0  0  0  0  0  0  0  0  0  0  0  0
    7.9760    0.1820   20.3390 C   0  0  0  0  0  0  0  0  0  0  0  0
   13.6420    1.1530   22.5280 C   0  0  0  0  0  0  0  0  0  0  0  0
   13.9790   -1.0670   21.6640 C   0  0  0  0  0  0  0  0  0  0  0  0
    9.4990   -1.0070   21.8810 C   0  0  0  0  0  0  0  0  0  0  0  0
    6.7890    2.1730   21.5600 C   0  0  0  0  0  0  0  0  0  0  0  0
   10.4580   -0.9110   23.0190 C   0  0  0  0  0  0  0  0  0  0  0  0
   13.2940    3.5290   22.7500 C   0  0  0  0  0  0  0  0  0  0  0  0
    7.0920   -0.5420   18.2260 N   0  0  0  0  0  0  0  0  0  0  0  0
    8.7900    0.0500   21.3980 N   0  0  0  0  0  0  0  0  0  0  0  0
    9.3320   -2.1150   21.4210 O   0  0  0  0  0  0  0  0  0  0  0  0
   15.2050    5.2390   23.7990 O   0  0  0  0  0  0  0  0  0  0  0  0
   14.7040    5.3270   21.4570 O   0  0  0  0  0  0  0  0  0  0  0  0
   14.1690    2.3940   22.7930 O   0  0  0  0  0  0  0  0  0  0  0  0
   14.1320    5.1230   22.8240 S   0  0  0  0  0  0  0  0  0  0  0  0
   14.9550   -2.1340   20.6560 Cl  0  0  0  0  0  0  0  0  0  0  0  0
   12.6660    6.5710   23.2480 Cl  0  0  0  0  0  0  0  0  0  0  0  0
    5.4010    2.2000   19.1340 H   0  0  0  0  0  0  0  0  0  0  0  0
   11.7100    1.4720   23.3900 H   0  0  0  0  0  0  0  0  0  0  0  0
   12.5110   -2.5300   21.8840 H   0  0  0  0  0  0  0  0  0  0  0  0
   15.4240    0.5380   21.6110 H   0  0  0  0  0  0  0  0  0  0  0  0
    5.5780    0.5310   17.3120 H   0  0  0  0  0  0  0  0  0  0  0  0
    8.5950   -1.5420   19.1870 H   0  0  0  0  0  0  0  0  0  0  0  0
    7.4740    1.9830   22.4010 H   0  0  0  0  0  0  0  0  0  0  0  0
    6.9130    3.1540   21.0800 H   0  0  0  0  0  0  0  0  0  0  0  0
    5.7550    2.0900   21.9190 H   0  0  0  0  0  0  0  0  0  0  0  0
   10.4500   -1.8540   23.5880 H   0  0  0  0  0  0  0  0  0  0  0  0
    9.9810   -0.1810   23.6800 H   0  0  0  0  0  0  0  0  0  0  0  0
   12.6340    3.4790   23.6220 H   0  0  0  0  0  0  0  0  0  0  0  0
   12.7340    3.5950   21.8150 H   0  0  0  0  0  0  0  0  0  0  0  0
    8.9470    0.8850   21.9710 H   0  0  0  0  0  0  0  0  0  0  0  0
  5 29  1  0  0  0  0
  5 16  2  0  0  0  0
  1  5  1  0  0  0  0
  6 16  1  0  0  0  0
  1 25  1  0  0  0  0
  6 30  1  0  0  0  0
  1  7  2  0  0  0  0
  6  9  2  0  0  0  0
  7  9  1  0  0  0  0
  9 17  1  0  0  0  0
  7 13  1  0  0  0  0
 11 23  1  0  0  0  0
 13 32  1  0  0  0  0
 12 17  1  0  0  0  0
 17 38  1  0  0  0  0
 12 18  2  0  0  0  0
 20 22  2  0  0  0  0
 13 33  1  0  0  0  0
 13 31  1  0  0  0  0
  4 28  1  0  0  0  0
  4 11  2  0  0  0  0
  3 11  1  0  0  0  0
 15 37  1  0  0  0  0
 12 14  1  0  0  0  0
  3 27  1  0  0  0  0
  4 10  1  0  0  0  0
  3  8  2  0  0  0  0
 10 21  1  0  0  0  0
  2 10  2  0  0  0  0
  2  8  1  0  0  0  0
  8 14  1  0  0  0  0
 15 21  1  0  0  0  0
 15 22  1  0  0  0  0
 15 36  1  0  0  0  0
 22 24  1  0  0  0  0
 19 22  2  0  0  0  0
  2 26  1  0  0  0  0
 14 34  1  0  0  0  0
 14 35  1  0  0  0  0
M  END
> <CID>
EN300-43523

> <SMILES>
Cc1ccncc1NC(=O)Cc2cc(cc(c2)Cl)OCS(=O)(=O)Cl

> <RUN>
RUN547

> <DDG (kcal/mol)>
-0.81

> <dDDG (kcal/mol)>
0.09

$$$$
EN300-1296574
  -OEChem-08252008263D

 59 62  0     0  0  0  0  0  0999 V2000
   10.2410   -0.8980   26.8840 C   0  0  0  0  0  0  0  0  0  0  0  0
   12.1070   -0.9530   28.2940 C   0  0  0  0  0  0  0  0  0  0  0  0
    9.3650   -1.1130   27.9170 C   0  0  0  0  0  0  0  0  0  0  0  0
   11.2470   -1.2660   29.3510 C   0  0  0  0  0  0  0  0  0  0  0  0
    5.5090    2.0270   19.2310 C   0  0  0  0  0  0  0  0  0  0  0  0
   11.2410   -1.3720   21.9120 C   0  0  0  0  0  0  0  0  0  0  0  0
   10.7270   -3.6520   21.2630 C   0  0  0  0  0  0  0  0  0  0  0  0
   12.9520   -2.7980   20.9230 C   0  0  0  0  0  0  0  0  0  0  0  0
    5.5760    1.5510   17.9510 C   0  0  0  0  0  0  0  0  0  0  0  0
   14.0030   -1.3010   24.5690 C   0  0  0  0  0  0  0  0  0  0  0  0
    6.9530   -0.1870   18.7130 C   0  0  0  0  0  0  0  0  0  0  0  0
    6.1410    1.4230   20.2620 C   0  0  0  0  0  0  0  0  0  0  0  0
   10.3340   -2.4430   21.8230 C   0  0  0  0  0  0  0  0  0  0  0  0
   13.2160   -0.1820   24.0320 C   0  0  0  0  0  0  0  0  0  0  0  0
   11.5660   -0.7980   27.0120 C   0  0  0  0  0  0  0  0  0  0  0  0
    6.9120    0.2430   20.0280 C   0  0  0  0  0  0  0  0  0  0  0  0
    9.8660   -1.3580   29.2110 C   0  0  0  0  0  0  0  0  0  0  0  0
   12.5770   -1.5600   21.4070 C   0  0  0  0  0  0  0  0  0  0  0  0
   12.0340   -3.8120   20.8190 C   0  0  0  0  0  0  0  0  0  0  0  0
   12.2300    0.1520   24.8850 C   0  0  0  0  0  0  0  0  0  0  0  0
    7.9160   -1.7250   21.2160 C   0  0  0  0  0  0  0  0  0  0  0  0
    5.9480    1.9630   21.6590 C   0  0  0  0  0  0  0  0  0  0  0  0
   12.0430    2.4300   25.9210 C   0  0  0  0  0  0  0  0  0  0  0  0
    8.8610   -2.2680   22.3460 C   0  0  0  0  0  0  0  0  0  0  0  0
   13.4530    0.3530   22.6510 C   0  0  0  0  0  0  0  0  0  0  0  0
   11.4330    1.4240   24.8960 C   0  0  0  0  0  0  0  0  0  0  0  0
    6.3000    0.4710   17.6670 N   0  0  0  0  0  0  0  0  0  0  0  0
   13.5080   -1.5770   25.7300 N   0  0  0  0  0  0  0  0  0  0  0  0
   12.3940   -0.7160   25.9250 N   0  0  0  0  0  0  0  0  0  0  0  0
    7.5330   -0.4170   21.0690 N   0  0  0  0  0  0  0  0  0  0  0  0
    7.3460   -2.5010   20.4720 O   0  0  0  0  0  0  0  0  0  0  0  0
    9.0750   -1.5440   30.3480 O   0  0  0  0  0  0  0  0  0  0  0  0
   13.6600   -0.6840   21.6240 O   0  0  0  0  0  0  0  0  0  0  0  0
   12.2500   -5.2400   20.0020 Cl  0  0  0  0  0  0  0  0  0  0  0  0
    9.8370   -0.8780   25.8760 H   0  0  0  0  0  0  0  0  0  0  0  0
   13.1820   -0.8700   28.3880 H   0  0  0  0  0  0  0  0  0  0  0  0
    8.2860   -1.0350   27.8500 H   0  0  0  0  0  0  0  0  0  0  0  0
   11.7210   -1.4900   30.2910 H   0  0  0  0  0  0  0  0  0  0  0  0
    5.0510    2.9930   19.3830 H   0  0  0  0  0  0  0  0  0  0  0  0
   11.0360   -0.4080   22.3730 H   0  0  0  0  0  0  0  0  0  0  0  0
    9.9990   -4.3940   20.9600 H   0  0  0  0  0  0  0  0  0  0  0  0
   13.9830   -2.9970   20.6740 H   0  0  0  0  0  0  0  0  0  0  0  0
    4.9460    1.9340   17.1550 H   0  0  0  0  0  0  0  0  0  0  0  0
   14.7590   -1.8030   23.9790 H   0  0  0  0  0  0  0  0  0  0  0  0
    7.6140   -1.0000   18.4000 H   0  0  0  0  0  0  0  0  0  0  0  0
    6.0920    1.2100   22.4320 H   0  0  0  0  0  0  0  0  0  0  0  0
    6.7080    2.7420   21.8140 H   0  0  0  0  0  0  0  0  0  0  0  0
    4.9950    2.4670   21.8260 H   0  0  0  0  0  0  0  0  0  0  0  0
   12.1390    1.9760   26.9110 H   0  0  0  0  0  0  0  0  0  0  0  0
   13.0850    2.6980   25.6980 H   0  0  0  0  0  0  0  0  0  0  0  0
   11.3630    3.2790   25.9620 H   0  0  0  0  0  0  0  0  0  0  0  0
    8.3400   -3.1700   22.6790 H   0  0  0  0  0  0  0  0  0  0  0  0
    8.7720   -1.4770   23.0950 H   0  0  0  0  0  0  0  0  0  0  0  0
   12.5960    0.9360   22.3100 H   0  0  0  0  0  0  0  0  0  0  0  0
   14.3180    1.0250   22.6410 H   0  0  0  0  0  0  0  0  0  0  0  0
   11.3280    1.9220   23.9160 H   0  0  0  0  0  0  0  0  0  0  0  0
   10.4500    1.0650   25.2220 H   0  0  0  0  0  0  0  0  0  0  0  0
    7.7710    0.1150   21.9060 H   0  0  0  0  0  0  0  0  0  0  0  0
    9.5730   -1.5110   31.1850 H   0  0  0  0  0  0  0  0  0  0  0  0
  9 43  1  0  0  0  0
  9 27  2  0  0  0  0
 11 27  1  0  0  0  0
  5  9  1  0  0  0  0
 11 45  1  0  0  0  0
 11 16  2  0  0  0  0
  5 39  1  0  0  0  0
  5 12  2  0  0  0  0
 19 34  1  0  0  0  0
 12 16  1  0  0  0  0
 16 30  1  0  0  0  0
 12 22  1  0  0  0  0
 21 31  2  0  0  0  0
  8 42  1  0  0  0  0
  8 19  2  0  0  0  0
  7 19  1  0  0  0  0
  8 18  1  0  0  0  0
  7 41  1  0  0  0  0
 21 30  1  0  0  0  0
 30 58  1  0  0  0  0
 21 24  1  0  0  0  0
  7 13  2  0  0  0  0
 18 33  1  0  0  0  0
  6 18  2  0  0  0  0
 25 33  1  0  0  0  0
 22 47  1  0  0  0  0
 22 48  1  0  0  0  0
 22 46  1  0  0  0  0
  6 13  1  0  0  0  0
 13 24  1  0  0  0  0
  6 40  1  0  0  0  0
 25 54  1  0  0  0  0
 24 52  1  0  0  0  0
 24 53  1  0  0  0  0
 25 55  1  0  0  0  0
 14 25  1  0  0  0  0
 26 56  1  0  0  0  0
 10 44  1  0  0  0  0
 10 14  1  0  0  0  0
 14 20  2  0  0  0  0
 10 28  2  0  0  0  0
 20 26  1  0  0  0  0
 20 29  1  0  0  0  0
 26 57  1  0  0  0  0
 23 26  1  0  0  0  0
 23 50  1  0  0  0  0
 28 29  1  0  0  0  0
  1 35  1  0  0  0  0
 23 51  1  0  0  0  0
 23 49  1  0  0  0  0
 15 29  1  0  0  0  0
  1 15  2  0  0  0  0
  1  3  1  0  0  0  0
  2 15  1  0  0  0  0
  3 37  1  0  0  0  0
  3 17  2  0  0  0  0
  2 36  1  0  0  0  0
  2  4  2  0  0  0  0
  4 17  1  0  0  0  0
 17 32  1  0  0  0  0
  4 38  1  0  0  0  0
 32 59  1  0  0  0  0
M  END
> <CID>
EN300-1296574

> <SMILES>
CCc1c(cnn1c2ccc(cc2)O)COc3cc(cc(c3)Cl)CC(=O)Nc4cnccc4C

> <RUN>
RUN1221

> <DDG (kcal/mol)>
-0.80

> <dDDG (kcal/mol)>
0.14

$$$$
EN300-6776042
  -OEChem-08252008263D

 46 48  0     0  0  0  0  0  0999 V2000
    8.1410   -3.7390   30.0690 C   0  0  0  0  0  0  0  0  0  0  0  0
    6.0180    2.2670   19.9280 C   0  0  0  0  0  0  0  0  0  0  0  0
    9.3360   -5.2000   28.5610 C   0  0  0  0  0  0  0  0  0  0  0  0
    9.6220   -2.9230   28.1750 C   0  0  0  0  0  0  0  0  0  0  0  0
   10.6190   -4.4870   26.6000 C   0  0  0  0  0  0  0  0  0  0  0  0
    9.6910   -2.4670   24.3730 C   0  0  0  0  0  0  0  0  0  0  0  0
   10.8680   -2.0340   22.3430 C   0  0  0  0  0  0  0  0  0  0  0  0
   12.0550   -1.7160   24.4310 C   0  0  0  0  0  0  0  0  0  0  0  0
    5.9650    1.9890   18.5530 C   0  0  0  0  0  0  0  0  0  0  0  0
    7.1530    0.0810   18.9040 C   0  0  0  0  0  0  0  0  0  0  0  0
    9.0280   -3.9040   28.9240 C   0  0  0  0  0  0  0  0  0  0  0  0
    6.6840    1.4930   20.8090 C   0  0  0  0  0  0  0  0  0  0  0  0
   10.1530   -5.5450   27.4200 C   0  0  0  0  0  0  0  0  0  0  0  0
    9.6940   -2.3510   23.0370 C   0  0  0  0  0  0  0  0  0  0  0  0
    7.2550    0.3370   20.3050 C   0  0  0  0  0  0  0  0  0  0  0  0
   10.4460   -3.1550   27.0850 C   0  0  0  0  0  0  0  0  0  0  0  0
   10.8970   -2.1200   25.1060 C   0  0  0  0  0  0  0  0  0  0  0  0
   12.0020   -1.7380   23.0520 C   0  0  0  0  0  0  0  0  0  0  0  0
    7.9130   -1.9750   20.9970 C   0  0  0  0  0  0  0  0  0  0  0  0
    6.8490    1.9280   22.2590 C   0  0  0  0  0  0  0  0  0  0  0  0
    8.4720   -2.8700   22.1830 C   0  0  0  0  0  0  0  0  0  0  0  0
   10.2990   -6.9730   26.9960 C   0  0  0  0  0  0  0  0  0  0  0  0
    7.2280   -3.7120   30.7770 N   0  0  0  0  0  0  0  0  0  0  0  0
    6.5300    0.8660   18.0370 N   0  0  0  0  0  0  0  0  0  0  0  0
    7.8990   -0.6030   21.1390 N   0  0  0  0  0  0  0  0  0  0  0  0
    7.1990   -2.4830   20.1190 O   0  0  0  0  0  0  0  0  0  0  0  0
   10.9560   -2.0670   26.4370 O   0  0  0  0  0  0  0  0  0  0  0  0
   13.5080   -1.2840   22.1490 Cl  0  0  0  0  0  0  0  0  0  0  0  0
    9.1050   -7.5020   25.4440 Br  0  0  0  0  0  0  0  0  0  0  0  0
    5.5480    3.1370   20.3650 H   0  0  0  0  0  0  0  0  0  0  0  0
    8.9110   -5.9720   29.1950 H   0  0  0  0  0  0  0  0  0  0  0  0
    9.4740   -1.8890   28.4740 H   0  0  0  0  0  0  0  0  0  0  0  0
   11.1650   -4.6610   25.6790 H   0  0  0  0  0  0  0  0  0  0  0  0
    8.8260   -2.9140   24.8570 H   0  0  0  0  0  0  0  0  0  0  0  0
   10.8100   -2.0130   21.2540 H   0  0  0  0  0  0  0  0  0  0  0  0
   12.9710   -1.4790   24.9510 H   0  0  0  0  0  0  0  0  0  0  0  0
    5.4130    2.6620   17.9090 H   0  0  0  0  0  0  0  0  0  0  0  0
    7.6510   -0.7760   18.4630 H   0  0  0  0  0  0  0  0  0  0  0  0
    7.5390    1.3510   22.8790 H   0  0  0  0  0  0  0  0  0  0  0  0
    7.3730    2.8890   22.2940 H   0  0  0  0  0  0  0  0  0  0  0  0
    5.9240    2.2290   22.7700 H   0  0  0  0  0  0  0  0  0  0  0  0
    8.6520   -3.8570   21.7700 H   0  0  0  0  0  0  0  0  0  0  0  0
    7.5940   -3.0100   22.8200 H   0  0  0  0  0  0  0  0  0  0  0  0
   10.1360   -7.5840   27.8910 H   0  0  0  0  0  0  0  0  0  0  0  0
   11.3440   -7.0700   26.6830 H   0  0  0  0  0  0  0  0  0  0  0  0
    8.2060   -0.2090   22.0280 H   0  0  0  0  0  0  0  0  0  0  0  0
  9 37  1  0  0  0  0
  9 24  2  0  0  0  0
 10 24  1  0  0  0  0
 10 38  1  0  0  0  0
  2  9  1  0  0  0  0
 10 15  2  0  0  0  0
  2 30  1  0  0  0  0
  2 12  2  0  0  0  0
 19 26  2  0  0  0  0
 12 15  1  0  0  0  0
 15 25  1  0  0  0  0
 12 20  1  0  0  0  0
 19 25  1  0  0  0  0
 19 21  1  0  0  0  0
 25 46  1  0  0  0  0
  7 35  1  0  0  0  0
 21 42  1  0  0  0  0
 18 28  1  0  0  0  0
 21 43  1  0  0  0  0
 14 21  1  0  0  0  0
 20 40  1  0  0  0  0
 20 41  1  0  0  0  0
 20 39  1  0  0  0  0
  7 14  2  0  0  0  0
  7 18  1  0  0  0  0
  6 14  1  0  0  0  0
  8 18  2  0  0  0  0
  6 34  1  0  0  0  0
  6 17  2  0  0  0  0
  8 36  1  0  0  0  0
  8 17  1  0  0  0  0
 17 27  1  0  0  0  0
 22 29  1  0  0  0  0
  5 33  1  0  0  0  0
 16 27  1  0  0  0  0
  5 16  2  0  0  0  0
  5 13  1  0  0  0  0
 22 45  1  0  0  0  0
 13 22  1  0  0  0  0
 22 44  1  0  0  0  0
  4 16  1  0  0  0  0
  3 13  2  0  0  0  0
  4 32  1  0  0  0  0
  4 11  2  0  0  0  0
  3 11  1  0  0  0  0
  3 31  1  0  0  0  0
  1 11  1  0  0  0  0
  1 23  3  0  0  0  0
M  END
> <CID>
EN300-6776042

> <SMILES>
Cc1ccncc1NC(=O)Cc2cc(cc(c2)Cl)Oc3cc(cc(c3)C#N)CBr

> <RUN>
RUN3182

> <DDG (kcal/mol)>
-0.79

> <dDDG (kcal/mol)>
0.12

$$$$
EN300-1918616
  -OEChem-08252008263D

 45 47  0     0  0  0  0  0  0999 V2000
    4.7730    1.5710   18.6200 C   0  0  0  0  0  0  0  0  0  0  0  0
   10.1940   -0.1420   22.9520 C   0  0  0  0  0  0  0  0  0  0  0  0
   10.9470   -2.2410   22.1640 C   0  0  0  0  0  0  0  0  0  0  0  0
   12.4550   -0.6760   23.0720 C   0  0  0  0  0  0  0  0  0  0  0  0
    5.2470    1.0750   17.4010 C   0  0  0  0  0  0  0  0  0  0  0  0
    7.0520    0.0870   18.2570 C   0  0  0  0  0  0  0  0  0  0  0  0
   13.1990    4.4500   23.2890 C   0  0  0  0  0  0  0  0  0  0  0  0
    5.5070    1.1480   19.7270 C   0  0  0  0  0  0  0  0  0  0  0  0
    9.9550   -1.3660   22.4040 C   0  0  0  0  0  0  0  0  0  0  0  0
    6.7060    0.3980   19.5770 C   0  0  0  0  0  0  0  0  0  0  0  0
   11.4350    0.2270   23.2500 C   0  0  0  0  0  0  0  0  0  0  0  0
   12.2670   -1.9310   22.4860 C   0  0  0  0  0  0  0  0  0  0  0  0
   12.0630    3.8680   23.6330 C   0  0  0  0  0  0  0  0  0  0  0  0
   12.5240    6.0440   24.6900 C   0  0  0  0  0  0  0  0  0  0  0  0
    7.9040   -1.2980   20.8370 C   0  0  0  0  0  0  0  0  0  0  0  0
    5.0600    1.6200   21.0780 C   0  0  0  0  0  0  0  0  0  0  0  0
   11.6240    7.5630   26.2780 C   0  0  0  0  0  0  0  0  0  0  0  0
    8.4720   -1.7020   22.1890 C   0  0  0  0  0  0  0  0  0  0  0  0
   11.5160    2.5800   23.0290 C   0  0  0  0  0  0  0  0  0  0  0  0
    6.3360    0.4320   17.2040 N   0  0  0  0  0  0  0  0  0  0  0  0
   13.5170    5.6960   23.8780 N   0  0  0  0  0  0  0  0  0  0  0  0
    7.4900    0.0150   20.6740 N   0  0  0  0  0  0  0  0  0  0  0  0
    7.5600   -2.1420   20.0300 O   0  0  0  0  0  0  0  0  0  0  0  0
   11.7120    1.4520   23.8390 O   0  0  0  0  0  0  0  0  0  0  0  0
   12.6700    7.2220   25.3580 O   0  0  0  0  0  0  0  0  0  0  0  0
   11.2870    4.8410   24.8060 S   0  0  0  0  0  0  0  0  0  0  0  0
   13.5740   -2.9610   22.1000 Cl  0  0  0  0  0  0  0  0  0  0  0  0
    3.9070    2.2090   18.6730 H   0  0  0  0  0  0  0  0  0  0  0  0
    9.4160    0.5910   23.1040 H   0  0  0  0  0  0  0  0  0  0  0  0
   10.7640   -3.2200   21.7170 H   0  0  0  0  0  0  0  0  0  0  0  0
   13.4450   -0.4070   23.4170 H   0  0  0  0  0  0  0  0  0  0  0  0
    4.6780    1.3570   16.5140 H   0  0  0  0  0  0  0  0  0  0  0  0
    8.0180   -0.3950   18.1110 H   0  0  0  0  0  0  0  0  0  0  0  0
   13.8510    4.0130   22.5420 H   0  0  0  0  0  0  0  0  0  0  0  0
    4.9960    0.7980   21.8000 H   0  0  0  0  0  0  0  0  0  0  0  0
    5.6850    2.4290   21.4630 H   0  0  0  0  0  0  0  0  0  0  0  0
    4.0190    1.9430   21.0190 H   0  0  0  0  0  0  0  0  0  0  0  0
   11.4110    6.7490   26.9760 H   0  0  0  0  0  0  0  0  0  0  0  0
   11.8750    8.4960   26.7890 H   0  0  0  0  0  0  0  0  0  0  0  0
   10.8090    7.8230   25.5970 H   0  0  0  0  0  0  0  0  0  0  0  0
    8.2920   -2.7540   22.4260 H   0  0  0  0  0  0  0  0  0  0  0  0
    7.8490   -1.3020   22.9980 H   0  0  0  0  0  0  0  0  0  0  0  0
   10.4730    2.6830   22.7380 H   0  0  0  0  0  0  0  0  0  0  0  0
   12.0710    2.3860   22.1000 H   0  0  0  0  0  0  0  0  0  0  0  0
    7.5670    0.6660   21.4510 H   0  0  0  0  0  0  0  0  0  0  0  0
  5 32  1  0  0  0  0
  5 20  2  0  0  0  0
  6 20  1  0  0  0  0
  1  5  1  0  0  0  0
  6 33  1  0  0  0  0
  6 10  2  0  0  0  0
  1 28  1  0  0  0  0
  1  8  2  0  0  0  0
  8 10  1  0  0  0  0
 10 22  1  0  0  0  0
  8 16  1  0  0  0  0
 15 23  2  0  0  0  0
 15 22  1  0  0  0  0
 22 45  1  0  0  0  0
 15 18  1  0  0  0  0
 16 37  1  0  0  0  0
 16 36  1  0  0  0  0
 16 35  1  0  0  0  0
  3 30  1  0  0  0  0
 12 27  1  0  0  0  0
 19 44  1  0  0  0  0
  3  9  2  0  0  0  0
  3 12  1  0  0  0  0
  9 18  1  0  0  0  0
 18 41  1  0  0  0  0
 18 42  1  0  0  0  0
  2  9  1  0  0  0  0
  4 12  2  0  0  0  0
  7 34  1  0  0  0  0
 19 43  1  0  0  0  0
  2 29  1  0  0  0  0
  2 11  2  0  0  0  0
 13 19  1  0  0  0  0
 19 24  1  0  0  0  0
  4 11  1  0  0  0  0
  4 31  1  0  0  0  0
 11 24  1  0  0  0  0
  7 13  2  0  0  0  0
  7 21  1  0  0  0  0
 13 26  1  0  0  0  0
 14 21  2  0  0  0  0
 14 26  1  0  0  0  0
 14 25  1  0  0  0  0
 17 25  1  0  0  0  0
 17 40  1  0  0  0  0
 17 39  1  0  0  0  0
 17 38  1  0  0  0  0
M  END
> <CID>
EN300-1918616

> <SMILES>
Cc1ccncc1NC(=O)Cc2cc(cc(c2)Cl)OCc3cnc(s3)OC

> <RUN>
RUN838

> <DDG (kcal/mol)>
-0.79

> <dDDG (kcal/mol)>
0.13

$$$$
EN300-843597
  -OEChem-08252008263D

 71 75  0     1  0  0  0  0  0999 V2000
    5.8620    0.7270   19.5840 C   0  0  0  0  0  0  0  0  0  0  0  0
   12.2440    1.8890   23.0710 C   0  0  0  0  0  0  0  0  0  0  0  0
   13.5780    0.2130   21.9900 C   0  0  0  0  0  0  0  0  0  0  0  0
   14.5950    2.2020   22.9760 C   0  0  0  0  0  0  0  0  0  0  0  0
    6.2120    0.6520   18.2430 C   0  0  0  0  0  0  0  0  0  0  0  0
    8.3360    0.0040   18.6950 C   0  0  0  0  0  0  0  0  0  0  0  0
   13.9180    6.9870   22.9000 C   0  0  0  0  0  0  0  0  0  0  0  0
    6.7960    0.4600   20.5830 C   0  0  0  0  0  0  0  0  0  0  0  0
   12.3290    0.6430   22.3990 C   0  0  0  0  0  0  0  0  0  0  0  0
    8.0100   -0.0200   20.1400 C   0  0  0  0  0  0  0  0  0  0  0  0
   13.3310    2.7370   23.2940 C   0  0  0  0  0  0  0  0  0  0  0  0
   14.6950    0.9410   22.4000 C   0  0  0  0  0  0  0  0  0  0  0  0
   13.2140    7.1200   24.0160 C   0  0  0  0  0  0  0  0  0  0  0  0
   10.1800    0.2550   21.1550 C   0  0  0  0  0  0  0  0  0  0  0  0
   17.6380    5.9490   19.2340 C   0  0  0  0  0  0  0  0  0  0  0  0
   19.0140    7.4740   20.8370 C   0  0  0  0  0  0  0  0  0  0  0  0
   15.4130    8.9290   20.8810 C   0  0  0  0  0  0  0  0  0  0  0  0
   16.6290    6.8900   21.4040 C   0  0  0  0  0  0  0  0  0  0  0  0
   18.3100    4.7340   19.9210 C   0  0  0  0  0  0  0  0  0  0  0  0
   19.6160    6.2690   21.4750 C   0  0  0  0  0  0  0  0  0  0  0  0
   16.6090    9.4600   19.9850 C   0  0  0  0  0  0  0  0  0  0  0  0
   15.9780    8.1430   22.0620 C   0  0  2  0  0  0  0  0  0  0  0  0
   17.5910    7.1940   20.2160 C   0  0  0  0  0  0  0  0  0  0  0  0
    6.4830    0.6050   22.0520 C   0  0  0  0  0  0  0  0  0  0  0  0
   11.1670   -0.2930   22.1820 C   0  0  0  0  0  0  0  0  0  0  0  0
   12.0880    6.2340   24.3810 C   0  0  0  0  0  0  0  0  0  0  0  0
   12.0540    4.7960   23.7080 C   0  0  0  0  0  0  0  0  0  0  0  0
    7.4220    0.3690   17.7900 N   0  0  0  0  0  0  0  0  0  0  0  0
   13.8140    8.1180   24.8030 N   0  0  0  0  0  0  0  0  0  0  0  0
   15.0000    8.3180   24.3100 N   0  0  0  0  0  0  0  0  0  0  0  0
   15.0290    7.7390   23.1030 N   0  0  1  0  0  0  0  0  0  0  0  0
    9.0140   -0.4410   21.0130 N   0  0  0  0  0  0  0  0  0  0  0  0
   19.6290    5.1090   20.5400 N   0  3  0  0  0  0  0  0  0  0  0  0
   10.4410    1.1480   20.3230 O   0  0  0  0  0  0  0  0  0  0  0  0
   17.1670    8.3030   19.3710 O   0  0  0  0  0  0  0  0  0  0  0  0
   13.2140    3.9760   23.9160 O   0  0  0  0  0  0  0  0  0  0  0  0
   16.3040    0.2840   22.1560 Cl  0  0  0  0  0  0  0  0  0  0  0  0
    4.8710    1.0310   19.8990 H   0  0  0  0  0  0  0  0  0  0  0  0
   11.2600    2.1540   23.4480 H   0  0  0  0  0  0  0  0  0  0  0  0
   13.6900   -0.7670   21.5480 H   0  0  0  0  0  0  0  0  0  0  0  0
   15.4900    2.7990   23.1340 H   0  0  0  0  0  0  0  0  0  0  0  0
    5.4840    0.9400   17.4970 H   0  0  0  0  0  0  0  0  0  0  0  0
    9.3460   -0.2080   18.3490 H   0  0  0  0  0  0  0  0  0  0  0  0
   13.6500    6.3240   22.0750 H   0  0  0  0  0  0  0  0  0  0  0  0
   18.2330    6.1830   18.3480 H   0  0  0  0  0  0  0  0  0  0  0  0
   16.6760    5.6100   18.8250 H   0  0  0  0  0  0  0  0  0  0  0  0
   19.0290    8.3170   21.5320 H   0  0  0  0  0  0  0  0  0  0  0  0
   19.7050    7.8200   20.0550 H   0  0  0  0  0  0  0  0  0  0  0  0
   14.9230    9.7780   21.3600 H   0  0  0  0  0  0  0  0  0  0  0  0
   14.6700    8.3800   20.2890 H   0  0  0  0  0  0  0  0  0  0  0  0
   17.1510    6.2180   22.1040 H   0  0  0  0  0  0  0  0  0  0  0  0
   15.7450    6.3540   21.0460 H   0  0  0  0  0  0  0  0  0  0  0  0
   17.6830    4.4700   20.7760 H   0  0  0  0  0  0  0  0  0  0  0  0
   18.4240    3.8690   19.2790 H   0  0  0  0  0  0  0  0  0  0  0  0
   20.5980    6.4660   21.9220 H   0  0  0  0  0  0  0  0  0  0  0  0
   19.1000    6.1250   22.4280 H   0  0  0  0  0  0  0  0  0  0  0  0
   16.2770   10.0480   19.1230 H   0  0  0  0  0  0  0  0  0  0  0  0
   17.3240   10.0110   20.6100 H   0  0  0  0  0  0  0  0  0  0  0  0
   16.8380    8.6740   22.5070 H   0  0  0  0  0  0  0  0  0  0  0  0
    7.1720    1.2510   22.6140 H   0  0  0  0  0  0  0  0  0  0  0  0
    5.5070    1.1050   22.0720 H   0  0  0  0  0  0  0  0  0  0  0  0
    6.3020   -0.3810   22.4750 H   0  0  0  0  0  0  0  0  0  0  0  0
   11.5910   -1.1910   21.7140 H   0  0  0  0  0  0  0  0  0  0  0  0
   10.7400   -0.5210   23.1650 H   0  0  0  0  0  0  0  0  0  0  0  0
   12.0830    6.0700   25.4690 H   0  0  0  0  0  0  0  0  0  0  0  0
   11.1630    6.7950   24.2110 H   0  0  0  0  0  0  0  0  0  0  0  0
   11.2230    4.1680   24.0630 H   0  0  0  0  0  0  0  0  0  0  0  0
   11.8970    4.9110   22.6270 H   0  0  0  0  0  0  0  0  0  0  0  0
    8.7310   -0.8040   21.9220 H   0  0  0  0  0  0  0  0  0  0  0  0
   19.9060    4.2640   21.0410 H   0  0  0  0  0  0  0  0  0  0  0  0
   20.3830    5.1620   19.8620 H   0  0  0  0  0  0  0  0  0  0  0  0
  5 42  1  0  0  0  0
  5 28  2  0  0  0  0
  6 28  1  0  0  0  0
  1  5  1  0  0  0  0
 15 45  1  0  0  0  0
  6 43  1  0  0  0  0
  6 10  2  0  0  0  0
 15 46  1  0  0  0  0
 21 57  1  0  0  0  0
 15 19  1  0  0  0  0
 15 23  1  0  0  0  0
 19 54  1  0  0  0  0
 21 35  1  0  0  0  0
 23 35  1  0  0  0  0
  1 38  1  0  0  0  0
  1  8  2  0  0  0  0
 33 71  1  0  0  0  0
 19 33  1  0  0  0  0
 19 53  1  0  0  0  0
 21 58  1  0  0  0  0
 17 21  1  0  0  0  0
 16 48  1  0  0  0  0
  8 10  1  0  0  0  0
 10 32  1  0  0  0  0
 16 23  1  0  0  0  0
 18 23  1  0  0  0  0
 17 50  1  0  0  0  0
 14 34  2  0  0  0  0
 33 70  1  0  0  0  0
 20 33  1  0  0  0  0
  8 24  1  0  0  0  0
 16 20  1  0  0  0  0
 16 47  1  0  0  0  0
 17 49  1  0  0  0  0
 17 22  1  0  0  0  0
 14 32  1  0  0  0  0
 32 69  1  0  0  0  0
 18 52  1  0  0  0  0
 14 25  1  0  0  0  0
 18 22  1  0  0  0  0
 18 51  1  0  0  0  0
 20 55  1  0  0  0  0
 20 56  1  0  0  0  0
  3 40  1  0  0  0  0
 25 63  1  0  0  0  0
  3  9  2  0  0  0  0
  3 12  1  0  0  0  0
 24 61  1  0  0  0  0
 24 62  1  0  0  0  0
 24 60  1  0  0  0  0
 22 59  1  0  0  0  0
 22 31  1  0  0  0  0
  7 44  1  0  0  0  0
 12 37  1  0  0  0  0
  9 25  1  0  0  0  0
 25 64  1  0  0  0  0
  2  9  1  0  0  0  0
  4 12  2  0  0  0  0
 27 68  1  0  0  0  0
  7 31  1  0  0  0  0
  7 13  2  0  0  0  0
  4 41  1  0  0  0  0
  4 11  1  0  0  0  0
  2 11  2  0  0  0  0
  2 39  1  0  0  0  0
 30 31  1  0  0  0  0
 11 36  1  0  0  0  0
 27 36  1  0  0  0  0
 27 67  1  0  0  0  0
 26 27  1  0  0  0  0
 13 26  1  0  0  0  0
 13 29  1  0  0  0  0
 26 66  1  0  0  0  0
 29 30  1  0  0  0  0
 26 65  1  0  0  0  0
M  CHG  1  33   1
M  END
> <CID>
EN300-843597

> <SMILES>
Cc1ccncc1NC(=O)Cc2cc(cc(c2)Cl)OCCc3cn(nn3)[C@@H]4CCOC5(C4)CC[NH2+]CC5

> <RUN>
RUN4546

> <DDG (kcal/mol)>
-0.78

> <dDDG (kcal/mol)>
0.37

$$$$
EN300-13933
  -OEChem-08252008263D

 49 51  0     0  0  0  0  0  0999 V2000
   12.8950    2.9880   25.2640 C   0  0  0  0  0  0  0  0  0  0  0  0
   12.0700    3.5130   26.2950 C   0  0  0  0  0  0  0  0  0  0  0  0
    5.1810    1.7730   19.6760 C   0  0  0  0  0  0  0  0  0  0  0  0
   12.0210    0.0100   23.1210 C   0  0  0  0  0  0  0  0  0  0  0  0
   12.5290    0.7810   26.1610 C   0  0  0  0  0  0  0  0  0  0  0  0
   12.5480   -1.7010   21.4710 C   0  0  0  0  0  0  0  0  0  0  0  0
   14.3090   -0.5640   22.5010 C   0  0  0  0  0  0  0  0  0  0  0  0
    5.5060    1.7100   18.3090 C   0  0  0  0  0  0  0  0  0  0  0  0
    7.3260    0.3930   18.9060 C   0  0  0  0  0  0  0  0  0  0  0  0
    5.9530    1.1640   20.7190 C   0  0  0  0  0  0  0  0  0  0  0  0
   11.5750   -0.9030   22.1520 C   0  0  0  0  0  0  0  0  0  0  0  0
   11.6450    1.2790   27.1410 C   0  0  0  0  0  0  0  0  0  0  0  0
    7.0510    0.4460   20.3110 C   0  0  0  0  0  0  0  0  0  0  0  0
   13.1230    1.6170   25.1960 C   0  0  0  0  0  0  0  0  0  0  0  0
   11.4660    2.7250   27.2450 C   0  0  0  0  0  0  0  0  0  0  0  0
   13.3780    0.2000   23.2810 C   0  0  0  0  0  0  0  0  0  0  0  0
   13.9110   -1.5310   21.5920 C   0  0  0  0  0  0  0  0  0  0  0  0
    9.2270   -0.0800   21.3630 C   0  0  0  0  0  0  0  0  0  0  0  0
    5.5620    1.2400   22.1900 C   0  0  0  0  0  0  0  0  0  0  0  0
   11.3370    4.3340   29.0310 C   0  0  0  0  0  0  0  0  0  0  0  0
   10.0490   -1.1230   22.1250 C   0  0  0  0  0  0  0  0  0  0  0  0
   11.0330    0.3530   28.2290 C   0  0  0  0  0  0  0  0  0  0  0  0
    6.6010    1.0400   17.9630 N   0  0  0  0  0  0  0  0  0  0  0  0
    7.8390   -0.2940   21.2350 N   0  0  0  0  0  0  0  0  0  0  0  0
    9.6280    1.0480   21.0040 O   0  0  0  0  0  0  0  0  0  0  0  0
   13.9330    1.1390   24.1590 O   0  0  0  0  0  0  0  0  0  0  0  0
   10.7900    3.1730   28.3490 O   0  0  0  0  0  0  0  0  0  0  0  0
   14.9890   -2.3890   20.6100 Cl  0  0  0  0  0  0  0  0  0  0  0  0
   10.0030   -1.0670   27.2820 Br  0  0  0  0  0  0  0  0  0  0  0  0
   13.2820    3.7100   24.5480 H   0  0  0  0  0  0  0  0  0  0  0  0
   12.0340    4.5990   26.3480 H   0  0  0  0  0  0  0  0  0  0  0  0
    4.2520    2.2190   20.0190 H   0  0  0  0  0  0  0  0  0  0  0  0
   11.2870    0.5350   23.7290 H   0  0  0  0  0  0  0  0  0  0  0  0
   12.7660   -0.2710   26.0490 H   0  0  0  0  0  0  0  0  0  0  0  0
   12.1880   -2.4700   20.7930 H   0  0  0  0  0  0  0  0  0  0  0  0
   15.3880   -0.5790   22.6660 H   0  0  0  0  0  0  0  0  0  0  0  0
    4.8990    2.2350   17.5760 H   0  0  0  0  0  0  0  0  0  0  0  0
    8.1190   -0.2630   18.5740 H   0  0  0  0  0  0  0  0  0  0  0  0
    5.3060    0.2850   22.6700 H   0  0  0  0  0  0  0  0  0  0  0  0
    6.3450    1.6370   22.8390 H   0  0  0  0  0  0  0  0  0  0  0  0
    4.6480    1.8260   22.2190 H   0  0  0  0  0  0  0  0  0  0  0  0
   12.4290    4.2530   28.9580 H   0  0  0  0  0  0  0  0  0  0  0  0
   11.0090    4.4190   30.0690 H   0  0  0  0  0  0  0  0  0  0  0  0
   11.0750    5.2260   28.4620 H   0  0  0  0  0  0  0  0  0  0  0  0
    9.8930   -2.1500   21.7840 H   0  0  0  0  0  0  0  0  0  0  0  0
    9.7240   -1.0830   23.1760 H   0  0  0  0  0  0  0  0  0  0  0  0
   10.2900    0.8810   28.8330 H   0  0  0  0  0  0  0  0  0  0  0  0
   11.8540    0.0100   28.8610 H   0  0  0  0  0  0  0  0  0  0  0  0
    7.4850   -1.1210   21.7110 H   0  0  0  0  0  0  0  0  0  0  0  0
  8 37  1  0  0  0  0
  8 23  2  0  0  0  0
  9 23  1  0  0  0  0
  3  8  1  0  0  0  0
  9 38  1  0  0  0  0
  9 13  2  0  0  0  0
  3 32  1  0  0  0  0
  3 10  2  0  0  0  0
 10 13  1  0  0  0  0
 13 24  1  0  0  0  0
 17 28  1  0  0  0  0
 10 19  1  0  0  0  0
  6 35  1  0  0  0  0
 18 25  2  0  0  0  0
 18 24  1  0  0  0  0
 24 49  1  0  0  0  0
 18 21  1  0  0  0  0
  6 17  2  0  0  0  0
  6 11  1  0  0  0  0
  7 17  1  0  0  0  0
 21 45  1  0  0  0  0
 11 21  1  0  0  0  0
 21 46  1  0  0  0  0
  4 11  2  0  0  0  0
 19 41  1  0  0  0  0
 19 39  1  0  0  0  0
 19 40  1  0  0  0  0
  7 36  1  0  0  0  0
  7 16  2  0  0  0  0
  4 16  1  0  0  0  0
  4 33  1  0  0  0  0
 16 26  1  0  0  0  0
 14 26  1  0  0  0  0
  1 30  1  0  0  0  0
  1 14  2  0  0  0  0
  5 14  1  0  0  0  0
  1  2  1  0  0  0  0
  5 34  1  0  0  0  0
  5 12  2  0  0  0  0
  2 31  1  0  0  0  0
  2 15  2  0  0  0  0
 12 15  1  0  0  0  0
 12 22  1  0  0  0  0
 15 27  1  0  0  0  0
 22 29  1  0  0  0  0
 22 47  1  0  0  0  0
 22 48  1  0  0  0  0
 20 27  1  0  0  0  0
 20 44  1  0  0  0  0
 20 42  1  0  0  0  0
 20 43  1  0  0  0  0
M  END
> <CID>
EN300-13933

> <SMILES>
Cc1ccncc1NC(=O)Cc2cc(cc(c2)Cl)Oc3ccc(c(c3)CBr)OC

> <RUN>
RUN2655

> <DDG (kcal/mol)>
-0.78

> <dDDG (kcal/mol)>
0.13

$$$$
EN300-87708
  -OEChem-08252008263D

 65 68  0     1  0  0  0  0  0999 V2000
    9.4440    5.9740   23.7160 C   0  0  0  0  0  0  0  0  0  0  0  0
    8.2410    4.5220   22.1930 C   0  0  0  0  0  0  0  0  0  0  0  0
    8.4160    6.9310   23.6540 C   0  0  0  0  0  0  0  0  0  0  0  0
    7.2130    5.4690   22.1300 C   0  0  0  0  0  0  0  0  0  0  0  0
    4.3790    0.9180   18.7840 C   0  0  0  0  0  0  0  0  0  0  0  0
   10.3430    0.5920   23.5890 C   0  0  0  0  0  0  0  0  0  0  0  0
   11.2630   -1.1230   22.2170 C   0  0  0  0  0  0  0  0  0  0  0  0
   12.7770    0.3810   23.2990 C   0  0  0  0  0  0  0  0  0  0  0  0
    5.0290    0.9600   17.5340 C   0  0  0  0  0  0  0  0  0  0  0  0
    6.8610   -0.1350   18.3180 C   0  0  0  0  0  0  0  0  0  0  0  0
    9.4300    4.7910   22.9570 C   0  0  0  0  0  0  0  0  0  0  0  0
    5.0510    0.4320   19.8590 C   0  0  0  0  0  0  0  0  0  0  0  0
   10.1570   -0.5180   22.7760 C   0  0  0  0  0  0  0  0  0  0  0  0
    6.3020   -0.1390   19.6210 C   0  0  0  0  0  0  0  0  0  0  0  0
   11.6830    1.1310   23.7650 C   0  0  0  0  0  0  0  0  0  0  0  0
    7.2790    6.7110   22.8930 C   0  0  0  0  0  0  0  0  0  0  0  0
   12.5720   -0.7680   22.4790 C   0  0  0  0  0  0  0  0  0  0  0  0
    8.2230   -0.2910   21.1370 C   0  0  0  0  0  0  0  0  0  0  0  0
    3.8490    6.4250   23.5470 C   0  0  0  0  0  0  0  0  0  0  0  0
    5.3530    7.1890   25.3880 C   0  0  0  0  0  0  0  0  0  0  0  0
    2.9230    5.9620   24.6230 C   0  0  0  0  0  0  0  0  0  0  0  0
    4.4020    6.4050   26.2790 C   0  0  0  0  0  0  0  0  0  0  0  0
    4.3730    0.5030   21.2420 C   0  0  0  0  0  0  0  0  0  0  0  0
    8.7680   -0.9750   22.3590 C   0  0  0  0  0  0  0  0  0  0  0  0
   10.9590    3.4170   24.3160 C   0  0  0  0  0  0  0  0  0  0  0  0
   10.5980    3.8730   22.8470 C   0  0  2  0  0  0  0  0  0  0  0  0
    6.2170    0.3610   17.2600 N   0  0  0  0  0  0  0  0  0  0  0  0
    4.7140    7.4790   24.0540 N   0  0  0  0  0  0  0  0  0  0  0  0
    6.9630   -0.6780   20.7410 N   0  0  0  0  0  0  0  0  0  0  0  0
    8.8400    0.5910   20.5170 O   0  0  0  0  0  0  0  0  0  0  0  0
    6.5490    9.2580   23.2520 O   0  0  0  0  0  0  0  0  0  0  0  0
    5.3690    8.1660   21.5470 O   0  0  0  0  0  0  0  0  0  0  0  0
    3.6460    5.3350   25.6920 O   0  0  0  0  0  0  0  0  0  0  0  0
   11.7030    4.5560   22.1790 O   0  0  0  0  0  0  0  0  0  0  0  0
   11.8890    2.3370   24.4440 O   0  0  0  0  0  0  0  0  0  0  0  0
    5.9780    7.9860   22.8790 S   0  0  0  0  0  0  0  0  0  0  0  0
   14.0010   -1.5850   21.7340 Cl  0  0  0  0  0  0  0  0  0  0  0  0
   10.2690    6.1080   24.4040 H   0  0  0  0  0  0  0  0  0  0  0  0
    8.2560    3.5560   21.6870 H   0  0  0  0  0  0  0  0  0  0  0  0
    8.4480    7.8750   24.1790 H   0  0  0  0  0  0  0  0  0  0  0  0
    6.3100    5.2490   21.5640 H   0  0  0  0  0  0  0  0  0  0  0  0
    3.4710    1.5050   18.9030 H   0  0  0  0  0  0  0  0  0  0  0  0
    9.5740    1.2100   24.0580 H   0  0  0  0  0  0  0  0  0  0  0  0
   11.3050   -1.9370   21.4990 H   0  0  0  0  0  0  0  0  0  0  0  0
   13.7660    0.7560   23.5740 H   0  0  0  0  0  0  0  0  0  0  0  0
    4.4530    1.4810   16.7790 H   0  0  0  0  0  0  0  0  0  0  0  0
    7.7070   -0.7640   18.0610 H   0  0  0  0  0  0  0  0  0  0  0  0
    4.4130    5.5150   23.2960 H   0  0  0  0  0  0  0  0  0  0  0  0
    3.2690    6.8290   22.7030 H   0  0  0  0  0  0  0  0  0  0  0  0
    5.7290    8.1170   25.8340 H   0  0  0  0  0  0  0  0  0  0  0  0
    6.1560    6.4670   25.1780 H   0  0  0  0  0  0  0  0  0  0  0  0
    2.3470    6.8040   25.0220 H   0  0  0  0  0  0  0  0  0  0  0  0
    2.1720    5.2500   24.2700 H   0  0  0  0  0  0  0  0  0  0  0  0
    5.0110    6.1100   27.1340 H   0  0  0  0  0  0  0  0  0  0  0  0
    3.6820    7.1720   26.5810 H   0  0  0  0  0  0  0  0  0  0  0  0
    5.0120    0.8720   22.0450 H   0  0  0  0  0  0  0  0  0  0  0  0
    3.4190    1.0510   21.1440 H   0  0  0  0  0  0  0  0  0  0  0  0
    4.1080   -0.5290   21.4600 H   0  0  0  0  0  0  0  0  0  0  0  0
    8.7480   -2.0720   22.2890 H   0  0  0  0  0  0  0  0  0  0  0  0
    8.1400   -0.8170   23.2340 H   0  0  0  0  0  0  0  0  0  0  0  0
   11.3930    4.2820   24.8230 H   0  0  0  0  0  0  0  0  0  0  0  0
   10.0000    3.0590   24.7050 H   0  0  0  0  0  0  0  0  0  0  0  0
   10.3210    2.9590   22.3210 H   0  0  0  0  0  0  0  0  0  0  0  0
    6.5440   -1.3120   21.4070 H   0  0  0  0  0  0  0  0  0  0  0  0
   11.4150    4.5740   21.2460 H   0  0  0  0  0  0  0  0  0  0  0  0
  9 46  1  0  0  0  0
  9 27  2  0  0  0  0
 10 27  1  0  0  0  0
  5  9  1  0  0  0  0
 10 47  1  0  0  0  0
 10 14  2  0  0  0  0
  5 42  1  0  0  0  0
  5 12  2  0  0  0  0
 12 14  1  0  0  0  0
 14 29  1  0  0  0  0
 12 23  1  0  0  0  0
 18 30  2  0  0  0  0
 18 29  1  0  0  0  0
 29 64  1  0  0  0  0
 18 24  1  0  0  0  0
 23 57  1  0  0  0  0
 23 58  1  0  0  0  0
 23 56  1  0  0  0  0
 34 65  1  0  0  0  0
  7 44  1  0  0  0  0
 32 36  2  0  0  0  0
  4 41  1  0  0  0  0
  2 39  1  0  0  0  0
 17 37  1  0  0  0  0
  2  4  2  0  0  0  0
  4 16  1  0  0  0  0
 26 34  1  0  0  0  0
  2 11  1  0  0  0  0
  7 17  2  0  0  0  0
  7 13  1  0  0  0  0
 24 59  1  0  0  0  0
 26 63  1  0  0  0  0
 13 24  1  0  0  0  0
 24 60  1  0  0  0  0
  8 17  1  0  0  0  0
 19 49  1  0  0  0  0
  6 13  2  0  0  0  0
 11 26  1  0  0  0  0
 25 26  1  0  0  0  0
 16 36  1  0  0  0  0
 31 36  2  0  0  0  0
 28 36  1  0  0  0  0
  3 16  2  0  0  0  0
  1 11  2  0  0  0  0
 19 48  1  0  0  0  0
  8 45  1  0  0  0  0
  8 15  2  0  0  0  0
 19 28  1  0  0  0  0
 19 21  1  0  0  0  0
  6 15  1  0  0  0  0
  6 43  1  0  0  0  0
  1  3  1  0  0  0  0
  3 40  1  0  0  0  0
  1 38  1  0  0  0  0
 15 35  1  0  0  0  0
 20 28  1  0  0  0  0
 21 53  1  0  0  0  0
 25 35  1  0  0  0  0
 25 62  1  0  0  0  0
 25 61  1  0  0  0  0
 21 52  1  0  0  0  0
 21 33  1  0  0  0  0
 20 51  1  0  0  0  0
 20 50  1  0  0  0  0
 20 22  1  0  0  0  0
 22 33  1  0  0  0  0
 22 55  1  0  0  0  0
 22 54  1  0  0  0  0
M  END
> <CID>
EN300-87708

> <SMILES>
Cc1ccncc1NC(=O)Cc2cc(cc(c2)Cl)OC[C@@H](c3ccc(cc3)S(=O)(=O)N4CCOCC4)O

> <RUN>
RUN4605

> <DDG (kcal/mol)>
-0.75

> <dDDG (kcal/mol)>
0.58

$$$$
EN300-1461309
  -OEChem-08252008263D

 61 64  0     0  0  0  0  0  0999 V2000
    4.5900    1.4630   19.6270 C   0  0  0  0  0  0  0  0  0  0  0  0
    8.9550   -3.2140   21.9250 C   0  0  0  0  0  0  0  0  0  0  0  0
    8.2160   -5.2390   22.9360 C   0  0  0  0  0  0  0  0  0  0  0  0
   10.5170   -4.9040   22.4820 C   0  0  0  0  0  0  0  0  0  0  0  0
    4.9510    1.3820   18.2890 C   0  0  0  0  0  0  0  0  0  0  0  0
    6.1870   -0.5250   18.7570 C   0  0  0  0  0  0  0  0  0  0  0  0
   14.2360   -1.4170   20.5960 C   0  0  0  0  0  0  0  0  0  0  0  0
    4.9060    0.5410   20.5200 C   0  0  0  0  0  0  0  0  0  0  0  0
    7.8830   -4.0560   22.3420 C   0  0  0  0  0  0  0  0  0  0  0  0
   13.3480   -1.7590   21.5990 C   0  0  0  0  0  0  0  0  0  0  0  0
    5.7530   -0.5010   20.0930 C   0  0  0  0  0  0  0  0  0  0  0  0
   10.2650   -3.6340   21.9610 C   0  0  0  0  0  0  0  0  0  0  0  0
    9.5430   -5.7430   22.9530 C   0  0  0  0  0  0  0  0  0  0  0  0
   13.3610   -0.6580   22.5020 C   0  0  0  0  0  0  0  0  0  0  0  0
    6.1160   -2.7640   21.0000 C   0  0  0  0  0  0  0  0  0  0  0  0
   16.4190    1.8650   17.4620 C   0  0  0  0  0  0  0  0  0  0  0  0
   15.4990    2.6820   18.3450 C   0  0  0  0  0  0  0  0  0  0  0  0
   17.3270    0.8550   18.2140 C   0  0  0  0  0  0  0  0  0  0  0  0
   14.7250    1.6420   19.1540 C   0  0  0  0  0  0  0  0  0  0  0  0
   16.4120   -0.1450   18.9550 C   0  0  0  0  0  0  0  0  0  0  0  0
   15.5670    0.7040   20.0120 C   0  0  0  0  0  0  0  0  0  0  0  0
    4.4240    0.6080   21.9350 C   0  0  0  0  0  0  0  0  0  0  0  0
   12.6910   -0.6390   23.7990 C   0  0  0  0  0  0  0  0  0  0  0  0
    6.4270   -3.5850   22.2290 C   0  0  0  0  0  0  0  0  0  0  0  0
   12.5450   -3.0230   21.7370 C   0  0  0  0  0  0  0  0  0  0  0  0
    5.7780    0.4160   17.8600 N   0  0  0  0  0  0  0  0  0  0  0  0
   14.1970    0.2640   22.1050 N   0  0  0  0  0  0  0  0  0  0  0  0
   14.7330   -0.1650   20.8710 N   0  0  0  0  0  0  0  0  0  0  0  0
    6.2660   -1.4210   21.0370 N   0  0  0  0  0  0  0  0  0  0  0  0
    5.8390   -3.2890   19.8930 O   0  0  0  0  0  0  0  0  0  0  0  0
   11.1880   -2.6770   21.6810 O   0  0  0  0  0  0  0  0  0  0  0  0
    9.8770   -7.4150   23.5190 Cl  0  0  0  0  0  0  0  0  0  0  0  0
    3.9740    2.3040   19.9220 H   0  0  0  0  0  0  0  0  0  0  0  0
    8.7960   -2.2530   21.4580 H   0  0  0  0  0  0  0  0  0  0  0  0
    7.4190   -5.8950   23.2620 H   0  0  0  0  0  0  0  0  0  0  0  0
   11.5320   -5.2980   22.5260 H   0  0  0  0  0  0  0  0  0  0  0  0
    4.5470    2.1700   17.6620 H   0  0  0  0  0  0  0  0  0  0  0  0
    6.9330   -1.2130   18.3920 H   0  0  0  0  0  0  0  0  0  0  0  0
   14.4230   -2.0920   19.7640 H   0  0  0  0  0  0  0  0  0  0  0  0
   15.8010    1.2510   16.7990 H   0  0  0  0  0  0  0  0  0  0  0  0
   17.0630    2.4800   16.8330 H   0  0  0  0  0  0  0  0  0  0  0  0
   14.8080    3.2910   17.7640 H   0  0  0  0  0  0  0  0  0  0  0  0
   16.0490    3.3700   18.9890 H   0  0  0  0  0  0  0  0  0  0  0  0
   18.0710    0.3970   17.5460 H   0  0  0  0  0  0  0  0  0  0  0  0
   17.9430    1.4190   18.9170 H   0  0  0  0  0  0  0  0  0  0  0  0
   14.0410    1.0830   18.5110 H   0  0  0  0  0  0  0  0  0  0  0  0
   14.1100    2.2290   19.8500 H   0  0  0  0  0  0  0  0  0  0  0  0
   15.7200   -0.7170   18.3280 H   0  0  0  0  0  0  0  0  0  0  0  0
   16.8640   -0.9750   19.5020 H   0  0  0  0  0  0  0  0  0  0  0  0
   16.2060    1.3380   20.6330 H   0  0  0  0  0  0  0  0  0  0  0  0
    4.3150   -0.3890   22.3720 H   0  0  0  0  0  0  0  0  0  0  0  0
    5.0920    1.1920   22.5710 H   0  0  0  0  0  0  0  0  0  0  0  0
    3.4690    1.1510   21.9080 H   0  0  0  0  0  0  0  0  0  0  0  0
   12.1780    0.3050   24.0190 H   0  0  0  0  0  0  0  0  0  0  0  0
   12.0560   -1.5170   23.9700 H   0  0  0  0  0  0  0  0  0  0  0  0
   13.4730   -0.7840   24.5470 H   0  0  0  0  0  0  0  0  0  0  0  0
    5.7720   -4.4460   22.3730 H   0  0  0  0  0  0  0  0  0  0  0  0
    6.1790   -2.9730   23.1030 H   0  0  0  0  0  0  0  0  0  0  0  0
   12.6660   -3.7380   20.9180 H   0  0  0  0  0  0  0  0  0  0  0  0
   12.7670   -3.5780   22.6490 H   0  0  0  0  0  0  0  0  0  0  0  0
    6.3340   -1.1170   22.0120 H   0  0  0  0  0  0  0  0  0  0  0  0
 16 40  1  0  0  0  0
 16 41  1  0  0  0  0
 16 18  1  0  0  0  0
 16 17  1  0  0  0  0
 18 44  1  0  0  0  0
  5 37  1  0  0  0  0
 17 42  1  0  0  0  0
  5 26  2  0  0  0  0
  6 26  1  0  0  0  0
 18 45  1  0  0  0  0
 18 20  1  0  0  0  0
  1  5  1  0  0  0  0
 20 48  1  0  0  0  0
 17 43  1  0  0  0  0
 17 19  1  0  0  0  0
  6 38  1  0  0  0  0
 19 46  1  0  0  0  0
  6 11  2  0  0  0  0
 20 49  1  0  0  0  0
 20 21  1  0  0  0  0
 19 47  1  0  0  0  0
 19 21  1  0  0  0  0
  1 33  1  0  0  0  0
  1  8  2  0  0  0  0
  7 39  1  0  0  0  0
 15 30  2  0  0  0  0
 21 50  1  0  0  0  0
 21 28  1  0  0  0  0
  8 11  1  0  0  0  0
 11 29  1  0  0  0  0
  8 22  1  0  0  0  0
  7 28  1  0  0  0  0
  7 10  2  0  0  0  0
 27 28  1  0  0  0  0
 25 59  1  0  0  0  0
 15 29  1  0  0  0  0
 15 24  1  0  0  0  0
 29 61  1  0  0  0  0
  2 34  1  0  0  0  0
 10 25  1  0  0  0  0
 10 14  1  0  0  0  0
 25 31  1  0  0  0  0
 12 31  1  0  0  0  0
 25 60  1  0  0  0  0
 22 53  1  0  0  0  0
  2 12  2  0  0  0  0
  2  9  1  0  0  0  0
 22 51  1  0  0  0  0
 22 52  1  0  0  0  0
  4 12  1  0  0  0  0
 14 27  2  0  0  0  0
  9 24  1  0  0  0  0
 24 57  1  0  0  0  0
 24 58  1  0  0  0  0
  3  9  2  0  0  0  0
  4 36  1  0  0  0  0
  4 13  2  0  0  0  0
 14 23  1  0  0  0  0
  3 13  1  0  0  0  0
  3 35  1  0  0  0  0
 13 32  1  0  0  0  0
 23 55  1  0  0  0  0
 23 54  1  0  0  0  0
 23 56  1  0  0  0  0
M  END
> <CID>
EN300-1461309

> <SMILES>
Cc1ccncc1NC(=O)Cc2cc(cc(c2)Cl)OCc3cn(nc3C)C4CCCCC4

> <RUN>
RUN678

> <DDG (kcal/mol)>
-0.74

> <dDDG (kcal/mol)>
0.13

$$$$
EN300-195084
  -OEChem-08252008263D

 56 59  0     0  0  0  0  0  0999 V2000
   13.5330    0.4490   22.3020 C   0  0  0  0  0  0  0  0  0  0  0  0
   14.5200   -0.2650   21.6230 C   0  0  0  0  0  0  0  0  0  0  0  0
    4.0660    1.7200   17.8710 C   0  0  0  0  0  0  0  0  0  0  0  0
    7.7990   -2.9130   21.6750 C   0  0  0  0  0  0  0  0  0  0  0  0
    6.5130   -4.8860   22.0630 C   0  0  0  0  0  0  0  0  0  0  0  0
   12.8830   -1.8000   20.7810 C   0  0  0  0  0  0  0  0  0  0  0  0
    8.9740   -4.9180   22.3010 C   0  0  0  0  0  0  0  0  0  0  0  0
    4.9190    1.4630   16.8100 C   0  0  0  0  0  0  0  0  0  0  0  0
    5.9900   -0.0560   18.0870 C   0  0  0  0  0  0  0  0  0  0  0  0
    4.1750    1.1410   19.0940 C   0  0  0  0  0  0  0  0  0  0  0  0
    6.5490   -3.5660   21.7960 C   0  0  0  0  0  0  0  0  0  0  0  0
   11.8680   -1.0890   21.4600 C   0  0  0  0  0  0  0  0  0  0  0  0
    5.1330    0.1190   19.1870 C   0  0  0  0  0  0  0  0  0  0  0  0
   12.2320    0.0030   22.2090 C   0  0  0  0  0  0  0  0  0  0  0  0
    9.0530   -3.6050   21.8730 C   0  0  0  0  0  0  0  0  0  0  0  0
   14.2200   -1.3590   20.8530 C   0  0  0  0  0  0  0  0  0  0  0  0
    7.6940   -5.5810   22.3640 C   0  0  0  0  0  0  0  0  0  0  0  0
    5.2520   -2.0940   20.2590 C   0  0  0  0  0  0  0  0  0  0  0  0
   12.9700    0.7300   25.8600 C   0  0  0  0  0  0  0  0  0  0  0  0
   11.6930    1.3150   26.4410 C   0  0  0  0  0  0  0  0  0  0  0  0
   11.7210    0.4910   25.1570 C   0  0  0  0  0  0  0  0  0  0  0  0
    3.3550    1.6500   20.1950 C   0  0  0  0  0  0  0  0  0  0  0  0
    5.1600   -2.8180   21.5960 C   0  0  0  0  0  0  0  0  0  0  0  0
   10.4010   -1.6230   21.4530 C   0  0  0  0  0  0  0  0  0  0  0  0
   11.3080    1.4170   24.0020 C   0  0  0  0  0  0  0  0  0  0  0  0
    5.9060    0.5530   16.8590 N   0  0  0  0  0  0  0  0  0  0  0  0
    5.1420   -0.7110   20.2510 N   0  0  0  0  0  0  0  0  0  0  0  0
    5.4450   -2.7060   19.2280 O   0  0  0  0  0  0  0  0  0  0  0  0
   10.3270   -3.0750   21.6550 O   0  0  0  0  0  0  0  0  0  0  0  0
   11.2490    0.7580   22.7420 O   0  0  0  0  0  0  0  0  0  0  0  0
   15.4210   -2.0760   19.8160 Cl  0  0  0  0  0  0  0  0  0  0  0  0
    7.4790   -7.2190   22.8340 Cl  0  0  0  0  0  0  0  0  0  0  0  0
   13.7830    1.3800   22.8100 H   0  0  0  0  0  0  0  0  0  0  0  0
   15.5200    0.1620   21.5760 H   0  0  0  0  0  0  0  0  0  0  0  0
    3.3550    2.5110   17.6460 H   0  0  0  0  0  0  0  0  0  0  0  0
    7.7410   -1.8750   21.3540 H   0  0  0  0  0  0  0  0  0  0  0  0
    5.5940   -5.4670   22.1160 H   0  0  0  0  0  0  0  0  0  0  0  0
   12.5980   -2.6820   20.2270 H   0  0  0  0  0  0  0  0  0  0  0  0
    9.9100   -5.4520   22.4290 H   0  0  0  0  0  0  0  0  0  0  0  0
    4.7060    2.0710   15.9390 H   0  0  0  0  0  0  0  0  0  0  0  0
    6.8090   -0.7490   18.2560 H   0  0  0  0  0  0  0  0  0  0  0  0
   13.6420    1.4670   25.4030 H   0  0  0  0  0  0  0  0  0  0  0  0
   13.5430   -0.0840   26.3330 H   0  0  0  0  0  0  0  0  0  0  0  0
   11.3040    1.0560   27.4290 H   0  0  0  0  0  0  0  0  0  0  0  0
   11.6540    2.4160   26.4040 H   0  0  0  0  0  0  0  0  0  0  0  0
   11.2470   -0.4870   25.1340 H   0  0  0  0  0  0  0  0  0  0  0  0
    3.4520    0.9790   21.0570 H   0  0  0  0  0  0  0  0  0  0  0  0
    3.6830    2.6060   20.6080 H   0  0  0  0  0  0  0  0  0  0  0  0
    2.2980    1.7170   19.9140 H   0  0  0  0  0  0  0  0  0  0  0  0
    4.4240   -3.6310   21.5100 H   0  0  0  0  0  0  0  0  0  0  0  0
    4.8930   -2.1380   22.4100 H   0  0  0  0  0  0  0  0  0  0  0  0
    9.8730   -1.1540   22.2980 H   0  0  0  0  0  0  0  0  0  0  0  0
    9.9940   -1.2140   20.5290 H   0  0  0  0  0  0  0  0  0  0  0  0
   11.9610    2.2910   23.9520 H   0  0  0  0  0  0  0  0  0  0  0  0
   10.3210    1.8210   24.2240 H   0  0  0  0  0  0  0  0  0  0  0  0
    4.7800   -0.3220   21.1220 H   0  0  0  0  0  0  0  0  0  0  0  0
  8 40  1  0  0  0  0
  8 26  2  0  0  0  0
  3  8  1  0  0  0  0
  9 26  1  0  0  0  0
  3 35  1  0  0  0  0
  3 10  2  0  0  0  0
  9 41  1  0  0  0  0
  9 13  2  0  0  0  0
 10 13  1  0  0  0  0
 10 22  1  0  0  0  0
 13 27  1  0  0  0  0
 18 28  2  0  0  0  0
 16 31  1  0  0  0  0
 22 49  1  0  0  0  0
 22 48  1  0  0  0  0
 22 47  1  0  0  0  0
  6 38  1  0  0  0  0
 18 27  1  0  0  0  0
 27 56  1  0  0  0  0
 18 23  1  0  0  0  0
 24 53  1  0  0  0  0
  6 16  2  0  0  0  0
  6 12  1  0  0  0  0
  2 16  1  0  0  0  0
  4 36  1  0  0  0  0
 12 24  1  0  0  0  0
 24 29  1  0  0  0  0
 24 52  1  0  0  0  0
 12 14  2  0  0  0  0
 23 50  1  0  0  0  0
  2 34  1  0  0  0  0
 11 23  1  0  0  0  0
 23 51  1  0  0  0  0
  1  2  2  0  0  0  0
 15 29  1  0  0  0  0
  4 11  2  0  0  0  0
  4 15  1  0  0  0  0
  5 11  1  0  0  0  0
  7 15  2  0  0  0  0
  5 37  1  0  0  0  0
  5 17  2  0  0  0  0
  1 14  1  0  0  0  0
 14 30  1  0  0  0  0
  7 17  1  0  0  0  0
  7 39  1  0  0  0  0
  1 33  1  0  0  0  0
 17 32  1  0  0  0  0
 25 30  1  0  0  0  0
 25 54  1  0  0  0  0
 25 55  1  0  0  0  0
 21 25  1  0  0  0  0
 21 46  1  0  0  0  0
 19 21  1  0  0  0  0
 20 21  1  0  0  0  0
 19 42  1  0  0  0  0
 19 43  1  0  0  0  0
 19 20  1  0  0  0  0
 20 45  1  0  0  0  0
 20 44  1  0  0  0  0
M  END
> <CID>
EN300-195084

> <SMILES>
Cc1ccncc1NC(=O)Cc2cc(cc(c2)Cl)OCc3cc(ccc3OCC4CC4)Cl

> <RUN>
RUN1831

> <DDG (kcal/mol)>
-0.74

> <dDDG (kcal/mol)>
0.16

$$$$
EN300-1897461
  -OEChem-08252008263D

 46 48  0     0  0  0  0  0  0999 V2000
    5.2740    2.1670   19.0670 C   0  0  0  0  0  0  0  0  0  0  0  0
    7.8010   -2.4550   24.0520 C   0  0  0  0  0  0  0  0  0  0  0  0
    9.2160   -4.1770   26.1950 C   0  0  0  0  0  0  0  0  0  0  0  0
    9.2680   -2.2490   22.1210 C   0  0  0  0  0  0  0  0  0  0  0  0
    8.0310   -3.3620   28.0780 C   0  0  0  0  0  0  0  0  0  0  0  0
   10.0370   -1.6180   24.3010 C   0  0  0  0  0  0  0  0  0  0  0  0
    5.3480    1.7940   17.7230 C   0  0  0  0  0  0  0  0  0  0  0  0
    6.2390   -0.2110   18.3340 C   0  0  0  0  0  0  0  0  0  0  0  0
    5.8340    1.3910   20.0960 C   0  0  0  0  0  0  0  0  0  0  0  0
    7.9990   -2.5400   22.6570 C   0  0  0  0  0  0  0  0  0  0  0  0
    9.2950   -5.4730   26.8470 C   0  0  0  0  0  0  0  0  0  0  0  0
    6.3680    0.1260   19.7080 C   0  0  0  0  0  0  0  0  0  0  0  0
    8.5380   -3.1390   26.7930 C   0  0  0  0  0  0  0  0  0  0  0  0
    8.7710   -1.8790   24.8830 C   0  0  0  0  0  0  0  0  0  0  0  0
    8.6500   -5.7120   28.1200 C   0  0  0  0  0  0  0  0  0  0  0  0
    7.9880   -4.6270   28.6910 C   0  0  0  0  0  0  0  0  0  0  0  0
   10.2790   -1.7210   22.8940 C   0  0  0  0  0  0  0  0  0  0  0  0
    6.5290   -2.1710   20.5890 C   0  0  0  0  0  0  0  0  0  0  0  0
    5.8860    1.8760   21.5770 C   0  0  0  0  0  0  0  0  0  0  0  0
    6.9080   -3.0610   21.7520 C   0  0  0  0  0  0  0  0  0  0  0  0
    9.9700   -6.6310   26.1080 C   0  0  0  0  0  0  0  0  0  0  0  0
    5.7830    0.5920   17.3430 N   0  0  0  0  0  0  0  0  0  0  0  0
    6.9070   -0.8510   20.5570 N   0  0  0  0  0  0  0  0  0  0  0  0
    5.9560   -2.6640   19.6240 O   0  0  0  0  0  0  0  0  0  0  0  0
    8.7380   -6.9080   28.7540 O   0  0  0  0  0  0  0  0  0  0  0  0
    8.6140   -1.8510   26.2320 O   0  0  0  0  0  0  0  0  0  0  0  0
    7.4850   -4.7230   29.8910 F   0  0  0  0  0  0  0  0  0  0  0  0
   11.8180   -1.1050   22.3170 Cl  0  0  0  0  0  0  0  0  0  0  0  0
    8.9210   -7.1170   24.4830 Br  0  0  0  0  0  0  0  0  0  0  0  0
    4.8160    3.1110   19.3490 H   0  0  0  0  0  0  0  0  0  0  0  0
    6.8560   -2.6980   24.5240 H   0  0  0  0  0  0  0  0  0  0  0  0
    9.5850   -4.1080   25.1800 H   0  0  0  0  0  0  0  0  0  0  0  0
    9.5020   -2.4930   21.0880 H   0  0  0  0  0  0  0  0  0  0  0  0
    7.6600   -2.5980   28.7530 H   0  0  0  0  0  0  0  0  0  0  0  0
   10.8800   -1.3680   24.9430 H   0  0  0  0  0  0  0  0  0  0  0  0
    4.9490    2.5030   17.0010 H   0  0  0  0  0  0  0  0  0  0  0  0
    6.6430   -1.1400   17.9500 H   0  0  0  0  0  0  0  0  0  0  0  0
    5.4010    1.1540   22.2520 H   0  0  0  0  0  0  0  0  0  0  0  0
    6.9230    2.0160   21.8830 H   0  0  0  0  0  0  0  0  0  0  0  0
    5.5070    2.9020   21.6680 H   0  0  0  0  0  0  0  0  0  0  0  0
    7.0520   -4.0470   21.3090 H   0  0  0  0  0  0  0  0  0  0  0  0
    6.0100   -3.2090   22.3640 H   0  0  0  0  0  0  0  0  0  0  0  0
    9.9910   -7.5570   26.6940 H   0  0  0  0  0  0  0  0  0  0  0  0
   11.0220   -6.3860   25.9040 H   0  0  0  0  0  0  0  0  0  0  0  0
    7.4200   -0.4990   21.3580 H   0  0  0  0  0  0  0  0  0  0  0  0
    9.6070   -7.3480   28.6490 H   0  0  0  0  0  0  0  0  0  0  0  0
  7 36  1  0  0  0  0
  7 22  2  0  0  0  0
  8 22  1  0  0  0  0
  1  7  1  0  0  0  0
  8 37  1  0  0  0  0
  8 12  2  0  0  0  0
  1 30  1  0  0  0  0
  1  9  2  0  0  0  0
 18 24  2  0  0  0  0
  9 12  1  0  0  0  0
 12 23  1  0  0  0  0
  9 19  1  0  0  0  0
 18 23  1  0  0  0  0
 23 45  1  0  0  0  0
 18 20  1  0  0  0  0
  4 33  1  0  0  0  0
 20 41  1  0  0  0  0
 19 40  1  0  0  0  0
 19 39  1  0  0  0  0
 19 38  1  0  0  0  0
 20 42  1  0  0  0  0
 10 20  1  0  0  0  0
  4 10  2  0  0  0  0
  4 17  1  0  0  0  0
 17 28  1  0  0  0  0
  2 10  1  0  0  0  0
  6 17  2  0  0  0  0
  2 31  1  0  0  0  0
  2 14  2  0  0  0  0
  6 14  1  0  0  0  0
  6 35  1  0  0  0  0
 21 29  1  0  0  0  0
 14 26  1  0  0  0  0
  3 32  1  0  0  0  0
 21 44  1  0  0  0  0
 21 43  1  0  0  0  0
 11 21  1  0  0  0  0
  3 13  2  0  0  0  0
  3 11  1  0  0  0  0
 13 26  1  0  0  0  0
  5 13  1  0  0  0  0
 11 15  2  0  0  0  0
  5 16  2  0  0  0  0
  5 34  1  0  0  0  0
 15 16  1  0  0  0  0
 15 25  1  0  0  0  0
 25 46  1  0  0  0  0
 16 27  1  0  0  0  0
M  END
> <CID>
EN300-1897461

> <SMILES>
Cc1ccncc1NC(=O)Cc2cc(cc(c2)Cl)Oc3cc(c(c(c3)F)O)CBr

> <RUN>
RUN2052

> <DDG (kcal/mol)>
-0.72

> <dDDG (kcal/mol)>
0.12

$$$$
EN300-1274654
  -OEChem-08252008263D

 59 62  0     1  0  0  0  0  0999 V2000
    8.2180    1.8000   25.3770 C   0  0  0  0  0  0  0  0  0  0  0  0
    7.6570    1.4040   26.6330 C   0  0  0  0  0  0  0  0  0  0  0  0
    9.4840    1.3640   25.0580 C   0  0  0  0  0  0  0  0  0  0  0  0
    6.8150    2.5570   19.4580 C   0  0  0  0  0  0  0  0  0  0  0  0
   10.2950   -1.4350   23.6350 C   0  0  0  0  0  0  0  0  0  0  0  0
   11.7440   -1.9030   21.7810 C   0  0  0  0  0  0  0  0  0  0  0  0
    9.6100    0.2180   27.1700 C   0  0  0  0  0  0  0  0  0  0  0  0
   12.6390   -0.9570   23.7430 C   0  0  0  0  0  0  0  0  0  0  0  0
    6.6320    2.2030   18.1260 C   0  0  0  0  0  0  0  0  0  0  0  0
    7.7240    0.1960   18.4160 C   0  0  0  0  0  0  0  0  0  0  0  0
    7.5560    1.6960   20.3090 C   0  0  0  0  0  0  0  0  0  0  0  0
   10.5130   -1.9560   22.3730 C   0  0  0  0  0  0  0  0  0  0  0  0
    8.4480    0.7280   27.6090 C   0  0  0  0  0  0  0  0  0  0  0  0
    8.1060    0.5220   19.6820 C   0  0  0  0  0  0  0  0  0  0  0  0
   10.1530    0.4720   25.8560 C   0  0  0  0  0  0  0  0  0  0  0  0
   11.4210   -0.8410   24.3440 C   0  0  0  0  0  0  0  0  0  0  0  0
   12.8450   -1.4580   22.5140 C   0  0  0  0  0  0  0  0  0  0  0  0
    7.2050    1.2440   29.7740 C   0  0  3  0  0  0  0  0  0  0  0  0
    8.5940   -1.6900   20.6700 C   0  0  0  0  0  0  0  0  0  0  0  0
    5.7220    3.0280   30.4020 C   0  0  2  0  0  0  0  0  0  0  0  0
    5.6930    2.0380   31.6670 C   0  0  2  0  0  0  0  0  0  0  0  0
    7.7390    2.0460   21.7410 C   0  0  0  0  0  0  0  0  0  0  0  0
    4.3080    3.3690   29.9440 C   0  0  0  0  0  0  0  0  0  0  0  0
    9.3660   -2.6170   21.6600 C   0  0  0  0  0  0  0  0  0  0  0  0
    5.9870    2.8460   32.9130 C   0  0  0  0  0  0  0  0  0  0  0  0
    7.0390    1.0710   17.5730 N   0  0  0  0  0  0  0  0  0  0  0  0
    6.5070    2.2590   29.4170 N   0  0  0  0  0  0  0  0  0  0  0  0
    7.9870    0.4690   28.8790 N   0  0  0  0  0  0  0  0  0  0  0  0
    8.9000   -0.3510   20.4700 N   0  0  0  0  0  0  0  0  0  0  0  0
    7.5580   -2.1150   20.1690 O   0  0  0  0  0  0  0  0  0  0  0  0
   11.3670   -0.1700   25.5700 O   0  0  0  0  0  0  0  0  0  0  0  0
    7.0770    0.8130   31.4590 S   0  0  0  0  0  0  0  0  0  0  0  0
   14.3890   -1.4500   21.8020 Cl  0  0  0  0  0  0  0  0  0  0  0  0
    5.5850    1.7660   34.4990 Br  0  0  0  0  0  0  0  0  0  0  0  0
    7.6110    2.2980   24.6280 H   0  0  0  0  0  0  0  0  0  0  0  0
    6.6430    1.7020   26.9030 H   0  0  0  0  0  0  0  0  0  0  0  0
   10.0020    1.6170   24.1370 H   0  0  0  0  0  0  0  0  0  0  0  0
    6.4510    3.5120   19.8250 H   0  0  0  0  0  0  0  0  0  0  0  0
    9.3720   -1.5920   24.1930 H   0  0  0  0  0  0  0  0  0  0  0  0
   11.8510   -2.3300   20.7900 H   0  0  0  0  0  0  0  0  0  0  0  0
   10.1520   -0.4780   27.8030 H   0  0  0  0  0  0  0  0  0  0  0  0
   13.4770   -0.5250   24.2790 H   0  0  0  0  0  0  0  0  0  0  0  0
    6.1360    3.0090   17.5990 H   0  0  0  0  0  0  0  0  0  0  0  0
    8.0310   -0.7730   18.0420 H   0  0  0  0  0  0  0  0  0  0  0  0
    6.1380    3.9930   30.7200 H   0  0  0  0  0  0  0  0  0  0  0  0
    4.7160    1.5620   31.7730 H   0  0  0  0  0  0  0  0  0  0  0  0
    6.8310    2.3450   22.2730 H   0  0  0  0  0  0  0  0  0  0  0  0
    8.1980    1.1640   22.1970 H   0  0  0  0  0  0  0  0  0  0  0  0
    8.4590    2.8780   21.7260 H   0  0  0  0  0  0  0  0  0  0  0  0
    3.7630    3.9450   30.6980 H   0  0  0  0  0  0  0  0  0  0  0  0
    3.6890    2.5040   29.6930 H   0  0  0  0  0  0  0  0  0  0  0  0
    4.3880    3.9920   29.0450 H   0  0  0  0  0  0  0  0  0  0  0  0
    9.8510   -3.4490   21.1480 H   0  0  0  0  0  0  0  0  0  0  0  0
    8.6450   -3.0450   22.3650 H   0  0  0  0  0  0  0  0  0  0  0  0
    5.3030    3.6980   33.0130 H   0  0  0  0  0  0  0  0  0  0  0  0
    7.0030    3.2230   33.0470 H   0  0  0  0  0  0  0  0  0  0  0  0
    6.6440    2.6560   28.4870 H   0  0  0  0  0  0  0  0  0  0  0  0
    8.3980   -0.3520   29.3340 H   0  0  0  0  0  0  0  0  0  0  0  0
    9.6140    0.0040   21.0920 H   0  0  0  0  0  0  0  0  0  0  0  0
  9 26  2  0  0  0  0
 10 26  1  0  0  0  0
  9 43  1  0  0  0  0
 10 44  1  0  0  0  0
  4  9  1  0  0  0  0
 10 14  2  0  0  0  0
  4 38  1  0  0  0  0
  4 11  2  0  0  0  0
 11 14  1  0  0  0  0
 14 29  1  0  0  0  0
 19 30  2  0  0  0  0
 11 22  1  0  0  0  0
 19 29  1  0  0  0  0
 29 59  1  0  0  0  0
 19 24  1  0  0  0  0
  6 40  1  0  0  0  0
 24 53  1  0  0  0  0
 24 54  1  0  0  0  0
 12 24  1  0  0  0  0
 22 49  1  0  0  0  0
 22 48  1  0  0  0  0
 22 47  1  0  0  0  0
  6 12  2  0  0  0  0
  6 17  1  0  0  0  0
 17 33  1  0  0  0  0
  5 12  1  0  0  0  0
  8 17  2  0  0  0  0
  5 39  1  0  0  0  0
  5 16  2  0  0  0  0
  8 42  1  0  0  0  0
  8 16  1  0  0  0  0
  3 37  1  0  0  0  0
 16 31  1  0  0  0  0
  1 35  1  0  0  0  0
  1  3  2  0  0  0  0
  3 15  1  0  0  0  0
  1  2  1  0  0  0  0
 15 31  1  0  0  0  0
  7 15  2  0  0  0  0
  2 36  1  0  0  0  0
  2 13  2  0  0  0  0
  7 13  1  0  0  0  0
  7 41  1  0  0  0  0
 13 28  1  0  0  0  0
 27 57  1  0  0  0  0
 28 58  1  0  0  0  0
 18 28  1  0  0  0  0
 23 52  1  0  0  0  0
 18 27  1  0  0  0  0
 20 27  1  0  0  0  0
 23 51  1  0  0  0  0
 18 32  1  0  0  0  0
 20 23  1  0  0  0  0
 23 50  1  0  0  0  0
 20 45  1  0  0  0  0
 20 21  1  0  0  0  0
 21 32  1  0  0  0  0
 21 46  1  0  0  0  0
 21 25  1  0  0  0  0
 25 55  1  0  0  0  0
 25 56  1  0  0  0  0
 25 34  1  0  0  0  0
M  END
> <CID>
EN300-1274654

> <SMILES>
Cc1ccncc1NC(=O)Cc2cc(cc(c2)Cl)Oc3cccc(c3)NC4=[NH+][C@H]([C@@H](S4)CBr)C

> <RUN>
RUN1453

> <DDG (kcal/mol)>
-0.72

> <dDDG (kcal/mol)>
0.17

$$$$
EN300-674719
  -OEChem-08252008263D

 51 53  0     0  0  0  0  0  0999 V2000
   11.2250    3.7300   26.6910 C   0  0  0  0  0  0  0  0  0  0  0  0
   11.9800    3.2410   25.6410 C   0  0  0  0  0  0  0  0  0  0  0  0
    4.7850    1.3630   19.4140 C   0  0  0  0  0  0  0  0  0  0  0  0
   11.3630    0.3400   23.3800 C   0  0  0  0  0  0  0  0  0  0  0  0
   12.0060   -1.6100   21.9880 C   0  0  0  0  0  0  0  0  0  0  0  0
   11.7800    1.0150   26.5760 C   0  0  0  0  0  0  0  0  0  0  0  0
   13.7500   -0.2100   23.0570 C   0  0  0  0  0  0  0  0  0  0  0  0
    5.2750    1.0900   18.1410 C   0  0  0  0  0  0  0  0  0  0  0  0
    7.1380    0.2190   19.0310 C   0  0  0  0  0  0  0  0  0  0  0  0
   10.5710    2.8730   27.6160 C   0  0  0  0  0  0  0  0  0  0  0  0
    5.4360    0.9550   20.5310 C   0  0  0  0  0  0  0  0  0  0  0  0
   10.9800   -0.8020   22.5650 C   0  0  0  0  0  0  0  0  0  0  0  0
    6.6570    0.3630   20.3740 C   0  0  0  0  0  0  0  0  0  0  0  0
   12.2750    1.8800   25.6390 C   0  0  0  0  0  0  0  0  0  0  0  0
   12.7320    0.5760   23.7850 C   0  0  0  0  0  0  0  0  0  0  0  0
   13.4150   -1.2660   22.1720 C   0  0  0  0  0  0  0  0  0  0  0  0
   10.8940    1.4630   27.5780 C   0  0  0  0  0  0  0  0  0  0  0  0
    8.8010   -0.1270   21.5300 C   0  0  0  0  0  0  0  0  0  0  0  0
    4.6830    1.0910   21.8220 C   0  0  0  0  0  0  0  0  0  0  0  0
    9.5120   -1.1770   22.3670 C   0  0  0  0  0  0  0  0  0  0  0  0
    9.7220    3.4620   28.7000 C   0  0  0  0  0  0  0  0  0  0  0  0
   10.5280    4.2050   29.7530 C   0  0  0  0  0  0  0  0  0  0  0  0
    9.6380    5.1820   30.4870 C   0  0  0  0  0  0  0  0  0  0  0  0
    6.4330    0.5060   17.9590 N   0  0  0  0  0  0  0  0  0  0  0  0
    7.4280   -0.1350   21.5120 N   0  0  0  0  0  0  0  0  0  0  0  0
    9.3970    0.5930   20.7370 O   0  0  0  0  0  0  0  0  0  0  0  0
   13.1670    1.4950   24.7190 O   0  0  0  0  0  0  0  0  0  0  0  0
   14.6540   -2.1910   21.2970 Cl  0  0  0  0  0  0  0  0  0  0  0  0
   10.5400    0.2180   28.8190 Cl  0  0  0  0  0  0  0  0  0  0  0  0
    8.3060    4.2170   31.6760 Br  0  0  0  0  0  0  0  0  0  0  0  0
   10.9980    4.7910   26.7470 H   0  0  0  0  0  0  0  0  0  0  0  0
   12.4560    3.9330   24.9440 H   0  0  0  0  0  0  0  0  0  0  0  0
    3.8860    1.9690   19.4960 H   0  0  0  0  0  0  0  0  0  0  0  0
   10.6390    0.9860   23.8620 H   0  0  0  0  0  0  0  0  0  0  0  0
   11.6900   -2.4970   21.4460 H   0  0  0  0  0  0  0  0  0  0  0  0
   12.1300   -0.0050   26.4410 H   0  0  0  0  0  0  0  0  0  0  0  0
   14.8050    0.0220   23.1630 H   0  0  0  0  0  0  0  0  0  0  0  0
    4.7010    1.3910   17.2800 H   0  0  0  0  0  0  0  0  0  0  0  0
    8.1180   -0.2120   18.9070 H   0  0  0  0  0  0  0  0  0  0  0  0
    5.2770    1.5530   22.6220 H   0  0  0  0  0  0  0  0  0  0  0  0
    3.7420    1.6310   21.7330 H   0  0  0  0  0  0  0  0  0  0  0  0
    4.4130    0.1100   22.2030 H   0  0  0  0  0  0  0  0  0  0  0  0
    9.4290   -2.2170   22.0580 H   0  0  0  0  0  0  0  0  0  0  0  0
    9.0450   -1.2530   23.3520 H   0  0  0  0  0  0  0  0  0  0  0  0
    9.1030    4.2240   28.2420 H   0  0  0  0  0  0  0  0  0  0  0  0
    8.9640    2.7370   29.0250 H   0  0  0  0  0  0  0  0  0  0  0  0
   11.0330    3.4770   30.3880 H   0  0  0  0  0  0  0  0  0  0  0  0
   11.2690    4.8040   29.2110 H   0  0  0  0  0  0  0  0  0  0  0  0
    9.1750    5.8210   29.7330 H   0  0  0  0  0  0  0  0  0  0  0  0
   10.3070    5.8140   31.0690 H   0  0  0  0  0  0  0  0  0  0  0  0
    6.9340   -0.5420   22.3120 H   0  0  0  0  0  0  0  0  0  0  0  0
  8 38  1  0  0  0  0
  8 24  2  0  0  0  0
  9 24  1  0  0  0  0
  3  8  1  0  0  0  0
  9 39  1  0  0  0  0
  9 13  2  0  0  0  0
  3 33  1  0  0  0  0
  3 11  2  0  0  0  0
 11 13  1  0  0  0  0
 13 25  1  0  0  0  0
 11 19  1  0  0  0  0
 18 26  2  0  0  0  0
 16 28  1  0  0  0  0
  5 35  1  0  0  0  0
 18 25  1  0  0  0  0
 25 51  1  0  0  0  0
 18 20  1  0  0  0  0
 19 41  1  0  0  0  0
 19 42  1  0  0  0  0
 19 40  1  0  0  0  0
  5 16  2  0  0  0  0
  5 12  1  0  0  0  0
 20 43  1  0  0  0  0
  7 16  1  0  0  0  0
 12 20  1  0  0  0  0
 20 44  1  0  0  0  0
  4 12  2  0  0  0  0
  7 37  1  0  0  0  0
  7 15  2  0  0  0  0
  4 15  1  0  0  0  0
  4 34  1  0  0  0  0
 15 27  1  0  0  0  0
 14 27  1  0  0  0  0
  2 32  1  0  0  0  0
  2 14  2  0  0  0  0
  6 14  1  0  0  0  0
  1  2  1  0  0  0  0
  6 36  1  0  0  0  0
  6 17  2  0  0  0  0
  1 31  1  0  0  0  0
  1 10  2  0  0  0  0
 10 17  1  0  0  0  0
 17 29  1  0  0  0  0
 10 21  1  0  0  0  0
 21 45  1  0  0  0  0
 21 46  1  0  0  0  0
 21 22  1  0  0  0  0
 22 48  1  0  0  0  0
 23 49  1  0  0  0  0
 22 47  1  0  0  0  0
 22 23  1  0  0  0  0
 23 50  1  0  0  0  0
 23 30  1  0  0  0  0
M  END
> <CID>
EN300-674719

> <SMILES>
Cc1ccncc1NC(=O)Cc2cc(cc(c2)Cl)Oc3ccc(c(c3)Cl)CCCBr

> <RUN>
RUN1823

> <DDG (kcal/mol)>
-0.71

> <dDDG (kcal/mol)>
0.13

$$$$
EN300-1132718
  -OEChem-08252008263D

 62 65  0     1  0  0  0  0  0999 V2000
    1.7200   -0.0570   26.5810 C   0  0  0  0  0  0  0  0  0  0  0  0
    2.9540   -0.7750   26.4270 C   0  0  0  0  0  0  0  0  0  0  0  0
    1.6880    1.3830   26.4590 C   0  0  0  0  0  0  0  0  0  0  0  0
    4.0580    0.0540   25.9660 C   0  0  0  0  0  0  0  0  0  0  0  0
    2.7560    2.0640   25.9160 C   0  0  0  0  0  0  0  0  0  0  0  0
    8.8450    3.3370   24.0640 C   0  0  0  0  0  0  0  0  0  0  0  0
    8.6840    1.4270   25.5330 C   0  0  0  0  0  0  0  0  0  0  0  0
   10.0060    2.7790   23.5450 C   0  0  0  0  0  0  0  0  0  0  0  0
    9.8670    0.8790   25.0670 C   0  0  0  0  0  0  0  0  0  0  0  0
    5.8380    1.8330   19.3670 C   0  0  0  0  0  0  0  0  0  0  0  0
   10.6280   -0.8170   22.5070 C   0  0  0  0  0  0  0  0  0  0  0  0
   11.8730   -2.2520   21.0280 C   0  0  0  0  0  0  0  0  0  0  0  0
   12.9700   -0.4330   22.2250 C   0  0  0  0  0  0  0  0  0  0  0  0
    5.6830    1.3680   18.0540 C   0  0  0  0  0  0  0  0  0  0  0  0
    7.0570   -0.4240   18.5350 C   0  0  0  0  0  0  0  0  0  0  0  0
    3.9310    1.3670   25.6280 C   0  0  0  0  0  0  0  0  0  0  0  0
    8.1890    2.6210   25.1180 C   0  0  0  0  0  0  0  0  0  0  0  0
    6.6440    1.1980   20.2990 C   0  0  0  0  0  0  0  0  0  0  0  0
   10.6520   -1.9270   21.6080 C   0  0  0  0  0  0  0  0  0  0  0  0
    7.3220   -0.0190   19.8660 C   0  0  0  0  0  0  0  0  0  0  0  0
   10.4900    1.5520   24.0150 C   0  0  0  0  0  0  0  0  0  0  0  0
   11.7310   -0.0460   22.7840 C   0  0  0  0  0  0  0  0  0  0  0  0
   13.0460   -1.5560   21.3390 C   0  0  0  0  0  0  0  0  0  0  0  0
    8.4390   -2.1470   20.5730 C   0  0  0  0  0  0  0  0  0  0  0  0
    6.9280    1.8780   21.6010 C   0  0  0  0  0  0  0  0  0  0  0  0
    9.4850   -2.8490   21.4810 C   0  0  0  0  0  0  0  0  0  0  0  0
    5.0860    2.0230   24.9940 C   0  0  0  0  0  0  0  0  0  0  0  0
    7.3970    3.8160   27.0480 C   0  0  0  0  0  0  0  0  0  0  0  0
    7.0320    3.1650   25.7080 C   0  0  2  0  0  0  0  0  0  0  0  0
    6.2340    0.2080   17.6580 N   0  0  0  0  0  0  0  0  0  0  0  0
    8.2320   -0.7200   20.6360 N   0  0  0  0  0  0  0  0  0  0  0  0
    7.6750   -2.8800   19.9100 O   0  0  0  0  0  0  0  0  0  0  0  0
   11.6850    1.1210   23.5400 O   0  0  0  0  0  0  0  0  0  0  0  0
    6.0830    2.1500   25.9950 O   0  0  0  0  0  0  0  0  0  0  0  0
   14.6170   -2.0360   20.7790 Cl  0  0  0  0  0  0  0  0  0  0  0  0
    5.7470    5.0910   27.7380 I   0  0  0  0  0  0  0  0  0  0  0  0
    0.7800   -0.5100   26.8640 H   0  0  0  0  0  0  0  0  0  0  0  0
    3.0910   -1.8260   26.6630 H   0  0  0  0  0  0  0  0  0  0  0  0
    0.7340    1.8540   26.6710 H   0  0  0  0  0  0  0  0  0  0  0  0
    5.0050   -0.4470   25.7660 H   0  0  0  0  0  0  0  0  0  0  0  0
    2.7010    3.1220   25.6680 H   0  0  0  0  0  0  0  0  0  0  0  0
    8.5320    4.2890   23.6600 H   0  0  0  0  0  0  0  0  0  0  0  0
    8.2140    0.7650   26.2550 H   0  0  0  0  0  0  0  0  0  0  0  0
   10.4190    3.2760   22.6810 H   0  0  0  0  0  0  0  0  0  0  0  0
   10.1580   -0.0510   25.5400 H   0  0  0  0  0  0  0  0  0  0  0  0
    5.3120    2.7570   19.6280 H   0  0  0  0  0  0  0  0  0  0  0  0
    9.6540   -0.7280   22.9860 H   0  0  0  0  0  0  0  0  0  0  0  0
   11.8640   -3.0190   20.2600 H   0  0  0  0  0  0  0  0  0  0  0  0
   13.7920    0.2640   22.3940 H   0  0  0  0  0  0  0  0  0  0  0  0
    4.9930    1.8890   17.4020 H   0  0  0  0  0  0  0  0  0  0  0  0
    7.7670   -1.1850   18.2170 H   0  0  0  0  0  0  0  0  0  0  0  0
    7.4470    2.8250   21.4100 H   0  0  0  0  0  0  0  0  0  0  0  0
    5.9730    2.1940   22.0280 H   0  0  0  0  0  0  0  0  0  0  0  0
    7.5270    1.2280   22.2510 H   0  0  0  0  0  0  0  0  0  0  0  0
    9.7250   -3.8170   21.0270 H   0  0  0  0  0  0  0  0  0  0  0  0
    9.0460   -3.0950   22.4520 H   0  0  0  0  0  0  0  0  0  0  0  0
    5.5120    1.4310   24.1870 H   0  0  0  0  0  0  0  0  0  0  0  0
    4.7260    3.0340   24.8010 H   0  0  0  0  0  0  0  0  0  0  0  0
    8.2580    4.4890   26.9430 H   0  0  0  0  0  0  0  0  0  0  0  0
    7.6700    3.0780   27.8120 H   0  0  0  0  0  0  0  0  0  0  0  0
    6.6340    3.9500   25.0590 H   0  0  0  0  0  0  0  0  0  0  0  0
    8.5300   -0.2860   21.5020 H   0  0  0  0  0  0  0  0  0  0  0  0
 14 50  1  0  0  0  0
 14 30  2  0  0  0  0
 15 30  1  0  0  0  0
 10 14  1  0  0  0  0
 15 51  1  0  0  0  0
 15 20  2  0  0  0  0
 10 46  1  0  0  0  0
 10 18  2  0  0  0  0
 18 20  1  0  0  0  0
 20 31  1  0  0  0  0
 24 32  2  0  0  0  0
 12 48  1  0  0  0  0
 18 25  1  0  0  0  0
 24 31  1  0  0  0  0
 24 26  1  0  0  0  0
 31 62  1  0  0  0  0
 23 35  1  0  0  0  0
 26 55  1  0  0  0  0
 12 23  2  0  0  0  0
 12 19  1  0  0  0  0
 13 23  1  0  0  0  0
 25 52  1  0  0  0  0
 19 26  1  0  0  0  0
 26 56  1  0  0  0  0
 25 53  1  0  0  0  0
 25 54  1  0  0  0  0
 11 19  2  0  0  0  0
 13 49  1  0  0  0  0
 13 22  2  0  0  0  0
 11 22  1  0  0  0  0
 11 47  1  0  0  0  0
  8 44  1  0  0  0  0
 22 33  1  0  0  0  0
 21 33  1  0  0  0  0
  8 21  2  0  0  0  0
  6  8  1  0  0  0  0
  6 42  1  0  0  0  0
  9 21  1  0  0  0  0
  6 17  2  0  0  0  0
 27 57  1  0  0  0  0
 27 58  1  0  0  0  0
 16 27  1  0  0  0  0
 27 34  1  0  0  0  0
 29 61  1  0  0  0  0
  7  9  2  0  0  0  0
  9 45  1  0  0  0  0
  7 17  1  0  0  0  0
 17 29  1  0  0  0  0
  7 43  1  0  0  0  0
  5 16  2  0  0  0  0
  4 16  1  0  0  0  0
  5 41  1  0  0  0  0
 29 34  1  0  0  0  0
 28 29  1  0  0  0  0
  4 40  1  0  0  0  0
  3  5  1  0  0  0  0
  2  4  2  0  0  0  0
  1  2  1  0  0  0  0
  2 38  1  0  0  0  0
  1  3  2  0  0  0  0
  3 39  1  0  0  0  0
  1 37  1  0  0  0  0
 28 59  1  0  0  0  0
 28 36  1  0  0  0  0
 28 60  1  0  0  0  0
M  END
> <CID>
EN300-1132718

> <SMILES>
Cc1ccncc1NC(=O)Cc2cc(cc(c2)Cl)Oc3ccc(cc3)[C@H](CI)OCc4ccccc4

> <RUN>
RUN3652

> <DDG (kcal/mol)>
-0.71

> <dDDG (kcal/mol)>
0.19

$$$$
EN300-1916362
  -OEChem-08252008263D

 48 50  0     1  0  0  0  0  0999 V2000
    4.8930    2.2160   19.9360 C   0  0  0  0  0  0  0  0  0  0  0  0
    9.5100   -0.3740   23.2870 C   0  0  0  0  0  0  0  0  0  0  0  0
   11.0890   -1.7270   21.9130 C   0  0  0  0  0  0  0  0  0  0  0  0
   11.8400    0.2130   23.0750 C   0  0  0  0  0  0  0  0  0  0  0  0
    4.7350    1.9340   18.5840 C   0  0  0  0  0  0  0  0  0  0  0  0
    6.1530    0.0830   18.8300 C   0  0  0  0  0  0  0  0  0  0  0  0
   12.2260    4.4340   27.8630 C   0  0  0  0  0  0  0  0  0  0  0  0
    5.8940    1.5460   20.6930 C   0  0  0  0  0  0  0  0  0  0  0  0
    9.7270   -1.4260   22.3100 C   0  0  0  0  0  0  0  0  0  0  0  0
   12.1520    4.1130   26.5710 C   0  0  0  0  0  0  0  0  0  0  0  0
    6.5140    0.4560   20.1440 C   0  0  0  0  0  0  0  0  0  0  0  0
   10.5660    0.4430   23.6490 C   0  0  0  0  0  0  0  0  0  0  0  0
   12.1670   -0.8820   22.2460 C   0  0  0  0  0  0  0  0  0  0  0  0
   13.3950    4.6470   26.0170 C   0  0  0  0  0  0  0  0  0  0  0  0
    7.5560   -1.6600   20.8190 C   0  0  0  0  0  0  0  0  0  0  0  0
    6.0260    1.9230   22.1570 C   0  0  0  0  0  0  0  0  0  0  0  0
    8.5570   -2.3160   21.8190 C   0  0  0  0  0  0  0  0  0  0  0  0
   11.3590    2.3540   24.8750 C   0  0  0  0  0  0  0  0  0  0  0  0
   10.9750    3.4700   25.8720 C   0  0  2  0  0  0  0  0  0  0  0  0
    5.4160    0.8480   18.0300 N   0  0  0  0  0  0  0  0  0  0  0  0
   14.0990    5.2190   26.9590 N   0  0  0  0  0  0  0  0  0  0  0  0
   13.4200    5.1170   28.1220 N   0  0  0  0  0  0  0  0  0  0  0  0
    7.4010   -0.3020   20.9020 N   0  0  0  0  0  0  0  0  0  0  0  0
   13.8380    4.6970   24.6470 N   0  0  0  0  0  0  0  0  0  0  0  0
    6.7630   -2.3910   20.2120 O   0  0  0  0  0  0  0  0  0  0  0  0
   14.9690    4.6990   24.4970 O   0  0  0  0  0  0  0  0  0  0  0  0
   12.9850    4.6930   23.7670 O   0  0  0  0  0  0  0  0  0  0  0  0
   10.2270    4.4740   25.1340 O   0  0  0  0  0  0  0  0  0  0  0  0
   10.2860    1.4810   24.5300 O   0  0  0  0  0  0  0  0  0  0  0  0
   13.7730   -1.1360   21.6330 Cl  0  0  0  0  0  0  0  0  0  0  0  0
    4.3350    3.1020   20.2110 H   0  0  0  0  0  0  0  0  0  0  0  0
    8.5400   -0.1120   23.7200 H   0  0  0  0  0  0  0  0  0  0  0  0
   11.2700   -2.4810   21.1570 H   0  0  0  0  0  0  0  0  0  0  0  0
   12.6640    0.8610   23.3700 H   0  0  0  0  0  0  0  0  0  0  0  0
    4.2040    2.6540   17.9650 H   0  0  0  0  0  0  0  0  0  0  0  0
    6.8010   -0.6870   18.4280 H   0  0  0  0  0  0  0  0  0  0  0  0
   11.4490    4.2930   28.6070 H   0  0  0  0  0  0  0  0  0  0  0  0
    5.8330    1.1780   22.9410 H   0  0  0  0  0  0  0  0  0  0  0  0
    7.0850    2.1430   22.3240 H   0  0  0  0  0  0  0  0  0  0  0  0
    5.3430    2.7290   22.4440 H   0  0  0  0  0  0  0  0  0  0  0  0
    9.0250   -3.2060   21.3900 H   0  0  0  0  0  0  0  0  0  0  0  0
    8.0530   -2.7190   22.6990 H   0  0  0  0  0  0  0  0  0  0  0  0
   11.6740    2.9020   23.9830 H   0  0  0  0  0  0  0  0  0  0  0  0
   12.2300    1.7820   25.2090 H   0  0  0  0  0  0  0  0  0  0  0  0
   10.3250    3.1040   26.6760 H   0  0  0  0  0  0  0  0  0  0  0  0
   13.6990    5.5590   29.0050 H   0  0  0  0  0  0  0  0  0  0  0  0
    7.9830    0.1220   21.6190 H   0  0  0  0  0  0  0  0  0  0  0  0
    9.7170    5.1280   25.6560 H   0  0  0  0  0  0  0  0  0  0  0  0
  5 35  1  0  0  0  0
  5 20  2  0  0  0  0
  6 20  1  0  0  0  0
  6 36  1  0  0  0  0
  1  5  1  0  0  0  0
  6 11  2  0  0  0  0
  1 31  1  0  0  0  0
  1  8  2  0  0  0  0
  8 11  1  0  0  0  0
 11 23  1  0  0  0  0
 15 25  2  0  0  0  0
  8 16  1  0  0  0  0
 15 23  1  0  0  0  0
 15 17  1  0  0  0  0
 23 47  1  0  0  0  0
  3 33  1  0  0  0  0
 17 41  1  0  0  0  0
 13 30  1  0  0  0  0
  9 17  1  0  0  0  0
 17 42  1  0  0  0  0
  3 13  2  0  0  0  0
  3  9  1  0  0  0  0
 16 39  1  0  0  0  0
 16 40  1  0  0  0  0
 16 38  1  0  0  0  0
  4 13  1  0  0  0  0
  2  9  2  0  0  0  0
  4 34  1  0  0  0  0
  4 12  2  0  0  0  0
  2 12  1  0  0  0  0
  2 32  1  0  0  0  0
 12 29  1  0  0  0  0
 24 27  2  0  0  0  0
 18 43  1  0  0  0  0
 24 26  2  0  0  0  0
 18 29  1  0  0  0  0
 14 24  1  0  0  0  0
 18 44  1  0  0  0  0
 18 19  1  0  0  0  0
 28 48  1  0  0  0  0
 19 28  1  0  0  0  0
 10 19  1  0  0  0  0
 19 45  1  0  0  0  0
 10 14  1  0  0  0  0
 14 21  2  0  0  0  0
  7 10  2  0  0  0  0
 21 22  1  0  0  0  0
  7 22  1  0  0  0  0
  7 37  1  0  0  0  0
 22 46  1  0  0  0  0
M  END
> <CID>
EN300-1916362

> <SMILES>
Cc1ccncc1NC(=O)Cc2cc(cc(c2)Cl)OC[C@@H](c3c[nH]nc3N(=O)=O)O

> <RUN>
RUN4562

> <DDG (kcal/mol)>
-0.71

> <dDDG (kcal/mol)>
0.54

$$$$
EN300-127722
  -OEChem-08252008263D

 46 48  0     0  0  0  0  0  0999 V2000
    4.5030    0.5210   19.6430 C   0  0  0  0  0  0  0  0  0  0  0  0
   11.6540    1.9580   22.8280 C   0  0  0  0  0  0  0  0  0  0  0  0
   11.9550   -0.4080   23.1530 C   0  0  0  0  0  0  0  0  0  0  0  0
   13.8440    1.0450   22.9310 C   0  0  0  0  0  0  0  0  0  0  0  0
    4.9860    0.9030   18.4360 C   0  0  0  0  0  0  0  0  0  0  0  0
    7.1870    0.9130   19.1480 C   0  0  0  0  0  0  0  0  0  0  0  0
    5.4670    0.1540   20.5870 C   0  0  0  0  0  0  0  0  0  0  0  0
   11.0920    0.7030   23.0710 C   0  0  0  0  0  0  0  0  0  0  0  0
    6.8410    0.4490   20.4100 C   0  0  0  0  0  0  0  0  0  0  0  0
   13.0170    2.1350   22.7250 C   0  0  0  0  0  0  0  0  0  0  0  0
   13.3250   -0.2800   23.1090 C   0  0  0  0  0  0  0  0  0  0  0  0
   13.5580    6.8030   23.5460 C   0  0  0  0  0  0  0  0  0  0  0  0
   13.8160    5.8810   22.5720 C   0  0  0  0  0  0  0  0  0  0  0  0
    8.8370    1.0730   21.9530 C   0  0  0  0  0  0  0  0  0  0  0  0
   14.3540    7.9400   23.9950 C   0  0  0  0  0  0  0  0  0  0  0  0
   12.3210    6.7640   24.4670 C   0  0  0  0  0  0  0  0  0  0  0  0
   13.0970    8.0280   24.9530 C   0  0  0  0  0  0  0  0  0  0  0  0
    4.9870   -0.2640   21.9070 C   0  0  0  0  0  0  0  0  0  0  0  0
    9.6020    0.6600   23.2000 C   0  0  0  0  0  0  0  0  0  0  0  0
   12.9480    4.6740   22.4020 C   0  0  0  0  0  0  0  0  0  0  0  0
    6.3000    1.1330   18.1610 N   0  0  0  0  0  0  0  0  0  0  0  0
    7.7530    0.2300   21.5260 N   0  0  0  0  0  0  0  0  0  0  0  0
    9.2070    2.0500   21.2410 O   0  0  0  0  0  0  0  0  0  0  0  0
   13.6390    3.3950   22.6210 O   0  0  0  0  0  0  0  0  0  0  0  0
   14.4110   -1.6810   23.5400 Cl  0  0  0  0  0  0  0  0  0  0  0  0
    3.4370    0.3940   19.7580 H   0  0  0  0  0  0  0  0  0  0  0  0
   10.9680    2.7950   22.7680 H   0  0  0  0  0  0  0  0  0  0  0  0
   11.5130   -1.3570   23.4390 H   0  0  0  0  0  0  0  0  0  0  0  0
   14.9230    1.1260   23.0080 H   0  0  0  0  0  0  0  0  0  0  0  0
    4.2530    1.1140   17.6660 H   0  0  0  0  0  0  0  0  0  0  0  0
    8.2150    1.0180   18.7950 H   0  0  0  0  0  0  0  0  0  0  0  0
   14.6530    5.9150   21.8860 H   0  0  0  0  0  0  0  0  0  0  0  0
   14.3900    8.7620   23.2790 H   0  0  0  0  0  0  0  0  0  0  0  0
   15.2580    7.4310   24.3620 H   0  0  0  0  0  0  0  0  0  0  0  0
   12.2700    5.9770   25.2180 H   0  0  0  0  0  0  0  0  0  0  0  0
   11.3290    6.9720   24.0570 H   0  0  0  0  0  0  0  0  0  0  0  0
   13.3600    7.8780   25.9990 H   0  0  0  0  0  0  0  0  0  0  0  0
   12.5320    8.9690   24.9540 H   0  0  0  0  0  0  0  0  0  0  0  0
    4.9440    0.6580   22.5110 H   0  0  0  0  0  0  0  0  0  0  0  0
    3.9980   -0.7130   21.9040 H   0  0  0  0  0  0  0  0  0  0  0  0
    5.6440   -1.0440   22.3180 H   0  0  0  0  0  0  0  0  0  0  0  0
    9.4710   -0.3960   23.4210 H   0  0  0  0  0  0  0  0  0  0  0  0
    9.2520    1.2880   24.0310 H   0  0  0  0  0  0  0  0  0  0  0  0
   12.5120    4.6730   21.4020 H   0  0  0  0  0  0  0  0  0  0  0  0
   12.1180    4.7010   23.1180 H   0  0  0  0  0  0  0  0  0  0  0  0
    7.5610   -0.5580   22.1500 H   0  0  0  0  0  0  0  0  0  0  0  0
  5 30  1  0  0  0  0
  5 21  2  0  0  0  0
  6 21  1  0  0  0  0
  1  5  1  0  0  0  0
  6 31  1  0  0  0  0
  6  9  2  0  0  0  0
  1 26  1  0  0  0  0
  1  7  2  0  0  0  0
  7  9  1  0  0  0  0
  9 22  1  0  0  0  0
  7 18  1  0  0  0  0
 14 23  2  0  0  0  0
 20 44  1  0  0  0  0
 14 22  1  0  0  0  0
 22 46  1  0  0  0  0
 13 32  1  0  0  0  0
 18 40  1  0  0  0  0
 18 41  1  0  0  0  0
 18 39  1  0  0  0  0
 14 19  1  0  0  0  0
 13 20  1  0  0  0  0
 20 24  1  0  0  0  0
 20 45  1  0  0  0  0
 12 13  2  0  0  0  0
 10 24  1  0  0  0  0
  2 10  2  0  0  0  0
  4 10  1  0  0  0  0
  2 27  1  0  0  0  0
  2  8  1  0  0  0  0
  4 29  1  0  0  0  0
  4 11  2  0  0  0  0
  3  8  2  0  0  0  0
  8 19  1  0  0  0  0
  3 11  1  0  0  0  0
 11 25  1  0  0  0  0
  3 28  1  0  0  0  0
 19 42  1  0  0  0  0
 19 43  1  0  0  0  0
 15 33  1  0  0  0  0
 12 15  1  0  0  0  0
 12 16  1  0  0  0  0
 15 34  1  0  0  0  0
 15 17  1  0  0  0  0
 16 36  1  0  0  0  0
 16 17  1  0  0  0  0
 16 35  1  0  0  0  0
 17 38  1  0  0  0  0
 17 37  1  0  0  0  0
M  END
> <CID>
EN300-127722

> <SMILES>
Cc1ccncc1NC(=O)Cc2cc(cc(c2)Cl)OCC=C3CCC3

> <RUN>
RUN4513

> <DDG (kcal/mol)>
-0.70

> <dDDG (kcal/mol)>
0.14

$$$$
EN300-1927181
  -OEChem-08252008263D

 44 46  0     0  0  0  0  0  0999 V2000
    5.2890    0.8340   20.1190 C   0  0  0  0  0  0  0  0  0  0  0  0
   12.3270    1.6620   23.3940 C   0  0  0  0  0  0  0  0  0  0  0  0
   12.7360   -0.7230   23.6110 C   0  0  0  0  0  0  0  0  0  0  0  0
   14.5900    0.7650   23.2310 C   0  0  0  0  0  0  0  0  0  0  0  0
    5.7910    0.3830   18.8350 C   0  0  0  0  0  0  0  0  0  0  0  0
    7.6910   -0.2530   19.9220 C   0  0  0  0  0  0  0  0  0  0  0  0
   12.7070    6.2680   25.8480 C   0  0  0  0  0  0  0  0  0  0  0  0
    6.0690    0.7390   21.2240 C   0  0  0  0  0  0  0  0  0  0  0  0
   11.8170    0.3880   23.5650 C   0  0  0  0  0  0  0  0  0  0  0  0
    7.3320    0.1760   21.1790 C   0  0  0  0  0  0  0  0  0  0  0  0
   13.5890    5.9640   24.8650 C   0  0  0  0  0  0  0  0  0  0  0  0
   13.7010    1.8830   23.1660 C   0  0  0  0  0  0  0  0  0  0  0  0
   14.0950   -0.4840   23.4930 C   0  0  0  0  0  0  0  0  0  0  0  0
   13.0800    4.9300   24.0790 C   0  0  0  0  0  0  0  0  0  0  0  0
    9.5570    0.4280   22.3920 C   0  0  0  0  0  0  0  0  0  0  0  0
    5.5050    1.2070   22.5370 C   0  0  0  0  0  0  0  0  0  0  0  0
   10.2970    0.2500   23.6740 C   0  0  0  0  0  0  0  0  0  0  0  0
   13.4940    4.2980   22.7680 C   0  0  0  0  0  0  0  0  0  0  0  0
    6.9660   -0.1940   18.7620 N   0  0  0  0  0  0  0  0  0  0  0  0
   11.9240    4.5670   24.5700 N   0  0  0  0  0  0  0  0  0  0  0  0
   11.6950    5.3470   25.6520 N   0  0  0  0  0  0  0  0  0  0  0  0
    8.1640    0.1870   22.3540 N   0  0  0  0  0  0  0  0  0  0  0  0
   14.8230    6.5510   24.7380 N   0  0  0  0  0  0  0  0  0  0  0  0
   10.1250    0.7250   21.3390 O   0  0  0  0  0  0  0  0  0  0  0  0
   15.0280    7.5410   25.4580 O   0  0  0  0  0  0  0  0  0  0  0  0
   15.6170    6.0530   23.9550 O   0  0  0  0  0  0  0  0  0  0  0  0
   14.3110    3.1370   23.0040 O   0  0  0  0  0  0  0  0  0  0  0  0
   15.1290   -1.8770   23.6990 Cl  0  0  0  0  0  0  0  0  0  0  0  0
    4.3400    1.3440   20.2640 H   0  0  0  0  0  0  0  0  0  0  0  0
   11.5510    2.4260   23.4510 H   0  0  0  0  0  0  0  0  0  0  0  0
   12.3580   -1.6670   23.9790 H   0  0  0  0  0  0  0  0  0  0  0  0
   15.6550    0.9570   23.1000 H   0  0  0  0  0  0  0  0  0  0  0  0
    5.1370    0.3300   17.9750 H   0  0  0  0  0  0  0  0  0  0  0  0
    8.6310   -0.7450   19.6820 H   0  0  0  0  0  0  0  0  0  0  0  0
   12.6530    7.0470   26.6080 H   0  0  0  0  0  0  0  0  0  0  0  0
    4.8580    0.4600   23.0090 H   0  0  0  0  0  0  0  0  0  0  0  0
    6.1890    1.6240   23.2740 H   0  0  0  0  0  0  0  0  0  0  0  0
    4.8480    2.0610   22.3480 H   0  0  0  0  0  0  0  0  0  0  0  0
   10.0220   -0.7040   24.1280 H   0  0  0  0  0  0  0  0  0  0  0  0
    9.8120    1.0150   24.2890 H   0  0  0  0  0  0  0  0  0  0  0  0
   12.6390    4.1440   22.1080 H   0  0  0  0  0  0  0  0  0  0  0  0
   14.1090    5.0680   22.3070 H   0  0  0  0  0  0  0  0  0  0  0  0
   10.8330    5.3960   26.2020 H   0  0  0  0  0  0  0  0  0  0  0  0
    7.6590    0.2060   23.2440 H   0  0  0  0  0  0  0  0  0  0  0  0
  5 33  1  0  0  0  0
  5 19  2  0  0  0  0
  6 19  1  0  0  0  0
  1  5  1  0  0  0  0
  6 34  1  0  0  0  0
  6 10  2  0  0  0  0
  1 29  1  0  0  0  0
  1  8  2  0  0  0  0
  8 10  1  0  0  0  0
 10 22  1  0  0  0  0
  8 16  1  0  0  0  0
 15 24  2  0  0  0  0
 18 41  1  0  0  0  0
 18 42  1  0  0  0  0
 16 38  1  0  0  0  0
 15 22  1  0  0  0  0
 22 44  1  0  0  0  0
 15 17  1  0  0  0  0
 16 36  1  0  0  0  0
 16 37  1  0  0  0  0
 18 27  1  0  0  0  0
 14 18  1  0  0  0  0
 12 27  1  0  0  0  0
  4 32  1  0  0  0  0
  4 12  2  0  0  0  0
  2 12  1  0  0  0  0
  4 13  1  0  0  0  0
  2 30  1  0  0  0  0
  2  9  2  0  0  0  0
  3 13  2  0  0  0  0
 13 28  1  0  0  0  0
  3  9  1  0  0  0  0
  9 17  1  0  0  0  0
  3 31  1  0  0  0  0
 17 39  1  0  0  0  0
 17 40  1  0  0  0  0
 23 26  2  0  0  0  0
 14 20  2  0  0  0  0
 11 14  1  0  0  0  0
 20 21  1  0  0  0  0
 11 23  1  0  0  0  0
 23 25  2  0  0  0  0
  7 11  2  0  0  0  0
  7 21  1  0  0  0  0
 21 43  1  0  0  0  0
  7 35  1  0  0  0  0
M  END
> <CID>
EN300-1927181

> <SMILES>
Cc1ccncc1NC(=O)Cc2cc(cc(c2)Cl)OCc3c(c[nH]n3)N(=O)=O

> <RUN>
RUN933

> <DDG (kcal/mol)>
-0.70

> <dDDG (kcal/mol)>
0.11

$$$$
EN300-6245905
  -OEChem-08252008263D

 55 57  0     0  0  0  0  0  0999 V2000
   11.0530    0.0420   28.2230 C   0  0  0  0  0  0  0  0  0  0  0  0
   11.4440    0.2610   26.9070 C   0  0  0  0  0  0  0  0  0  0  0  0
    5.9210    3.2740   18.5960 C   0  0  0  0  0  0  0  0  0  0  0  0
   10.1450    0.7480   23.9600 C   0  0  0  0  0  0  0  0  0  0  0  0
   10.8280   -0.4950   22.0620 C   0  0  0  0  0  0  0  0  0  0  0  0
   11.0000    2.6030   27.2830 C   0  0  0  0  0  0  0  0  0  0  0  0
   12.5120    0.5390   23.3440 C   0  0  0  0  0  0  0  0  0  0  0  0
    6.1170    2.5390   17.3980 C   0  0  0  0  0  0  0  0  0  0  0  0
    7.1570    0.8280   18.5960 C   0  0  0  0  0  0  0  0  0  0  0  0
   10.7210    1.0820   29.1000 C   0  0  0  0  0  0  0  0  0  0  0  0
    6.4370    2.8290   19.8450 C   0  0  0  0  0  0  0  0  0  0  0  0
    9.8140   -0.0710   22.9200 C   0  0  0  0  0  0  0  0  0  0  0  0
    7.0770    1.6040   19.7890 C   0  0  0  0  0  0  0  0  0  0  0  0
   11.4070    1.5460   26.4320 C   0  0  0  0  0  0  0  0  0  0  0  0
   11.4700    1.1030   24.1880 C   0  0  0  0  0  0  0  0  0  0  0  0
   10.6210    2.3740   28.6140 C   0  0  0  0  0  0  0  0  0  0  0  0
   12.1840   -0.2330   22.3210 C   0  0  0  0  0  0  0  0  0  0  0  0
    7.9000   -0.1430   21.4080 C   0  0  0  0  0  0  0  0  0  0  0  0
    6.2150    3.6450   21.1630 C   0  0  0  0  0  0  0  0  0  0  0  0
    8.5080    5.6420   31.2030 C   0  0  0  0  0  0  0  0  0  0  0  0
    8.4000   -0.4920   22.7440 C   0  0  0  0  0  0  0  0  0  0  0  0
   10.3720    0.7470   30.4890 C   0  0  0  0  0  0  0  0  0  0  0  0
    8.2830    5.1370   29.7750 C   0  0  0  0  0  0  0  0  0  0  0  0
    9.6290    4.6880   29.0550 C   0  0  0  0  0  0  0  0  0  0  0  0
    6.7020    1.2860   17.4290 N   0  0  0  0  0  0  0  0  0  0  0  0
    7.7740    1.1490   20.9530 N   0  0  0  0  0  0  0  0  0  0  0  0
    7.3060   -1.0620   20.8430 O   0  0  0  0  0  0  0  0  0  0  0  0
   11.9120    1.9510   25.1790 O   0  0  0  0  0  0  0  0  0  0  0  0
   10.1890    3.3760   29.4830 O   0  0  0  0  0  0  0  0  0  0  0  0
   13.4280   -0.7770   21.2960 Cl  0  0  0  0  0  0  0  0  0  0  0  0
    8.6900   -0.2480   30.7020 Br  0  0  0  0  0  0  0  0  0  0  0  0
   11.1220   -0.9560   28.6520 H   0  0  0  0  0  0  0  0  0  0  0  0
   11.7840   -0.6000   26.3350 H   0  0  0  0  0  0  0  0  0  0  0  0
    5.5010    4.2700   18.6400 H   0  0  0  0  0  0  0  0  0  0  0  0
    9.3850    1.0790   24.6570 H   0  0  0  0  0  0  0  0  0  0  0  0
   10.5360   -1.1800   21.2740 H   0  0  0  0  0  0  0  0  0  0  0  0
   11.0110    3.6240   26.9310 H   0  0  0  0  0  0  0  0  0  0  0  0
   13.5340    0.8620   23.5370 H   0  0  0  0  0  0  0  0  0  0  0  0
    5.7570    2.9780   16.4640 H   0  0  0  0  0  0  0  0  0  0  0  0
    7.6590   -0.1430   18.5810 H   0  0  0  0  0  0  0  0  0  0  0  0
    6.6250    3.1320   22.0430 H   0  0  0  0  0  0  0  0  0  0  0  0
    6.6150    4.6640   21.1110 H   0  0  0  0  0  0  0  0  0  0  0  0
    5.1570    3.8740   21.1880 H   0  0  0  0  0  0  0  0  0  0  0  0
    7.5830    5.6760   31.7740 H   0  0  0  0  0  0  0  0  0  0  0  0
    9.2570    5.0310   31.7010 H   0  0  0  0  0  0  0  0  0  0  0  0
    8.9620    6.6420   31.1490 H   0  0  0  0  0  0  0  0  0  0  0  0
    8.3530   -1.5820   22.8160 H   0  0  0  0  0  0  0  0  0  0  0  0
    7.7320    0.0270   23.4280 H   0  0  0  0  0  0  0  0  0  0  0  0
   10.3240    1.6120   31.1550 H   0  0  0  0  0  0  0  0  0  0  0  0
   11.1490    0.0340   30.7970 H   0  0  0  0  0  0  0  0  0  0  0  0
    7.8410    5.9240   29.1580 H   0  0  0  0  0  0  0  0  0  0  0  0
    7.6350    4.2570   29.8440 H   0  0  0  0  0  0  0  0  0  0  0  0
    9.5260    4.8290   27.9730 H   0  0  0  0  0  0  0  0  0  0  0  0
   10.3020    5.4460   29.4780 H   0  0  0  0  0  0  0  0  0  0  0  0
    8.4080    1.7410   21.4960 H   0  0  0  0  0  0  0  0  0  0  0  0
  8 39  1  0  0  0  0
  8 25  2  0  0  0  0
  3  8  1  0  0  0  0
  9 25  1  0  0  0  0
  9 40  1  0  0  0  0
  3 34  1  0  0  0  0
  3 11  2  0  0  0  0
  9 13  2  0  0  0  0
 11 13  1  0  0  0  0
 13 26  1  0  0  0  0
 11 19  1  0  0  0  0
 18 27  2  0  0  0  0
 18 26  1  0  0  0  0
 26 55  1  0  0  0  0
 19 42  1  0  0  0  0
 19 43  1  0  0  0  0
 19 41  1  0  0  0  0
  5 36  1  0  0  0  0
 17 30  1  0  0  0  0
 18 21  1  0  0  0  0
  5 17  2  0  0  0  0
  5 12  1  0  0  0  0
  7 17  1  0  0  0  0
 21 47  1  0  0  0  0
 12 21  1  0  0  0  0
 21 48  1  0  0  0  0
  4 12  2  0  0  0  0
  7 38  1  0  0  0  0
  7 15  2  0  0  0  0
  4 15  1  0  0  0  0
  4 35  1  0  0  0  0
 15 28  1  0  0  0  0
 14 28  1  0  0  0  0
  2 33  1  0  0  0  0
  2 14  2  0  0  0  0
  6 14  1  0  0  0  0
  1  2  1  0  0  0  0
  6 37  1  0  0  0  0
  6 16  2  0  0  0  0
 24 53  1  0  0  0  0
  1 32  1  0  0  0  0
  1 10  2  0  0  0  0
 10 16  1  0  0  0  0
 16 29  1  0  0  0  0
 24 54  1  0  0  0  0
 24 29  1  0  0  0  0
 23 24  1  0  0  0  0
 10 22  1  0  0  0  0
 23 51  1  0  0  0  0
 23 52  1  0  0  0  0
 20 23  1  0  0  0  0
 22 31  1  0  0  0  0
 22 50  1  0  0  0  0
 22 49  1  0  0  0  0
 20 46  1  0  0  0  0
 20 45  1  0  0  0  0
 20 44  1  0  0  0  0
M  END
> <CID>
EN300-6245905

> <SMILES>
CCCOc1cc(ccc1CBr)Oc2cc(cc(c2)Cl)CC(=O)Nc3cnccc3C

> <RUN>
RUN2010

> <DDG (kcal/mol)>
-0.70

> <dDDG (kcal/mol)>
0.14

$$$$
EN300-366127
  -OEChem-08252008263D

 48 50  0     0  0  0  0  0  0999 V2000
    5.6050    2.0130   18.1940 C   0  0  0  0  0  0  0  0  0  0  0  0
    8.3840    1.1310   27.2070 C   0  0  0  0  0  0  0  0  0  0  0  0
    8.4250   -1.0330   22.7200 C   0  0  0  0  0  0  0  0  0  0  0  0
   10.0980   -2.0170   21.2080 C   0  0  0  0  0  0  0  0  0  0  0  0
    8.0270    3.1180   26.0990 C   0  0  0  0  0  0  0  0  0  0  0  0
    8.2510    3.1130   28.5090 C   0  0  0  0  0  0  0  0  0  0  0  0
   10.6820   -0.2000   22.6260 C   0  0  0  0  0  0  0  0  0  0  0  0
    5.2440    1.4810   16.9710 C   0  0  0  0  0  0  0  0  0  0  0  0
    6.1330   -0.5750   17.5000 C   0  0  0  0  0  0  0  0  0  0  0  0
    6.4030    1.2730   19.0430 C   0  0  0  0  0  0  0  0  0  0  0  0
    8.1160    1.7580   26.0200 C   0  0  0  0  0  0  0  0  0  0  0  0
    8.4650    1.7380   28.4490 C   0  0  0  0  0  0  0  0  0  0  0  0
    8.7750   -2.0800   21.7960 C   0  0  0  0  0  0  0  0  0  0  0  0
    6.5850   -0.0960   18.7250 C   0  0  0  0  0  0  0  0  0  0  0  0
    9.4100   -0.1290   23.1430 C   0  0  0  0  0  0  0  0  0  0  0  0
   11.0590   -1.1960   21.6800 C   0  0  0  0  0  0  0  0  0  0  0  0
    8.1490    3.8380   27.2710 C   0  0  0  0  0  0  0  0  0  0  0  0
    6.9540   -2.2680   19.9200 C   0  0  0  0  0  0  0  0  0  0  0  0
    6.9960    1.9600   20.2470 C   0  0  0  0  0  0  0  0  0  0  0  0
    7.6500   -2.9100   21.1880 C   0  0  0  0  0  0  0  0  0  0  0  0
    7.8500    0.8440   24.7890 C   0  0  0  0  0  0  0  0  0  0  0  0
    8.7460    0.9590   29.6650 C   0  0  0  0  0  0  0  0  0  0  0  0
    5.5120    0.2570   16.5470 N   0  0  0  0  0  0  0  0  0  0  0  0
    7.1220   -0.8770   19.7150 N   0  0  0  0  0  0  0  0  0  0  0  0
    6.4510   -3.0400   19.0920 O   0  0  0  0  0  0  0  0  0  0  0  0
    9.0840    0.8790   24.0310 O   0  0  0  0  0  0  0  0  0  0  0  0
   12.7010   -1.4200   21.0820 Cl  0  0  0  0  0  0  0  0  0  0  0  0
   10.6850    0.4950   29.7850 Br  0  0  0  0  0  0  0  0  0  0  0  0
    7.7320    6.0030   27.2610 I   0  0  0  0  0  0  0  0  0  0  0  0
    5.2150    3.0020   18.3900 H   0  0  0  0  0  0  0  0  0  0  0  0
    8.3730    0.0480   27.2330 H   0  0  0  0  0  0  0  0  0  0  0  0
    7.4140   -0.9910   23.1020 H   0  0  0  0  0  0  0  0  0  0  0  0
   10.3370   -2.6860   20.3760 H   0  0  0  0  0  0  0  0  0  0  0  0
    7.8290    3.6950   25.2130 H   0  0  0  0  0  0  0  0  0  0  0  0
    8.3340    3.6260   29.4610 H   0  0  0  0  0  0  0  0  0  0  0  0
   11.3450    0.5970   22.9530 H   0  0  0  0  0  0  0  0  0  0  0  0
    4.5810    2.1220   16.3990 H   0  0  0  0  0  0  0  0  0  0  0  0
    6.2370   -1.6000   17.1750 H   0  0  0  0  0  0  0  0  0  0  0  0
    6.5790    1.4670   21.1380 H   0  0  0  0  0  0  0  0  0  0  0  0
    8.0610    1.7200   20.3320 H   0  0  0  0  0  0  0  0  0  0  0  0
    6.6670    2.9960   20.3140 H   0  0  0  0  0  0  0  0  0  0  0  0
    8.1510   -3.8250   20.8660 H   0  0  0  0  0  0  0  0  0  0  0  0
    7.0270   -3.1850   22.0440 H   0  0  0  0  0  0  0  0  0  0  0  0
    7.5890   -0.1360   25.1970 H   0  0  0  0  0  0  0  0  0  0  0  0
    7.0140    1.2670   24.2310 H   0  0  0  0  0  0  0  0  0  0  0  0
    8.4170    1.4550   30.5820 H   0  0  0  0  0  0  0  0  0  0  0  0
    8.1690    0.0270   29.5690 H   0  0  0  0  0  0  0  0  0  0  0  0
    7.6020   -0.4230   20.4970 H   0  0  0  0  0  0  0  0  0  0  0  0
  8 37  1  0  0  0  0
  8 23  2  0  0  0  0
  9 23  1  0  0  0  0
  1  8  1  0  0  0  0
  9 38  1  0  0  0  0
  9 14  2  0  0  0  0
  1 30  1  0  0  0  0
  1 10  2  0  0  0  0
 10 14  1  0  0  0  0
 14 24  1  0  0  0  0
 10 19  1  0  0  0  0
 18 25  2  0  0  0  0
 18 24  1  0  0  0  0
 24 48  1  0  0  0  0
 18 20  1  0  0  0  0
 19 41  1  0  0  0  0
 19 40  1  0  0  0  0
 19 39  1  0  0  0  0
  4 33  1  0  0  0  0
 20 42  1  0  0  0  0
 16 27  1  0  0  0  0
 13 20  1  0  0  0  0
 20 43  1  0  0  0  0
  4 16  2  0  0  0  0
  4 13  1  0  0  0  0
  7 16  1  0  0  0  0
  3 13  2  0  0  0  0
  7 36  1  0  0  0  0
  7 15  2  0  0  0  0
  3 32  1  0  0  0  0
  3 15  1  0  0  0  0
 15 26  1  0  0  0  0
 21 26  1  0  0  0  0
 21 45  1  0  0  0  0
 21 44  1  0  0  0  0
 11 21  1  0  0  0  0
  5 34  1  0  0  0  0
  5 11  2  0  0  0  0
  2 11  1  0  0  0  0
  5 17  1  0  0  0  0
  2 31  1  0  0  0  0
  2 12  2  0  0  0  0
 17 29  1  0  0  0  0
  6 17  2  0  0  0  0
  6 12  1  0  0  0  0
 12 22  1  0  0  0  0
  6 35  1  0  0  0  0
 22 47  1  0  0  0  0
 22 28  1  0  0  0  0
 22 46  1  0  0  0  0
M  END
> <CID>
EN300-366127

> <SMILES>
Cc1ccncc1NC(=O)Cc2cc(cc(c2)Cl)OCc3cc(cc(c3)I)CBr

> <RUN>
RUN1570

> <DDG (kcal/mol)>
-0.69

> <dDDG (kcal/mol)>
0.13

$$$$
EN300-1132707
  -OEChem-08252008263D

 62 65  0     1  0  0  0  0  0999 V2000
    8.0840    3.7980   26.2630 C   0  0  0  0  0  0  0  0  0  0  0  0
    9.7350    3.4530   24.4610 C   0  0  0  0  0  0  0  0  0  0  0  0
    7.9590    2.4180   26.3250 C   0  0  0  0  0  0  0  0  0  0  0  0
    9.6720    2.0400   24.6230 C   0  0  0  0  0  0  0  0  0  0  0  0
    6.4560    2.3440   19.7040 C   0  0  0  0  0  0  0  0  0  0  0  0
    8.3990   -1.2640   23.7730 C   0  0  0  0  0  0  0  0  0  0  0  0
   10.4800   -2.5300   23.3670 C   0  0  0  0  0  0  0  0  0  0  0  0
   10.3020   -0.9620   25.1260 C   0  0  0  0  0  0  0  0  0  0  0  0
    6.2160    2.0150   18.3520 C   0  0  0  0  0  0  0  0  0  0  0  0
    7.3560    0.0020   18.5900 C   0  0  0  0  0  0  0  0  0  0  0  0
    8.9420    4.2800   25.2860 C   0  0  0  0  0  0  0  0  0  0  0  0
    7.0670    1.4190   20.5390 C   0  0  0  0  0  0  0  0  0  0  0  0
    9.1130   -2.2420   23.0080 C   0  0  0  0  0  0  0  0  0  0  0  0
    7.5120    0.2630   19.9620 C   0  0  0  0  0  0  0  0  0  0  0  0
    8.6380    1.5550   25.4700 C   0  0  0  0  0  0  0  0  0  0  0  0
    9.0060   -0.6310   24.8270 C   0  0  0  0  0  0  0  0  0  0  0  0
   11.1070   -1.8590   24.4310 C   0  0  0  0  0  0  0  0  0  0  0  0
    7.7970   -2.1040   20.8080 C   0  0  0  0  0  0  0  0  0  0  0  0
    6.9510    7.7030   21.6550 C   0  0  0  0  0  0  0  0  0  0  0  0
    7.3010    8.5910   22.8410 C   0  0  0  0  0  0  0  0  0  0  0  0
    6.7460    6.2740   22.2570 C   0  0  0  0  0  0  0  0  0  0  0  0
    6.9220    7.8160   24.0960 C   0  0  0  0  0  0  0  0  0  0  0  0
    7.1650    6.3970   23.6480 C   0  0  0  0  0  0  0  0  0  0  0  0
    7.2790    1.7700   22.0510 C   0  0  0  0  0  0  0  0  0  0  0  0
    8.3430   -2.9570   21.9230 C   0  0  0  0  0  0  0  0  0  0  0  0
   10.4300    6.2940   25.2580 C   0  0  0  0  0  0  0  0  0  0  0  0
    9.0480    5.7910   25.1250 C   0  0  1  0  0  0  0  0  0  0  0  0
    6.6190    0.8240   17.8450 N   0  0  0  0  0  0  0  0  0  0  0  0
    8.0580   -0.7550   20.7460 N   0  0  0  0  0  0  0  0  0  0  0  0
    6.9600   -2.5390   20.0850 O   0  0  0  0  0  0  0  0  0  0  0  0
    8.3040    0.2040   25.5920 O   0  0  0  0  0  0  0  0  0  0  0  0
    8.6050    6.2470   23.8080 O   0  0  0  0  0  0  0  0  0  0  0  0
   12.7530   -2.0720   24.8800 Cl  0  0  0  0  0  0  0  0  0  0  0  0
   11.3430    5.7710   27.2160 I   0  0  0  0  0  0  0  0  0  0  0  0
    7.4450    4.4010   26.9060 H   0  0  0  0  0  0  0  0  0  0  0  0
   10.3750    3.8250   23.6640 H   0  0  0  0  0  0  0  0  0  0  0  0
    7.1340    2.0010   26.9020 H   0  0  0  0  0  0  0  0  0  0  0  0
   10.3710    1.5490   23.9510 H   0  0  0  0  0  0  0  0  0  0  0  0
    6.0990    3.3200   20.0290 H   0  0  0  0  0  0  0  0  0  0  0  0
    7.3630   -0.9990   23.6050 H   0  0  0  0  0  0  0  0  0  0  0  0
   11.0080   -3.3470   22.8820 H   0  0  0  0  0  0  0  0  0  0  0  0
   10.6320   -0.4450   26.0290 H   0  0  0  0  0  0  0  0  0  0  0  0
    5.7030    2.7910   17.8060 H   0  0  0  0  0  0  0  0  0  0  0  0
    7.7900   -0.9190   18.2250 H   0  0  0  0  0  0  0  0  0  0  0  0
    6.0650    8.1320   21.1780 H   0  0  0  0  0  0  0  0  0  0  0  0
    7.7870    7.7160   20.9460 H   0  0  0  0  0  0  0  0  0  0  0  0
    8.3890    8.7310   22.7820 H   0  0  0  0  0  0  0  0  0  0  0  0
    6.8430    9.5900   22.7970 H   0  0  0  0  0  0  0  0  0  0  0  0
    5.6960    5.9790   22.1750 H   0  0  0  0  0  0  0  0  0  0  0  0
    7.3290    5.5480   21.6830 H   0  0  0  0  0  0  0  0  0  0  0  0
    7.6490    8.1320   24.8380 H   0  0  0  0  0  0  0  0  0  0  0  0
    5.8830    8.0880   24.2870 H   0  0  0  0  0  0  0  0  0  0  0  0
    6.5390    5.7480   24.2740 H   0  0  0  0  0  0  0  0  0  0  0  0
    6.5410    1.2120   22.6370 H   0  0  0  0  0  0  0  0  0  0  0  0
    8.3020    1.4790   22.3290 H   0  0  0  0  0  0  0  0  0  0  0  0
    7.2720    2.8350   22.2870 H   0  0  0  0  0  0  0  0  0  0  0  0
    9.0270   -3.7370   21.5790 H   0  0  0  0  0  0  0  0  0  0  0  0
    7.4770   -3.5420   22.2500 H   0  0  0  0  0  0  0  0  0  0  0  0
   10.5470    7.3680   25.0850 H   0  0  0  0  0  0  0  0  0  0  0  0
   11.0330    5.8790   24.4460 H   0  0  0  0  0  0  0  0  0  0  0  0
    8.3960    6.2640   25.8780 H   0  0  0  0  0  0  0  0  0  0  0  0
    8.7720   -0.4640   21.4080 H   0  0  0  0  0  0  0  0  0  0  0  0
  9 43  1  0  0  0  0
  9 28  2  0  0  0  0
 10 28  1  0  0  0  0
 10 44  1  0  0  0  0
  5  9  1  0  0  0  0
 10 14  2  0  0  0  0
  5 39  1  0  0  0  0
  5 12  2  0  0  0  0
 12 14  1  0  0  0  0
 14 29  1  0  0  0  0
 18 30  2  0  0  0  0
 12 24  1  0  0  0  0
 18 29  1  0  0  0  0
 29 62  1  0  0  0  0
 18 25  1  0  0  0  0
 19 46  1  0  0  0  0
 19 45  1  0  0  0  0
 25 57  1  0  0  0  0
 19 21  1  0  0  0  0
 19 20  1  0  0  0  0
 21 50  1  0  0  0  0
 25 58  1  0  0  0  0
 13 25  1  0  0  0  0
 24 56  1  0  0  0  0
 24 55  1  0  0  0  0
 24 54  1  0  0  0  0
 21 49  1  0  0  0  0
 21 23  1  0  0  0  0
 20 47  1  0  0  0  0
 20 48  1  0  0  0  0
 20 22  1  0  0  0  0
  7 41  1  0  0  0  0
  7 13  2  0  0  0  0
  6 13  1  0  0  0  0
  7 17  1  0  0  0  0
  6 40  1  0  0  0  0
 23 32  1  0  0  0  0
 22 23  1  0  0  0  0
 23 53  1  0  0  0  0
  2 36  1  0  0  0  0
  6 16  2  0  0  0  0
 27 32  1  0  0  0  0
  4 38  1  0  0  0  0
 22 52  1  0  0  0  0
 22 51  1  0  0  0  0
 17 33  1  0  0  0  0
  8 17  2  0  0  0  0
 26 60  1  0  0  0  0
  2  4  2  0  0  0  0
  2 11  1  0  0  0  0
  4 15  1  0  0  0  0
  8 16  1  0  0  0  0
 16 31  1  0  0  0  0
 26 59  1  0  0  0  0
 26 27  1  0  0  0  0
 11 27  1  0  0  0  0
 27 61  1  0  0  0  0
  8 42  1  0  0  0  0
 26 34  1  0  0  0  0
  1 11  2  0  0  0  0
 15 31  1  0  0  0  0
  3 15  2  0  0  0  0
  1  3  1  0  0  0  0
  1 35  1  0  0  0  0
  3 37  1  0  0  0  0
M  END
> <CID>
EN300-1132707

> <SMILES>
Cc1ccncc1NC(=O)Cc2cc(cc(c2)Cl)Oc3ccc(cc3)[C@@H](CI)OC4CCCC4

> <RUN>
RUN1347

> <DDG (kcal/mol)>
-0.68

> <dDDG (kcal/mol)>
0.17

$$$$
EN300-3051713
  -OEChem-08252008263D

 51 54  0     0  0  0  0  0  0999 V2000
   15.0700    9.4660   29.0310 C   0  0  0  0  0  0  0  0  0  0  0  0
   15.2960    8.0860   29.1330 C   0  0  0  0  0  0  0  0  0  0  0  0
   14.1400    9.8830   28.0910 C   0  0  0  0  0  0  0  0  0  0  0  0
   14.6770    7.2310   28.2370 C   0  0  0  0  0  0  0  0  0  0  0  0
   13.5400    9.0680   27.2000 C   0  0  0  0  0  0  0  0  0  0  0  0
    5.9900    1.2900   20.5600 C   0  0  0  0  0  0  0  0  0  0  0  0
   11.2720    0.5870   24.8710 C   0  0  0  0  0  0  0  0  0  0  0  0
   12.0540   -1.3610   23.6490 C   0  0  0  0  0  0  0  0  0  0  0  0
   13.5140    0.4040   24.0890 C   0  0  0  0  0  0  0  0  0  0  0  0
    6.5450    0.7200   19.4390 C   0  0  0  0  0  0  0  0  0  0  0  0
    8.0110   -0.6310   20.6720 C   0  0  0  0  0  0  0  0  0  0  0  0
   11.8890    6.9510   25.6030 C   0  0  0  0  0  0  0  0  0  0  0  0
   13.7430    7.6860   27.2510 C   0  0  0  0  0  0  0  0  0  0  0  0
    6.4620    0.8620   21.8090 C   0  0  0  0  0  0  0  0  0  0  0  0
   11.0290   -0.6950   24.3730 C   0  0  0  0  0  0  0  0  0  0  0  0
    7.4760   -0.1090   21.8560 C   0  0  0  0  0  0  0  0  0  0  0  0
   12.5440    1.1760   24.7210 C   0  0  0  0  0  0  0  0  0  0  0  0
   13.3520   -0.8110   23.5440 C   0  0  0  0  0  0  0  0  0  0  0  0
   13.0250    6.7050   26.4200 C   0  0  0  0  0  0  0  0  0  0  0  0
   12.2510    4.7970   25.6680 C   0  0  0  0  0  0  0  0  0  0  0  0
    8.8590   -1.4740   23.4220 C   0  0  0  0  0  0  0  0  0  0  0  0
    5.7830    1.4470   23.0310 C   0  0  0  0  0  0  0  0  0  0  0  0
    9.7430   -1.4190   24.6200 C   0  0  0  0  0  0  0  0  0  0  0  0
   11.8230    3.3620   25.4940 C   0  0  0  0  0  0  0  0  0  0  0  0
    7.5500   -0.2010   19.4810 N   0  0  0  0  0  0  0  0  0  0  0  0
   11.4450    5.7140   25.1560 N   0  0  0  0  0  0  0  0  0  0  0  0
    8.0530   -0.4480   23.1080 N   0  0  0  0  0  0  0  0  0  0  0  0
    8.9130   -2.5270   22.7580 O   0  0  0  0  0  0  0  0  0  0  0  0
   13.2500    5.3030   26.4690 O   0  0  0  0  0  0  0  0  0  0  0  0
   12.8400    2.4740   25.1630 O   0  0  0  0  0  0  0  0  0  0  0  0
   14.7240   -1.7020   23.0380 Cl  0  0  0  0  0  0  0  0  0  0  0  0
   15.5170   10.2690   29.6190 H   0  0  0  0  0  0  0  0  0  0  0  0
   16.0400    7.7090   29.8290 H   0  0  0  0  0  0  0  0  0  0  0  0
   13.9630   10.9600   28.1730 H   0  0  0  0  0  0  0  0  0  0  0  0
   14.8310    6.1760   28.4130 H   0  0  0  0  0  0  0  0  0  0  0  0
   12.8640    9.4820   26.4630 H   0  0  0  0  0  0  0  0  0  0  0  0
    5.1340    1.9690   20.5230 H   0  0  0  0  0  0  0  0  0  0  0  0
   10.5170    1.1130   25.4470 H   0  0  0  0  0  0  0  0  0  0  0  0
   11.7940   -2.3110   23.1930 H   0  0  0  0  0  0  0  0  0  0  0  0
   14.4950    0.8700   24.0300 H   0  0  0  0  0  0  0  0  0  0  0  0
    6.1170    1.0720   18.5000 H   0  0  0  0  0  0  0  0  0  0  0  0
    8.7700   -1.4060   20.5700 H   0  0  0  0  0  0  0  0  0  0  0  0
   11.4700    7.9130   25.3100 H   0  0  0  0  0  0  0  0  0  0  0  0
    6.3770    2.2790   23.4270 H   0  0  0  0  0  0  0  0  0  0  0  0
    4.7910    1.7630   22.6830 H   0  0  0  0  0  0  0  0  0  0  0  0
    5.6920    0.6410   23.7660 H   0  0  0  0  0  0  0  0  0  0  0  0
    9.9570   -2.4140   25.0300 H   0  0  0  0  0  0  0  0  0  0  0  0
    9.1890   -0.8860   25.4000 H   0  0  0  0  0  0  0  0  0  0  0  0
   11.3180    3.1420   26.4380 H   0  0  0  0  0  0  0  0  0  0  0  0
   11.1080    3.2830   24.6710 H   0  0  0  0  0  0  0  0  0  0  0  0
    8.1980    0.2920   23.7880 H   0  0  0  0  0  0  0  0  0  0  0  0
 10 41  1  0  0  0  0
 10 25  2  0  0  0  0
  6 10  1  0  0  0  0
 11 25  1  0  0  0  0
  6 37  1  0  0  0  0
  6 14  2  0  0  0  0
 11 42  1  0  0  0  0
 11 16  2  0  0  0  0
 14 16  1  0  0  0  0
 14 22  1  0  0  0  0
 16 27  1  0  0  0  0
 22 45  1  0  0  0  0
 21 28  2  0  0  0  0
 22 44  1  0  0  0  0
 22 46  1  0  0  0  0
 18 31  1  0  0  0  0
 21 27  1  0  0  0  0
 27 51  1  0  0  0  0
  8 39  1  0  0  0  0
 21 23  1  0  0  0  0
  8 18  2  0  0  0  0
  9 18  1  0  0  0  0
  8 15  1  0  0  0  0
  9 40  1  0  0  0  0
  9 17  2  0  0  0  0
 15 23  1  0  0  0  0
  7 15  2  0  0  0  0
 23 47  1  0  0  0  0
 23 48  1  0  0  0  0
 24 50  1  0  0  0  0
  7 17  1  0  0  0  0
 17 30  1  0  0  0  0
  7 38  1  0  0  0  0
 12 26  1  0  0  0  0
 20 26  2  0  0  0  0
 24 30  1  0  0  0  0
 12 43  1  0  0  0  0
 20 24  1  0  0  0  0
 24 49  1  0  0  0  0
 12 19  2  0  0  0  0
 20 29  1  0  0  0  0
 19 29  1  0  0  0  0
 13 19  1  0  0  0  0
  5 36  1  0  0  0  0
  5 13  2  0  0  0  0
  3  5  1  0  0  0  0
  4 13  1  0  0  0  0
  3 34  1  0  0  0  0
  1  3  2  0  0  0  0
  4 35  1  0  0  0  0
  2  4  2  0  0  0  0
  1  2  1  0  0  0  0
  1 32  1  0  0  0  0
  2 33  1  0  0  0  0
M  END
> <CID>
EN300-3051713

> <SMILES>
Cc1ccncc1NC(=O)Cc2cc(cc(c2)Cl)OCc3ncc(o3)c4ccccc4

> <RUN>
RUN348

> <DDG (kcal/mol)>
-0.68

> <dDDG (kcal/mol)>
0.14

$$$$
EN300-64239
  -OEChem-08252008263D

 51 53  0     1  0  0  0  0  0999 V2000
   11.9290    0.4230   27.6520 C   0  0  0  0  0  0  0  0  0  0  0  0
   11.3500    0.2260   28.8720 C   0  0  0  0  0  0  0  0  0  0  0  0
    4.5790    0.4600   19.1780 C   0  0  0  0  0  0  0  0  0  0  0  0
   11.8220   -1.8900   27.1200 C   0  0  0  0  0  0  0  0  0  0  0  0
   10.8850   -1.0290   24.2230 C   0  0  0  0  0  0  0  0  0  0  0  0
   11.3070   -2.0810   22.0310 C   0  0  0  0  0  0  0  0  0  0  0  0
   13.1470   -1.5000   23.4950 C   0  0  0  0  0  0  0  0  0  0  0  0
    5.2130    0.3750   17.9550 C   0  0  0  0  0  0  0  0  0  0  0  0
    7.1720   -0.5480   18.9520 C   0  0  0  0  0  0  0  0  0  0  0  0
   11.1300   -2.1510   28.3220 C   0  0  0  0  0  0  0  0  0  0  0  0
    5.2310   -0.0250   20.2980 C   0  0  0  0  0  0  0  0  0  0  0  0
   10.3950   -1.6630   23.0280 C   0  0  0  0  0  0  0  0  0  0  0  0
    6.5730   -0.4520   20.1930 C   0  0  0  0  0  0  0  0  0  0  0  0
   12.2460   -0.6210   26.7940 C   0  0  0  0  0  0  0  0  0  0  0  0
   10.9740   -1.0450   29.2700 C   0  0  0  0  0  0  0  0  0  0  0  0
   12.2840   -0.9960   24.4850 C   0  0  0  0  0  0  0  0  0  0  0  0
   12.7190   -2.0500   22.2620 C   0  0  0  0  0  0  0  0  0  0  0  0
   10.5470   -3.5180   28.5840 C   0  0  3  0  0  0  0  0  0  0  0  0
    8.4190   -0.8200   21.6320 C   0  0  0  0  0  0  0  0  0  0  0  0
    4.4810   -0.1270   21.5150 C   0  0  0  0  0  0  0  0  0  0  0  0
   10.8260   -0.4070   31.6380 C   0  0  0  0  0  0  0  0  0  0  0  0
    8.8420   -1.7540   22.7480 C   0  0  0  0  0  0  0  0  0  0  0  0
   10.1520   -4.4650   27.4130 C   0  0  0  0  0  0  0  0  0  0  0  0
    6.4930   -0.1290   17.8370 N   0  0  0  0  0  0  0  0  0  0  0  0
    7.1420   -0.9720   21.3290 N   0  0  0  0  0  0  0  0  0  0  0  0
   10.3020   -3.8940   29.7840 O   0  0  0  0  0  0  0  0  0  0  0  0
    9.0450    0.1740   21.1250 O   0  0  0  0  0  0  0  0  0  0  0  0
   12.8390   -0.3430   25.5790 O   0  0  0  0  0  0  0  0  0  0  0  0
   10.3020   -1.1480   30.4890 O   0  0  0  0  0  0  0  0  0  0  0  0
   13.8240   -2.6480   21.0790 Cl  0  0  0  0  0  0  0  0  0  0  0  0
   11.4290   -6.0010   27.4380 Br  0  0  0  0  0  0  0  0  0  0  0  0
   12.0680    1.4420   27.2880 H   0  0  0  0  0  0  0  0  0  0  0  0
   11.0350    1.1230   29.3940 H   0  0  0  0  0  0  0  0  0  0  0  0
    3.5540    0.7940   19.3030 H   0  0  0  0  0  0  0  0  0  0  0  0
   11.9400   -2.7370   26.4510 H   0  0  0  0  0  0  0  0  0  0  0  0
   10.2070   -0.4550   24.8560 H   0  0  0  0  0  0  0  0  0  0  0  0
   11.0640   -2.4400   21.0390 H   0  0  0  0  0  0  0  0  0  0  0  0
   14.1900   -1.5070   23.7970 H   0  0  0  0  0  0  0  0  0  0  0  0
    4.7420    0.7180   17.0480 H   0  0  0  0  0  0  0  0  0  0  0  0
    8.1650   -0.9710   18.8320 H   0  0  0  0  0  0  0  0  0  0  0  0
    4.9240    0.4800   22.3130 H   0  0  0  0  0  0  0  0  0  0  0  0
    3.4460    0.2060   21.4620 H   0  0  0  0  0  0  0  0  0  0  0  0
    4.3780   -1.1610   21.8580 H   0  0  0  0  0  0  0  0  0  0  0  0
   11.2040    0.5900   31.4100 H   0  0  0  0  0  0  0  0  0  0  0  0
   11.4240   -1.0030   32.3200 H   0  0  0  0  0  0  0  0  0  0  0  0
    9.8730   -0.0890   32.0810 H   0  0  0  0  0  0  0  0  0  0  0  0
    8.6430   -2.7940   22.4730 H   0  0  0  0  0  0  0  0  0  0  0  0
    8.4290   -1.5040   23.7310 H   0  0  0  0  0  0  0  0  0  0  0  0
    9.1230   -4.8420   27.4780 H   0  0  0  0  0  0  0  0  0  0  0  0
   10.2430   -3.8860   26.4890 H   0  0  0  0  0  0  0  0  0  0  0  0
    6.5730   -1.5090   21.9810 H   0  0  0  0  0  0  0  0  0  0  0  0
  8 39  1  0  0  0  0
  8 24  2  0  0  0  0
  9 24  1  0  0  0  0
  3  8  1  0  0  0  0
  9 40  1  0  0  0  0
  9 13  2  0  0  0  0
  3 34  1  0  0  0  0
  3 11  2  0  0  0  0
 11 13  1  0  0  0  0
 13 25  1  0  0  0  0
 11 20  1  0  0  0  0
  6 37  1  0  0  0  0
 17 30  1  0  0  0  0
 19 27  2  0  0  0  0
 19 25  1  0  0  0  0
 25 51  1  0  0  0  0
 20 42  1  0  0  0  0
 20 43  1  0  0  0  0
 20 41  1  0  0  0  0
 19 22  1  0  0  0  0
  6 17  2  0  0  0  0
  6 12  1  0  0  0  0
  7 17  1  0  0  0  0
 22 47  1  0  0  0  0
 12 22  1  0  0  0  0
 22 48  1  0  0  0  0
  5 12  2  0  0  0  0
  7 38  1  0  0  0  0
  7 16  2  0  0  0  0
  5 16  1  0  0  0  0
  5 36  1  0  0  0  0
 16 28  1  0  0  0  0
 14 28  1  0  0  0  0
  4 35  1  0  0  0  0
 23 50  1  0  0  0  0
  4 14  2  0  0  0  0
  1 14  1  0  0  0  0
  4 10  1  0  0  0  0
  1 32  1  0  0  0  0
 23 31  1  0  0  0  0
 23 49  1  0  0  0  0
 18 23  1  0  0  0  0
  1  2  2  0  0  0  0
 10 18  1  0  0  0  0
 10 15  2  0  0  0  0
 18 26  1  0  0  0  0
  2 15  1  0  0  0  0
  2 33  1  0  0  0  0
 15 29  1  0  0  0  0
 21 29  1  0  0  0  0
 21 44  1  0  0  0  0
 21 46  1  0  0  0  0
 21 45  1  0  0  0  0
M  END
> <CID>
EN300-64239

> <SMILES>
Cc1ccncc1NC(=O)Cc2cc(cc(c2)Cl)Oc3ccc(c(c3)C(=O)CBr)OC

> <RUN>
RUN2827

> <DDG (kcal/mol)>
-0.68

> <dDDG (kcal/mol)>
0.16

$$$$
EN300-1910335
  -OEChem-08252008263D

 51 53  0     1  0  0  0  0  0999 V2000
   15.1790   -3.0160   19.5310 C   0  0  0  0  0  0  0  0  0  0  0  0
   14.5310   -2.4150   20.6450 C   0  0  0  0  0  0  0  0  0  0  0  0
   15.8980   -2.2000   18.5890 C   0  0  0  0  0  0  0  0  0  0  0  0
    5.0420    2.5520   17.7850 C   0  0  0  0  0  0  0  0  0  0  0  0
   15.2390   -0.2130   19.9740 C   0  0  0  0  0  0  0  0  0  0  0  0
    9.4460   -1.0710   21.7890 C   0  0  0  0  0  0  0  0  0  0  0  0
    7.4700   -0.8150   23.0910 C   0  0  0  0  0  0  0  0  0  0  0  0
    9.4940    0.1870   23.8840 C   0  0  0  0  0  0  0  0  0  0  0  0
    5.4210    2.1320   16.5810 C   0  0  0  0  0  0  0  0  0  0  0  0
    6.6260    0.4450   17.5110 C   0  0  0  0  0  0  0  0  0  0  0  0
   14.5400   -1.0430   20.8430 C   0  0  0  0  0  0  0  0  0  0  0  0
    5.4380    1.9220   18.9760 C   0  0  0  0  0  0  0  0  0  0  0  0
    8.1180   -1.2820   21.9280 C   0  0  0  0  0  0  0  0  0  0  0  0
   15.9440   -0.8070   18.8140 C   0  0  0  0  0  0  0  0  0  0  0  0
    6.1600    0.6920   18.8400 C   0  0  0  0  0  0  0  0  0  0  0  0
   10.1450   -0.2530   22.7320 C   0  0  0  0  0  0  0  0  0  0  0  0
    8.1080   -0.0940   24.0450 C   0  0  0  0  0  0  0  0  0  0  0  0
    6.6840   -1.4630   19.8600 C   0  0  0  0  0  0  0  0  0  0  0  0
    5.1920    2.5060   20.4140 C   0  0  0  0  0  0  0  0  0  0  0  0
    7.3960   -2.1800   21.0050 C   0  0  0  0  0  0  0  0  0  0  0  0
   12.2600   -0.7500   21.8220 C   0  0  0  0  0  0  0  0  0  0  0  0
   13.7480   -0.5300   22.0200 C   0  0  1  0  0  0  0  0  0  0  0  0
    6.2250    1.0720   16.4220 N   0  0  0  0  0  0  0  0  0  0  0  0
    6.5890   -0.0690   19.8650 N   0  0  0  0  0  0  0  0  0  0  0  0
   16.5080    0.0540   17.8430 N   0  0  0  0  0  0  0  0  0  0  0  0
    5.9710   -2.1040   19.0590 O   0  0  0  0  0  0  0  0  0  0  0  0
   15.9040    0.2700   16.8530 O   0  0  0  0  0  0  0  0  0  0  0  0
   17.5030    0.6400   18.1680 O   0  0  0  0  0  0  0  0  0  0  0  0
   14.1680   -1.0790   23.2440 O   0  0  0  0  0  0  0  0  0  0  0  0
   11.4640   -0.0170   22.7170 O   0  0  0  0  0  0  0  0  0  0  0  0
    7.2610    0.3720   25.4460 Cl  0  0  0  0  0  0  0  0  0  0  0  0
   15.2300   -4.0950   19.4310 H   0  0  0  0  0  0  0  0  0  0  0  0
   14.0620   -3.1280   21.3120 H   0  0  0  0  0  0  0  0  0  0  0  0
   16.3940   -2.6980   17.7730 H   0  0  0  0  0  0  0  0  0  0  0  0
    4.4060    3.4190   17.9590 H   0  0  0  0  0  0  0  0  0  0  0  0
   15.2410    0.8660   20.1130 H   0  0  0  0  0  0  0  0  0  0  0  0
    9.8380   -1.5150   20.8850 H   0  0  0  0  0  0  0  0  0  0  0  0
    6.4080   -0.9810   23.2410 H   0  0  0  0  0  0  0  0  0  0  0  0
    9.9750    0.6420   24.7380 H   0  0  0  0  0  0  0  0  0  0  0  0
    4.9900    2.7210   15.7700 H   0  0  0  0  0  0  0  0  0  0  0  0
    7.3280   -0.3840   17.5170 H   0  0  0  0  0  0  0  0  0  0  0  0
    4.4780    1.9000   20.9760 H   0  0  0  0  0  0  0  0  0  0  0  0
    6.1670    2.5700   20.8970 H   0  0  0  0  0  0  0  0  0  0  0  0
    4.8610    3.5280   20.2120 H   0  0  0  0  0  0  0  0  0  0  0  0
    8.0530   -2.9110   20.5260 H   0  0  0  0  0  0  0  0  0  0  0  0
    6.6080   -2.7670   21.4850 H   0  0  0  0  0  0  0  0  0  0  0  0
   12.0620   -0.5110   20.7800 H   0  0  0  0  0  0  0  0  0  0  0  0
   12.0430   -1.8280   21.8670 H   0  0  0  0  0  0  0  0  0  0  0  0
   13.9050    0.5450   22.1160 H   0  0  0  0  0  0  0  0  0  0  0  0
    7.0170    0.4440   20.6350 H   0  0  0  0  0  0  0  0  0  0  0  0
   15.0860   -0.8720   23.4870 H   0  0  0  0  0  0  0  0  0  0  0  0
  9 40  1  0  0  0  0
  9 23  2  0  0  0  0
 10 23  1  0  0  0  0
  4  9  1  0  0  0  0
 25 27  2  0  0  0  0
 10 41  1  0  0  0  0
 10 15  2  0  0  0  0
  3 34  1  0  0  0  0
  4 35  1  0  0  0  0
  4 12  2  0  0  0  0
 25 28  2  0  0  0  0
 14 25  1  0  0  0  0
  3 14  2  0  0  0  0
  1  3  1  0  0  0  0
  5 14  1  0  0  0  0
 12 15  1  0  0  0  0
 15 24  1  0  0  0  0
 12 19  1  0  0  0  0
 18 26  2  0  0  0  0
  1 32  1  0  0  0  0
  1  2  2  0  0  0  0
 18 24  1  0  0  0  0
 18 20  1  0  0  0  0
 24 50  1  0  0  0  0
  5 36  1  0  0  0  0
  5 11  2  0  0  0  0
 19 44  1  0  0  0  0
 19 43  1  0  0  0  0
 19 42  1  0  0  0  0
 20 45  1  0  0  0  0
  2 11  1  0  0  0  0
  2 33  1  0  0  0  0
 21 47  1  0  0  0  0
 11 22  1  0  0  0  0
  6 37  1  0  0  0  0
 20 46  1  0  0  0  0
 13 20  1  0  0  0  0
  6 13  2  0  0  0  0
  6 16  1  0  0  0  0
 21 48  1  0  0  0  0
 21 22  1  0  0  0  0
 21 30  1  0  0  0  0
  7 13  1  0  0  0  0
 22 49  1  0  0  0  0
 22 29  1  0  0  0  0
 16 30  1  0  0  0  0
  8 16  2  0  0  0  0
  7 38  1  0  0  0  0
  7 17  2  0  0  0  0
 29 51  1  0  0  0  0
  8 17  1  0  0  0  0
  8 39  1  0  0  0  0
 17 31  1  0  0  0  0
M  END
> <CID>
EN300-1910335

> <SMILES>
Cc1ccncc1NC(=O)Cc2cc(cc(c2)Cl)OC[C@H](c3cccc(c3)N(=O)=O)O

> <RUN>
RUN3297

> <DDG (kcal/mol)>
-0.67

> <dDDG (kcal/mol)>
0.17

$$$$
EN300-1274638
  -OEChem-08252008263D

 59 62  0     1  0  0  0  0  0999 V2000
   11.9260    2.3860   28.0230 C   0  0  0  0  0  0  0  0  0  0  0  0
   11.7170    0.6610   29.7630 C   0  0  0  0  0  0  0  0  0  0  0  0
   12.1960    1.2940   27.0060 C   0  0  0  0  0  0  0  0  0  0  0  0
   11.9550   -0.3030   28.7930 C   0  0  0  0  0  0  0  0  0  0  0  0
    5.2620    1.6380   19.1380 C   0  0  0  0  0  0  0  0  0  0  0  0
   10.9960   -0.8170   24.7220 C   0  0  0  0  0  0  0  0  0  0  0  0
   11.5870   -1.5110   22.5020 C   0  0  0  0  0  0  0  0  0  0  0  0
   13.2250   -1.6140   24.2840 C   0  0  0  0  0  0  0  0  0  0  0  0
    5.9110    1.3020   17.9130 C   0  0  0  0  0  0  0  0  0  0  0  0
    7.5650    0.2650   19.0490 C   0  0  0  0  0  0  0  0  0  0  0  0
    5.8050    1.2370   20.2550 C   0  0  0  0  0  0  0  0  0  0  0  0
   10.5730   -1.0700   23.4030 C   0  0  0  0  0  0  0  0  0  0  0  0
   11.7270    2.0340   29.3860 C   0  0  0  0  0  0  0  0  0  0  0  0
    6.9830    0.5620   20.2330 C   0  0  0  0  0  0  0  0  0  0  0  0
   12.2480   -0.0140   27.4390 C   0  0  0  0  0  0  0  0  0  0  0  0
   12.2880   -1.0780   25.2240 C   0  0  0  0  0  0  0  0  0  0  0  0
   12.8530   -1.8020   22.9620 C   0  0  0  0  0  0  0  0  0  0  0  0
   11.5140    3.1960   31.5840 C   0  0  3  0  0  0  0  0  0  0  0  0
    8.8540   -0.0670   21.7610 C   0  0  0  0  0  0  0  0  0  0  0  0
   11.1820    4.5660   33.4990 C   0  0  2  0  0  0  0  0  0  0  0  0
   10.9720    3.1500   34.0890 C   0  0  2  0  0  0  0  0  0  0  0  0
    5.0050    1.4570   21.5960 C   0  0  0  0  0  0  0  0  0  0  0  0
   10.0870    5.5220   33.8480 C   0  0  0  0  0  0  0  0  0  0  0  0
    9.0950   -0.9840   23.0050 C   0  0  0  0  0  0  0  0  0  0  0  0
   11.5360    2.9000   35.4780 C   0  0  0  0  0  0  0  0  0  0  0  0
    7.1160    0.7940   17.8440 N   0  0  0  0  0  0  0  0  0  0  0  0
   11.3760    4.4320   32.0740 N   0  0  0  0  0  0  0  0  0  0  0  0
   11.5380    3.1060   30.2270 N   0  0  0  0  0  0  0  0  0  0  0  0
    7.5540    0.0600   21.3610 N   0  0  0  0  0  0  0  0  0  0  0  0
    9.7460    0.5160   21.1790 O   0  0  0  0  0  0  0  0  0  0  0  0
   12.7230   -1.0250   26.5470 O   0  0  0  0  0  0  0  0  0  0  0  0
   11.4950    1.9600   32.7880 S   0  0  0  0  0  0  0  0  0  0  0  0
   14.0410   -2.3850   21.8410 Cl  0  0  0  0  0  0  0  0  0  0  0  0
   11.2100    1.0940   36.1230 Br  0  0  0  0  0  0  0  0  0  0  0  0
   12.0050    3.4210   27.7170 H   0  0  0  0  0  0  0  0  0  0  0  0
   11.5180    0.2850   30.7620 H   0  0  0  0  0  0  0  0  0  0  0  0
   12.3280    1.5930   25.9780 H   0  0  0  0  0  0  0  0  0  0  0  0
   12.0130   -1.3110   29.1950 H   0  0  0  0  0  0  0  0  0  0  0  0
    4.2610    2.0420   18.9790 H   0  0  0  0  0  0  0  0  0  0  0  0
   10.1760   -0.4500   25.3280 H   0  0  0  0  0  0  0  0  0  0  0  0
   11.4180   -1.6170   21.4410 H   0  0  0  0  0  0  0  0  0  0  0  0
   14.2370   -1.9050   24.5470 H   0  0  0  0  0  0  0  0  0  0  0  0
    5.3820    1.5470   17.0050 H   0  0  0  0  0  0  0  0  0  0  0  0
    8.5410   -0.1920   18.9050 H   0  0  0  0  0  0  0  0  0  0  0  0
   12.1400    4.9390   33.8920 H   0  0  0  0  0  0  0  0  0  0  0  0
    9.8850    3.0400   34.1780 H   0  0  0  0  0  0  0  0  0  0  0  0
    4.0810    0.8600   21.6090 H   0  0  0  0  0  0  0  0  0  0  0  0
    5.6040    1.2210   22.4770 H   0  0  0  0  0  0  0  0  0  0  0  0
    4.6930    2.5000   21.5820 H   0  0  0  0  0  0  0  0  0  0  0  0
   10.0460    5.6990   34.9270 H   0  0  0  0  0  0  0  0  0  0  0  0
    9.1650    5.1070   33.4300 H   0  0  0  0  0  0  0  0  0  0  0  0
   10.2730    6.5030   33.4100 H   0  0  0  0  0  0  0  0  0  0  0  0
    8.6880   -1.9960   22.8970 H   0  0  0  0  0  0  0  0  0  0  0  0
    8.5800   -0.4320   23.7950 H   0  0  0  0  0  0  0  0  0  0  0  0
   11.1590    3.4970   36.3180 H   0  0  0  0  0  0  0  0  0  0  0  0
   12.6110    3.0790   35.5690 H   0  0  0  0  0  0  0  0  0  0  0  0
   11.5660    5.2650   31.5170 H   0  0  0  0  0  0  0  0  0  0  0  0
   11.4460    4.0070   29.7640 H   0  0  0  0  0  0  0  0  0  0  0  0
    6.9340   -0.3430   22.0730 H   0  0  0  0  0  0  0  0  0  0  0  0
  9 43  1  0  0  0  0
  9 26  2  0  0  0  0
 10 26  1  0  0  0  0
  5  9  1  0  0  0  0
 10 44  1  0  0  0  0
  5 39  1  0  0  0  0
 10 14  2  0  0  0  0
  5 11  2  0  0  0  0
 11 14  1  0  0  0  0
 14 29  1  0  0  0  0
 11 22  1  0  0  0  0
 19 30  2  0  0  0  0
 19 29  1  0  0  0  0
 29 59  1  0  0  0  0
  7 41  1  0  0  0  0
 22 49  1  0  0  0  0
 22 47  1  0  0  0  0
 22 48  1  0  0  0  0
 19 24  1  0  0  0  0
 17 33  1  0  0  0  0
  7 17  2  0  0  0  0
  7 12  1  0  0  0  0
 24 53  1  0  0  0  0
  8 17  1  0  0  0  0
 12 24  1  0  0  0  0
 24 54  1  0  0  0  0
  6 12  2  0  0  0  0
  8 42  1  0  0  0  0
  8 16  2  0  0  0  0
  6 16  1  0  0  0  0
  6 40  1  0  0  0  0
 16 31  1  0  0  0  0
  3 37  1  0  0  0  0
 15 31  1  0  0  0  0
  3 15  2  0  0  0  0
  1  3  1  0  0  0  0
  4 15  1  0  0  0  0
  1 35  1  0  0  0  0
  1 13  2  0  0  0  0
  4 38  1  0  0  0  0
  2  4  2  0  0  0  0
  2 13  1  0  0  0  0
 13 28  1  0  0  0  0
  2 36  1  0  0  0  0
 28 58  1  0  0  0  0
 18 28  1  0  0  0  0
 27 57  1  0  0  0  0
 18 27  1  0  0  0  0
 18 32  1  0  0  0  0
 20 27  1  0  0  0  0
 21 32  1  0  0  0  0
 23 52  1  0  0  0  0
 23 51  1  0  0  0  0
 20 23  1  0  0  0  0
 20 45  1  0  0  0  0
 20 21  1  0  0  0  0
 23 50  1  0  0  0  0
 21 46  1  0  0  0  0
 21 25  1  0  0  0  0
 25 56  1  0  0  0  0
 25 34  1  0  0  0  0
 25 55  1  0  0  0  0
M  END
> <CID>
EN300-1274638

> <SMILES>
Cc1ccncc1NC(=O)Cc2cc(cc(c2)Cl)Oc3ccc(cc3)NC4=[NH+][C@H]([C@@H](S4)CBr)C

> <RUN>
RUN3261

> <DDG (kcal/mol)>
-0.66

> <dDDG (kcal/mol)>
0.15

$$$$
EN300-378599
  -OEChem-08252008263D

 47 49  0     0  0  0  0  0  0999 V2000
   12.8490   -2.4000   21.7210 C   0  0  0  0  0  0  0  0  0  0  0  0
   12.2110   -3.4500   22.2700 C   0  0  0  0  0  0  0  0  0  0  0  0
    5.9550    1.6000   19.3710 C   0  0  0  0  0  0  0  0  0  0  0  0
   13.2000   -1.3320   23.8430 C   0  0  0  0  0  0  0  0  0  0  0  0
    9.1290   -3.8450   23.5880 C   0  0  0  0  0  0  0  0  0  0  0  0
    7.3960   -5.4660   23.3590 C   0  0  0  0  0  0  0  0  0  0  0  0
    9.5280   -6.1940   23.8970 C   0  0  0  0  0  0  0  0  0  0  0  0
    6.7550    1.1250   18.3720 C   0  0  0  0  0  0  0  0  0  0  0  0
    6.9140   -0.9920   19.2090 C   0  0  0  0  0  0  0  0  0  0  0  0
    5.7890    0.7420   20.4800 C   0  0  0  0  0  0  0  0  0  0  0  0
   12.4650   -2.4330   24.3950 C   0  0  0  0  0  0  0  0  0  0  0  0
    7.7560   -4.0980   23.3270 C   0  0  0  0  0  0  0  0  0  0  0  0
   13.3650   -1.3460   22.4290 C   0  0  0  0  0  0  0  0  0  0  0  0
    6.2730   -0.5990   20.4070 C   0  0  0  0  0  0  0  0  0  0  0  0
   11.9810   -3.4690   23.6270 C   0  0  0  0  0  0  0  0  0  0  0  0
   10.0390   -4.8530   23.9320 C   0  0  0  0  0  0  0  0  0  0  0  0
    8.2090   -6.4930   23.6340 C   0  0  0  0  0  0  0  0  0  0  0  0
    6.4210   -2.6220   21.7510 C   0  0  0  0  0  0  0  0  0  0  0  0
    5.4120    1.3150   21.8090 C   0  0  0  0  0  0  0  0  0  0  0  0
    6.6880   -3.0030   23.1600 C   0  0  0  0  0  0  0  0  0  0  0  0
   12.3890   -2.5550   25.8840 C   0  0  0  0  0  0  0  0  0  0  0  0
    7.1480   -0.1100   18.1920 N   0  0  0  0  0  0  0  0  0  0  0  0
    6.0180   -1.3680   21.4970 N   0  0  0  0  0  0  0  0  0  0  0  0
   14.0980   -0.3310   21.7980 N   0  0  0  0  0  0  0  0  0  0  0  0
    6.3040   -3.5730   20.8930 O   0  0  0  0  0  0  0  0  0  0  0  0
   14.3160    0.7490   22.3780 O   0  0  0  0  0  0  0  0  0  0  0  0
   14.5200   -0.5420   20.6600 O   0  0  0  0  0  0  0  0  0  0  0  0
   11.3640   -4.5860   24.2250 O   0  0  0  0  0  0  0  0  0  0  0  0
    7.6840   -8.0930   23.9380 Cl  0  0  0  0  0  0  0  0  0  0  0  0
   13.8910   -3.6200   26.6100 Br  0  0  0  0  0  0  0  0  0  0  0  0
   13.0020   -2.4350   20.6390 H   0  0  0  0  0  0  0  0  0  0  0  0
   12.0250   -4.2790   21.6020 H   0  0  0  0  0  0  0  0  0  0  0  0
    5.6130    2.6280   19.4310 H   0  0  0  0  0  0  0  0  0  0  0  0
   13.7660   -0.5620   24.3480 H   0  0  0  0  0  0  0  0  0  0  0  0
    9.4940   -2.8230   23.5540 H   0  0  0  0  0  0  0  0  0  0  0  0
    6.3570   -5.6240   23.0810 H   0  0  0  0  0  0  0  0  0  0  0  0
   10.1350   -7.0480   24.1590 H   0  0  0  0  0  0  0  0  0  0  0  0
    7.0390    1.8140   17.5750 H   0  0  0  0  0  0  0  0  0  0  0  0
    7.1970   -2.0260   19.0730 H   0  0  0  0  0  0  0  0  0  0  0  0
    5.3730    2.4070   21.7280 H   0  0  0  0  0  0  0  0  0  0  0  0
    4.4400    0.9760   22.1870 H   0  0  0  0  0  0  0  0  0  0  0  0
    6.0770    1.0930   22.6430 H   0  0  0  0  0  0  0  0  0  0  0  0
    5.7690   -3.2970   23.6760 H   0  0  0  0  0  0  0  0  0  0  0  0
    7.1120   -2.1620   23.7090 H   0  0  0  0  0  0  0  0  0  0  0  0
   12.4430   -1.5720   26.3710 H   0  0  0  0  0  0  0  0  0  0  0  0
   11.4960   -3.1300   26.1780 H   0  0  0  0  0  0  0  0  0  0  0  0
    5.7020   -0.7970   22.2870 H   0  0  0  0  0  0  0  0  0  0  0  0
  8 38  1  0  0  0  0
  8 22  2  0  0  0  0
  9 22  1  0  0  0  0
  3  8  1  0  0  0  0
  9 39  1  0  0  0  0
  9 14  2  0  0  0  0
  3 33  1  0  0  0  0
  3 10  2  0  0  0  0
 10 14  1  0  0  0  0
 14 23  1  0  0  0  0
 10 19  1  0  0  0  0
  1 31  1  0  0  0  0
 24 27  2  0  0  0  0
 18 25  2  0  0  0  0
 18 23  1  0  0  0  0
 23 47  1  0  0  0  0
  2 32  1  0  0  0  0
  1  2  2  0  0  0  0
  1 13  1  0  0  0  0
 19 40  1  0  0  0  0
 18 20  1  0  0  0  0
 24 26  2  0  0  0  0
 13 24  1  0  0  0  0
 19 41  1  0  0  0  0
 19 42  1  0  0  0  0
  2 15  1  0  0  0  0
  4 13  2  0  0  0  0
  6 36  1  0  0  0  0
 12 20  1  0  0  0  0
 20 43  1  0  0  0  0
 20 44  1  0  0  0  0
  6 12  2  0  0  0  0
  5 12  1  0  0  0  0
  6 17  1  0  0  0  0
  5 35  1  0  0  0  0
  5 16  2  0  0  0  0
 15 28  1  0  0  0  0
 11 15  2  0  0  0  0
  7 17  2  0  0  0  0
 17 29  1  0  0  0  0
  4 34  1  0  0  0  0
  4 11  1  0  0  0  0
  7 16  1  0  0  0  0
  7 37  1  0  0  0  0
 16 28  1  0  0  0  0
 11 21  1  0  0  0  0
 21 46  1  0  0  0  0
 21 45  1  0  0  0  0
 21 30  1  0  0  0  0
M  END
> <CID>
EN300-378599

> <SMILES>
Cc1ccncc1NC(=O)Cc2cc(cc(c2)Cl)Oc3ccc(cc3CBr)N(=O)=O

> <RUN>
RUN2138

> <DDG (kcal/mol)>
-0.65

> <dDDG (kcal/mol)>
0.14

$$$$
EN300-219510
  -OEChem-08252008263D

 45 47  0     0  0  0  0  0  0999 V2000
    9.4650   -3.7960   25.9610 C   0  0  0  0  0  0  0  0  0  0  0  0
    8.4550   -4.6030   26.5050 C   0  0  0  0  0  0  0  0  0  0  0  0
    6.1840    1.5630   19.9040 C   0  0  0  0  0  0  0  0  0  0  0  0
    9.8910   -2.3550   23.4910 C   0  0  0  0  0  0  0  0  0  0  0  0
   11.5540   -2.0880   21.7600 C   0  0  0  0  0  0  0  0  0  0  0  0
    7.3780   -2.6460   27.4460 C   0  0  0  0  0  0  0  0  0  0  0  0
   11.9310   -1.1530   23.9760 C   0  0  0  0  0  0  0  0  0  0  0  0
    5.9650    1.3330   18.5790 C   0  0  0  0  0  0  0  0  0  0  0  0
    7.0200   -0.6570   18.7490 C   0  0  0  0  0  0  0  0  0  0  0  0
    6.8600    0.6560   20.7350 C   0  0  0  0  0  0  0  0  0  0  0  0
   10.3030   -2.5760   22.1660 C   0  0  0  0  0  0  0  0  0  0  0  0
    8.4230   -1.8650   26.9900 C   0  0  0  0  0  0  0  0  0  0  0  0
    7.3580   -0.4840   20.1520 C   0  0  0  0  0  0  0  0  0  0  0  0
    9.5020   -2.4030   26.2610 C   0  0  0  0  0  0  0  0  0  0  0  0
   10.7440   -1.6730   24.4400 C   0  0  0  0  0  0  0  0  0  0  0  0
    7.3980   -4.0190   27.2380 C   0  0  0  0  0  0  0  0  0  0  0  0
   12.3500   -1.3440   22.6420 C   0  0  0  0  0  0  0  0  0  0  0  0
    8.3770   -2.7460   20.4700 C   0  0  0  0  0  0  0  0  0  0  0  0
    7.1960    1.0680   22.1370 C   0  0  0  0  0  0  0  0  0  0  0  0
    9.4830   -3.4990   21.2690 C   0  0  0  0  0  0  0  0  0  0  0  0
    8.5080   -0.4070   27.4770 C   0  0  0  0  0  0  0  0  0  0  0  0
    6.4000    0.2270   18.0270 N   0  0  0  0  0  0  0  0  0  0  0  0
    8.0950   -1.4390   20.8800 N   0  0  0  0  0  0  0  0  0  0  0  0
    7.5410   -3.4090   19.8650 O   0  0  0  0  0  0  0  0  0  0  0  0
   10.5060   -1.5800   25.7880 O   0  0  0  0  0  0  0  0  0  0  0  0
    6.2000   -4.9650   27.8900 Cl  0  0  0  0  0  0  0  0  0  0  0  0
   13.8320   -0.6710   22.0640 Cl  0  0  0  0  0  0  0  0  0  0  0  0
    7.1710    0.7050   26.6420 Br  0  0  0  0  0  0  0  0  0  0  0  0
   10.3530   -4.2820   25.5640 H   0  0  0  0  0  0  0  0  0  0  0  0
    8.4790   -5.6740   26.3810 H   0  0  0  0  0  0  0  0  0  0  0  0
    5.9020    2.5440   20.2580 H   0  0  0  0  0  0  0  0  0  0  0  0
    8.8740   -2.6410   23.7460 H   0  0  0  0  0  0  0  0  0  0  0  0
   11.9400   -2.2560   20.7590 H   0  0  0  0  0  0  0  0  0  0  0  0
    6.5390   -2.3450   28.0700 H   0  0  0  0  0  0  0  0  0  0  0  0
   12.5560   -0.5550   24.6230 H   0  0  0  0  0  0  0  0  0  0  0  0
    5.4200    2.0160   17.9430 H   0  0  0  0  0  0  0  0  0  0  0  0
    7.3520   -1.5550   18.2320 H   0  0  0  0  0  0  0  0  0  0  0  0
    6.3820    0.7200   22.7900 H   0  0  0  0  0  0  0  0  0  0  0  0
    8.1190    0.5850   22.4630 H   0  0  0  0  0  0  0  0  0  0  0  0
    7.2700    2.1570   22.2430 H   0  0  0  0  0  0  0  0  0  0  0  0
   10.1520   -3.9880   20.5580 H   0  0  0  0  0  0  0  0  0  0  0  0
    8.9840   -4.1570   21.9830 H   0  0  0  0  0  0  0  0  0  0  0  0
    8.3350   -0.3390   28.5530 H   0  0  0  0  0  0  0  0  0  0  0  0
    9.5220   -0.0880   27.2050 H   0  0  0  0  0  0  0  0  0  0  0  0
    8.6310   -1.1210   21.6850 H   0  0  0  0  0  0  0  0  0  0  0  0
  8 36  1  0  0  0  0
  8 22  2  0  0  0  0
  9 22  1  0  0  0  0
  9 37  1  0  0  0  0
  3  8  1  0  0  0  0
  9 13  2  0  0  0  0
 18 24  2  0  0  0  0
  3 31  1  0  0  0  0
  3 10  2  0  0  0  0
 10 13  1  0  0  0  0
 13 23  1  0  0  0  0
 18 23  1  0  0  0  0
 18 20  1  0  0  0  0
 20 41  1  0  0  0  0
 10 19  1  0  0  0  0
  5 33  1  0  0  0  0
 23 45  1  0  0  0  0
 20 42  1  0  0  0  0
 11 20  1  0  0  0  0
  5 11  2  0  0  0  0
  5 17  1  0  0  0  0
 17 27  1  0  0  0  0
 19 40  1  0  0  0  0
 19 39  1  0  0  0  0
 19 38  1  0  0  0  0
  4 11  1  0  0  0  0
  7 17  2  0  0  0  0
  4 32  1  0  0  0  0
  4 15  2  0  0  0  0
  7 15  1  0  0  0  0
  7 35  1  0  0  0  0
 15 25  1  0  0  0  0
  1 29  1  0  0  0  0
 14 25  1  0  0  0  0
  1 14  2  0  0  0  0
  1  2  1  0  0  0  0
 12 14  1  0  0  0  0
  2 30  1  0  0  0  0
  2 16  2  0  0  0  0
 21 28  1  0  0  0  0
  6 12  2  0  0  0  0
 12 21  1  0  0  0  0
 21 44  1  0  0  0  0
  6 16  1  0  0  0  0
 16 26  1  0  0  0  0
  6 34  1  0  0  0  0
 21 43  1  0  0  0  0
M  END
> <CID>
EN300-219510

> <SMILES>
Cc1ccncc1NC(=O)Cc2cc(cc(c2)Cl)Oc3ccc(cc3CBr)Cl

> <RUN>
RUN1021

> <DDG (kcal/mol)>
-0.62

> <dDDG (kcal/mol)>
0.13

$$$$
EN300-16612
  -OEChem-08252008263D

 52 54  0     0  0  0  0  0  0999 V2000
   11.0100    6.6280   26.5270 C   0  0  0  0  0  0  0  0  0  0  0  0
   10.1080    6.5710   27.5700 C   0  0  0  0  0  0  0  0  0  0  0  0
    3.9450    0.5190   19.1210 C   0  0  0  0  0  0  0  0  0  0  0  0
   10.4060    4.3360   25.9370 C   0  0  0  0  0  0  0  0  0  0  0  0
   10.6790    1.7620   22.9300 C   0  0  0  0  0  0  0  0  0  0  0  0
   11.0990   -0.3480   21.8870 C   0  0  0  0  0  0  0  0  0  0  0  0
   12.8990    1.2770   22.1640 C   0  0  0  0  0  0  0  0  0  0  0  0
    4.5500    0.8110   17.8830 C   0  0  0  0  0  0  0  0  0  0  0  0
    6.5780    0.2470   18.8000 C   0  0  0  0  0  0  0  0  0  0  0  0
   11.1550    5.4930   25.6040 C   0  0  0  0  0  0  0  0  0  0  0  0
    9.4810    4.2930   26.9650 C   0  0  0  0  0  0  0  0  0  0  0  0
    4.6470    0.2250   20.2400 C   0  0  0  0  0  0  0  0  0  0  0  0
   10.2590    0.5320   22.5910 C   0  0  0  0  0  0  0  0  0  0  0  0
    6.0200    0.0950   20.0530 C   0  0  0  0  0  0  0  0  0  0  0  0
    9.2250    5.4580   27.7450 C   0  0  0  0  0  0  0  0  0  0  0  0
   11.9920    2.1930   22.7510 C   0  0  0  0  0  0  0  0  0  0  0  0
   12.4290   -0.0340   21.7310 C   0  0  0  0  0  0  0  0  0  0  0  0
   12.0370    5.5820   24.4170 C   0  0  0  0  0  0  0  0  0  0  0  0
    8.8020    2.9800   27.1710 C   0  0  0  0  0  0  0  0  0  0  0  0
    7.9650    0.5320   21.4830 C   0  0  0  0  0  0  0  0  0  0  0  0
    3.9740   -0.1760   21.5470 C   0  0  0  0  0  0  0  0  0  0  0  0
    8.8220    0.0630   22.6550 C   0  0  0  0  0  0  0  0  0  0  0  0
   11.7840    4.5880   23.2600 C   0  0  0  0  0  0  0  0  0  0  0  0
    5.8930    0.6540   17.6830 N   0  0  0  0  0  0  0  0  0  0  0  0
    7.9440    2.6800   28.2470 N   0  0  0  0  0  0  0  0  0  0  0  0
    6.8110   -0.1570   21.1690 N   0  0  0  0  0  0  0  0  0  0  0  0
   13.0560    6.2070   24.6000 O   0  0  0  0  0  0  0  0  0  0  0  0
    8.7640    2.1700   26.2520 O   0  0  0  0  0  0  0  0  0  0  0  0
    8.2900    1.5320   20.7810 O   0  0  0  0  0  0  0  0  0  0  0  0
    8.1920    5.4810   28.6580 O   0  0  0  0  0  0  0  0  0  0  0  0
   12.5540    3.3460   23.3010 O   0  0  0  0  0  0  0  0  0  0  0  0
   13.5550   -1.2010   21.0380 Cl  0  0  0  0  0  0  0  0  0  0  0  0
   11.5490    7.5600   26.3700 H   0  0  0  0  0  0  0  0  0  0  0  0
    9.9120    7.4920   28.1220 H   0  0  0  0  0  0  0  0  0  0  0  0
    2.8800    0.6760   19.2000 H   0  0  0  0  0  0  0  0  0  0  0  0
   10.5910    3.5070   25.2520 H   0  0  0  0  0  0  0  0  0  0  0  0
    9.9860    2.4150   23.4600 H   0  0  0  0  0  0  0  0  0  0  0  0
   10.8060   -1.3230   21.5150 H   0  0  0  0  0  0  0  0  0  0  0  0
   13.9450    1.4370   21.9510 H   0  0  0  0  0  0  0  0  0  0  0  0
    3.9830    1.1880   17.0420 H   0  0  0  0  0  0  0  0  0  0  0  0
    7.6470    0.1130   18.7560 H   0  0  0  0  0  0  0  0  0  0  0  0
    2.9440    0.1760   21.4890 H   0  0  0  0  0  0  0  0  0  0  0  0
    3.9930   -1.2740   21.6010 H   0  0  0  0  0  0  0  0  0  0  0  0
    4.4310    0.2190   22.4600 H   0  0  0  0  0  0  0  0  0  0  0  0
    8.6660   -1.0090   22.7700 H   0  0  0  0  0  0  0  0  0  0  0  0
    8.3940    0.4340   23.5930 H   0  0  0  0  0  0  0  0  0  0  0  0
   12.1310    5.1010   22.3540 H   0  0  0  0  0  0  0  0  0  0  0  0
   10.6890    4.5900   23.2980 H   0  0  0  0  0  0  0  0  0  0  0  0
    7.5910    1.7270   28.2800 H   0  0  0  0  0  0  0  0  0  0  0  0
    7.7550    3.3290   29.0060 H   0  0  0  0  0  0  0  0  0  0  0  0
    6.4480   -0.7220   21.9410 H   0  0  0  0  0  0  0  0  0  0  0  0
    8.0810    6.4030   28.9290 H   0  0  0  0  0  0  0  0  0  0  0  0
  8 40  1  0  0  0  0
  8 24  2  0  0  0  0
  9 24  1  0  0  0  0
  3  8  1  0  0  0  0
  9 41  1  0  0  0  0
  9 14  2  0  0  0  0
  3 35  1  0  0  0  0
  3 12  2  0  0  0  0
 12 14  1  0  0  0  0
 14 26  1  0  0  0  0
 12 21  1  0  0  0  0
 20 29  2  0  0  0  0
 17 32  1  0  0  0  0
 20 26  1  0  0  0  0
 26 51  1  0  0  0  0
 20 22  1  0  0  0  0
 21 42  1  0  0  0  0
  6 38  1  0  0  0  0
 21 43  1  0  0  0  0
 21 44  1  0  0  0  0
  6 17  2  0  0  0  0
  7 17  1  0  0  0  0
  6 13  1  0  0  0  0
  7 39  1  0  0  0  0
  7 16  2  0  0  0  0
 23 47  1  0  0  0  0
 13 22  1  0  0  0  0
  5 13  2  0  0  0  0
 22 45  1  0  0  0  0
 22 46  1  0  0  0  0
  5 16  1  0  0  0  0
 16 31  1  0  0  0  0
  5 37  1  0  0  0  0
 23 48  1  0  0  0  0
 23 31  1  0  0  0  0
 18 23  1  0  0  0  0
 18 27  2  0  0  0  0
 10 18  1  0  0  0  0
  4 36  1  0  0  0  0
  4 10  2  0  0  0  0
  1 10  1  0  0  0  0
  4 11  1  0  0  0  0
 19 28  2  0  0  0  0
  1 33  1  0  0  0  0
  1  2  2  0  0  0  0
 11 19  1  0  0  0  0
 11 15  2  0  0  0  0
 19 25  1  0  0  0  0
  2 15  1  0  0  0  0
  2 34  1  0  0  0  0
 15 30  1  0  0  0  0
 25 49  1  0  0  0  0
 25 50  1  0  0  0  0
 30 52  1  0  0  0  0
M  END
> <CID>
EN300-16612

> <SMILES>
Cc1ccncc1NC(=O)Cc2cc(cc(c2)Cl)OCC(=O)c3ccc(c(c3)C(=O)N)O

> <RUN>
RUN4581

> <DDG (kcal/mol)>
-0.62

> <dDDG (kcal/mol)>
0.44

$$$$
EN300-695739
  -OEChem-08252008263D

 60 63  0     1  0  0  0  0  0999 V2000
    4.9380    2.6150   19.1320 C   0  0  0  0  0  0  0  0  0  0  0  0
   11.3140    1.8310   23.1880 C   0  0  0  0  0  0  0  0  0  0  0  0
   11.3760   -0.4820   22.4490 C   0  0  0  0  0  0  0  0  0  0  0  0
   13.4130    0.7220   22.7630 C   0  0  0  0  0  0  0  0  0  0  0  0
    5.5500    2.3560   17.9690 C   0  0  0  0  0  0  0  0  0  0  0  0
    7.1040    0.9960   18.8630 C   0  0  0  0  0  0  0  0  0  0  0  0
    5.4260    1.9860   20.2890 C   0  0  0  0  0  0  0  0  0  0  0  0
   10.5980    0.6240   22.8500 C   0  0  0  0  0  0  0  0  0  0  0  0
    6.5540    1.2490   20.1690 C   0  0  0  0  0  0  0  0  0  0  0  0
   12.7440    1.8770   23.1480 C   0  0  0  0  0  0  0  0  0  0  0  0
   12.7630   -0.4890   22.4270 C   0  0  0  0  0  0  0  0  0  0  0  0
   12.4330    4.7560   24.6080 C   0  0  0  0  0  0  0  0  0  0  0  0
   11.7140    5.8800   24.7930 C   0  0  0  0  0  0  0  0  0  0  0  0
    8.4850    1.0300   21.6810 C   0  0  0  0  0  0  0  0  0  0  0  0
   10.1080    6.8800   28.0900 C   0  0  0  0  0  0  0  0  0  0  0  0
   10.1670    8.1770   28.9180 C   0  0  0  0  0  0  0  0  0  0  0  0
   12.1210    8.0360   27.4480 C   0  0  0  0  0  0  0  0  0  0  0  0
   11.0240    7.1150   26.9220 C   0  0  1  0  0  0  0  0  0  0  0  0
   11.5780    8.6310   28.8200 C   0  0  1  0  0  0  0  0  0  0  0  0
    4.8220    2.4090   21.6070 C   0  0  0  0  0  0  0  0  0  0  0  0
   10.9600    6.8030   23.8170 C   0  0  0  0  0  0  0  0  0  0  0  0
    9.1210    0.4860   22.8970 C   0  0  0  0  0  0  0  0  0  0  0  0
   12.8990    4.2880   23.2840 C   0  0  0  0  0  0  0  0  0  0  0  0
    6.6530    1.5410   17.7890 N   0  0  0  0  0  0  0  0  0  0  0  0
   12.6430    4.1150   25.7420 N   0  0  0  0  0  0  0  0  0  0  0  0
   12.0650    4.7960   26.6750 N   0  0  0  0  0  0  0  0  0  0  0  0
   11.4930    5.8990   26.1650 N   0  0  0  0  0  0  0  0  0  0  0  0
    7.1440    0.6950   21.2980 N   0  0  0  0  0  0  0  0  0  0  0  0
   11.6360   10.0840   28.7660 N   0  3  0  0  0  0  0  0  0  0  0  0
    9.1470    1.8170   21.0800 O   0  0  0  0  0  0  0  0  0  0  0  0
   13.5460    3.0040   23.3960 O   0  0  0  0  0  0  0  0  0  0  0  0
   13.7020   -1.9200   22.2210 Cl  0  0  0  0  0  0  0  0  0  0  0  0
    4.1000    3.3080   19.0830 H   0  0  0  0  0  0  0  0  0  0  0  0
   10.8110    2.7550   23.4910 H   0  0  0  0  0  0  0  0  0  0  0  0
   10.9210   -1.4670   22.3620 H   0  0  0  0  0  0  0  0  0  0  0  0
   14.5010    0.7640   22.7320 H   0  0  0  0  0  0  0  0  0  0  0  0
    5.1530    2.8440   17.0900 H   0  0  0  0  0  0  0  0  0  0  0  0
    7.9770    0.3560   18.9060 H   0  0  0  0  0  0  0  0  0  0  0  0
   10.4820    6.0600   28.7050 H   0  0  0  0  0  0  0  0  0  0  0  0
    9.0900    6.5920   27.7930 H   0  0  0  0  0  0  0  0  0  0  0  0
    9.4890    8.9400   28.5220 H   0  0  0  0  0  0  0  0  0  0  0  0
    9.9090    7.9890   29.9700 H   0  0  0  0  0  0  0  0  0  0  0  0
   12.1750    8.8300   26.6950 H   0  0  0  0  0  0  0  0  0  0  0  0
   13.1190    7.5820   27.4030 H   0  0  0  0  0  0  0  0  0  0  0  0
   10.4580    7.7670   26.2570 H   0  0  0  0  0  0  0  0  0  0  0  0
   12.2210    8.3200   29.6500 H   0  0  0  0  0  0  0  0  0  0  0  0
    5.0880    3.4700   21.6600 H   0  0  0  0  0  0  0  0  0  0  0  0
    3.7380    2.2220   21.6490 H   0  0  0  0  0  0  0  0  0  0  0  0
    5.2280    1.9730   22.5310 H   0  0  0  0  0  0  0  0  0  0  0  0
    9.8810    6.6420   23.9410 H   0  0  0  0  0  0  0  0  0  0  0  0
   11.2490    7.8270   24.0800 H   0  0  0  0  0  0  0  0  0  0  0  0
   11.2210    6.6620   22.7760 H   0  0  0  0  0  0  0  0  0  0  0  0
    8.9050   -0.5900   22.9330 H   0  0  0  0  0  0  0  0  0  0  0  0
    8.7590    1.0560   23.7590 H   0  0  0  0  0  0  0  0  0  0  0  0
   12.1180    4.2480   22.5190 H   0  0  0  0  0  0  0  0  0  0  0  0
   13.6090    5.0490   22.9530 H   0  0  0  0  0  0  0  0  0  0  0  0
    6.7300   -0.0130   21.9070 H   0  0  0  0  0  0  0  0  0  0  0  0
   11.3800   10.3280   27.8090 H   0  0  0  0  0  0  0  0  0  0  0  0
   12.5530   10.4960   28.9550 H   0  0  0  0  0  0  0  0  0  0  0  0
   10.8940   10.5210   29.3060 H   0  0  0  0  0  0  0  0  0  0  0  0
  5 37  1  0  0  0  0
  5 24  2  0  0  0  0
  6 24  1  0  0  0  0
  1  5  1  0  0  0  0
  6 38  1  0  0  0  0
  6  9  2  0  0  0  0
  1 33  1  0  0  0  0
  1  7  2  0  0  0  0
  7  9  1  0  0  0  0
  9 28  1  0  0  0  0
  7 20  1  0  0  0  0
 14 30  2  0  0  0  0
 14 28  1  0  0  0  0
 28 57  1  0  0  0  0
 20 48  1  0  0  0  0
 20 47  1  0  0  0  0
 20 49  1  0  0  0  0
 14 22  1  0  0  0  0
 11 32  1  0  0  0  0
  3 35  1  0  0  0  0
  3 11  2  0  0  0  0
  4 11  1  0  0  0  0
  3  8  1  0  0  0  0
 23 55  1  0  0  0  0
  4 36  1  0  0  0  0
  4 10  2  0  0  0  0
 21 52  1  0  0  0  0
  8 22  1  0  0  0  0
  2  8  2  0  0  0  0
 22 53  1  0  0  0  0
 22 54  1  0  0  0  0
 23 56  1  0  0  0  0
  2 10  1  0  0  0  0
 10 31  1  0  0  0  0
  2 34  1  0  0  0  0
 23 31  1  0  0  0  0
 12 23  1  0  0  0  0
 21 50  1  0  0  0  0
 21 51  1  0  0  0  0
 13 21  1  0  0  0  0
 12 13  2  0  0  0  0
 12 25  1  0  0  0  0
 13 27  1  0  0  0  0
 25 26  2  0  0  0  0
 26 27  1  0  0  0  0
 18 27  1  0  0  0  0
 18 45  1  0  0  0  0
 17 43  1  0  0  0  0
 17 18  1  0  0  0  0
 15 18  1  0  0  0  0
 17 44  1  0  0  0  0
 17 19  1  0  0  0  0
 15 40  1  0  0  0  0
 29 58  1  0  0  0  0
 15 39  1  0  0  0  0
 15 16  1  0  0  0  0
 16 41  1  0  0  0  0
 19 29  1  0  0  0  0
 29 59  1  0  0  0  0
 29 60  1  0  0  0  0
 16 19  1  0  0  0  0
 19 46  1  0  0  0  0
 16 42  1  0  0  0  0
M  CHG  1  29   1
M  END
> <CID>
EN300-695739

> <SMILES>
Cc1ccncc1NC(=O)Cc2cc(cc(c2)Cl)OCc3c(n(nn3)[C@@H]4CC[C@@H](C4)[NH3+])C

> <RUN>
RUN1003

> <DDG (kcal/mol)>
-0.61

> <dDDG (kcal/mol)>
0.17

$$$$
EN300-1923485
  -OEChem-08252008263D

 44 46  0     0  0  0  0  0  0999 V2000
    5.9840    2.1030   18.3030 C   0  0  0  0  0  0  0  0  0  0  0  0
   10.4720   -0.4190   22.4940 C   0  0  0  0  0  0  0  0  0  0  0  0
   11.0250   -2.6310   21.5050 C   0  0  0  0  0  0  0  0  0  0  0  0
   12.7250   -0.9660   21.8400 C   0  0  0  0  0  0  0  0  0  0  0  0
   13.4100    4.1510   22.3120 C   0  0  0  0  0  0  0  0  0  0  0  0
    6.4580    1.4700   17.1090 C   0  0  0  0  0  0  0  0  0  0  0  0
    7.4750   -0.2850   18.2520 C   0  0  0  0  0  0  0  0  0  0  0  0
    6.3260    1.4820   19.5540 C   0  0  0  0  0  0  0  0  0  0  0  0
   10.1160   -1.7530   22.0910 C   0  0  0  0  0  0  0  0  0  0  0  0
    7.0570    0.2440   19.5310 C   0  0  0  0  0  0  0  0  0  0  0  0
   11.8240   -0.0320   22.3930 C   0  0  0  0  0  0  0  0  0  0  0  0
   12.3570   -2.2010   21.3620 C   0  0  0  0  0  0  0  0  0  0  0  0
   13.7070    3.0460   23.1100 C   0  0  0  0  0  0  0  0  0  0  0  0
   13.7900    5.2170   23.0100 C   0  0  0  0  0  0  0  0  0  0  0  0
    7.8230   -1.7220   20.9100 C   0  0  0  0  0  0  0  0  0  0  0  0
    5.7200    2.1290   20.8390 C   0  0  0  0  0  0  0  0  0  0  0  0
    8.6420   -2.1400   22.0930 C   0  0  0  0  0  0  0  0  0  0  0  0
   13.5190    1.6410   22.7080 C   0  0  0  0  0  0  0  0  0  0  0  0
    7.2180    0.3760   17.1180 N   0  0  0  0  0  0  0  0  0  0  0  0
   14.2020    3.3940   24.3050 N   0  0  0  0  0  0  0  0  0  0  0  0
   14.2770    4.7410   24.2410 N   0  0  0  0  0  0  0  0  0  0  0  0
    7.4920   -0.3410   20.7490 N   0  0  0  0  0  0  0  0  0  0  0  0
   13.8690    6.5890   22.7530 N   0  0  0  0  0  0  0  0  0  0  0  0
    7.5390   -2.5830   20.0790 O   0  0  0  0  0  0  0  0  0  0  0  0
   13.9120    6.9580   21.5310 O   0  0  0  0  0  0  0  0  0  0  0  0
   13.9610    7.3790   23.7500 O   0  0  0  0  0  0  0  0  0  0  0  0
   12.1520    1.1600   22.7940 O   0  0  0  0  0  0  0  0  0  0  0  0
   13.6470   -3.1420   20.7140 Cl  0  0  0  0  0  0  0  0  0  0  0  0
    5.4030    3.0180   18.2310 H   0  0  0  0  0  0  0  0  0  0  0  0
    9.7380    0.3220   22.7840 H   0  0  0  0  0  0  0  0  0  0  0  0
   10.7350   -3.5530   21.0090 H   0  0  0  0  0  0  0  0  0  0  0  0
   13.7700   -0.7080   21.6910 H   0  0  0  0  0  0  0  0  0  0  0  0
   12.9540    4.1220   21.3290 H   0  0  0  0  0  0  0  0  0  0  0  0
    6.0590    2.0000   16.2440 H   0  0  0  0  0  0  0  0  0  0  0  0
    8.1220   -1.1590   18.2100 H   0  0  0  0  0  0  0  0  0  0  0  0
    6.3000    2.9890   21.1740 H   0  0  0  0  0  0  0  0  0  0  0  0
    4.7230    2.5460   20.6900 H   0  0  0  0  0  0  0  0  0  0  0  0
    5.7390    1.3870   21.6510 H   0  0  0  0  0  0  0  0  0  0  0  0
    8.6040   -3.2350   22.1430 H   0  0  0  0  0  0  0  0  0  0  0  0
    8.3170   -1.7600   23.0680 H   0  0  0  0  0  0  0  0  0  0  0  0
   13.7860    1.6330   21.6430 H   0  0  0  0  0  0  0  0  0  0  0  0
   14.2070    1.1000   23.3590 H   0  0  0  0  0  0  0  0  0  0  0  0
   14.7840    5.3070   24.9140 H   0  0  0  0  0  0  0  0  0  0  0  0
    7.5780    0.2130   21.6090 H   0  0  0  0  0  0  0  0  0  0  0  0
  6 34  1  0  0  0  0
  6 19  2  0  0  0  0
  1  6  1  0  0  0  0
  7 19  1  0  0  0  0
  7 35  1  0  0  0  0
  1 29  1  0  0  0  0
  7 10  2  0  0  0  0
  1  8  2  0  0  0  0
  8 10  1  0  0  0  0
 10 22  1  0  0  0  0
  8 16  1  0  0  0  0
 15 24  2  0  0  0  0
 16 37  1  0  0  0  0
 12 28  1  0  0  0  0
 15 22  1  0  0  0  0
 22 44  1  0  0  0  0
 16 36  1  0  0  0  0
 16 38  1  0  0  0  0
 15 17  1  0  0  0  0
  3 31  1  0  0  0  0
  5 33  1  0  0  0  0
  3 12  2  0  0  0  0
  4 12  1  0  0  0  0
  3  9  1  0  0  0  0
 23 25  2  0  0  0  0
 18 41  1  0  0  0  0
  4 32  1  0  0  0  0
  4 11  2  0  0  0  0
  9 17  1  0  0  0  0
  2  9  2  0  0  0  0
 17 39  1  0  0  0  0
 17 40  1  0  0  0  0
  5 14  2  0  0  0  0
  5 13  1  0  0  0  0
  2 11  1  0  0  0  0
 11 27  1  0  0  0  0
  2 30  1  0  0  0  0
 18 27  1  0  0  0  0
 13 18  1  0  0  0  0
 18 42  1  0  0  0  0
 14 23  1  0  0  0  0
 23 26  2  0  0  0  0
 14 21  1  0  0  0  0
 13 20  2  0  0  0  0
 20 21  1  0  0  0  0
 21 43  1  0  0  0  0
M  END
> <CID>
EN300-1923485

> <SMILES>
Cc1ccncc1NC(=O)Cc2cc(cc(c2)Cl)OCc3cc([nH]n3)N(=O)=O

> <RUN>
RUN2661

> <DDG (kcal/mol)>
-0.61

> <dDDG (kcal/mol)>
0.13

$$$$
EN300-135871
  -OEChem-08252008263D

 47 48  0     0  0  0  0  0  0999 V2000
    7.2950    5.1270   22.2350 C   0  0  0  0  0  0  0  0  0  0  0  0
    8.2490    5.5460   22.9700 C   0  0  0  0  0  0  0  0  0  0  0  0
    6.5450   -0.2630   19.1510 C   0  0  0  0  0  0  0  0  0  0  0  0
   10.6080    0.6670   23.0790 C   0  0  0  0  0  0  0  0  0  0  0  0
   11.7620   -1.4860   22.9810 C   0  0  0  0  0  0  0  0  0  0  0  0
   12.8090    0.5000   22.1900 C   0  0  0  0  0  0  0  0  0  0  0  0
    6.1640   -1.5080   18.5850 C   0  0  0  0  0  0  0  0  0  0  0  0
    6.6890   -2.5320   20.5780 C   0  0  0  0  0  0  0  0  0  0  0  0
    6.9510   -0.1520   20.4910 C   0  0  0  0  0  0  0  0  0  0  0  0
   10.6340   -0.7260   23.3880 C   0  0  0  0  0  0  0  0  0  0  0  0
    7.0910   -1.2960   21.1840 C   0  0  0  0  0  0  0  0  0  0  0  0
   11.7160    1.2680   22.5130 C   0  0  0  0  0  0  0  0  0  0  0  0
   12.8970   -0.8670   22.4660 C   0  0  0  0  0  0  0  0  0  0  0  0
    8.5380   -1.9840   22.9360 C   0  0  0  0  0  0  0  0  0  0  0  0
   12.3770    4.9220   22.7540 C   0  0  0  0  0  0  0  0  0  0  0  0
    7.2440    1.2940   20.9790 C   0  0  0  0  0  0  0  0  0  0  0  0
    9.3040    6.0500   23.8270 C   0  0  0  0  0  0  0  0  0  0  0  0
    9.4830   -1.3790   24.0200 C   0  0  0  0  0  0  0  0  0  0  0  0
   12.7180    3.4680   22.3630 C   0  0  0  0  0  0  0  0  0  0  0  0
   10.4980    6.6500   23.0420 C   0  0  0  0  0  0  0  0  0  0  0  0
    6.2500   -2.6270   19.3210 N   0  0  0  0  0  0  0  0  0  0  0  0
    7.5890   -1.2090   22.4370 N   0  0  0  0  0  0  0  0  0  0  0  0
   11.2380    5.5940   22.3450 N   0  0  0  0  0  0  0  0  0  0  0  0
    8.8790   -3.0380   22.3210 O   0  0  0  0  0  0  0  0  0  0  0  0
   13.1820    5.5220   23.4590 O   0  0  0  0  0  0  0  0  0  0  0  0
   11.5670    2.6280   22.3860 O   0  0  0  0  0  0  0  0  0  0  0  0
   14.3140   -1.8500   22.1580 Cl  0  0  0  0  0  0  0  0  0  0  0  0
    6.5090    4.6620   21.6730 H   0  0  0  0  0  0  0  0  0  0  0  0
    6.7070    0.5780   18.4800 H   0  0  0  0  0  0  0  0  0  0  0  0
    9.7430    1.2580   23.3900 H   0  0  0  0  0  0  0  0  0  0  0  0
   11.8610   -2.5450   23.2230 H   0  0  0  0  0  0  0  0  0  0  0  0
   13.6520    1.0260   21.7580 H   0  0  0  0  0  0  0  0  0  0  0  0
    5.8690   -1.5480   17.5320 H   0  0  0  0  0  0  0  0  0  0  0  0
    6.7690   -3.4960   21.0760 H   0  0  0  0  0  0  0  0  0  0  0  0
    6.9820    2.1350   20.3250 H   0  0  0  0  0  0  0  0  0  0  0  0
    6.7610    1.5450   21.9240 H   0  0  0  0  0  0  0  0  0  0  0  0
    8.3000    1.4030   21.2270 H   0  0  0  0  0  0  0  0  0  0  0  0
    9.0230    6.8640   24.4930 H   0  0  0  0  0  0  0  0  0  0  0  0
    9.5280    5.2200   24.4970 H   0  0  0  0  0  0  0  0  0  0  0  0
    9.7830   -2.2180   24.6530 H   0  0  0  0  0  0  0  0  0  0  0  0
    8.9390   -0.7090   24.6950 H   0  0  0  0  0  0  0  0  0  0  0  0
   13.1360    3.4290   21.3560 H   0  0  0  0  0  0  0  0  0  0  0  0
   13.4050    3.0700   23.1200 H   0  0  0  0  0  0  0  0  0  0  0  0
   10.2120    7.5120   22.4290 H   0  0  0  0  0  0  0  0  0  0  0  0
   11.2040    7.0350   23.7780 H   0  0  0  0  0  0  0  0  0  0  0  0
    7.3510   -0.4190   23.0390 H   0  0  0  0  0  0  0  0  0  0  0  0
   10.7490    4.9820   21.6960 H   0  0  0  0  0  0  0  0  0  0  0  0
  7 33  1  0  0  0  0
  3 29  1  0  0  0  0
  3  7  2  0  0  0  0
  7 21  1  0  0  0  0
  3  9  1  0  0  0  0
  8 21  2  0  0  0  0
 16 35  1  0  0  0  0
  9 16  1  0  0  0  0
  9 11  2  0  0  0  0
  8 34  1  0  0  0  0
  8 11  1  0  0  0  0
 16 37  1  0  0  0  0
 16 36  1  0  0  0  0
 11 22  1  0  0  0  0
 19 42  1  0  0  0  0
  1 28  1  0  0  0  0
 23 47  1  0  0  0  0
  6 32  1  0  0  0  0
 13 27  1  0  0  0  0
  6 13  2  0  0  0  0
  6 12  1  0  0  0  0
  1  2  3  0  0  0  0
 14 24  2  0  0  0  0
 15 23  1  0  0  0  0
 20 23  1  0  0  0  0
 19 26  1  0  0  0  0
 15 19  1  0  0  0  0
 19 43  1  0  0  0  0
 12 26  1  0  0  0  0
 20 44  1  0  0  0  0
 14 22  1  0  0  0  0
 22 46  1  0  0  0  0
  5 13  1  0  0  0  0
  4 12  2  0  0  0  0
 15 25  2  0  0  0  0
 14 18  1  0  0  0  0
  2 17  1  0  0  0  0
  5 31  1  0  0  0  0
  5 10  2  0  0  0  0
 20 45  1  0  0  0  0
 17 20  1  0  0  0  0
  4 10  1  0  0  0  0
  4 30  1  0  0  0  0
 10 18  1  0  0  0  0
 17 38  1  0  0  0  0
 17 39  1  0  0  0  0
 18 40  1  0  0  0  0
 18 41  1  0  0  0  0
M  END
> <CID>
EN300-135871

> <SMILES>
Cc1ccncc1NC(=O)Cc2cc(cc(c2)Cl)OCC(=O)NCCC#C

> <RUN>
RUN2631

> <DDG (kcal/mol)>
-0.60

> <dDDG (kcal/mol)>
0.14

$$$$
EN300-1864036
  -OEChem-08252008263D

 61 64  0     0  0  0  0  0  0999 V2000
    6.0700    7.9950   26.4620 C   0  0  0  0  0  0  0  0  0  0  0  0
    6.8860    8.4790   25.4520 C   0  0  0  0  0  0  0  0  0  0  0  0
    6.5470    7.2280   27.5670 C   0  0  0  0  0  0  0  0  0  0  0  0
    8.2850    8.1320   25.5420 C   0  0  0  0  0  0  0  0  0  0  0  0
    7.8560    6.8950   27.5270 C   0  0  0  0  0  0  0  0  0  0  0  0
    5.9860    2.6800   18.4320 C   0  0  0  0  0  0  0  0  0  0  0  0
    9.4690   -0.2670   22.6050 C   0  0  0  0  0  0  0  0  0  0  0  0
   10.7510   -2.0160   21.5580 C   0  0  0  0  0  0  0  0  0  0  0  0
   11.8820   -0.3470   22.7650 C   0  0  0  0  0  0  0  0  0  0  0  0
    5.7980    2.2870   17.0850 C   0  0  0  0  0  0  0  0  0  0  0  0
    7.0130    0.3020   17.5300 C   0  0  0  0  0  0  0  0  0  0  0  0
    8.7040    7.2390   26.5590 C   0  0  0  0  0  0  0  0  0  0  0  0
    6.6750    1.9280   19.3120 C   0  0  0  0  0  0  0  0  0  0  0  0
    9.4790   -1.4490   21.8420 C   0  0  0  0  0  0  0  0  0  0  0  0
    9.9350    3.4860   24.6020 C   0  0  0  0  0  0  0  0  0  0  0  0
    7.1870    0.6780   18.9310 C   0  0  0  0  0  0  0  0  0  0  0  0
   10.6650    0.3030   23.0130 C   0  0  0  0  0  0  0  0  0  0  0  0
   11.9040   -1.4520   21.9790 C   0  0  0  0  0  0  0  0  0  0  0  0
   10.5430    4.4750   23.6620 C   0  0  0  0  0  0  0  0  0  0  0  0
    9.7190    4.2450   25.7370 C   0  0  0  0  0  0  0  0  0  0  0  0
    7.7050   -1.4180   20.0570 C   0  0  0  0  0  0  0  0  0  0  0  0
    6.9180    2.4350   20.7390 C   0  0  0  0  0  0  0  0  0  0  0  0
   11.2550    4.1700   22.3790 C   0  0  0  0  0  0  0  0  0  0  0  0
    9.0070    3.7950   26.9290 C   0  0  0  0  0  0  0  0  0  0  0  0
    8.2540   -2.1150   21.3200 C   0  0  0  0  0  0  0  0  0  0  0  0
   10.0870    6.6220   26.4700 C   0  0  0  0  0  0  0  0  0  0  0  0
    9.5060    2.1190   24.1030 C   0  0  0  0  0  0  0  0  0  0  0  0
    6.3580    1.1320   16.6060 N   0  0  0  0  0  0  0  0  0  0  0  0
   10.5750    5.6590   24.1990 N   0  0  0  0  0  0  0  0  0  0  0  0
   10.1000    5.5240   25.4710 N   0  0  0  0  0  0  0  0  0  0  0  0
    7.8390   -0.0590   19.9020 N   0  0  0  0  0  0  0  0  0  0  0  0
    7.0010   -2.1190   19.2920 O   0  0  0  0  0  0  0  0  0  0  0  0
   10.7250    1.4740   23.7640 O   0  0  0  0  0  0  0  0  0  0  0  0
   13.5180   -2.2050   21.6180 Cl  0  0  0  0  0  0  0  0  0  0  0  0
    5.0000    8.1820   26.4220 H   0  0  0  0  0  0  0  0  0  0  0  0
    6.4510    9.1000   24.6620 H   0  0  0  0  0  0  0  0  0  0  0  0
    5.8490    6.8290   28.2940 H   0  0  0  0  0  0  0  0  0  0  0  0
    8.9560    8.4750   24.7540 H   0  0  0  0  0  0  0  0  0  0  0  0
    8.1060    6.1370   28.2570 H   0  0  0  0  0  0  0  0  0  0  0  0
    5.5800    3.6470   18.7010 H   0  0  0  0  0  0  0  0  0  0  0  0
    8.4970    0.1130   22.9250 H   0  0  0  0  0  0  0  0  0  0  0  0
   10.8770   -2.9070   20.9560 H   0  0  0  0  0  0  0  0  0  0  0  0
   12.7300    0.2400   23.1160 H   0  0  0  0  0  0  0  0  0  0  0  0
    5.3370    2.9990   16.4140 H   0  0  0  0  0  0  0  0  0  0  0  0
    7.4280   -0.6750   17.2830 H   0  0  0  0  0  0  0  0  0  0  0  0
    7.9860    2.4910   20.9520 H   0  0  0  0  0  0  0  0  0  0  0  0
    6.5240    3.4450   20.8480 H   0  0  0  0  0  0  0  0  0  0  0  0
    6.5690    1.7320   21.5090 H   0  0  0  0  0  0  0  0  0  0  0  0
   11.5020    5.0950   21.8620 H   0  0  0  0  0  0  0  0  0  0  0  0
   12.1690    3.6220   22.6260 H   0  0  0  0  0  0  0  0  0  0  0  0
   10.6830    3.4220   21.8070 H   0  0  0  0  0  0  0  0  0  0  0  0
    9.0120    2.6980   27.0050 H   0  0  0  0  0  0  0  0  0  0  0  0
    9.5040    4.0690   27.8650 H   0  0  0  0  0  0  0  0  0  0  0  0
    7.9760    4.1520   26.9620 H   0  0  0  0  0  0  0  0  0  0  0  0
    8.5300   -3.1370   21.0660 H   0  0  0  0  0  0  0  0  0  0  0  0
    7.4290   -2.1640   22.0270 H   0  0  0  0  0  0  0  0  0  0  0  0
   10.7160    7.4300   26.0960 H   0  0  0  0  0  0  0  0  0  0  0  0
   10.5690    6.3400   27.4050 H   0  0  0  0  0  0  0  0  0  0  0  0
    9.0540    1.5960   24.9500 H   0  0  0  0  0  0  0  0  0  0  0  0
    8.7300    2.1010   23.3220 H   0  0  0  0  0  0  0  0  0  0  0  0
    8.2250    0.4080   20.7300 H   0  0  0  0  0  0  0  0  0  0  0  0
 10 44  1  0  0  0  0
 10 28  2  0  0  0  0
 11 28  1  0  0  0  0
  6 10  1  0  0  0  0
 11 45  1  0  0  0  0
 11 16  2  0  0  0  0
  6 40  1  0  0  0  0
  6 13  2  0  0  0  0
 13 16  1  0  0  0  0
 16 31  1  0  0  0  0
 21 32  2  0  0  0  0
 13 22  1  0  0  0  0
 21 31  1  0  0  0  0
 31 61  1  0  0  0  0
 21 25  1  0  0  0  0
 22 47  1  0  0  0  0
 22 46  1  0  0  0  0
 22 48  1  0  0  0  0
  8 42  1  0  0  0  0
 25 55  1  0  0  0  0
 14 25  1  0  0  0  0
 25 56  1  0  0  0  0
  8 14  2  0  0  0  0
  8 18  1  0  0  0  0
 18 34  1  0  0  0  0
 23 51  1  0  0  0  0
  7 14  1  0  0  0  0
 23 49  1  0  0  0  0
  9 18  2  0  0  0  0
 23 50  1  0  0  0  0
 19 23  1  0  0  0  0
  7 41  1  0  0  0  0
  7 17  2  0  0  0  0
  9 17  1  0  0  0  0
  9 43  1  0  0  0  0
 17 33  1  0  0  0  0
 27 60  1  0  0  0  0
 19 29  2  0  0  0  0
 15 19  1  0  0  0  0
 27 33  1  0  0  0  0
 15 27  1  0  0  0  0
 27 59  1  0  0  0  0
 29 30  1  0  0  0  0
 15 20  2  0  0  0  0
  2 36  1  0  0  0  0
  4 38  1  0  0  0  0
  2  4  2  0  0  0  0
  1  2  1  0  0  0  0
 20 30  1  0  0  0  0
 26 30  1  0  0  0  0
  4 12  1  0  0  0  0
 20 24  1  0  0  0  0
 26 57  1  0  0  0  0
  1 35  1  0  0  0  0
  1  3  2  0  0  0  0
 12 26  1  0  0  0  0
 26 58  1  0  0  0  0
  5 12  2  0  0  0  0
 24 54  1  0  0  0  0
 24 52  1  0  0  0  0
 24 53  1  0  0  0  0
  3  5  1  0  0  0  0
  5 39  1  0  0  0  0
  3 37  1  0  0  0  0
M  END
> <CID>
EN300-1864036

> <SMILES>
Cc1ccncc1NC(=O)Cc2cc(cc(c2)Cl)OCc3c(nn(c3C)Cc4ccccc4)C

> <RUN>
RUN301

> <DDG (kcal/mol)>
-0.59

> <dDDG (kcal/mol)>
0.13

$$$$
EN300-76253
  -OEChem-08252008263D

 51 54  0     0  0  0  0  0  0999 V2000
   13.6500    6.1320   30.2520 C   0  0  0  0  0  0  0  0  0  0  0  0
   13.3220    6.9050   29.0730 C   0  0  0  0  0  0  0  0  0  0  0  0
   13.0190    4.8740   30.3420 C   0  0  0  0  0  0  0  0  0  0  0  0
   12.5350    6.4780   28.0440 C   0  0  0  0  0  0  0  0  0  0  0  0
   12.2560    4.3940   29.2690 C   0  0  0  0  0  0  0  0  0  0  0  0
    5.0880    2.2290   18.4560 C   0  0  0  0  0  0  0  0  0  0  0  0
    9.1570   -0.2630   22.7710 C   0  0  0  0  0  0  0  0  0  0  0  0
   10.4400   -1.8210   21.3860 C   0  0  0  0  0  0  0  0  0  0  0  0
   11.5650    0.0870   22.3230 C   0  0  0  0  0  0  0  0  0  0  0  0
   10.7410    3.2490   26.9630 C   0  0  0  0  0  0  0  0  0  0  0  0
    5.2020    1.7970   17.1820 C   0  0  0  0  0  0  0  0  0  0  0  0
    6.6440    0.1200   17.8380 C   0  0  0  0  0  0  0  0  0  0  0  0
   12.1030    5.1210   28.0690 C   0  0  0  0  0  0  0  0  0  0  0  0
    5.8150    1.7220   19.5150 C   0  0  0  0  0  0  0  0  0  0  0  0
    9.1950   -1.4320   21.9560 C   0  0  0  0  0  0  0  0  0  0  0  0
    6.5890    0.5540   19.2180 C   0  0  0  0  0  0  0  0  0  0  0  0
   10.3730    0.4820   22.9910 C   0  0  0  0  0  0  0  0  0  0  0  0
   11.6300   -1.1190   21.6180 C   0  0  0  0  0  0  0  0  0  0  0  0
   11.3020    4.5490   26.9490 C   0  0  0  0  0  0  0  0  0  0  0  0
   10.2530    3.0110   25.6750 C   0  0  0  0  0  0  0  0  0  0  0  0
    7.2930   -1.5400   20.2940 C   0  0  0  0  0  0  0  0  0  0  0  0
    5.5880    2.2960   20.9480 C   0  0  0  0  0  0  0  0  0  0  0  0
    7.8940   -2.1320   21.6200 C   0  0  0  0  0  0  0  0  0  0  0  0
    9.6220    1.8130   24.9410 C   0  0  0  0  0  0  0  0  0  0  0  0
    5.9240    0.7650   16.8860 N   0  0  0  0  0  0  0  0  0  0  0  0
   11.2240    5.1370   25.7830 N   0  0  0  0  0  0  0  0  0  0  0  0
    7.2780   -0.1240   20.2310 N   0  0  0  0  0  0  0  0  0  0  0  0
    6.6660   -2.2960   19.5300 O   0  0  0  0  0  0  0  0  0  0  0  0
   10.4900    4.1590   24.9300 O   0  0  0  0  0  0  0  0  0  0  0  0
   10.3610    1.6120   23.7660 O   0  0  0  0  0  0  0  0  0  0  0  0
   13.2090   -1.8160   21.1780 Cl  0  0  0  0  0  0  0  0  0  0  0  0
   14.1710    6.6670   31.0480 H   0  0  0  0  0  0  0  0  0  0  0  0
   13.7900    7.8860   29.0280 H   0  0  0  0  0  0  0  0  0  0  0  0
   13.0660    4.4230   31.3310 H   0  0  0  0  0  0  0  0  0  0  0  0
   12.3570    7.1950   27.2510 H   0  0  0  0  0  0  0  0  0  0  0  0
   11.8830    3.3770   29.3570 H   0  0  0  0  0  0  0  0  0  0  0  0
    4.5270    3.1540   18.5600 H   0  0  0  0  0  0  0  0  0  0  0  0
    8.2860    0.1780   23.2360 H   0  0  0  0  0  0  0  0  0  0  0  0
   10.4800   -2.7410   20.8090 H   0  0  0  0  0  0  0  0  0  0  0  0
   12.4440    0.6860   22.5570 H   0  0  0  0  0  0  0  0  0  0  0  0
   10.8010    2.5000   27.7480 H   0  0  0  0  0  0  0  0  0  0  0  0
    4.7010    2.2830   16.3470 H   0  0  0  0  0  0  0  0  0  0  0  0
    7.2500   -0.7140   17.4900 H   0  0  0  0  0  0  0  0  0  0  0  0
    6.4230    2.1410   21.6350 H   0  0  0  0  0  0  0  0  0  0  0  0
    5.5230    3.3680   20.7420 H   0  0  0  0  0  0  0  0  0  0  0  0
    4.6840    1.8010   21.3010 H   0  0  0  0  0  0  0  0  0  0  0  0
    8.0590   -3.2000   21.4680 H   0  0  0  0  0  0  0  0  0  0  0  0
    7.2130   -1.8890   22.4490 H   0  0  0  0  0  0  0  0  0  0  0  0
    9.6790    0.8690   25.5040 H   0  0  0  0  0  0  0  0  0  0  0  0
    8.5890    2.0370   24.6420 H   0  0  0  0  0  0  0  0  0  0  0  0
    7.5400    0.2870   21.1290 H   0  0  0  0  0  0  0  0  0  0  0  0
 11 42  1  0  0  0  0
 11 25  2  0  0  0  0
 12 25  1  0  0  0  0
  6 11  1  0  0  0  0
 12 43  1  0  0  0  0
 12 16  2  0  0  0  0
  6 37  1  0  0  0  0
  6 14  2  0  0  0  0
 14 16  1  0  0  0  0
 16 27  1  0  0  0  0
 14 22  1  0  0  0  0
 21 28  2  0  0  0  0
 21 27  1  0  0  0  0
 27 51  1  0  0  0  0
 21 23  1  0  0  0  0
 22 45  1  0  0  0  0
  8 39  1  0  0  0  0
 22 46  1  0  0  0  0
 22 44  1  0  0  0  0
 18 31  1  0  0  0  0
  8 18  2  0  0  0  0
  8 15  1  0  0  0  0
 23 47  1  0  0  0  0
  9 18  1  0  0  0  0
 15 23  1  0  0  0  0
 23 48  1  0  0  0  0
  7 15  2  0  0  0  0
  9 40  1  0  0  0  0
  9 17  2  0  0  0  0
  7 17  1  0  0  0  0
  7 38  1  0  0  0  0
 17 30  1  0  0  0  0
 24 30  1  0  0  0  0
 24 50  1  0  0  0  0
 20 29  1  0  0  0  0
 26 29  1  0  0  0  0
 24 49  1  0  0  0  0
 20 24  1  0  0  0  0
 10 20  2  0  0  0  0
 19 26  2  0  0  0  0
 10 19  1  0  0  0  0
 13 19  1  0  0  0  0
 10 41  1  0  0  0  0
  4 35  1  0  0  0  0
  4 13  2  0  0  0  0
  2  4  1  0  0  0  0
  5 13  1  0  0  0  0
  2 33  1  0  0  0  0
  1  2  2  0  0  0  0
  5 36  1  0  0  0  0
  3  5  2  0  0  0  0
  1  3  1  0  0  0  0
  1 32  1  0  0  0  0
  3 34  1  0  0  0  0
M  END
> <CID>
EN300-76253

> <SMILES>
Cc1ccncc1NC(=O)Cc2cc(cc(c2)Cl)OCc3cc(no3)c4ccccc4

> <RUN>
RUN3107

> <DDG (kcal/mol)>
-0.59

> <dDDG (kcal/mol)>
0.14

$$$$
EN300-1936709
  -OEChem-08252008263D

 52 55  0     1  0  0  0  0  0999 V2000
    5.0350    0.9460   20.5420 C   0  0  0  0  0  0  0  0  0  0  0  0
   12.5520    0.1030   24.3680 C   0  0  0  0  0  0  0  0  0  0  0  0
   12.3390   -1.2150   22.3840 C   0  0  0  0  0  0  0  0  0  0  0  0
   14.4690   -0.8930   23.3730 C   0  0  0  0  0  0  0  0  0  0  0  0
    5.5390    0.8430   19.3020 C   0  0  0  0  0  0  0  0  0  0  0  0
    7.5840    0.4000   20.0240 C   0  0  0  0  0  0  0  0  0  0  0  0
   12.7060    4.4420   27.7220 C   0  0  0  0  0  0  0  0  0  0  0  0
    5.8180    0.6480   21.6700 C   0  0  0  0  0  0  0  0  0  0  0  0
   11.7550   -0.4380   23.3980 C   0  0  0  0  0  0  0  0  0  0  0  0
    7.1750    0.4260   21.3410 C   0  0  0  0  0  0  0  0  0  0  0  0
   13.9220   -0.1130   24.4320 C   0  0  0  0  0  0  0  0  0  0  0  0
   13.7350   -1.4520   22.3570 C   0  0  0  0  0  0  0  0  0  0  0  0
   13.0120    3.1200   27.6240 C   0  0  0  0  0  0  0  0  0  0  0  0
   12.1100    3.0970   29.6400 C   0  0  0  0  0  0  0  0  0  0  0  0
   14.2180    3.3040   25.4410 C   0  5  0  0  0  0  0  0  0  0  0  0
   13.8080    2.5520   26.5320 C   0  0  3  0  0  0  0  0  0  0  0  0
    9.4840    0.2930   22.3560 C   0  0  0  0  0  0  0  0  0  0  0  0
   10.4270    3.1420   31.6140 C   0  0  0  0  0  0  0  0  0  0  0  0
   11.8760    3.2260   32.2200 C   0  0  0  0  0  0  0  0  0  0  0  0
   11.6830    2.4650   30.9680 C   0  0  0  0  0  0  0  0  0  0  0  0
    5.3550    0.8130   23.0650 C   0  0  0  0  0  0  0  0  0  0  0  0
   10.2190   -0.3650   23.4930 C   0  0  0  0  0  0  0  0  0  0  0  0
   14.2390    1.1020   26.5520 C   0  0  0  0  0  0  0  0  0  0  0  0
    6.7790    0.5570   18.9610 N   0  0  0  0  0  0  0  0  0  0  0  0
   12.6290    2.3030   28.7070 N   0  0  0  0  0  0  0  0  0  0  0  0
    8.1040    0.1880   22.3410 N   0  0  0  0  0  0  0  0  0  0  0  0
   10.0260    0.8830   21.4410 O   0  0  0  0  0  0  0  0  0  0  0  0
   14.7580    0.5320   25.3280 O   0  0  0  0  0  0  0  0  0  0  0  0
   11.9680    4.7710   29.2080 S   0  0  0  0  0  0  0  0  0  0  0  0
   14.5210   -2.1570   21.0940 Cl  0  0  0  0  0  0  0  0  0  0  0  0
    4.0070    1.2600   20.7110 H   0  0  0  0  0  0  0  0  0  0  0  0
   12.0710    0.6900   25.1460 H   0  0  0  0  0  0  0  0  0  0  0  0
   11.7840   -1.6300   21.5570 H   0  0  0  0  0  0  0  0  0  0  0  0
   15.5480   -0.9540   23.4490 H   0  0  0  0  0  0  0  0  0  0  0  0
    4.8150    1.1260   18.5470 H   0  0  0  0  0  0  0  0  0  0  0  0
    8.6320    0.2360   19.7700 H   0  0  0  0  0  0  0  0  0  0  0  0
   12.9430    5.1670   26.9440 H   0  0  0  0  0  0  0  0  0  0  0  0
   14.8670    3.0460   24.6130 H   0  0  0  0  0  0  0  0  0  0  0  0
   14.0070    4.3660   25.3480 H   0  0  0  0  0  0  0  0  0  0  0  0
    9.6900    2.4820   32.0750 H   0  0  0  0  0  0  0  0  0  0  0  0
    9.9880    4.0010   31.0870 H   0  0  0  0  0  0  0  0  0  0  0  0
   12.4770    4.1260   32.1390 H   0  0  0  0  0  0  0  0  0  0  0  0
   12.0760    2.5720   33.0830 H   0  0  0  0  0  0  0  0  0  0  0  0
   11.7380    1.3760   30.9050 H   0  0  0  0  0  0  0  0  0  0  0  0
    5.7070   -0.0480   23.6280 H   0  0  0  0  0  0  0  0  0  0  0  0
    5.7830    1.7290   23.4840 H   0  0  0  0  0  0  0  0  0  0  0  0
    4.2620    0.9010   23.1450 H   0  0  0  0  0  0  0  0  0  0  0  0
    9.8040   -1.3710   23.5740 H   0  0  0  0  0  0  0  0  0  0  0  0
    9.9190    0.1230   24.4380 H   0  0  0  0  0  0  0  0  0  0  0  0
   13.4120    0.4450   26.8550 H   0  0  0  0  0  0  0  0  0  0  0  0
   15.0220    1.0000   27.3130 H   0  0  0  0  0  0  0  0  0  0  0  0
    7.7900   -0.1660   23.2410 H   0  0  0  0  0  0  0  0  0  0  0  0
  5 35  1  0  0  0  0
  5 24  2  0  0  0  0
  6 24  1  0  0  0  0
  1  5  1  0  0  0  0
  6 36  1  0  0  0  0
  6 10  2  0  0  0  0
  1 31  1  0  0  0  0
  1  8  2  0  0  0  0
 12 30  1  0  0  0  0
  8 10  1  0  0  0  0
 10 26  1  0  0  0  0
 17 27  2  0  0  0  0
  3 33  1  0  0  0  0
  8 21  1  0  0  0  0
 17 26  1  0  0  0  0
 26 52  1  0  0  0  0
 17 22  1  0  0  0  0
  3 12  2  0  0  0  0
  4 12  1  0  0  0  0
  3  9  1  0  0  0  0
 21 47  1  0  0  0  0
 21 46  1  0  0  0  0
 21 45  1  0  0  0  0
  4 34  1  0  0  0  0
  4 11  2  0  0  0  0
  9 22  1  0  0  0  0
  2  9  2  0  0  0  0
 22 48  1  0  0  0  0
 22 49  1  0  0  0  0
  2 11  1  0  0  0  0
  2 32  1  0  0  0  0
 11 28  1  0  0  0  0
 15 38  1  0  0  0  0
 23 28  1  0  0  0  0
 15 39  1  0  0  0  0
 15 16  1  0  0  0  0
 16 23  1  0  0  0  0
 13 16  1  0  0  0  0
 23 50  1  0  0  0  0
 23 51  1  0  0  0  0
  7 37  1  0  0  0  0
  7 13  2  0  0  0  0
 13 25  1  0  0  0  0
  7 29  1  0  0  0  0
 14 25  2  0  0  0  0
 14 29  1  0  0  0  0
 14 20  1  0  0  0  0
 20 44  1  0  0  0  0
 18 20  1  0  0  0  0
 19 20  1  0  0  0  0
 18 41  1  0  0  0  0
 18 40  1  0  0  0  0
 18 19  1  0  0  0  0
 19 42  1  0  0  0  0
 19 43  1  0  0  0  0
M  CHG  1  15  -1
M  END
> <CID>
EN300-1936709

> <SMILES>
Cc1ccncc1NC(=O)Cc2cc(cc(c2)Cl)OCC(=C)c3csc(n3)C4CC4

> <RUN>
RUN4484

> <DDG (kcal/mol)>
-0.57

> <dDDG (kcal/mol)>
0.23

$$$$
EN300-844238
  -OEChem-08252008263D

 60 64  0     0  0  0  0  0  0999 V2000
   14.2910   -0.9440   20.8390 C   0  0  0  0  0  0  0  0  0  0  0  0
   13.3490   -1.9340   21.1330 C   0  0  0  0  0  0  0  0  0  0  0  0
   14.6800   -0.0400   21.8220 C   0  0  0  0  0  0  0  0  0  0  0  0
    5.4470    2.3250   18.8020 C   0  0  0  0  0  0  0  0  0  0  0  0
   13.3420   -1.1800   23.4260 C   0  0  0  0  0  0  0  0  0  0  0  0
   11.9190    2.8640   23.7810 C   0  0  0  0  0  0  0  0  0  0  0  0
   10.0050    1.9330   24.8880 C   0  0  0  0  0  0  0  0  0  0  0  0
   12.2250    1.4000   25.6890 C   0  0  0  0  0  0  0  0  0  0  0  0
    6.0870    1.3620   18.0680 C   0  0  0  0  0  0  0  0  0  0  0  0
    7.6590    1.0610   19.7350 C   0  0  0  0  0  0  0  0  0  0  0  0
   12.8400   -2.0410   22.3960 C   0  0  0  0  0  0  0  0  0  0  0  0
   14.2220   -0.0800   23.1450 C   0  0  0  0  0  0  0  0  0  0  0  0
    5.8620    2.6770   20.0770 C   0  0  0  0  0  0  0  0  0  0  0  0
   10.5080    2.7630   23.8990 C   0  0  0  0  0  0  0  0  0  0  0  0
    7.0260    2.0670   20.5930 C   0  0  0  0  0  0  0  0  0  0  0  0
   12.8050    2.1940   24.7090 C   0  0  0  0  0  0  0  0  0  0  0  0
   10.8610    1.2290   25.7820 C   0  0  0  0  0  0  0  0  0  0  0  0
   11.8940   -3.1050   22.7980 C   0  0  0  0  0  0  0  0  0  0  0  0
   10.4090   -4.2390   23.8900 C   0  0  0  0  0  0  0  0  0  0  0  0
    9.0140    2.6010   21.9650 C   0  0  0  0  0  0  0  0  0  0  0  0
    9.4910   -6.1670   26.3700 C   0  0  0  0  0  0  0  0  0  0  0  0
    9.1450   -6.2610   24.9700 C   0  0  0  0  0  0  0  0  0  0  0  0
    9.6510   -4.6440   26.3030 C   0  0  0  0  0  0  0  0  0  0  0  0
    9.3050   -4.7250   24.8310 C   0  0  0  0  0  0  0  0  0  0  0  0
    5.0580    3.7250   20.8020 C   0  0  0  0  0  0  0  0  0  0  0  0
    9.5790    3.4990   22.9650 C   0  0  0  0  0  0  0  0  0  0  0  0
   14.7850    0.9150   24.2930 C   0  0  0  0  0  0  0  0  0  0  0  0
    7.2260    0.7330   18.5090 N   0  0  0  0  0  0  0  0  0  0  0  0
   10.9330   -3.0300   23.7700 N   0  0  0  0  0  0  0  0  0  0  0  0
   11.8110   -4.2330   22.1820 N   0  0  0  0  0  0  0  0  0  0  0  0
    7.6710    2.4100   21.8400 N   0  0  0  0  0  0  0  0  0  0  0  0
    9.9110    2.3120   21.1660 O   0  0  0  0  0  0  0  0  0  0  0  0
   10.9490   -4.9870   22.8570 O   0  0  0  0  0  0  0  0  0  0  0  0
   14.1700    2.1380   24.4000 O   0  0  0  0  0  0  0  0  0  0  0  0
   10.0930    0.3770   27.0970 Cl  0  0  0  0  0  0  0  0  0  0  0  0
   14.5320   -0.9440   19.7840 H   0  0  0  0  0  0  0  0  0  0  0  0
   13.0300   -2.6760   20.4090 H   0  0  0  0  0  0  0  0  0  0  0  0
   15.3190    0.7550   21.4270 H   0  0  0  0  0  0  0  0  0  0  0  0
    4.5720    2.8540   18.4300 H   0  0  0  0  0  0  0  0  0  0  0  0
   12.9900   -1.3230   24.4340 H   0  0  0  0  0  0  0  0  0  0  0  0
   12.4480    3.4260   23.0100 H   0  0  0  0  0  0  0  0  0  0  0  0
    8.9340    1.7750   24.8840 H   0  0  0  0  0  0  0  0  0  0  0  0
   12.8450    0.8820   26.4160 H   0  0  0  0  0  0  0  0  0  0  0  0
    5.7140    1.0910   17.0830 H   0  0  0  0  0  0  0  0  0  0  0  0
    8.5220    0.4950   20.0690 H   0  0  0  0  0  0  0  0  0  0  0  0
    8.6940   -6.4470   27.0630 H   0  0  0  0  0  0  0  0  0  0  0  0
   10.3830   -6.7400   26.6450 H   0  0  0  0  0  0  0  0  0  0  0  0
    9.7970   -6.8540   24.3340 H   0  0  0  0  0  0  0  0  0  0  0  0
    8.1220   -6.5800   24.7340 H   0  0  0  0  0  0  0  0  0  0  0  0
    8.9500   -4.1020   26.9390 H   0  0  0  0  0  0  0  0  0  0  0  0
   10.6860   -4.4330   26.5930 H   0  0  0  0  0  0  0  0  0  0  0  0
    8.3820   -4.2150   24.5560 H   0  0  0  0  0  0  0  0  0  0  0  0
    4.1870    4.0410   20.2190 H   0  0  0  0  0  0  0  0  0  0  0  0
    4.6690    3.3910   21.7670 H   0  0  0  0  0  0  0  0  0  0  0  0
    5.6360    4.5970   21.1210 H   0  0  0  0  0  0  0  0  0  0  0  0
    8.7360    3.9640   23.5000 H   0  0  0  0  0  0  0  0  0  0  0  0
   10.1540    4.3450   22.5740 H   0  0  0  0  0  0  0  0  0  0  0  0
   14.8180    0.3500   25.2320 H   0  0  0  0  0  0  0  0  0  0  0  0
   15.8420    1.0810   24.0860 H   0  0  0  0  0  0  0  0  0  0  0  0
    7.1110    2.8060   22.5930 H   0  0  0  0  0  0  0  0  0  0  0  0
  9 44  1  0  0  0  0
  9 28  2  0  0  0  0
  4  9  1  0  0  0  0
  4 39  1  0  0  0  0
 10 28  1  0  0  0  0
  4 13  2  0  0  0  0
 10 45  1  0  0  0  0
 10 15  2  0  0  0  0
  1 36  1  0  0  0  0
 13 15  1  0  0  0  0
 13 25  1  0  0  0  0
 25 53  1  0  0  0  0
  2 37  1  0  0  0  0
 15 31  1  0  0  0  0
 25 55  1  0  0  0  0
 25 54  1  0  0  0  0
  1  2  2  0  0  0  0
  1  3  1  0  0  0  0
  2 11  1  0  0  0  0
 20 32  2  0  0  0  0
  3 38  1  0  0  0  0
  3 12  2  0  0  0  0
 20 31  1  0  0  0  0
 31 60  1  0  0  0  0
 20 26  1  0  0  0  0
 18 30  2  0  0  0  0
 30 33  1  0  0  0  0
 11 18  1  0  0  0  0
  5 11  2  0  0  0  0
 26 57  1  0  0  0  0
 18 29  1  0  0  0  0
 19 33  1  0  0  0  0
 26 56  1  0  0  0  0
 14 26  1  0  0  0  0
  6 41  1  0  0  0  0
  5 12  1  0  0  0  0
 12 27  1  0  0  0  0
  5 40  1  0  0  0  0
 19 29  2  0  0  0  0
  6 14  2  0  0  0  0
  6 16  1  0  0  0  0
 19 24  1  0  0  0  0
  7 14  1  0  0  0  0
 27 59  1  0  0  0  0
 27 34  1  0  0  0  0
 27 58  1  0  0  0  0
 22 48  1  0  0  0  0
 16 34  1  0  0  0  0
 24 52  1  0  0  0  0
  8 16  2  0  0  0  0
 22 49  1  0  0  0  0
 22 24  1  0  0  0  0
 23 24  1  0  0  0  0
  7 42  1  0  0  0  0
  7 17  2  0  0  0  0
 21 22  1  0  0  0  0
  8 17  1  0  0  0  0
  8 43  1  0  0  0  0
 17 35  1  0  0  0  0
 21 23  1  0  0  0  0
 23 51  1  0  0  0  0
 23 50  1  0  0  0  0
 21 47  1  0  0  0  0
 21 46  1  0  0  0  0
M  END
> <CID>
EN300-844238

> <SMILES>
Cc1ccncc1NC(=O)Cc2cc(cc(c2)Cl)OCc3cccc(c3)c4nc(on4)C5CCC5

> <RUN>
RUN2993

> <DDG (kcal/mol)>
-0.57

> <dDDG (kcal/mol)>
0.18

$$$$
EN300-300079
  -OEChem-08252008263D

 55 59  0     0  0  0  0  0  0999 V2000
    4.5010    0.9120   19.3300 C   0  0  0  0  0  0  0  0  0  0  0  0
   12.1330    8.4670   23.0190 C   0  0  0  0  0  0  0  0  0  0  0  0
   12.8040    8.3230   20.7670 C   0  0  0  0  0  0  0  0  0  0  0  0
   10.9510    3.5710   22.8110 C   0  0  0  0  0  0  0  0  0  0  0  0
   11.6040    1.3740   23.5600 C   0  0  0  0  0  0  0  0  0  0  0  0
   13.2930    3.1170   23.2540 C   0  0  0  0  0  0  0  0  0  0  0  0
    5.2730    0.3810   18.3050 C   0  0  0  0  0  0  0  0  0  0  0  0
    7.2080    0.3570   19.5190 C   0  0  0  0  0  0  0  0  0  0  0  0
   12.4880    9.8060   23.0480 C   0  0  0  0  0  0  0  0  0  0  0  0
    5.1270    1.2520   20.5340 C   0  0  0  0  0  0  0  0  0  0  0  0
   12.2800    7.7100   21.8380 C   0  0  0  0  0  0  0  0  0  0  0  0
   10.5880    2.2820   23.1880 C   0  0  0  0  0  0  0  0  0  0  0  0
    6.5340    1.0020   20.6000 C   0  0  0  0  0  0  0  0  0  0  0  0
   13.0950    9.6770   20.7530 C   0  0  0  0  0  0  0  0  0  0  0  0
   13.0290   10.3710   21.8510 C   0  0  0  0  0  0  0  0  0  0  0  0
   12.2810    4.0350   22.7870 C   0  0  0  0  0  0  0  0  0  0  0  0
   12.9340    1.8100   23.6070 C   0  0  0  0  0  0  0  0  0  0  0  0
    8.4690    1.8510   21.9280 C   0  0  0  0  0  0  0  0  0  0  0  0
   12.9930    9.9150   25.5500 C   0  0  0  0  0  0  0  0  0  0  0  0
   11.4580   10.0300   25.3600 C   0  0  0  0  0  0  0  0  0  0  0  0
   13.8270   11.7340   20.2870 C   0  0  0  0  0  0  0  0  0  0  0  0
   12.4520   10.6110   24.3270 C   0  0  0  0  0  0  0  0  0  0  0  0
    4.2440    1.8340   21.5750 C   0  0  0  0  0  0  0  0  0  0  0  0
    9.1800    1.8150   23.2660 C   0  0  0  0  0  0  0  0  0  0  0  0
   11.8720    6.2030   21.7970 C   0  0  0  0  0  0  0  0  0  0  0  0
    6.5690    0.0070   18.4110 N   0  0  0  0  0  0  0  0  0  0  0  0
    7.2120    1.2510   21.8010 N   0  0  0  0  0  0  0  0  0  0  0  0
    9.0140    2.2510   20.8800 O   0  0  0  0  0  0  0  0  0  0  0  0
   13.6260   10.3680   19.7080 O   0  0  0  0  0  0  0  0  0  0  0  0
   13.3450   11.7040   21.6390 O   0  0  0  0  0  0  0  0  0  0  0  0
   12.7650    5.3260   22.4700 O   0  0  0  0  0  0  0  0  0  0  0  0
   14.0990    0.8050   24.3120 Cl  0  0  0  0  0  0  0  0  0  0  0  0
    3.4650    1.2050   19.1810 H   0  0  0  0  0  0  0  0  0  0  0  0
   11.7630    7.9800   23.9130 H   0  0  0  0  0  0  0  0  0  0  0  0
   12.9960    7.7160   19.8920 H   0  0  0  0  0  0  0  0  0  0  0  0
   10.1580    4.2150   22.4410 H   0  0  0  0  0  0  0  0  0  0  0  0
   11.3080    0.3670   23.8220 H   0  0  0  0  0  0  0  0  0  0  0  0
   14.3360    3.4170   23.2020 H   0  0  0  0  0  0  0  0  0  0  0  0
    4.8320    0.3170   17.3170 H   0  0  0  0  0  0  0  0  0  0  0  0
    8.2870    0.2180   19.5350 H   0  0  0  0  0  0  0  0  0  0  0  0
   13.5310   10.5260   26.2860 H   0  0  0  0  0  0  0  0  0  0  0  0
   13.5090    8.9760   25.3110 H   0  0  0  0  0  0  0  0  0  0  0  0
   11.0520   10.4020   26.3140 H   0  0  0  0  0  0  0  0  0  0  0  0
   10.8250   10.9220   25.4830 H   0  0  0  0  0  0  0  0  0  0  0  0
   14.9110   11.8530   20.3290 H   0  0  0  0  0  0  0  0  0  0  0  0
   13.4770   12.6000   19.7270 H   0  0  0  0  0  0  0  0  0  0  0  0
   12.3770   11.6920   24.1910 H   0  0  0  0  0  0  0  0  0  0  0  0
    4.4500    2.9070   21.4720 H   0  0  0  0  0  0  0  0  0  0  0  0
    3.1860    1.6080   21.3990 H   0  0  0  0  0  0  0  0  0  0  0  0
    4.5710    1.5660   22.5820 H   0  0  0  0  0  0  0  0  0  0  0  0
    9.0920    0.7830   23.6320 H   0  0  0  0  0  0  0  0  0  0  0  0
    8.5990    2.3410   24.0150 H   0  0  0  0  0  0  0  0  0  0  0  0
   10.9260    6.1930   22.3430 H   0  0  0  0  0  0  0  0  0  0  0  0
   11.6630    5.8780   20.7760 H   0  0  0  0  0  0  0  0  0  0  0  0
    6.8680    0.9820   22.7200 H   0  0  0  0  0  0  0  0  0  0  0  0
  7 39  1  0  0  0  0
  7 26  2  0  0  0  0
  1  7  1  0  0  0  0
  8 26  1  0  0  0  0
  1 33  1  0  0  0  0
  1 10  2  0  0  0  0
  8 40  1  0  0  0  0
  8 13  2  0  0  0  0
 21 29  1  0  0  0  0
 14 29  1  0  0  0  0
 21 46  1  0  0  0  0
  3 35  1  0  0  0  0
 21 45  1  0  0  0  0
 21 30  1  0  0  0  0
 10 13  1  0  0  0  0
 10 23  1  0  0  0  0
 13 27  1  0  0  0  0
  3 14  2  0  0  0  0
 14 15  1  0  0  0  0
  3 11  1  0  0  0  0
 25 54  1  0  0  0  0
 18 28  2  0  0  0  0
 23 49  1  0  0  0  0
 23 48  1  0  0  0  0
 23 50  1  0  0  0  0
 15 30  1  0  0  0  0
 11 25  1  0  0  0  0
 25 53  1  0  0  0  0
 25 31  1  0  0  0  0
 18 27  1  0  0  0  0
 27 55  1  0  0  0  0
  2 11  2  0  0  0  0
  9 15  2  0  0  0  0
 18 24  1  0  0  0  0
  4 36  1  0  0  0  0
 16 31  1  0  0  0  0
  4 16  2  0  0  0  0
  6 16  1  0  0  0  0
  4 12  1  0  0  0  0
  2  9  1  0  0  0  0
  2 34  1  0  0  0  0
  9 22  1  0  0  0  0
 12 24  1  0  0  0  0
  5 12  2  0  0  0  0
  6 38  1  0  0  0  0
  6 17  2  0  0  0  0
 24 51  1  0  0  0  0
 24 52  1  0  0  0  0
  5 17  1  0  0  0  0
  5 37  1  0  0  0  0
 17 32  1  0  0  0  0
 22 47  1  0  0  0  0
 20 22  1  0  0  0  0
 19 22  1  0  0  0  0
 19 42  1  0  0  0  0
 20 44  1  0  0  0  0
 19 20  1  0  0  0  0
 20 43  1  0  0  0  0
 19 41  1  0  0  0  0
M  END
> <CID>
EN300-300079

> <SMILES>
Cc1ccncc1NC(=O)Cc2cc(cc(c2)Cl)OCc3cc(c4c(c3)OCO4)C5CC5

> <RUN>
RUN3418

> <DDG (kcal/mol)>
-0.57

> <dDDG (kcal/mol)>
0.16

$$$$
EN300-75651
  -OEChem-08252008263D

 45 47  0     0  0  0  0  0  0999 V2000
   13.5800    1.8770   27.5280 C   0  0  0  0  0  0  0  0  0  0  0  0
   12.8960    2.8220   28.2550 C   0  0  0  0  0  0  0  0  0  0  0  0
    5.9040    1.4260   20.3440 C   0  0  0  0  0  0  0  0  0  0  0  0
   12.7970    0.3430   24.6930 C   0  0  0  0  0  0  0  0  0  0  0  0
   14.1150    3.5030   25.8380 C   0  0  0  0  0  0  0  0  0  0  0  0
   12.8680   -1.3950   23.0400 C   0  0  0  0  0  0  0  0  0  0  0  0
   14.8680   -0.6420   24.1260 C   0  0  0  0  0  0  0  0  0  0  0  0
    6.4440    1.2360   19.0680 C   0  0  0  0  0  0  0  0  0  0  0  0
    8.4530    0.5520   19.9960 C   0  0  0  0  0  0  0  0  0  0  0  0
    6.6250    1.0850   21.4720 C   0  0  0  0  0  0  0  0  0  0  0  0
   12.0910   -0.5280   23.8250 C   0  0  0  0  0  0  0  0  0  0  0  0
   13.4100    4.4650   26.5350 C   0  0  0  0  0  0  0  0  0  0  0  0
    7.9610    0.6260   21.3760 C   0  0  0  0  0  0  0  0  0  0  0  0
   14.2540    2.2050   26.3220 C   0  0  0  0  0  0  0  0  0  0  0  0
   14.1820    0.2890   24.8490 C   0  0  0  0  0  0  0  0  0  0  0  0
   12.8250    4.1280   27.7310 C   0  0  0  0  0  0  0  0  0  0  0  0
   14.2500   -1.4800   23.2010 C   0  0  0  0  0  0  0  0  0  0  0  0
   10.0830    0.0890   22.5750 C   0  0  0  0  0  0  0  0  0  0  0  0
    5.9600    1.2550   22.8260 C   0  0  0  0  0  0  0  0  0  0  0  0
   10.6000   -0.5880   23.8430 C   0  0  0  0  0  0  0  0  0  0  0  0
   13.3690    5.9200   26.0510 C   0  0  0  0  0  0  0  0  0  0  0  0
    7.6600    0.7030   18.8700 N   0  0  0  0  0  0  0  0  0  0  0  0
    8.7390    0.3240   22.5200 N   0  0  0  0  0  0  0  0  0  0  0  0
   10.8430    0.5810   21.7490 O   0  0  0  0  0  0  0  0  0  0  0  0
   14.9230    1.1870   25.6270 O   0  0  0  0  0  0  0  0  0  0  0  0
   12.0140    5.3630   28.5930 Cl  0  0  0  0  0  0  0  0  0  0  0  0
   15.1290   -2.3790   21.9440 Cl  0  0  0  0  0  0  0  0  0  0  0  0
   15.0960    6.7390   26.7620 Br  0  0  0  0  0  0  0  0  0  0  0  0
   13.6480    0.8380   27.8320 H   0  0  0  0  0  0  0  0  0  0  0  0
   12.3750    2.5890   29.1740 H   0  0  0  0  0  0  0  0  0  0  0  0
    4.9110    1.8250   20.4880 H   0  0  0  0  0  0  0  0  0  0  0  0
   12.2910    1.1370   25.2330 H   0  0  0  0  0  0  0  0  0  0  0  0
   14.4240    3.7390   24.8230 H   0  0  0  0  0  0  0  0  0  0  0  0
   12.4130   -1.9640   22.2390 H   0  0  0  0  0  0  0  0  0  0  0  0
   15.9340   -0.4740   24.1960 H   0  0  0  0  0  0  0  0  0  0  0  0
    5.8770    1.6910   18.2560 H   0  0  0  0  0  0  0  0  0  0  0  0
    9.4890    0.3080   19.8050 H   0  0  0  0  0  0  0  0  0  0  0  0
    6.0980    2.2710   23.2070 H   0  0  0  0  0  0  0  0  0  0  0  0
    4.8950    0.9810   22.7910 H   0  0  0  0  0  0  0  0  0  0  0  0
    6.4130    0.5780   23.5600 H   0  0  0  0  0  0  0  0  0  0  0  0
   10.3150   -1.6430   23.8650 H   0  0  0  0  0  0  0  0  0  0  0  0
   10.2500   -0.0790   24.7480 H   0  0  0  0  0  0  0  0  0  0  0  0
   12.5280    6.5290   26.3770 H   0  0  0  0  0  0  0  0  0  0  0  0
   13.4400    5.9790   24.9660 H   0  0  0  0  0  0  0  0  0  0  0  0
    8.3790    0.0840   23.4410 H   0  0  0  0  0  0  0  0  0  0  0  0
  8 36  1  0  0  0  0
  8 22  2  0  0  0  0
  9 22  1  0  0  0  0
  3  8  1  0  0  0  0
  9 37  1  0  0  0  0
  9 13  2  0  0  0  0
  3 31  1  0  0  0  0
  3 10  2  0  0  0  0
 10 13  1  0  0  0  0
 13 23  1  0  0  0  0
 10 19  1  0  0  0  0
 18 24  2  0  0  0  0
 17 27  1  0  0  0  0
  6 34  1  0  0  0  0
 18 23  1  0  0  0  0
 23 45  1  0  0  0  0
 18 20  1  0  0  0  0
 19 39  1  0  0  0  0
 19 38  1  0  0  0  0
 19 40  1  0  0  0  0
  6 17  2  0  0  0  0
  6 11  1  0  0  0  0
  7 17  1  0  0  0  0
 11 20  1  0  0  0  0
  4 11  2  0  0  0  0
 20 41  1  0  0  0  0
 20 42  1  0  0  0  0
  7 35  1  0  0  0  0
  7 15  2  0  0  0  0
  4 15  1  0  0  0  0
  4 32  1  0  0  0  0
  5 33  1  0  0  0  0
 15 25  1  0  0  0  0
 21 44  1  0  0  0  0
 14 25  1  0  0  0  0
  5 14  2  0  0  0  0
  5 12  1  0  0  0  0
 21 43  1  0  0  0  0
 12 21  1  0  0  0  0
 21 28  1  0  0  0  0
  1 14  1  0  0  0  0
 12 16  2  0  0  0  0
  1 29  1  0  0  0  0
  1  2  2  0  0  0  0
  2 16  1  0  0  0  0
 16 26  1  0  0  0  0
  2 30  1  0  0  0  0
M  END
> <CID>
EN300-75651

> <SMILES>
Cc1ccncc1NC(=O)Cc2cc(cc(c2)Cl)Oc3ccc(c(c3)CBr)Cl

> <RUN>
RUN2571

> <DDG (kcal/mol)>
-0.56

> <dDDG (kcal/mol)>
0.11

$$$$
EN300-738987
  -OEChem-08252008263D

 66 69  0     1  0  0  0  0  0999 V2000
    5.7670    1.3020   20.2520 C   0  0  0  0  0  0  0  0  0  0  0  0
   12.0290   -0.0310   24.4160 C   0  0  0  0  0  0  0  0  0  0  0  0
   12.6400   -1.4360   22.5190 C   0  0  0  0  0  0  0  0  0  0  0  0
   14.2850    0.0830   23.5200 C   0  0  0  0  0  0  0  0  0  0  0  0
    5.9870    0.8070   18.9480 C   0  0  0  0  0  0  0  0  0  0  0  0
    8.1690    0.0980   19.5870 C   0  0  0  0  0  0  0  0  0  0  0  0
    6.7590    1.0270   21.2430 C   0  0  0  0  0  0  0  0  0  0  0  0
   11.6900   -1.0060   23.4120 C   0  0  0  0  0  0  0  0  0  0  0  0
    7.9700    0.3410   20.8940 C   0  0  0  0  0  0  0  0  0  0  0  0
   13.3220    0.5270   24.4750 C   0  0  0  0  0  0  0  0  0  0  0  0
   13.9420   -0.9070   22.5930 C   0  0  0  0  0  0  0  0  0  0  0  0
   13.1560    3.8600   26.1390 C   0  0  0  0  0  0  0  0  0  0  0  0
   12.4780    4.8190   26.7720 C   0  0  0  0  0  0  0  0  0  0  0  0
    9.5880   -1.1370   21.9560 C   0  0  0  0  0  0  0  0  0  0  0  0
   16.3120    6.9560   29.8420 C   0  0  0  0  0  0  0  0  0  0  0  0
   16.3090    7.0510   31.3780 C   0  0  0  0  0  0  0  0  0  0  0  0
   15.2320    7.8000   29.1490 C   0  0  0  0  0  0  0  0  0  0  0  0
   15.3420    6.0930   32.1050 C   0  0  0  0  0  0  0  0  0  0  0  0
   13.5800    6.0950   30.1950 C   0  0  0  0  0  0  0  0  0  0  0  0
   13.7310    7.2920   29.2520 C   0  0  2  0  0  0  0  0  0  0  0  0
    6.5040    1.3890   22.6410 C   0  0  0  0  0  0  0  0  0  0  0  0
   10.9810    4.9560   26.8970 C   0  0  0  0  0  0  0  0  0  0  0  0
   10.2270   -1.4330   23.3170 C   0  0  0  0  0  0  0  0  0  0  0  0
   12.6530    2.5540   25.5360 C   0  0  0  0  0  0  0  0  0  0  0  0
   13.1150    7.0060   27.9300 C   0  0  0  0  0  0  0  0  0  0  0  0
    7.2140    0.2930   18.6580 N   0  0  0  0  0  0  0  0  0  0  0  0
   14.4830    4.1950   26.2790 N   0  0  0  0  0  0  0  0  0  0  0  0
   14.6330    5.3150   26.8740 N   0  0  0  0  0  0  0  0  0  0  0  0
   13.3800    5.6920   27.2770 N   0  0  0  0  0  0  0  0  0  0  0  0
    8.9480    0.0340   21.8780 N   0  0  0  0  0  0  0  0  0  0  0  0
   13.9560    6.4210   31.6400 N   0  3  0  0  0  0  0  0  0  0  0  0
    9.3690   -2.0460   21.0890 O   0  0  0  0  0  0  0  0  0  0  0  0
   13.6290    1.5210   25.3730 O   0  0  0  0  0  0  0  0  0  0  0  0
   15.0870   -1.3190   21.3370 Cl  0  0  0  0  0  0  0  0  0  0  0  0
    4.7980    1.7430   20.4540 H   0  0  0  0  0  0  0  0  0  0  0  0
   11.3440    0.2920   25.1910 H   0  0  0  0  0  0  0  0  0  0  0  0
   12.3770   -2.0600   21.6770 H   0  0  0  0  0  0  0  0  0  0  0  0
   15.3150    0.4380   23.4770 H   0  0  0  0  0  0  0  0  0  0  0  0
    5.2260    0.9530   18.1970 H   0  0  0  0  0  0  0  0  0  0  0  0
    9.1450   -0.2770   19.2790 H   0  0  0  0  0  0  0  0  0  0  0  0
   16.1640    5.9160   29.5430 H   0  0  0  0  0  0  0  0  0  0  0  0
   17.2670    7.3870   29.5120 H   0  0  0  0  0  0  0  0  0  0  0  0
   17.2710    6.8800   31.8580 H   0  0  0  0  0  0  0  0  0  0  0  0
   16.1540    8.0630   31.7620 H   0  0  0  0  0  0  0  0  0  0  0  0
   15.3130    8.8410   29.4510 H   0  0  0  0  0  0  0  0  0  0  0  0
   15.4670    7.8890   28.0800 H   0  0  0  0  0  0  0  0  0  0  0  0
   15.5820    5.0520   31.8490 H   0  0  0  0  0  0  0  0  0  0  0  0
   15.5850    5.9930   33.1690 H   0  0  0  0  0  0  0  0  0  0  0  0
   12.5140    5.8590   30.2230 H   0  0  0  0  0  0  0  0  0  0  0  0
   14.1710    5.2260   29.8800 H   0  0  0  0  0  0  0  0  0  0  0  0
   13.0310    7.9910   29.7010 H   0  0  0  0  0  0  0  0  0  0  0  0
    6.3610    2.4600   22.7880 H   0  0  0  0  0  0  0  0  0  0  0  0
    5.6400    0.8140   22.9980 H   0  0  0  0  0  0  0  0  0  0  0  0
    7.2820    0.9770   23.2950 H   0  0  0  0  0  0  0  0  0  0  0  0
   10.6260    4.8140   27.9190 H   0  0  0  0  0  0  0  0  0  0  0  0
   10.6670    5.9950   26.7470 H   0  0  0  0  0  0  0  0  0  0  0  0
   10.3990    4.3330   26.2110 H   0  0  0  0  0  0  0  0  0  0  0  0
   10.1600   -2.5190   23.4460 H   0  0  0  0  0  0  0  0  0  0  0  0
    9.5740   -0.9920   24.0750 H   0  0  0  0  0  0  0  0  0  0  0  0
   11.9920    2.1480   26.3090 H   0  0  0  0  0  0  0  0  0  0  0  0
   12.1960    2.8100   24.5700 H   0  0  0  0  0  0  0  0  0  0  0  0
   12.0340    7.1840   27.9050 H   0  0  0  0  0  0  0  0  0  0  0  0
   13.5940    7.6880   27.2140 H   0  0  0  0  0  0  0  0  0  0  0  0
    8.9630    0.5990   22.7230 H   0  0  0  0  0  0  0  0  0  0  0  0
   13.3000    5.9340   32.2560 H   0  0  0  0  0  0  0  0  0  0  0  0
   13.7980    7.3980   31.8450 H   0  0  0  0  0  0  0  0  0  0  0  0
  5 39  1  0  0  0  0
  5 26  2  0  0  0  0
  6 26  1  0  0  0  0
  1  5  1  0  0  0  0
  6 40  1  0  0  0  0
  6  9  2  0  0  0  0
  1 35  1  0  0  0  0
  1  7  2  0  0  0  0
  7  9  1  0  0  0  0
  9 30  1  0  0  0  0
 14 32  2  0  0  0  0
  7 21  1  0  0  0  0
 11 34  1  0  0  0  0
  3 37  1  0  0  0  0
 14 30  1  0  0  0  0
 30 64  1  0  0  0  0
 14 23  1  0  0  0  0
  3 11  2  0  0  0  0
  3  8  1  0  0  0  0
  4 11  1  0  0  0  0
 21 52  1  0  0  0  0
 21 53  1  0  0  0  0
 21 54  1  0  0  0  0
  8 23  1  0  0  0  0
 23 58  1  0  0  0  0
 23 59  1  0  0  0  0
  2  8  2  0  0  0  0
  4 38  1  0  0  0  0
  4 10  2  0  0  0  0
  2 10  1  0  0  0  0
  2 36  1  0  0  0  0
 10 33  1  0  0  0  0
 24 61  1  0  0  0  0
 24 33  1  0  0  0  0
 12 24  1  0  0  0  0
 24 60  1  0  0  0  0
 12 27  1  0  0  0  0
 12 13  2  0  0  0  0
 22 57  1  0  0  0  0
 27 28  2  0  0  0  0
 22 56  1  0  0  0  0
 13 22  1  0  0  0  0
 13 29  1  0  0  0  0
 28 29  1  0  0  0  0
 22 55  1  0  0  0  0
 25 63  1  0  0  0  0
 25 29  1  0  0  0  0
 25 62  1  0  0  0  0
 20 25  1  0  0  0  0
 17 46  1  0  0  0  0
 17 20  1  0  0  0  0
 17 45  1  0  0  0  0
 15 17  1  0  0  0  0
 20 51  1  0  0  0  0
 19 20  1  0  0  0  0
 15 42  1  0  0  0  0
 15 41  1  0  0  0  0
 15 16  1  0  0  0  0
 19 50  1  0  0  0  0
 19 49  1  0  0  0  0
 19 31  1  0  0  0  0
 16 44  1  0  0  0  0
 16 43  1  0  0  0  0
 16 18  1  0  0  0  0
 31 66  1  0  0  0  0
 18 31  1  0  0  0  0
 31 65  1  0  0  0  0
 18 47  1  0  0  0  0
 18 48  1  0  0  0  0
M  CHG  1  31   1
M  END
> <CID>
EN300-738987

> <SMILES>
Cc1ccncc1NC(=O)Cc2cc(cc(c2)Cl)OCc3c(n(nn3)C[C@@H]4CCCC[NH2+]C4)C

> <RUN>
RUN392

> <DDG (kcal/mol)>
-0.55

> <dDDG (kcal/mol)>
0.14

$$$$
EN300-1916571
  -OEChem-08252008263D

 48 50  0     0  0  0  0  0  0999 V2000
    8.7960    0.5480   26.9950 C   0  0  0  0  0  0  0  0  0  0  0  0
    9.7560    0.4040   25.9760 C   0  0  0  0  0  0  0  0  0  0  0  0
    8.0320    1.6990   26.9030 C   0  0  0  0  0  0  0  0  0  0  0  0
    5.8120    1.7810   19.4460 C   0  0  0  0  0  0  0  0  0  0  0  0
    9.9630   -0.8720   22.8990 C   0  0  0  0  0  0  0  0  0  0  0  0
   11.3050   -2.0510   21.3380 C   0  0  0  0  0  0  0  0  0  0  0  0
   12.2000   -0.2200   22.6080 C   0  0  0  0  0  0  0  0  0  0  0  0
    5.5810    1.2280   18.1880 C   0  0  0  0  0  0  0  0  0  0  0  0
    6.7110   -0.6280   18.6580 C   0  0  0  0  0  0  0  0  0  0  0  0
    6.4510    1.0810   20.4450 C   0  0  0  0  0  0  0  0  0  0  0  0
   10.1220   -1.9400   22.0140 C   0  0  0  0  0  0  0  0  0  0  0  0
    9.3140    2.5550   25.0430 C   0  0  0  0  0  0  0  0  0  0  0  0
    6.8860   -0.2400   20.0390 C   0  0  0  0  0  0  0  0  0  0  0  0
   10.0470    1.3150   24.9960 C   0  0  0  0  0  0  0  0  0  0  0  0
   10.9890    0.0050   23.1540 C   0  0  0  0  0  0  0  0  0  0  0  0
    8.2990    2.7310   26.0190 C   0  0  0  0  0  0  0  0  0  0  0  0
   12.3650   -1.1950   21.6180 C   0  0  0  0  0  0  0  0  0  0  0  0
    7.8480   -2.3810   20.8490 C   0  0  0  0  0  0  0  0  0  0  0  0
    6.7300    1.7240   21.6970 C   0  0  0  0  0  0  0  0  0  0  0  0
    9.0140   -2.9610   21.7550 C   0  0  0  0  0  0  0  0  0  0  0  0
    9.5210    3.6360   23.9780 C   0  0  0  0  0  0  0  0  0  0  0  0
   10.8470    4.4140   24.4650 C   0  0  0  0  0  0  0  0  0  0  0  0
    6.1600    0.0960   17.7000 N   0  0  0  0  0  0  0  0  0  0  0  0
    7.5680   -1.0470   20.9340 N   0  0  0  0  0  0  0  0  0  0  0  0
    7.0980   -3.1020   20.2550 O   0  0  0  0  0  0  0  0  0  0  0  0
   10.9470    1.1640   23.9690 O   0  0  0  0  0  0  0  0  0  0  0  0
    7.5430    3.8520   26.1360 F   0  0  0  0  0  0  0  0  0  0  0  0
   13.8450   -1.2960   20.6760 Cl  0  0  0  0  0  0  0  0  0  0  0  0
   10.4770    5.5180   26.1710 Br  0  0  0  0  0  0  0  0  0  0  0  0
    8.6540   -0.2350   27.7380 H   0  0  0  0  0  0  0  0  0  0  0  0
   10.4090   -0.4670   25.9840 H   0  0  0  0  0  0  0  0  0  0  0  0
    7.3310    1.9210   27.7010 H   0  0  0  0  0  0  0  0  0  0  0  0
    5.5280    2.7920   19.7030 H   0  0  0  0  0  0  0  0  0  0  0  0
    9.0170   -0.6820   23.3850 H   0  0  0  0  0  0  0  0  0  0  0  0
   11.4820   -2.9190   20.7050 H   0  0  0  0  0  0  0  0  0  0  0  0
   13.1170    0.3370   22.7960 H   0  0  0  0  0  0  0  0  0  0  0  0
    5.0290    1.8570   17.4980 H   0  0  0  0  0  0  0  0  0  0  0  0
    7.0880   -1.5930   18.3330 H   0  0  0  0  0  0  0  0  0  0  0  0
    7.0200    2.7600   21.5360 H   0  0  0  0  0  0  0  0  0  0  0  0
    5.8090    1.6800   22.2900 H   0  0  0  0  0  0  0  0  0  0  0  0
    7.5100    1.1930   22.2530 H   0  0  0  0  0  0  0  0  0  0  0  0
    9.4630   -3.8670   21.3370 H   0  0  0  0  0  0  0  0  0  0  0  0
    8.6620   -3.1280   22.7790 H   0  0  0  0  0  0  0  0  0  0  0  0
    8.6270    4.2560   23.8820 H   0  0  0  0  0  0  0  0  0  0  0  0
    9.8130    3.2840   22.9900 H   0  0  0  0  0  0  0  0  0  0  0  0
   11.6720    3.7160   24.6510 H   0  0  0  0  0  0  0  0  0  0  0  0
   11.1920    5.0260   23.6290 H   0  0  0  0  0  0  0  0  0  0  0  0
    8.1520   -0.5710   21.6210 H   0  0  0  0  0  0  0  0  0  0  0  0
  8 37  1  0  0  0  0
  8 23  2  0  0  0  0
  9 23  1  0  0  0  0
  4  8  1  0  0  0  0
  9 38  1  0  0  0  0
  9 13  2  0  0  0  0
  4 33  1  0  0  0  0
  4 10  2  0  0  0  0
 10 13  1  0  0  0  0
 13 24  1  0  0  0  0
 18 25  2  0  0  0  0
 10 19  1  0  0  0  0
 17 28  1  0  0  0  0
  6 35  1  0  0  0  0
 18 24  1  0  0  0  0
 18 20  1  0  0  0  0
 24 48  1  0  0  0  0
 20 42  1  0  0  0  0
  6 17  2  0  0  0  0
  6 11  1  0  0  0  0
 19 39  1  0  0  0  0
  7 17  1  0  0  0  0
 19 41  1  0  0  0  0
 19 40  1  0  0  0  0
 11 20  1  0  0  0  0
 20 43  1  0  0  0  0
  5 11  2  0  0  0  0
  7 36  1  0  0  0  0
  7 15  2  0  0  0  0
  5 15  1  0  0  0  0
  5 34  1  0  0  0  0
 21 45  1  0  0  0  0
 15 26  1  0  0  0  0
 22 47  1  0  0  0  0
 21 44  1  0  0  0  0
 14 26  1  0  0  0  0
 21 22  1  0  0  0  0
 12 21  1  0  0  0  0
 22 46  1  0  0  0  0
 22 29  1  0  0  0  0
 12 14  2  0  0  0  0
  2 14  1  0  0  0  0
 12 16  1  0  0  0  0
  2 31  1  0  0  0  0
  1  2  2  0  0  0  0
 16 27  1  0  0  0  0
  3 16  2  0  0  0  0
  1  3  1  0  0  0  0
  3 32  1  0  0  0  0
  1 30  1  0  0  0  0
M  END
> <CID>
EN300-1916571

> <SMILES>
Cc1ccncc1NC(=O)Cc2cc(cc(c2)Cl)Oc3cccc(c3CCBr)F

> <RUN>
RUN1098

> <DDG (kcal/mol)>
-0.54

> <dDDG (kcal/mol)>
0.14

$$$$
EN300-177132
  -OEChem-08252008263D

 49 51  0     0  0  0  0  0  0999 V2000
    5.4840    2.2130   19.5330 C   0  0  0  0  0  0  0  0  0  0  0  0
   12.4530    2.3320   22.3700 C   0  0  0  0  0  0  0  0  0  0  0  0
   12.6670   -0.0680   22.6940 C   0  0  0  0  0  0  0  0  0  0  0  0
   14.6060    1.3560   22.1780 C   0  0  0  0  0  0  0  0  0  0  0  0
    5.9240    1.6780   18.3250 C   0  0  0  0  0  0  0  0  0  0  0  0
    7.8060    0.8200   19.2830 C   0  0  0  0  0  0  0  0  0  0  0  0
    6.2300    2.0630   20.7190 C   0  0  0  0  0  0  0  0  0  0  0  0
   11.8750    1.0730   22.6310 C   0  0  0  0  0  0  0  0  0  0  0  0
    7.4420    1.3450   20.5570 C   0  0  0  0  0  0  0  0  0  0  0  0
   13.8460    2.4660   22.1830 C   0  0  0  0  0  0  0  0  0  0  0  0
   14.0670    0.1080   22.4120 C   0  0  0  0  0  0  0  0  0  0  0  0
   14.6630    7.2020   21.9860 C   0  0  0  0  0  0  0  0  0  0  0  0
   14.5320    5.9770   21.3640 C   0  0  0  0  0  0  0  0  0  0  0  0
   13.9650    7.6610   23.2860 C   0  0  0  0  0  0  0  0  0  0  0  0
    9.6610    1.4170   21.7210 C   0  0  0  0  0  0  0  0  0  0  0  0
    5.8140    2.6220   22.0050 C   0  0  0  0  0  0  0  0  0  0  0  0
   11.3900    7.4010   24.8190 C   0  0  0  0  0  0  0  0  0  0  0  0
   10.4600    0.9770   22.9390 C   0  0  0  0  0  0  0  0  0  0  0  0
   13.6640    4.8780   21.7860 C   0  0  0  0  0  0  0  0  0  0  0  0
   12.8310    7.1530   25.2990 C   0  0  0  0  0  0  0  0  0  0  0  0
    7.0300    0.9990   18.2250 N   0  0  0  0  0  0  0  0  0  0  0  0
   15.4470    8.0630   21.2410 N   0  0  0  0  0  0  0  0  0  0  0  0
   15.8980    7.4940   20.1360 N   0  0  0  0  0  0  0  0  0  0  0  0
    8.3200    1.1130   21.7000 N   0  0  0  0  0  0  0  0  0  0  0  0
   13.8570    8.8380   23.4740 O   0  0  0  0  0  0  0  0  0  0  0  0
   10.1140    2.0110   20.7720 O   0  0  0  0  0  0  0  0  0  0  0  0
   14.4630    3.6400   21.9780 O   0  0  0  0  0  0  0  0  0  0  0  0
   13.5860    6.6740   24.1410 O   0  0  0  0  0  0  0  0  0  0  0  0
   15.3590    5.9370   19.8400 S   0  0  0  0  0  0  0  0  0  0  0  0
   15.0980   -1.3410   22.2500 Cl  0  0  0  0  0  0  0  0  0  0  0  0
    4.5170    2.7060   19.5690 H   0  0  0  0  0  0  0  0  0  0  0  0
   11.7520    3.1560   22.2810 H   0  0  0  0  0  0  0  0  0  0  0  0
   12.2170   -1.0460   22.7630 H   0  0  0  0  0  0  0  0  0  0  0  0
   15.6390    1.3380   21.8490 H   0  0  0  0  0  0  0  0  0  0  0  0
    5.2940    1.8080   17.4640 H   0  0  0  0  0  0  0  0  0  0  0  0
    8.6340    0.1320   19.1450 H   0  0  0  0  0  0  0  0  0  0  0  0
    6.5220    3.1070   22.6860 H   0  0  0  0  0  0  0  0  0  0  0  0
    4.9900    3.3440   21.9050 H   0  0  0  0  0  0  0  0  0  0  0  0
    5.4810    1.7000   22.4920 H   0  0  0  0  0  0  0  0  0  0  0  0
   11.3200    8.3950   24.3820 H   0  0  0  0  0  0  0  0  0  0  0  0
   10.6800    7.5150   25.6540 H   0  0  0  0  0  0  0  0  0  0  0  0
   11.1440    6.6170   24.0950 H   0  0  0  0  0  0  0  0  0  0  0  0
   10.1470   -0.0540   23.1470 H   0  0  0  0  0  0  0  0  0  0  0  0
   10.1050    1.5910   23.7730 H   0  0  0  0  0  0  0  0  0  0  0  0
   12.9980    4.7620   20.9280 H   0  0  0  0  0  0  0  0  0  0  0  0
   12.9990    5.1530   22.6100 H   0  0  0  0  0  0  0  0  0  0  0  0
   12.9240    6.3720   26.0660 H   0  0  0  0  0  0  0  0  0  0  0  0
   13.2350    8.0710   25.7510 H   0  0  0  0  0  0  0  0  0  0  0  0
    7.9290    0.7690   22.5680 H   0  0  0  0  0  0  0  0  0  0  0  0
  5 35  1  0  0  0  0
  5 21  2  0  0  0  0
  6 21  1  0  0  0  0
  1  5  1  0  0  0  0
  6 36  1  0  0  0  0
  6  9  2  0  0  0  0
  1 31  1  0  0  0  0
  1  7  2  0  0  0  0
 23 29  1  0  0  0  0
 13 29  1  0  0  0  0
 22 23  2  0  0  0  0
  7  9  1  0  0  0  0
  9 24  1  0  0  0  0
  7 16  1  0  0  0  0
 15 26  2  0  0  0  0
 19 45  1  0  0  0  0
 12 22  1  0  0  0  0
 13 19  1  0  0  0  0
 12 13  2  0  0  0  0
 15 24  1  0  0  0  0
 24 49  1  0  0  0  0
 15 18  1  0  0  0  0
 19 27  1  0  0  0  0
 19 46  1  0  0  0  0
  4 34  1  0  0  0  0
 16 38  1  0  0  0  0
 10 27  1  0  0  0  0
 12 14  1  0  0  0  0
 16 39  1  0  0  0  0
 16 37  1  0  0  0  0
  4 10  2  0  0  0  0
  4 11  1  0  0  0  0
  2 10  1  0  0  0  0
 11 30  1  0  0  0  0
  2 32  1  0  0  0  0
  2  8  2  0  0  0  0
  3 11  2  0  0  0  0
  3  8  1  0  0  0  0
  8 18  1  0  0  0  0
  3 33  1  0  0  0  0
 18 43  1  0  0  0  0
 18 44  1  0  0  0  0
 14 25  2  0  0  0  0
 14 28  1  0  0  0  0
 17 42  1  0  0  0  0
 20 28  1  0  0  0  0
 17 40  1  0  0  0  0
 17 20  1  0  0  0  0
 17 41  1  0  0  0  0
 20 48  1  0  0  0  0
 20 47  1  0  0  0  0
M  END
> <CID>
EN300-177132

> <SMILES>
CCOC(=O)c1c(snn1)COc2cc(cc(c2)Cl)CC(=O)Nc3cnccc3C

> <RUN>
RUN361

> <DDG (kcal/mol)>
-0.52

> <dDDG (kcal/mol)>
0.12

$$$$
EN300-1563127
  -OEChem-08252008263D

 54 56  0     0  0  0  0  0  0999 V2000
    7.6700    1.0970   28.5560 C   0  0  0  0  0  0  0  0  0  0  0  0
    8.2280    0.5640   27.3850 C   0  0  0  0  0  0  0  0  0  0  0  0
    6.3030    2.1770   18.4800 C   0  0  0  0  0  0  0  0  0  0  0  0
    6.6530    1.9360   26.0820 C   0  0  0  0  0  0  0  0  0  0  0  0
    9.6470   -1.1480   22.9370 C   0  0  0  0  0  0  0  0  0  0  0  0
   11.6500   -1.4020   21.5880 C   0  0  0  0  0  0  0  0  0  0  0  0
   11.6400    0.2110   23.5250 C   0  0  0  0  0  0  0  0  0  0  0  0
    6.4180    1.8230   17.1630 C   0  0  0  0  0  0  0  0  0  0  0  0
    7.6500   -0.0220   17.8190 C   0  0  0  0  0  0  0  0  0  0  0  0
    6.7410    2.1830   28.5080 C   0  0  0  0  0  0  0  0  0  0  0  0
    7.6750    0.9730   26.1600 C   0  0  0  0  0  0  0  0  0  0  0  0
    6.9490    1.4460   19.5020 C   0  0  0  0  0  0  0  0  0  0  0  0
    6.2050    2.6200   27.2440 C   0  0  0  0  0  0  0  0  0  0  0  0
   10.3230   -1.7060   21.8830 C   0  0  0  0  0  0  0  0  0  0  0  0
    7.5810    0.3270   19.1960 C   0  0  0  0  0  0  0  0  0  0  0  0
   10.3230   -0.2120   23.8350 C   0  0  0  0  0  0  0  0  0  0  0  0
   12.3220   -0.4270   22.4060 C   0  0  0  0  0  0  0  0  0  0  0  0
    6.4130    2.8050   29.8030 C   0  0  0  0  0  0  0  0  0  0  0  0
    8.4810   -1.8590   20.1420 C   0  0  0  0  0  0  0  0  0  0  0  0
    6.8300    1.9620   20.8880 C   0  0  0  0  0  0  0  0  0  0  0  0
    5.1740    3.7450   27.0200 C   0  0  0  0  0  0  0  0  0  0  0  0
    6.2220    2.3830   32.2480 C   0  0  0  0  0  0  0  0  0  0  0  0
    9.5410   -2.5940   20.8810 C   0  0  0  0  0  0  0  0  0  0  0  0
    8.2050    0.2890   24.9090 C   0  0  0  0  0  0  0  0  0  0  0  0
    7.1390    0.7310   16.8640 N   0  0  0  0  0  0  0  0  0  0  0  0
    8.2690   -0.4490   20.2140 N   0  0  0  0  0  0  0  0  0  0  0  0
    6.3170    4.0210   29.8800 O   0  0  0  0  0  0  0  0  0  0  0  0
    7.6780   -2.5200   19.4510 O   0  0  0  0  0  0  0  0  0  0  0  0
    9.6410    0.3710   24.9260 O   0  0  0  0  0  0  0  0  0  0  0  0
    6.4400    1.9490   30.8990 O   0  0  0  0  0  0  0  0  0  0  0  0
   13.9960   -0.1740   22.2030 Cl  0  0  0  0  0  0  0  0  0  0  0  0
    8.0700    0.5550   29.4110 H   0  0  0  0  0  0  0  0  0  0  0  0
    8.9510   -0.2470   27.4530 H   0  0  0  0  0  0  0  0  0  0  0  0
    5.7240    3.0670   18.7090 H   0  0  0  0  0  0  0  0  0  0  0  0
    6.0580    2.0910   25.1950 H   0  0  0  0  0  0  0  0  0  0  0  0
    8.5920   -1.3270   23.0700 H   0  0  0  0  0  0  0  0  0  0  0  0
   12.2140   -1.8690   20.7840 H   0  0  0  0  0  0  0  0  0  0  0  0
   12.0930    0.9320   24.1970 H   0  0  0  0  0  0  0  0  0  0  0  0
    5.9090    2.3910   16.3950 H   0  0  0  0  0  0  0  0  0  0  0  0
    8.1530   -0.9140   17.4590 H   0  0  0  0  0  0  0  0  0  0  0  0
    6.0710    2.7360   21.0870 H   0  0  0  0  0  0  0  0  0  0  0  0
    6.6840    1.1420   21.5930 H   0  0  0  0  0  0  0  0  0  0  0  0
    7.8180    2.3820   21.1340 H   0  0  0  0  0  0  0  0  0  0  0  0
    4.6060    3.9700   27.9300 H   0  0  0  0  0  0  0  0  0  0  0  0
    5.6980    4.6480   26.7130 H   0  0  0  0  0  0  0  0  0  0  0  0
    4.4240    3.4550   26.2810 H   0  0  0  0  0  0  0  0  0  0  0  0
    5.4520    1.7510   32.7330 H   0  0  0  0  0  0  0  0  0  0  0  0
    7.2170    2.3300   32.6900 H   0  0  0  0  0  0  0  0  0  0  0  0
    5.8080    3.3890   32.3850 H   0  0  0  0  0  0  0  0  0  0  0  0
   10.2340   -3.0180   20.1490 H   0  0  0  0  0  0  0  0  0  0  0  0
    9.0140   -3.4320   21.3510 H   0  0  0  0  0  0  0  0  0  0  0  0
    7.8710   -0.7460   24.8800 H   0  0  0  0  0  0  0  0  0  0  0  0
    7.8450    0.8570   24.0440 H   0  0  0  0  0  0  0  0  0  0  0  0
    8.5990    0.0980   21.0190 H   0  0  0  0  0  0  0  0  0  0  0  0
  8 39  1  0  0  0  0
  8 25  2  0  0  0  0
  9 25  1  0  0  0  0
  3  8  1  0  0  0  0
  9 40  1  0  0  0  0
  9 15  2  0  0  0  0
  3 34  1  0  0  0  0
  3 12  2  0  0  0  0
 12 15  1  0  0  0  0
 15 26  1  0  0  0  0
 19 28  2  0  0  0  0
 12 20  1  0  0  0  0
 19 26  1  0  0  0  0
 19 23  1  0  0  0  0
 23 50  1  0  0  0  0
 26 54  1  0  0  0  0
  6 37  1  0  0  0  0
 23 51  1  0  0  0  0
 14 23  1  0  0  0  0
 20 41  1  0  0  0  0
 20 43  1  0  0  0  0
 20 42  1  0  0  0  0
  6 14  2  0  0  0  0
  6 17  1  0  0  0  0
  5 14  1  0  0  0  0
 17 31  1  0  0  0  0
  7 17  2  0  0  0  0
  5 36  1  0  0  0  0
  5 16  2  0  0  0  0
  7 16  1  0  0  0  0
  7 38  1  0  0  0  0
 16 29  1  0  0  0  0
 24 53  1  0  0  0  0
 24 52  1  0  0  0  0
 24 29  1  0  0  0  0
 11 24  1  0  0  0  0
  4 35  1  0  0  0  0
  4 11  2  0  0  0  0
  4 13  1  0  0  0  0
  2 11  1  0  0  0  0
 21 46  1  0  0  0  0
 21 45  1  0  0  0  0
 13 21  1  0  0  0  0
 21 44  1  0  0  0  0
 10 13  2  0  0  0  0
  2 33  1  0  0  0  0
  1  2  2  0  0  0  0
  1 10  1  0  0  0  0
 10 18  1  0  0  0  0
  1 32  1  0  0  0  0
 18 27  2  0  0  0  0
 18 30  1  0  0  0  0
 22 30  1  0  0  0  0
 22 49  1  0  0  0  0
 22 48  1  0  0  0  0
 22 47  1  0  0  0  0
M  END
> <CID>
EN300-1563127

> <SMILES>
Cc1ccncc1NC(=O)Cc2cc(cc(c2)Cl)OCc3ccc(c(c3)C)C(=O)OC

> <RUN>
RUN4415

> <DDG (kcal/mol)>
-0.51

> <dDDG (kcal/mol)>
0.19

$$$$
EN300-767696
  -OEChem-08252008263D

 63 67  0     1  0  0  0  0  0999 V2000
   12.3160    7.4800   24.0800 C   0  0  0  0  0  0  0  0  0  0  0  0
   12.4230    7.4990   25.4690 C   0  0  0  0  0  0  0  0  0  0  0  0
   10.9390    6.0650   28.6500 C   0  0  0  0  0  0  0  0  0  0  0  0
   13.2470    6.9160   28.4620 C   0  0  0  0  0  0  0  0  0  0  0  0
   11.0160    6.2220   30.0050 C   0  0  0  0  0  0  0  0  0  0  0  0
   13.3260    7.0300   29.8250 C   0  0  0  0  0  0  0  0  0  0  0  0
   11.6730    6.3690   23.5160 C   0  0  0  0  0  0  0  0  0  0  0  0
    4.1730    1.1010   18.2930 C   0  0  0  0  0  0  0  0  0  0  0  0
   11.4540    5.3520   25.7000 C   0  0  0  0  0  0  0  0  0  0  0  0
   10.2770    1.0110   23.1050 C   0  0  0  0  0  0  0  0  0  0  0  0
   11.2800   -1.1160   22.5800 C   0  0  0  0  0  0  0  0  0  0  0  0
   12.6370    0.6710   23.2070 C   0  0  0  0  0  0  0  0  0  0  0  0
    5.0290    1.0920   17.1560 C   0  0  0  0  0  0  0  0  0  0  0  0
    6.8390    0.4570   18.2370 C   0  0  0  0  0  0  0  0  0  0  0  0
   12.0600    6.4380   27.8310 C   0  0  0  0  0  0  0  0  0  0  0  0
   11.9470    6.4280   26.3000 C   0  0  0  0  0  0  0  0  0  0  0  0
   12.2700    6.6860   30.6550 C   0  0  0  0  0  0  0  0  0  0  0  0
   11.3430    5.2450   24.3400 C   0  0  0  0  0  0  0  0  0  0  0  0
    4.8200    0.7410   19.4960 C   0  0  0  0  0  0  0  0  0  0  0  0
   10.1360   -0.3280   22.5490 C   0  0  0  0  0  0  0  0  0  0  0  0
    6.1720    0.3330   19.4720 C   0  0  0  0  0  0  0  0  0  0  0  0
   11.5700    1.5580   23.3720 C   0  0  0  0  0  0  0  0  0  0  0  0
   12.5340   -0.6660   22.9670 C   0  0  0  0  0  0  0  0  0  0  0  0
    8.1230    0.0430   21.0360 C   0  0  0  0  0  0  0  0  0  0  0  0
   12.2350    5.6780   33.0250 C   0  0  0  0  0  0  0  0  0  0  0  0
   10.9460    6.4010   33.5620 C   0  0  0  0  0  0  0  0  0  0  0  0
   12.3490    6.9260   32.1040 C   0  0  2  0  0  0  0  0  0  0  0  0
    4.0260    0.8100   20.7430 C   0  0  0  0  0  0  0  0  0  0  0  0
    8.8050   -0.8680   22.0230 C   0  0  0  0  0  0  0  0  0  0  0  0
   10.8320    3.9000   23.7350 C   0  0  0  0  0  0  0  0  0  0  0  0
    6.3080    0.7960   17.0820 N   0  0  0  0  0  0  0  0  0  0  0  0
    6.7590   -0.0670   20.6800 N   0  0  0  0  0  0  0  0  0  0  0  0
    8.6760    1.0310   20.5370 O   0  0  0  0  0  0  0  0  0  0  0  0
   11.1810    7.5250   32.6800 O   0  0  0  0  0  0  0  0  0  0  0  0
   11.8180    2.8660   23.7970 O   0  0  0  0  0  0  0  0  0  0  0  0
   13.9120   -1.7780   22.8750 Cl  0  0  0  0  0  0  0  0  0  0  0  0
   12.5360    8.3440   23.4640 H   0  0  0  0  0  0  0  0  0  0  0  0
   12.8180    8.4660   25.7600 H   0  0  0  0  0  0  0  0  0  0  0  0
   10.0470    5.7470   28.1120 H   0  0  0  0  0  0  0  0  0  0  0  0
   14.1060    7.1600   27.8390 H   0  0  0  0  0  0  0  0  0  0  0  0
   10.1170    5.9730   30.5610 H   0  0  0  0  0  0  0  0  0  0  0  0
   14.2770    7.2860   30.2760 H   0  0  0  0  0  0  0  0  0  0  0  0
   11.6410    6.3110   22.4290 H   0  0  0  0  0  0  0  0  0  0  0  0
    3.1240    1.3680   18.1970 H   0  0  0  0  0  0  0  0  0  0  0  0
   11.1250    4.5470   26.3420 H   0  0  0  0  0  0  0  0  0  0  0  0
    9.3650    1.5800   23.2390 H   0  0  0  0  0  0  0  0  0  0  0  0
   11.2070   -2.1390   22.2090 H   0  0  0  0  0  0  0  0  0  0  0  0
   13.6050    1.1470   23.3150 H   0  0  0  0  0  0  0  0  0  0  0  0
    4.6720    1.2480   16.1450 H   0  0  0  0  0  0  0  0  0  0  0  0
    7.9100    0.2760   18.2330 H   0  0  0  0  0  0  0  0  0  0  0  0
   12.9710    5.7290   33.8440 H   0  0  0  0  0  0  0  0  0  0  0  0
   12.0840    4.6380   32.7420 H   0  0  0  0  0  0  0  0  0  0  0  0
    9.9940    5.8850   33.3840 H   0  0  0  0  0  0  0  0  0  0  0  0
   10.9940    6.6440   34.6210 H   0  0  0  0  0  0  0  0  0  0  0  0
   13.2480    7.4820   32.3780 H   0  0  0  0  0  0  0  0  0  0  0  0
    3.7910   -0.1960   21.0890 H   0  0  0  0  0  0  0  0  0  0  0  0
    4.6290    1.2370   21.5500 H   0  0  0  0  0  0  0  0  0  0  0  0
    3.1130    1.3940   20.6350 H   0  0  0  0  0  0  0  0  0  0  0  0
    9.0290   -1.7730   21.4620 H   0  0  0  0  0  0  0  0  0  0  0  0
    8.1910   -1.0650   22.9140 H   0  0  0  0  0  0  0  0  0  0  0  0
    9.9780    3.5500   24.3320 H   0  0  0  0  0  0  0  0  0  0  0  0
   10.5110    4.0090   22.6930 H   0  0  0  0  0  0  0  0  0  0  0  0
    6.2330   -0.7950   21.1620 H   0  0  0  0  0  0  0  0  0  0  0  0
 13 49  1  0  0  0  0
 13 31  2  0  0  0  0
 14 31  1  0  0  0  0
  8 13  1  0  0  0  0
  8 44  1  0  0  0  0
 14 50  1  0  0  0  0
 14 21  2  0  0  0  0
  8 19  2  0  0  0  0
 19 21  1  0  0  0  0
 21 32  1  0  0  0  0
 19 28  1  0  0  0  0
 24 33  2  0  0  0  0
 28 58  1  0  0  0  0
 24 32  1  0  0  0  0
 32 63  1  0  0  0  0
 28 56  1  0  0  0  0
 28 57  1  0  0  0  0
 24 29  1  0  0  0  0
 29 59  1  0  0  0  0
 20 29  1  0  0  0  0
 29 60  1  0  0  0  0
 11 47  1  0  0  0  0
  7 43  1  0  0  0  0
 11 20  2  0  0  0  0
 10 20  1  0  0  0  0
 11 23  1  0  0  0  0
 30 62  1  0  0  0  0
 23 36  1  0  0  0  0
 12 23  2  0  0  0  0
 10 46  1  0  0  0  0
 10 22  2  0  0  0  0
 12 48  1  0  0  0  0
 12 22  1  0  0  0  0
 22 35  1  0  0  0  0
  1 37  1  0  0  0  0
  1  7  2  0  0  0  0
  7 18  1  0  0  0  0
 30 35  1  0  0  0  0
 30 61  1  0  0  0  0
 18 30  1  0  0  0  0
  1  2  1  0  0  0  0
  9 18  2  0  0  0  0
  2 38  1  0  0  0  0
  2 16  2  0  0  0  0
  9 16  1  0  0  0  0
  9 45  1  0  0  0  0
 15 16  1  0  0  0  0
  4 15  2  0  0  0  0
  3 15  1  0  0  0  0
  4 40  1  0  0  0  0
  3 39  1  0  0  0  0
  4  6  1  0  0  0  0
  3  5  2  0  0  0  0
  6 42  1  0  0  0  0
  6 17  2  0  0  0  0
  5 41  1  0  0  0  0
  5 17  1  0  0  0  0
 17 27  1  0  0  0  0
 27 55  1  0  0  0  0
 27 34  1  0  0  0  0
 25 27  1  0  0  0  0
 26 34  1  0  0  0  0
 25 52  1  0  0  0  0
 25 26  1  0  0  0  0
 25 51  1  0  0  0  0
 26 53  1  0  0  0  0
 26 54  1  0  0  0  0
M  END
> <CID>
EN300-767696

> <SMILES>
Cc1ccncc1NC(=O)Cc2cc(cc(c2)Cl)OCc3cccc(c3)c4ccc(cc4)[C@@H]5CCO5

> <RUN>
RUN2490

> <DDG (kcal/mol)>
-0.51

> <dDDG (kcal/mol)>
0.17

$$$$
EN300-1613392
  -OEChem-08252008263D

 53 56  0     0  0  0  0  0  0999 V2000
   15.8740    6.5450   19.3820 C   0  0  0  0  0  0  0  0  0  0  0  0
   15.6500    6.1320   20.6970 C   0  0  0  0  0  0  0  0  0  0  0  0
   16.1300    7.8190   19.0730 C   0  0  0  0  0  0  0  0  0  0  0  0
    5.7680    1.8290   18.7520 C   0  0  0  0  0  0  0  0  0  0  0  0
   16.0430    8.4590   21.2900 C   0  0  0  0  0  0  0  0  0  0  0  0
   12.5370    2.3270   23.2320 C   0  0  0  0  0  0  0  0  0  0  0  0
   12.6870    0.1410   22.1700 C   0  0  0  0  0  0  0  0  0  0  0  0
   14.6430    1.4040   22.5030 C   0  0  0  0  0  0  0  0  0  0  0  0
    6.2300    1.0620   17.6520 C   0  0  0  0  0  0  0  0  0  0  0  0
    8.0940    0.5660   18.8870 C   0  0  0  0  0  0  0  0  0  0  0  0
   15.7130    7.1510   21.6830 C   0  0  0  0  0  0  0  0  0  0  0  0
    6.4670    1.8940   19.9700 C   0  0  0  0  0  0  0  0  0  0  0  0
   11.8690    1.1450   22.7560 C   0  0  0  0  0  0  0  0  0  0  0  0
   16.1870    8.8430   19.9770 C   0  0  0  0  0  0  0  0  0  0  0  0
    7.6390    1.1950   20.0570 C   0  0  0  0  0  0  0  0  0  0  0  0
   13.9070    2.3990   23.0440 C   0  0  0  0  0  0  0  0  0  0  0  0
   14.0630    0.2010   22.0770 C   0  0  0  0  0  0  0  0  0  0  0  0
   15.5440    6.8750   23.0760 C   0  0  0  0  0  0  0  0  0  0  0  0
   14.8970    5.9190   23.7500 C   0  0  0  0  0  0  0  0  0  0  0  0
   15.9460    7.1960   25.1770 C   0  0  0  0  0  0  0  0  0  0  0  0
    9.8130    1.2430   21.4160 C   0  0  0  0  0  0  0  0  0  0  0  0
    6.0920    2.8430   21.1110 C   0  0  0  0  0  0  0  0  0  0  0  0
   10.3140    1.0780   22.8110 C   0  0  0  0  0  0  0  0  0  0  0  0
   13.9830    4.8270   23.1630 C   0  0  0  0  0  0  0  0  0  0  0  0
    7.3420    0.3440   17.7490 N   0  0  0  0  0  0  0  0  0  0  0  0
    8.4010    1.1700   21.2340 N   0  0  0  0  0  0  0  0  0  0  0  0
   16.3800   10.1400   19.5270 N   0  0  0  0  0  0  0  0  0  0  0  0
   16.5150    7.5600   26.1550 O   0  0  0  0  0  0  0  0  0  0  0  0
   10.5600    1.4920   20.4670 O   0  0  0  0  0  0  0  0  0  0  0  0
   16.9540   10.2870   18.4670 O   0  0  0  0  0  0  0  0  0  0  0  0
   16.0060   11.0780   20.2520 O   0  0  0  0  0  0  0  0  0  0  0  0
   16.1470    7.7300   23.9080 O   0  0  0  0  0  0  0  0  0  0  0  0
   15.1490    6.1640   25.0520 O   0  0  0  0  0  0  0  0  0  0  0  0
   14.6310    3.5410   23.2150 O   0  0  0  0  0  0  0  0  0  0  0  0
   14.9600   -1.0360   21.3460 Cl  0  0  0  0  0  0  0  0  0  0  0  0
   15.8160    5.7330   18.6710 H   0  0  0  0  0  0  0  0  0  0  0  0
   15.5250    5.0930   20.9560 H   0  0  0  0  0  0  0  0  0  0  0  0
   16.2810    8.0820   18.0290 H   0  0  0  0  0  0  0  0  0  0  0  0
    4.8640    2.4360   18.7180 H   0  0  0  0  0  0  0  0  0  0  0  0
   16.1420    9.2870   21.9790 H   0  0  0  0  0  0  0  0  0  0  0  0
   11.8780    3.1590   23.4630 H   0  0  0  0  0  0  0  0  0  0  0  0
   12.3320   -0.8160   21.8090 H   0  0  0  0  0  0  0  0  0  0  0  0
   15.6960    1.5480   22.2640 H   0  0  0  0  0  0  0  0  0  0  0  0
    5.6350    1.0870   16.7380 H   0  0  0  0  0  0  0  0  0  0  0  0
    9.0870    0.1740   18.7200 H   0  0  0  0  0  0  0  0  0  0  0  0
    5.0630    3.2020   21.0070 H   0  0  0  0  0  0  0  0  0  0  0  0
    6.1690    2.2700   22.0340 H   0  0  0  0  0  0  0  0  0  0  0  0
    6.8530    3.6190   21.1810 H   0  0  0  0  0  0  0  0  0  0  0  0
    9.9140    0.2140   23.3380 H   0  0  0  0  0  0  0  0  0  0  0  0
    9.9060    1.8770   23.4490 H   0  0  0  0  0  0  0  0  0  0  0  0
   13.6620    5.1080   22.1520 H   0  0  0  0  0  0  0  0  0  0  0  0
   13.1750    4.9400   23.8840 H   0  0  0  0  0  0  0  0  0  0  0  0
    7.9590    0.8830   22.1040 H   0  0  0  0  0  0  0  0  0  0  0  0
  9 44  1  0  0  0  0
  9 25  2  0  0  0  0
  4  9  1  0  0  0  0
 10 25  1  0  0  0  0
  3 38  1  0  0  0  0
 27 30  2  0  0  0  0
  1 36  1  0  0  0  0
  4 39  1  0  0  0  0
 10 45  1  0  0  0  0
  4 12  2  0  0  0  0
 10 15  2  0  0  0  0
  1  3  2  0  0  0  0
  3 14  1  0  0  0  0
  1  2  1  0  0  0  0
 14 27  1  0  0  0  0
 27 31  2  0  0  0  0
 12 15  1  0  0  0  0
 12 22  1  0  0  0  0
  5 14  2  0  0  0  0
 15 26  1  0  0  0  0
 21 29  2  0  0  0  0
  2 37  1  0  0  0  0
  2 11  2  0  0  0  0
 22 46  1  0  0  0  0
 22 48  1  0  0  0  0
 22 47  1  0  0  0  0
 21 26  1  0  0  0  0
 26 53  1  0  0  0  0
  5 11  1  0  0  0  0
  5 40  1  0  0  0  0
 17 35  1  0  0  0  0
 21 23  1  0  0  0  0
 11 18  1  0  0  0  0
  7 42  1  0  0  0  0
  7 17  2  0  0  0  0
  8 17  1  0  0  0  0
 24 51  1  0  0  0  0
  7 13  1  0  0  0  0
  8 43  1  0  0  0  0
  8 16  2  0  0  0  0
 13 23  1  0  0  0  0
  6 13  2  0  0  0  0
 23 49  1  0  0  0  0
 23 50  1  0  0  0  0
 16 34  1  0  0  0  0
  6 16  1  0  0  0  0
 18 19  2  0  0  0  0
 18 32  1  0  0  0  0
 24 34  1  0  0  0  0
 19 24  1  0  0  0  0
 24 52  1  0  0  0  0
  6 41  1  0  0  0  0
 19 33  1  0  0  0  0
 20 32  1  0  0  0  0
 20 33  1  0  0  0  0
 20 28  2  0  0  0  0
M  END
> <CID>
EN300-1613392

> <SMILES>
Cc1ccncc1NC(=O)Cc2cc(cc(c2)Cl)OCc3c(oc(=O)o3)c4cccc(c4)N(=O)=O

> <RUN>
RUN2799

> <DDG (kcal/mol)>
-0.51

> <dDDG (kcal/mol)>
0.22

$$$$
EN300-658821
  -OEChem-08252008263D

 55 57  0     0  0  0  0  0  0999 V2000
    6.4900    2.0730   19.8180 C   0  0  0  0  0  0  0  0  0  0  0  0
    9.7250    0.0880   26.4340 C   0  0  0  0  0  0  0  0  0  0  0  0
   10.7440   -1.4350   23.4940 C   0  0  0  0  0  0  0  0  0  0  0  0
    9.3380    2.4390   25.1810 C   0  0  0  0  0  0  0  0  0  0  0  0
   11.9300   -2.0410   21.5060 C   0  0  0  0  0  0  0  0  0  0  0  0
   12.9950   -0.7510   23.2990 C   0  0  0  0  0  0  0  0  0  0  0  0
    6.5010    1.7220   18.4510 C   0  0  0  0  0  0  0  0  0  0  0  0
    7.6780   -0.2210   18.9490 C   0  0  0  0  0  0  0  0  0  0  0  0
    8.5370    0.7160   26.6460 C   0  0  0  0  0  0  0  0  0  0  0  0
    7.1830    1.3010   20.7530 C   0  0  0  0  0  0  0  0  0  0  0  0
   10.8010   -2.0340   22.2420 C   0  0  0  0  0  0  0  0  0  0  0  0
   10.5270    1.7750   24.9170 C   0  0  0  0  0  0  0  0  0  0  0  0
    7.8070    0.1190   20.3240 C   0  0  0  0  0  0  0  0  0  0  0  0
   10.7490    0.5600   25.5870 C   0  0  0  0  0  0  0  0  0  0  0  0
   11.8750   -0.7880   24.0590 C   0  0  0  0  0  0  0  0  0  0  0  0
    8.2640    1.9420   26.0120 C   0  0  0  0  0  0  0  0  0  0  0  0
   13.0630   -1.3830   22.0050 C   0  0  0  0  0  0  0  0  0  0  0  0
    7.5090    0.1070   27.5940 C   0  0  0  0  0  0  0  0  0  0  0  0
    8.5710   -2.0200   21.1340 C   0  0  0  0  0  0  0  0  0  0  0  0
    7.0380    1.7180   22.1990 C   0  0  0  0  0  0  0  0  0  0  0  0
    7.0670    4.0000   26.5630 C   0  0  0  0  0  0  0  0  0  0  0  0
    5.7500    0.2240   29.1190 C   0  0  0  0  0  0  0  0  0  0  0  0
    9.6160   -2.8270   21.7800 C   0  0  0  0  0  0  0  0  0  0  0  0
   11.5640    2.4420   24.0250 C   0  0  0  0  0  0  0  0  0  0  0  0
    7.0460    0.5660   18.0020 N   0  0  0  0  0  0  0  0  0  0  0  0
    8.4080   -0.6690   21.3020 N   0  0  0  0  0  0  0  0  0  0  0  0
    7.5020   -1.1290   27.7100 O   0  0  0  0  0  0  0  0  0  0  0  0
    7.7240   -2.6750   20.4790 O   0  0  0  0  0  0  0  0  0  0  0  0
   11.8780   -0.2400   25.3180 O   0  0  0  0  0  0  0  0  0  0  0  0
    7.0570    2.6340   26.2270 O   0  0  0  0  0  0  0  0  0  0  0  0
    6.5970    0.9490   28.2030 O   0  0  0  0  0  0  0  0  0  0  0  0
   14.6320   -1.6570   21.2680 Cl  0  0  0  0  0  0  0  0  0  0  0  0
   10.8240    2.3090   22.1510 Br  0  0  0  0  0  0  0  0  0  0  0  0
    5.9640    3.0010   20.0210 H   0  0  0  0  0  0  0  0  0  0  0  0
    9.9210   -0.8010   27.0080 H   0  0  0  0  0  0  0  0  0  0  0  0
    9.7840   -1.3790   24.0050 H   0  0  0  0  0  0  0  0  0  0  0  0
    9.1390    3.3810   24.6850 H   0  0  0  0  0  0  0  0  0  0  0  0
   11.9140   -2.6100   20.5750 H   0  0  0  0  0  0  0  0  0  0  0  0
   13.9310   -0.3860   23.7080 H   0  0  0  0  0  0  0  0  0  0  0  0
    5.9200    2.2790   17.7170 H   0  0  0  0  0  0  0  0  0  0  0  0
    8.1900   -1.1160   18.6110 H   0  0  0  0  0  0  0  0  0  0  0  0
    6.0300    2.0840   22.4110 H   0  0  0  0  0  0  0  0  0  0  0  0
    7.1300    0.8730   22.8830 H   0  0  0  0  0  0  0  0  0  0  0  0
    7.7400    2.5000   22.4910 H   0  0  0  0  0  0  0  0  0  0  0  0
    7.2920    4.6310   25.6930 H   0  0  0  0  0  0  0  0  0  0  0  0
    7.8920    4.1760   27.2520 H   0  0  0  0  0  0  0  0  0  0  0  0
    6.1490    4.3570   27.0410 H   0  0  0  0  0  0  0  0  0  0  0  0
    5.1530   -0.4060   28.4550 H   0  0  0  0  0  0  0  0  0  0  0  0
    5.0340    0.9210   29.5580 H   0  0  0  0  0  0  0  0  0  0  0  0
    6.2900   -0.3560   29.8780 H   0  0  0  0  0  0  0  0  0  0  0  0
   10.0490   -3.5880   21.1400 H   0  0  0  0  0  0  0  0  0  0  0  0
    9.2210   -3.3760   22.6410 H   0  0  0  0  0  0  0  0  0  0  0  0
   11.7900    3.5050   24.1860 H   0  0  0  0  0  0  0  0  0  0  0  0
   12.5380    1.9480   24.1620 H   0  0  0  0  0  0  0  0  0  0  0  0
    8.9230   -0.1330   22.0000 H   0  0  0  0  0  0  0  0  0  0  0  0
  7 40  1  0  0  0  0
  7 25  2  0  0  0  0
  8 25  1  0  0  0  0
  1  7  1  0  0  0  0
  8 41  1  0  0  0  0
  8 13  2  0  0  0  0
  1 34  1  0  0  0  0
  1 10  2  0  0  0  0
 10 13  1  0  0  0  0
 13 26  1  0  0  0  0
 19 28  2  0  0  0  0
  5 38  1  0  0  0  0
 10 20  1  0  0  0  0
 19 26  1  0  0  0  0
 19 23  1  0  0  0  0
 23 51  1  0  0  0  0
 17 32  1  0  0  0  0
 26 55  1  0  0  0  0
  5 17  2  0  0  0  0
  5 11  1  0  0  0  0
 11 23  1  0  0  0  0
 23 52  1  0  0  0  0
  6 17  1  0  0  0  0
 24 33  1  0  0  0  0
 20 42  1  0  0  0  0
 20 44  1  0  0  0  0
 20 43  1  0  0  0  0
  3 11  2  0  0  0  0
  6 39  1  0  0  0  0
  6 15  2  0  0  0  0
  3 36  1  0  0  0  0
  3 15  1  0  0  0  0
 24 54  1  0  0  0  0
 24 53  1  0  0  0  0
 12 24  1  0  0  0  0
 15 29  1  0  0  0  0
  4 37  1  0  0  0  0
  4 12  2  0  0  0  0
 12 14  1  0  0  0  0
  4 16  1  0  0  0  0
 14 29  1  0  0  0  0
  2 14  2  0  0  0  0
 21 45  1  0  0  0  0
 16 30  1  0  0  0  0
  9 16  2  0  0  0  0
 21 30  1  0  0  0  0
  2  9  1  0  0  0  0
  2 35  1  0  0  0  0
 21 47  1  0  0  0  0
 21 46  1  0  0  0  0
  9 18  1  0  0  0  0
 18 27  2  0  0  0  0
 18 31  1  0  0  0  0
 22 31  1  0  0  0  0
 22 48  1  0  0  0  0
 22 49  1  0  0  0  0
 22 50  1  0  0  0  0
M  END
> <CID>
EN300-658821

> <SMILES>
Cc1ccncc1NC(=O)Cc2cc(cc(c2)Cl)Oc3cc(c(cc3CBr)OC)C(=O)OC

> <RUN>
RUN2540

> <DDG (kcal/mol)>
-0.49

> <dDDG (kcal/mol)>
0.20

$$$$
EN300-1910378
  -OEChem-08252008263D

 48 50  0     0  0  0  0  0  0999 V2000
    5.6350    1.1890   20.3030 C   0  0  0  0  0  0  0  0  0  0  0  0
   11.3310   -0.5050   23.8560 C   0  0  0  0  0  0  0  0  0  0  0  0
   12.5080   -2.2350   22.5310 C   0  0  0  0  0  0  0  0  0  0  0  0
   11.1160    2.4140   26.2940 C   0  0  0  0  0  0  0  0  0  0  0  0
   13.6340   -0.4520   23.6080 C   0  0  0  0  0  0  0  0  0  0  0  0
    6.0540    1.2200   18.9640 C   0  0  0  0  0  0  0  0  0  0  0  0
    7.4300   -0.4820   19.2430 C   0  0  0  0  0  0  0  0  0  0  0  0
    6.0830    0.2190   21.1640 C   0  0  0  0  0  0  0  0  0  0  0  0
   11.3300   -1.6590   23.0060 C   0  0  0  0  0  0  0  0  0  0  0  0
   10.0220    2.1810   27.2300 C   0  0  0  0  0  0  0  0  0  0  0  0
    7.1040   -0.5830   20.6260 C   0  0  0  0  0  0  0  0  0  0  0  0
   12.5100    0.1730   24.1650 C   0  0  0  0  0  0  0  0  0  0  0  0
   13.6700   -1.6350   22.8310 C   0  0  0  0  0  0  0  0  0  0  0  0
   10.1220    0.7990   27.4720 C   0  0  0  0  0  0  0  0  0  0  0  0
   11.7620    1.3240   25.9910 C   0  0  0  0  0  0  0  0  0  0  0  0
    9.2590   -1.3130   21.5980 C   0  0  0  0  0  0  0  0  0  0  0  0
    5.5930    0.1020   22.6130 C   0  0  0  0  0  0  0  0  0  0  0  0
    9.0020    3.2260   27.6250 C   0  0  0  0  0  0  0  0  0  0  0  0
    9.9840   -2.2150   22.6070 C   0  0  0  0  0  0  0  0  0  0  0  0
    9.4050   -0.0640   28.4820 C   0  0  0  0  0  0  0  0  0  0  0  0
    8.6860   -1.0400   27.6510 C   0  0  0  0  0  0  0  0  0  0  0  0
    6.8590    0.3620   18.4100 N   0  0  0  0  0  0  0  0  0  0  0  0
    7.8600   -1.4550   21.4610 N   0  0  0  0  0  0  0  0  0  0  0  0
    9.8620   -0.3560   21.0630 O   0  0  0  0  0  0  0  0  0  0  0  0
   11.1980    0.3330   26.6960 O   0  0  0  0  0  0  0  0  0  0  0  0
   12.7240    1.1570   25.0630 O   0  0  0  0  0  0  0  0  0  0  0  0
   15.1520   -2.3550   22.2750 Cl  0  0  0  0  0  0  0  0  0  0  0  0
    7.3430   -0.4250   26.2160 Br  0  0  0  0  0  0  0  0  0  0  0  0
    4.9290    1.9580   20.6030 H   0  0  0  0  0  0  0  0  0  0  0  0
   10.4430   -0.2050   24.3990 H   0  0  0  0  0  0  0  0  0  0  0  0
   12.5560   -3.1900   22.0170 H   0  0  0  0  0  0  0  0  0  0  0  0
   11.4320    3.3180   25.7800 H   0  0  0  0  0  0  0  0  0  0  0  0
   14.5720    0.0450   23.8170 H   0  0  0  0  0  0  0  0  0  0  0  0
    5.8390    2.0170   18.2570 H   0  0  0  0  0  0  0  0  0  0  0  0
    8.1350   -1.1900   18.8170 H   0  0  0  0  0  0  0  0  0  0  0  0
    4.7160   -0.5520   22.6720 H   0  0  0  0  0  0  0  0  0  0  0  0
    6.3470   -0.2790   23.3000 H   0  0  0  0  0  0  0  0  0  0  0  0
    5.1470    1.0480   22.9350 H   0  0  0  0  0  0  0  0  0  0  0  0
    8.1820    2.8000   28.2150 H   0  0  0  0  0  0  0  0  0  0  0  0
    9.6380    3.9280   28.1800 H   0  0  0  0  0  0  0  0  0  0  0  0
    8.5560    3.7130   26.7590 H   0  0  0  0  0  0  0  0  0  0  0  0
   10.1150   -3.2060   22.1630 H   0  0  0  0  0  0  0  0  0  0  0  0
    9.3000   -2.3850   23.4420 H   0  0  0  0  0  0  0  0  0  0  0  0
    8.6610    0.4660   29.0940 H   0  0  0  0  0  0  0  0  0  0  0  0
   10.1010   -0.6340   29.1000 H   0  0  0  0  0  0  0  0  0  0  0  0
    9.4210   -1.6470   27.1190 H   0  0  0  0  0  0  0  0  0  0  0  0
    8.1640   -1.7560   28.3020 H   0  0  0  0  0  0  0  0  0  0  0  0
    7.3790   -2.1190   22.0690 H   0  0  0  0  0  0  0  0  0  0  0  0
  6 34  1  0  0  0  0
  6 22  2  0  0  0  0
  7 22  1  0  0  0  0
  7 35  1  0  0  0  0
  1  6  1  0  0  0  0
  7 11  2  0  0  0  0
  1 29  1  0  0  0  0
  1  8  2  0  0  0  0
  8 11  1  0  0  0  0
 11 23  1  0  0  0  0
 16 24  2  0  0  0  0
  8 17  1  0  0  0  0
 16 23  1  0  0  0  0
 23 48  1  0  0  0  0
 16 19  1  0  0  0  0
  3 31  1  0  0  0  0
 19 42  1  0  0  0  0
 13 27  1  0  0  0  0
  3 13  2  0  0  0  0
  3  9  1  0  0  0  0
  9 19  1  0  0  0  0
 19 43  1  0  0  0  0
 17 36  1  0  0  0  0
 17 38  1  0  0  0  0
 17 37  1  0  0  0  0
  5 13  1  0  0  0  0
  2  9  2  0  0  0  0
  5 33  1  0  0  0  0
  5 12  2  0  0  0  0
  2 12  1  0  0  0  0
  2 30  1  0  0  0  0
 12 26  1  0  0  0  0
 15 26  1  0  0  0  0
  4 32  1  0  0  0  0
  4 15  2  0  0  0  0
 15 25  1  0  0  0  0
 21 28  1  0  0  0  0
  4 10  1  0  0  0  0
 14 25  1  0  0  0  0
 18 41  1  0  0  0  0
 21 46  1  0  0  0  0
 10 14  2  0  0  0  0
 10 18  1  0  0  0  0
 14 20  1  0  0  0  0
 18 40  1  0  0  0  0
 18 39  1  0  0  0  0
 21 47  1  0  0  0  0
 20 21  1  0  0  0  0
 20 44  1  0  0  0  0
 20 45  1  0  0  0  0
M  END
> <CID>
EN300-1910378

> <SMILES>
Cc1ccncc1NC(=O)Cc2cc(cc(c2)Cl)Oc3cc(c(o3)CCBr)C

> <RUN>
RUN434

> <DDG (kcal/mol)>
-0.48

> <dDDG (kcal/mol)>
0.10

$$$$
EN300-38958
  -OEChem-08252008263D

 51 54  0     0  0  0  0  0  0999 V2000
   14.6930    9.7020   22.5920 C   0  0  0  0  0  0  0  0  0  0  0  0
   13.9910    9.1220   24.8430 C   0  0  0  0  0  0  0  0  0  0  0  0
   14.9300   11.0340   23.0020 C   0  0  0  0  0  0  0  0  0  0  0  0
   14.1730   10.4380   25.2310 C   0  0  0  0  0  0  0  0  0  0  0  0
    5.8850    1.6910   19.2220 C   0  0  0  0  0  0  0  0  0  0  0  0
   11.6630    1.2260   23.2990 C   0  0  0  0  0  0  0  0  0  0  0  0
   12.1160   -0.9710   22.4990 C   0  0  0  0  0  0  0  0  0  0  0  0
   13.8750    0.6880   22.5490 C   0  0  0  0  0  0  0  0  0  0  0  0
   13.5000    6.2990   23.7650 C   0  0  0  0  0  0  0  0  0  0  0  0
    6.2300    1.0600   18.1190 C   0  0  0  0  0  0  0  0  0  0  0  0
    8.0010   -0.0030   19.1640 C   0  0  0  0  0  0  0  0  0  0  0  0
   14.2970    8.7140   23.5340 C   0  0  0  0  0  0  0  0  0  0  0  0
    6.6250    1.6310   20.3450 C   0  0  0  0  0  0  0  0  0  0  0  0
   11.2020    0.0030   22.9100 C   0  0  0  0  0  0  0  0  0  0  0  0
    7.6770    0.7450   20.3720 C   0  0  0  0  0  0  0  0  0  0  0  0
   12.9730    1.6480   23.0140 C   0  0  0  0  0  0  0  0  0  0  0  0
   14.6240   11.4320   24.3210 C   0  0  0  0  0  0  0  0  0  0  0  0
   13.4420   -0.6380   22.2090 C   0  0  0  0  0  0  0  0  0  0  0  0
   14.0170    7.3900   22.9710 C   0  0  0  0  0  0  0  0  0  0  0  0
   13.2140    5.3110   22.8480 C   0  0  0  0  0  0  0  0  0  0  0  0
    8.9480   -0.5680   22.0500 C   0  0  0  0  0  0  0  0  0  0  0  0
    6.2200    2.3710   21.5970 C   0  0  0  0  0  0  0  0  0  0  0  0
    9.8020   -0.4230   23.3180 C   0  0  0  0  0  0  0  0  0  0  0  0
   12.4570    4.0120   23.0510 C   0  0  0  0  0  0  0  0  0  0  0  0
    7.2490    0.1820   18.0870 N   0  0  0  0  0  0  0  0  0  0  0  0
   14.1280    7.0200   21.7310 N   0  0  0  0  0  0  0  0  0  0  0  0
    8.4570    0.6060   21.5570 N   0  0  0  0  0  0  0  0  0  0  0  0
    8.9420   -1.6110   21.3780 O   0  0  0  0  0  0  0  0  0  0  0  0
   13.6980    5.6690   21.6070 O   0  0  0  0  0  0  0  0  0  0  0  0
   13.4060    2.9230   23.2220 O   0  0  0  0  0  0  0  0  0  0  0  0
   14.6990   12.7020   24.7280 F   0  0  0  0  0  0  0  0  0  0  0  0
   14.5610   -1.7140   21.5160 Cl  0  0  0  0  0  0  0  0  0  0  0  0
   14.9290    9.5430   21.5400 H   0  0  0  0  0  0  0  0  0  0  0  0
   13.7970    8.3360   25.5700 H   0  0  0  0  0  0  0  0  0  0  0  0
   15.3900   11.7460   22.3130 H   0  0  0  0  0  0  0  0  0  0  0  0
   13.9080   10.7410   26.2330 H   0  0  0  0  0  0  0  0  0  0  0  0
    4.9550    2.2620   19.2770 H   0  0  0  0  0  0  0  0  0  0  0  0
   10.9720    1.9290   23.7520 H   0  0  0  0  0  0  0  0  0  0  0  0
   11.8750   -2.0170   22.3390 H   0  0  0  0  0  0  0  0  0  0  0  0
   14.8950    1.0230   22.3970 H   0  0  0  0  0  0  0  0  0  0  0  0
   13.1840    6.2600   24.8020 H   0  0  0  0  0  0  0  0  0  0  0  0
    5.5490    1.2500   17.2920 H   0  0  0  0  0  0  0  0  0  0  0  0
    8.8740   -0.6590   19.1390 H   0  0  0  0  0  0  0  0  0  0  0  0
    6.3170    1.7230   22.4670 H   0  0  0  0  0  0  0  0  0  0  0  0
    6.9330    3.1790   21.7810 H   0  0  0  0  0  0  0  0  0  0  0  0
    5.2190    2.7970   21.4750 H   0  0  0  0  0  0  0  0  0  0  0  0
    9.7020   -1.4230   23.7310 H   0  0  0  0  0  0  0  0  0  0  0  0
    9.3530    0.2680   24.0390 H   0  0  0  0  0  0  0  0  0  0  0  0
   11.7160    4.0850   23.8510 H   0  0  0  0  0  0  0  0  0  0  0  0
   11.8550    3.8140   22.1550 H   0  0  0  0  0  0  0  0  0  0  0  0
    8.2590    1.3480   22.2290 H   0  0  0  0  0  0  0  0  0  0  0  0
 10 42  1  0  0  0  0
 10 25  2  0  0  0  0
 11 25  1  0  0  0  0
  5 10  1  0  0  0  0
 11 43  1  0  0  0  0
 11 15  2  0  0  0  0
  5 37  1  0  0  0  0
  5 13  2  0  0  0  0
 13 15  1  0  0  0  0
 13 22  1  0  0  0  0
 15 27  1  0  0  0  0
 21 28  2  0  0  0  0
 22 46  1  0  0  0  0
 18 32  1  0  0  0  0
  1 33  1  0  0  0  0
 21 27  1  0  0  0  0
 27 51  1  0  0  0  0
 22 45  1  0  0  0  0
 22 44  1  0  0  0  0
 26 29  1  0  0  0  0
 20 29  1  0  0  0  0
 19 26  2  0  0  0  0
 21 23  1  0  0  0  0
 24 50  1  0  0  0  0
  7 18  2  0  0  0  0
  8 18  1  0  0  0  0
  3 35  1  0  0  0  0
  7 39  1  0  0  0  0
  8 40  1  0  0  0  0
  7 14  1  0  0  0  0
  8 16  2  0  0  0  0
  1  3  2  0  0  0  0
  1 12  1  0  0  0  0
 20 24  1  0  0  0  0
  9 20  2  0  0  0  0
  6 14  2  0  0  0  0
 14 23  1  0  0  0  0
 12 19  1  0  0  0  0
  9 19  1  0  0  0  0
  3 17  1  0  0  0  0
 16 30  1  0  0  0  0
  6 16  1  0  0  0  0
 24 30  1  0  0  0  0
 24 49  1  0  0  0  0
  6 38  1  0  0  0  0
 23 47  1  0  0  0  0
 23 48  1  0  0  0  0
  2 12  2  0  0  0  0
  9 41  1  0  0  0  0
 17 31  1  0  0  0  0
  4 17  2  0  0  0  0
  2  4  1  0  0  0  0
  2 34  1  0  0  0  0
  4 36  1  0  0  0  0
M  END
> <CID>
EN300-38958

> <SMILES>
Cc1ccncc1NC(=O)Cc2cc(cc(c2)Cl)OCc3cc(no3)c4ccc(cc4)F

> <RUN>
RUN3479

> <DDG (kcal/mol)>
-0.47

> <dDDG (kcal/mol)>
0.14

$$$$
EN300-14247
  -OEChem-08252008263D

 50 53  0     0  0  0  0  0  0999 V2000
   13.4240    6.9790   26.7240 C   0  0  0  0  0  0  0  0  0  0  0  0
   12.5420    6.9600   27.8250 C   0  0  0  0  0  0  0  0  0  0  0  0
    5.5940    1.6140   19.4710 C   0  0  0  0  0  0  0  0  0  0  0  0
   11.5750    4.8750   27.0000 C   0  0  0  0  0  0  0  0  0  0  0  0
   12.5820    4.0890   24.7500 C   0  0  0  0  0  0  0  0  0  0  0  0
   12.0550    0.1480   22.8730 C   0  0  0  0  0  0  0  0  0  0  0  0
   12.4370   -1.6300   21.3380 C   0  0  0  0  0  0  0  0  0  0  0  0
   14.2050   -0.1130   21.9740 C   0  0  0  0  0  0  0  0  0  0  0  0
    5.7650    1.1350   18.1750 C   0  0  0  0  0  0  0  0  0  0  0  0
    7.7360    0.1960   18.7690 C   0  0  0  0  0  0  0  0  0  0  0  0
   12.4370    4.9450   25.9180 C   0  0  0  0  0  0  0  0  0  0  0  0
    6.5910    1.5140   20.4340 C   0  0  0  0  0  0  0  0  0  0  0  0
   11.5720   -0.9980   22.2410 C   0  0  0  0  0  0  0  0  0  0  0  0
    7.6750    0.6260   20.1000 C   0  0  0  0  0  0  0  0  0  0  0  0
   13.3030    5.9580   25.7810 C   0  0  0  0  0  0  0  0  0  0  0  0
   13.3420    0.6240   22.6970 C   0  0  0  0  0  0  0  0  0  0  0  0
   11.6450    5.8660   28.0380 C   0  0  0  0  0  0  0  0  0  0  0  0
   13.7670   -1.2300   21.3180 C   0  0  0  0  0  0  0  0  0  0  0  0
   13.6130    4.6760   24.0050 C   0  0  0  0  0  0  0  0  0  0  0  0
   14.4320    4.1800   22.8120 C   0  0  0  0  0  0  0  0  0  0  0  0
    9.1950   -0.9240   21.1830 C   0  0  0  0  0  0  0  0  0  0  0  0
    6.3710    2.0360   21.8370 C   0  0  0  0  0  0  0  0  0  0  0  0
   10.0960   -1.2950   22.3970 C   0  0  0  0  0  0  0  0  0  0  0  0
   14.1940    2.7560   22.2590 C   0  0  0  0  0  0  0  0  0  0  0  0
    6.8610    0.4500   17.8370 N   0  0  0  0  0  0  0  0  0  0  0  0
    8.5980    0.2730   21.0880 N   0  0  0  0  0  0  0  0  0  0  0  0
   15.1410    4.9820   22.2060 O   0  0  0  0  0  0  0  0  0  0  0  0
    8.9580   -1.8100   20.3690 O   0  0  0  0  0  0  0  0  0  0  0  0
   14.0090    5.7770   24.6320 O   0  0  0  0  0  0  0  0  0  0  0  0
   13.8030    1.8060   23.2350 O   0  0  0  0  0  0  0  0  0  0  0  0
   10.3420    5.9560   29.2160 Cl  0  0  0  0  0  0  0  0  0  0  0  0
   14.9010   -1.9480   20.2770 Cl  0  0  0  0  0  0  0  0  0  0  0  0
   13.9860    7.8980   26.5540 H   0  0  0  0  0  0  0  0  0  0  0  0
   12.4690    7.7630   28.5410 H   0  0  0  0  0  0  0  0  0  0  0  0
    4.7000    2.1280   19.8100 H   0  0  0  0  0  0  0  0  0  0  0  0
   10.8780    4.0350   27.0110 H   0  0  0  0  0  0  0  0  0  0  0  0
   11.9870    3.2190   24.5200 H   0  0  0  0  0  0  0  0  0  0  0  0
   11.3650    0.7700   23.4360 H   0  0  0  0  0  0  0  0  0  0  0  0
   12.0180   -2.3740   20.6670 H   0  0  0  0  0  0  0  0  0  0  0  0
   15.2540    0.1940   21.9170 H   0  0  0  0  0  0  0  0  0  0  0  0
    4.9570    1.4320   17.5040 H   0  0  0  0  0  0  0  0  0  0  0  0
    8.6040   -0.3600   18.4290 H   0  0  0  0  0  0  0  0  0  0  0  0
    7.2810    2.1680   22.4230 H   0  0  0  0  0  0  0  0  0  0  0  0
    5.9780    3.0610   21.7330 H   0  0  0  0  0  0  0  0  0  0  0  0
    5.7120    1.4570   22.4870 H   0  0  0  0  0  0  0  0  0  0  0  0
   10.0340   -2.2960   22.8400 H   0  0  0  0  0  0  0  0  0  0  0  0
    9.7370   -0.6760   23.2210 H   0  0  0  0  0  0  0  0  0  0  0  0
   15.1950    2.4680   21.9050 H   0  0  0  0  0  0  0  0  0  0  0  0
   13.5450    2.7780   21.3840 H   0  0  0  0  0  0  0  0  0  0  0  0
    8.7280    0.8970   21.8890 H   0  0  0  0  0  0  0  0  0  0  0  0
  9 41  1  0  0  0  0
  9 25  2  0  0  0  0
 10 25  1  0  0  0  0
  3  9  1  0  0  0  0
 10 42  1  0  0  0  0
 10 14  2  0  0  0  0
  3 35  1  0  0  0  0
  3 12  2  0  0  0  0
 12 14  1  0  0  0  0
 14 26  1  0  0  0  0
 18 32  1  0  0  0  0
 21 28  2  0  0  0  0
 12 22  1  0  0  0  0
  7 39  1  0  0  0  0
 21 26  1  0  0  0  0
 26 50  1  0  0  0  0
 21 23  1  0  0  0  0
  7 18  2  0  0  0  0
  8 18  1  0  0  0  0
  7 13  1  0  0  0  0
 24 49  1  0  0  0  0
 22 44  1  0  0  0  0
 22 43  1  0  0  0  0
 22 45  1  0  0  0  0
 24 48  1  0  0  0  0
  8 40  1  0  0  0  0
  8 16  2  0  0  0  0
 20 27  2  0  0  0  0
 13 23  1  0  0  0  0
  6 13  2  0  0  0  0
 20 24  1  0  0  0  0
 24 30  1  0  0  0  0
 23 46  1  0  0  0  0
 23 47  1  0  0  0  0
  6 16  1  0  0  0  0
 16 30  1  0  0  0  0
 19 20  1  0  0  0  0
  6 38  1  0  0  0  0
 19 29  1  0  0  0  0
  5 19  2  0  0  0  0
  5 37  1  0  0  0  0
 15 29  1  0  0  0  0
  5 11  1  0  0  0  0
 11 15  2  0  0  0  0
  1 15  1  0  0  0  0
  4 11  1  0  0  0  0
  1 33  1  0  0  0  0
  1  2  2  0  0  0  0
  4 36  1  0  0  0  0
  4 17  2  0  0  0  0
  2 17  1  0  0  0  0
  2 34  1  0  0  0  0
 17 31  1  0  0  0  0
M  END
> <CID>
EN300-14247

> <SMILES>
Cc1ccncc1NC(=O)Cc2cc(cc(c2)Cl)OCC(=O)c3cc4cc(ccc4o3)Cl

> <RUN>
RUN4540

> <DDG (kcal/mol)>
-0.47

> <dDDG (kcal/mol)>
0.29

$$$$
EN300-379812
  -OEChem-08252008263D

 43 45  0     0  0  0  0  0  0999 V2000
    6.1080    0.9010   18.9140 C   0  0  0  0  0  0  0  0  0  0  0  0
   12.1220    0.6430   24.0340 C   0  0  0  0  0  0  0  0  0  0  0  0
   12.9650   -1.2320   22.7870 C   0  0  0  0  0  0  0  0  0  0  0  0
   14.4950    0.2920   24.0230 C   0  0  0  0  0  0  0  0  0  0  0  0
    6.6940    0.6060   17.7070 C   0  0  0  0  0  0  0  0  0  0  0  0
    8.6030    0.0480   18.7940 C   0  0  0  0  0  0  0  0  0  0  0  0
   15.1980    3.0420   22.3050 C   0  0  0  0  0  0  0  0  0  0  0  0
    6.7980    0.8040   20.1620 C   0  0  0  0  0  0  0  0  0  0  0  0
   11.9270   -0.4390   23.1790 C   0  0  0  0  0  0  0  0  0  0  0  0
    8.0890    0.2610   20.1330 C   0  0  0  0  0  0  0  0  0  0  0  0
   13.3930    1.0270   24.4200 C   0  0  0  0  0  0  0  0  0  0  0  0
   14.3190   -0.8510   23.1790 C   0  0  0  0  0  0  0  0  0  0  0  0
   10.0780   -0.2540   21.4970 C   0  0  0  0  0  0  0  0  0  0  0  0
    6.0660    1.0100   21.4760 C   0  0  0  0  0  0  0  0  0  0  0  0
   10.5820   -0.9090   22.7760 C   0  0  0  0  0  0  0  0  0  0  0  0
   13.1250    3.9750   23.5960 C   0  0  0  0  0  0  0  0  0  0  0  0
   12.8200    3.3010   24.8990 C   0  0  0  0  0  0  0  0  0  0  0  0
    7.9590    0.2120   17.6890 N   0  0  0  0  0  0  0  0  0  0  0  0
   16.4600    3.2630   22.3880 N   0  0  0  0  0  0  0  0  0  0  0  0
   16.6690    4.1270   23.3690 N   0  0  0  0  0  0  0  0  0  0  0  0
   15.5460    4.5180   23.8310 N   0  0  0  0  0  0  0  0  0  0  0  0
   14.5860    3.8850   23.1700 N   0  0  0  0  0  0  0  0  0  0  0  0
    8.7450   -0.1920   21.2960 N   0  0  0  0  0  0  0  0  0  0  0  0
   10.8530    0.0990   20.6680 O   0  0  0  0  0  0  0  0  0  0  0  0
   13.7210    2.1800   25.1370 O   0  0  0  0  0  0  0  0  0  0  0  0
   15.5990   -1.7740   22.4850 Cl  0  0  0  0  0  0  0  0  0  0  0  0
    5.0830    1.2540   18.8750 H   0  0  0  0  0  0  0  0  0  0  0  0
   11.1990    1.0620   24.4250 H   0  0  0  0  0  0  0  0  0  0  0  0
   12.7420   -2.1210   22.2140 H   0  0  0  0  0  0  0  0  0  0  0  0
   15.5010    0.5700   24.3310 H   0  0  0  0  0  0  0  0  0  0  0  0
    6.0890    0.6160   16.8010 H   0  0  0  0  0  0  0  0  0  0  0  0
    9.5930   -0.3970   18.7360 H   0  0  0  0  0  0  0  0  0  0  0  0
   14.8430    2.3020   21.5880 H   0  0  0  0  0  0  0  0  0  0  0  0
    5.3060    0.2220   21.4460 H   0  0  0  0  0  0  0  0  0  0  0  0
    6.7240    0.9380   22.3550 H   0  0  0  0  0  0  0  0  0  0  0  0
    5.5560    1.9750   21.4690 H   0  0  0  0  0  0  0  0  0  0  0  0
   10.5290   -1.9880   22.6220 H   0  0  0  0  0  0  0  0  0  0  0  0
    9.8970   -0.6540   23.5870 H   0  0  0  0  0  0  0  0  0  0  0  0
   12.9110    5.0320   23.7220 H   0  0  0  0  0  0  0  0  0  0  0  0
   12.4670    3.5680   22.8160 H   0  0  0  0  0  0  0  0  0  0  0  0
   12.9020    4.0460   25.6950 H   0  0  0  0  0  0  0  0  0  0  0  0
   11.7790    3.0180   25.0670 H   0  0  0  0  0  0  0  0  0  0  0  0
    8.0700   -0.3920   22.0330 H   0  0  0  0  0  0  0  0  0  0  0  0
  5 31  1  0  0  0  0
  5 18  2  0  0  0  0
  6 18  1  0  0  0  0
  1  5  1  0  0  0  0
  6 32  1  0  0  0  0
  6 10  2  0  0  0  0
  1 27  1  0  0  0  0
  1  8  2  0  0  0  0
  8 10  1  0  0  0  0
 10 23  1  0  0  0  0
  8 14  1  0  0  0  0
 13 24  2  0  0  0  0
 13 23  1  0  0  0  0
 23 43  1  0  0  0  0
 14 34  1  0  0  0  0
 14 36  1  0  0  0  0
 14 35  1  0  0  0  0
 13 15  1  0  0  0  0
  7 33  1  0  0  0  0
  3 29  1  0  0  0  0
  7 19  2  0  0  0  0
  7 22  1  0  0  0  0
 19 20  1  0  0  0  0
 12 26  1  0  0  0  0
 15 37  1  0  0  0  0
  9 15  1  0  0  0  0
 15 38  1  0  0  0  0
  3  9  2  0  0  0  0
  3 12  1  0  0  0  0
 16 40  1  0  0  0  0
 16 22  1  0  0  0  0
 21 22  1  0  0  0  0
  2  9  1  0  0  0  0
  4 12  2  0  0  0  0
 20 21  2  0  0  0  0
 16 39  1  0  0  0  0
 16 17  1  0  0  0  0
  4 30  1  0  0  0  0
  4 11  1  0  0  0  0
  2 11  2  0  0  0  0
  2 28  1  0  0  0  0
 11 25  1  0  0  0  0
 17 42  1  0  0  0  0
 17 25  1  0  0  0  0
 17 41  1  0  0  0  0
M  END
> <CID>
EN300-379812

> <SMILES>
Cc1ccncc1NC(=O)Cc2cc(cc(c2)Cl)OCCn3cnnn3

> <RUN>
RUN4327

> <DDG (kcal/mol)>
-0.47

> <dDDG (kcal/mol)>
0.17

$$$$
EN300-7464827
  -OEChem-08252008263D

 45 47  0     0  0  0  0  0  0999 V2000
    5.1770    1.2400   19.3280 C   0  0  0  0  0  0  0  0  0  0  0  0
   11.6730    1.3610   24.3990 C   0  0  0  0  0  0  0  0  0  0  0  0
   11.7570   -0.7160   23.1960 C   0  0  0  0  0  0  0  0  0  0  0  0
   13.8080    0.3600   24.1910 C   0  0  0  0  0  0  0  0  0  0  0  0
    5.9350    0.9270   18.2230 C   0  0  0  0  0  0  0  0  0  0  0  0
    7.6370    0.0740   19.5210 C   0  0  0  0  0  0  0  0  0  0  0  0
   12.3430    5.9340   28.4990 C   0  0  0  0  0  0  0  0  0  0  0  0
    5.6100    0.9230   20.5930 C   0  0  0  0  0  0  0  0  0  0  0  0
   11.0010    0.3070   23.7490 C   0  0  0  0  0  0  0  0  0  0  0  0
    6.9730    0.4940   20.6500 C   0  0  0  0  0  0  0  0  0  0  0  0
   13.0350    1.4200   24.6100 C   0  0  0  0  0  0  0  0  0  0  0  0
   13.1920   -0.7150   23.3950 C   0  0  0  0  0  0  0  0  0  0  0  0
   13.8800    6.7210   27.2290 C   0  0  0  0  0  0  0  0  0  0  0  0
   13.8140    4.9530   25.5570 C   0  0  0  0  0  0  0  0  0  0  0  0
    8.9570    0.3950   22.2090 C   0  0  0  0  0  0  0  0  0  0  0  0
    4.7800    1.4020   21.7790 C   0  0  0  0  0  0  0  0  0  0  0  0
    9.4480    0.3800   23.6380 C   0  0  0  0  0  0  0  0  0  0  0  0
   13.0450    3.7450   25.0290 C   0  0  0  0  0  0  0  0  0  0  0  0
    7.1200    0.2600   18.3060 N   0  0  0  0  0  0  0  0  0  0  0  0
   13.2960    6.9340   28.3610 N   0  0  0  0  0  0  0  0  0  0  0  0
   12.4120    5.1060   27.5160 N   0  0  0  0  0  0  0  0  0  0  0  0
   13.3600    5.5910   26.6430 N   0  0  0  0  0  0  0  0  0  0  0  0
   14.9110    7.4980   26.9350 N   0  0  0  0  0  0  0  0  0  0  0  0
    7.5980    0.5110   21.9310 N   0  0  0  0  0  0  0  0  0  0  0  0
   14.7090    5.3700   24.8500 O   0  0  0  0  0  0  0  0  0  0  0  0
    9.7970    0.4590   21.3120 O   0  0  0  0  0  0  0  0  0  0  0  0
   13.6690    2.4650   25.1990 O   0  0  0  0  0  0  0  0  0  0  0  0
   14.2150   -1.9500   22.7020 Cl  0  0  0  0  0  0  0  0  0  0  0  0
    4.2720    1.8070   19.1150 H   0  0  0  0  0  0  0  0  0  0  0  0
   10.9870    2.1180   24.7700 H   0  0  0  0  0  0  0  0  0  0  0  0
   11.2350   -1.3550   22.4920 H   0  0  0  0  0  0  0  0  0  0  0  0
   14.8840    0.4140   24.2910 H   0  0  0  0  0  0  0  0  0  0  0  0
    5.5410    1.1000   17.2250 H   0  0  0  0  0  0  0  0  0  0  0  0
    8.5320   -0.5370   19.5070 H   0  0  0  0  0  0  0  0  0  0  0  0
   11.8030    5.6750   29.4070 H   0  0  0  0  0  0  0  0  0  0  0  0
    4.8390    2.4990   21.8570 H   0  0  0  0  0  0  0  0  0  0  0  0
    3.7470    1.0460   21.7610 H   0  0  0  0  0  0  0  0  0  0  0  0
    5.2290    1.0120   22.7000 H   0  0  0  0  0  0  0  0  0  0  0  0
    9.0210   -0.5370   24.0510 H   0  0  0  0  0  0  0  0  0  0  0  0
    9.0800    1.2520   24.2030 H   0  0  0  0  0  0  0  0  0  0  0  0
   12.0370    3.7670   25.4480 H   0  0  0  0  0  0  0  0  0  0  0  0
   12.9170    4.0480   23.9790 H   0  0  0  0  0  0  0  0  0  0  0  0
   15.4310    7.9590   27.6760 H   0  0  0  0  0  0  0  0  0  0  0  0
   15.5270    7.1440   26.2000 H   0  0  0  0  0  0  0  0  0  0  0  0
    7.0390    0.2830   22.7550 H   0  0  0  0  0  0  0  0  0  0  0  0
  5 33  1  0  0  0  0
  5 19  2  0  0  0  0
  1  5  1  0  0  0  0
  6 19  1  0  0  0  0
  1 29  1  0  0  0  0
  1  8  2  0  0  0  0
  6 34  1  0  0  0  0
  6 10  2  0  0  0  0
  8 10  1  0  0  0  0
  8 16  1  0  0  0  0
 10 24  1  0  0  0  0
 15 26  2  0  0  0  0
 16 37  1  0  0  0  0
 16 36  1  0  0  0  0
 16 38  1  0  0  0  0
 15 24  1  0  0  0  0
 24 45  1  0  0  0  0
 15 17  1  0  0  0  0
  3 31  1  0  0  0  0
 12 28  1  0  0  0  0
  3 12  2  0  0  0  0
  3  9  1  0  0  0  0
  4 12  1  0  0  0  0
  9 17  1  0  0  0  0
 17 39  1  0  0  0  0
 17 40  1  0  0  0  0
  2  9  2  0  0  0  0
 18 42  1  0  0  0  0
  4 32  1  0  0  0  0
  4 11  2  0  0  0  0
  2 11  1  0  0  0  0
  2 30  1  0  0  0  0
 11 27  1  0  0  0  0
 14 25  2  0  0  0  0
 18 27  1  0  0  0  0
 18 41  1  0  0  0  0
 14 18  1  0  0  0  0
 14 22  1  0  0  0  0
 23 44  1  0  0  0  0
 13 22  1  0  0  0  0
 21 22  1  0  0  0  0
 13 23  1  0  0  0  0
 23 43  1  0  0  0  0
 13 20  2  0  0  0  0
  7 21  2  0  0  0  0
  7 20  1  0  0  0  0
  7 35  1  0  0  0  0
M  END
> <CID>
EN300-7464827

> <SMILES>
Cc1ccncc1NC(=O)Cc2cc(cc(c2)Cl)OCC(=O)n3c(ncn3)N

> <RUN>
RUN4391

> <DDG (kcal/mol)>
-0.47

> <dDDG (kcal/mol)>
0.18

$$$$
EN300-66387
  -OEChem-08252008263D

 47 49  0     0  0  0  0  0  0999 V2000
    5.6570    2.4300   18.0390 C   0  0  0  0  0  0  0  0  0  0  0  0
   11.3260    1.4910   22.8030 C   0  0  0  0  0  0  0  0  0  0  0  0
   11.5650   -0.6930   21.9090 C   0  0  0  0  0  0  0  0  0  0  0  0
   13.5080    0.6350   22.3370 C   0  0  0  0  0  0  0  0  0  0  0  0
    5.6890    1.4910   16.9490 C   0  0  0  0  0  0  0  0  0  0  0  0
   13.0330    7.9840   22.7900 C   0  0  0  0  0  0  0  0  0  0  0  0
    6.8180   -0.0520   18.2580 C   0  0  0  0  0  0  0  0  0  0  0  0
   11.1060    6.9770   22.6860 C   0  0  0  0  0  0  0  0  0  0  0  0
   12.4300    6.6610   22.8470 C   0  0  0  0  0  0  0  0  0  0  0  0
    6.1760    2.0670   19.2730 C   0  0  0  0  0  0  0  0  0  0  0  0
   10.7560    0.3670   22.3310 C   0  0  0  0  0  0  0  0  0  0  0  0
    6.7790    0.8280   19.3870 C   0  0  0  0  0  0  0  0  0  0  0  0
   12.6380    1.7240   22.7830 C   0  0  0  0  0  0  0  0  0  0  0  0
   12.9590   -0.5620   21.8920 C   0  0  0  0  0  0  0  0  0  0  0  0
   13.1560    5.3770   22.9650 C   0  0  0  0  0  0  0  0  0  0  0  0
    8.6060    0.8400   20.9960 C   0  0  0  0  0  0  0  0  0  0  0  0
    6.1150    3.0570   20.4480 C   0  0  0  0  0  0  0  0  0  0  0  0
    9.7180    9.0620   22.4690 C   0  0  0  0  0  0  0  0  0  0  0  0
    9.2500    0.2750   22.2450 C   0  0  0  0  0  0  0  0  0  0  0  0
   12.3770    4.0720   22.8640 C   0  0  0  0  0  0  0  0  0  0  0  0
    6.3150    0.3150   17.0860 N   0  0  0  0  0  0  0  0  0  0  0  0
   12.1690    8.9800   22.6620 N   0  0  0  0  0  0  0  0  0  0  0  0
   10.9840    8.3720   22.5170 N   0  0  0  0  0  0  0  0  0  0  0  0
    7.3950    0.3860   20.5660 N   0  0  0  0  0  0  0  0  0  0  0  0
   14.3620    5.4850   22.9340 O   0  0  0  0  0  0  0  0  0  0  0  0
    9.1930    1.7370   20.4040 O   0  0  0  0  0  0  0  0  0  0  0  0
   13.1900    2.9250   23.2370 O   0  0  0  0  0  0  0  0  0  0  0  0
   13.9510   -1.9660   21.4890 Cl  0  0  0  0  0  0  0  0  0  0  0  0
    5.1050    3.3550   17.8830 H   0  0  0  0  0  0  0  0  0  0  0  0
   10.6280    2.2070   23.2510 H   0  0  0  0  0  0  0  0  0  0  0  0
   11.1850   -1.6610   21.5820 H   0  0  0  0  0  0  0  0  0  0  0  0
   14.5530    0.8990   22.4080 H   0  0  0  0  0  0  0  0  0  0  0  0
    5.3190    1.7640   15.9660 H   0  0  0  0  0  0  0  0  0  0  0  0
   14.1000    8.1860   22.7500 H   0  0  0  0  0  0  0  0  0  0  0  0
    7.2590   -1.0470   18.2580 H   0  0  0  0  0  0  0  0  0  0  0  0
   10.3720    6.1990   22.5570 H   0  0  0  0  0  0  0  0  0  0  0  0
    6.3750    4.0410   20.0260 H   0  0  0  0  0  0  0  0  0  0  0  0
    5.1290    3.0580   20.9160 H   0  0  0  0  0  0  0  0  0  0  0  0
    6.8400    2.8200   21.2230 H   0  0  0  0  0  0  0  0  0  0  0  0
    9.6900    9.8120   21.6680 H   0  0  0  0  0  0  0  0  0  0  0  0
    8.9030    8.3550   22.3390 H   0  0  0  0  0  0  0  0  0  0  0  0
    9.5170    9.7070   23.3360 H   0  0  0  0  0  0  0  0  0  0  0  0
    8.9300   -0.7690   22.3050 H   0  0  0  0  0  0  0  0  0  0  0  0
    8.7930    0.8310   23.0640 H   0  0  0  0  0  0  0  0  0  0  0  0
   12.0200    4.0160   21.8330 H   0  0  0  0  0  0  0  0  0  0  0  0
   11.5830    4.1380   23.6170 H   0  0  0  0  0  0  0  0  0  0  0  0
    7.0640   -0.4480   21.0610 H   0  0  0  0  0  0  0  0  0  0  0  0
  5 33  1  0  0  0  0
  5 21  2  0  0  0  0
  1  5  1  0  0  0  0
  7 21  1  0  0  0  0
  1 29  1  0  0  0  0
  1 10  2  0  0  0  0
  7 35  1  0  0  0  0
  7 12  2  0  0  0  0
 10 12  1  0  0  0  0
 10 17  1  0  0  0  0
 12 24  1  0  0  0  0
 17 37  1  0  0  0  0
 16 26  2  0  0  0  0
 17 38  1  0  0  0  0
 17 39  1  0  0  0  0
 16 24  1  0  0  0  0
 24 47  1  0  0  0  0
 16 19  1  0  0  0  0
 14 28  1  0  0  0  0
  3 31  1  0  0  0  0
 18 40  1  0  0  0  0
 20 45  1  0  0  0  0
  3 14  2  0  0  0  0
  4 14  1  0  0  0  0
  3 11  1  0  0  0  0
 19 43  1  0  0  0  0
 11 19  1  0  0  0  0
 19 44  1  0  0  0  0
  2 11  2  0  0  0  0
  4 32  1  0  0  0  0
  4 13  2  0  0  0  0
 18 41  1  0  0  0  0
 18 23  1  0  0  0  0
 18 42  1  0  0  0  0
 22 23  1  0  0  0  0
  8 23  1  0  0  0  0
  8 36  1  0  0  0  0
  6 22  2  0  0  0  0
  8  9  2  0  0  0  0
  6 34  1  0  0  0  0
  2 13  1  0  0  0  0
 13 27  1  0  0  0  0
  6  9  1  0  0  0  0
  2 30  1  0  0  0  0
  9 15  1  0  0  0  0
 15 20  1  0  0  0  0
 20 27  1  0  0  0  0
 20 46  1  0  0  0  0
 15 25  2  0  0  0  0
M  END
> <CID>
EN300-66387

> <SMILES>
Cc1ccncc1NC(=O)Cc2cc(cc(c2)Cl)OCC(=O)c3cnn(c3)C

> <RUN>
RUN4599

> <DDG (kcal/mol)>
-0.47

> <dDDG (kcal/mol)>
0.48

$$$$
EN300-380073
  -OEChem-08252008263D

 45 48  0     0  0  0  0  0  0999 V2000
    6.9340   -6.5290   21.9720 C   0  0  0  0  0  0  0  0  0  0  0  0
   12.3040   -0.5170   24.3300 C   0  0  0  0  0  0  0  0  0  0  0  0
   12.9510   -2.3180   22.8650 C   0  0  0  0  0  0  0  0  0  0  0  0
   13.8820   -0.0930   22.5260 C   0  0  0  0  0  0  0  0  0  0  0  0
    6.0580   -5.6100   21.4950 C   0  0  0  0  0  0  0  0  0  0  0  0
    7.2590   -3.8330   22.2170 C   0  0  0  0  0  0  0  0  0  0  0  0
   12.3720    7.2390   27.2030 C   0  0  0  0  0  0  0  0  0  0  0  0
    8.1190   -6.0490   22.6500 C   0  0  0  0  0  0  0  0  0  0  0  0
   12.0910   -1.8300   23.9440 C   0  0  0  0  0  0  0  0  0  0  0  0
    8.2700   -4.6550   22.7550 C   0  0  0  0  0  0  0  0  0  0  0  0
   13.1520    0.3900   23.6020 C   0  0  0  0  0  0  0  0  0  0  0  0
   13.7690   -1.4410   22.1450 C   0  0  0  0  0  0  0  0  0  0  0  0
   12.4690    5.8730   26.9340 C   0  0  0  0  0  0  0  0  0  0  0  0
   12.7700    5.3070   25.6520 C   0  0  0  0  0  0  0  0  0  0  0  0
   13.2700    4.0160   23.9240 C   0  0  0  0  0  0  0  0  0  0  0  0
    9.8750   -2.9010   23.4680 C   0  0  0  0  0  0  0  0  0  0  0  0
    9.0840   -7.0370   23.2700 C   0  0  0  0  0  0  0  0  0  0  0  0
   10.9910   -2.6730   24.5090 C   0  0  0  0  0  0  0  0  0  0  0  0
   13.5210    2.7380   23.2160 C   0  0  0  0  0  0  0  0  0  0  0  0
    6.1600   -4.2930   21.5910 N   0  0  0  0  0  0  0  0  0  0  0  0
   11.9530    7.5260   28.3680 N   0  0  0  0  0  0  0  0  0  0  0  0
   12.0880    5.1080   27.8870 N   0  0  0  0  0  0  0  0  0  0  0  0
   12.8290    6.0370   24.5350 N   0  0  0  0  0  0  0  0  0  0  0  0
   13.0990    5.2600   23.4640 N   0  0  0  0  0  0  0  0  0  0  0  0
    9.3600   -4.1710   23.4270 N   0  0  0  0  0  0  0  0  0  0  0  0
    9.5530   -2.0380   22.6950 O   0  0  0  0  0  0  0  0  0  0  0  0
   13.0100    4.0390   25.3020 O   0  0  0  0  0  0  0  0  0  0  0  0
   13.3250    1.6300   24.1030 O   0  0  0  0  0  0  0  0  0  0  0  0
   11.7050    6.1340   29.2560 S   0  0  0  0  0  0  0  0  0  0  0  0
   14.7870   -2.1570   20.9360 Cl  0  0  0  0  0  0  0  0  0  0  0  0
    6.7460   -7.5930   22.0070 H   0  0  0  0  0  0  0  0  0  0  0  0
   11.7030   -0.1970   25.1800 H   0  0  0  0  0  0  0  0  0  0  0  0
   12.8700   -3.3610   22.5930 H   0  0  0  0  0  0  0  0  0  0  0  0
   14.5030    0.4940   21.8500 H   0  0  0  0  0  0  0  0  0  0  0  0
    5.1070   -5.9730   21.1020 H   0  0  0  0  0  0  0  0  0  0  0  0
    7.2740   -2.7450   22.2960 H   0  0  0  0  0  0  0  0  0  0  0  0
   12.5430    8.0160   26.4730 H   0  0  0  0  0  0  0  0  0  0  0  0
   10.0680   -6.9650   22.8000 H   0  0  0  0  0  0  0  0  0  0  0  0
    9.1970   -6.9540   24.3590 H   0  0  0  0  0  0  0  0  0  0  0  0
    8.7860   -8.0520   22.9920 H   0  0  0  0  0  0  0  0  0  0  0  0
   11.3880   -3.6460   24.8200 H   0  0  0  0  0  0  0  0  0  0  0  0
   10.4830   -2.3030   25.4050 H   0  0  0  0  0  0  0  0  0  0  0  0
   12.9310    2.6460   22.2930 H   0  0  0  0  0  0  0  0  0  0  0  0
   14.5330    2.6750   22.8160 H   0  0  0  0  0  0  0  0  0  0  0  0
    9.8090   -4.7960   24.0980 H   0  0  0  0  0  0  0  0  0  0  0  0
 12 30  1  0  0  0  0
  5 35  1  0  0  0  0
  5 20  2  0  0  0  0
  1  5  1  0  0  0  0
  6 20  1  0  0  0  0
  4 34  1  0  0  0  0
  1 31  1  0  0  0  0
  1  8  2  0  0  0  0
  4 12  2  0  0  0  0
  3 12  1  0  0  0  0
  6 36  1  0  0  0  0
  6 10  2  0  0  0  0
 19 43  1  0  0  0  0
  4 11  1  0  0  0  0
  3 33  1  0  0  0  0
  8 10  1  0  0  0  0
  8 17  1  0  0  0  0
 16 26  2  0  0  0  0
 10 25  1  0  0  0  0
 17 38  1  0  0  0  0
 19 44  1  0  0  0  0
  3  9  2  0  0  0  0
 17 40  1  0  0  0  0
 15 19  1  0  0  0  0
 19 28  1  0  0  0  0
 17 39  1  0  0  0  0
 16 25  1  0  0  0  0
 25 45  1  0  0  0  0
 15 24  2  0  0  0  0
 23 24  1  0  0  0  0
 16 18  1  0  0  0  0
 11 28  1  0  0  0  0
  2 11  2  0  0  0  0
 15 27  1  0  0  0  0
  2  9  1  0  0  0  0
  9 18  1  0  0  0  0
  2 32  1  0  0  0  0
 18 41  1  0  0  0  0
 18 42  1  0  0  0  0
 14 23  2  0  0  0  0
 14 27  1  0  0  0  0
 13 14  1  0  0  0  0
  7 37  1  0  0  0  0
  7 13  1  0  0  0  0
 13 22  2  0  0  0  0
  7 21  2  0  0  0  0
 22 29  1  0  0  0  0
 21 29  1  0  0  0  0
M  END
> <CID>
EN300-380073

> <SMILES>
Cc1ccncc1NC(=O)Cc2cc(cc(c2)Cl)OCc3nnc(o3)c4cnsn4

> <RUN>
RUN1159

> <DDG (kcal/mol)>
-0.46

> <dDDG (kcal/mol)>
0.15

$$$$
EN300-738987
  -OEChem-08252008263D

 66 69  0     1  0  0  0  0  0999 V2000
    5.5550    1.4510   20.1870 C   0  0  0  0  0  0  0  0  0  0  0  0
   12.8810    1.9530   23.0910 C   0  0  0  0  0  0  0  0  0  0  0  0
   12.8230   -0.3840   22.6780 C   0  0  0  0  0  0  0  0  0  0  0  0
   14.8910    0.8430   22.4120 C   0  0  0  0  0  0  0  0  0  0  0  0
    6.1910    1.3760   18.9770 C   0  0  0  0  0  0  0  0  0  0  0  0
    8.1630    0.6540   19.8810 C   0  0  0  0  0  0  0  0  0  0  0  0
    6.3870    1.2400   21.3270 C   0  0  0  0  0  0  0  0  0  0  0  0
   12.2140    0.7660   23.0310 C   0  0  0  0  0  0  0  0  0  0  0  0
    7.7230    0.9180   21.1220 C   0  0  0  0  0  0  0  0  0  0  0  0
   14.2150    2.0220   22.7050 C   0  0  0  0  0  0  0  0  0  0  0  0
   14.2260   -0.3300   22.3870 C   0  0  0  0  0  0  0  0  0  0  0  0
   14.0640    5.4520   23.2290 C   0  0  0  0  0  0  0  0  0  0  0  0
   12.9650    6.0420   23.6940 C   0  0  0  0  0  0  0  0  0  0  0  0
    9.8290    1.0450   22.2720 C   0  0  0  0  0  0  0  0  0  0  0  0
   12.5880    6.5570   29.0930 C   0  0  0  0  0  0  0  0  0  0  0  0
   11.0500    6.3680   29.1910 C   0  0  0  0  0  0  0  0  0  0  0  0
   13.1580    7.0560   27.7320 C   0  0  0  0  0  0  0  0  0  0  0  0
   10.2400    7.6450   29.2440 C   0  0  0  0  0  0  0  0  0  0  0  0
   11.3420    8.6940   27.3370 C   0  0  0  0  0  0  0  0  0  0  0  0
   12.1420    7.5460   26.7380 C   0  0  1  0  0  0  0  0  0  0  0  0
    5.8130    1.3340   22.6880 C   0  0  0  0  0  0  0  0  0  0  0  0
   11.5510    5.7100   23.1810 C   0  0  0  0  0  0  0  0  0  0  0  0
   10.7590    0.5670   23.4210 C   0  0  0  0  0  0  0  0  0  0  0  0
   14.1540    4.3730   22.1130 C   0  0  0  0  0  0  0  0  0  0  0  0
   12.6680    8.0080   25.4200 C   0  0  0  0  0  0  0  0  0  0  0  0
    7.4350    0.8690   18.7540 N   0  0  0  0  0  0  0  0  0  0  0  0
   15.1260    5.9040   23.9250 N   0  0  0  0  0  0  0  0  0  0  0  0
   14.8210    6.7750   24.7880 N   0  0  0  0  0  0  0  0  0  0  0  0
   13.4390    6.9080   24.7020 N   0  0  0  0  0  0  0  0  0  0  0  0
    8.4850    0.6890   22.2460 N   0  0  0  0  0  0  0  0  0  0  0  0
   10.0480    8.2000   27.9220 N   0  3  0  0  0  0  0  0  0  0  0  0
   10.3840    1.7390   21.4590 O   0  0  0  0  0  0  0  0  0  0  0  0
   14.9240    3.2280   22.5800 O   0  0  0  0  0  0  0  0  0  0  0  0
   15.1210   -1.7660   21.9520 Cl  0  0  0  0  0  0  0  0  0  0  0  0
    4.4810    1.6350   20.2730 H   0  0  0  0  0  0  0  0  0  0  0  0
   12.3830    2.8110   23.5180 H   0  0  0  0  0  0  0  0  0  0  0  0
   12.3100   -1.3470   22.7260 H   0  0  0  0  0  0  0  0  0  0  0  0
   15.9040    0.8690   22.0210 H   0  0  0  0  0  0  0  0  0  0  0  0
    5.5670    1.6860   18.1440 H   0  0  0  0  0  0  0  0  0  0  0  0
    9.2060    0.3810   19.8230 H   0  0  0  0  0  0  0  0  0  0  0  0
   12.7860    7.3420   29.8390 H   0  0  0  0  0  0  0  0  0  0  0  0
   13.1380    5.6720   29.4340 H   0  0  0  0  0  0  0  0  0  0  0  0
   10.7950    5.6300   28.4230 H   0  0  0  0  0  0  0  0  0  0  0  0
   10.8880    5.8560   30.1400 H   0  0  0  0  0  0  0  0  0  0  0  0
   13.8710    7.8450   27.9970 H   0  0  0  0  0  0  0  0  0  0  0  0
   13.7960    6.2930   27.2810 H   0  0  0  0  0  0  0  0  0  0  0  0
    9.2560    7.2950   29.5700 H   0  0  0  0  0  0  0  0  0  0  0  0
   10.6840    8.4010   29.8950 H   0  0  0  0  0  0  0  0  0  0  0  0
   11.9430    9.0710   28.1680 H   0  0  0  0  0  0  0  0  0  0  0  0
   11.1850    9.4750   26.5740 H   0  0  0  0  0  0  0  0  0  0  0  0
   11.4110    6.7810   26.4820 H   0  0  0  0  0  0  0  0  0  0  0  0
    6.2950    2.1220   23.2610 H   0  0  0  0  0  0  0  0  0  0  0  0
    4.7240    1.4600   22.6860 H   0  0  0  0  0  0  0  0  0  0  0  0
    6.0860    0.4550   23.2920 H   0  0  0  0  0  0  0  0  0  0  0  0
   11.5380    5.7380   22.0850 H   0  0  0  0  0  0  0  0  0  0  0  0
   11.1040    4.7600   23.4650 H   0  0  0  0  0  0  0  0  0  0  0  0
   10.8300    6.4870   23.4570 H   0  0  0  0  0  0  0  0  0  0  0  0
   10.5500   -0.5010   23.5500 H   0  0  0  0  0  0  0  0  0  0  0  0
   10.5370    1.0590   24.3760 H   0  0  0  0  0  0  0  0  0  0  0  0
   13.1390    4.1240   21.7760 H   0  0  0  0  0  0  0  0  0  0  0  0
   14.7950    4.9010   21.3970 H   0  0  0  0  0  0  0  0  0  0  0  0
   11.9280    8.5110   24.7840 H   0  0  0  0  0  0  0  0  0  0  0  0
   13.3700    8.8330   25.5700 H   0  0  0  0  0  0  0  0  0  0  0  0
    8.0720    0.1600   23.0150 H   0  0  0  0  0  0  0  0  0  0  0  0
    9.7320    7.4640   27.2940 H   0  0  0  0  0  0  0  0  0  0  0  0
    9.3820    8.9770   27.8650 H   0  0  0  0  0  0  0  0  0  0  0  0
  5 39  1  0  0  0  0
  5 26  2  0  0  0  0
  6 26  1  0  0  0  0
  1  5  1  0  0  0  0
  6 40  1  0  0  0  0
  6  9  2  0  0  0  0
  1 35  1  0  0  0  0
  1  7  2  0  0  0  0
  7  9  1  0  0  0  0
  9 30  1  0  0  0  0
  7 21  1  0  0  0  0
 24 61  1  0  0  0  0
 14 32  2  0  0  0  0
 24 60  1  0  0  0  0
 11 34  1  0  0  0  0
  4 38  1  0  0  0  0
 22 55  1  0  0  0  0
 24 33  1  0  0  0  0
 12 24  1  0  0  0  0
 14 30  1  0  0  0  0
 30 64  1  0  0  0  0
 14 23  1  0  0  0  0
  4 11  2  0  0  0  0
  3 11  1  0  0  0  0
  4 10  1  0  0  0  0
 10 33  1  0  0  0  0
  3 37  1  0  0  0  0
  3  8  2  0  0  0  0
 21 53  1  0  0  0  0
 21 52  1  0  0  0  0
 21 54  1  0  0  0  0
  2 10  2  0  0  0  0
  2  8  1  0  0  0  0
  8 23  1  0  0  0  0
  2 36  1  0  0  0  0
 22 57  1  0  0  0  0
 22 56  1  0  0  0  0
 13 22  1  0  0  0  0
 12 13  2  0  0  0  0
 12 27  1  0  0  0  0
 23 58  1  0  0  0  0
 23 59  1  0  0  0  0
 13 29  1  0  0  0  0
 27 28  2  0  0  0  0
 28 29  1  0  0  0  0
 25 29  1  0  0  0  0
 25 62  1  0  0  0  0
 25 63  1  0  0  0  0
 20 25  1  0  0  0  0
 20 51  1  0  0  0  0
 19 50  1  0  0  0  0
 19 20  1  0  0  0  0
 17 20  1  0  0  0  0
 17 46  1  0  0  0  0
 31 65  1  0  0  0  0
 19 31  1  0  0  0  0
 19 49  1  0  0  0  0
 17 45  1  0  0  0  0
 15 17  1  0  0  0  0
 31 66  1  0  0  0  0
 18 31  1  0  0  0  0
 16 43  1  0  0  0  0
 15 16  1  0  0  0  0
 15 42  1  0  0  0  0
 15 41  1  0  0  0  0
 16 18  1  0  0  0  0
 16 44  1  0  0  0  0
 18 47  1  0  0  0  0
 18 48  1  0  0  0  0
M  CHG  1  31   1
M  END
> <CID>
EN300-738987

> <SMILES>
Cc1ccncc1NC(=O)Cc2cc(cc(c2)Cl)OCc3c(n(nn3)C[C@H]4CCCC[NH2+]C4)C

> <RUN>
RUN640

> <DDG (kcal/mol)>
-0.45

> <dDDG (kcal/mol)>
0.16

$$$$
EN300-1132699
  -OEChem-08252008263D

 59 62  0     1  0  0  0  0  0999 V2000
   10.0810    3.3490   27.1700 C   0  0  0  0  0  0  0  0  0  0  0  0
   10.9530    3.5410   24.9800 C   0  0  0  0  0  0  0  0  0  0  0  0
    9.7320    2.0070   26.9070 C   0  0  0  0  0  0  0  0  0  0  0  0
   10.6640    2.2450   24.7150 C   0  0  0  0  0  0  0  0  0  0  0  0
    5.9910    1.9430   19.1380 C   0  0  0  0  0  0  0  0  0  0  0  0
    9.3510   -1.3550   23.4640 C   0  0  0  0  0  0  0  0  0  0  0  0
   11.1790   -2.0620   22.0230 C   0  0  0  0  0  0  0  0  0  0  0  0
   11.5160   -0.6000   23.8980 C   0  0  0  0  0  0  0  0  0  0  0  0
    6.0480    1.5540   17.8550 C   0  0  0  0  0  0  0  0  0  0  0  0
    7.3490   -0.2800   18.4960 C   0  0  0  0  0  0  0  0  0  0  0  0
   10.6970    4.1790   26.2090 C   0  0  0  0  0  0  0  0  0  0  0  0
    6.4710    1.2160   20.2000 C   0  0  0  0  0  0  0  0  0  0  0  0
    9.8240   -2.0970   22.3440 C   0  0  0  0  0  0  0  0  0  0  0  0
    7.2130    0.0870   19.8530 C   0  0  0  0  0  0  0  0  0  0  0  0
    9.9830    1.4810   25.6120 C   0  0  0  0  0  0  0  0  0  0  0  0
   10.1480   -0.5630   24.2240 C   0  0  0  0  0  0  0  0  0  0  0  0
   12.0460   -1.3240   22.8510 C   0  0  0  0  0  0  0  0  0  0  0  0
    7.7460   -2.2430   20.7930 C   0  0  0  0  0  0  0  0  0  0  0  0
   14.4190    5.3860   30.1110 C   0  0  0  0  0  0  0  0  0  0  0  0
   13.0840    5.8580   30.6400 C   0  0  0  0  0  0  0  0  0  0  0  0
   13.1070    5.1430   29.2890 C   0  0  0  0  0  0  0  0  0  0  0  0
    6.3750    1.7120   21.5840 C   0  0  0  0  0  0  0  0  0  0  0  0
    8.9200   -2.9830   21.5770 C   0  0  0  0  0  0  0  0  0  0  0  0
   12.7600    5.9130   28.0250 C   0  0  0  0  0  0  0  0  0  0  0  0
    9.5210    6.3270   26.3070 C   0  0  0  0  0  0  0  0  0  0  0  0
   10.9110    5.6570   26.4530 C   0  0  1  0  0  0  0  0  0  0  0  0
    6.8390    0.4860   17.5440 N   0  0  0  0  0  0  0  0  0  0  0  0
    7.7100   -0.8270   20.8560 N   0  0  0  0  0  0  0  0  0  0  0  0
    6.8490   -2.8420   20.2080 O   0  0  0  0  0  0  0  0  0  0  0  0
    9.6280    0.2000   25.3290 O   0  0  0  0  0  0  0  0  0  0  0  0
   11.3530    5.9590   27.8400 O   0  0  0  0  0  0  0  0  0  0  0  0
   13.7540   -1.2290   22.3840 Cl  0  0  0  0  0  0  0  0  0  0  0  0
    9.7840    8.5090   25.9500 I   0  0  0  0  0  0  0  0  0  0  0  0
    9.7330    3.7490   28.1150 H   0  0  0  0  0  0  0  0  0  0  0  0
   11.4170    4.2230   24.2780 H   0  0  0  0  0  0  0  0  0  0  0  0
    9.1960    1.4020   27.6340 H   0  0  0  0  0  0  0  0  0  0  0  0
   10.9180    1.8550   23.7370 H   0  0  0  0  0  0  0  0  0  0  0  0
    5.3950    2.8140   19.4160 H   0  0  0  0  0  0  0  0  0  0  0  0
    8.3150   -1.4780   23.7640 H   0  0  0  0  0  0  0  0  0  0  0  0
   11.6130   -2.6780   21.2360 H   0  0  0  0  0  0  0  0  0  0  0  0
   12.3090   -0.0970   24.4550 H   0  0  0  0  0  0  0  0  0  0  0  0
    5.6060    2.1060   17.0400 H   0  0  0  0  0  0  0  0  0  0  0  0
    7.8550   -1.1900   18.2000 H   0  0  0  0  0  0  0  0  0  0  0  0
   15.0480    6.1950   29.7290 H   0  0  0  0  0  0  0  0  0  0  0  0
   14.8720    4.5260   30.5990 H   0  0  0  0  0  0  0  0  0  0  0  0
   13.0230    6.9500   30.6360 H   0  0  0  0  0  0  0  0  0  0  0  0
   12.6170    5.2910   31.4590 H   0  0  0  0  0  0  0  0  0  0  0  0
   12.6020    4.1750   29.3290 H   0  0  0  0  0  0  0  0  0  0  0  0
    6.6490    2.7650   21.6950 H   0  0  0  0  0  0  0  0  0  0  0  0
    5.3090    1.6760   21.8300 H   0  0  0  0  0  0  0  0  0  0  0  0
    6.9920    1.1630   22.2900 H   0  0  0  0  0  0  0  0  0  0  0  0
    9.5430   -3.5860   20.9190 H   0  0  0  0  0  0  0  0  0  0  0  0
    8.4290   -3.6300   22.3120 H   0  0  0  0  0  0  0  0  0  0  0  0
   13.2400    5.3680   27.2120 H   0  0  0  0  0  0  0  0  0  0  0  0
   13.1970    6.9150   27.9420 H   0  0  0  0  0  0  0  0  0  0  0  0
    8.9710    6.1080   27.2300 H   0  0  0  0  0  0  0  0  0  0  0  0
    8.9210    5.8660   25.5170 H   0  0  0  0  0  0  0  0  0  0  0  0
   11.6500    5.9910   25.7190 H   0  0  0  0  0  0  0  0  0  0  0  0
    8.3760   -0.4010   21.4970 H   0  0  0  0  0  0  0  0  0  0  0  0
  9 42  1  0  0  0  0
  9 27  2  0  0  0  0
 10 27  1  0  0  0  0
  5  9  1  0  0  0  0
 10 43  1  0  0  0  0
 10 14  2  0  0  0  0
  5 38  1  0  0  0  0
  5 12  2  0  0  0  0
 12 14  1  0  0  0  0
 14 28  1  0  0  0  0
 12 22  1  0  0  0  0
 18 29  2  0  0  0  0
 18 28  1  0  0  0  0
 18 23  1  0  0  0  0
 28 59  1  0  0  0  0
 23 52  1  0  0  0  0
  7 40  1  0  0  0  0
 23 53  1  0  0  0  0
 13 23  1  0  0  0  0
 22 49  1  0  0  0  0
 22 50  1  0  0  0  0
 22 51  1  0  0  0  0
  7 13  2  0  0  0  0
  7 17  1  0  0  0  0
  6 13  1  0  0  0  0
 17 32  1  0  0  0  0
  8 17  2  0  0  0  0
  6 39  1  0  0  0  0
  6 16  2  0  0  0  0
  4 37  1  0  0  0  0
  8 16  1  0  0  0  0
  8 41  1  0  0  0  0
 16 30  1  0  0  0  0
  2 35  1  0  0  0  0
  2  4  2  0  0  0  0
  4 15  1  0  0  0  0
  2 11  1  0  0  0  0
 15 30  1  0  0  0  0
 25 57  1  0  0  0  0
  3 15  2  0  0  0  0
 26 58  1  0  0  0  0
 25 33  1  0  0  0  0
 11 26  1  0  0  0  0
  1 11  2  0  0  0  0
 25 26  1  0  0  0  0
 25 56  1  0  0  0  0
 26 31  1  0  0  0  0
  1  3  1  0  0  0  0
  3 36  1  0  0  0  0
  1 34  1  0  0  0  0
 24 54  1  0  0  0  0
 24 31  1  0  0  0  0
 24 55  1  0  0  0  0
 21 24  1  0  0  0  0
 21 48  1  0  0  0  0
 19 21  1  0  0  0  0
 20 21  1  0  0  0  0
 19 44  1  0  0  0  0
 19 45  1  0  0  0  0
 19 20  1  0  0  0  0
 20 46  1  0  0  0  0
 20 47  1  0  0  0  0
M  END
> <CID>
EN300-1132699

> <SMILES>
Cc1ccncc1NC(=O)Cc2cc(cc(c2)Cl)Oc3ccc(cc3)[C@@H](CI)OCC4CC4

> <RUN>
RUN1728

> <DDG (kcal/mol)>
-0.44

> <dDDG (kcal/mol)>
0.15

$$$$
EN300-6764228
  -OEChem-08252008263D

 45 47  0     0  0  0  0  0  0999 V2000
    7.5560    1.2960   27.4950 C   0  0  0  0  0  0  0  0  0  0  0  0
    7.2490    2.2540   28.4720 C   0  0  0  0  0  0  0  0  0  0  0  0
    6.6030    2.0810   19.6170 C   0  0  0  0  0  0  0  0  0  0  0  0
    9.7730   -1.3970   23.9130 C   0  0  0  0  0  0  0  0  0  0  0  0
   11.4020   -1.5410   22.1930 C   0  0  0  0  0  0  0  0  0  0  0  0
   11.7450   -0.0890   24.1540 C   0  0  0  0  0  0  0  0  0  0  0  0
    6.3580    1.6050   18.3360 C   0  0  0  0  0  0  0  0  0  0  0  0
    7.3750   -0.3490   18.7570 C   0  0  0  0  0  0  0  0  0  0  0  0
    8.6510    0.4110   27.6400 C   0  0  0  0  0  0  0  0  0  0  0  0
    7.3240    1.2980   20.5380 C   0  0  0  0  0  0  0  0  0  0  0  0
   10.1360   -1.9760   22.7000 C   0  0  0  0  0  0  0  0  0  0  0  0
    7.6400   -0.0120   20.0490 C   0  0  0  0  0  0  0  0  0  0  0  0
   10.5390   -0.5340   24.6800 C   0  0  0  0  0  0  0  0  0  0  0  0
    9.4630    0.5200   28.7720 C   0  0  0  0  0  0  0  0  0  0  0  0
    8.0680    2.3570   29.6260 C   0  0  0  0  0  0  0  0  0  0  0  0
   12.1800   -0.6000   22.8600 C   0  0  0  0  0  0  0  0  0  0  0  0
    9.1550    1.4260   29.8070 C   0  0  0  0  0  0  0  0  0  0  0  0
    8.3260   -2.2830   20.9410 C   0  0  0  0  0  0  0  0  0  0  0  0
    7.9030    1.7270   21.8250 C   0  0  0  0  0  0  0  0  0  0  0  0
    9.3090   -2.9610   21.9190 C   0  0  0  0  0  0  0  0  0  0  0  0
    8.9220   -0.5570   26.4960 C   0  0  0  0  0  0  0  0  0  0  0  0
    6.7490    0.4870   17.9040 N   0  0  0  0  0  0  0  0  0  0  0  0
    8.3750   -0.8610   20.8590 N   0  0  0  0  0  0  0  0  0  0  0  0
    7.6280   -2.9480   20.2080 O   0  0  0  0  0  0  0  0  0  0  0  0
   10.1780   -0.0710   25.9300 O   0  0  0  0  0  0  0  0  0  0  0  0
   10.5490   -0.2430   28.8480 F   0  0  0  0  0  0  0  0  0  0  0  0
    7.6660    3.6290   30.8010 Cl  0  0  0  0  0  0  0  0  0  0  0  0
   13.7390    0.1520   22.1730 Cl  0  0  0  0  0  0  0  0  0  0  0  0
   10.3250    1.5820   31.3340 Br  0  0  0  0  0  0  0  0  0  0  0  0
    7.0680    1.3980   26.5280 H   0  0  0  0  0  0  0  0  0  0  0  0
    6.4750    2.9640   28.1850 H   0  0  0  0  0  0  0  0  0  0  0  0
    6.3860    3.1250   19.8200 H   0  0  0  0  0  0  0  0  0  0  0  0
    8.8710   -1.7800   24.3770 H   0  0  0  0  0  0  0  0  0  0  0  0
   11.7740   -2.0670   21.3110 H   0  0  0  0  0  0  0  0  0  0  0  0
   12.3710    0.6180   24.6960 H   0  0  0  0  0  0  0  0  0  0  0  0
    5.6530    2.2310   17.7760 H   0  0  0  0  0  0  0  0  0  0  0  0
    7.5060   -1.3660   18.4040 H   0  0  0  0  0  0  0  0  0  0  0  0
    7.5690    2.7190   22.1200 H   0  0  0  0  0  0  0  0  0  0  0  0
    7.5950    1.0800   22.6510 H   0  0  0  0  0  0  0  0  0  0  0  0
    8.9750    1.9270   21.7390 H   0  0  0  0  0  0  0  0  0  0  0  0
   10.0630   -3.5390   21.3680 H   0  0  0  0  0  0  0  0  0  0  0  0
    8.7220   -3.5060   22.6570 H   0  0  0  0  0  0  0  0  0  0  0  0
    9.0770   -1.5710   26.8710 H   0  0  0  0  0  0  0  0  0  0  0  0
    8.0750   -0.3210   25.8430 H   0  0  0  0  0  0  0  0  0  0  0  0
    8.9450   -0.4090   21.5800 H   0  0  0  0  0  0  0  0  0  0  0  0
  7 36  1  0  0  0  0
  7 22  2  0  0  0  0
  8 22  1  0  0  0  0
  3  7  1  0  0  0  0
  8 37  1  0  0  0  0
  8 12  2  0  0  0  0
  3 32  1  0  0  0  0
  3 10  2  0  0  0  0
 10 12  1  0  0  0  0
 12 23  1  0  0  0  0
 18 24  2  0  0  0  0
 10 19  1  0  0  0  0
 18 23  1  0  0  0  0
 23 45  1  0  0  0  0
 18 20  1  0  0  0  0
  5 34  1  0  0  0  0
 20 41  1  0  0  0  0
 19 40  1  0  0  0  0
 19 38  1  0  0  0  0
 19 39  1  0  0  0  0
 20 42  1  0  0  0  0
 11 20  1  0  0  0  0
 16 28  1  0  0  0  0
  5 11  2  0  0  0  0
  5 16  1  0  0  0  0
  4 11  1  0  0  0  0
  6 16  2  0  0  0  0
  4 33  1  0  0  0  0
  4 13  2  0  0  0  0
  6 13  1  0  0  0  0
  6 35  1  0  0  0  0
 13 25  1  0  0  0  0
 21 44  1  0  0  0  0
 21 25  1  0  0  0  0
 21 43  1  0  0  0  0
  9 21  1  0  0  0  0
  1 30  1  0  0  0  0
  1  9  2  0  0  0  0
  1  2  1  0  0  0  0
  9 14  1  0  0  0  0
  2 31  1  0  0  0  0
  2 15  2  0  0  0  0
 14 26  1  0  0  0  0
 14 17  2  0  0  0  0
 15 17  1  0  0  0  0
 15 27  1  0  0  0  0
 17 29  1  0  0  0  0
M  END
> <CID>
EN300-6764228

> <SMILES>
Cc1ccncc1NC(=O)Cc2cc(cc(c2)Cl)OCc3ccc(c(c3F)Br)Cl

> <RUN>
RUN1389

> <DDG (kcal/mol)>
-0.44

> <dDDG (kcal/mol)>
0.13

$$$$
EN300-77512
  -OEChem-08252008263D

 50 52  0     0  0  0  0  0  0999 V2000
    5.2000    1.4980   19.3010 C   0  0  0  0  0  0  0  0  0  0  0  0
   11.0900    0.4950   23.8250 C   0  0  0  0  0  0  0  0  0  0  0  0
   12.0070   -1.2880   22.5470 C   0  0  0  0  0  0  0  0  0  0  0  0
   13.4500    0.2380   23.7290 C   0  0  0  0  0  0  0  0  0  0  0  0
    9.8210    0.8260   26.9120 C   0  0  0  0  0  0  0  0  0  0  0  0
    5.7720    1.4760   17.9740 C   0  0  0  0  0  0  0  0  0  0  0  0
    7.4800    0.1210   18.6810 C   0  0  0  0  0  0  0  0  0  0  0  0
    5.8160    0.7810   20.3020 C   0  0  0  0  0  0  0  0  0  0  0  0
   10.9110   -0.6170   23.0310 C   0  0  0  0  0  0  0  0  0  0  0  0
    6.9570    0.0380   20.0130 C   0  0  0  0  0  0  0  0  0  0  0  0
   12.3310    0.8790   24.2620 C   0  0  0  0  0  0  0  0  0  0  0  0
   13.3130   -0.8450   22.8460 C   0  0  0  0  0  0  0  0  0  0  0  0
    9.9090   -0.0940   28.0020 C   0  0  0  0  0  0  0  0  0  0  0  0
   10.9220    1.6280   26.9370 C   0  0  0  0  0  0  0  0  0  0  0  0
    9.0200   -0.6090   21.2150 C   0  0  0  0  0  0  0  0  0  0  0  0
    5.1420    0.7870   21.5960 C   0  0  0  0  0  0  0  0  0  0  0  0
    8.8730   -2.2640   27.1130 C   0  0  0  0  0  0  0  0  0  0  0  0
    7.4840   -0.8240   28.4100 C   0  0  0  0  0  0  0  0  0  0  0  0
    9.4980   -1.0760   22.5630 C   0  0  0  0  0  0  0  0  0  0  0  0
   11.5070    2.5840   25.8280 C   0  0  0  0  0  0  0  0  0  0  0  0
    8.9350   -1.2220   28.2670 C   0  0  0  0  0  0  0  0  0  0  0  0
    6.9620    0.8420   17.6920 N   0  0  0  0  0  0  0  0  0  0  0  0
   11.0010    0.0940   28.6530 N   0  0  0  0  0  0  0  0  0  0  0  0
    7.6310   -0.5990   21.0440 N   0  0  0  0  0  0  0  0  0  0  0  0
    9.8610   -0.3180   20.3670 O   0  0  0  0  0  0  0  0  0  0  0  0
   11.6560    1.2120   27.9850 O   0  0  0  0  0  0  0  0  0  0  0  0
   12.5610    1.9040   25.1600 O   0  0  0  0  0  0  0  0  0  0  0  0
   14.6960   -1.7620   22.2180 Cl  0  0  0  0  0  0  0  0  0  0  0  0
    4.2300    1.9440   19.5210 H   0  0  0  0  0  0  0  0  0  0  0  0
   10.1730    1.0570   24.0090 H   0  0  0  0  0  0  0  0  0  0  0  0
   11.8940   -2.2480   22.0590 H   0  0  0  0  0  0  0  0  0  0  0  0
   14.4630    0.4240   24.0710 H   0  0  0  0  0  0  0  0  0  0  0  0
    9.0760    0.8450   26.1200 H   0  0  0  0  0  0  0  0  0  0  0  0
    5.3600    2.1910   17.2620 H   0  0  0  0  0  0  0  0  0  0  0  0
    8.4150   -0.3620   18.4300 H   0  0  0  0  0  0  0  0  0  0  0  0
    4.5480    1.7010   21.7360 H   0  0  0  0  0  0  0  0  0  0  0  0
    4.4780   -0.0770   21.5990 H   0  0  0  0  0  0  0  0  0  0  0  0
    5.8290    0.5820   22.4270 H   0  0  0  0  0  0  0  0  0  0  0  0
    8.1200   -3.0370   27.2850 H   0  0  0  0  0  0  0  0  0  0  0  0
    9.7490   -2.9060   27.0130 H   0  0  0  0  0  0  0  0  0  0  0  0
    8.7530   -1.7000   26.1740 H   0  0  0  0  0  0  0  0  0  0  0  0
    6.8220   -1.6900   28.5270 H   0  0  0  0  0  0  0  0  0  0  0  0
    7.2060   -0.3520   27.4570 H   0  0  0  0  0  0  0  0  0  0  0  0
    7.2130   -0.1810   29.2530 H   0  0  0  0  0  0  0  0  0  0  0  0
    9.5600   -2.1730   22.5250 H   0  0  0  0  0  0  0  0  0  0  0  0
    8.7980   -0.8360   23.3630 H   0  0  0  0  0  0  0  0  0  0  0  0
   10.7250    2.8550   25.1100 H   0  0  0  0  0  0  0  0  0  0  0  0
   11.9570    3.4830   26.2680 H   0  0  0  0  0  0  0  0  0  0  0  0
    9.2610   -1.7410   29.1780 H   0  0  0  0  0  0  0  0  0  0  0  0
    7.0920   -0.8720   21.8710 H   0  0  0  0  0  0  0  0  0  0  0  0
  6 34  1  0  0  0  0
  6 22  2  0  0  0  0
  7 22  1  0  0  0  0
  1  6  1  0  0  0  0
  7 35  1  0  0  0  0
  7 10  2  0  0  0  0
  1 29  1  0  0  0  0
  1  8  2  0  0  0  0
  8 10  1  0  0  0  0
 10 24  1  0  0  0  0
  8 16  1  0  0  0  0
 15 25  2  0  0  0  0
 15 24  1  0  0  0  0
 24 50  1  0  0  0  0
 15 19  1  0  0  0  0
 16 37  1  0  0  0  0
 16 36  1  0  0  0  0
 16 38  1  0  0  0  0
  3 31  1  0  0  0  0
 12 28  1  0  0  0  0
 19 45  1  0  0  0  0
  3 12  2  0  0  0  0
  3  9  1  0  0  0  0
  9 19  1  0  0  0  0
 19 46  1  0  0  0  0
  4 12  1  0  0  0  0
  2  9  2  0  0  0  0
  4 32  1  0  0  0  0
  4 11  2  0  0  0  0
  2 30  1  0  0  0  0
  2 11  1  0  0  0  0
 11 27  1  0  0  0  0
 20 47  1  0  0  0  0
 20 27  1  0  0  0  0
 20 48  1  0  0  0  0
 14 20  1  0  0  0  0
  5 33  1  0  0  0  0
 17 41  1  0  0  0  0
  5 14  2  0  0  0  0
  5 13  1  0  0  0  0
 14 26  1  0  0  0  0
 17 40  1  0  0  0  0
 17 39  1  0  0  0  0
 17 21  1  0  0  0  0
 18 43  1  0  0  0  0
 23 26  1  0  0  0  0
 13 21  1  0  0  0  0
 13 23  2  0  0  0  0
 18 21  1  0  0  0  0
 21 49  1  0  0  0  0
 18 42  1  0  0  0  0
 18 44  1  0  0  0  0
M  END
> <CID>
EN300-77512

> <SMILES>
Cc1ccncc1NC(=O)Cc2cc(cc(c2)Cl)OCc3cc(no3)C(C)C

> <RUN>
RUN1518

> <DDG (kcal/mol)>
-0.44

> <dDDG (kcal/mol)>
0.12

$$$$
EN300-99500
  -OEChem-08252008263D

 45 47  0     0  0  0  0  0  0999 V2000
    5.2950    2.1200   19.0790 C   0  0  0  0  0  0  0  0  0  0  0  0
   10.3550   -5.3520   25.3890 C   0  0  0  0  0  0  0  0  0  0  0  0
   10.6610   -1.7640   23.4180 C   0  0  0  0  0  0  0  0  0  0  0  0
    8.0920   -6.1160   24.7660 C   0  0  0  0  0  0  0  0  0  0  0  0
   11.8390   -0.2630   21.9330 C   0  0  0  0  0  0  0  0  0  0  0  0
    9.4440   -4.7400   23.2970 C   0  0  0  0  0  0  0  0  0  0  0  0
   12.7670   -2.4330   22.5470 C   0  0  0  0  0  0  0  0  0  0  0  0
    5.8860    1.9300   17.8010 C   0  0  0  0  0  0  0  0  0  0  0  0
    7.6760    0.9120   18.7730 C   0  0  0  0  0  0  0  0  0  0  0  0
    5.9570    1.6410   20.2400 C   0  0  0  0  0  0  0  0  0  0  0  0
    9.1750   -5.9980   25.7190 C   0  0  0  0  0  0  0  0  0  0  0  0
   10.7280   -0.5030   22.7540 C   0  0  0  0  0  0  0  0  0  0  0  0
    7.1970    1.0650   20.0750 C   0  0  0  0  0  0  0  0  0  0  0  0
   10.5320   -4.6590   24.2290 C   0  0  0  0  0  0  0  0  0  0  0  0
   11.6440   -2.7520   23.3230 C   0  0  0  0  0  0  0  0  0  0  0  0
    8.2960   -5.4980   23.5460 C   0  0  0  0  0  0  0  0  0  0  0  0
   12.8740   -1.2350   21.7920 C   0  0  0  0  0  0  0  0  0  0  0  0
    9.1150    0.9640   21.5070 C   0  0  0  0  0  0  0  0  0  0  0  0
    5.4760    2.0930   21.6440 C   0  0  0  0  0  0  0  0  0  0  0  0
    9.6950    0.5490   22.8650 C   0  0  0  0  0  0  0  0  0  0  0  0
    8.9450   -6.7050   27.1130 C   0  0  0  0  0  0  0  0  0  0  0  0
    7.0930    1.3910   17.7140 N   0  0  0  0  0  0  0  0  0  0  0  0
    7.8700    0.4610   21.1010 N   0  0  0  0  0  0  0  0  0  0  0  0
    9.6350    1.8750   20.8930 O   0  0  0  0  0  0  0  0  0  0  0  0
   11.6660   -3.9030   24.0620 O   0  0  0  0  0  0  0  0  0  0  0  0
    7.3460   -5.4840   22.5780 F   0  0  0  0  0  0  0  0  0  0  0  0
   14.2800   -0.8860   20.7850 Cl  0  0  0  0  0  0  0  0  0  0  0  0
    8.7820   -5.4220   28.5020 Br  0  0  0  0  0  0  0  0  0  0  0  0
    4.2880    2.5150   19.1830 H   0  0  0  0  0  0  0  0  0  0  0  0
   11.1910   -5.3290   26.0810 H   0  0  0  0  0  0  0  0  0  0  0  0
    9.7600   -1.9710   24.0030 H   0  0  0  0  0  0  0  0  0  0  0  0
    7.1560   -6.6250   24.9660 H   0  0  0  0  0  0  0  0  0  0  0  0
   11.9750    0.7050   21.4640 H   0  0  0  0  0  0  0  0  0  0  0  0
    9.4000   -4.1980   22.3600 H   0  0  0  0  0  0  0  0  0  0  0  0
   13.5110   -3.2170   22.4430 H   0  0  0  0  0  0  0  0  0  0  0  0
    5.3670    2.2420   16.9030 H   0  0  0  0  0  0  0  0  0  0  0  0
    8.5890    0.3840   18.5140 H   0  0  0  0  0  0  0  0  0  0  0  0
    5.9900    3.0160   21.9440 H   0  0  0  0  0  0  0  0  0  0  0  0
    4.4590    2.4890   21.6720 H   0  0  0  0  0  0  0  0  0  0  0  0
    5.5980    1.2140   22.2940 H   0  0  0  0  0  0  0  0  0  0  0  0
    8.9120    0.2450   23.5740 H   0  0  0  0  0  0  0  0  0  0  0  0
   10.1750    1.4390   23.2810 H   0  0  0  0  0  0  0  0  0  0  0  0
    9.7440   -7.3840   27.4160 H   0  0  0  0  0  0  0  0  0  0  0  0
    8.0360   -7.3040   26.9830 H   0  0  0  0  0  0  0  0  0  0  0  0
    7.3320    0.1740   21.9210 H   0  0  0  0  0  0  0  0  0  0  0  0
  8 36  1  0  0  0  0
  8 22  2  0  0  0  0
  9 22  1  0  0  0  0
  1  8  1  0  0  0  0
  9 37  1  0  0  0  0
  9 13  2  0  0  0  0
  1 29  1  0  0  0  0
  1 10  2  0  0  0  0
 10 13  1  0  0  0  0
 13 23  1  0  0  0  0
 10 19  1  0  0  0  0
 17 27  1  0  0  0  0
 18 24  2  0  0  0  0
 18 23  1  0  0  0  0
 23 45  1  0  0  0  0
  5 33  1  0  0  0  0
 18 20  1  0  0  0  0
 19 39  1  0  0  0  0
 19 38  1  0  0  0  0
 19 40  1  0  0  0  0
  5 17  2  0  0  0  0
  7 17  1  0  0  0  0
  5 12  1  0  0  0  0
  6 34  1  0  0  0  0
  7 35  1  0  0  0  0
  7 15  2  0  0  0  0
 16 26  1  0  0  0  0
 12 20  1  0  0  0  0
  3 12  2  0  0  0  0
 20 42  1  0  0  0  0
 20 41  1  0  0  0  0
  6 16  2  0  0  0  0
  6 14  1  0  0  0  0
  3 15  1  0  0  0  0
 15 25  1  0  0  0  0
  3 31  1  0  0  0  0
  4 16  1  0  0  0  0
 14 25  1  0  0  0  0
  2 14  2  0  0  0  0
  4 32  1  0  0  0  0
  4 11  2  0  0  0  0
  2 11  1  0  0  0  0
  2 30  1  0  0  0  0
 11 21  1  0  0  0  0
 21 44  1  0  0  0  0
 21 43  1  0  0  0  0
 21 28  1  0  0  0  0
M  END
> <CID>
EN300-99500

> <SMILES>
Cc1ccncc1NC(=O)Cc2cc(cc(c2)Cl)Oc3cc(cc(c3)F)CBr

> <RUN>
RUN1809

> <DDG (kcal/mol)>
-0.43

> <dDDG (kcal/mol)>
0.11

$$$$
EN300-1919504
  -OEChem-08252008263D

 45 47  0     0  0  0  0  0  0999 V2000
    5.4730    1.8790   19.7680 C   0  0  0  0  0  0  0  0  0  0  0  0
    9.0250   -1.7090   23.2700 C   0  0  0  0  0  0  0  0  0  0  0  0
   10.8570   -2.1910   21.8780 C   0  0  0  0  0  0  0  0  0  0  0  0
   11.1950   -0.6880   23.6430 C   0  0  0  0  0  0  0  0  0  0  0  0
    5.3700    1.6580   18.3760 C   0  0  0  0  0  0  0  0  0  0  0  0
    6.6010   -0.3160   18.5610 C   0  0  0  0  0  0  0  0  0  0  0  0
    6.2860    1.9330   28.2890 C   0  0  0  0  0  0  0  0  0  0  0  0
    6.1520    0.9080   20.5830 C   0  0  0  0  0  0  0  0  0  0  0  0
    9.4770   -2.3960   22.1450 C   0  0  0  0  0  0  0  0  0  0  0  0
    7.4730    1.6470   28.7900 C   0  0  0  0  0  0  0  0  0  0  0  0
    6.6070   -0.2070   19.9630 C   0  0  0  0  0  0  0  0  0  0  0  0
    9.8550   -0.8610   24.0730 C   0  0  0  0  0  0  0  0  0  0  0  0
   11.7030   -1.3330   22.5670 C   0  0  0  0  0  0  0  0  0  0  0  0
    8.3530    0.9270   27.8770 C   0  0  0  0  0  0  0  0  0  0  0  0
    7.6550    0.4810   26.7550 C   0  0  0  0  0  0  0  0  0  0  0  0
    7.5930   -2.4830   20.5260 C   0  0  0  0  0  0  0  0  0  0  0  0
    6.4560    1.1350   22.0040 C   0  0  0  0  0  0  0  0  0  0  0  0
    7.9830    2.3070   30.0770 C   0  0  0  0  0  0  0  0  0  0  0  0
    8.6530   -3.1970   21.1960 C   0  0  0  0  0  0  0  0  0  0  0  0
    7.9980   -0.3990   25.5850 C   0  0  0  0  0  0  0  0  0  0  0  0
    5.9250    0.6080   17.7860 N   0  0  0  0  0  0  0  0  0  0  0  0
    7.3520   -1.1230   20.7830 N   0  0  0  0  0  0  0  0  0  0  0  0
    6.8490   -3.1550   19.7470 O   0  0  0  0  0  0  0  0  0  0  0  0
    9.3860   -0.1990   25.2030 O   0  0  0  0  0  0  0  0  0  0  0  0
    6.0810    1.1710   26.6720 S   0  0  0  0  0  0  0  0  0  0  0  0
   13.3200   -1.0960   21.9680 Cl  0  0  0  0  0  0  0  0  0  0  0  0
   10.0740    0.5290   28.3050 Br  0  0  0  0  0  0  0  0  0  0  0  0
    5.0190    2.7170   20.2730 H   0  0  0  0  0  0  0  0  0  0  0  0
    8.0100   -1.7910   23.6390 H   0  0  0  0  0  0  0  0  0  0  0  0
   11.3020   -2.6520   21.0060 H   0  0  0  0  0  0  0  0  0  0  0  0
   11.8190   -0.1230   24.3250 H   0  0  0  0  0  0  0  0  0  0  0  0
    4.8890    2.3660   17.7170 H   0  0  0  0  0  0  0  0  0  0  0  0
    7.1410   -1.0860   18.0150 H   0  0  0  0  0  0  0  0  0  0  0  0
    5.5270    2.5430   28.7720 H   0  0  0  0  0  0  0  0  0  0  0  0
    6.2020    2.1790   22.2070 H   0  0  0  0  0  0  0  0  0  0  0  0
    5.8150    0.6310   22.7320 H   0  0  0  0  0  0  0  0  0  0  0  0
    7.5180    1.1130   22.2560 H   0  0  0  0  0  0  0  0  0  0  0  0
    7.1590    2.9030   30.4820 H   0  0  0  0  0  0  0  0  0  0  0  0
    8.1830    1.5250   30.8280 H   0  0  0  0  0  0  0  0  0  0  0  0
    8.8580    2.9610   30.0270 H   0  0  0  0  0  0  0  0  0  0  0  0
    9.3710   -3.6520   20.5080 H   0  0  0  0  0  0  0  0  0  0  0  0
    8.2780   -4.0040   21.8370 H   0  0  0  0  0  0  0  0  0  0  0  0
    7.8180   -1.4500   25.8200 H   0  0  0  0  0  0  0  0  0  0  0  0
    7.3680   -0.2380   24.7120 H   0  0  0  0  0  0  0  0  0  0  0  0
    7.9510   -0.6650   21.4750 H   0  0  0  0  0  0  0  0  0  0  0  0
  5 32  1  0  0  0  0
  5 21  2  0  0  0  0
  6 21  1  0  0  0  0
  6 33  1  0  0  0  0
  1  5  1  0  0  0  0
  6 11  2  0  0  0  0
 16 23  2  0  0  0  0
  1 28  1  0  0  0  0
  1  8  2  0  0  0  0
  8 11  1  0  0  0  0
 11 22  1  0  0  0  0
 19 41  1  0  0  0  0
 16 22  1  0  0  0  0
 16 19  1  0  0  0  0
  8 17  1  0  0  0  0
 22 45  1  0  0  0  0
  3 30  1  0  0  0  0
 19 42  1  0  0  0  0
  9 19  1  0  0  0  0
  3  9  2  0  0  0  0
  3 13  1  0  0  0  0
 13 26  1  0  0  0  0
 17 35  1  0  0  0  0
 17 37  1  0  0  0  0
 17 36  1  0  0  0  0
  2  9  1  0  0  0  0
  4 13  2  0  0  0  0
  2 29  1  0  0  0  0
  2 12  2  0  0  0  0
  4 12  1  0  0  0  0
  4 31  1  0  0  0  0
 12 24  1  0  0  0  0
 20 44  1  0  0  0  0
 20 24  1  0  0  0  0
 20 43  1  0  0  0  0
 15 20  1  0  0  0  0
 15 25  1  0  0  0  0
  7 25  1  0  0  0  0
 14 15  2  0  0  0  0
 14 27  1  0  0  0  0
 10 14  1  0  0  0  0
  7 34  1  0  0  0  0
  7 10  2  0  0  0  0
 10 18  1  0  0  0  0
 18 40  1  0  0  0  0
 18 38  1  0  0  0  0
 18 39  1  0  0  0  0
M  END
> <CID>
EN300-1919504

> <SMILES>
Cc1ccncc1NC(=O)Cc2cc(cc(c2)Cl)OCc3c(c(cs3)C)Br

> <RUN>
RUN183

> <DDG (kcal/mol)>
-0.43

> <dDDG (kcal/mol)>
0.09

$$$$
EN300-123146
  -OEChem-08252008263D

 55 57  0     0  0  0  0  0  0999 V2000
   12.7360    7.2980   23.2730 C   0  0  0  0  0  0  0  0  0  0  0  0
   12.7920    5.9250   22.9080 C   0  0  0  0  0  0  0  0  0  0  0  0
    5.0680    2.3010   19.3990 C   0  0  0  0  0  0  0  0  0  0  0  0
   11.8580    5.3160   24.9550 C   0  0  0  0  0  0  0  0  0  0  0  0
    9.9920    0.7550   23.4250 C   0  0  0  0  0  0  0  0  0  0  0  0
   10.7980   -1.3510   22.4650 C   0  0  0  0  0  0  0  0  0  0  0  0
   12.3850    0.6040   22.8380 C   0  0  0  0  0  0  0  0  0  0  0  0
    5.1900    1.6980   18.1850 C   0  0  0  0  0  0  0  0  0  0  0  0
    6.8370    0.2480   19.1580 C   0  0  0  0  0  0  0  0  0  0  0  0
   12.1380    7.6810   24.4670 C   0  0  0  0  0  0  0  0  0  0  0  0
   12.4080    4.9410   23.7060 C   0  0  0  0  0  0  0  0  0  0  0  0
    5.6720    1.8170   20.5770 C   0  0  0  0  0  0  0  0  0  0  0  0
    9.7590   -0.5810   23.0140 C   0  0  0  0  0  0  0  0  0  0  0  0
    6.5840    0.7650   20.4450 C   0  0  0  0  0  0  0  0  0  0  0  0
   11.2090    1.3720   23.3000 C   0  0  0  0  0  0  0  0  0  0  0  0
   11.6930    6.6360   25.3700 C   0  0  0  0  0  0  0  0  0  0  0  0
   12.1070   -0.7440   22.4610 C   0  0  0  0  0  0  0  0  0  0  0  0
   12.0430    9.1060   24.8060 C   0  0  0  0  0  0  0  0  0  0  0  0
    7.6850   -1.0480   21.8660 C   0  0  0  0  0  0  0  0  0  0  0  0
    5.3760    2.4730   21.9140 C   0  0  0  0  0  0  0  0  0  0  0  0
   12.4850    6.6090   27.7000 C   0  0  0  0  0  0  0  0  0  0  0  0
   11.4120   10.5840   26.4830 C   0  0  0  0  0  0  0  0  0  0  0  0
    8.3670   -1.2630   23.1600 C   0  0  0  0  0  0  0  0  0  0  0  0
   12.5290    3.4500   23.3680 C   0  0  0  0  0  0  0  0  0  0  0  0
    6.1160    0.6610   18.0670 N   0  0  0  0  0  0  0  0  0  0  0  0
    7.2400    0.2540   21.5720 N   0  0  0  0  0  0  0  0  0  0  0  0
   12.8850    9.8490   24.2430 O   0  0  0  0  0  0  0  0  0  0  0  0
    7.3110   -2.0110   21.2280 O   0  0  0  0  0  0  0  0  0  0  0  0
   11.4210    6.8260   26.7610 O   0  0  0  0  0  0  0  0  0  0  0  0
   11.2300    2.8060   23.5210 O   0  0  0  0  0  0  0  0  0  0  0  0
   11.0840    9.4120   25.7530 O   0  0  0  0  0  0  0  0  0  0  0  0
   13.4240   -1.7240   21.9880 Cl  0  0  0  0  0  0  0  0  0  0  0  0
   13.1050    7.9770   22.5030 H   0  0  0  0  0  0  0  0  0  0  0  0
   13.1630    5.6600   21.9230 H   0  0  0  0  0  0  0  0  0  0  0  0
    4.2590    3.0150   19.5250 H   0  0  0  0  0  0  0  0  0  0  0  0
   11.4430    4.5930   25.6510 H   0  0  0  0  0  0  0  0  0  0  0  0
    9.2730    1.4070   23.9080 H   0  0  0  0  0  0  0  0  0  0  0  0
   10.6690   -2.3490   22.0630 H   0  0  0  0  0  0  0  0  0  0  0  0
   13.3730    1.0490   22.7900 H   0  0  0  0  0  0  0  0  0  0  0  0
    4.7760    2.0150   17.2340 H   0  0  0  0  0  0  0  0  0  0  0  0
    7.4870   -0.6090   19.0300 H   0  0  0  0  0  0  0  0  0  0  0  0
    6.3490    2.7940   22.2820 H   0  0  0  0  0  0  0  0  0  0  0  0
    4.7500    3.3330   21.6660 H   0  0  0  0  0  0  0  0  0  0  0  0
    4.8740    1.7430   22.5580 H   0  0  0  0  0  0  0  0  0  0  0  0
   13.1110    5.7290   27.5040 H   0  0  0  0  0  0  0  0  0  0  0  0
   11.9160    6.4170   28.6140 H   0  0  0  0  0  0  0  0  0  0  0  0
   13.1220    7.5010   27.7010 H   0  0  0  0  0  0  0  0  0  0  0  0
   12.2800   10.3670   27.1140 H   0  0  0  0  0  0  0  0  0  0  0  0
   10.5570   10.9210   27.0900 H   0  0  0  0  0  0  0  0  0  0  0  0
   11.5470   11.4640   25.8440 H   0  0  0  0  0  0  0  0  0  0  0  0
    8.4130   -2.3380   23.3460 H   0  0  0  0  0  0  0  0  0  0  0  0
    7.8420   -0.7930   24.0000 H   0  0  0  0  0  0  0  0  0  0  0  0
   12.7830    3.4090   22.2970 H   0  0  0  0  0  0  0  0  0  0  0  0
   13.2550    2.9530   24.0160 H   0  0  0  0  0  0  0  0  0  0  0  0
    7.3460    0.8870   22.3680 H   0  0  0  0  0  0  0  0  0  0  0  0
  8 40  1  0  0  0  0
  8 25  2  0  0  0  0
  9 25  1  0  0  0  0
  3  8  1  0  0  0  0
  9 41  1  0  0  0  0
  9 14  2  0  0  0  0
  3 35  1  0  0  0  0
  3 12  2  0  0  0  0
 12 14  1  0  0  0  0
 14 26  1  0  0  0  0
 12 20  1  0  0  0  0
 19 28  2  0  0  0  0
 19 26  1  0  0  0  0
 26 55  1  0  0  0  0
 20 43  1  0  0  0  0
 19 23  1  0  0  0  0
 20 42  1  0  0  0  0
 20 44  1  0  0  0  0
  2 34  1  0  0  0  0
 17 32  1  0  0  0  0
  6 38  1  0  0  0  0
 24 53  1  0  0  0  0
  6 17  2  0  0  0  0
  7 17  1  0  0  0  0
  6 13  1  0  0  0  0
  1 33  1  0  0  0  0
  7 39  1  0  0  0  0
  7 15  2  0  0  0  0
  1  2  2  0  0  0  0
  2 11  1  0  0  0  0
 13 23  1  0  0  0  0
  5 13  2  0  0  0  0
 23 51  1  0  0  0  0
 23 52  1  0  0  0  0
  1 10  1  0  0  0  0
  5 15  1  0  0  0  0
 15 30  1  0  0  0  0
 24 30  1  0  0  0  0
 11 24  1  0  0  0  0
 24 54  1  0  0  0  0
  5 37  1  0  0  0  0
  4 11  2  0  0  0  0
 18 27  2  0  0  0  0
 10 18  1  0  0  0  0
 10 16  2  0  0  0  0
 18 31  1  0  0  0  0
  4 16  1  0  0  0  0
  4 36  1  0  0  0  0
 16 29  1  0  0  0  0
 22 31  1  0  0  0  0
 22 50  1  0  0  0  0
 22 49  1  0  0  0  0
 22 48  1  0  0  0  0
 21 29  1  0  0  0  0
 21 45  1  0  0  0  0
 21 47  1  0  0  0  0
 21 46  1  0  0  0  0
M  END
> <CID>
EN300-123146

> <SMILES>
Cc1ccncc1NC(=O)Cc2cc(cc(c2)Cl)OCc3ccc(c(c3)OC)C(=O)OC

> <RUN>
RUN4346

> <DDG (kcal/mol)>
-0.42

> <dDDG (kcal/mol)>
0.17

$$$$
EN300-1697674
  -OEChem-08252008263D

 43 45  0     0  0  0  0  0  0999 V2000
    4.5210    1.3670   19.0130 C   0  0  0  0  0  0  0  0  0  0  0  0
   11.6420    1.8040   22.8860 C   0  0  0  0  0  0  0  0  0  0  0  0
   11.5680   -0.2610   21.8390 C   0  0  0  0  0  0  0  0  0  0  0  0
   13.6990    0.7770   22.2250 C   0  0  0  0  0  0  0  0  0  0  0  0
    5.1510    1.2930   17.7940 C   0  0  0  0  0  0  0  0  0  0  0  0
    7.1340    0.6670   18.7760 C   0  0  0  0  0  0  0  0  0  0  0  0
   12.3310    5.4600   25.0280 C   0  0  0  0  0  0  0  0  0  0  0  0
    5.2710    1.2490   20.2100 C   0  0  0  0  0  0  0  0  0  0  0  0
   10.8860    0.7390   22.4900 C   0  0  0  0  0  0  0  0  0  0  0  0
    6.6180    0.9180   20.0820 C   0  0  0  0  0  0  0  0  0  0  0  0
   13.0740    1.9130   22.7060 C   0  0  0  0  0  0  0  0  0  0  0  0
   13.0930    5.0940   22.5520 C   0  0  0  0  0  0  0  0  0  0  0  0
   12.9930   -0.2500   21.6800 C   0  0  0  0  0  0  0  0  0  0  0  0
   12.6490    6.3300   23.0210 C   0  0  0  0  0  0  0  0  0  0  0  0
   13.3420    4.1100   23.4920 C   0  0  0  0  0  0  0  0  0  0  0  0
    8.6260    0.9650   21.4820 C   0  0  0  0  0  0  0  0  0  0  0  0
    4.6340    1.4170   21.5620 C   0  0  0  0  0  0  0  0  0  0  0  0
    9.4240    0.6260   22.7440 C   0  0  0  0  0  0  0  0  0  0  0  0
   12.5430    7.4470   22.0350 C   0  0  0  0  0  0  0  0  0  0  0  0
    6.4670    0.8600   17.6270 N   0  0  0  0  0  0  0  0  0  0  0  0
   12.2290    6.5130   24.2340 N   0  0  0  0  0  0  0  0  0  0  0  0
   12.9320    4.2720   24.7400 N   0  0  0  0  0  0  0  0  0  0  0  0
    7.3020    0.6550   21.2580 N   0  0  0  0  0  0  0  0  0  0  0  0
    9.1400    1.7230   20.6230 O   0  0  0  0  0  0  0  0  0  0  0  0
   13.8920    2.9420   23.1370 O   0  0  0  0  0  0  0  0  0  0  0  0
   13.1740    4.8430   21.2200 F   0  0  0  0  0  0  0  0  0  0  0  0
   13.8490   -1.6040   21.0020 Cl  0  0  0  0  0  0  0  0  0  0  0  0
   10.5750    7.9300   21.8270 Br  0  0  0  0  0  0  0  0  0  0  0  0
    3.5410    1.8180   19.1020 H   0  0  0  0  0  0  0  0  0  0  0  0
   11.1440    2.6800   23.2920 H   0  0  0  0  0  0  0  0  0  0  0  0
   10.9520   -1.0720   21.4690 H   0  0  0  0  0  0  0  0  0  0  0  0
   14.7700    0.6980   22.3580 H   0  0  0  0  0  0  0  0  0  0  0  0
    4.6230    1.5670   16.8820 H   0  0  0  0  0  0  0  0  0  0  0  0
    8.0830    0.1290   18.7430 H   0  0  0  0  0  0  0  0  0  0  0  0
   11.8960    5.5700   26.0120 H   0  0  0  0  0  0  0  0  0  0  0  0
    5.3160    2.0910   22.0940 H   0  0  0  0  0  0  0  0  0  0  0  0
    3.6900    1.9620   21.5190 H   0  0  0  0  0  0  0  0  0  0  0  0
    4.6330    0.4100   21.9940 H   0  0  0  0  0  0  0  0  0  0  0  0
    9.1420   -0.3250   23.2070 H   0  0  0  0  0  0  0  0  0  0  0  0
    9.2120    1.4360   23.4510 H   0  0  0  0  0  0  0  0  0  0  0  0
   12.9220    7.1720   21.0430 H   0  0  0  0  0  0  0  0  0  0  0  0
   12.9300    8.3690   22.4860 H   0  0  0  0  0  0  0  0  0  0  0  0
    6.8460    0.1730   22.0270 H   0  0  0  0  0  0  0  0  0  0  0  0
  5 33  1  0  0  0  0
  5 20  2  0  0  0  0
  6 20  1  0  0  0  0
  1  5  1  0  0  0  0
  6 34  1  0  0  0  0
  6 10  2  0  0  0  0
  1 29  1  0  0  0  0
  1  8  2  0  0  0  0
  8 10  1  0  0  0  0
 10 23  1  0  0  0  0
  8 17  1  0  0  0  0
 16 24  2  0  0  0  0
 13 27  1  0  0  0  0
 19 41  1  0  0  0  0
 12 26  1  0  0  0  0
 16 23  1  0  0  0  0
 23 43  1  0  0  0  0
  3 31  1  0  0  0  0
 16 18  1  0  0  0  0
 17 37  1  0  0  0  0
 17 38  1  0  0  0  0
 17 36  1  0  0  0  0
  3 13  2  0  0  0  0
  4 13  1  0  0  0  0
 19 28  1  0  0  0  0
  3  9  1  0  0  0  0
 19 42  1  0  0  0  0
 14 19  1  0  0  0  0
  4 32  1  0  0  0  0
  4 11  2  0  0  0  0
  9 18  1  0  0  0  0
  2  9  2  0  0  0  0
 12 14  2  0  0  0  0
 12 15  1  0  0  0  0
  2 11  1  0  0  0  0
 11 25  1  0  0  0  0
 18 39  1  0  0  0  0
 18 40  1  0  0  0  0
  2 30  1  0  0  0  0
 14 21  1  0  0  0  0
 15 25  1  0  0  0  0
 15 22  2  0  0  0  0
  7 21  2  0  0  0  0
  7 22  1  0  0  0  0
  7 35  1  0  0  0  0
M  END
> <CID>
EN300-1697674

> <SMILES>
Cc1ccncc1NC(=O)Cc2cc(cc(c2)Cl)Oc3c(c(ncn3)CBr)F

> <RUN>
RUN3759

> <DDG (kcal/mol)>
-0.42

> <dDDG (kcal/mol)>
0.12

$$$$
EN300-107185
  -OEChem-08252008263D

 46 48  0     0  0  0  0  0  0999 V2000
   12.1370    5.2130   24.1070 C   0  0  0  0  0  0  0  0  0  0  0  0
   12.8960    3.0780   27.0870 C   0  0  0  0  0  0  0  0  0  0  0  0
   13.4430    1.9830   26.5130 C   0  0  0  0  0  0  0  0  0  0  0  0
    5.0450    1.3140   20.0210 C   0  0  0  0  0  0  0  0  0  0  0  0
   13.1490    3.0230   24.3040 C   0  0  0  0  0  0  0  0  0  0  0  0
   12.0660    0.0330   23.5580 C   0  0  0  0  0  0  0  0  0  0  0  0
   12.0980   -1.5030   21.6920 C   0  0  0  0  0  0  0  0  0  0  0  0
   14.1760   -0.6550   22.6610 C   0  0  0  0  0  0  0  0  0  0  0  0
    5.3640    1.2690   18.7150 C   0  0  0  0  0  0  0  0  0  0  0  0
    7.3560    0.0710   19.0760 C   0  0  0  0  0  0  0  0  0  0  0  0
   12.5990    4.1560   24.9310 C   0  0  0  0  0  0  0  0  0  0  0  0
   12.3870    4.1520   26.3670 C   0  0  0  0  0  0  0  0  0  0  0  0
    5.9110    0.6860   20.9070 C   0  0  0  0  0  0  0  0  0  0  0  0
   11.3920   -0.8110   22.6410 C   0  0  0  0  0  0  0  0  0  0  0  0
    7.0160   -0.0240   20.4610 C   0  0  0  0  0  0  0  0  0  0  0  0
   13.6230    1.8910   25.0860 C   0  0  0  0  0  0  0  0  0  0  0  0
   13.4900    0.0740   23.6140 C   0  0  0  0  0  0  0  0  0  0  0  0
   13.5170   -1.4970   21.7770 C   0  0  0  0  0  0  0  0  0  0  0  0
    9.2140   -0.3820   21.4920 C   0  0  0  0  0  0  0  0  0  0  0  0
    5.6030    0.6770   22.3670 C   0  0  0  0  0  0  0  0  0  0  0  0
    9.8850   -0.9010   22.6800 C   0  0  0  0  0  0  0  0  0  0  0  0
   11.6190    5.1730   27.1600 C   0  0  0  0  0  0  0  0  0  0  0  0
   11.6590    6.0170   23.4160 N   0  0  0  0  0  0  0  0  0  0  0  0
    6.4590    0.7020   18.2330 N   0  0  0  0  0  0  0  0  0  0  0  0
    7.8920   -0.6860   21.3210 N   0  0  0  0  0  0  0  0  0  0  0  0
    9.7300    0.5050   20.7980 O   0  0  0  0  0  0  0  0  0  0  0  0
   14.2440    0.8230   24.4900 O   0  0  0  0  0  0  0  0  0  0  0  0
   14.5600   -2.5580   20.8210 Cl  0  0  0  0  0  0  0  0  0  0  0  0
    9.7730    4.5970   27.1670 Br  0  0  0  0  0  0  0  0  0  0  0  0
   12.7870    3.1310   28.1650 H   0  0  0  0  0  0  0  0  0  0  0  0
   13.8220    1.2380   27.2040 H   0  0  0  0  0  0  0  0  0  0  0  0
    4.2170    1.9470   20.3390 H   0  0  0  0  0  0  0  0  0  0  0  0
   13.2830    2.9240   23.2280 H   0  0  0  0  0  0  0  0  0  0  0  0
   11.4680    0.5660   24.2860 H   0  0  0  0  0  0  0  0  0  0  0  0
   11.5740   -2.0590   20.9210 H   0  0  0  0  0  0  0  0  0  0  0  0
   15.2600   -0.6650   22.7260 H   0  0  0  0  0  0  0  0  0  0  0  0
    4.6420    1.7240   18.0350 H   0  0  0  0  0  0  0  0  0  0  0  0
    8.2750   -0.4470   18.7980 H   0  0  0  0  0  0  0  0  0  0  0  0
    6.4760    1.1100   22.8450 H   0  0  0  0  0  0  0  0  0  0  0  0
    4.7670    1.3540   22.5400 H   0  0  0  0  0  0  0  0  0  0  0  0
    5.4950   -0.3470   22.7340 H   0  0  0  0  0  0  0  0  0  0  0  0
    9.5860   -1.9280   22.9100 H   0  0  0  0  0  0  0  0  0  0  0  0
    9.5950   -0.2570   23.5150 H   0  0  0  0  0  0  0  0  0  0  0  0
   11.7280    6.1910   26.7720 H   0  0  0  0  0  0  0  0  0  0  0  0
   11.8570    5.2170   28.2300 H   0  0  0  0  0  0  0  0  0  0  0  0
    7.5220   -1.2560   22.0910 H   0  0  0  0  0  0  0  0  0  0  0  0
  9 37  1  0  0  0  0
  9 24  2  0  0  0  0
 10 24  1  0  0  0  0
  4  9  1  0  0  0  0
 10 38  1  0  0  0  0
 10 15  2  0  0  0  0
  4 32  1  0  0  0  0
  4 13  2  0  0  0  0
 13 15  1  0  0  0  0
 15 25  1  0  0  0  0
 19 26  2  0  0  0  0
 18 28  1  0  0  0  0
 13 20  1  0  0  0  0
  7 35  1  0  0  0  0
 19 25  1  0  0  0  0
 25 46  1  0  0  0  0
 19 21  1  0  0  0  0
  7 18  2  0  0  0  0
  7 14  1  0  0  0  0
  8 18  1  0  0  0  0
 20 40  1  0  0  0  0
 20 41  1  0  0  0  0
 20 39  1  0  0  0  0
 14 21  1  0  0  0  0
  6 14  2  0  0  0  0
  8 36  1  0  0  0  0
  8 17  2  0  0  0  0
 21 42  1  0  0  0  0
 21 43  1  0  0  0  0
  5 33  1  0  0  0  0
  1 23  3  0  0  0  0
  6 17  1  0  0  0  0
  6 34  1  0  0  0  0
 17 27  1  0  0  0  0
  1 11  1  0  0  0  0
  5 11  2  0  0  0  0
  5 16  1  0  0  0  0
 16 27  1  0  0  0  0
 11 12  1  0  0  0  0
  3 16  2  0  0  0  0
  2 12  2  0  0  0  0
 12 22  1  0  0  0  0
  2  3  1  0  0  0  0
  3 31  1  0  0  0  0
 22 44  1  0  0  0  0
  2 30  1  0  0  0  0
 22 29  1  0  0  0  0
 22 45  1  0  0  0  0
M  END
> <CID>
EN300-107185

> <SMILES>
Cc1ccncc1NC(=O)Cc2cc(cc(c2)Cl)Oc3ccc(c(c3)C#N)CBr

> <RUN>
RUN3171

> <DDG (kcal/mol)>
-0.42

> <dDDG (kcal/mol)>
0.14

$$$$
EN300-269986
  -OEChem-08252008263D

 46 48  0     0  0  0  0  0  0999 V2000
    4.9440    1.6720   26.0080 C   0  0  0  0  0  0  0  0  0  0  0  0
    6.9280    2.0570   19.7880 C   0  0  0  0  0  0  0  0  0  0  0  0
    6.4840   -0.0610   26.7350 C   0  0  0  0  0  0  0  0  0  0  0  0
    9.9950   -1.8650   23.5260 C   0  0  0  0  0  0  0  0  0  0  0  0
    8.5500    1.3520   25.7140 C   0  0  0  0  0  0  0  0  0  0  0  0
   11.4760   -2.3660   21.6800 C   0  0  0  0  0  0  0  0  0  0  0  0
   12.1420   -0.7610   23.2440 C   0  0  0  0  0  0  0  0  0  0  0  0
    6.7000    1.7560   18.4030 C   0  0  0  0  0  0  0  0  0  0  0  0
    7.7110   -0.3410   18.5810 C   0  0  0  0  0  0  0  0  0  0  0  0
    6.2670    1.1340   26.0750 C   0  0  0  0  0  0  0  0  0  0  0  0
    7.6650    1.1310   20.5630 C   0  0  0  0  0  0  0  0  0  0  0  0
   10.2380   -2.5890   22.3640 C   0  0  0  0  0  0  0  0  0  0  0  0
    8.7580    0.0910   26.1860 C   0  0  0  0  0  0  0  0  0  0  0  0
    7.9990   -0.1270   19.9750 C   0  0  0  0  0  0  0  0  0  0  0  0
   10.9920   -0.9960   23.9950 C   0  0  0  0  0  0  0  0  0  0  0  0
    7.7050   -0.6430   26.7690 C   0  0  0  0  0  0  0  0  0  0  0  0
    7.3070    1.8870   25.6950 C   0  0  0  0  0  0  0  0  0  0  0  0
   12.4230   -1.4400   22.0970 C   0  0  0  0  0  0  0  0  0  0  0  0
    8.5460   -2.4590   20.6440 C   0  0  0  0  0  0  0  0  0  0  0  0
    8.0990    1.3170   21.9700 C   0  0  0  0  0  0  0  0  0  0  0  0
    9.1410   -3.3490   21.7180 C   0  0  0  0  0  0  0  0  0  0  0  0
   10.1090   -0.5830   26.2170 C   0  0  0  0  0  0  0  0  0  0  0  0
    3.8790    2.1280   25.8550 N   0  0  0  0  0  0  0  0  0  0  0  0
    7.0940    0.5920   17.8130 N   0  0  0  0  0  0  0  0  0  0  0  0
    8.6790   -1.0580   20.7310 N   0  0  0  0  0  0  0  0  0  0  0  0
    7.6420   -2.9320   19.9230 O   0  0  0  0  0  0  0  0  0  0  0  0
   10.8950   -0.2550   25.0940 O   0  0  0  0  0  0  0  0  0  0  0  0
    7.8630   -1.8870   27.3650 F   0  0  0  0  0  0  0  0  0  0  0  0
    7.1930    3.2130   25.3690 F   0  0  0  0  0  0  0  0  0  0  0  0
   13.9820   -1.2970   21.2950 Cl  0  0  0  0  0  0  0  0  0  0  0  0
    6.5310    2.9680   20.2090 H   0  0  0  0  0  0  0  0  0  0  0  0
    5.6050   -0.3930   27.2860 H   0  0  0  0  0  0  0  0  0  0  0  0
    9.0940   -2.0020   24.1090 H   0  0  0  0  0  0  0  0  0  0  0  0
    9.3890    1.9340   25.3210 H   0  0  0  0  0  0  0  0  0  0  0  0
   11.5550   -2.8730   20.7180 H   0  0  0  0  0  0  0  0  0  0  0  0
   12.9250   -0.0930   23.5670 H   0  0  0  0  0  0  0  0  0  0  0  0
    6.1030    2.5640   18.0030 H   0  0  0  0  0  0  0  0  0  0  0  0
    7.9260   -1.2950   18.1100 H   0  0  0  0  0  0  0  0  0  0  0  0
    7.7010    2.2880   22.2970 H   0  0  0  0  0  0  0  0  0  0  0  0
    7.7010    0.4460   22.5100 H   0  0  0  0  0  0  0  0  0  0  0  0
    9.1740    1.2130   22.1200 H   0  0  0  0  0  0  0  0  0  0  0  0
    9.5660   -4.2090   21.1910 H   0  0  0  0  0  0  0  0  0  0  0  0
    8.3770   -3.6100   22.4560 H   0  0  0  0  0  0  0  0  0  0  0  0
   10.6740   -0.1840   27.0600 H   0  0  0  0  0  0  0  0  0  0  0  0
   10.2130   -1.6690   26.2380 H   0  0  0  0  0  0  0  0  0  0  0  0
    9.1620   -0.8120   21.5900 H   0  0  0  0  0  0  0  0  0  0  0  0
  8 24  2  0  0  0  0
  9 24  1  0  0  0  0
  8 37  1  0  0  0  0
  9 38  1  0  0  0  0
  2  8  1  0  0  0  0
  9 14  2  0  0  0  0
  2 31  1  0  0  0  0
  2 11  2  0  0  0  0
 19 26  2  0  0  0  0
 11 14  1  0  0  0  0
 14 25  1  0  0  0  0
 11 20  1  0  0  0  0
 19 25  1  0  0  0  0
 19 21  1  0  0  0  0
  6 35  1  0  0  0  0
 25 46  1  0  0  0  0
 21 42  1  0  0  0  0
 18 30  1  0  0  0  0
  6 18  2  0  0  0  0
  6 12  1  0  0  0  0
 12 21  1  0  0  0  0
 21 43  1  0  0  0  0
 20 41  1  0  0  0  0
 20 39  1  0  0  0  0
 20 40  1  0  0  0  0
  7 18  1  0  0  0  0
  4 12  2  0  0  0  0
  7 36  1  0  0  0  0
  7 15  2  0  0  0  0
  4 15  1  0  0  0  0
  4 33  1  0  0  0  0
 15 27  1  0  0  0  0
 22 27  1  0  0  0  0
  5 34  1  0  0  0  0
 17 29  1  0  0  0  0
  5 17  2  0  0  0  0
 10 17  1  0  0  0  0
  5 13  1  0  0  0  0
  1 23  3  0  0  0  0
  1 10  1  0  0  0  0
  3 10  2  0  0  0  0
 13 22  1  0  0  0  0
 13 16  2  0  0  0  0
 22 45  1  0  0  0  0
 22 44  1  0  0  0  0
  3 16  1  0  0  0  0
  3 32  1  0  0  0  0
 16 28  1  0  0  0  0
M  END
> <CID>
EN300-269986

> <SMILES>
Cc1ccncc1NC(=O)Cc2cc(cc(c2)Cl)OCc3cc(c(cc3F)C#N)F

> <RUN>
RUN4230

> <DDG (kcal/mol)>
-0.41

> <dDDG (kcal/mol)>
0.13

$$$$
EN300-1927497
  -OEChem-08252008263D

 56 58  0     1  0  0  0  0  0999 V2000
    4.2610    1.8050   18.9150 C   0  0  0  0  0  0  0  0  0  0  0  0
   12.8290    7.3700   24.2030 C   0  0  0  0  0  0  0  0  0  0  0  0
   11.8260    5.2810   24.7140 C   0  0  0  0  0  0  0  0  0  0  0  0
   11.3430    1.6860   22.6810 C   0  0  0  0  0  0  0  0  0  0  0  0
   11.2720   -0.6140   21.9970 C   0  0  0  0  0  0  0  0  0  0  0  0
   13.4100    0.6150   22.0480 C   0  0  0  0  0  0  0  0  0  0  0  0
    4.7630    1.0760   17.7840 C   0  0  0  0  0  0  0  0  0  0  0  0
    6.6700    0.5660   18.8960 C   0  0  0  0  0  0  0  0  0  0  0  0
    4.9920    1.8070   20.0440 C   0  0  0  0  0  0  0  0  0  0  0  0
   12.7190    6.0390   23.9420 C   0  0  0  0  0  0  0  0  0  0  0  0
   12.0130    7.9940   25.1550 C   0  0  0  0  0  0  0  0  0  0  0  0
   10.9560    5.8680   25.6760 C   0  0  0  0  0  0  0  0  0  0  0  0
   10.5900    0.5070   22.4120 C   0  0  0  0  0  0  0  0  0  0  0  0
    6.1760    1.0770   20.0560 C   0  0  0  0  0  0  0  0  0  0  0  0
   12.7260    1.7490   22.4920 C   0  0  0  0  0  0  0  0  0  0  0  0
   11.0820    7.2600   25.8820 C   0  0  0  0  0  0  0  0  0  0  0  0
   12.6810   -0.5600   21.8380 C   0  0  0  0  0  0  0  0  0  0  0  0
    8.2690    1.1290   21.3690 C   0  0  0  0  0  0  0  0  0  0  0  0
    4.3940    2.4480   21.3100 C   0  0  0  0  0  0  0  0  0  0  0  0
   12.2080    9.4790   25.4240 C   0  0  0  0  0  0  0  0  0  0  0  0
    9.9610    5.0570   26.3990 C   0  0  0  0  0  0  0  0  0  0  0  0
    9.1260    0.4930   22.4890 C   0  0  0  0  0  0  0  0  0  0  0  0
   13.0290    4.1730   22.2470 C   0  0  0  0  0  0  0  0  0  0  0  0
   13.6050    5.4530   22.8620 C   0  0  2  0  0  0  0  0  0  0  0  0
    5.9280    0.4940   17.7570 N   0  0  0  0  0  0  0  0  0  0  0  0
    6.9210    0.9400   21.2420 N   0  0  0  0  0  0  0  0  0  0  0  0
    8.9300    1.5980   20.4320 O   0  0  0  0  0  0  0  0  0  0  0  0
   10.2060    7.8210   26.7890 O   0  0  0  0  0  0  0  0  0  0  0  0
   14.9030    5.2670   23.3670 O   0  0  0  0  0  0  0  0  0  0  0  0
   13.4130    2.9220   22.8850 O   0  0  0  0  0  0  0  0  0  0  0  0
   13.5680   -2.0120   21.3890 Cl  0  0  0  0  0  0  0  0  0  0  0  0
    3.3200    2.3260   18.8260 H   0  0  0  0  0  0  0  0  0  0  0  0
   13.5550    8.0150   23.7230 H   0  0  0  0  0  0  0  0  0  0  0  0
   11.8000    4.2020   24.6210 H   0  0  0  0  0  0  0  0  0  0  0  0
   10.7600    2.5500   23.0030 H   0  0  0  0  0  0  0  0  0  0  0  0
   10.8120   -1.5850   21.8890 H   0  0  0  0  0  0  0  0  0  0  0  0
   14.4730    0.7550   21.9050 H   0  0  0  0  0  0  0  0  0  0  0  0
    4.2250    1.1790   16.8480 H   0  0  0  0  0  0  0  0  0  0  0  0
    7.6760    0.1600   18.9260 H   0  0  0  0  0  0  0  0  0  0  0  0
    4.1590    1.6910   22.0630 H   0  0  0  0  0  0  0  0  0  0  0  0
    5.0670    3.2690   21.5840 H   0  0  0  0  0  0  0  0  0  0  0  0
    3.4210    2.8680   21.0490 H   0  0  0  0  0  0  0  0  0  0  0  0
   12.7270    9.6680   26.3690 H   0  0  0  0  0  0  0  0  0  0  0  0
   12.7940    9.8930   24.6010 H   0  0  0  0  0  0  0  0  0  0  0  0
   11.2200    9.9540   25.4710 H   0  0  0  0  0  0  0  0  0  0  0  0
   10.2000    3.9900   26.3260 H   0  0  0  0  0  0  0  0  0  0  0  0
   10.0010    5.2350   27.4760 H   0  0  0  0  0  0  0  0  0  0  0  0
    8.9700    5.0670   25.9430 H   0  0  0  0  0  0  0  0  0  0  0  0
    8.7980   -0.5420   22.6330 H   0  0  0  0  0  0  0  0  0  0  0  0
    8.8360    0.9970   23.4110 H   0  0  0  0  0  0  0  0  0  0  0  0
   11.9540    4.3150   22.1180 H   0  0  0  0  0  0  0  0  0  0  0  0
   13.3410    4.0200   21.2040 H   0  0  0  0  0  0  0  0  0  0  0  0
   13.6090    6.1940   22.0590 H   0  0  0  0  0  0  0  0  0  0  0  0
    6.4520    1.1220   22.1240 H   0  0  0  0  0  0  0  0  0  0  0  0
    9.7850    8.6330   26.4400 H   0  0  0  0  0  0  0  0  0  0  0  0
   14.9350    4.3530   23.7040 H   0  0  0  0  0  0  0  0  0  0  0  0
  7 38  1  0  0  0  0
  7 25  2  0  0  0  0
  8 25  1  0  0  0  0
  1  7  1  0  0  0  0
  1 32  1  0  0  0  0
  8 39  1  0  0  0  0
  8 14  2  0  0  0  0
  1  9  2  0  0  0  0
  9 14  1  0  0  0  0
  9 19  1  0  0  0  0
 14 26  1  0  0  0  0
 18 27  2  0  0  0  0
 19 42  1  0  0  0  0
 23 52  1  0  0  0  0
 18 26  1  0  0  0  0
 26 54  1  0  0  0  0
 19 41  1  0  0  0  0
 19 40  1  0  0  0  0
 18 22  1  0  0  0  0
 17 31  1  0  0  0  0
  5 17  2  0  0  0  0
  6 17  1  0  0  0  0
  5 36  1  0  0  0  0
  6 37  1  0  0  0  0
  5 13  1  0  0  0  0
  6 15  2  0  0  0  0
 24 53  1  0  0  0  0
 23 51  1  0  0  0  0
 23 24  1  0  0  0  0
 23 30  1  0  0  0  0
 13 22  1  0  0  0  0
  4 13  2  0  0  0  0
 22 49  1  0  0  0  0
 22 50  1  0  0  0  0
  4 15  1  0  0  0  0
 15 30  1  0  0  0  0
  4 35  1  0  0  0  0
 24 29  1  0  0  0  0
 10 24  1  0  0  0  0
 29 56  1  0  0  0  0
  2 33  1  0  0  0  0
  2 10  2  0  0  0  0
  3 10  1  0  0  0  0
  2 11  1  0  0  0  0
 20 44  1  0  0  0  0
  3 34  1  0  0  0  0
  3 12  2  0  0  0  0
 11 20  1  0  0  0  0
 11 16  2  0  0  0  0
 20 45  1  0  0  0  0
 20 43  1  0  0  0  0
 12 16  1  0  0  0  0
 12 21  1  0  0  0  0
 16 28  1  0  0  0  0
 21 48  1  0  0  0  0
 21 46  1  0  0  0  0
 21 47  1  0  0  0  0
 28 55  1  0  0  0  0
M  END
> <CID>
EN300-1927497

> <SMILES>
Cc1ccncc1NC(=O)Cc2cc(cc(c2)Cl)OC[C@@H](c3cc(c(c(c3)C)O)C)O

> <RUN>
RUN3223

> <DDG (kcal/mol)>
-0.41

> <dDDG (kcal/mol)>
0.18

$$$$
EN300-87674
  -OEChem-08252008263D

 55 58  0     1  0  0  0  0  0999 V2000
   -0.1250    2.2310   23.7520 C   0  0  0  0  0  0  0  0  0  0  0  0
    0.4210    1.3540   24.5690 C   0  0  0  0  0  0  0  0  0  0  0  0
    4.0550    4.6440   23.5340 C   0  0  0  0  0  0  0  0  0  0  0  0
    0.6400    3.2860   23.3260 C   0  0  0  0  0  0  0  0  0  0  0  0
    1.7940    1.4240   24.9750 C   0  0  0  0  0  0  0  0  0  0  0  0
    2.7710    4.4690   23.2240 C   0  0  0  0  0  0  0  0  0  0  0  0
    4.6420    3.6980   24.3750 C   0  0  0  0  0  0  0  0  0  0  0  0
    4.7700    2.8180   18.3860 C   0  0  0  0  0  0  0  0  0  0  0  0
    7.7680   -0.1300   23.2150 C   0  0  0  0  0  0  0  0  0  0  0  0
    9.8150    0.2150   22.2010 C   0  0  0  0  0  0  0  0  0  0  0  0
    9.0880    1.7480   23.9320 C   0  0  0  0  0  0  0  0  0  0  0  0
    5.0150    2.3470   17.0670 C   0  0  0  0  0  0  0  0  0  0  0  0
    6.2520    0.5940   17.8660 C   0  0  0  0  0  0  0  0  0  0  0  0
    2.0030    3.4450   23.7000 C   0  0  0  0  0  0  0  0  0  0  0  0
    2.5810    2.4790   24.5200 C   0  0  0  0  0  0  0  0  0  0  0  0
    3.9640    2.5980   24.9060 C   0  0  0  0  0  0  0  0  0  0  0  0
    5.3640    2.1770   19.3790 C   0  0  0  0  0  0  0  0  0  0  0  0
    8.5810   -0.4520   22.1360 C   0  0  0  0  0  0  0  0  0  0  0  0
    6.0600    1.0040   19.1290 C   0  0  0  0  0  0  0  0  0  0  0  0
    7.8770    1.0160   24.0710 C   0  0  0  0  0  0  0  0  0  0  0  0
   10.0460    1.2740   23.0640 C   0  0  0  0  0  0  0  0  0  0  0  0
    6.9810   -0.9890   20.2010 C   0  0  0  0  0  0  0  0  0  0  0  0
    5.0070    2.5870   20.7450 C   0  0  0  0  0  0  0  0  0  0  0  0
    8.0730   -1.4800   21.1510 C   0  0  0  0  0  0  0  0  0  0  0  0
    5.7620    0.7440   25.2500 C   0  0  0  0  0  0  0  0  0  0  0  0
    4.6270    1.5970   25.8510 C   0  0  1  0  0  0  0  0  0  0  0  0
    5.7610    1.2460   16.8170 N   0  0  0  0  0  0  0  0  0  0  0  0
    6.5900    0.3250   20.2400 N   0  0  0  0  0  0  0  0  0  0  0  0
    6.3040   -1.8100   19.5730 O   0  0  0  0  0  0  0  0  0  0  0  0
    5.1060    2.4550   26.8900 O   0  0  0  0  0  0  0  0  0  0  0  0
    6.9680    1.5020   24.9810 O   0  0  0  0  0  0  0  0  0  0  0  0
   11.5210    2.0780   22.7840 Cl  0  0  0  0  0  0  0  0  0  0  0  0
   -1.1750    2.2120   23.4880 H   0  0  0  0  0  0  0  0  0  0  0  0
   -0.2820    0.6400   24.9890 H   0  0  0  0  0  0  0  0  0  0  0  0
    4.6800    5.4890   23.2280 H   0  0  0  0  0  0  0  0  0  0  0  0
    0.1790    4.0500   22.7060 H   0  0  0  0  0  0  0  0  0  0  0  0
    2.0710    0.6690   25.7080 H   0  0  0  0  0  0  0  0  0  0  0  0
    2.2920    5.1910   22.5650 H   0  0  0  0  0  0  0  0  0  0  0  0
    5.7020    3.7670   24.5980 H   0  0  0  0  0  0  0  0  0  0  0  0
    4.1450    3.6990   18.4970 H   0  0  0  0  0  0  0  0  0  0  0  0
    6.8680   -0.7470   23.2830 H   0  0  0  0  0  0  0  0  0  0  0  0
   10.6570   -0.0440   21.5720 H   0  0  0  0  0  0  0  0  0  0  0  0
    9.1830    2.6370   24.5540 H   0  0  0  0  0  0  0  0  0  0  0  0
    4.6490    2.8860   16.1960 H   0  0  0  0  0  0  0  0  0  0  0  0
    6.8770   -0.2870   17.7550 H   0  0  0  0  0  0  0  0  0  0  0  0
    5.4580    1.9980   21.5500 H   0  0  0  0  0  0  0  0  0  0  0  0
    5.2980    3.6280   20.9000 H   0  0  0  0  0  0  0  0  0  0  0  0
    3.9230    2.4580   20.8830 H   0  0  0  0  0  0  0  0  0  0  0  0
    8.9640   -1.8260   20.6170 H   0  0  0  0  0  0  0  0  0  0  0  0
    7.6080   -2.3060   21.7030 H   0  0  0  0  0  0  0  0  0  0  0  0
    6.1290    0.0000   25.9660 H   0  0  0  0  0  0  0  0  0  0  0  0
    5.4600    0.1140   24.4130 H   0  0  0  0  0  0  0  0  0  0  0  0
    3.8820    0.9430   26.3070 H   0  0  0  0  0  0  0  0  0  0  0  0
    7.2250    0.8840   20.7930 H   0  0  0  0  0  0  0  0  0  0  0  0
    5.9180    2.9150   26.6120 H   0  0  0  0  0  0  0  0  0  0  0  0
 12 44  1  0  0  0  0
 12 27  2  0  0  0  0
 13 27  1  0  0  0  0
  8 12  1  0  0  0  0
 13 45  1  0  0  0  0
 13 19  2  0  0  0  0
  8 40  1  0  0  0  0
  8 17  2  0  0  0  0
 17 19  1  0  0  0  0
 19 28  1  0  0  0  0
 17 23  1  0  0  0  0
 22 29  2  0  0  0  0
 22 28  1  0  0  0  0
 22 24  1  0  0  0  0
 28 54  1  0  0  0  0
 24 49  1  0  0  0  0
 23 48  1  0  0  0  0
 23 47  1  0  0  0  0
 23 46  1  0  0  0  0
 24 50  1  0  0  0  0
 18 24  1  0  0  0  0
 10 42  1  0  0  0  0
 10 18  2  0  0  0  0
  9 18  1  0  0  0  0
 10 21  1  0  0  0  0
  6 38  1  0  0  0  0
  4 36  1  0  0  0  0
 21 32  1  0  0  0  0
 11 21  2  0  0  0  0
  9 41  1  0  0  0  0
  9 20  2  0  0  0  0
  3  6  2  0  0  0  0
  6 14  1  0  0  0  0
  3 35  1  0  0  0  0
  4 14  2  0  0  0  0
  1  4  1  0  0  0  0
  1 33  1  0  0  0  0
  3  7  1  0  0  0  0
 14 15  1  0  0  0  0
  1  2  2  0  0  0  0
 11 20  1  0  0  0  0
 11 43  1  0  0  0  0
 20 31  1  0  0  0  0
  7 39  1  0  0  0  0
  7 16  2  0  0  0  0
 25 52  1  0  0  0  0
 15 16  1  0  0  0  0
  5 15  2  0  0  0  0
  2  5  1  0  0  0  0
  2 34  1  0  0  0  0
 16 26  1  0  0  0  0
  5 37  1  0  0  0  0
 25 31  1  0  0  0  0
 25 26  1  0  0  0  0
 25 51  1  0  0  0  0
 26 53  1  0  0  0  0
 26 30  1  0  0  0  0
 30 55  1  0  0  0  0
M  END
> <CID>
EN300-87674

> <SMILES>
Cc1ccncc1NC(=O)Cc2cc(cc(c2)Cl)OC[C@H](c3cccc4c3cccc4)O

> <RUN>
RUN3047

> <DDG (kcal/mol)>
-0.40

> <dDDG (kcal/mol)>
0.15

$$$$
EN300-7425216
  -OEChem-08252008263D

 47 49  0     0  0  0  0  0  0999 V2000
   10.6580   -3.5670   26.9820 C   0  0  0  0  0  0  0  0  0  0  0  0
    9.4890   -3.8380   27.7240 C   0  0  0  0  0  0  0  0  0  0  0  0
    6.4230    1.5120   19.2200 C   0  0  0  0  0  0  0  0  0  0  0  0
   10.2390   -2.4940   23.8810 C   0  0  0  0  0  0  0  0  0  0  0  0
   11.1330   -2.8810   21.7220 C   0  0  0  0  0  0  0  0  0  0  0  0
   12.5960   -2.2660   23.5210 C   0  0  0  0  0  0  0  0  0  0  0  0
    6.2000    0.9440   17.9830 C   0  0  0  0  0  0  0  0  0  0  0  0
    7.3050   -0.9620   18.6280 C   0  0  0  0  0  0  0  0  0  0  0  0
    7.1450    0.8160   20.1590 C   0  0  0  0  0  0  0  0  0  0  0  0
   10.0300   -2.9100   22.5530 C   0  0  0  0  0  0  0  0  0  0  0  0
    7.4570   -0.5090   19.9090 C   0  0  0  0  0  0  0  0  0  0  0  0
   10.8720   -2.2410   26.6310 C   0  0  0  0  0  0  0  0  0  0  0  0
   11.5120   -2.1860   24.3850 C   0  0  0  0  0  0  0  0  0  0  0  0
   12.3890   -2.4980   22.1570 C   0  0  0  0  0  0  0  0  0  0  0  0
    8.7450   -2.8930   28.3460 C   0  0  0  0  0  0  0  0  0  0  0  0
    9.9880   -1.2050   27.2180 C   0  0  0  0  0  0  0  0  0  0  0  0
    8.0100   -2.7410   20.9810 C   0  0  0  0  0  0  0  0  0  0  0  0
    7.5450    1.4600   21.4690 C   0  0  0  0  0  0  0  0  0  0  0  0
    7.5100   -3.2850   29.1430 C   0  0  0  0  0  0  0  0  0  0  0  0
    8.7010   -3.5410   22.0520 C   0  0  0  0  0  0  0  0  0  0  0  0
   10.2400    0.2710   27.0530 C   0  0  0  0  0  0  0  0  0  0  0  0
    6.6830   -0.2690   17.6520 N   0  0  0  0  0  0  0  0  0  0  0  0
    8.9290   -1.6220   27.9790 N   0  0  0  0  0  0  0  0  0  0  0  0
    8.0460   -1.3390   20.9320 N   0  0  0  0  0  0  0  0  0  0  0  0
    7.1890   -3.2770   20.2490 O   0  0  0  0  0  0  0  0  0  0  0  0
   11.8510   -1.8880   25.6940 O   0  0  0  0  0  0  0  0  0  0  0  0
   13.7080   -2.4550   21.0920 Cl  0  0  0  0  0  0  0  0  0  0  0  0
   10.7600    1.1380   28.8470 Br  0  0  0  0  0  0  0  0  0  0  0  0
   11.1920   -4.4310   26.5800 H   0  0  0  0  0  0  0  0  0  0  0  0
    9.3300   -4.8640   28.0160 H   0  0  0  0  0  0  0  0  0  0  0  0
    6.1100    2.5140   19.5010 H   0  0  0  0  0  0  0  0  0  0  0  0
    9.3580   -2.3820   24.5180 H   0  0  0  0  0  0  0  0  0  0  0  0
   10.9730   -3.2480   20.7200 H   0  0  0  0  0  0  0  0  0  0  0  0
   13.5760   -2.0160   23.8930 H   0  0  0  0  0  0  0  0  0  0  0  0
    5.5050    1.4740   17.3440 H   0  0  0  0  0  0  0  0  0  0  0  0
    7.6200   -1.9530   18.3030 H   0  0  0  0  0  0  0  0  0  0  0  0
    6.8380    1.3350   22.2900 H   0  0  0  0  0  0  0  0  0  0  0  0
    8.5600    1.1100   21.6920 H   0  0  0  0  0  0  0  0  0  0  0  0
    7.5870    2.5160   21.2080 H   0  0  0  0  0  0  0  0  0  0  0  0
    7.0960   -2.3990   29.6360 H   0  0  0  0  0  0  0  0  0  0  0  0
    6.6470   -3.6810   28.6050 H   0  0  0  0  0  0  0  0  0  0  0  0
    7.7580   -4.0500   29.8920 H   0  0  0  0  0  0  0  0  0  0  0  0
    8.8670   -4.5450   21.6670 H   0  0  0  0  0  0  0  0  0  0  0  0
    8.0530   -3.6710   22.9220 H   0  0  0  0  0  0  0  0  0  0  0  0
   11.0370    0.5140   26.3530 H   0  0  0  0  0  0  0  0  0  0  0  0
    9.3640    0.7440   26.6050 H   0  0  0  0  0  0  0  0  0  0  0  0
    8.5260   -0.9400   21.7410 H   0  0  0  0  0  0  0  0  0  0  0  0
  7 35  1  0  0  0  0
  7 22  2  0  0  0  0
  8 22  1  0  0  0  0
  3  7  1  0  0  0  0
  8 36  1  0  0  0  0
  8 11  2  0  0  0  0
  3 31  1  0  0  0  0
  3  9  2  0  0  0  0
  9 11  1  0  0  0  0
 11 24  1  0  0  0  0
  9 18  1  0  0  0  0
 17 25  2  0  0  0  0
  5 33  1  0  0  0  0
 17 24  1  0  0  0  0
 24 47  1  0  0  0  0
 17 20  1  0  0  0  0
 14 27  1  0  0  0  0
 18 39  1  0  0  0  0
 18 38  1  0  0  0  0
 18 37  1  0  0  0  0
 20 43  1  0  0  0  0
  5 14  2  0  0  0  0
  5 10  1  0  0  0  0
 10 20  1  0  0  0  0
 20 44  1  0  0  0  0
  6 14  1  0  0  0  0
  4 10  2  0  0  0  0
  6 34  1  0  0  0  0
  6 13  2  0  0  0  0
  4 13  1  0  0  0  0
  4 32  1  0  0  0  0
 13 26  1  0  0  0  0
 12 26  1  0  0  0  0
 21 45  1  0  0  0  0
  1 29  1  0  0  0  0
 21 46  1  0  0  0  0
  1 12  2  0  0  0  0
 12 16  1  0  0  0  0
  1  2  1  0  0  0  0
 16 21  1  0  0  0  0
 21 28  1  0  0  0  0
 16 23  2  0  0  0  0
  2 30  1  0  0  0  0
  2 15  2  0  0  0  0
 15 23  1  0  0  0  0
 15 19  1  0  0  0  0
 19 41  1  0  0  0  0
 19 40  1  0  0  0  0
 19 42  1  0  0  0  0
M  END
> <CID>
EN300-7425216

> <SMILES>
Cc1ccncc1NC(=O)Cc2cc(cc(c2)Cl)Oc3ccc(nc3CBr)C

> <RUN>
RUN2873

> <DDG (kcal/mol)>
-0.39

> <dDDG (kcal/mol)>
0.12

$$$$
EN300-1274638
  -OEChem-08252008263D

 59 62  0     1  0  0  0  0  0999 V2000
   12.5210    0.3970   27.0200 C   0  0  0  0  0  0  0  0  0  0  0  0
   12.8270    2.3920   25.7250 C   0  0  0  0  0  0  0  0  0  0  0  0
   13.3260   -0.2990   26.0960 C   0  0  0  0  0  0  0  0  0  0  0  0
   13.4910    1.6670   24.7990 C   0  0  0  0  0  0  0  0  0  0  0  0
    5.7880    0.8540   19.0430 C   0  0  0  0  0  0  0  0  0  0  0  0
   12.2780   -1.3660   23.3510 C   0  0  0  0  0  0  0  0  0  0  0  0
   12.3940   -2.8870   21.5040 C   0  0  0  0  0  0  0  0  0  0  0  0
   14.4300   -2.0620   22.4950 C   0  0  0  0  0  0  0  0  0  0  0  0
    6.4850    0.8340   17.7900 C   0  0  0  0  0  0  0  0  0  0  0  0
    8.1890   -0.3400   18.7550 C   0  0  0  0  0  0  0  0  0  0  0  0
    6.3210    0.2740   20.1660 C   0  0  0  0  0  0  0  0  0  0  0  0
   11.6200   -2.1610   22.4110 C   0  0  0  0  0  0  0  0  0  0  0  0
   12.2620    1.8000   26.8430 C   0  0  0  0  0  0  0  0  0  0  0  0
    7.6000   -0.3440   20.0260 C   0  0  0  0  0  0  0  0  0  0  0  0
   13.7600    0.3450   24.9830 C   0  0  0  0  0  0  0  0  0  0  0  0
   13.7600   -1.2830   23.3650 C   0  0  0  0  0  0  0  0  0  0  0  0
   13.8670   -2.8910   21.6100 C   0  0  0  0  0  0  0  0  0  0  0  0
   10.6260    3.5230   27.7150 C   0  0  3  0  0  0  0  0  0  0  0  0
    9.5430   -1.0840   21.2970 C   0  0  0  0  0  0  0  0  0  0  0  0
    9.2050    5.0710   26.7310 C   0  0  2  0  0  0  0  0  0  0  0  0
    9.3320    5.6780   28.1330 C   0  0  1  0  0  0  0  0  0  0  0  0
    5.6190    0.4190   21.5650 C   0  0  0  0  0  0  0  0  0  0  0  0
    7.8630    4.4170   26.3110 C   0  0  0  0  0  0  0  0  0  0  0  0
   10.0800   -2.1590   22.2280 C   0  0  0  0  0  0  0  0  0  0  0  0
    7.9750    6.0060   28.7030 C   0  0  0  0  0  0  0  0  0  0  0  0
    7.6720    0.1960   17.6600 N   0  0  0  0  0  0  0  0  0  0  0  0
   10.0940    3.9290   26.6420 N   0  0  0  0  0  0  0  0  0  0  0  0
   11.4600    2.4100   27.8330 N   0  0  0  0  0  0  0  0  0  0  0  0
    8.2110   -1.0440   21.0930 N   0  0  0  0  0  0  0  0  0  0  0  0
   10.2520   -0.1660   20.8690 O   0  0  0  0  0  0  0  0  0  0  0  0
   14.4790   -0.3240   24.0180 O   0  0  0  0  0  0  0  0  0  0  0  0
   10.1330    4.3570   29.1710 S   0  0  0  0  0  0  0  0  0  0  0  0
   14.8150   -3.7910   20.4700 Cl  0  0  0  0  0  0  0  0  0  0  0  0
    8.0550    7.0410   30.3950 Br  0  0  0  0  0  0  0  0  0  0  0  0
   12.1480   -0.1050   27.9120 H   0  0  0  0  0  0  0  0  0  0  0  0
   12.6000    3.3990   25.3840 H   0  0  0  0  0  0  0  0  0  0  0  0
   13.4950   -1.3630   26.2410 H   0  0  0  0  0  0  0  0  0  0  0  0
   13.9100    2.1900   23.9410 H   0  0  0  0  0  0  0  0  0  0  0  0
    4.8250    1.3310   19.2190 H   0  0  0  0  0  0  0  0  0  0  0  0
   11.7320   -0.7570   24.0640 H   0  0  0  0  0  0  0  0  0  0  0  0
   12.0420   -3.5630   20.7360 H   0  0  0  0  0  0  0  0  0  0  0  0
   15.5100   -2.0030   22.4260 H   0  0  0  0  0  0  0  0  0  0  0  0
    6.0680    1.4700   17.0120 H   0  0  0  0  0  0  0  0  0  0  0  0
    9.2000   -0.7300   18.6270 H   0  0  0  0  0  0  0  0  0  0  0  0
    9.3200    5.8670   25.9930 H   0  0  0  0  0  0  0  0  0  0  0  0
    9.9850    6.5540   28.0970 H   0  0  0  0  0  0  0  0  0  0  0  0
    6.2960    0.7730   22.3560 H   0  0  0  0  0  0  0  0  0  0  0  0
    4.7960    1.1350   21.4950 H   0  0  0  0  0  0  0  0  0  0  0  0
    5.1050   -0.5310   21.7200 H   0  0  0  0  0  0  0  0  0  0  0  0
    7.9460    4.1130   25.2650 H   0  0  0  0  0  0  0  0  0  0  0  0
    6.9700    5.0410   26.2930 H   0  0  0  0  0  0  0  0  0  0  0  0
    7.5470    3.5410   26.8960 H   0  0  0  0  0  0  0  0  0  0  0  0
    9.8710   -3.1350   21.7850 H   0  0  0  0  0  0  0  0  0  0  0  0
    9.5880   -2.1040   23.2040 H   0  0  0  0  0  0  0  0  0  0  0  0
    7.5590    5.0150   28.9360 H   0  0  0  0  0  0  0  0  0  0  0  0
    7.3940    6.6170   28.0120 H   0  0  0  0  0  0  0  0  0  0  0  0
   10.3040    3.4770   25.7510 H   0  0  0  0  0  0  0  0  0  0  0  0
   11.4570    2.0350   28.7840 H   0  0  0  0  0  0  0  0  0  0  0  0
    7.6340   -1.6590   21.6730 H   0  0  0  0  0  0  0  0  0  0  0  0
  9 43  1  0  0  0  0
  9 26  2  0  0  0  0
 10 26  1  0  0  0  0
  5  9  1  0  0  0  0
 10 44  1  0  0  0  0
 10 14  2  0  0  0  0
  5 39  1  0  0  0  0
  5 11  2  0  0  0  0
 11 14  1  0  0  0  0
 14 29  1  0  0  0  0
 11 22  1  0  0  0  0
 17 33  1  0  0  0  0
  7 41  1  0  0  0  0
 19 30  2  0  0  0  0
 19 29  1  0  0  0  0
 29 59  1  0  0  0  0
 19 24  1  0  0  0  0
 22 48  1  0  0  0  0
  7 17  2  0  0  0  0
  7 12  1  0  0  0  0
 22 49  1  0  0  0  0
 22 47  1  0  0  0  0
  8 17  1  0  0  0  0
 24 53  1  0  0  0  0
 12 24  1  0  0  0  0
 24 54  1  0  0  0  0
  6 12  2  0  0  0  0
  8 42  1  0  0  0  0
  8 16  2  0  0  0  0
  6 16  1  0  0  0  0
  6 40  1  0  0  0  0
 16 31  1  0  0  0  0
  4 38  1  0  0  0  0
 15 31  1  0  0  0  0
  4 15  2  0  0  0  0
  2  4  1  0  0  0  0
  3 15  1  0  0  0  0
 23 50  1  0  0  0  0
  2 36  1  0  0  0  0
  2 13  2  0  0  0  0
 27 57  1  0  0  0  0
 20 45  1  0  0  0  0
  3 37  1  0  0  0  0
  1  3  2  0  0  0  0
 23 51  1  0  0  0  0
 20 23  1  0  0  0  0
 23 52  1  0  0  0  0
 20 27  1  0  0  0  0
 18 27  1  0  0  0  0
 20 21  1  0  0  0  0
  1 13  1  0  0  0  0
 13 28  1  0  0  0  0
  1 35  1  0  0  0  0
 18 28  1  0  0  0  0
 18 32  1  0  0  0  0
 28 58  1  0  0  0  0
 25 56  1  0  0  0  0
 21 46  1  0  0  0  0
 21 25  1  0  0  0  0
 21 32  1  0  0  0  0
 25 55  1  0  0  0  0
 25 34  1  0  0  0  0
M  END
> <CID>
EN300-1274638

> <SMILES>
Cc1ccncc1NC(=O)Cc2cc(cc(c2)Cl)Oc3ccc(cc3)NC4=[NH+][C@H]([C@H](S4)CBr)C

> <RUN>
RUN3760

> <DDG (kcal/mol)>
-0.38

> <dDDG (kcal/mol)>
0.16

$$$$
EN300-1896632
  -OEChem-08252008263D

 47 49  0     0  0  0  0  0  0999 V2000
    6.4440    1.6530   20.0100 C   0  0  0  0  0  0  0  0  0  0  0  0
   11.7700    0.7160   23.3060 C   0  0  0  0  0  0  0  0  0  0  0  0
   13.7090    5.2740   24.4560 C   0  0  0  0  0  0  0  0  0  0  0  0
   12.3670   -1.3530   22.2710 C   0  0  0  0  0  0  0  0  0  0  0  0
   13.5930    7.1500   22.4370 C   0  0  0  0  0  0  0  0  0  0  0  0
   13.8130    0.5150   22.1160 C   0  0  0  0  0  0  0  0  0  0  0  0
    6.3110    0.6640   19.0940 C   0  0  0  0  0  0  0  0  0  0  0  0
    7.5060   -0.8570   20.3170 C   0  0  0  0  0  0  0  0  0  0  0  0
    7.2720    1.4410   21.1240 C   0  0  0  0  0  0  0  0  0  0  0  0
   11.4990   -0.6430   23.0990 C   0  0  0  0  0  0  0  0  0  0  0  0
   13.9780    4.8570   23.1560 C   0  0  0  0  0  0  0  0  0  0  0  0
   13.3690    7.5440   23.7490 C   0  0  0  0  0  0  0  0  0  0  0  0
    7.8230    0.1710   21.2670 C   0  0  0  0  0  0  0  0  0  0  0  0
   12.9370    1.3100   22.7920 C   0  0  0  0  0  0  0  0  0  0  0  0
   13.3800    6.5920   24.7470 C   0  0  0  0  0  0  0  0  0  0  0  0
   13.8980    5.8300   22.1030 C   0  0  0  0  0  0  0  0  0  0  0  0
   13.5330   -0.8030   21.6810 C   0  0  0  0  0  0  0  0  0  0  0  0
    9.0820   -1.2520   22.7930 C   0  0  0  0  0  0  0  0  0  0  0  0
    7.6910    2.5850   21.9670 C   0  0  0  0  0  0  0  0  0  0  0  0
   10.2970   -1.3420   23.6580 C   0  0  0  0  0  0  0  0  0  0  0  0
   14.2850    3.3850   22.8140 C   0  0  0  0  0  0  0  0  0  0  0  0
    6.7110   -0.6030   19.2830 N   0  0  0  0  0  0  0  0  0  0  0  0
    8.8130   -0.0580   22.1930 N   0  0  0  0  0  0  0  0  0  0  0  0
   13.1090    8.9430   24.0060 N   0  0  0  0  0  0  0  0  0  0  0  0
    8.2450   -2.1700   22.6530 O   0  0  0  0  0  0  0  0  0  0  0  0
   12.4360    9.2690   24.9990 O   0  0  0  0  0  0  0  0  0  0  0  0
   13.7430    9.7590   23.2610 O   0  0  0  0  0  0  0  0  0  0  0  0
   13.1510    2.6250   23.1080 O   0  0  0  0  0  0  0  0  0  0  0  0
   13.0130    6.8920   25.9610 F   0  0  0  0  0  0  0  0  0  0  0  0
   14.2320    5.5440   20.8770 F   0  0  0  0  0  0  0  0  0  0  0  0
   14.6920   -1.7390   20.8860 Cl  0  0  0  0  0  0  0  0  0  0  0  0
    5.9960    2.6080   19.7480 H   0  0  0  0  0  0  0  0  0  0  0  0
   11.2070    1.3450   23.9830 H   0  0  0  0  0  0  0  0  0  0  0  0
   13.7880    4.6190   25.3150 H   0  0  0  0  0  0  0  0  0  0  0  0
   12.0980   -2.3600   21.9470 H   0  0  0  0  0  0  0  0  0  0  0  0
   13.5360    7.8950   21.6520 H   0  0  0  0  0  0  0  0  0  0  0  0
   14.7350    0.9820   21.7940 H   0  0  0  0  0  0  0  0  0  0  0  0
    5.7280    0.9790   18.2320 H   0  0  0  0  0  0  0  0  0  0  0  0
    7.9850   -1.8300   20.2160 H   0  0  0  0  0  0  0  0  0  0  0  0
    7.5750    2.2480   23.0080 H   0  0  0  0  0  0  0  0  0  0  0  0
    8.7250    2.8910   21.7580 H   0  0  0  0  0  0  0  0  0  0  0  0
    7.0440    3.4580   21.8660 H   0  0  0  0  0  0  0  0  0  0  0  0
   10.5240   -2.3970   23.8040 H   0  0  0  0  0  0  0  0  0  0  0  0
   10.0040   -0.8850   24.6060 H   0  0  0  0  0  0  0  0  0  0  0  0
   14.6050    3.2940   21.7720 H   0  0  0  0  0  0  0  0  0  0  0  0
   15.1430    2.9880   23.3700 H   0  0  0  0  0  0  0  0  0  0  0  0
    9.3370    0.7340   22.5680 H   0  0  0  0  0  0  0  0  0  0  0  0
  7 38  1  0  0  0  0
  7 22  2  0  0  0  0
  1  7  1  0  0  0  0
  8 22  1  0  0  0  0
  1 32  1  0  0  0  0
  1  9  2  0  0  0  0
  8 39  1  0  0  0  0
  8 13  2  0  0  0  0
 16 30  1  0  0  0  0
 17 31  1  0  0  0  0
  9 13  1  0  0  0  0
  9 19  1  0  0  0  0
 13 23  1  0  0  0  0
  5 36  1  0  0  0  0
  6 17  2  0  0  0  0
  4 17  1  0  0  0  0
 19 41  1  0  0  0  0
 21 45  1  0  0  0  0
  6 37  1  0  0  0  0
 19 42  1  0  0  0  0
  4 35  1  0  0  0  0
 19 40  1  0  0  0  0
  5 16  2  0  0  0  0
 11 16  1  0  0  0  0
  6 14  1  0  0  0  0
 23 47  1  0  0  0  0
 18 23  1  0  0  0  0
  4 10  2  0  0  0  0
  5 12  1  0  0  0  0
 18 25  2  0  0  0  0
 14 28  1  0  0  0  0
  2 14  2  0  0  0  0
 18 20  1  0  0  0  0
 21 28  1  0  0  0  0
 11 21  1  0  0  0  0
 21 46  1  0  0  0  0
  2 10  1  0  0  0  0
 10 20  1  0  0  0  0
  3 11  2  0  0  0  0
 24 27  2  0  0  0  0
  2 33  1  0  0  0  0
 20 43  1  0  0  0  0
 20 44  1  0  0  0  0
 12 24  1  0  0  0  0
 12 15  2  0  0  0  0
 24 26  2  0  0  0  0
  3 15  1  0  0  0  0
  3 34  1  0  0  0  0
 15 29  1  0  0  0  0
M  END
> <CID>
EN300-1896632

> <SMILES>
Cc1ccncc1NC(=O)Cc2cc(cc(c2)Cl)OCc3cc(c(cc3F)N(=O)=O)F

> <RUN>
RUN3666

> <DDG (kcal/mol)>
-0.37

> <dDDG (kcal/mol)>
0.14

$$$$
EN300-764780
  -OEChem-08252008263D

 67 71  0     1  0  0  0  0  0999 V2000
   10.7960    4.3570   22.9330 C   0  0  0  0  0  0  0  0  0  0  0  0
    9.4940    4.6440   23.1340 C   0  0  0  0  0  0  0  0  0  0  0  0
   11.4200    3.4410   23.7210 C   0  0  0  0  0  0  0  0  0  0  0  0
    8.7310    4.0490   24.1780 C   0  0  0  0  0  0  0  0  0  0  0  0
    6.9460    1.2750   19.6140 C   0  0  0  0  0  0  0  0  0  0  0  0
   11.6920   -0.7370   23.9170 C   0  0  0  0  0  0  0  0  0  0  0  0
   12.5820   -1.3680   21.8240 C   0  0  0  0  0  0  0  0  0  0  0  0
   13.5610    0.5380   22.9640 C   0  0  0  0  0  0  0  0  0  0  0  0
    6.6170    0.4610   18.5040 C   0  0  0  0  0  0  0  0  0  0  0  0
    8.0160   -1.2510   19.2780 C   0  0  0  0  0  0  0  0  0  0  0  0
    7.3520    2.9570   26.4260 C   0  0  0  0  0  0  0  0  0  0  0  0
   10.6880    2.6560   24.7380 C   0  0  0  0  0  0  0  0  0  0  0  0
    7.8800    0.8450   20.5270 C   0  0  0  0  0  0  0  0  0  0  0  0
   11.6890   -1.5650   22.8750 C   0  0  0  0  0  0  0  0  0  0  0  0
    9.2680    2.9960   24.9630 C   0  0  0  0  0  0  0  0  0  0  0  0
    8.4090   -0.4220   20.4130 C   0  0  0  0  0  0  0  0  0  0  0  0
   12.6400    0.3950   24.0250 C   0  0  0  0  0  0  0  0  0  0  0  0
   13.5400   -0.3300   21.8850 C   0  0  0  0  0  0  0  0  0  0  0  0
    6.7130    2.0060   27.1940 C   0  0  0  0  0  0  0  0  0  0  0  0
    9.4960   -2.1450   21.7200 C   0  0  0  0  0  0  0  0  0  0  0  0
    3.4150    2.4660   26.7170 C   0  0  0  0  0  0  0  0  0  0  0  0
    3.0950    1.0580   27.2250 C   0  0  0  0  0  0  0  0  0  0  0  0
    4.5070    3.1270   27.5630 C   0  0  0  0  0  0  0  0  0  0  0  0
    4.2630    0.2210   27.7870 C   0  0  0  0  0  0  0  0  0  0  0  0
    5.5850    2.1980   28.1510 C   0  0  1  0  0  0  0  0  0  0  0  0
    8.2480    1.7950   21.6650 C   0  0  0  0  0  0  0  0  0  0  0  0
   10.6020   -2.5820   22.7250 C   0  0  0  0  0  0  0  0  0  0  0  0
   11.4680    1.7310   25.6450 C   0  0  0  0  0  0  0  0  0  0  0  0
    7.0930   -0.8190   18.3230 N   0  0  0  0  0  0  0  0  0  0  0  0
    7.4280    0.8440   27.0840 N   0  0  0  0  0  0  0  0  0  0  0  0
    8.5570    1.0340   26.3800 N   0  0  0  0  0  0  0  0  0  0  0  0
    8.4520    2.3220   25.9020 N   0  0  0  0  0  0  0  0  0  0  0  0
    9.3050   -0.8480   21.3930 N   0  0  0  0  0  0  0  0  0  0  0  0
    5.0210    0.9830   28.7750 N   0  3  0  0  0  0  0  0  0  0  0  0
    8.7080   -3.0720   21.4430 O   0  0  0  0  0  0  0  0  0  0  0  0
   12.7590    1.2850   25.1480 O   0  0  0  0  0  0  0  0  0  0  0  0
   14.6800   -0.1700   20.6180 Cl  0  0  0  0  0  0  0  0  0  0  0  0
   11.3170    4.8180   22.0950 H   0  0  0  0  0  0  0  0  0  0  0  0
    8.9520    5.3250   22.4900 H   0  0  0  0  0  0  0  0  0  0  0  0
   12.4750    3.2320   23.5160 H   0  0  0  0  0  0  0  0  0  0  0  0
    7.7420    4.4430   24.3850 H   0  0  0  0  0  0  0  0  0  0  0  0
    6.4470    2.2330   19.7450 H   0  0  0  0  0  0  0  0  0  0  0  0
   11.0250   -0.9510   24.7390 H   0  0  0  0  0  0  0  0  0  0  0  0
   12.6470   -2.0370   20.9760 H   0  0  0  0  0  0  0  0  0  0  0  0
   14.4540    1.1640   22.9780 H   0  0  0  0  0  0  0  0  0  0  0  0
    5.8340    0.8800   17.8840 H   0  0  0  0  0  0  0  0  0  0  0  0
    8.3350   -2.2740   19.1160 H   0  0  0  0  0  0  0  0  0  0  0  0
    7.1410    4.0110   26.2620 H   0  0  0  0  0  0  0  0  0  0  0  0
    3.8230    2.4100   25.7060 H   0  0  0  0  0  0  0  0  0  0  0  0
    2.5130    3.0810   26.7130 H   0  0  0  0  0  0  0  0  0  0  0  0
    2.3140    1.0890   27.9980 H   0  0  0  0  0  0  0  0  0  0  0  0
    2.7220    0.5440   26.3350 H   0  0  0  0  0  0  0  0  0  0  0  0
    5.0830    3.8140   26.9400 H   0  0  0  0  0  0  0  0  0  0  0  0
    4.1190    3.7350   28.3850 H   0  0  0  0  0  0  0  0  0  0  0  0
    3.9350   -0.7780   28.0810 H   0  0  0  0  0  0  0  0  0  0  0  0
    5.0270    0.0560   27.0100 H   0  0  0  0  0  0  0  0  0  0  0  0
    6.0550    2.7130   28.9930 H   0  0  0  0  0  0  0  0  0  0  0  0
    7.3800    2.3760   21.9830 H   0  0  0  0  0  0  0  0  0  0  0  0
    8.5950    1.3170   22.5830 H   0  0  0  0  0  0  0  0  0  0  0  0
    8.9680    2.6000   21.4680 H   0  0  0  0  0  0  0  0  0  0  0  0
   11.0530   -3.5370   22.4300 H   0  0  0  0  0  0  0  0  0  0  0  0
   10.1120   -2.7260   23.6840 H   0  0  0  0  0  0  0  0  0  0  0  0
   11.6090    2.2850   26.5810 H   0  0  0  0  0  0  0  0  0  0  0  0
   10.7480    0.9650   25.9520 H   0  0  0  0  0  0  0  0  0  0  0  0
    9.5230   -0.1760   22.1310 H   0  0  0  0  0  0  0  0  0  0  0  0
    4.4120    1.2670   29.5460 H   0  0  0  0  0  0  0  0  0  0  0  0
    5.7200    0.4270   29.2620 H   0  0  0  0  0  0  0  0  0  0  0  0
  9 46  1  0  0  0  0
  9 29  2  0  0  0  0
 10 29  1  0  0  0  0
  5  9  1  0  0  0  0
 10 47  1  0  0  0  0
 10 16  2  0  0  0  0
  5 42  1  0  0  0  0
  5 13  2  0  0  0  0
 13 16  1  0  0  0  0
 16 33  1  0  0  0  0
 13 26  1  0  0  0  0
 18 37  1  0  0  0  0
  7 44  1  0  0  0  0
 20 33  1  0  0  0  0
 33 65  1  0  0  0  0
 20 35  2  0  0  0  0
 26 60  1  0  0  0  0
 26 58  1  0  0  0  0
 26 59  1  0  0  0  0
 20 27  1  0  0  0  0
  7 18  2  0  0  0  0
  7 14  1  0  0  0  0
  8 18  1  0  0  0  0
  1 38  1  0  0  0  0
 27 61  1  0  0  0  0
  2 39  1  0  0  0  0
 14 27  1  0  0  0  0
 27 62  1  0  0  0  0
  6 14  2  0  0  0  0
  1  2  2  0  0  0  0
  1  3  1  0  0  0  0
  8 45  1  0  0  0  0
  8 17  2  0  0  0  0
  2  4  1  0  0  0  0
  3 40  1  0  0  0  0
  3 12  2  0  0  0  0
  6 17  1  0  0  0  0
  6 43  1  0  0  0  0
 17 36  1  0  0  0  0
  4 41  1  0  0  0  0
  4 15  2  0  0  0  0
 12 15  1  0  0  0  0
 12 28  1  0  0  0  0
 15 32  1  0  0  0  0
 28 36  1  0  0  0  0
 28 64  1  0  0  0  0
 28 63  1  0  0  0  0
 21 49  1  0  0  0  0
 31 32  1  0  0  0  0
 11 32  1  0  0  0  0
 11 48  1  0  0  0  0
 22 52  1  0  0  0  0
 30 31  2  0  0  0  0
 11 19  2  0  0  0  0
 21 50  1  0  0  0  0
 21 22  1  0  0  0  0
 21 23  1  0  0  0  0
 23 53  1  0  0  0  0
 24 56  1  0  0  0  0
 19 30  1  0  0  0  0
 19 25  1  0  0  0  0
 22 24  1  0  0  0  0
 22 51  1  0  0  0  0
 23 25  1  0  0  0  0
 23 54  1  0  0  0  0
 24 55  1  0  0  0  0
 24 34  1  0  0  0  0
 25 34  1  0  0  0  0
 25 57  1  0  0  0  0
 34 67  1  0  0  0  0
 34 66  1  0  0  0  0
M  CHG  1  34   1
M  END
> <CID>
EN300-764780

> <SMILES>
Cc1ccncc1NC(=O)Cc2cc(cc(c2)Cl)OCc3ccccc3n4cc(nn4)[C@H]5CCCC[NH2+]5

> <RUN>
RUN4329

> <DDG (kcal/mol)>
-0.37

> <dDDG (kcal/mol)>
0.23

$$$$
EN300-1921394
  -OEChem-08252008263D

 54 57  0     1  0  0  0  0  0999 V2000
   10.0360    6.6510   26.0640 C   0  0  0  0  0  0  0  0  0  0  0  0
   11.1360    7.4860   25.8230 C   0  0  0  0  0  0  0  0  0  0  0  0
   10.0030    5.3810   25.4440 C   0  0  0  0  0  0  0  0  0  0  0  0
   13.2420    5.5190   23.5420 C   0  0  0  0  0  0  0  0  0  0  0  0
    4.5550    0.7250   18.5670 C   0  0  0  0  0  0  0  0  0  0  0  0
   10.5180    0.1500   23.7240 C   0  0  0  0  0  0  0  0  0  0  0  0
   11.6550   -1.3890   22.2390 C   0  0  0  0  0  0  0  0  0  0  0  0
   12.9550   -0.0380   23.7510 C   0  0  0  0  0  0  0  0  0  0  0  0
   14.3040    6.4380   23.4370 C   0  0  0  0  0  0  0  0  0  0  0  0
    5.3580    0.5750   17.3850 C   0  0  0  0  0  0  0  0  0  0  0  0
   13.2600    7.8960   24.8100 C   0  0  0  0  0  0  0  0  0  0  0  0
    7.1940   -0.0690   18.6160 C   0  0  0  0  0  0  0  0  0  0  0  0
   12.1330    7.0990   24.9370 C   0  0  0  0  0  0  0  0  0  0  0  0
   12.1140    5.8550   24.2950 C   0  0  0  0  0  0  0  0  0  0  0  0
   11.0520    4.9580   24.6140 C   0  0  0  0  0  0  0  0  0  0  0  0
    5.1760    0.3840   19.7930 C   0  0  0  0  0  0  0  0  0  0  0  0
   10.4690   -0.8400   22.7410 C   0  0  0  0  0  0  0  0  0  0  0  0
    6.5010   -0.0270   19.8420 C   0  0  0  0  0  0  0  0  0  0  0  0
   11.7940    0.5860   24.2540 C   0  0  0  0  0  0  0  0  0  0  0  0
   12.9030   -0.9670   22.7180 C   0  0  0  0  0  0  0  0  0  0  0  0
    8.4730   -0.3520   21.3160 C   0  0  0  0  0  0  0  0  0  0  0  0
    4.3200    0.4880   21.0800 C   0  0  0  0  0  0  0  0  0  0  0  0
    9.1150   -1.3310   22.2970 C   0  0  0  0  0  0  0  0  0  0  0  0
   11.0540    2.5030   25.3830 C   0  0  0  0  0  0  0  0  0  0  0  0
   11.0300    3.5140   24.2210 C   0  0  1  0  0  0  0  0  0  0  0  0
   14.3480    7.6130   24.0810 N   0  0  0  0  0  0  0  0  0  0  0  0
    6.6530    0.2150   17.4170 N   0  0  0  0  0  0  0  0  0  0  0  0
    7.0830   -0.3470   21.0950 N   0  0  0  0  0  0  0  0  0  0  0  0
    9.1570    0.4890   20.7870 O   0  0  0  0  0  0  0  0  0  0  0  0
    9.9990    3.2810   23.2440 O   0  0  0  0  0  0  0  0  0  0  0  0
   11.9880    1.4840   25.2170 O   0  0  0  0  0  0  0  0  0  0  0  0
   14.4000   -1.4520   21.8370 Cl  0  0  0  0  0  0  0  0  0  0  0  0
    9.2600    7.0590   26.7000 H   0  0  0  0  0  0  0  0  0  0  0  0
   11.2110    8.4790   26.2580 H   0  0  0  0  0  0  0  0  0  0  0  0
    9.1970    4.6830   25.6210 H   0  0  0  0  0  0  0  0  0  0  0  0
   13.2620    4.6510   22.8830 H   0  0  0  0  0  0  0  0  0  0  0  0
    3.5490    1.1220   18.5650 H   0  0  0  0  0  0  0  0  0  0  0  0
    9.6140    0.7020   23.9440 H   0  0  0  0  0  0  0  0  0  0  0  0
   11.6480   -2.1330   21.4430 H   0  0  0  0  0  0  0  0  0  0  0  0
   13.9030    0.3510   24.1150 H   0  0  0  0  0  0  0  0  0  0  0  0
   15.1480    6.1570   22.8210 H   0  0  0  0  0  0  0  0  0  0  0  0
    4.8620    0.8150   16.4480 H   0  0  0  0  0  0  0  0  0  0  0  0
   13.2760    8.8440   25.3370 H   0  0  0  0  0  0  0  0  0  0  0  0
    8.2380   -0.3770   18.6040 H   0  0  0  0  0  0  0  0  0  0  0  0
    4.8470    0.6800   22.0200 H   0  0  0  0  0  0  0  0  0  0  0  0
    3.6070    1.3050   20.9790 H   0  0  0  0  0  0  0  0  0  0  0  0
    3.7070   -0.4020   21.1960 H   0  0  0  0  0  0  0  0  0  0  0  0
    9.1120   -2.4030   22.0600 H   0  0  0  0  0  0  0  0  0  0  0  0
    8.5420   -1.2820   23.2270 H   0  0  0  0  0  0  0  0  0  0  0  0
   11.2130    3.1240   26.2700 H   0  0  0  0  0  0  0  0  0  0  0  0
   10.0740    2.0080   25.4070 H   0  0  0  0  0  0  0  0  0  0  0  0
   12.0120    3.2970   23.7860 H   0  0  0  0  0  0  0  0  0  0  0  0
    6.5720   -0.9550   21.7430 H   0  0  0  0  0  0  0  0  0  0  0  0
   10.2000    3.8100   22.4490 H   0  0  0  0  0  0  0  0  0  0  0  0
 10 42  1  0  0  0  0
 10 27  2  0  0  0  0
  5 10  1  0  0  0  0
 12 27  1  0  0  0  0
  5 37  1  0  0  0  0
  5 16  2  0  0  0  0
 12 44  1  0  0  0  0
 12 18  2  0  0  0  0
 16 18  1  0  0  0  0
 16 22  1  0  0  0  0
 18 28  1  0  0  0  0
 21 29  2  0  0  0  0
 22 46  1  0  0  0  0
 22 47  1  0  0  0  0
 22 45  1  0  0  0  0
 21 28  1  0  0  0  0
 28 53  1  0  0  0  0
 21 23  1  0  0  0  0
  7 39  1  0  0  0  0
 20 32  1  0  0  0  0
 23 48  1  0  0  0  0
  7 20  2  0  0  0  0
  7 17  1  0  0  0  0
 17 23  1  0  0  0  0
 23 49  1  0  0  0  0
 30 54  1  0  0  0  0
  8 20  1  0  0  0  0
  6 17  2  0  0  0  0
  9 41  1  0  0  0  0
  4 36  1  0  0  0  0
 25 30  1  0  0  0  0
  4  9  2  0  0  0  0
  9 26  1  0  0  0  0
  4 14  1  0  0  0  0
  6 38  1  0  0  0  0
  6 19  1  0  0  0  0
  8 40  1  0  0  0  0
  8 19  2  0  0  0  0
 25 52  1  0  0  0  0
 11 26  2  0  0  0  0
 15 25  1  0  0  0  0
 24 25  1  0  0  0  0
 19 31  1  0  0  0  0
 14 15  2  0  0  0  0
 13 14  1  0  0  0  0
  3 15  1  0  0  0  0
 11 13  1  0  0  0  0
 11 43  1  0  0  0  0
  2 13  2  0  0  0  0
 24 31  1  0  0  0  0
 24 51  1  0  0  0  0
 24 50  1  0  0  0  0
  3 35  1  0  0  0  0
  1  3  2  0  0  0  0
  1  2  1  0  0  0  0
  2 34  1  0  0  0  0
  1 33  1  0  0  0  0
M  END
> <CID>
EN300-1921394

> <SMILES>
Cc1ccncc1NC(=O)Cc2cc(cc(c2)Cl)OC[C@H](c3cccc4c3ccnc4)O

> <RUN>
RUN3296

> <DDG (kcal/mol)>
-0.37

> <dDDG (kcal/mol)>
0.16

$$$$
EN300-1915625
  -OEChem-08252008263D

 55 57  0     0  0  0  0  0  0999 V2000
   11.3210   -0.1910   29.4450 C   0  0  0  0  0  0  0  0  0  0  0  0
   11.9710    1.0640   29.4810 C   0  0  0  0  0  0  0  0  0  0  0  0
   11.0140   -0.7340   28.2650 C   0  0  0  0  0  0  0  0  0  0  0  0
    7.0760    2.1870   19.2680 C   0  0  0  0  0  0  0  0  0  0  0  0
   11.8520    1.2000   27.1070 C   0  0  0  0  0  0  0  0  0  0  0  0
   10.6820   -1.8100   23.0170 C   0  0  0  0  0  0  0  0  0  0  0  0
   11.7930   -2.6860   21.0880 C   0  0  0  0  0  0  0  0  0  0  0  0
   13.1070   -1.4420   22.7480 C   0  0  0  0  0  0  0  0  0  0  0  0
    6.9050    1.8760   17.8920 C   0  0  0  0  0  0  0  0  0  0  0  0
    7.9070   -0.1990   18.2020 C   0  0  0  0  0  0  0  0  0  0  0  0
   12.1960    1.8050   28.3360 C   0  0  0  0  0  0  0  0  0  0  0  0
   11.3530   -0.1180   27.0540 C   0  0  0  0  0  0  0  0  0  0  0  0
    7.7110    1.2970   20.1030 C   0  0  0  0  0  0  0  0  0  0  0  0
   10.5780   -2.4620   21.8000 C   0  0  0  0  0  0  0  0  0  0  0  0
    8.0490    0.0450   19.5870 C   0  0  0  0  0  0  0  0  0  0  0  0
   11.9260   -1.3070   23.4990 C   0  0  0  0  0  0  0  0  0  0  0  0
   13.0110   -2.1870   21.5320 C   0  0  0  0  0  0  0  0  0  0  0  0
   12.7210    3.1520   28.3360 C   0  0  0  0  0  0  0  0  0  0  0  0
    8.5110   -2.2440   20.3670 C   0  0  0  0  0  0  0  0  0  0  0  0
    8.0550    1.6510   21.4970 C   0  0  0  0  0  0  0  0  0  0  0  0
   13.1780    5.8210   26.2220 C   0  0  0  0  0  0  0  0  0  0  0  0
    9.2920   -3.1430   21.3520 C   0  0  0  0  0  0  0  0  0  0  0  0
   11.0120   -0.8210   25.7460 C   0  0  0  0  0  0  0  0  0  0  0  0
   13.9790    4.9820   27.1480 C   0  0  0  0  0  0  0  0  0  0  0  0
    7.2970    0.6880   17.3330 N   0  0  0  0  0  0  0  0  0  0  0  0
    8.7110   -0.8900   20.4360 N   0  0  0  0  0  0  0  0  0  0  0  0
   13.4110    3.6680   27.2380 N   0  0  0  0  0  0  0  0  0  0  0  0
   12.6300    3.8330   29.3920 O   0  0  0  0  0  0  0  0  0  0  0  0
    7.7780   -2.7770   19.5240 O   0  0  0  0  0  0  0  0  0  0  0  0
   12.0710   -0.6920   24.7480 O   0  0  0  0  0  0  0  0  0  0  0  0
   14.4020   -2.6190   20.5770 Cl  0  0  0  0  0  0  0  0  0  0  0  0
   11.0620   -0.7140   30.3680 H   0  0  0  0  0  0  0  0  0  0  0  0
   12.3080    1.5120   30.4160 H   0  0  0  0  0  0  0  0  0  0  0  0
   10.4790   -1.6790   28.1540 H   0  0  0  0  0  0  0  0  0  0  0  0
    6.8720    3.1820   19.6440 H   0  0  0  0  0  0  0  0  0  0  0  0
   11.8830    1.6500   26.1110 H   0  0  0  0  0  0  0  0  0  0  0  0
    9.7620   -1.6230   23.5620 H   0  0  0  0  0  0  0  0  0  0  0  0
   11.6140   -3.3350   20.2360 H   0  0  0  0  0  0  0  0  0  0  0  0
   14.0460   -1.0070   23.1070 H   0  0  0  0  0  0  0  0  0  0  0  0
    6.4070    2.6500   17.3220 H   0  0  0  0  0  0  0  0  0  0  0  0
    8.4500   -1.0660   17.8470 H   0  0  0  0  0  0  0  0  0  0  0  0
    9.1280    1.4880   21.6410 H   0  0  0  0  0  0  0  0  0  0  0  0
    7.7130    2.6530   21.7710 H   0  0  0  0  0  0  0  0  0  0  0  0
    7.5350    1.0160   22.2260 H   0  0  0  0  0  0  0  0  0  0  0  0
   13.4930    6.8700   26.1410 H   0  0  0  0  0  0  0  0  0  0  0  0
   13.1480    5.3580   25.2310 H   0  0  0  0  0  0  0  0  0  0  0  0
   12.1180    5.7690   26.4860 H   0  0  0  0  0  0  0  0  0  0  0  0
    9.4560   -4.0730   20.7940 H   0  0  0  0  0  0  0  0  0  0  0  0
    8.6480   -3.3100   22.2250 H   0  0  0  0  0  0  0  0  0  0  0  0
   10.7380   -1.8550   26.0060 H   0  0  0  0  0  0  0  0  0  0  0  0
   10.1330   -0.3100   25.3350 H   0  0  0  0  0  0  0  0  0  0  0  0
   14.9340    4.7780   26.6480 H   0  0  0  0  0  0  0  0  0  0  0  0
   14.1520    5.4860   28.1020 H   0  0  0  0  0  0  0  0  0  0  0  0
    9.1800   -0.5480   21.2730 H   0  0  0  0  0  0  0  0  0  0  0  0
   13.5620    3.0140   26.4690 H   0  0  0  0  0  0  0  0  0  0  0  0
  9 40  1  0  0  0  0
  9 25  2  0  0  0  0
 10 25  1  0  0  0  0
 10 41  1  0  0  0  0
  4  9  1  0  0  0  0
 10 15  2  0  0  0  0
  4 35  1  0  0  0  0
  4 13  2  0  0  0  0
 19 29  2  0  0  0  0
 13 15  1  0  0  0  0
 15 26  1  0  0  0  0
 13 20  1  0  0  0  0
  7 38  1  0  0  0  0
 19 26  1  0  0  0  0
 19 22  1  0  0  0  0
 26 54  1  0  0  0  0
 17 31  1  0  0  0  0
 22 48  1  0  0  0  0
  7 17  2  0  0  0  0
  7 14  1  0  0  0  0
 14 22  1  0  0  0  0
 22 49  1  0  0  0  0
 20 42  1  0  0  0  0
 20 43  1  0  0  0  0
 20 44  1  0  0  0  0
  8 17  1  0  0  0  0
  6 14  2  0  0  0  0
  8 39  1  0  0  0  0
  8 16  2  0  0  0  0
  6 16  1  0  0  0  0
  6 37  1  0  0  0  0
 16 30  1  0  0  0  0
 23 30  1  0  0  0  0
 21 46  1  0  0  0  0
 23 51  1  0  0  0  0
 23 50  1  0  0  0  0
 12 23  1  0  0  0  0
  5 36  1  0  0  0  0
 21 45  1  0  0  0  0
 21 47  1  0  0  0  0
 21 24  1  0  0  0  0
 27 55  1  0  0  0  0
 24 52  1  0  0  0  0
  5 12  2  0  0  0  0
  3 12  1  0  0  0  0
  5 11  1  0  0  0  0
 24 27  1  0  0  0  0
 24 53  1  0  0  0  0
 18 27  1  0  0  0  0
  3 34  1  0  0  0  0
  1  3  2  0  0  0  0
 11 18  1  0  0  0  0
  2 11  2  0  0  0  0
 18 28  2  0  0  0  0
  1  2  1  0  0  0  0
  1 32  1  0  0  0  0
  2 33  1  0  0  0  0
M  END
> <CID>
EN300-1915625

> <SMILES>
CCNC(=O)c1cccc(c1)COc2cc(cc(c2)Cl)CC(=O)Nc3cnccc3C

> <RUN>
RUN571

> <DDG (kcal/mol)>
-0.37

> <dDDG (kcal/mol)>
0.15

$$$$
EN300-7434416
  -OEChem-08252008263D

 44 46  0     0  0  0  0  0  0999 V2000
    4.9640    1.0020   20.1610 C   0  0  0  0  0  0  0  0  0  0  0  0
   13.6320    7.9460   25.2530 C   0  0  0  0  0  0  0  0  0  0  0  0
   11.9950    1.8780   23.2390 C   0  0  0  0  0  0  0  0  0  0  0  0
   12.6680   -0.3340   22.7100 C   0  0  0  0  0  0  0  0  0  0  0  0
   14.3540    1.4060   22.8450 C   0  0  0  0  0  0  0  0  0  0  0  0
    5.5190    1.1720   18.9030 C   0  0  0  0  0  0  0  0  0  0  0  0
   15.0260    8.0720   25.0480 C   0  0  0  0  0  0  0  0  0  0  0  0
   14.9510    6.0970   23.8860 C   0  0  0  0  0  0  0  0  0  0  0  0
    7.5320    0.3390   19.5940 C   0  0  0  0  0  0  0  0  0  0  0  0
    5.7350    0.5450   21.2070 C   0  0  0  0  0  0  0  0  0  0  0  0
   11.6400    0.5750   23.0110 C   0  0  0  0  0  0  0  0  0  0  0  0
   13.6080    5.8660   24.1800 C   0  0  0  0  0  0  0  0  0  0  0  0
    7.0880    0.2000   20.9150 C   0  0  0  0  0  0  0  0  0  0  0  0
   13.3670    2.3460   23.0360 C   0  0  0  0  0  0  0  0  0  0  0  0
   12.8930    6.8670   24.7910 C   0  0  0  0  0  0  0  0  0  0  0  0
   14.0130    0.0370   22.6460 C   0  0  0  0  0  0  0  0  0  0  0  0
    9.2360    0.4370   22.1120 C   0  0  0  0  0  0  0  0  0  0  0  0
    5.1660    0.6030   22.5910 C   0  0  0  0  0  0  0  0  0  0  0  0
   10.2190    0.1360   23.2440 C   0  0  0  0  0  0  0  0  0  0  0  0
   12.8550    4.6560   23.5680 C   0  0  0  0  0  0  0  0  0  0  0  0
    6.7890    0.8370   18.6080 N   0  0  0  0  0  0  0  0  0  0  0  0
   15.7160    7.1010   24.3700 N   0  0  0  0  0  0  0  0  0  0  0  0
    8.0090   -0.2230   21.9400 N   0  0  0  0  0  0  0  0  0  0  0  0
    9.4940    1.3410   21.3210 O   0  0  0  0  0  0  0  0  0  0  0  0
   13.8060    3.6550   23.2460 O   0  0  0  0  0  0  0  0  0  0  0  0
   11.1210    6.8950   25.0150 Cl  0  0  0  0  0  0  0  0  0  0  0  0
   15.2510   -1.0620   22.0920 Cl  0  0  0  0  0  0  0  0  0  0  0  0
    3.9350    1.2460   20.4100 H   0  0  0  0  0  0  0  0  0  0  0  0
   13.0930    8.7910   25.6830 H   0  0  0  0  0  0  0  0  0  0  0  0
   11.2310    2.5780   23.5910 H   0  0  0  0  0  0  0  0  0  0  0  0
   12.4500   -1.3960   22.6700 H   0  0  0  0  0  0  0  0  0  0  0  0
   15.2890    1.8860   22.6270 H   0  0  0  0  0  0  0  0  0  0  0  0
    4.9400    1.5110   18.0500 H   0  0  0  0  0  0  0  0  0  0  0  0
   15.5600    8.9440   25.4100 H   0  0  0  0  0  0  0  0  0  0  0  0
   15.5070    5.5210   23.1550 H   0  0  0  0  0  0  0  0  0  0  0  0
    8.5810    0.0980   19.4290 H   0  0  0  0  0  0  0  0  0  0  0  0
    5.5590   -0.2010   23.2130 H   0  0  0  0  0  0  0  0  0  0  0  0
    5.3220    1.5460   23.1230 H   0  0  0  0  0  0  0  0  0  0  0  0
    4.0950    0.3940   22.6590 H   0  0  0  0  0  0  0  0  0  0  0  0
   10.2740   -0.9540   23.3990 H   0  0  0  0  0  0  0  0  0  0  0  0
    9.9210    0.4880   24.2300 H   0  0  0  0  0  0  0  0  0  0  0  0
   12.0240    4.3510   24.2100 H   0  0  0  0  0  0  0  0  0  0  0  0
   12.3470    5.0390   22.6800 H   0  0  0  0  0  0  0  0  0  0  0  0
    7.7170   -0.7840   22.7500 H   0  0  0  0  0  0  0  0  0  0  0  0
  6 33  1  0  0  0  0
  6 21  2  0  0  0  0
  9 21  1  0  0  0  0
  1  6  1  0  0  0  0
  9 36  1  0  0  0  0
  9 13  2  0  0  0  0
  1 28  1  0  0  0  0
  1 10  2  0  0  0  0
 10 13  1  0  0  0  0
 13 23  1  0  0  0  0
 10 18  1  0  0  0  0
 17 24  2  0  0  0  0
 17 23  1  0  0  0  0
 23 44  1  0  0  0  0
 16 27  1  0  0  0  0
 17 19  1  0  0  0  0
 18 39  1  0  0  0  0
 18 38  1  0  0  0  0
 18 37  1  0  0  0  0
  5 32  1  0  0  0  0
  4 16  2  0  0  0  0
  5 16  1  0  0  0  0
  4 31  1  0  0  0  0
 20 43  1  0  0  0  0
  4 11  1  0  0  0  0
  5 14  2  0  0  0  0
  3 11  2  0  0  0  0
 11 19  1  0  0  0  0
  3 14  1  0  0  0  0
 14 25  1  0  0  0  0
  8 35  1  0  0  0  0
  3 30  1  0  0  0  0
 19 40  1  0  0  0  0
 19 41  1  0  0  0  0
 20 25  1  0  0  0  0
 12 20  1  0  0  0  0
 20 42  1  0  0  0  0
  8 12  2  0  0  0  0
  8 22  1  0  0  0  0
 12 15  1  0  0  0  0
  7 22  2  0  0  0  0
 15 26  1  0  0  0  0
  2 15  2  0  0  0  0
  2  7  1  0  0  0  0
  7 34  1  0  0  0  0
  2 29  1  0  0  0  0
M  END
> <CID>
EN300-7434416

> <SMILES>
Cc1ccncc1NC(=O)Cc2cc(cc(c2)Cl)OCc3cnccc3Cl

> <RUN>
RUN1026

> <DDG (kcal/mol)>
-0.36

> <dDDG (kcal/mol)>
0.11

$$$$
EN300-1137140
  -OEChem-08252008263D

 62 65  0     1  0  0  0  0  0999 V2000
    9.4390    2.8750   26.6160 C   0  0  0  0  0  0  0  0  0  0  0  0
    9.2100    3.6890   24.2930 C   0  0  0  0  0  0  0  0  0  0  0  0
   10.2340    1.8210   26.1630 C   0  0  0  0  0  0  0  0  0  0  0  0
   10.2420    2.8140   23.9370 C   0  0  0  0  0  0  0  0  0  0  0  0
    6.7140    2.7490   18.9640 C   0  0  0  0  0  0  0  0  0  0  0  0
   10.4390   -0.6220   23.1180 C   0  0  0  0  0  0  0  0  0  0  0  0
   11.5290   -1.7520   21.3410 C   0  0  0  0  0  0  0  0  0  0  0  0
   12.6980   -0.1060   22.6020 C   0  0  0  0  0  0  0  0  0  0  0  0
    6.5140    2.2260   17.6500 C   0  0  0  0  0  0  0  0  0  0  0  0
    7.7010    0.3090   18.2000 C   0  0  0  0  0  0  0  0  0  0  0  0
    8.7870    3.7970   25.6820 C   0  0  0  0  0  0  0  0  0  0  0  0
    7.4450    1.9680   19.8900 C   0  0  0  0  0  0  0  0  0  0  0  0
   10.4030   -1.5660   22.1360 C   0  0  0  0  0  0  0  0  0  0  0  0
    7.8410    0.6730   19.5360 C   0  0  0  0  0  0  0  0  0  0  0  0
   10.7400    1.8560   24.8160 C   0  0  0  0  0  0  0  0  0  0  0  0
   11.5990    0.1130   23.4280 C   0  0  0  0  0  0  0  0  0  0  0  0
   12.6780   -1.0580   21.6520 C   0  0  0  0  0  0  0  0  0  0  0  0
    8.4840   -1.5590   20.5270 C   0  0  0  0  0  0  0  0  0  0  0  0
    9.3780    9.3780   28.2080 C   0  0  0  0  0  0  0  0  0  0  0  0
    8.8510    8.0290   28.5930 C   0  0  0  0  0  0  0  0  0  0  0  0
   10.5510    8.7730   27.6110 C   0  0  0  0  0  0  0  0  0  0  0  0
   10.0050    7.3730   27.8060 C   0  0  0  0  0  0  0  0  0  0  0  0
    7.7470    2.5270   21.2830 C   0  0  0  0  0  0  0  0  0  0  0  0
    9.1350   -2.3170   21.7240 C   0  0  0  0  0  0  0  0  0  0  0  0
    9.4770    6.5500   26.6020 C   0  0  0  0  0  0  0  0  0  0  0  0
    6.5250    4.1450   26.6270 C   0  0  0  0  0  0  0  0  0  0  0  0
    7.8400    4.8300   26.1500 C   0  0  1  0  0  0  0  0  0  0  0  0
    7.0980    1.0840   17.2990 N   0  0  0  0  0  0  0  0  0  0  0  0
    8.3890   -0.1550   20.5850 N   0  0  0  0  0  0  0  0  0  0  0  0
    7.6690   -2.1310   19.7930 O   0  0  0  0  0  0  0  0  0  0  0  0
   11.7900    1.0610   24.4580 O   0  0  0  0  0  0  0  0  0  0  0  0
    8.5150    5.5920   27.1210 O   0  0  0  0  0  0  0  0  0  0  0  0
   14.1210   -1.2420   20.6190 Cl  0  0  0  0  0  0  0  0  0  0  0  0
    5.3350    3.2380   24.9530 I   0  0  0  0  0  0  0  0  0  0  0  0
    9.2030    2.9580   27.6740 H   0  0  0  0  0  0  0  0  0  0  0  0
    8.6680    4.3260   23.5970 H   0  0  0  0  0  0  0  0  0  0  0  0
   10.5500    1.0190   26.8330 H   0  0  0  0  0  0  0  0  0  0  0  0
   10.5640    2.8440   22.9030 H   0  0  0  0  0  0  0  0  0  0  0  0
    6.2680    3.6710   19.2910 H   0  0  0  0  0  0  0  0  0  0  0  0
    9.4790   -0.4000   23.5870 H   0  0  0  0  0  0  0  0  0  0  0  0
   11.5140   -2.4090   20.4770 H   0  0  0  0  0  0  0  0  0  0  0  0
   13.5740    0.5310   22.6640 H   0  0  0  0  0  0  0  0  0  0  0  0
    6.0430    2.9030   16.9490 H   0  0  0  0  0  0  0  0  0  0  0  0
    8.2440   -0.5800   17.9020 H   0  0  0  0  0  0  0  0  0  0  0  0
    8.8100    9.9720   27.4810 H   0  0  0  0  0  0  0  0  0  0  0  0
    9.5530   10.0080   29.0810 H   0  0  0  0  0  0  0  0  0  0  0  0
    8.8060    7.9060   29.6820 H   0  0  0  0  0  0  0  0  0  0  0  0
    7.8360    7.7960   28.2530 H   0  0  0  0  0  0  0  0  0  0  0  0
   11.4850    8.9250   28.1580 H   0  0  0  0  0  0  0  0  0  0  0  0
   10.6880    9.0490   26.5650 H   0  0  0  0  0  0  0  0  0  0  0  0
   10.5480    6.7160   28.4930 H   0  0  0  0  0  0  0  0  0  0  0  0
    8.8260    2.5610   21.4390 H   0  0  0  0  0  0  0  0  0  0  0  0
    7.3690    3.5500   21.4210 H   0  0  0  0  0  0  0  0  0  0  0  0
    7.2990    1.8480   22.0150 H   0  0  0  0  0  0  0  0  0  0  0  0
    9.4290   -3.2860   21.3230 H   0  0  0  0  0  0  0  0  0  0  0  0
    8.3970   -2.4250   22.5260 H   0  0  0  0  0  0  0  0  0  0  0  0
   10.3440    6.0860   26.1160 H   0  0  0  0  0  0  0  0  0  0  0  0
    8.9510    7.1540   25.8590 H   0  0  0  0  0  0  0  0  0  0  0  0
    5.9730    4.9550   27.1200 H   0  0  0  0  0  0  0  0  0  0  0  0
    6.7860    3.3560   27.3410 H   0  0  0  0  0  0  0  0  0  0  0  0
    7.6170    5.4720   25.2970 H   0  0  0  0  0  0  0  0  0  0  0  0
    9.1310    0.1690   21.2030 H   0  0  0  0  0  0  0  0  0  0  0  0
  9 43  1  0  0  0  0
  9 28  2  0  0  0  0
 10 28  1  0  0  0  0
  5  9  1  0  0  0  0
 10 44  1  0  0  0  0
 10 14  2  0  0  0  0
  5 39  1  0  0  0  0
  5 12  2  0  0  0  0
 12 14  1  0  0  0  0
 14 29  1  0  0  0  0
 18 30  2  0  0  0  0
 12 23  1  0  0  0  0
  7 41  1  0  0  0  0
 18 29  1  0  0  0  0
 18 24  1  0  0  0  0
 29 62  1  0  0  0  0
 17 33  1  0  0  0  0
 23 53  1  0  0  0  0
 23 52  1  0  0  0  0
 23 54  1  0  0  0  0
 24 55  1  0  0  0  0
  7 17  2  0  0  0  0
  7 13  1  0  0  0  0
  8 17  1  0  0  0  0
 13 24  1  0  0  0  0
 24 56  1  0  0  0  0
  6 13  2  0  0  0  0
  8 42  1  0  0  0  0
  8 16  2  0  0  0  0
  4 38  1  0  0  0  0
  6 16  1  0  0  0  0
  6 40  1  0  0  0  0
 16 31  1  0  0  0  0
  2 36  1  0  0  0  0
  2  4  2  0  0  0  0
  4 15  1  0  0  0  0
  2 11  1  0  0  0  0
 15 31  1  0  0  0  0
  3 15  2  0  0  0  0
 26 34  1  0  0  0  0
 27 61  1  0  0  0  0
 11 27  1  0  0  0  0
  1 11  2  0  0  0  0
 25 58  1  0  0  0  0
 25 57  1  0  0  0  0
 26 27  1  0  0  0  0
 27 32  1  0  0  0  0
  1  3  1  0  0  0  0
  3 37  1  0  0  0  0
 21 50  1  0  0  0  0
 25 32  1  0  0  0  0
 22 25  1  0  0  0  0
  1 35  1  0  0  0  0
 26 59  1  0  0  0  0
 26 60  1  0  0  0  0
 19 45  1  0  0  0  0
 21 22  1  0  0  0  0
 21 49  1  0  0  0  0
 19 21  1  0  0  0  0
 22 51  1  0  0  0  0
 20 22  1  0  0  0  0
 19 20  1  0  0  0  0
 19 46  1  0  0  0  0
 20 48  1  0  0  0  0
 20 47  1  0  0  0  0
M  END
> <CID>
EN300-1137140

> <SMILES>
Cc1ccncc1NC(=O)Cc2cc(cc(c2)Cl)Oc3ccc(cc3)[C@@H](CI)OCC4CCC4

> <RUN>
RUN1359

> <DDG (kcal/mol)>
-0.36

> <dDDG (kcal/mol)>
0.16

$$$$
EN300-35204
  -OEChem-08252008263D

 50 53  0     0  0  0  0  0  0999 V2000
   11.2100   -3.5730   27.6520 C   0  0  0  0  0  0  0  0  0  0  0  0
   10.5760   -2.3800   27.7490 C   0  0  0  0  0  0  0  0  0  0  0  0
    7.2860    1.5900   21.7030 C   0  0  0  0  0  0  0  0  0  0  0  0
   10.5770    0.0210   27.6020 C   0  0  0  0  0  0  0  0  0  0  0  0
   12.9050   -1.0610   23.0290 C   0  0  0  0  0  0  0  0  0  0  0  0
   12.2420    1.1430   26.3820 C   0  0  0  0  0  0  0  0  0  0  0  0
   13.6450   -1.7290   20.8380 C   0  0  0  0  0  0  0  0  0  0  0  0
   14.8150   -0.0060   21.9710 C   0  0  0  0  0  0  0  0  0  0  0  0
   12.4430   -3.6060   26.9910 C   0  0  0  0  0  0  0  0  0  0  0  0
    6.3310    0.8050   21.0280 C   0  0  0  0  0  0  0  0  0  0  0  0
    7.7210   -1.0490   20.8430 C   0  0  0  0  0  0  0  0  0  0  0  0
   11.2090   -1.1860   27.3010 C   0  0  0  0  0  0  0  0  0  0  0  0
    8.5720    0.9600   21.9270 C   0  0  0  0  0  0  0  0  0  0  0  0
   12.7050   -1.8880   21.9090 C   0  0  0  0  0  0  0  0  0  0  0  0
   12.9140   -0.0160   26.1790 C   0  0  0  0  0  0  0  0  0  0  0  0
   12.3980   -1.3090   26.6500 C   0  0  0  0  0  0  0  0  0  0  0  0
    8.8000   -0.3150   21.5060 C   0  0  0  0  0  0  0  0  0  0  0  0
   14.0380   -0.0900   23.0860 C   0  0  0  0  0  0  0  0  0  0  0  0
   11.0960    1.2390   27.1430 C   0  0  0  0  0  0  0  0  0  0  0  0
   14.6710   -0.8160   20.8850 C   0  0  0  0  0  0  0  0  0  0  0  0
   10.2940   -2.2260   21.9620 C   0  0  0  0  0  0  0  0  0  0  0  0
    9.5610    1.7800   22.6970 C   0  0  0  0  0  0  0  0  0  0  0  0
   11.6120   -2.9180   21.7270 C   0  0  0  0  0  0  0  0  0  0  0  0
   14.2610    0.0600   25.4730 C   0  0  0  0  0  0  0  0  0  0  0  0
    6.4920   -0.4490   20.6980 N   0  0  0  0  0  0  0  0  0  0  0  0
   13.0500   -2.4810   26.5050 N   0  0  0  0  0  0  0  0  0  0  0  0
   10.0660   -0.8600   21.7580 N   0  0  0  0  0  0  0  0  0  0  0  0
    9.3390   -2.9340   22.1600 O   0  0  0  0  0  0  0  0  0  0  0  0
   14.3300    0.6870   24.1830 O   0  0  0  0  0  0  0  0  0  0  0  0
   10.4840    2.4200   27.4510 F   0  0  0  0  0  0  0  0  0  0  0  0
   15.6080   -0.5490   19.4430 Cl  0  0  0  0  0  0  0  0  0  0  0  0
   10.7220   -4.4480   28.0770 H   0  0  0  0  0  0  0  0  0  0  0  0
    9.5720   -2.3810   28.1620 H   0  0  0  0  0  0  0  0  0  0  0  0
    7.0420    2.5900   22.0440 H   0  0  0  0  0  0  0  0  0  0  0  0
    9.7030    0.0020   28.2370 H   0  0  0  0  0  0  0  0  0  0  0  0
   12.1690   -1.1430   23.8340 H   0  0  0  0  0  0  0  0  0  0  0  0
   12.5370    2.0900   25.9280 H   0  0  0  0  0  0  0  0  0  0  0  0
   13.4670   -2.2920   19.9280 H   0  0  0  0  0  0  0  0  0  0  0  0
   15.6000    0.7470   22.0250 H   0  0  0  0  0  0  0  0  0  0  0  0
   12.9260   -4.5730   26.8630 H   0  0  0  0  0  0  0  0  0  0  0  0
    5.3200    1.1600   20.8140 H   0  0  0  0  0  0  0  0  0  0  0  0
    7.8280   -2.0900   20.5340 H   0  0  0  0  0  0  0  0  0  0  0  0
    9.6070    2.7950   22.2830 H   0  0  0  0  0  0  0  0  0  0  0  0
    9.3140    1.6770   23.7550 H   0  0  0  0  0  0  0  0  0  0  0  0
   10.5860    1.4210   22.5690 H   0  0  0  0  0  0  0  0  0  0  0  0
   11.5890   -3.2640   20.6940 H   0  0  0  0  0  0  0  0  0  0  0  0
   11.8030   -3.6510   22.5200 H   0  0  0  0  0  0  0  0  0  0  0  0
   14.9080    0.6290   26.1560 H   0  0  0  0  0  0  0  0  0  0  0  0
   14.7730   -0.9040   25.5270 H   0  0  0  0  0  0  0  0  0  0  0  0
   10.8820   -0.2640   21.6750 H   0  0  0  0  0  0  0  0  0  0  0  0
 20 31  1  0  0  0  0
  7 38  1  0  0  0  0
 11 42  1  0  0  0  0
 23 46  1  0  0  0  0
 11 25  2  0  0  0  0
 10 25  1  0  0  0  0
 10 41  1  0  0  0  0
  7 20  2  0  0  0  0
  7 14  1  0  0  0  0
 11 17  1  0  0  0  0
  8 20  1  0  0  0  0
  3 10  2  0  0  0  0
 17 27  1  0  0  0  0
 13 17  2  0  0  0  0
 27 50  1  0  0  0  0
  3 13  1  0  0  0  0
  3 34  1  0  0  0  0
 14 23  1  0  0  0  0
 21 23  1  0  0  0  0
 23 47  1  0  0  0  0
 21 27  1  0  0  0  0
  5 14  2  0  0  0  0
 13 22  1  0  0  0  0
 21 28  2  0  0  0  0
  8 39  1  0  0  0  0
  8 18  2  0  0  0  0
 22 43  1  0  0  0  0
 22 45  1  0  0  0  0
 22 44  1  0  0  0  0
  5 18  1  0  0  0  0
  5 36  1  0  0  0  0
 18 29  1  0  0  0  0
 24 29  1  0  0  0  0
 24 49  1  0  0  0  0
 24 48  1  0  0  0  0
 15 24  1  0  0  0  0
  6 37  1  0  0  0  0
  6 15  2  0  0  0  0
 15 16  1  0  0  0  0
  6 19  1  0  0  0  0
 16 26  2  0  0  0  0
  9 26  1  0  0  0  0
 12 16  1  0  0  0  0
  9 40  1  0  0  0  0
  1  9  2  0  0  0  0
 19 30  1  0  0  0  0
  4 19  2  0  0  0  0
  4 12  1  0  0  0  0
  2 12  2  0  0  0  0
  4 35  1  0  0  0  0
  1  2  1  0  0  0  0
  1 32  1  0  0  0  0
  2 33  1  0  0  0  0
M  END
> <CID>
EN300-35204

> <SMILES>
Cc1ccncc1NC(=O)Cc2cc(cc(c2)Cl)OCc3cc(cc4c3nccc4)F

> <RUN>
RUN1226

> <DDG (kcal/mol)>
-0.35

> <dDDG (kcal/mol)>
0.14

$$$$
EN300-1613389
  -OEChem-08252008263D

 55 58  0     0  0  0  0  0  0999 V2000
    9.6930    6.4410   23.8010 C   0  0  0  0  0  0  0  0  0  0  0  0
   10.5850    7.3260   25.7990 C   0  0  0  0  0  0  0  0  0  0  0  0
    8.4420    6.9230   24.1240 C   0  0  0  0  0  0  0  0  0  0  0  0
    9.3590    7.8660   26.1100 C   0  0  0  0  0  0  0  0  0  0  0  0
    4.0480    1.0600   19.0420 C   0  0  0  0  0  0  0  0  0  0  0  0
   10.7910    1.2420   22.9020 C   0  0  0  0  0  0  0  0  0  0  0  0
   11.3700   -1.0620   22.3150 C   0  0  0  0  0  0  0  0  0  0  0  0
   13.1020    0.5600   22.6190 C   0  0  0  0  0  0  0  0  0  0  0  0
    4.7720    1.2110   17.8360 C   0  0  0  0  0  0  0  0  0  0  0  0
    6.6780    0.5350   18.8950 C   0  0  0  0  0  0  0  0  0  0  0  0
   10.8590    6.6580   24.5960 C   0  0  0  0  0  0  0  0  0  0  0  0
    4.6790    0.6960   20.2260 C   0  0  0  0  0  0  0  0  0  0  0  0
   10.3860   -0.0530   22.6300 C   0  0  0  0  0  0  0  0  0  0  0  0
    6.0690    0.4000   20.2090 C   0  0  0  0  0  0  0  0  0  0  0  0
    8.2710    7.7020   25.2900 C   0  0  0  0  0  0  0  0  0  0  0  0
   12.1700    1.5760   22.9320 C   0  0  0  0  0  0  0  0  0  0  0  0
   12.7390   -0.7140   22.2810 C   0  0  0  0  0  0  0  0  0  0  0  0
   12.1890    6.1760   24.2240 C   0  0  0  0  0  0  0  0  0  0  0  0
   12.6170    5.0200   23.5510 C   0  0  0  0  0  0  0  0  0  0  0  0
   14.3540    6.2820   24.1630 C   0  0  0  0  0  0  0  0  0  0  0  0
    8.0770    0.3000   21.5340 C   0  0  0  0  0  0  0  0  0  0  0  0
    3.9190    0.7170   21.5080 C   0  0  0  0  0  0  0  0  0  0  0  0
    5.8700    7.8760   25.0060 C   0  0  0  0  0  0  0  0  0  0  0  0
    8.8860   -0.3830   22.6610 C   0  0  0  0  0  0  0  0  0  0  0  0
   11.7890    3.8360   23.2290 C   0  0  0  0  0  0  0  0  0  0  0  0
    6.0700    0.9660   17.7780 N   0  0  0  0  0  0  0  0  0  0  0  0
    6.7790   -0.0070   21.3300 N   0  0  0  0  0  0  0  0  0  0  0  0
   15.5100    6.5900   24.4870 O   0  0  0  0  0  0  0  0  0  0  0  0
    8.5410    1.1770   20.8540 O   0  0  0  0  0  0  0  0  0  0  0  0
   13.2380    6.9500   24.5170 O   0  0  0  0  0  0  0  0  0  0  0  0
   13.9980    5.1140   23.5080 O   0  0  0  0  0  0  0  0  0  0  0  0
    7.1150    8.3970   25.5840 O   0  0  0  0  0  0  0  0  0  0  0  0
   12.7240    2.7800   23.1970 O   0  0  0  0  0  0  0  0  0  0  0  0
   13.9310   -1.9700   21.7530 Cl  0  0  0  0  0  0  0  0  0  0  0  0
    9.8460    5.9090   22.8680 H   0  0  0  0  0  0  0  0  0  0  0  0
   11.3390    7.4930   26.5540 H   0  0  0  0  0  0  0  0  0  0  0  0
    7.6740    6.8560   23.3560 H   0  0  0  0  0  0  0  0  0  0  0  0
    9.3380    8.5970   26.9080 H   0  0  0  0  0  0  0  0  0  0  0  0
    2.9830    1.2600   19.0920 H   0  0  0  0  0  0  0  0  0  0  0  0
   10.0440    2.0240   23.0160 H   0  0  0  0  0  0  0  0  0  0  0  0
   11.0520   -2.0620   22.0230 H   0  0  0  0  0  0  0  0  0  0  0  0
   14.1650    0.7650   22.6850 H   0  0  0  0  0  0  0  0  0  0  0  0
    4.1650    1.5090   16.9900 H   0  0  0  0  0  0  0  0  0  0  0  0
    7.7360    0.3380   18.7720 H   0  0  0  0  0  0  0  0  0  0  0  0
    3.1760   -0.0820   21.6240 H   0  0  0  0  0  0  0  0  0  0  0  0
    4.5680    0.7820   22.3800 H   0  0  0  0  0  0  0  0  0  0  0  0
    3.4880    1.7280   21.4840 H   0  0  0  0  0  0  0  0  0  0  0  0
    5.7820    8.1930   23.9650 H   0  0  0  0  0  0  0  0  0  0  0  0
    5.1020    8.4690   25.5060 H   0  0  0  0  0  0  0  0  0  0  0  0
    5.6890    6.8220   25.2220 H   0  0  0  0  0  0  0  0  0  0  0  0
    8.6440   -1.4510   22.6250 H   0  0  0  0  0  0  0  0  0  0  0  0
    8.5770    0.0020   23.6370 H   0  0  0  0  0  0  0  0  0  0  0  0
   11.3850    4.1080   22.2450 H   0  0  0  0  0  0  0  0  0  0  0  0
   10.9760    3.8230   23.9660 H   0  0  0  0  0  0  0  0  0  0  0  0
    6.3470   -0.5350   22.0860 H   0  0  0  0  0  0  0  0  0  0  0  0
  9 43  1  0  0  0  0
  9 26  2  0  0  0  0
 10 26  1  0  0  0  0
  5  9  1  0  0  0  0
 10 44  1  0  0  0  0
 10 14  2  0  0  0  0
  5 39  1  0  0  0  0
  5 12  2  0  0  0  0
 12 14  1  0  0  0  0
 14 27  1  0  0  0  0
 12 22  1  0  0  0  0
 21 29  2  0  0  0  0
 21 27  1  0  0  0  0
 27 55  1  0  0  0  0
 22 47  1  0  0  0  0
 22 45  1  0  0  0  0
 22 46  1  0  0  0  0
 21 24  1  0  0  0  0
 17 34  1  0  0  0  0
  7 41  1  0  0  0  0
 25 53  1  0  0  0  0
  7 17  2  0  0  0  0
  8 17  1  0  0  0  0
  7 13  1  0  0  0  0
  8 42  1  0  0  0  0
  8 16  2  0  0  0  0
 24 51  1  0  0  0  0
 13 24  1  0  0  0  0
  6 13  2  0  0  0  0
 24 52  1  0  0  0  0
  1 35  1  0  0  0  0
  6 16  1  0  0  0  0
  6 40  1  0  0  0  0
 16 33  1  0  0  0  0
 25 33  1  0  0  0  0
 19 25  1  0  0  0  0
 25 54  1  0  0  0  0
  3 37  1  0  0  0  0
 19 31  1  0  0  0  0
 20 31  1  0  0  0  0
 18 19  2  0  0  0  0
  1  3  2  0  0  0  0
  1 11  1  0  0  0  0
 23 48  1  0  0  0  0
  3 15  1  0  0  0  0
 20 28  2  0  0  0  0
 20 30  1  0  0  0  0
 18 30  1  0  0  0  0
 11 18  1  0  0  0  0
  2 11  2  0  0  0  0
 23 50  1  0  0  0  0
 23 49  1  0  0  0  0
 23 32  1  0  0  0  0
 15 32  1  0  0  0  0
  4 15  2  0  0  0  0
  2  4  1  0  0  0  0
  2 36  1  0  0  0  0
  4 38  1  0  0  0  0
M  END
> <CID>
EN300-1613389

> <SMILES>
Cc1ccncc1NC(=O)Cc2cc(cc(c2)Cl)OCc3c(oc(=O)o3)c4ccc(cc4)OC

> <RUN>
RUN2575

> <DDG (kcal/mol)>
-0.34

> <dDDG (kcal/mol)>
0.19

$$$$
EN300-224566
  -OEChem-08252008263D

 42 44  0     0  0  0  0  0  0999 V2000
    5.1250    1.9240   18.1440 C   0  0  0  0  0  0  0  0  0  0  0  0
   10.2380   -0.2560   23.4460 C   0  0  0  0  0  0  0  0  0  0  0  0
   11.7090    1.4710   22.6460 C   0  0  0  0  0  0  0  0  0  0  0  0
   12.6380   -0.6970   23.4070 C   0  0  0  0  0  0  0  0  0  0  0  0
    5.7750    0.9670   17.3730 C   0  0  0  0  0  0  0  0  0  0  0  0
    7.3060    0.7490   19.0440 C   0  0  0  0  0  0  0  0  0  0  0  0
   10.6880   -3.4320   27.2870 C   0  0  0  0  0  0  0  0  0  0  0  0
   10.5360   -5.8530   26.4910 C   0  0  0  0  0  0  0  0  0  0  0  0
    5.5660    2.3380   19.3680 C   0  0  0  0  0  0  0  0  0  0  0  0
   10.4420    1.0430   22.9180 C   0  0  0  0  0  0  0  0  0  0  0  0
   10.2520   -3.6120   26.0010 C   0  0  0  0  0  0  0  0  0  0  0  0
    6.7310    1.7170   19.8650 C   0  0  0  0  0  0  0  0  0  0  0  0
   11.2720   -1.1510   23.6640 C   0  0  0  0  0  0  0  0  0  0  0  0
   12.8170    0.6050   22.8960 C   0  0  0  0  0  0  0  0  0  0  0  0
   10.0480   -5.0020   25.5970 C   0  0  0  0  0  0  0  0  0  0  0  0
    8.6460    1.8270   21.3060 C   0  0  0  0  0  0  0  0  0  0  0  0
    4.8650    3.4560   20.1320 C   0  0  0  0  0  0  0  0  0  0  0  0
    9.2560    1.9600   22.7340 C   0  0  0  0  0  0  0  0  0  0  0  0
    9.9860   -2.5040   25.1450 C   0  0  0  0  0  0  0  0  0  0  0  0
    6.8490    0.3980   17.8250 N   0  0  0  0  0  0  0  0  0  0  0  0
    7.3410    2.0620   21.0650 N   0  0  0  0  0  0  0  0  0  0  0  0
    9.4630    1.5990   20.4180 O   0  0  0  0  0  0  0  0  0  0  0  0
   10.9220   -2.4790   24.0190 O   0  0  0  0  0  0  0  0  0  0  0  0
   11.0760   -5.0370   27.9700 S   0  0  0  0  0  0  0  0  0  0  0  0
   14.3950    1.1210   22.4600 Cl  0  0  0  0  0  0  0  0  0  0  0  0
    9.4470   -5.5330   23.8740 Br  0  0  0  0  0  0  0  0  0  0  0  0
    4.2780    2.3840   17.6500 H   0  0  0  0  0  0  0  0  0  0  0  0
    9.2450   -0.5990   23.7020 H   0  0  0  0  0  0  0  0  0  0  0  0
   11.9170    2.4640   22.2750 H   0  0  0  0  0  0  0  0  0  0  0  0
   13.4940   -1.3600   23.3970 H   0  0  0  0  0  0  0  0  0  0  0  0
    5.3610    0.8260   16.3800 H   0  0  0  0  0  0  0  0  0  0  0  0
    8.0610    0.0800   19.4240 H   0  0  0  0  0  0  0  0  0  0  0  0
   10.8060   -2.5160   27.8480 H   0  0  0  0  0  0  0  0  0  0  0  0
   10.5190   -6.9260   26.3230 H   0  0  0  0  0  0  0  0  0  0  0  0
    4.2900    3.9900   19.3640 H   0  0  0  0  0  0  0  0  0  0  0  0
    4.2360    2.9990   20.8890 H   0  0  0  0  0  0  0  0  0  0  0  0
    5.5650    4.2200   20.5120 H   0  0  0  0  0  0  0  0  0  0  0  0
    8.4860    1.8140   23.4980 H   0  0  0  0  0  0  0  0  0  0  0  0
    9.5610    3.0110   22.7570 H   0  0  0  0  0  0  0  0  0  0  0  0
    8.9580   -2.5540   24.7650 H   0  0  0  0  0  0  0  0  0  0  0  0
   10.1830   -1.6000   25.7220 H   0  0  0  0  0  0  0  0  0  0  0  0
    6.7960    2.3560   21.8800 H   0  0  0  0  0  0  0  0  0  0  0  0
  5 31  1  0  0  0  0
  5 20  2  0  0  0  0
  1  5  1  0  0  0  0
  1 27  1  0  0  0  0
  6 20  1  0  0  0  0
  1  9  2  0  0  0  0
  6 32  1  0  0  0  0
  6 12  2  0  0  0  0
 17 35  1  0  0  0  0
  9 12  1  0  0  0  0
  9 17  1  0  0  0  0
 12 21  1  0  0  0  0
 17 37  1  0  0  0  0
 17 36  1  0  0  0  0
 16 22  2  0  0  0  0
 16 21  1  0  0  0  0
 21 42  1  0  0  0  0
 16 18  1  0  0  0  0
  3 29  1  0  0  0  0
 14 25  1  0  0  0  0
  3 14  2  0  0  0  0
  3 10  1  0  0  0  0
 18 39  1  0  0  0  0
 10 18  1  0  0  0  0
 18 38  1  0  0  0  0
  4 14  1  0  0  0  0
  2 10  2  0  0  0  0
  4 30  1  0  0  0  0
  4 13  2  0  0  0  0
  2 13  1  0  0  0  0
  2 28  1  0  0  0  0
 13 23  1  0  0  0  0
 15 26  1  0  0  0  0
 19 23  1  0  0  0  0
 19 40  1  0  0  0  0
 19 41  1  0  0  0  0
 11 19  1  0  0  0  0
 11 15  1  0  0  0  0
  8 15  2  0  0  0  0
  7 11  2  0  0  0  0
  8 34  1  0  0  0  0
  8 24  1  0  0  0  0
  7 33  1  0  0  0  0
  7 24  1  0  0  0  0
M  END
> <CID>
EN300-224566

> <SMILES>
Cc1ccncc1NC(=O)Cc2cc(cc(c2)Cl)OCc3cscc3Br

> <RUN>
RUN333

> <DDG (kcal/mol)>
-0.34

> <dDDG (kcal/mol)>
0.09

$$$$
EN300-7427269
  -OEChem-08252008263D

 41 43  0     0  0  0  0  0  0999 V2000
    6.0070    1.2750   19.3680 C   0  0  0  0  0  0  0  0  0  0  0  0
   12.6830    1.2990   23.2580 C   0  0  0  0  0  0  0  0  0  0  0  0
   12.8750   -1.0740   23.1230 C   0  0  0  0  0  0  0  0  0  0  0  0
   14.7860    0.3110   23.1520 C   0  0  0  0  0  0  0  0  0  0  0  0
    6.5180    0.9800   18.0750 C   0  0  0  0  0  0  0  0  0  0  0  0
   15.9330    5.4150   23.0850 C   0  0  0  0  0  0  0  0  0  0  0  0
    8.3600   -0.0480   19.0700 C   0  0  0  0  0  0  0  0  0  0  0  0
    6.6740    0.8520   20.5540 C   0  0  0  0  0  0  0  0  0  0  0  0
   12.0660    0.0850   23.2430 C   0  0  0  0  0  0  0  0  0  0  0  0
   14.6410    5.1070   23.6340 C   0  0  0  0  0  0  0  0  0  0  0  0
    7.8820    0.1710   20.3910 C   0  0  0  0  0  0  0  0  0  0  0  0
   14.0670    1.5040   23.2240 C   0  0  0  0  0  0  0  0  0  0  0  0
   14.2030   -0.9430   23.1040 C   0  0  0  0  0  0  0  0  0  0  0  0
   14.3460    5.8880   24.7160 C   0  0  0  0  0  0  0  0  0  0  0  0
    9.8760    0.2630   21.8720 C   0  0  0  0  0  0  0  0  0  0  0  0
    5.9850    1.1080   21.8910 C   0  0  0  0  0  0  0  0  0  0  0  0
   10.5460   -0.0270   23.2200 C   0  0  0  0  0  0  0  0  0  0  0  0
   13.9900    3.9330   23.0680 C   0  0  0  0  0  0  0  0  0  0  0  0
    7.7230    0.3400   17.9260 N   0  0  0  0  0  0  0  0  0  0  0  0
   16.6260    6.3000   23.7490 N   0  0  0  0  0  0  0  0  0  0  0  0
    8.6450   -0.2770   21.5390 N   0  0  0  0  0  0  0  0  0  0  0  0
   10.4880    0.9580   21.0180 O   0  0  0  0  0  0  0  0  0  0  0  0
   14.6990    2.7440   23.4070 O   0  0  0  0  0  0  0  0  0  0  0  0
   15.7600    6.9070   25.0510 S   0  0  0  0  0  0  0  0  0  0  0  0
   15.2300   -2.3050   22.9660 Cl  0  0  0  0  0  0  0  0  0  0  0  0
   12.7990    5.8230   25.9380 Br  0  0  0  0  0  0  0  0  0  0  0  0
    4.9910    1.6510   19.4120 H   0  0  0  0  0  0  0  0  0  0  0  0
   11.9700    2.1100   23.1310 H   0  0  0  0  0  0  0  0  0  0  0  0
   12.4770   -2.0610   22.9260 H   0  0  0  0  0  0  0  0  0  0  0  0
   15.8640    0.3380   23.1540 H   0  0  0  0  0  0  0  0  0  0  0  0
    6.0520    1.4370   17.2110 H   0  0  0  0  0  0  0  0  0  0  0  0
   16.4040    4.9070   22.2410 H   0  0  0  0  0  0  0  0  0  0  0  0
    9.2850   -0.6100   19.0650 H   0  0  0  0  0  0  0  0  0  0  0  0
    6.7090    1.4020   22.6670 H   0  0  0  0  0  0  0  0  0  0  0  0
    5.1130    1.7570   21.8840 H   0  0  0  0  0  0  0  0  0  0  0  0
    5.4370    0.2220   22.2310 H   0  0  0  0  0  0  0  0  0  0  0  0
   10.3000   -1.0670   23.4260 H   0  0  0  0  0  0  0  0  0  0  0  0
   10.0550    0.5980   23.9680 H   0  0  0  0  0  0  0  0  0  0  0  0
   12.9500    3.8220   23.3890 H   0  0  0  0  0  0  0  0  0  0  0  0
   14.0020    4.0750   21.9830 H   0  0  0  0  0  0  0  0  0  0  0  0
    8.1500   -0.6610   22.3460 H   0  0  0  0  0  0  0  0  0  0  0  0
  5 31  1  0  0  0  0
  5 19  2  0  0  0  0
  7 19  1  0  0  0  0
  1  5  1  0  0  0  0
  7 33  1  0  0  0  0
  7 11  2  0  0  0  0
  1 27  1  0  0  0  0
  1  8  2  0  0  0  0
  8 11  1  0  0  0  0
 11 21  1  0  0  0  0
  8 16  1  0  0  0  0
 15 22  2  0  0  0  0
 15 21  1  0  0  0  0
 21 41  1  0  0  0  0
 15 17  1  0  0  0  0
 16 35  1  0  0  0  0
 16 36  1  0  0  0  0
 16 34  1  0  0  0  0
 18 40  1  0  0  0  0
  6 32  1  0  0  0  0
  3 29  1  0  0  0  0
 13 25  1  0  0  0  0
 18 39  1  0  0  0  0
 18 23  1  0  0  0  0
 10 18  1  0  0  0  0
  6 10  1  0  0  0  0
  6 20  2  0  0  0  0
  3 13  2  0  0  0  0
  4 13  1  0  0  0  0
  3  9  1  0  0  0  0
  2 28  1  0  0  0  0
  4 30  1  0  0  0  0
  4 12  2  0  0  0  0
  9 17  1  0  0  0  0
 17 37  1  0  0  0  0
 17 38  1  0  0  0  0
  2 12  1  0  0  0  0
 12 23  1  0  0  0  0
  2  9  2  0  0  0  0
 10 14  2  0  0  0  0
 20 24  1  0  0  0  0
 14 24  1  0  0  0  0
 14 26  1  0  0  0  0
M  END
> <CID>
EN300-7427269

> <SMILES>
Cc1ccncc1NC(=O)Cc2cc(cc(c2)Cl)OCc3cnsc3Br

> <RUN>
RUN834

> <DDG (kcal/mol)>
-0.34

> <dDDG (kcal/mol)>
0.11

$$$$
EN300-180043
  -OEChem-08252008263D

 46 48  0     0  0  0  0  0  0999 V2000
   13.7020    2.6860   26.8380 C   0  0  0  0  0  0  0  0  0  0  0  0
   14.4130    2.0740   25.8120 C   0  0  0  0  0  0  0  0  0  0  0  0
    5.3110    0.3120   20.4170 C   0  0  0  0  0  0  0  0  0  0  0  0
   12.7480    1.0550   22.9840 C   0  0  0  0  0  0  0  0  0  0  0  0
   12.6760   -1.2820   22.3970 C   0  0  0  0  0  0  0  0  0  0  0  0
   14.6080   -0.0490   21.8780 C   0  0  0  0  0  0  0  0  0  0  0  0
   13.6130    4.1260   26.8400 C   0  0  0  0  0  0  0  0  0  0  0  0
    5.8400    0.2700   19.1610 C   0  0  0  0  0  0  0  0  0  0  0  0
    7.9390   -0.1420   19.9030 C   0  0  0  0  0  0  0  0  0  0  0  0
   15.0340    2.8560   24.8370 C   0  0  0  0  0  0  0  0  0  0  0  0
    6.1460    0.0980   21.4780 C   0  0  0  0  0  0  0  0  0  0  0  0
   12.0490   -0.1590   23.0410 C   0  0  0  0  0  0  0  0  0  0  0  0
    7.4600   -0.1280   21.2710 C   0  0  0  0  0  0  0  0  0  0  0  0
   14.0330    1.1360   22.4580 C   0  0  0  0  0  0  0  0  0  0  0  0
   13.8680   -1.2160   21.8170 C   0  0  0  0  0  0  0  0  0  0  0  0
   15.0050    4.2770   24.9460 C   0  0  0  0  0  0  0  0  0  0  0  0
    9.5300    0.2650   22.6520 C   0  0  0  0  0  0  0  0  0  0  0  0
    5.6000    0.0100   22.8330 C   0  0  0  0  0  0  0  0  0  0  0  0
   10.5880   -0.3000   23.6450 C   0  0  0  0  0  0  0  0  0  0  0  0
   15.7360    2.2660   23.6460 C   0  0  0  0  0  0  0  0  0  0  0  0
    7.1800    0.1130   18.8560 N   0  0  0  0  0  0  0  0  0  0  0  0
   14.2340    4.8660   25.8470 N   0  0  0  0  0  0  0  0  0  0  0  0
    8.3260   -0.4220   22.3370 N   0  0  0  0  0  0  0  0  0  0  0  0
   15.7220    5.1300   24.0730 N   0  0  0  0  0  0  0  0  0  0  0  0
    9.7130    1.3270   22.0760 O   0  0  0  0  0  0  0  0  0  0  0  0
   16.4870    5.8870   24.6210 O   0  0  0  0  0  0  0  0  0  0  0  0
   15.5830    5.0290   22.8610 O   0  0  0  0  0  0  0  0  0  0  0  0
   14.8380    2.2380   22.5730 O   0  0  0  0  0  0  0  0  0  0  0  0
   14.5180   -2.6240   21.0470 Cl  0  0  0  0  0  0  0  0  0  0  0  0
   13.2400    2.0360   27.5690 H   0  0  0  0  0  0  0  0  0  0  0  0
   14.4440    1.0200   25.5640 H   0  0  0  0  0  0  0  0  0  0  0  0
    4.2980    0.6870   20.4450 H   0  0  0  0  0  0  0  0  0  0  0  0
   12.3070    1.9170   23.4670 H   0  0  0  0  0  0  0  0  0  0  0  0
   12.1660   -2.2400   22.3270 H   0  0  0  0  0  0  0  0  0  0  0  0
   15.6370    0.0150   21.5410 H   0  0  0  0  0  0  0  0  0  0  0  0
   12.9270    4.6110   27.5340 H   0  0  0  0  0  0  0  0  0  0  0  0
    5.1190    0.5560   18.4050 H   0  0  0  0  0  0  0  0  0  0  0  0
    8.9410   -0.4710   19.6530 H   0  0  0  0  0  0  0  0  0  0  0  0
    6.3450   -0.0100   23.6280 H   0  0  0  0  0  0  0  0  0  0  0  0
    4.9360    0.8240   23.1280 H   0  0  0  0  0  0  0  0  0  0  0  0
    5.1370   -0.9620   23.0100 H   0  0  0  0  0  0  0  0  0  0  0  0
   10.4950   -1.3140   24.0290 H   0  0  0  0  0  0  0  0  0  0  0  0
   10.5590    0.2750   24.5760 H   0  0  0  0  0  0  0  0  0  0  0  0
   16.6450    2.8280   23.4360 H   0  0  0  0  0  0  0  0  0  0  0  0
   16.0690    1.2470   23.8290 H   0  0  0  0  0  0  0  0  0  0  0  0
    8.0850   -1.1740   22.9850 H   0  0  0  0  0  0  0  0  0  0  0  0
  8 37  1  0  0  0  0
  8 21  2  0  0  0  0
  9 21  1  0  0  0  0
  3  8  1  0  0  0  0
  9 38  1  0  0  0  0
  9 13  2  0  0  0  0
  3 32  1  0  0  0  0
  3 11  2  0  0  0  0
 15 29  1  0  0  0  0
 11 13  1  0  0  0  0
 13 23  1  0  0  0  0
 11 18  1  0  0  0  0
  6 35  1  0  0  0  0
  6 15  2  0  0  0  0
  5 15  1  0  0  0  0
  6 14  1  0  0  0  0
 17 25  2  0  0  0  0
  5 34  1  0  0  0  0
 17 23  1  0  0  0  0
 23 46  1  0  0  0  0
  5 12  2  0  0  0  0
 14 28  1  0  0  0  0
  4 14  2  0  0  0  0
 20 28  1  0  0  0  0
 17 19  1  0  0  0  0
 18 41  1  0  0  0  0
 18 40  1  0  0  0  0
 18 39  1  0  0  0  0
 24 27  2  0  0  0  0
  4 12  1  0  0  0  0
  4 33  1  0  0  0  0
 12 19  1  0  0  0  0
 20 44  1  0  0  0  0
 19 42  1  0  0  0  0
 19 43  1  0  0  0  0
 20 45  1  0  0  0  0
 10 20  1  0  0  0  0
 24 26  2  0  0  0  0
 16 24  1  0  0  0  0
 10 16  2  0  0  0  0
  2 10  1  0  0  0  0
 16 22  1  0  0  0  0
  2 31  1  0  0  0  0
  1  2  2  0  0  0  0
  7 22  2  0  0  0  0
  1  7  1  0  0  0  0
  1 30  1  0  0  0  0
  7 36  1  0  0  0  0
M  END
> <CID>
EN300-180043

> <SMILES>
Cc1ccncc1NC(=O)Cc2cc(cc(c2)Cl)OCc3cccnc3N(=O)=O

> <RUN>
RUN1551

> <DDG (kcal/mol)>
-0.33

> <dDDG (kcal/mol)>
0.12

$$$$
EN300-1916585
  -OEChem-08252008263D

 52 54  0     0  0  0  0  0  0999 V2000
   13.6750    5.7010   22.8360 C   0  0  0  0  0  0  0  0  0  0  0  0
   14.3240    6.8800   23.0850 C   0  0  0  0  0  0  0  0  0  0  0  0
    5.6110    1.7940   18.7610 C   0  0  0  0  0  0  0  0  0  0  0  0
   12.0050    6.1810   24.4940 C   0  0  0  0  0  0  0  0  0  0  0  0
   10.5350    1.6030   23.4450 C   0  0  0  0  0  0  0  0  0  0  0  0
   10.7660   -0.6750   22.9190 C   0  0  0  0  0  0  0  0  0  0  0  0
   12.5380    0.8400   22.4000 C   0  0  0  0  0  0  0  0  0  0  0  0
    6.1320    0.9360   17.8160 C   0  0  0  0  0  0  0  0  0  0  0  0
    7.5250   -0.0730   19.3160 C   0  0  0  0  0  0  0  0  0  0  0  0
   12.7210    7.3900   24.7760 C   0  0  0  0  0  0  0  0  0  0  0  0
   12.5010    5.3670   23.5270 C   0  0  0  0  0  0  0  0  0  0  0  0
    6.1220    1.8120   20.0150 C   0  0  0  0  0  0  0  0  0  0  0  0
   10.0020    0.2820   23.4490 C   0  0  0  0  0  0  0  0  0  0  0  0
    7.1460    0.8460   20.3170 C   0  0  0  0  0  0  0  0  0  0  0  0
   13.8040    7.7350   23.9720 C   0  0  0  0  0  0  0  0  0  0  0  0
   11.8170    1.8990   22.8720 C   0  0  0  0  0  0  0  0  0  0  0  0
   12.0480   -0.4600   22.3850 C   0  0  0  0  0  0  0  0  0  0  0  0
   12.2800    8.2910   25.9240 C   0  0  0  0  0  0  0  0  0  0  0  0
    7.8380   -0.1410   22.3830 C   0  0  0  0  0  0  0  0  0  0  0  0
    5.7480    2.8910   21.0700 C   0  0  0  0  0  0  0  0  0  0  0  0
   12.5890   10.1770   27.4460 C   0  0  0  0  0  0  0  0  0  0  0  0
    8.5240    0.0950   23.7400 C   0  0  0  0  0  0  0  0  0  0  0  0
   11.5600    4.2510   23.1910 C   0  0  0  0  0  0  0  0  0  0  0  0
    7.0820   -0.0010   18.0660 N   0  0  0  0  0  0  0  0  0  0  0  0
    7.7030    0.9060   21.5560 N   0  0  0  0  0  0  0  0  0  0  0  0
   11.3690    7.8410   26.6210 O   0  0  0  0  0  0  0  0  0  0  0  0
    7.6420   -1.2730   21.9530 O   0  0  0  0  0  0  0  0  0  0  0  0
   14.4050    8.9530   24.0450 O   0  0  0  0  0  0  0  0  0  0  0  0
   12.3940    3.1940   22.7520 O   0  0  0  0  0  0  0  0  0  0  0  0
   12.9690    9.4510   26.1960 O   0  0  0  0  0  0  0  0  0  0  0  0
   12.9260   -1.7620   21.6430 Cl  0  0  0  0  0  0  0  0  0  0  0  0
   13.9760    4.9810   22.0770 H   0  0  0  0  0  0  0  0  0  0  0  0
   15.2170    7.2210   22.5650 H   0  0  0  0  0  0  0  0  0  0  0  0
    4.8600    2.5330   18.4810 H   0  0  0  0  0  0  0  0  0  0  0  0
   11.0420    6.0900   24.9860 H   0  0  0  0  0  0  0  0  0  0  0  0
    9.8330    2.3490   23.8030 H   0  0  0  0  0  0  0  0  0  0  0  0
   10.4180   -1.7070   22.9570 H   0  0  0  0  0  0  0  0  0  0  0  0
   13.5130    1.0740   21.9770 H   0  0  0  0  0  0  0  0  0  0  0  0
    5.8600    0.9510   16.7670 H   0  0  0  0  0  0  0  0  0  0  0  0
    8.2010   -0.8740   19.5910 H   0  0  0  0  0  0  0  0  0  0  0  0
    5.4860    2.4190   22.0230 H   0  0  0  0  0  0  0  0  0  0  0  0
    6.5540    3.6180   21.2040 H   0  0  0  0  0  0  0  0  0  0  0  0
    4.8390    3.3650   20.6810 H   0  0  0  0  0  0  0  0  0  0  0  0
   11.7050   10.7820   27.2480 H   0  0  0  0  0  0  0  0  0  0  0  0
   13.3920   10.9060   27.6250 H   0  0  0  0  0  0  0  0  0  0  0  0
   12.6340    9.4790   28.2900 H   0  0  0  0  0  0  0  0  0  0  0  0
    8.3850   -0.7410   24.4370 H   0  0  0  0  0  0  0  0  0  0  0  0
    8.1470    0.9780   24.2710 H   0  0  0  0  0  0  0  0  0  0  0  0
   10.9040    4.5080   22.3470 H   0  0  0  0  0  0  0  0  0  0  0  0
   10.9720    4.1060   24.1000 H   0  0  0  0  0  0  0  0  0  0  0  0
    7.9580    1.8220   21.9180 H   0  0  0  0  0  0  0  0  0  0  0  0
   14.1280    9.4530   24.8310 H   0  0  0  0  0  0  0  0  0  0  0  0
  8 39  1  0  0  0  0
  8 24  2  0  0  0  0
  3  8  1  0  0  0  0
  9 24  1  0  0  0  0
  3 34  1  0  0  0  0
  3 12  2  0  0  0  0
  9 40  1  0  0  0  0
  9 14  2  0  0  0  0
 12 14  1  0  0  0  0
 12 20  1  0  0  0  0
 14 25  1  0  0  0  0
 20 43  1  0  0  0  0
 20 42  1  0  0  0  0
 20 41  1  0  0  0  0
 25 51  1  0  0  0  0
 19 25  1  0  0  0  0
 17 31  1  0  0  0  0
 19 27  2  0  0  0  0
  7 38  1  0  0  0  0
  1 32  1  0  0  0  0
 23 49  1  0  0  0  0
 19 22  1  0  0  0  0
  7 17  2  0  0  0  0
  6 17  1  0  0  0  0
  7 16  1  0  0  0  0
  2 33  1  0  0  0  0
 16 29  1  0  0  0  0
 23 29  1  0  0  0  0
  1  2  2  0  0  0  0
  1 11  1  0  0  0  0
  5 16  2  0  0  0  0
  6 37  1  0  0  0  0
  6 13  2  0  0  0  0
  2 15  1  0  0  0  0
 11 23  1  0  0  0  0
 23 50  1  0  0  0  0
  5 13  1  0  0  0  0
  5 36  1  0  0  0  0
 13 22  1  0  0  0  0
  4 11  2  0  0  0  0
 22 48  1  0  0  0  0
 22 47  1  0  0  0  0
 15 28  1  0  0  0  0
 10 15  2  0  0  0  0
 28 52  1  0  0  0  0
  4 10  1  0  0  0  0
  4 35  1  0  0  0  0
 10 18  1  0  0  0  0
 18 30  1  0  0  0  0
 18 26  2  0  0  0  0
 21 30  1  0  0  0  0
 21 44  1  0  0  0  0
 21 45  1  0  0  0  0
 21 46  1  0  0  0  0
M  END
> <CID>
EN300-1916585

> <SMILES>
Cc1ccncc1NC(=O)Cc2cc(cc(c2)Cl)OCc3ccc(c(c3)C(=O)OC)O

> <RUN>
RUN1342

> <DDG (kcal/mol)>
-0.33

> <dDDG (kcal/mol)>
0.17

$$$$
EN300-841086
  -OEChem-08252008263D

 64 67  0     0  0  0  0  0  0999 V2000
   12.5400    7.7480   24.6040 C   0  0  0  0  0  0  0  0  0  0  0  0
   11.1830    7.7530   24.9160 C   0  0  0  0  0  0  0  0  0  0  0  0
   13.0440    6.8180   23.7040 C   0  0  0  0  0  0  0  0  0  0  0  0
    5.0470    1.0450   19.6150 C   0  0  0  0  0  0  0  0  0  0  0  0
   10.8490    5.9070   23.4220 C   0  0  0  0  0  0  0  0  0  0  0  0
   11.7490    2.5170   23.2280 C   0  0  0  0  0  0  0  0  0  0  0  0
   12.0960    0.4050   24.3530 C   0  0  0  0  0  0  0  0  0  0  0  0
   13.9980    1.8300   23.8790 C   0  0  0  0  0  0  0  0  0  0  0  0
    5.6260    0.2320   18.6780 C   0  0  0  0  0  0  0  0  0  0  0  0
    7.5010   -0.0280   19.9930 C   0  0  0  0  0  0  0  0  0  0  0  0
    6.8780    6.4560   25.1250 C   0  0  0  0  0  0  0  0  0  0  0  0
   10.3650    6.8500   24.2780 C   0  0  0  0  0  0  0  0  0  0  0  0
   12.2570    5.8400   23.1000 C   0  0  0  0  0  0  0  0  0  0  0  0
    5.7120    1.3260   20.8120 C   0  0  0  0  0  0  0  0  0  0  0  0
   11.1630    1.3180   23.7770 C   0  0  0  0  0  0  0  0  0  0  0  0
    8.0390    5.8060   24.8690 C   0  0  0  0  0  0  0  0  0  0  0  0
    7.0040    0.7910   21.0180 C   0  0  0  0  0  0  0  0  0  0  0  0
   13.1410    2.8290   23.3550 C   0  0  0  0  0  0  0  0  0  0  0  0
   13.4980    0.6200   24.3790 C   0  0  0  0  0  0  0  0  0  0  0  0
    8.9490    6.9080   24.5290 C   0  0  0  0  0  0  0  0  0  0  0  0
    9.0470    1.0980   22.3390 C   0  0  0  0  0  0  0  0  0  0  0  0
    5.1470    2.3770   21.7550 C   0  0  0  0  0  0  0  0  0  0  0  0
    6.1230    9.9290   23.9020 C   0  0  0  0  0  0  0  0  0  0  0  0
    5.3970    9.2190   26.1420 C   0  0  0  0  0  0  0  0  0  0  0  0
    9.7410    1.0820   23.7380 C   0  0  0  0  0  0  0  0  0  0  0  0
   12.9450    4.9460   22.1480 C   0  0  0  0  0  0  0  0  0  0  0  0
    8.2210    4.2470   24.9550 C   0  0  0  0  0  0  0  0  0  0  0  0
    5.8650    8.7180   24.7700 C   0  0  0  0  0  0  0  0  0  0  0  0
    6.8260   -0.2430   18.8620 N   0  0  0  0  0  0  0  0  0  0  0  0
    8.2700    8.0440   24.5300 N   0  0  0  0  0  0  0  0  0  0  0  0
    6.9970    7.7580   24.8170 N   0  0  0  0  0  0  0  0  0  0  0  0
    7.7310    0.9390   22.2240 N   0  0  0  0  0  0  0  0  0  0  0  0
    9.7400    1.2620   21.3110 O   0  0  0  0  0  0  0  0  0  0  0  0
   13.7390    3.9490   22.7900 O   0  0  0  0  0  0  0  0  0  0  0  0
    9.5040    3.9170   25.4020 F   0  0  0  0  0  0  0  0  0  0  0  0
    7.9580    3.6040   23.7410 F   0  0  0  0  0  0  0  0  0  0  0  0
   14.5350   -0.7100   24.9540 Cl  0  0  0  0  0  0  0  0  0  0  0  0
   13.1840    8.3910   25.1880 H   0  0  0  0  0  0  0  0  0  0  0  0
   10.7010    8.3960   25.6360 H   0  0  0  0  0  0  0  0  0  0  0  0
   14.1220    6.9510   23.6500 H   0  0  0  0  0  0  0  0  0  0  0  0
    4.0910    1.4950   19.3830 H   0  0  0  0  0  0  0  0  0  0  0  0
   10.1050    5.1820   23.0900 H   0  0  0  0  0  0  0  0  0  0  0  0
   11.0990    3.2500   22.7740 H   0  0  0  0  0  0  0  0  0  0  0  0
   11.6870   -0.4740   24.8270 H   0  0  0  0  0  0  0  0  0  0  0  0
   15.0810    1.8720   23.8140 H   0  0  0  0  0  0  0  0  0  0  0  0
    5.2750   -0.0880   17.6980 H   0  0  0  0  0  0  0  0  0  0  0  0
    8.4590   -0.5250   20.0750 H   0  0  0  0  0  0  0  0  0  0  0  0
    5.9040    6.0540   25.4090 H   0  0  0  0  0  0  0  0  0  0  0  0
    5.8110    3.2290   21.6210 H   0  0  0  0  0  0  0  0  0  0  0  0
    4.1310    2.6450   21.4390 H   0  0  0  0  0  0  0  0  0  0  0  0
    5.0340    1.9030   22.7330 H   0  0  0  0  0  0  0  0  0  0  0  0
    7.1450   10.3350   23.8400 H   0  0  0  0  0  0  0  0  0  0  0  0
    5.4670   10.7470   24.2050 H   0  0  0  0  0  0  0  0  0  0  0  0
    5.8520    9.6590   22.8730 H   0  0  0  0  0  0  0  0  0  0  0  0
    6.2810    9.6170   26.6480 H   0  0  0  0  0  0  0  0  0  0  0  0
    4.9140    8.4510   26.7610 H   0  0  0  0  0  0  0  0  0  0  0  0
    4.7390   10.0960   26.1270 H   0  0  0  0  0  0  0  0  0  0  0  0
    9.5360    0.1190   24.2200 H   0  0  0  0  0  0  0  0  0  0  0  0
    9.2280    1.8130   24.3740 H   0  0  0  0  0  0  0  0  0  0  0  0
   12.2710    4.5270   21.3900 H   0  0  0  0  0  0  0  0  0  0  0  0
   13.6870    5.6130   21.6980 H   0  0  0  0  0  0  0  0  0  0  0  0
    7.5650    3.9250   25.7670 H   0  0  0  0  0  0  0  0  0  0  0  0
    4.9650    8.2530   24.3670 H   0  0  0  0  0  0  0  0  0  0  0  0
    7.1700    1.0700   23.0690 H   0  0  0  0  0  0  0  0  0  0  0  0
  9 46  1  0  0  0  0
  9 29  2  0  0  0  0
  4  9  1  0  0  0  0
 10 29  1  0  0  0  0
  4 41  1  0  0  0  0
  4 14  2  0  0  0  0
 10 47  1  0  0  0  0
 10 17  2  0  0  0  0
 14 17  1  0  0  0  0
 14 22  1  0  0  0  0
 17 32  1  0  0  0  0
 21 33  2  0  0  0  0
 26 60  1  0  0  0  0
 22 50  1  0  0  0  0
 22 49  1  0  0  0  0
 26 61  1  0  0  0  0
 22 51  1  0  0  0  0
 26 34  1  0  0  0  0
 13 26  1  0  0  0  0
 21 32  1  0  0  0  0
 32 64  1  0  0  0  0
 21 25  1  0  0  0  0
  6 43  1  0  0  0  0
 18 34  1  0  0  0  0
 23 54  1  0  0  0  0
  5 42  1  0  0  0  0
  5 13  2  0  0  0  0
  3 13  1  0  0  0  0
  6 18  2  0  0  0  0
  6 15  1  0  0  0  0
  8 18  1  0  0  0  0
  5 12  1  0  0  0  0
  3 40  1  0  0  0  0
  1  3  2  0  0  0  0
 15 25  1  0  0  0  0
 25 58  1  0  0  0  0
 25 59  1  0  0  0  0
 27 36  1  0  0  0  0
  7 15  2  0  0  0  0
  8 45  1  0  0  0  0
 23 52  1  0  0  0  0
  8 19  2  0  0  0  0
 23 53  1  0  0  0  0
 23 28  1  0  0  0  0
 12 20  1  0  0  0  0
  2 12  2  0  0  0  0
  7 19  1  0  0  0  0
  7 44  1  0  0  0  0
 28 63  1  0  0  0  0
 19 37  1  0  0  0  0
 20 30  2  0  0  0  0
 16 20  1  0  0  0  0
 30 31  1  0  0  0  0
  1  2  1  0  0  0  0
  1 38  1  0  0  0  0
 28 31  1  0  0  0  0
 24 28  1  0  0  0  0
 11 31  1  0  0  0  0
 16 27  1  0  0  0  0
 11 16  2  0  0  0  0
  2 39  1  0  0  0  0
 27 35  1  0  0  0  0
 27 62  1  0  0  0  0
 11 48  1  0  0  0  0
 24 57  1  0  0  0  0
 24 55  1  0  0  0  0
 24 56  1  0  0  0  0
M  END
> <CID>
EN300-841086

> <SMILES>
Cc1ccncc1NC(=O)Cc2cc(cc(c2)Cl)OCc3cccc(c3)c4c(cn(n4)C(C)C)C(F)F

> <RUN>
RUN798

> <DDG (kcal/mol)>
-0.33

> <dDDG (kcal/mol)>
0.20

$$$$
EN300-766689
  -OEChem-08252008263D

 54 57  0     0  0  0  0  0  0999 V2000
   12.1600    5.8230   22.1520 C   0  0  0  0  0  0  0  0  0  0  0  0
   12.5160    4.5530   22.5540 C   0  0  0  0  0  0  0  0  0  0  0  0
   11.7560    6.7700   23.0740 C   0  0  0  0  0  0  0  0  0  0  0  0
    4.3910    2.1850   18.5760 C   0  0  0  0  0  0  0  0  0  0  0  0
   10.8280    1.5930   23.2690 C   0  0  0  0  0  0  0  0  0  0  0  0
   11.2550   -0.5230   22.1480 C   0  0  0  0  0  0  0  0  0  0  0  0
   13.0710    0.9240   23.0370 C   0  0  0  0  0  0  0  0  0  0  0  0
    5.0470    1.8800   17.3620 C   0  0  0  0  0  0  0  0  0  0  0  0
    6.8770    1.0910   18.4810 C   0  0  0  0  0  0  0  0  0  0  0  0
   12.2670    5.5080   27.3510 C   0  0  0  0  0  0  0  0  0  0  0  0
    5.0500    1.8450   19.7910 C   0  0  0  0  0  0  0  0  0  0  0  0
   10.3510    0.4180   22.5930 C   0  0  0  0  0  0  0  0  0  0  0  0
   11.9070    5.1230   24.8340 C   0  0  0  0  0  0  0  0  0  0  0  0
    6.2820    1.2840   19.7160 C   0  0  0  0  0  0  0  0  0  0  0  0
   12.3570    4.1560   23.8640 C   0  0  0  0  0  0  0  0  0  0  0  0
   12.1760    1.7940   23.5160 C   0  0  0  0  0  0  0  0  0  0  0  0
   11.6660    6.4750   24.4590 C   0  0  0  0  0  0  0  0  0  0  0  0
   12.5990   -0.2860   22.2930 C   0  0  0  0  0  0  0  0  0  0  0  0
   12.1690    4.6530   28.4190 C   0  0  0  0  0  0  0  0  0  0  0  0
    8.2790    1.0070   21.1570 C   0  0  0  0  0  0  0  0  0  0  0  0
    4.4480    2.0810   21.1430 C   0  0  0  0  0  0  0  0  0  0  0  0
    8.9150    0.2640   22.3760 C   0  0  0  0  0  0  0  0  0  0  0  0
   12.5730    4.8450   29.8930 C   0  0  0  0  0  0  0  0  0  0  0  0
   13.1060    6.2380   30.2290 C   0  0  0  0  0  0  0  0  0  0  0  0
    6.2420    1.2930   17.2740 N   0  0  0  0  0  0  0  0  0  0  0  0
   11.6410    3.5040   27.9320 N   0  0  0  0  0  0  0  0  0  0  0  0
   11.4040    3.5720   26.7130 N   0  0  0  0  0  0  0  0  0  0  0  0
   11.8920    4.8150   26.2610 N   0  0  0  0  0  0  0  0  0  0  0  0
    6.9120    0.9220   20.8600 N   0  0  0  0  0  0  0  0  0  0  0  0
    8.9360    1.8420   20.4970 O   0  0  0  0  0  0  0  0  0  0  0  0
   12.6620    2.8560   24.2700 O   0  0  0  0  0  0  0  0  0  0  0  0
   11.3660    7.4650   25.4020 F   0  0  0  0  0  0  0  0  0  0  0  0
   13.7850   -1.4390   21.6290 Cl  0  0  0  0  0  0  0  0  0  0  0  0
   11.5470    7.4780   30.4740 Br  0  0  0  0  0  0  0  0  0  0  0  0
   12.3380    6.1370   21.1270 H   0  0  0  0  0  0  0  0  0  0  0  0
   12.9420    3.8230   21.8730 H   0  0  0  0  0  0  0  0  0  0  0  0
   11.4620    7.7480   22.7120 H   0  0  0  0  0  0  0  0  0  0  0  0
    3.4380    2.6970   18.5560 H   0  0  0  0  0  0  0  0  0  0  0  0
   10.2100    2.4410   23.5500 H   0  0  0  0  0  0  0  0  0  0  0  0
   10.9170   -1.4300   21.6620 H   0  0  0  0  0  0  0  0  0  0  0  0
   14.1430    1.0570   23.1410 H   0  0  0  0  0  0  0  0  0  0  0  0
    4.5170    2.2260   16.4740 H   0  0  0  0  0  0  0  0  0  0  0  0
    7.8550    0.6170   18.4650 H   0  0  0  0  0  0  0  0  0  0  0  0
   12.5670    6.5500   27.3920 H   0  0  0  0  0  0  0  0  0  0  0  0
    4.2450    1.1260   21.6450 H   0  0  0  0  0  0  0  0  0  0  0  0
    4.9790    2.9000   21.6300 H   0  0  0  0  0  0  0  0  0  0  0  0
    3.4010    2.3820   20.9960 H   0  0  0  0  0  0  0  0  0  0  0  0
    8.6510   -0.7950   22.3140 H   0  0  0  0  0  0  0  0  0  0  0  0
    8.4730    0.5960   23.3310 H   0  0  0  0  0  0  0  0  0  0  0  0
   13.3580    4.1290   30.1710 H   0  0  0  0  0  0  0  0  0  0  0  0
   11.7870    4.5790   30.6050 H   0  0  0  0  0  0  0  0  0  0  0  0
   13.5960    6.2110   31.2080 H   0  0  0  0  0  0  0  0  0  0  0  0
   13.8400    6.6830   29.5530 H   0  0  0  0  0  0  0  0  0  0  0  0
    6.4110    0.4600   21.6170 H   0  0  0  0  0  0  0  0  0  0  0  0
  8 42  1  0  0  0  0
  8 25  2  0  0  0  0
  9 25  1  0  0  0  0
  4  8  1  0  0  0  0
  9 43  1  0  0  0  0
  9 14  2  0  0  0  0
  4 38  1  0  0  0  0
  4 11  2  0  0  0  0
 11 14  1  0  0  0  0
 14 29  1  0  0  0  0
 11 21  1  0  0  0  0
 20 30  2  0  0  0  0
 20 29  1  0  0  0  0
 29 54  1  0  0  0  0
 21 47  1  0  0  0  0
  1 35  1  0  0  0  0
 21 46  1  0  0  0  0
 21 45  1  0  0  0  0
 20 22  1  0  0  0  0
 18 33  1  0  0  0  0
  6 40  1  0  0  0  0
  2 36  1  0  0  0  0
  6 18  2  0  0  0  0
  6 12  1  0  0  0  0
  1  2  2  0  0  0  0
  1  3  1  0  0  0  0
  7 18  1  0  0  0  0
 22 48  1  0  0  0  0
 12 22  1  0  0  0  0
 22 49  1  0  0  0  0
  2 15  1  0  0  0  0
  5 12  2  0  0  0  0
  3 37  1  0  0  0  0
  7 41  1  0  0  0  0
  7 16  2  0  0  0  0
  3 17  2  0  0  0  0
  5 16  1  0  0  0  0
  5 39  1  0  0  0  0
 16 31  1  0  0  0  0
 15 31  1  0  0  0  0
 13 15  2  0  0  0  0
 13 17  1  0  0  0  0
 17 32  1  0  0  0  0
 13 28  1  0  0  0  0
 27 28  1  0  0  0  0
 10 28  1  0  0  0  0
 26 27  2  0  0  0  0
 10 44  1  0  0  0  0
 10 19  2  0  0  0  0
 19 26  1  0  0  0  0
 19 23  1  0  0  0  0
 24 53  1  0  0  0  0
 23 50  1  0  0  0  0
 23 24  1  0  0  0  0
 23 51  1  0  0  0  0
 24 34  1  0  0  0  0
 24 52  1  0  0  0  0
M  END
> <CID>
EN300-766689

> <SMILES>
Cc1ccncc1NC(=O)Cc2cc(cc(c2)Cl)Oc3cccc(c3n4cc(nn4)CCBr)F

> <RUN>
RUN3550

> <DDG (kcal/mol)>
-0.33

> <dDDG (kcal/mol)>
0.21

$$$$
EN300-202844
  -OEChem-08252008263D

 51 53  0     0  0  0  0  0  0999 V2000
   11.9600    5.9010   22.0170 C   0  0  0  0  0  0  0  0  0  0  0  0
   12.6860    4.7570   22.1910 C   0  0  0  0  0  0  0  0  0  0  0  0
    4.8240    1.2890   18.9480 C   0  0  0  0  0  0  0  0  0  0  0  0
   12.1110    4.7070   24.4840 C   0  0  0  0  0  0  0  0  0  0  0  0
   11.8380    1.5090   22.7510 C   0  0  0  0  0  0  0  0  0  0  0  0
   12.4550   -0.6030   21.7290 C   0  0  0  0  0  0  0  0  0  0  0  0
   14.2050    0.9300   22.3370 C   0  0  0  0  0  0  0  0  0  0  0  0
    5.4270    1.2130   17.6400 C   0  0  0  0  0  0  0  0  0  0  0  0
    7.4420    0.6860   18.4700 C   0  0  0  0  0  0  0  0  0  0  0  0
   11.3010    5.8720   24.3490 C   0  0  0  0  0  0  0  0  0  0  0  0
   11.1860    6.4330   23.0870 C   0  0  0  0  0  0  0  0  0  0  0  0
    5.6430    1.0470   20.0500 C   0  0  0  0  0  0  0  0  0  0  0  0
   11.5070    0.2540   22.2420 C   0  0  0  0  0  0  0  0  0  0  0  0
    6.9710    0.8020   19.8250 C   0  0  0  0  0  0  0  0  0  0  0  0
   12.7990    4.1270   23.4190 C   0  0  0  0  0  0  0  0  0  0  0  0
   13.2250    1.8560   22.8150 C   0  0  0  0  0  0  0  0  0  0  0  0
   13.7920   -0.2570   21.6720 C   0  0  0  0  0  0  0  0  0  0  0  0
   10.7160    6.4580   25.5790 C   0  0  0  0  0  0  0  0  0  0  0  0
    9.1350    0.5740   21.0810 C   0  0  0  0  0  0  0  0  0  0  0  0
    5.0610    0.9900   21.4880 C   0  0  0  0  0  0  0  0  0  0  0  0
   10.1450    6.2750   27.8070 C   0  0  0  0  0  0  0  0  0  0  0  0
    9.9890   -0.1060   22.1430 C   0  0  0  0  0  0  0  0  0  0  0  0
   10.1880    7.6100   22.6840 C   0  0  0  0  0  0  0  0  0  0  0  0
    6.7180    0.8830   17.3990 N   0  0  0  0  0  0  0  0  0  0  0  0
    7.7810    0.3940   20.9450 N   0  0  0  0  0  0  0  0  0  0  0  0
   10.0830    7.4960   25.5650 O   0  0  0  0  0  0  0  0  0  0  0  0
    9.7210    1.4880   20.4010 O   0  0  0  0  0  0  0  0  0  0  0  0
   13.5530    2.9890   23.5520 O   0  0  0  0  0  0  0  0  0  0  0  0
   11.0040    5.8470   26.7630 O   0  0  0  0  0  0  0  0  0  0  0  0
   14.9460   -1.2400   20.8010 Cl  0  0  0  0  0  0  0  0  0  0  0  0
   11.1410    9.2910   22.8440 Br  0  0  0  0  0  0  0  0  0  0  0  0
   11.9530    6.4260   21.0650 H   0  0  0  0  0  0  0  0  0  0  0  0
   13.3600    4.3160   21.4710 H   0  0  0  0  0  0  0  0  0  0  0  0
    3.7540    1.4320   19.0690 H   0  0  0  0  0  0  0  0  0  0  0  0
   12.2830    4.1650   25.4100 H   0  0  0  0  0  0  0  0  0  0  0  0
   11.0110    2.0660   23.1980 H   0  0  0  0  0  0  0  0  0  0  0  0
   12.0850   -1.5590   21.3670 H   0  0  0  0  0  0  0  0  0  0  0  0
   15.2910    1.0180   22.3450 H   0  0  0  0  0  0  0  0  0  0  0  0
    4.7260    1.2740   16.8190 H   0  0  0  0  0  0  0  0  0  0  0  0
    8.4730    0.3880   18.2990 H   0  0  0  0  0  0  0  0  0  0  0  0
    5.0470   -0.0800   21.7300 H   0  0  0  0  0  0  0  0  0  0  0  0
    5.5870    1.5810   22.2440 H   0  0  0  0  0  0  0  0  0  0  0  0
    4.0410    1.3870   21.5100 H   0  0  0  0  0  0  0  0  0  0  0  0
    9.1590    6.1270   27.3730 H   0  0  0  0  0  0  0  0  0  0  0  0
   10.2100    7.3570   27.9580 H   0  0  0  0  0  0  0  0  0  0  0  0
   10.3380    5.5930   28.6440 H   0  0  0  0  0  0  0  0  0  0  0  0
    9.9500   -1.1910   22.0580 H   0  0  0  0  0  0  0  0  0  0  0  0
    9.5390    0.0620   23.1360 H   0  0  0  0  0  0  0  0  0  0  0  0
    9.3600    7.5340   23.3910 H   0  0  0  0  0  0  0  0  0  0  0  0
    9.8450    7.5520   21.6480 H   0  0  0  0  0  0  0  0  0  0  0  0
    7.3240   -0.1450   21.6820 H   0  0  0  0  0  0  0  0  0  0  0  0
  8 39  1  0  0  0  0
  8 24  2  0  0  0  0
  9 24  1  0  0  0  0
  3  8  1  0  0  0  0
  9 40  1  0  0  0  0
  9 14  2  0  0  0  0
  3 34  1  0  0  0  0
  3 12  2  0  0  0  0
 12 14  1  0  0  0  0
 14 25  1  0  0  0  0
 12 20  1  0  0  0  0
 19 27  2  0  0  0  0
 17 30  1  0  0  0  0
 19 25  1  0  0  0  0
 25 51  1  0  0  0  0
  1 32  1  0  0  0  0
 19 22  1  0  0  0  0
  6 37  1  0  0  0  0
  2 33  1  0  0  0  0
 20 43  1  0  0  0  0
 20 41  1  0  0  0  0
 20 42  1  0  0  0  0
 23 50  1  0  0  0  0
  6 17  2  0  0  0  0
  7 17  1  0  0  0  0
  6 13  1  0  0  0  0
  1  2  2  0  0  0  0
  1 11  1  0  0  0  0
 22 47  1  0  0  0  0
 13 22  1  0  0  0  0
 22 48  1  0  0  0  0
  2 15  1  0  0  0  0
  5 13  2  0  0  0  0
  7 38  1  0  0  0  0
  7 16  2  0  0  0  0
 23 31  1  0  0  0  0
 11 23  1  0  0  0  0
 23 49  1  0  0  0  0
  5 16  1  0  0  0  0
  5 36  1  0  0  0  0
 16 28  1  0  0  0  0
 10 11  2  0  0  0  0
 15 28  1  0  0  0  0
  4 15  2  0  0  0  0
  4 10  1  0  0  0  0
 10 18  1  0  0  0  0
  4 35  1  0  0  0  0
 18 26  2  0  0  0  0
 18 29  1  0  0  0  0
 21 29  1  0  0  0  0
 21 44  1  0  0  0  0
 21 45  1  0  0  0  0
 21 46  1  0  0  0  0
M  END
> <CID>
EN300-202844

> <SMILES>
Cc1ccncc1NC(=O)Cc2cc(cc(c2)Cl)Oc3ccc(c(c3)C(=O)OC)CBr

> <RUN>
RUN2367

> <DDG (kcal/mol)>
-0.33

> <dDDG (kcal/mol)>
0.14

$$$$
EN300-1906910
  -OEChem-08252008263D

 53 55  0     0  0  0  0  0  0999 V2000
   10.7320   -3.2890   26.3360 C   0  0  0  0  0  0  0  0  0  0  0  0
   10.4870   -4.5200   25.7180 C   0  0  0  0  0  0  0  0  0  0  0  0
    6.6640    2.6250   20.1980 C   0  0  0  0  0  0  0  0  0  0  0  0
    9.9380   -1.4140   23.5010 C   0  0  0  0  0  0  0  0  0  0  0  0
   11.1760   -2.7030   21.8830 C   0  0  0  0  0  0  0  0  0  0  0  0
    8.1650   -3.9700   25.7440 C   0  0  0  0  0  0  0  0  0  0  0  0
   12.3100   -1.1860   23.3030 C   0  0  0  0  0  0  0  0  0  0  0  0
    6.4480    2.4530   18.8270 C   0  0  0  0  0  0  0  0  0  0  0  0
    7.5160    0.3700   18.8910 C   0  0  0  0  0  0  0  0  0  0  0  0
    9.7550   -2.2760   26.5320 C   0  0  0  0  0  0  0  0  0  0  0  0
    7.2070    1.6000   20.9570 C   0  0  0  0  0  0  0  0  0  0  0  0
    9.9280   -2.3290   22.4380 C   0  0  0  0  0  0  0  0  0  0  0  0
    7.6540    0.4480   20.3120 C   0  0  0  0  0  0  0  0  0  0  0  0
    9.1750   -4.9250   25.4320 C   0  0  0  0  0  0  0  0  0  0  0  0
   11.1180   -0.8380   23.9750 C   0  0  0  0  0  0  0  0  0  0  0  0
    8.4210   -2.6960   26.2590 C   0  0  0  0  0  0  0  0  0  0  0  0
   12.3150   -2.1340   22.2500 C   0  0  0  0  0  0  0  0  0  0  0  0
    7.9920   -1.9110   20.9450 C   0  0  0  0  0  0  0  0  0  0  0  0
    7.3700    1.8290   22.4210 C   0  0  0  0  0  0  0  0  0  0  0  0
    7.5770   -6.5560   24.6320 C   0  0  0  0  0  0  0  0  0  0  0  0
    8.6190   -2.8280   21.9440 C   0  0  0  0  0  0  0  0  0  0  0  0
   10.0710   -0.8800   27.0780 C   0  0  0  0  0  0  0  0  0  0  0  0
   10.1120    0.2050   25.9210 C   0  0  0  0  0  0  0  0  0  0  0  0
    6.8500    1.3300   18.1760 N   0  0  0  0  0  0  0  0  0  0  0  0
    8.2830   -0.5450   21.0420 N   0  0  0  0  0  0  0  0  0  0  0  0
    7.3920   -2.3860   20.0430 O   0  0  0  0  0  0  0  0  0  0  0  0
    7.3690   -1.8940   26.5900 O   0  0  0  0  0  0  0  0  0  0  0  0
    8.9240   -6.0800   24.6710 O   0  0  0  0  0  0  0  0  0  0  0  0
   11.2200   -0.0150   25.0220 O   0  0  0  0  0  0  0  0  0  0  0  0
   13.6890   -2.4150   21.2580 Cl  0  0  0  0  0  0  0  0  0  0  0  0
   11.7270   -2.9900   26.6560 H   0  0  0  0  0  0  0  0  0  0  0  0
   11.2570   -5.1560   25.2770 H   0  0  0  0  0  0  0  0  0  0  0  0
    6.2710    3.5930   20.5020 H   0  0  0  0  0  0  0  0  0  0  0  0
    8.9900   -1.1390   23.9610 H   0  0  0  0  0  0  0  0  0  0  0  0
   11.1230   -3.3810   21.0480 H   0  0  0  0  0  0  0  0  0  0  0  0
    7.1410   -4.3200   25.6900 H   0  0  0  0  0  0  0  0  0  0  0  0
   13.2230   -0.6860   23.6030 H   0  0  0  0  0  0  0  0  0  0  0  0
    5.8980    3.2140   18.2790 H   0  0  0  0  0  0  0  0  0  0  0  0
    8.0240   -0.4960   18.4820 H   0  0  0  0  0  0  0  0  0  0  0  0
    8.3950    2.1080   22.6580 H   0  0  0  0  0  0  0  0  0  0  0  0
    6.7070    2.5760   22.8690 H   0  0  0  0  0  0  0  0  0  0  0  0
    7.1500    0.8900   22.9260 H   0  0  0  0  0  0  0  0  0  0  0  0
    6.9610   -5.7320   24.2480 H   0  0  0  0  0  0  0  0  0  0  0  0
    7.2850   -6.8810   25.6350 H   0  0  0  0  0  0  0  0  0  0  0  0
    7.5390   -7.3280   23.8480 H   0  0  0  0  0  0  0  0  0  0  0  0
    8.7630   -3.7570   21.3900 H   0  0  0  0  0  0  0  0  0  0  0  0
    7.9240   -3.1300   22.7320 H   0  0  0  0  0  0  0  0  0  0  0  0
    9.2680   -0.4720   27.7110 H   0  0  0  0  0  0  0  0  0  0  0  0
   10.9420   -0.8120   27.7380 H   0  0  0  0  0  0  0  0  0  0  0  0
    9.1670    0.4060   25.4090 H   0  0  0  0  0  0  0  0  0  0  0  0
   10.2080    1.1640   26.4320 H   0  0  0  0  0  0  0  0  0  0  0  0
    8.6630   -0.2280   21.9300 H   0  0  0  0  0  0  0  0  0  0  0  0
    7.3420   -1.7250   27.5410 H   0  0  0  0  0  0  0  0  0  0  0  0
  8 24  2  0  0  0  0
  9 24  1  0  0  0  0
  8 38  1  0  0  0  0
  9 39  1  0  0  0  0
  3  8  1  0  0  0  0
  9 13  2  0  0  0  0
 18 26  2  0  0  0  0
  3 33  1  0  0  0  0
  3 11  2  0  0  0  0
 11 13  1  0  0  0  0
 13 25  1  0  0  0  0
 18 25  1  0  0  0  0
 18 21  1  0  0  0  0
 11 19  1  0  0  0  0
 25 52  1  0  0  0  0
  5 35  1  0  0  0  0
 17 30  1  0  0  0  0
 21 46  1  0  0  0  0
  5 17  2  0  0  0  0
  5 12  1  0  0  0  0
 12 21  1  0  0  0  0
 21 47  1  0  0  0  0
  7 17  1  0  0  0  0
 19 40  1  0  0  0  0
 19 41  1  0  0  0  0
 19 42  1  0  0  0  0
  4 12  2  0  0  0  0
  7 37  1  0  0  0  0
  7 15  2  0  0  0  0
  4 34  1  0  0  0  0
  4 15  1  0  0  0  0
 20 45  1  0  0  0  0
 15 29  1  0  0  0  0
 20 43  1  0  0  0  0
 20 28  1  0  0  0  0
 20 44  1  0  0  0  0
 14 28  1  0  0  0  0
 23 29  1  0  0  0  0
  2 32  1  0  0  0  0
 23 50  1  0  0  0  0
  2 14  2  0  0  0  0
  6 14  1  0  0  0  0
  6 36  1  0  0  0  0
  1  2  1  0  0  0  0
  6 16  2  0  0  0  0
 23 51  1  0  0  0  0
 22 23  1  0  0  0  0
 10 16  1  0  0  0  0
 16 27  1  0  0  0  0
  1 10  2  0  0  0  0
  1 31  1  0  0  0  0
 10 22  1  0  0  0  0
 27 53  1  0  0  0  0
 22 48  1  0  0  0  0
 22 49  1  0  0  0  0
M  END
> <CID>
EN300-1906910

> <SMILES>
Cc1ccncc1NC(=O)Cc2cc(cc(c2)Cl)OCCc3ccc(cc3O)OC

> <RUN>
RUN2912

> <DDG (kcal/mol)>
-0.32

> <dDDG (kcal/mol)>
0.14

$$$$
EN300-7456768
  -OEChem-08252008263D

 66 67  0     0  0  0  0  0  0999 V2000
    5.7480    0.5660   20.3000 C   0  0  0  0  0  0  0  0  0  0  0  0
   12.9170    0.4480   23.0370 C   0  0  0  0  0  0  0  0  0  0  0  0
   13.2520   -1.5590   21.6460 C   0  0  0  0  0  0  0  0  0  0  0  0
   14.9530    0.0870   21.8410 C   0  0  0  0  0  0  0  0  0  0  0  0
    6.0830    0.5140   18.9710 C   0  0  0  0  0  0  0  0  0  0  0  0
    8.1110   -0.3720   19.4230 C   0  0  0  0  0  0  0  0  0  0  0  0
    6.6530    0.1650   21.2640 C   0  0  0  0  0  0  0  0  0  0  0  0
   12.4570   -0.8260   22.5830 C   0  0  0  0  0  0  0  0  0  0  0  0
    7.8550   -0.3140   20.8040 C   0  0  0  0  0  0  0  0  0  0  0  0
   14.1510    0.8730   22.6580 C   0  0  0  0  0  0  0  0  0  0  0  0
   14.4740   -1.0630   21.2250 C   0  0  0  0  0  0  0  0  0  0  0  0
   10.1300   -0.6000   21.6730 C   0  0  0  0  0  0  0  0  0  0  0  0
   13.8590    4.4110   23.3140 C   0  0  0  0  0  0  0  0  0  0  0  0
    6.3480    0.3520   22.7540 C   0  0  0  0  0  0  0  0  0  0  0  0
   10.9370   -1.1340   22.7920 C   0  0  0  0  0  0  0  0  0  0  0  0
   14.1560    3.2010   22.4360 C   0  0  0  0  0  0  0  0  0  0  0  0
    9.8050    7.4000   26.7290 C   0  0  0  0  0  0  0  0  0  0  0  0
    9.0390    7.9650   25.5610 C   0  0  0  0  0  0  0  0  0  0  0  0
   11.2910    7.1480   26.4250 C   0  0  0  0  0  0  0  0  0  0  0  0
    7.6470    8.4680   26.0100 C   0  0  0  0  0  0  0  0  0  0  0  0
   11.4180    6.0990   25.3670 C   0  0  0  0  0  0  0  0  0  0  0  0
    7.0960    9.4900   25.0180 C   0  0  0  0  0  0  0  0  0  0  0  0
   12.7530    5.3280   25.4350 C   0  0  0  0  0  0  0  0  0  0  0  0
    5.6800    9.8290   25.3730 C   0  0  0  0  0  0  0  0  0  0  0  0
    7.2040    0.0470   18.4870 N   0  0  0  0  0  0  0  0  0  0  0  0
    8.7600   -0.8130   21.7290 N   0  0  0  0  0  0  0  0  0  0  0  0
   12.9520    4.2830   24.3870 N   0  0  0  0  0  0  0  0  0  0  0  0
    5.1410   10.7970   24.4310 N   0  3  0  0  0  0  0  0  0  0  0  0
   10.5840    0.2300   20.9090 O   0  0  0  0  0  0  0  0  0  0  0  0
   14.5310    5.4240   23.1410 O   0  0  0  0  0  0  0  0  0  0  0  0
   14.7000    2.0910   23.1320 O   0  0  0  0  0  0  0  0  0  0  0  0
   15.3240   -1.9520   19.9910 Cl  0  0  0  0  0  0  0  0  0  0  0  0
    4.7330    0.9110   20.4800 H   0  0  0  0  0  0  0  0  0  0  0  0
   12.2920    1.0360   23.7020 H   0  0  0  0  0  0  0  0  0  0  0  0
   12.7460   -2.4540   21.2900 H   0  0  0  0  0  0  0  0  0  0  0  0
   15.8990    0.5280   21.5380 H   0  0  0  0  0  0  0  0  0  0  0  0
    5.3030    0.7910   18.2670 H   0  0  0  0  0  0  0  0  0  0  0  0
    8.9840   -0.8040   18.9370 H   0  0  0  0  0  0  0  0  0  0  0  0
    6.3020   -0.6280   23.2420 H   0  0  0  0  0  0  0  0  0  0  0  0
    7.1670    0.8700   23.2680 H   0  0  0  0  0  0  0  0  0  0  0  0
    5.3960    0.8240   23.0180 H   0  0  0  0  0  0  0  0  0  0  0  0
   10.7960   -2.2130   22.7280 H   0  0  0  0  0  0  0  0  0  0  0  0
   10.5810   -0.7700   23.7620 H   0  0  0  0  0  0  0  0  0  0  0  0
   13.2250    2.8850   21.9500 H   0  0  0  0  0  0  0  0  0  0  0  0
   14.7570    3.4450   21.5570 H   0  0  0  0  0  0  0  0  0  0  0  0
    9.8820    8.1340   27.5320 H   0  0  0  0  0  0  0  0  0  0  0  0
    9.2240    6.5680   27.1270 H   0  0  0  0  0  0  0  0  0  0  0  0
    8.8310    7.2010   24.8140 H   0  0  0  0  0  0  0  0  0  0  0  0
    9.5260    8.9020   25.2570 H   0  0  0  0  0  0  0  0  0  0  0  0
   11.7020    8.1210   26.1250 H   0  0  0  0  0  0  0  0  0  0  0  0
   11.8360    6.8230   27.3140 H   0  0  0  0  0  0  0  0  0  0  0  0
    6.9280    7.6470   26.0800 H   0  0  0  0  0  0  0  0  0  0  0  0
    7.7340    8.9720   26.9770 H   0  0  0  0  0  0  0  0  0  0  0  0
   11.3500    6.5100   24.3550 H   0  0  0  0  0  0  0  0  0  0  0  0
   10.6490    5.3240   25.5160 H   0  0  0  0  0  0  0  0  0  0  0  0
    7.6960   10.4060   24.9690 H   0  0  0  0  0  0  0  0  0  0  0  0
    7.0730    9.0370   24.0240 H   0  0  0  0  0  0  0  0  0  0  0  0
   12.8800    4.8080   26.3880 H   0  0  0  0  0  0  0  0  0  0  0  0
   13.6380    5.9810   25.4720 H   0  0  0  0  0  0  0  0  0  0  0  0
    5.1290    8.8880   25.3310 H   0  0  0  0  0  0  0  0  0  0  0  0
    5.7930   10.2260   26.3880 H   0  0  0  0  0  0  0  0  0  0  0  0
    8.4630   -1.2870   22.5720 H   0  0  0  0  0  0  0  0  0  0  0  0
   12.5300    3.3570   24.4960 H   0  0  0  0  0  0  0  0  0  0  0  0
    5.5650   10.5370   23.5400 H   0  0  0  0  0  0  0  0  0  0  0  0
    5.4010   11.7470   24.7030 H   0  0  0  0  0  0  0  0  0  0  0  0
    4.1280   10.7020   24.3320 H   0  0  0  0  0  0  0  0  0  0  0  0
  5 37  1  0  0  0  0
  5 25  2  0  0  0  0
  6 25  1  0  0  0  0
  6 38  1  0  0  0  0
  1  5  1  0  0  0  0
  6  9  2  0  0  0  0
 11 32  1  0  0  0  0
  1 33  1  0  0  0  0
  1  7  2  0  0  0  0
  7  9  1  0  0  0  0
  9 26  1  0  0  0  0
 12 29  2  0  0  0  0
  3 11  2  0  0  0  0
  4 11  1  0  0  0  0
  7 14  1  0  0  0  0
  3 35  1  0  0  0  0
  4 36  1  0  0  0  0
 16 45  1  0  0  0  0
  3  8  1  0  0  0  0
 12 26  1  0  0  0  0
 12 15  1  0  0  0  0
 26 62  1  0  0  0  0
  4 10  2  0  0  0  0
 16 44  1  0  0  0  0
 16 31  1  0  0  0  0
 13 16  1  0  0  0  0
  8 15  1  0  0  0  0
  2  8  2  0  0  0  0
  2 10  1  0  0  0  0
 10 31  1  0  0  0  0
 15 42  1  0  0  0  0
 14 41  1  0  0  0  0
 14 39  1  0  0  0  0
 14 40  1  0  0  0  0
 15 43  1  0  0  0  0
  2 34  1  0  0  0  0
 13 30  2  0  0  0  0
 13 27  1  0  0  0  0
 28 64  1  0  0  0  0
 22 57  1  0  0  0  0
 28 66  1  0  0  0  0
 21 54  1  0  0  0  0
 27 63  1  0  0  0  0
 23 27  1  0  0  0  0
 28 65  1  0  0  0  0
 24 28  1  0  0  0  0
 18 48  1  0  0  0  0
 22 56  1  0  0  0  0
 22 24  1  0  0  0  0
 20 22  1  0  0  0  0
 18 49  1  0  0  0  0
 24 60  1  0  0  0  0
 21 23  1  0  0  0  0
 21 55  1  0  0  0  0
 19 21  1  0  0  0  0
 24 61  1  0  0  0  0
 23 59  1  0  0  0  0
 23 58  1  0  0  0  0
 18 20  1  0  0  0  0
 17 18  1  0  0  0  0
 20 52  1  0  0  0  0
 20 53  1  0  0  0  0
 19 50  1  0  0  0  0
 17 19  1  0  0  0  0
 19 51  1  0  0  0  0
 17 47  1  0  0  0  0
 17 46  1  0  0  0  0
M  CHG  1  28   1
M  END
> <CID>
EN300-7456768

> <SMILES>
Cc1ccncc1NC(=O)Cc2cc(cc(c2)Cl)OCC(=O)NCCCCCCCC[NH3+]

> <RUN>
RUN1899

> <DDG (kcal/mol)>
-0.32

> <dDDG (kcal/mol)>
0.24

$$$$
EN300-706185
  -OEChem-08252008263D

 53 56  0     0  0  0  0  0  0999 V2000
   12.2410    9.7110   26.0090 C   0  0  0  0  0  0  0  0  0  0  0  0
   12.8180    9.1540   24.8790 C   0  0  0  0  0  0  0  0  0  0  0  0
    5.3380    1.4300   17.9760 C   0  0  0  0  0  0  0  0  0  0  0  0
   11.0080    7.7030   26.4180 C   0  0  0  0  0  0  0  0  0  0  0  0
   11.3110    5.8950   24.5900 C   0  0  0  0  0  0  0  0  0  0  0  0
   10.6070    0.7240   22.8530 C   0  0  0  0  0  0  0  0  0  0  0  0
   11.1330   -1.4390   21.9480 C   0  0  0  0  0  0  0  0  0  0  0  0
   12.8200    0.3250   21.9170 C   0  0  0  0  0  0  0  0  0  0  0  0
    5.6520    0.4880   16.9610 C   0  0  0  0  0  0  0  0  0  0  0  0
    6.8310   -0.8200   18.4830 C   0  0  0  0  0  0  0  0  0  0  0  0
   11.4500    7.1990   25.2130 C   0  0  0  0  0  0  0  0  0  0  0  0
   11.2570    9.0040   26.8060 C   0  0  0  0  0  0  0  0  0  0  0  0
    5.9220    1.2880   19.2770 C   0  0  0  0  0  0  0  0  0  0  0  0
   10.1570   -0.5230   22.4620 C   0  0  0  0  0  0  0  0  0  0  0  0
    6.7290    0.1490   19.5180 C   0  0  0  0  0  0  0  0  0  0  0  0
   12.3670    7.8660   24.4700 C   0  0  0  0  0  0  0  0  0  0  0  0
   11.9660    1.1710   22.6390 C   0  0  0  0  0  0  0  0  0  0  0  0
   12.4690   -0.9850   21.6740 C   0  0  0  0  0  0  0  0  0  0  0  0
   12.1220    5.9070   23.4920 C   0  0  0  0  0  0  0  0  0  0  0  0
   12.3310    4.8220   22.5160 C   0  0  0  0  0  0  0  0  0  0  0  0
    7.9000   -1.0790   21.3580 C   0  0  0  0  0  0  0  0  0  0  0  0
   10.6010    9.6100   27.9970 C   0  0  0  0  0  0  0  0  0  0  0  0
    5.6170    2.3200   20.2990 C   0  0  0  0  0  0  0  0  0  0  0  0
    8.7640   -0.9430   22.6170 C   0  0  0  0  0  0  0  0  0  0  0  0
   11.5780    3.5330   22.7100 C   0  0  0  0  0  0  0  0  0  0  0  0
    6.4280   -0.6000   17.2420 N   0  0  0  0  0  0  0  0  0  0  0  0
    7.3090    0.0770   20.7960 N   0  0  0  0  0  0  0  0  0  0  0  0
   13.2150    4.8250   21.6850 O   0  0  0  0  0  0  0  0  0  0  0  0
    7.7350   -2.2080   20.9310 O   0  0  0  0  0  0  0  0  0  0  0  0
   12.7690    7.1440   23.3530 O   0  0  0  0  0  0  0  0  0  0  0  0
   12.4530    2.4270   22.9580 O   0  0  0  0  0  0  0  0  0  0  0  0
   13.6920   -2.0880   20.9740 Cl  0  0  0  0  0  0  0  0  0  0  0  0
   12.5120   10.7280   26.2650 H   0  0  0  0  0  0  0  0  0  0  0  0
   13.5350    9.6270   24.2220 H   0  0  0  0  0  0  0  0  0  0  0  0
    4.5960    2.2120   17.8130 H   0  0  0  0  0  0  0  0  0  0  0  0
   10.3320    7.0680   26.9790 H   0  0  0  0  0  0  0  0  0  0  0  0
   10.8180    5.0840   25.1080 H   0  0  0  0  0  0  0  0  0  0  0  0
    9.9060    1.3010   23.4470 H   0  0  0  0  0  0  0  0  0  0  0  0
   10.7430   -2.4380   21.7470 H   0  0  0  0  0  0  0  0  0  0  0  0
   13.8320    0.6610   21.7010 H   0  0  0  0  0  0  0  0  0  0  0  0
    5.1430    0.6320   16.0070 H   0  0  0  0  0  0  0  0  0  0  0  0
    7.3620   -1.7260   18.7590 H   0  0  0  0  0  0  0  0  0  0  0  0
    9.8490    8.9280   28.4030 H   0  0  0  0  0  0  0  0  0  0  0  0
   11.3460    9.9260   28.7350 H   0  0  0  0  0  0  0  0  0  0  0  0
   10.0050   10.4080   27.5370 H   0  0  0  0  0  0  0  0  0  0  0  0
    4.8050    2.0450   20.9840 H   0  0  0  0  0  0  0  0  0  0  0  0
    6.4960    2.6060   20.8920 H   0  0  0  0  0  0  0  0  0  0  0  0
    5.2680    3.2570   19.8530 H   0  0  0  0  0  0  0  0  0  0  0  0
    8.8440   -1.9480   23.0470 H   0  0  0  0  0  0  0  0  0  0  0  0
    8.2260   -0.3080   23.3220 H   0  0  0  0  0  0  0  0  0  0  0  0
   11.0410    3.3280   21.7890 H   0  0  0  0  0  0  0  0  0  0  0  0
   10.8960    3.7770   23.5340 H   0  0  0  0  0  0  0  0  0  0  0  0
    7.5410    0.8820   21.3710 H   0  0  0  0  0  0  0  0  0  0  0  0
  9 41  1  0  0  0  0
  9 26  2  0  0  0  0
  3  9  1  0  0  0  0
 10 26  1  0  0  0  0
  3 35  1  0  0  0  0
  3 13  2  0  0  0  0
 10 42  1  0  0  0  0
 10 15  2  0  0  0  0
 13 15  1  0  0  0  0
 13 23  1  0  0  0  0
 15 27  1  0  0  0  0
 23 48  1  0  0  0  0
 23 47  1  0  0  0  0
 23 46  1  0  0  0  0
 21 27  1  0  0  0  0
 27 53  1  0  0  0  0
 21 29  2  0  0  0  0
 18 32  1  0  0  0  0
 21 24  1  0  0  0  0
  8 18  2  0  0  0  0
  7 18  1  0  0  0  0
 20 28  2  0  0  0  0
  8 40  1  0  0  0  0
  7 39  1  0  0  0  0
 25 51  1  0  0  0  0
  8 17  1  0  0  0  0
  7 14  2  0  0  0  0
 14 24  1  0  0  0  0
  6 14  1  0  0  0  0
 20 25  1  0  0  0  0
 19 20  1  0  0  0  0
 24 49  1  0  0  0  0
 24 50  1  0  0  0  0
  6 17  2  0  0  0  0
 17 31  1  0  0  0  0
 25 31  1  0  0  0  0
 25 52  1  0  0  0  0
  6 38  1  0  0  0  0
 19 30  1  0  0  0  0
 16 30  1  0  0  0  0
  5 19  2  0  0  0  0
  2 34  1  0  0  0  0
  2 16  2  0  0  0  0
 11 16  1  0  0  0  0
  5 37  1  0  0  0  0
  5 11  1  0  0  0  0
  1  2  1  0  0  0  0
  4 11  2  0  0  0  0
  1 33  1  0  0  0  0
  1 12  2  0  0  0  0
  4 12  1  0  0  0  0
  4 36  1  0  0  0  0
 12 22  1  0  0  0  0
 22 45  1  0  0  0  0
 22 43  1  0  0  0  0
 22 44  1  0  0  0  0
M  END
> <CID>
EN300-706185

> <SMILES>
Cc1ccc2c(c1)cc(o2)C(=O)COc3cc(cc(c3)Cl)CC(=O)Nc4cnccc4C

> <RUN>
RUN4521

> <DDG (kcal/mol)>
-0.32

> <dDDG (kcal/mol)>
0.25

$$$$
EN300-1132709
  -OEChem-08252008263D

 60 63  0     1  0  0  0  0  0999 V2000
    8.6550    0.4370   27.5900 C   0  0  0  0  0  0  0  0  0  0  0  0
    8.5050    1.1810   25.3340 C   0  0  0  0  0  0  0  0  0  0  0  0
    9.2330   -0.7630   27.2470 C   0  0  0  0  0  0  0  0  0  0  0  0
    9.2160    0.0580   24.9500 C   0  0  0  0  0  0  0  0  0  0  0  0
    6.5690    2.1420   19.6190 C   0  0  0  0  0  0  0  0  0  0  0  0
    9.2810   -3.0610   23.5850 C   0  0  0  0  0  0  0  0  0  0  0  0
   10.3050   -2.8030   21.4430 C   0  0  0  0  0  0  0  0  0  0  0  0
   11.4480   -2.1870   23.4130 C   0  0  0  0  0  0  0  0  0  0  0  0
    6.4870    1.9210   18.2420 C   0  0  0  0  0  0  0  0  0  0  0  0
    7.1570   -0.2550   18.5790 C   0  0  0  0  0  0  0  0  0  0  0  0
    8.2310    1.4300   26.6470 C   0  0  0  0  0  0  0  0  0  0  0  0
    6.8660    1.1280   20.5030 C   0  0  0  0  0  0  0  0  0  0  0  0
    9.1690   -3.1990   22.2250 C   0  0  0  0  0  0  0  0  0  0  0  0
    7.0680   -0.1550   19.9760 C   0  0  0  0  0  0  0  0  0  0  0  0
    9.5210   -1.0050   25.9390 C   0  0  0  0  0  0  0  0  0  0  0  0
   10.3200   -2.4550   24.2310 C   0  0  0  0  0  0  0  0  0  0  0  0
   11.4630   -2.2970   22.0090 C   0  0  0  0  0  0  0  0  0  0  0  0
    7.2110   -2.6250   20.5660 C   0  0  0  0  0  0  0  0  0  0  0  0
    4.6470    4.0370   25.5510 C   0  0  0  0  0  0  0  0  0  0  0  0
    3.6490    3.2980   24.6920 C   0  0  0  0  0  0  0  0  0  0  0  0
    4.9940    1.6420   25.5320 C   0  0  0  0  0  0  0  0  0  0  0  0
    5.3930    2.9570   26.2820 C   0  0  1  0  0  0  0  0  0  0  0  0
    6.9000    1.5060   21.8930 C   0  0  0  0  0  0  0  0  0  0  0  0
    7.8410   -3.6000   21.6050 C   0  0  0  0  0  0  0  0  0  0  0  0
    8.7710    3.7440   27.4540 C   0  0  0  0  0  0  0  0  0  0  0  0
    7.6330    2.7210   27.1860 C   0  0  1  0  0  0  0  0  0  0  0  0
    6.8440    0.7300   17.7110 N   0  0  0  0  0  0  0  0  0  0  0  0
    7.3200   -1.2610   20.8160 N   0  0  0  0  0  0  0  0  0  0  0  0
    6.4280   -3.0070   19.7270 O   0  0  0  0  0  0  0  0  0  0  0  0
    3.6880    1.8960   25.0570 O   0  0  0  0  0  0  0  0  0  0  0  0
   10.2960   -2.1260   25.5660 O   0  0  0  0  0  0  0  0  0  0  0  0
    6.7680    3.3280   26.1930 O   0  0  0  0  0  0  0  0  0  0  0  0
   12.9070   -1.7120   21.1520 Cl  0  0  0  0  0  0  0  0  0  0  0  0
    9.8200    3.7080   29.3770 I   0  0  0  0  0  0  0  0  0  0  0  0
    8.4810    0.7330   28.6240 H   0  0  0  0  0  0  0  0  0  0  0  0
    8.2640    1.9260   24.5900 H   0  0  0  0  0  0  0  0  0  0  0  0
    9.6070   -1.4270   28.0320 H   0  0  0  0  0  0  0  0  0  0  0  0
    9.5600   -0.0680   23.9260 H   0  0  0  0  0  0  0  0  0  0  0  0
    6.3600    3.1440   19.9730 H   0  0  0  0  0  0  0  0  0  0  0  0
    8.4270   -3.3000   24.2090 H   0  0  0  0  0  0  0  0  0  0  0  0
   10.2630   -2.9690   20.3730 H   0  0  0  0  0  0  0  0  0  0  0  0
   12.3100   -1.8560   23.9710 H   0  0  0  0  0  0  0  0  0  0  0  0
    6.0920    2.7170   17.6240 H   0  0  0  0  0  0  0  0  0  0  0  0
    7.4130   -1.2310   18.2020 H   0  0  0  0  0  0  0  0  0  0  0  0
    5.2980    4.5390   24.8330 H   0  0  0  0  0  0  0  0  0  0  0  0
    4.1680    4.7470   26.2460 H   0  0  0  0  0  0  0  0  0  0  0  0
    2.6700    3.8000   24.7370 H   0  0  0  0  0  0  0  0  0  0  0  0
    3.9570    3.3400   23.6410 H   0  0  0  0  0  0  0  0  0  0  0  0
    5.6990    1.5190   24.6990 H   0  0  0  0  0  0  0  0  0  0  0  0
    4.9860    0.7530   26.1640 H   0  0  0  0  0  0  0  0  0  0  0  0
    5.0530    2.8890   27.3230 H   0  0  0  0  0  0  0  0  0  0  0  0
    5.9140    1.5060   22.3690 H   0  0  0  0  0  0  0  0  0  0  0  0
    7.5570    0.8420   22.4640 H   0  0  0  0  0  0  0  0  0  0  0  0
    7.3010    2.5160   22.0600 H   0  0  0  0  0  0  0  0  0  0  0  0
    8.1070   -4.5970   21.2310 H   0  0  0  0  0  0  0  0  0  0  0  0
    7.0810   -3.6790   22.3940 H   0  0  0  0  0  0  0  0  0  0  0  0
    8.2690    4.7160   27.4360 H   0  0  0  0  0  0  0  0  0  0  0  0
    9.4800    3.8020   26.6210 H   0  0  0  0  0  0  0  0  0  0  0  0
    7.1520    2.4550   28.1290 H   0  0  0  0  0  0  0  0  0  0  0  0
    7.7780   -1.0840   21.7020 H   0  0  0  0  0  0  0  0  0  0  0  0
  9 43  1  0  0  0  0
  9 27  2  0  0  0  0
 10 27  1  0  0  0  0
 10 44  1  0  0  0  0
  5  9  1  0  0  0  0
 10 14  2  0  0  0  0
  5 39  1  0  0  0  0
  5 12  2  0  0  0  0
 18 29  2  0  0  0  0
 12 14  1  0  0  0  0
 14 28  1  0  0  0  0
  7 41  1  0  0  0  0
 12 23  1  0  0  0  0
 18 28  1  0  0  0  0
 18 24  1  0  0  0  0
 28 60  1  0  0  0  0
 17 33  1  0  0  0  0
 24 55  1  0  0  0  0
  7 17  2  0  0  0  0
  7 13  1  0  0  0  0
 13 24  1  0  0  0  0
 24 56  1  0  0  0  0
 23 54  1  0  0  0  0
 23 52  1  0  0  0  0
 23 53  1  0  0  0  0
  8 17  1  0  0  0  0
  6 13  2  0  0  0  0
  8 42  1  0  0  0  0
  8 16  2  0  0  0  0
  6 40  1  0  0  0  0
  6 16  1  0  0  0  0
 20 48  1  0  0  0  0
  4 38  1  0  0  0  0
 16 31  1  0  0  0  0
  2 36  1  0  0  0  0
 20 47  1  0  0  0  0
 20 30  1  0  0  0  0
 19 20  1  0  0  0  0
 21 49  1  0  0  0  0
 19 45  1  0  0  0  0
  2  4  2  0  0  0  0
  4 15  1  0  0  0  0
 21 30  1  0  0  0  0
  2 11  1  0  0  0  0
 21 50  1  0  0  0  0
 21 22  1  0  0  0  0
 19 46  1  0  0  0  0
 19 22  1  0  0  0  0
 15 31  1  0  0  0  0
  3 15  2  0  0  0  0
 22 32  1  0  0  0  0
 26 32  1  0  0  0  0
 22 51  1  0  0  0  0
 25 58  1  0  0  0  0
 11 26  1  0  0  0  0
  1 11  2  0  0  0  0
 25 26  1  0  0  0  0
 26 59  1  0  0  0  0
  1  3  1  0  0  0  0
  3 37  1  0  0  0  0
 25 57  1  0  0  0  0
 25 34  1  0  0  0  0
  1 35  1  0  0  0  0
M  END
> <CID>
EN300-1132709

> <SMILES>
Cc1ccncc1NC(=O)Cc2cc(cc(c2)Cl)Oc3ccc(cc3)[C@@H](CI)O[C@H]4CCOC4

> <RUN>
RUN2020

> <DDG (kcal/mol)>
-0.32

> <dDDG (kcal/mol)>
0.15

$$$$
EN300-1921187
  -OEChem-08252008263D

 50 53  0     0  0  0  0  0  0999 V2000
    4.7370    2.0060   18.4140 C   0  0  0  0  0  0  0  0  0  0  0  0
   11.2200    2.5020   23.1420 C   0  0  0  0  0  0  0  0  0  0  0  0
   11.2780    0.1970   22.3880 C   0  0  0  0  0  0  0  0  0  0  0  0
   13.3370    1.4110   22.6830 C   0  0  0  0  0  0  0  0  0  0  0  0
   10.3620    6.3280   23.0330 C   0  0  0  0  0  0  0  0  0  0  0  0
    5.5100    1.5770   17.2850 C   0  0  0  0  0  0  0  0  0  0  0  0
    7.3320    1.2110   18.6570 C   0  0  0  0  0  0  0  0  0  0  0  0
    5.3220    2.0810   19.6970 C   0  0  0  0  0  0  0  0  0  0  0  0
   10.5640    1.3500   22.7690 C   0  0  0  0  0  0  0  0  0  0  0  0
    6.6510    1.6730   19.8750 C   0  0  0  0  0  0  0  0  0  0  0  0
   12.6060    2.5760   23.0710 C   0  0  0  0  0  0  0  0  0  0  0  0
   12.6600    0.2870   22.3970 C   0  0  0  0  0  0  0  0  0  0  0  0
   11.7100    6.2610   22.5500 C   0  0  0  0  0  0  0  0  0  0  0  0
   10.3440    7.4000   23.8480 C   0  0  0  0  0  0  0  0  0  0  0  0
   10.7450    9.7420   25.1590 C   0  0  0  0  0  0  0  0  0  0  0  0
   11.7730    9.1680   24.4730 C   0  0  0  0  0  0  0  0  0  0  0  0
    9.4420    9.1180   25.1580 C   0  0  0  0  0  0  0  0  0  0  0  0
    8.5730    1.7790   21.4210 C   0  0  0  0  0  0  0  0  0  0  0  0
    4.5950    2.6400   20.9040 C   0  0  0  0  0  0  0  0  0  0  0  0
    9.1190    1.3300   22.7900 C   0  0  0  0  0  0  0  0  0  0  0  0
   12.4090    5.2390   21.6220 C   0  0  0  0  0  0  0  0  0  0  0  0
   13.6370    4.5900   22.2810 C   0  0  0  0  0  0  0  0  0  0  0  0
    6.8060    1.1510   17.4240 N   0  0  0  0  0  0  0  0  0  0  0  0
   12.4070    7.3490   22.9360 N   0  0  0  0  0  0  0  0  0  0  0  0
    9.2310    7.9730   24.4960 N   0  0  0  0  0  0  0  0  0  0  0  0
   11.5760    8.0070   23.7500 N   0  0  0  0  0  0  0  0  0  0  0  0
    7.2390    1.5880   21.1680 N   0  0  0  0  0  0  0  0  0  0  0  0
    9.2170    2.4900   20.6610 O   0  0  0  0  0  0  0  0  0  0  0  0
   13.1730    3.7680   23.4090 O   0  0  0  0  0  0  0  0  0  0  0  0
   13.4730   -1.2050   21.9590 Cl  0  0  0  0  0  0  0  0  0  0  0  0
    3.7000    2.3510   18.3070 H   0  0  0  0  0  0  0  0  0  0  0  0
   10.6770    3.4290   23.3200 H   0  0  0  0  0  0  0  0  0  0  0  0
   10.7630   -0.6890   22.0360 H   0  0  0  0  0  0  0  0  0  0  0  0
   14.4180    1.5490   22.7010 H   0  0  0  0  0  0  0  0  0  0  0  0
    9.5440    5.6680   22.7690 H   0  0  0  0  0  0  0  0  0  0  0  0
    5.0790    1.7940   16.3050 H   0  0  0  0  0  0  0  0  0  0  0  0
    8.3740    0.9180   18.8060 H   0  0  0  0  0  0  0  0  0  0  0  0
   10.8870   10.7210   25.6100 H   0  0  0  0  0  0  0  0  0  0  0  0
   12.7070    9.7170   24.4720 H   0  0  0  0  0  0  0  0  0  0  0  0
    8.7080    9.7080   25.7040 H   0  0  0  0  0  0  0  0  0  0  0  0
    4.2260    1.8270   21.5450 H   0  0  0  0  0  0  0  0  0  0  0  0
    5.2100    3.1340   21.6630 H   0  0  0  0  0  0  0  0  0  0  0  0
    3.7510    3.1500   20.4180 H   0  0  0  0  0  0  0  0  0  0  0  0
    8.7420    0.3290   22.9810 H   0  0  0  0  0  0  0  0  0  0  0  0
    8.6950    1.9950   23.5430 H   0  0  0  0  0  0  0  0  0  0  0  0
   11.6950    4.5800   21.1090 H   0  0  0  0  0  0  0  0  0  0  0  0
   12.7720    5.8600   20.7960 H   0  0  0  0  0  0  0  0  0  0  0  0
   14.1940    3.9910   21.5530 H   0  0  0  0  0  0  0  0  0  0  0  0
   14.2270    5.4280   22.6640 H   0  0  0  0  0  0  0  0  0  0  0  0
    6.6340    1.1300   21.8550 H   0  0  0  0  0  0  0  0  0  0  0  0
  6 36  1  0  0  0  0
  6 23  2  0  0  0  0
  1  6  1  0  0  0  0
  7 23  1  0  0  0  0
  1 31  1  0  0  0  0
  1  8  2  0  0  0  0
  7 37  1  0  0  0  0
  7 10  2  0  0  0  0
  8 10  1  0  0  0  0
  8 19  1  0  0  0  0
 10 27  1  0  0  0  0
 19 43  1  0  0  0  0
 18 28  2  0  0  0  0
 21 47  1  0  0  0  0
 19 41  1  0  0  0  0
 19 42  1  0  0  0  0
 21 46  1  0  0  0  0
 18 27  1  0  0  0  0
 27 50  1  0  0  0  0
 18 20  1  0  0  0  0
 22 48  1  0  0  0  0
 21 22  1  0  0  0  0
 13 21  1  0  0  0  0
 12 30  1  0  0  0  0
  3 33  1  0  0  0  0
 22 49  1  0  0  0  0
 22 29  1  0  0  0  0
  3 12  2  0  0  0  0
  3  9  1  0  0  0  0
  4 12  1  0  0  0  0
 13 24  2  0  0  0  0
  5 13  1  0  0  0  0
  4 34  1  0  0  0  0
  4 11  2  0  0  0  0
  9 20  1  0  0  0  0
  2  9  2  0  0  0  0
  5 35  1  0  0  0  0
 20 44  1  0  0  0  0
 20 45  1  0  0  0  0
 24 26  1  0  0  0  0
  5 14  2  0  0  0  0
  2 11  1  0  0  0  0
 11 29  1  0  0  0  0
  2 32  1  0  0  0  0
 14 26  1  0  0  0  0
 16 26  1  0  0  0  0
 14 25  1  0  0  0  0
 16 39  1  0  0  0  0
 15 16  2  0  0  0  0
 17 25  2  0  0  0  0
 15 17  1  0  0  0  0
 17 40  1  0  0  0  0
 15 38  1  0  0  0  0
M  END
> <CID>
EN300-1921187

> <SMILES>
Cc1ccncc1NC(=O)Cc2cc(cc(c2)Cl)OCCc3cc4ncccn4n3

> <RUN>
RUN4291

> <DDG (kcal/mol)>
-0.32

> <dDDG (kcal/mol)>
0.20

$$$$
EN300-1132829
  -OEChem-08252008263D

 62 65  0     1  0  0  0  0  0999 V2000
   13.6560    4.6160   27.2230 C   0  0  0  0  0  0  0  0  0  0  0  0
   13.2360    3.7280   28.2900 C   0  0  0  0  0  0  0  0  0  0  0  0
   14.1120    4.1180   26.0160 C   0  0  0  0  0  0  0  0  0  0  0  0
    5.1610    0.5560   20.0550 C   0  0  0  0  0  0  0  0  0  0  0  0
   13.8170    1.8900   26.8920 C   0  0  0  0  0  0  0  0  0  0  0  0
   12.4940    1.0180   23.8260 C   0  0  0  0  0  0  0  0  0  0  0  0
   12.7190   -0.8100   22.2880 C   0  0  0  0  0  0  0  0  0  0  0  0
   14.5670    0.4240   22.9840 C   0  0  0  0  0  0  0  0  0  0  0  0
    5.5610    0.4940   18.7530 C   0  0  0  0  0  0  0  0  0  0  0  0
    7.6890    0.1120   19.4630 C   0  0  0  0  0  0  0  0  0  0  0  0
   13.3060    2.3790   28.0820 C   0  0  0  0  0  0  0  0  0  0  0  0
    6.0220    0.2970   21.1400 C   0  0  0  0  0  0  0  0  0  0  0  0
   11.9290   -0.0200   23.0490 C   0  0  0  0  0  0  0  0  0  0  0  0
    7.3280    0.0140   20.8290 C   0  0  0  0  0  0  0  0  0  0  0  0
   14.1550    2.7200   25.7960 C   0  0  0  0  0  0  0  0  0  0  0  0
   13.8190    1.3080   23.7320 C   0  0  0  0  0  0  0  0  0  0  0  0
   14.0930   -0.6650   22.2840 C   0  0  0  0  0  0  0  0  0  0  0  0
    9.6770    0.0810   21.8500 C   0  0  0  0  0  0  0  0  0  0  0  0
    8.8400   -0.8640   28.7220 C   0  0  0  0  0  0  0  0  0  0  0  0
    9.0940   -0.5100   27.2680 C   0  0  0  0  0  0  0  0  0  0  0  0
   10.2200   -0.8660   29.2610 C   0  0  0  0  0  0  0  0  0  0  0  0
   10.4410    0.1600   27.1600 C   0  0  0  0  0  0  0  0  0  0  0  0
   10.9060    0.3290   28.5420 C   0  0  0  0  0  0  0  0  0  0  0  0
    5.5890    0.4860   22.5340 C   0  0  0  0  0  0  0  0  0  0  0  0
   10.4520   -0.2720   23.1050 C   0  0  0  0  0  0  0  0  0  0  0  0
   14.1520    1.1070   30.1700 C   0  0  0  0  0  0  0  0  0  0  0  0
   12.9740    1.5120   29.2590 C   0  0  2  0  0  0  0  0  0  0  0  0
    6.8190    0.3110   18.4390 N   0  0  0  0  0  0  0  0  0  0  0  0
    8.2960   -0.1860   21.8250 N   0  0  0  0  0  0  0  0  0  0  0  0
   10.2140    0.5580   20.8160 O   0  0  0  0  0  0  0  0  0  0  0  0
   14.4940    2.3060   24.4600 O   0  0  0  0  0  0  0  0  0  0  0  0
   12.3830    0.2710   28.8280 O   0  0  0  0  0  0  0  0  0  0  0  0
   15.0870   -1.6960   21.3390 Cl  0  0  0  0  0  0  0  0  0  0  0  0
   14.7930    2.7620   31.4870 I   0  0  0  0  0  0  0  0  0  0  0  0
   13.9010    5.6260   27.5290 H   0  0  0  0  0  0  0  0  0  0  0  0
   13.0240    4.0790   29.3000 H   0  0  0  0  0  0  0  0  0  0  0  0
   14.5190    4.7870   25.2680 H   0  0  0  0  0  0  0  0  0  0  0  0
    4.1110    0.7180   20.2770 H   0  0  0  0  0  0  0  0  0  0  0  0
   13.9360    0.8290   26.7190 H   0  0  0  0  0  0  0  0  0  0  0  0
   11.8740    1.6390   24.4620 H   0  0  0  0  0  0  0  0  0  0  0  0
   12.3610   -1.6270   21.6740 H   0  0  0  0  0  0  0  0  0  0  0  0
   15.6370    0.5950   22.9160 H   0  0  0  0  0  0  0  0  0  0  0  0
    4.8380    0.5840   17.9550 H   0  0  0  0  0  0  0  0  0  0  0  0
    8.6890   -0.0270   19.0560 H   0  0  0  0  0  0  0  0  0  0  0  0
    8.1660   -0.2410   29.3180 H   0  0  0  0  0  0  0  0  0  0  0  0
    8.4130   -1.8680   28.7370 H   0  0  0  0  0  0  0  0  0  0  0  0
    9.1290   -1.4120   26.6460 H   0  0  0  0  0  0  0  0  0  0  0  0
    8.2870    0.1220   26.8820 H   0  0  0  0  0  0  0  0  0  0  0  0
   10.1830   -0.6770   30.3330 H   0  0  0  0  0  0  0  0  0  0  0  0
   10.7450   -1.7740   28.9390 H   0  0  0  0  0  0  0  0  0  0  0  0
   11.1560   -0.4280   26.5850 H   0  0  0  0  0  0  0  0  0  0  0  0
   10.3460    1.1330   26.6700 H   0  0  0  0  0  0  0  0  0  0  0  0
   10.4810    1.2810   28.8900 H   0  0  0  0  0  0  0  0  0  0  0  0
    6.0190   -0.3000   23.1580 H   0  0  0  0  0  0  0  0  0  0  0  0
    6.0230    1.3990   22.9390 H   0  0  0  0  0  0  0  0  0  0  0  0
    4.4950    0.5700   22.5760 H   0  0  0  0  0  0  0  0  0  0  0  0
   10.3180   -1.3150   23.4400 H   0  0  0  0  0  0  0  0  0  0  0  0
    9.9870    0.3570   23.8710 H   0  0  0  0  0  0  0  0  0  0  0  0
   15.0450    0.7460   29.6380 H   0  0  0  0  0  0  0  0  0  0  0  0
   13.9250    0.2670   30.8330 H   0  0  0  0  0  0  0  0  0  0  0  0
   12.2320    2.0290   29.8670 H   0  0  0  0  0  0  0  0  0  0  0  0
    7.8560   -0.6530   22.6160 H   0  0  0  0  0  0  0  0  0  0  0  0
  9 43  1  0  0  0  0
  9 28  2  0  0  0  0
 10 28  1  0  0  0  0
  4  9  1  0  0  0  0
 10 44  1  0  0  0  0
 10 14  2  0  0  0  0
  4 38  1  0  0  0  0
  4 12  2  0  0  0  0
 18 30  2  0  0  0  0
 12 14  1  0  0  0  0
 14 29  1  0  0  0  0
 12 24  1  0  0  0  0
 17 33  1  0  0  0  0
  7 41  1  0  0  0  0
 18 29  1  0  0  0  0
 29 62  1  0  0  0  0
 18 25  1  0  0  0  0
  7 17  2  0  0  0  0
  8 17  1  0  0  0  0
  7 13  1  0  0  0  0
 24 56  1  0  0  0  0
 24 55  1  0  0  0  0
 24 54  1  0  0  0  0
  8 42  1  0  0  0  0
  8 16  2  0  0  0  0
 13 25  1  0  0  0  0
  6 13  2  0  0  0  0
 25 57  1  0  0  0  0
 25 58  1  0  0  0  0
  6 16  1  0  0  0  0
 16 31  1  0  0  0  0
  6 40  1  0  0  0  0
 15 31  1  0  0  0  0
  3 37  1  0  0  0  0
  3 15  2  0  0  0  0
  5 15  1  0  0  0  0
  1  3  1  0  0  0  0
 22 51  1  0  0  0  0
 20 47  1  0  0  0  0
 22 52  1  0  0  0  0
  5 39  1  0  0  0  0
 20 48  1  0  0  0  0
  5 11  2  0  0  0  0
 20 22  1  0  0  0  0
 22 23  1  0  0  0  0
  1 35  1  0  0  0  0
  1  2  2  0  0  0  0
 19 20  1  0  0  0  0
  2 11  1  0  0  0  0
 11 27  1  0  0  0  0
  2 36  1  0  0  0  0
 23 32  1  0  0  0  0
 23 53  1  0  0  0  0
 21 23  1  0  0  0  0
 19 46  1  0  0  0  0
 19 21  1  0  0  0  0
 19 45  1  0  0  0  0
 27 32  1  0  0  0  0
 21 50  1  0  0  0  0
 27 61  1  0  0  0  0
 26 27  1  0  0  0  0
 21 49  1  0  0  0  0
 26 59  1  0  0  0  0
 26 60  1  0  0  0  0
 26 34  1  0  0  0  0
M  END
> <CID>
EN300-1132829

> <SMILES>
Cc1ccncc1NC(=O)Cc2cc(cc(c2)Cl)Oc3cccc(c3)[C@H](CI)OC4CCCC4

> <RUN>
RUN1260

> <DDG (kcal/mol)>
-0.32

> <dDDG (kcal/mol)>
0.18

$$$$
EN300-127870
  -OEChem-08252008263D

 61 65  0     0  0  0  0  0  0999 V2000
    7.1050    9.4310   22.0560 C   0  0  0  0  0  0  0  0  0  0  0  0
    8.0370    8.5150   21.5950 C   0  0  0  0  0  0  0  0  0  0  0  0
    7.4800   10.1700   23.2360 C   0  0  0  0  0  0  0  0  0  0  0  0
    9.2430    8.2400   22.2700 C   0  0  0  0  0  0  0  0  0  0  0  0
    8.7400   10.4480   25.1330 C   0  0  0  0  0  0  0  0  0  0  0  0
    9.9400   10.2970   25.8470 C   0  0  0  0  0  0  0  0  0  0  0  0
    4.8470    2.4880   18.6920 C   0  0  0  0  0  0  0  0  0  0  0  0
   11.0470    2.1850   23.1290 C   0  0  0  0  0  0  0  0  0  0  0  0
   11.5050   -0.1600   22.5890 C   0  0  0  0  0  0  0  0  0  0  0  0
   13.3160    1.4870   22.8820 C   0  0  0  0  0  0  0  0  0  0  0  0
   11.7370    6.5800   23.4750 C   0  0  0  0  0  0  0  0  0  0  0  0
    5.3340    1.9600   17.5420 C   0  0  0  0  0  0  0  0  0  0  0  0
    7.0110    0.8060   18.6190 C   0  0  0  0  0  0  0  0  0  0  0  0
    8.5750    9.8200   23.9550 C   0  0  0  0  0  0  0  0  0  0  0  0
    9.5380    8.9110   23.4080 C   0  0  0  0  0  0  0  0  0  0  0  0
   10.7990    8.8360   24.1130 C   0  0  0  0  0  0  0  0  0  0  0  0
    5.4570    2.1550   19.9110 C   0  0  0  0  0  0  0  0  0  0  0  0
   10.5410    0.9150   22.7770 C   0  0  0  0  0  0  0  0  0  0  0  0
    6.5210    1.2940   19.8910 C   0  0  0  0  0  0  0  0  0  0  0  0
   10.9440    9.5130   25.3560 C   0  0  0  0  0  0  0  0  0  0  0  0
   12.4130    2.5080   23.2760 C   0  0  0  0  0  0  0  0  0  0  0  0
   12.8900    0.1990   22.6020 C   0  0  0  0  0  0  0  0  0  0  0  0
   11.9130    7.9890   23.6820 C   0  0  0  0  0  0  0  0  0  0  0  0
   12.9390    6.0010   23.0240 C   0  0  0  0  0  0  0  0  0  0  0  0
    8.4100    1.2900   21.3800 C   0  0  0  0  0  0  0  0  0  0  0  0
    4.7760    2.7160   21.1790 C   0  0  0  0  0  0  0  0  0  0  0  0
   12.8830   10.4060   26.2440 C   0  0  0  0  0  0  0  0  0  0  0  0
    9.0840    0.6470   22.6580 C   0  0  0  0  0  0  0  0  0  0  0  0
   13.1870    4.6090   22.7130 C   0  0  0  0  0  0  0  0  0  0  0  0
    6.4690    1.2230   17.4200 N   0  0  0  0  0  0  0  0  0  0  0  0
   13.2420    8.2470   23.5340 N   0  0  0  0  0  0  0  0  0  0  0  0
    7.1430    0.8720   21.0100 N   0  0  0  0  0  0  0  0  0  0  0  0
    8.9670    2.2530   20.8420 O   0  0  0  0  0  0  0  0  0  0  0  0
   13.8090    7.0250   22.9980 O   0  0  0  0  0  0  0  0  0  0  0  0
   12.0850    9.2530   26.1110 O   0  0  0  0  0  0  0  0  0  0  0  0
   12.8780    3.7010   23.7600 O   0  0  0  0  0  0  0  0  0  0  0  0
   14.1120   -0.9630   22.2630 Cl  0  0  0  0  0  0  0  0  0  0  0  0
    6.1850    9.5630   21.4970 H   0  0  0  0  0  0  0  0  0  0  0  0
    7.9140    8.0430   20.6280 H   0  0  0  0  0  0  0  0  0  0  0  0
    6.7910   10.8830   23.6940 H   0  0  0  0  0  0  0  0  0  0  0  0
    9.9690    7.5760   21.8120 H   0  0  0  0  0  0  0  0  0  0  0  0
    7.9600   11.0990   25.5310 H   0  0  0  0  0  0  0  0  0  0  0  0
    9.9730   10.8670   26.7700 H   0  0  0  0  0  0  0  0  0  0  0  0
    3.9570    3.1150   18.6890 H   0  0  0  0  0  0  0  0  0  0  0  0
   10.3030    2.9110   23.4610 H   0  0  0  0  0  0  0  0  0  0  0  0
   11.1910   -1.1660   22.3050 H   0  0  0  0  0  0  0  0  0  0  0  0
   14.4010    1.6300   22.9060 H   0  0  0  0  0  0  0  0  0  0  0  0
   10.8000    6.0900   23.7080 H   0  0  0  0  0  0  0  0  0  0  0  0
    5.0090    2.4100   16.6060 H   0  0  0  0  0  0  0  0  0  0  0  0
    7.7010   -0.0320   18.6350 H   0  0  0  0  0  0  0  0  0  0  0  0
    4.8440    1.8300   21.8060 H   0  0  0  0  0  0  0  0  0  0  0  0
    5.2940    3.5750   21.6230 H   0  0  0  0  0  0  0  0  0  0  0  0
    3.7660    3.0950   20.9900 H   0  0  0  0  0  0  0  0  0  0  0  0
   12.4250   11.3140   26.6330 H   0  0  0  0  0  0  0  0  0  0  0  0
   13.2450   10.6580   25.2380 H   0  0  0  0  0  0  0  0  0  0  0  0
   13.7780   10.1440   26.8120 H   0  0  0  0  0  0  0  0  0  0  0  0
    8.9820   -0.4450   22.6540 H   0  0  0  0  0  0  0  0  0  0  0  0
    8.4470    1.1050   23.4190 H   0  0  0  0  0  0  0  0  0  0  0  0
   12.5360    4.4580   21.8500 H   0  0  0  0  0  0  0  0  0  0  0  0
   14.1900    4.6200   22.2880 H   0  0  0  0  0  0  0  0  0  0  0  0
    6.7290    0.1030   21.5290 H   0  0  0  0  0  0  0  0  0  0  0  0
 12 49  1  0  0  0  0
 12 30  2  0  0  0  0
 13 30  1  0  0  0  0
  7 12  1  0  0  0  0
 13 50  1  0  0  0  0
 13 19  2  0  0  0  0
  7 44  1  0  0  0  0
  7 17  2  0  0  0  0
 17 19  1  0  0  0  0
 19 32  1  0  0  0  0
 17 26  1  0  0  0  0
  2 39  1  0  0  0  0
 25 33  2  0  0  0  0
 26 53  1  0  0  0  0
 25 32  1  0  0  0  0
 32 61  1  0  0  0  0
 26 52  1  0  0  0  0
 26 51  1  0  0  0  0
 25 28  1  0  0  0  0
  1 38  1  0  0  0  0
  1  2  2  0  0  0  0
  2  4  1  0  0  0  0
  4 41  1  0  0  0  0
 29 59  1  0  0  0  0
  1  3  1  0  0  0  0
 22 37  1  0  0  0  0
  4 15  2  0  0  0  0
 29 60  1  0  0  0  0
  9 46  1  0  0  0  0
  9 22  2  0  0  0  0
  9 18  1  0  0  0  0
 10 22  1  0  0  0  0
 28 57  1  0  0  0  0
 18 28  1  0  0  0  0
 28 58  1  0  0  0  0
 24 29  1  0  0  0  0
 29 36  1  0  0  0  0
  8 18  2  0  0  0  0
 10 47  1  0  0  0  0
 10 21  2  0  0  0  0
 24 34  1  0  0  0  0
 31 34  1  0  0  0  0
 11 24  2  0  0  0  0
  8 21  1  0  0  0  0
  8 45  1  0  0  0  0
  3 40  1  0  0  0  0
  3 14  2  0  0  0  0
 21 36  1  0  0  0  0
 14 15  1  0  0  0  0
 15 16  1  0  0  0  0
 11 23  1  0  0  0  0
 11 48  1  0  0  0  0
 23 31  2  0  0  0  0
 16 23  1  0  0  0  0
  5 14  1  0  0  0  0
 16 20  2  0  0  0  0
  5 42  1  0  0  0  0
  5  6  2  0  0  0  0
 27 55  1  0  0  0  0
  6 20  1  0  0  0  0
 20 35  1  0  0  0  0
  6 43  1  0  0  0  0
 27 35  1  0  0  0  0
 27 54  1  0  0  0  0
 27 56  1  0  0  0  0
M  END
> <CID>
EN300-127870

> <SMILES>
Cc1ccncc1NC(=O)Cc2cc(cc(c2)Cl)OCc3cc(no3)c4c5ccccc5ccc4OC

> <RUN>
RUN3778

> <DDG (kcal/mol)>
-0.31

> <dDDG (kcal/mol)>
0.22

$$$$
EN300-1613387
  -OEChem-08252008263D

 51 54  0     0  0  0  0  0  0999 V2000
   11.8610    5.4460   26.7040 C   0  0  0  0  0  0  0  0  0  0  0  0
   12.2000    5.6380   25.3610 C   0  0  0  0  0  0  0  0  0  0  0  0
   12.4540    6.2500   27.6920 C   0  0  0  0  0  0  0  0  0  0  0  0
    4.8110    2.2260   19.3170 C   0  0  0  0  0  0  0  0  0  0  0  0
   13.6150    7.4850   25.9370 C   0  0  0  0  0  0  0  0  0  0  0  0
   11.2720    2.1960   22.8510 C   0  0  0  0  0  0  0  0  0  0  0  0
   11.5660   -0.1930   22.2390 C   0  0  0  0  0  0  0  0  0  0  0  0
   13.4580    1.3080   22.4370 C   0  0  0  0  0  0  0  0  0  0  0  0
    5.1240    1.9550   17.9750 C   0  0  0  0  0  0  0  0  0  0  0  0
    7.0290    0.8590   18.5720 C   0  0  0  0  0  0  0  0  0  0  0  0
   13.0850    6.6430   24.9690 C   0  0  0  0  0  0  0  0  0  0  0  0
    5.5460    1.6620   20.3550 C   0  0  0  0  0  0  0  0  0  0  0  0
   10.7160    0.9160   22.6540 C   0  0  0  0  0  0  0  0  0  0  0  0
    6.7130    0.9480   19.9340 C   0  0  0  0  0  0  0  0  0  0  0  0
   12.6680    2.3940   22.7220 C   0  0  0  0  0  0  0  0  0  0  0  0
   12.9370    0.0030   22.1300 C   0  0  0  0  0  0  0  0  0  0  0  0
   13.3940    7.2480   27.3000 C   0  0  0  0  0  0  0  0  0  0  0  0
   13.5100    6.8220   23.5390 C   0  0  0  0  0  0  0  0  0  0  0  0
   13.3740    6.0730   22.4120 C   0  0  0  0  0  0  0  0  0  0  0  0
   14.4530    7.9990   21.9940 C   0  0  0  0  0  0  0  0  0  0  0  0
    8.5360    1.1780   21.4830 C   0  0  0  0  0  0  0  0  0  0  0  0
    5.0920    1.8020   21.8120 C   0  0  0  0  0  0  0  0  0  0  0  0
    9.3040    0.6820   22.6490 C   0  0  0  0  0  0  0  0  0  0  0  0
   12.7440    4.7450   22.0390 C   0  0  0  0  0  0  0  0  0  0  0  0
    6.1860    1.2640   17.6470 N   0  0  0  0  0  0  0  0  0  0  0  0
    7.5650    0.4630   20.8970 N   0  0  0  0  0  0  0  0  0  0  0  0
   14.9840    8.9150   21.4140 O   0  0  0  0  0  0  0  0  0  0  0  0
    8.8050    2.2850   21.0900 O   0  0  0  0  0  0  0  0  0  0  0  0
   14.0420    8.0070   23.2620 O   0  0  0  0  0  0  0  0  0  0  0  0
   14.0670    6.8370   21.5000 O   0  0  0  0  0  0  0  0  0  0  0  0
   13.2810    3.6320   22.7790 O   0  0  0  0  0  0  0  0  0  0  0  0
   14.0070   -1.3340   21.6380 Cl  0  0  0  0  0  0  0  0  0  0  0  0
   14.2460    8.2920   28.6430 Br  0  0  0  0  0  0  0  0  0  0  0  0
   11.0950    4.7590   27.0360 H   0  0  0  0  0  0  0  0  0  0  0  0
   11.7850    4.9220   24.6610 H   0  0  0  0  0  0  0  0  0  0  0  0
   12.2260    6.1730   28.7490 H   0  0  0  0  0  0  0  0  0  0  0  0
    3.8440    2.7070   19.4660 H   0  0  0  0  0  0  0  0  0  0  0  0
   14.2930    8.2960   25.6740 H   0  0  0  0  0  0  0  0  0  0  0  0
   10.6060    3.0410   23.0320 H   0  0  0  0  0  0  0  0  0  0  0  0
   11.2200   -1.1920   21.9890 H   0  0  0  0  0  0  0  0  0  0  0  0
   14.5130    1.5030   22.2550 H   0  0  0  0  0  0  0  0  0  0  0  0
    4.4080    2.4550   17.3460 H   0  0  0  0  0  0  0  0  0  0  0  0
    7.9160    0.3510   18.2070 H   0  0  0  0  0  0  0  0  0  0  0  0
    4.2530    2.5010   21.9380 H   0  0  0  0  0  0  0  0  0  0  0  0
    4.7990    0.8420   22.2490 H   0  0  0  0  0  0  0  0  0  0  0  0
    5.9270    2.2620   22.3390 H   0  0  0  0  0  0  0  0  0  0  0  0
    9.1790   -0.3900   22.7740 H   0  0  0  0  0  0  0  0  0  0  0  0
    8.7960    1.1910   23.4810 H   0  0  0  0  0  0  0  0  0  0  0  0
   12.9340    4.6700   20.9710 H   0  0  0  0  0  0  0  0  0  0  0  0
   11.6550    4.7520   22.1620 H   0  0  0  0  0  0  0  0  0  0  0  0
    7.2460   -0.3510   21.4310 H   0  0  0  0  0  0  0  0  0  0  0  0
  9 42  1  0  0  0  0
  9 25  2  0  0  0  0
 10 25  1  0  0  0  0
  4  9  1  0  0  0  0
 10 43  1  0  0  0  0
 10 14  2  0  0  0  0
  4 37  1  0  0  0  0
  4 12  2  0  0  0  0
 12 14  1  0  0  0  0
 14 26  1  0  0  0  0
 12 22  1  0  0  0  0
 26 51  1  0  0  0  0
 21 26  1  0  0  0  0
 24 49  1  0  0  0  0
 21 28  2  0  0  0  0
 20 27  2  0  0  0  0
 21 23  1  0  0  0  0
 20 30  1  0  0  0  0
 19 30  1  0  0  0  0
 16 32  1  0  0  0  0
 22 44  1  0  0  0  0
 22 45  1  0  0  0  0
 22 46  1  0  0  0  0
  7 40  1  0  0  0  0
 20 29  1  0  0  0  0
 24 50  1  0  0  0  0
 19 24  1  0  0  0  0
 24 31  1  0  0  0  0
  7 16  2  0  0  0  0
  8 16  1  0  0  0  0
  7 13  1  0  0  0  0
  8 41  1  0  0  0  0
 18 19  2  0  0  0  0
  8 15  2  0  0  0  0
 13 23  1  0  0  0  0
 23 47  1  0  0  0  0
 23 48  1  0  0  0  0
  6 13  2  0  0  0  0
 15 31  1  0  0  0  0
  6 15  1  0  0  0  0
  6 39  1  0  0  0  0
 18 29  1  0  0  0  0
 11 18  1  0  0  0  0
  2 35  1  0  0  0  0
  2 11  2  0  0  0  0
  5 11  1  0  0  0  0
  1  2  1  0  0  0  0
  5 38  1  0  0  0  0
  5 17  2  0  0  0  0
  1 34  1  0  0  0  0
  1  3  2  0  0  0  0
  3 17  1  0  0  0  0
 17 33  1  0  0  0  0
  3 36  1  0  0  0  0
M  END
> <CID>
EN300-1613387

> <SMILES>
Cc1ccncc1NC(=O)Cc2cc(cc(c2)Cl)OCc3c(oc(=O)o3)c4cccc(c4)Br

> <RUN>
RUN1307

> <DDG (kcal/mol)>
-0.31

> <dDDG (kcal/mol)>
0.19

$$$$
EN300-728709
  -OEChem-08252008263D

 38 39  0     0  0  0  0  0  0999 V2000
    5.3150    0.4580   19.9840 C   0  0  0  0  0  0  0  0  0  0  0  0
   12.6080    0.5930   23.2000 C   0  0  0  0  0  0  0  0  0  0  0  0
   12.9020   -1.6440   22.4010 C   0  0  0  0  0  0  0  0  0  0  0  0
   14.8040   -0.1620   22.4840 C   0  0  0  0  0  0  0  0  0  0  0  0
    5.9410    0.6390   18.7600 C   0  0  0  0  0  0  0  0  0  0  0  0
    7.9450   -0.1770   19.5700 C   0  0  0  0  0  0  0  0  0  0  0  0
    6.0670    0.0190   21.0680 C   0  0  0  0  0  0  0  0  0  0  0  0
   12.0310   -0.6370   22.9110 C   0  0  0  0  0  0  0  0  0  0  0  0
    7.4640   -0.1820   20.8760 C   0  0  0  0  0  0  0  0  0  0  0  0
   14.0070    0.8460   23.0140 C   0  0  0  0  0  0  0  0  0  0  0  0
   14.2820   -1.4370   22.1860 C   0  0  0  0  0  0  0  0  0  0  0  0
    9.6390   -0.2060   22.0800 C   0  0  0  0  0  0  0  0  0  0  0  0
    5.5520   -0.1170   22.4720 C   0  0  0  0  0  0  0  0  0  0  0  0
   10.5460   -0.9450   23.0870 C   0  0  0  0  0  0  0  0  0  0  0  0
   13.9190    3.1780   23.0110 C   0  0  0  0  0  0  0  0  0  0  0  0
    7.2150    0.2610   18.5760 N   0  0  0  0  0  0  0  0  0  0  0  0
    8.3060   -0.5720   21.9160 N   0  0  0  0  0  0  0  0  0  0  0  0
    9.9870    0.7470   21.3600 O   0  0  0  0  0  0  0  0  0  0  0  0
   15.6900    4.8430   21.5240 O   0  0  0  0  0  0  0  0  0  0  0  0
   16.1560    4.6010   23.8690 O   0  0  0  0  0  0  0  0  0  0  0  0
   14.6420    2.0010   23.3690 O   0  0  0  0  0  0  0  0  0  0  0  0
   14.1420    5.9390   23.3220 F   0  0  0  0  0  0  0  0  0  0  0  0
   15.0370    4.7000   22.8770 S   0  0  0  0  0  0  0  0  0  0  0  0
   15.2180   -2.8390   21.6210 Cl  0  0  0  0  0  0  0  0  0  0  0  0
    4.3100    0.8430   20.1360 H   0  0  0  0  0  0  0  0  0  0  0  0
   11.9630    1.3290   23.6600 H   0  0  0  0  0  0  0  0  0  0  0  0
   12.4950   -2.5580   21.9740 H   0  0  0  0  0  0  0  0  0  0  0  0
   15.8100    0.0520   22.1330 H   0  0  0  0  0  0  0  0  0  0  0  0
    5.3880    1.0050   17.8960 H   0  0  0  0  0  0  0  0  0  0  0  0
    8.9520   -0.5070   19.3270 H   0  0  0  0  0  0  0  0  0  0  0  0
    5.4510    0.8370   23.0020 H   0  0  0  0  0  0  0  0  0  0  0  0
    4.6150   -0.6850   22.4450 H   0  0  0  0  0  0  0  0  0  0  0  0
    6.2110   -0.6660   23.1490 H   0  0  0  0  0  0  0  0  0  0  0  0
   10.2910   -1.9980   22.9250 H   0  0  0  0  0  0  0  0  0  0  0  0
   10.1400   -0.7310   24.0800 H   0  0  0  0  0  0  0  0  0  0  0  0
   13.1410    3.5370   23.6930 H   0  0  0  0  0  0  0  0  0  0  0  0
   13.4800    3.0780   22.0160 H   0  0  0  0  0  0  0  0  0  0  0  0
    7.9310   -1.1670   22.6450 H   0  0  0  0  0  0  0  0  0  0  0  0
  5 29  1  0  0  0  0
  5 16  2  0  0  0  0
  6 16  1  0  0  0  0
  1  5  1  0  0  0  0
  6 30  1  0  0  0  0
  6  9  2  0  0  0  0
  1 25  1  0  0  0  0
  1  7  2  0  0  0  0
  7  9  1  0  0  0  0
  9 17  1  0  0  0  0
  7 13  1  0  0  0  0
 12 18  2  0  0  0  0
 19 23  2  0  0  0  0
 11 24  1  0  0  0  0
 12 17  1  0  0  0  0
 17 38  1  0  0  0  0
  3 27  1  0  0  0  0
 15 37  1  0  0  0  0
 12 14  1  0  0  0  0
  4 28  1  0  0  0  0
  3 11  2  0  0  0  0
  4 11  1  0  0  0  0
  3  8  1  0  0  0  0
 13 32  1  0  0  0  0
 13 31  1  0  0  0  0
 13 33  1  0  0  0  0
  4 10  2  0  0  0  0
 15 23  1  0  0  0  0
 22 23  1  0  0  0  0
 20 23  2  0  0  0  0
  8 14  1  0  0  0  0
  2  8  2  0  0  0  0
 14 34  1  0  0  0  0
 15 21  1  0  0  0  0
 15 36  1  0  0  0  0
  2 10  1  0  0  0  0
 10 21  1  0  0  0  0
 14 35  1  0  0  0  0
  2 26  1  0  0  0  0
M  END
> <CID>
EN300-728709

> <SMILES>
Cc1ccncc1NC(=O)Cc2cc(cc(c2)Cl)OCS(=O)(=O)F

> <RUN>
RUN302

> <DDG (kcal/mol)>
-0.31

> <dDDG (kcal/mol)>
0.09

$$$$
EN300-1940535
  -OEChem-08252008263D

 52 55  0     1  0  0  0  0  0999 V2000
    9.8960    2.5320   27.9680 C   0  0  0  0  0  0  0  0  0  0  0  0
    9.9920    1.9760   26.6590 C   0  0  0  0  0  0  0  0  0  0  0  0
    6.7310    1.7640   19.5830 C   0  0  0  0  0  0  0  0  0  0  0  0
    9.4390   -2.1600   23.4890 C   0  0  0  0  0  0  0  0  0  0  0  0
   10.8340   -2.9270   21.6120 C   0  0  0  0  0  0  0  0  0  0  0  0
   11.6110   -1.4350   23.1870 C   0  0  0  0  0  0  0  0  0  0  0  0
    6.3050    1.4100   18.3300 C   0  0  0  0  0  0  0  0  0  0  0  0
    6.8570   -0.7480   18.7320 C   0  0  0  0  0  0  0  0  0  0  0  0
    7.3720    0.8420   20.4400 C   0  0  0  0  0  0  0  0  0  0  0  0
    9.5910   -2.9610   22.3200 C   0  0  0  0  0  0  0  0  0  0  0  0
    7.2520   -0.4790   20.0500 C   0  0  0  0  0  0  0  0  0  0  0  0
   10.4400   -1.2910   23.8820 C   0  0  0  0  0  0  0  0  0  0  0  0
   11.9050   -2.1930   22.1000 C   0  0  0  0  0  0  0  0  0  0  0  0
   10.7340    1.8260   28.7520 C   0  0  0  0  0  0  0  0  0  0  0  0
   10.9990    1.0360   26.7310 C   0  0  0  0  0  0  0  0  0  0  0  0
    7.5040   -2.8550   20.8200 C   0  0  0  0  0  0  0  0  0  0  0  0
   12.3610    1.5500   30.8500 C   0  0  0  0  0  0  0  0  0  0  0  0
   10.9630    2.0320   30.2800 C   0  0  2  0  0  0  0  0  0  0  0  0
   11.1400    0.7340   31.0720 C   0  0  2  0  0  0  0  0  0  0  0  0
    7.9460    1.2170   21.7760 C   0  0  0  0  0  0  0  0  0  0  0  0
   10.5220    0.6650   32.4650 C   0  0  0  0  0  0  0  0  0  0  0  0
    8.4240   -3.6470   21.7580 C   0  0  0  0  0  0  0  0  0  0  0  0
   11.4490    0.1750   25.5450 C   0  0  0  0  0  0  0  0  0  0  0  0
    6.3880    0.1460   17.8480 N   0  0  0  0  0  0  0  0  0  0  0  0
    7.3780   -1.4600   21.0530 N   0  0  0  0  0  0  0  0  0  0  0  0
    6.8710   -3.5030   19.9950 O   0  0  0  0  0  0  0  0  0  0  0  0
   11.4280    0.9460   28.0180 O   0  0  0  0  0  0  0  0  0  0  0  0
   10.2540   -0.3840   24.9610 O   0  0  0  0  0  0  0  0  0  0  0  0
   13.4870   -2.2790   21.3750 Cl  0  0  0  0  0  0  0  0  0  0  0  0
    9.3120    3.4050   28.2230 H   0  0  0  0  0  0  0  0  0  0  0  0
    9.4300    2.1830   25.7520 H   0  0  0  0  0  0  0  0  0  0  0  0
    6.4320    2.7800   19.7810 H   0  0  0  0  0  0  0  0  0  0  0  0
    8.5310   -2.1500   24.0780 H   0  0  0  0  0  0  0  0  0  0  0  0
   11.0120   -3.6070   20.7770 H   0  0  0  0  0  0  0  0  0  0  0  0
   12.4640   -0.8360   23.5010 H   0  0  0  0  0  0  0  0  0  0  0  0
    5.8080    2.0890   17.6520 H   0  0  0  0  0  0  0  0  0  0  0  0
    6.8200   -1.7840   18.4050 H   0  0  0  0  0  0  0  0  0  0  0  0
   12.9800    1.0580   30.0980 H   0  0  0  0  0  0  0  0  0  0  0  0
   12.8070    2.0710   31.7030 H   0  0  0  0  0  0  0  0  0  0  0  0
   10.4490    2.8640   30.7770 H   0  0  0  0  0  0  0  0  0  0  0  0
   11.1590   -0.1600   30.4290 H   0  0  0  0  0  0  0  0  0  0  0  0
    8.7480    0.5230   22.0530 H   0  0  0  0  0  0  0  0  0  0  0  0
    8.3610    2.2180   21.6610 H   0  0  0  0  0  0  0  0  0  0  0  0
    7.1220    1.3710   22.4840 H   0  0  0  0  0  0  0  0  0  0  0  0
   10.8540   -0.2000   33.0560 H   0  0  0  0  0  0  0  0  0  0  0  0
    9.4670    0.3890   32.3600 H   0  0  0  0  0  0  0  0  0  0  0  0
   10.6900    1.5920   33.0230 H   0  0  0  0  0  0  0  0  0  0  0  0
    8.7280   -4.5720   21.2680 H   0  0  0  0  0  0  0  0  0  0  0  0
    7.7510   -4.0000   22.5430 H   0  0  0  0  0  0  0  0  0  0  0  0
   12.0100    0.7410   24.8080 H   0  0  0  0  0  0  0  0  0  0  0  0
   12.0640   -0.5830   26.0370 H   0  0  0  0  0  0  0  0  0  0  0  0
    7.8170   -1.2020   21.9360 H   0  0  0  0  0  0  0  0  0  0  0  0
  7 36  1  0  0  0  0
  7 24  2  0  0  0  0
  8 24  1  0  0  0  0
  3  7  1  0  0  0  0
  8 37  1  0  0  0  0
  8 11  2  0  0  0  0
  3 32  1  0  0  0  0
  3  9  2  0  0  0  0
 16 26  2  0  0  0  0
  9 11  1  0  0  0  0
 11 25  1  0  0  0  0
  9 20  1  0  0  0  0
  5 34  1  0  0  0  0
 16 25  1  0  0  0  0
 16 22  1  0  0  0  0
 25 52  1  0  0  0  0
 22 48  1  0  0  0  0
 13 29  1  0  0  0  0
  5 13  2  0  0  0  0
  5 10  1  0  0  0  0
 20 43  1  0  0  0  0
 10 22  1  0  0  0  0
 22 49  1  0  0  0  0
 20 42  1  0  0  0  0
 20 44  1  0  0  0  0
  6 13  1  0  0  0  0
  4 10  2  0  0  0  0
  6 35  1  0  0  0  0
  6 12  2  0  0  0  0
  4 12  1  0  0  0  0
  4 33  1  0  0  0  0
 12 28  1  0  0  0  0
 23 50  1  0  0  0  0
 23 28  1  0  0  0  0
 23 51  1  0  0  0  0
 15 23  1  0  0  0  0
  2 31  1  0  0  0  0
  2 15  2  0  0  0  0
  1  2  1  0  0  0  0
 15 27  1  0  0  0  0
  1 30  1  0  0  0  0
  1 14  2  0  0  0  0
 14 27  1  0  0  0  0
 14 18  1  0  0  0  0
 17 38  1  0  0  0  0
 18 40  1  0  0  0  0
 17 18  1  0  0  0  0
 18 19  1  0  0  0  0
 19 41  1  0  0  0  0
 17 19  1  0  0  0  0
 17 39  1  0  0  0  0
 19 21  1  0  0  0  0
 21 46  1  0  0  0  0
 21 47  1  0  0  0  0
 21 45  1  0  0  0  0
M  END
> <CID>
EN300-1940535

> <SMILES>
Cc1ccncc1NC(=O)Cc2cc(cc(c2)Cl)OCc3ccc(o3)[C@@H]4C[C@H]4C

> <RUN>
RUN161

> <DDG (kcal/mol)>
-0.31

> <dDDG (kcal/mol)>
0.11

$$$$
EN300-219845
  -OEChem-08252008263D

 44 46  0     1  0  0  0  0  0999 V2000
    6.5860   -6.9080   23.7420 C   0  0  0  0  0  0  0  0  0  0  0  0
   10.7640    0.5110   23.0340 C   0  0  0  0  0  0  0  0  0  0  0  0
   11.8240   -1.6620   23.1810 C   0  0  0  0  0  0  0  0  0  0  0  0
   13.2130    0.3430   22.9950 C   0  0  0  0  0  0  0  0  0  0  0  0
    7.5670   -7.5590   24.5490 C   0  0  0  0  0  0  0  0  0  0  0  0
    9.1070   -5.8380   24.3780 C   0  0  0  0  0  0  0  0  0  0  0  0
    9.0650    5.5140   22.4700 C   0  3  0  0  0  0  0  0  0  0  0  0
    6.8640   -5.6570   23.3070 C   0  0  0  0  0  0  0  0  0  0  0  0
   10.7010   -0.8710   23.1710 C   0  0  0  0  0  0  0  0  0  0  0  0
    8.1080   -5.0570   23.6740 C   0  0  0  0  0  0  0  0  0  0  0  0
   12.0270    1.1800   22.9270 C   0  0  0  0  0  0  0  0  0  0  0  0
   13.0880   -1.0340   23.1490 C   0  0  0  0  0  0  0  0  0  0  0  0
    9.2250    7.3290   23.6000 C   0  0  3  0  0  0  0  0  0  0  0  0
    9.2560   -2.8700   23.6900 C   0  0  0  0  0  0  0  0  0  0  0  0
    5.8190   -4.9010   22.5550 C   0  0  0  0  0  0  0  0  0  0  0  0
    9.3280   -1.4960   22.9970 C   0  0  0  0  0  0  0  0  0  0  0  0
   11.5620    4.8170   22.6040 C   0  0  0  0  0  0  0  0  0  0  0  0
   11.2700    3.4420   23.0780 C   0  0  0  0  0  0  0  0  0  0  0  0
    8.7410   -6.9890   24.8860 N   0  0  0  0  0  0  0  0  0  0  0  0
    8.3830    6.5670   22.7790 N   0  3  0  0  0  0  0  0  0  0  0  0
   10.5090    6.8950   23.5740 N   0  0  0  0  0  0  0  0  0  0  0  0
   10.4330    5.7720   22.8530 N   0  0  0  0  0  0  0  0  0  0  0  0
    8.5430   -3.8780   23.0560 N   0  0  0  0  0  0  0  0  0  0  0  0
    9.7750   -3.0840   24.7930 O   0  0  0  0  0  0  0  0  0  0  0  0
   12.2990    2.5270   22.8160 O   0  0  0  0  0  0  0  0  0  0  0  0
   14.5370   -2.0150   23.1590 Cl  0  0  0  0  0  0  0  0  0  0  0  0
    8.6360    8.8900   24.5410 Br  0  0  0  0  0  0  0  0  0  0  0  0
    5.6260   -7.3500   23.4780 H   0  0  0  0  0  0  0  0  0  0  0  0
    9.8220    1.0590   23.0880 H   0  0  0  0  0  0  0  0  0  0  0  0
   11.7520   -2.7450   23.2390 H   0  0  0  0  0  0  0  0  0  0  0  0
   14.1840    0.8380   23.0000 H   0  0  0  0  0  0  0  0  0  0  0  0
    7.3090   -8.5390   24.9390 H   0  0  0  0  0  0  0  0  0  0  0  0
   10.1350   -5.5080   24.4810 H   0  0  0  0  0  0  0  0  0  0  0  0
    8.7670    4.6490   21.8800 H   0  0  0  0  0  0  0  0  0  0  0  0
    5.7830   -3.8330   22.8090 H   0  0  0  0  0  0  0  0  0  0  0  0
    6.0620   -4.8670   21.4840 H   0  0  0  0  0  0  0  0  0  0  0  0
    4.8170   -5.3250   22.5210 H   0  0  0  0  0  0  0  0  0  0  0  0
    8.5260   -0.8260   23.3250 H   0  0  0  0  0  0  0  0  0  0  0  0
    9.1330   -1.6770   21.9450 H   0  0  0  0  0  0  0  0  0  0  0  0
   11.9360    4.8370   21.5770 H   0  0  0  0  0  0  0  0  0  0  0  0
   12.3970    5.2200   23.1900 H   0  0  0  0  0  0  0  0  0  0  0  0
   11.1260    3.3670   24.1610 H   0  0  0  0  0  0  0  0  0  0  0  0
   10.3540    3.1050   22.5720 H   0  0  0  0  0  0  0  0  0  0  0  0
    7.9900   -3.6390   22.2290 H   0  0  0  0  0  0  0  0  0  0  0  0
 15 36  1  0  0  0  0
 17 40  1  0  0  0  0
  7 34  1  0  0  0  0
 16 39  1  0  0  0  0
 23 44  1  0  0  0  0
  7 20  1  0  0  0  0
  7 22  1  0  0  0  0
 15 37  1  0  0  0  0
 15 35  1  0  0  0  0
  8 15  1  0  0  0  0
 18 43  1  0  0  0  0
 17 22  1  0  0  0  0
 17 18  1  0  0  0  0
 17 41  1  0  0  0  0
 13 20  1  0  0  0  0
 11 25  1  0  0  0  0
 18 25  1  0  0  0  0
 21 22  1  0  0  0  0
  4 11  2  0  0  0  0
  2 11  1  0  0  0  0
  4 31  1  0  0  0  0
  4 12  1  0  0  0  0
  9 16  1  0  0  0  0
 16 38  1  0  0  0  0
 14 16  1  0  0  0  0
  2 29  1  0  0  0  0
  2  9  2  0  0  0  0
 10 23  1  0  0  0  0
 14 23  1  0  0  0  0
 18 42  1  0  0  0  0
 12 26  1  0  0  0  0
  3 12  2  0  0  0  0
  3  9  1  0  0  0  0
  3 30  1  0  0  0  0
  8 10  2  0  0  0  0
  1  8  1  0  0  0  0
  1 28  1  0  0  0  0
 13 21  1  0  0  0  0
 13 27  1  0  0  0  0
  6 10  1  0  0  0  0
 14 24  2  0  0  0  0
  1  5  2  0  0  0  0
  6 33  1  0  0  0  0
  6 19  2  0  0  0  0
  5 19  1  0  0  0  0
  5 32  1  0  0  0  0
M  CHG  2   7   1  20   1
M  END
> <CID>
EN300-219845

> <SMILES>
Cc1ccncc1NC(=O)Cc2cc(cc(c2)Cl)OCCn3cnc(n3)Br

> <RUN>
RUN2721

> <DDG (kcal/mol)>
-0.30

> <dDDG (kcal/mol)>
0.15

$$$$
EN300-236658
  -OEChem-08252008263D

 52 55  0     0  0  0  0  0  0999 V2000
   12.1540    6.5650   29.5380 C   0  0  0  0  0  0  0  0  0  0  0  0
   11.3070    5.6380   28.9120 C   0  0  0  0  0  0  0  0  0  0  0  0
   13.1940    7.1360   28.8280 C   0  0  0  0  0  0  0  0  0  0  0  0
    6.4640    1.6020   19.8500 C   0  0  0  0  0  0  0  0  0  0  0  0
   11.0170    4.1780   26.7410 C   0  0  0  0  0  0  0  0  0  0  0  0
   11.5060    0.1700   23.8390 C   0  0  0  0  0  0  0  0  0  0  0  0
   12.5540   -1.6850   22.7850 C   0  0  0  0  0  0  0  0  0  0  0  0
   13.8770    0.2700   23.2820 C   0  0  0  0  0  0  0  0  0  0  0  0
    6.7660    1.1400   18.5640 C   0  0  0  0  0  0  0  0  0  0  0  0
    8.4900   -0.0800   19.5500 C   0  0  0  0  0  0  0  0  0  0  0  0
   11.5780    5.2140   27.6190 C   0  0  0  0  0  0  0  0  0  0  0  0
    6.9780    1.1590   21.0240 C   0  0  0  0  0  0  0  0  0  0  0  0
   11.3740   -1.1140   23.3780 C   0  0  0  0  0  0  0  0  0  0  0  0
    8.0060    0.2220   20.9170 C   0  0  0  0  0  0  0  0  0  0  0  0
   12.7060    5.6990   26.9560 C   0  0  0  0  0  0  0  0  0  0  0  0
   13.4670    6.7080   27.4930 C   0  0  0  0  0  0  0  0  0  0  0  0
   12.7450    0.8900   23.8590 C   0  0  0  0  0  0  0  0  0  0  0  0
   13.7800   -1.0140   22.8460 C   0  0  0  0  0  0  0  0  0  0  0  0
   11.9420    4.0320   25.7620 C   0  0  0  0  0  0  0  0  0  0  0  0
    9.2180   -1.6350   22.1770 C   0  0  0  0  0  0  0  0  0  0  0  0
    6.4540    1.6250   22.3180 C   0  0  0  0  0  0  0  0  0  0  0  0
   15.4210    8.0780   27.3990 C   0  0  0  0  0  0  0  0  0  0  0  0
   10.0740   -1.8890   23.4230 C   0  0  0  0  0  0  0  0  0  0  0  0
   11.7990    3.0740   24.6010 C   0  0  0  0  0  0  0  0  0  0  0  0
    7.8190    0.2430   18.4160 N   0  0  0  0  0  0  0  0  0  0  0  0
    8.5420   -0.4080   22.0690 N   0  0  0  0  0  0  0  0  0  0  0  0
    9.0730   -2.4730   21.2660 O   0  0  0  0  0  0  0  0  0  0  0  0
   12.9380    4.9880   25.8180 O   0  0  0  0  0  0  0  0  0  0  0  0
   14.4740    7.2760   26.6610 O   0  0  0  0  0  0  0  0  0  0  0  0
   12.9320    2.0820   24.6230 O   0  0  0  0  0  0  0  0  0  0  0  0
   15.1580   -1.7890   22.1910 Cl  0  0  0  0  0  0  0  0  0  0  0  0
   11.9560    6.8300   30.5820 H   0  0  0  0  0  0  0  0  0  0  0  0
   10.4950    5.1220   29.4180 H   0  0  0  0  0  0  0  0  0  0  0  0
   13.5600    7.9880   29.3900 H   0  0  0  0  0  0  0  0  0  0  0  0
    5.6330    2.3050   19.8420 H   0  0  0  0  0  0  0  0  0  0  0  0
   10.1660    3.5400   26.9950 H   0  0  0  0  0  0  0  0  0  0  0  0
   10.6230    0.6000   24.2970 H   0  0  0  0  0  0  0  0  0  0  0  0
   12.4500   -2.6250   22.2700 H   0  0  0  0  0  0  0  0  0  0  0  0
   14.8840    0.6570   23.3480 H   0  0  0  0  0  0  0  0  0  0  0  0
    6.3890    1.5490   17.6350 H   0  0  0  0  0  0  0  0  0  0  0  0
    9.3370   -0.7380   19.4730 H   0  0  0  0  0  0  0  0  0  0  0  0
    7.2420    1.9010   23.0290 H   0  0  0  0  0  0  0  0  0  0  0  0
    5.8130    2.5060   22.2200 H   0  0  0  0  0  0  0  0  0  0  0  0
    5.9790    0.7710   22.8160 H   0  0  0  0  0  0  0  0  0  0  0  0
   14.9360    9.0570   27.5270 H   0  0  0  0  0  0  0  0  0  0  0  0
   16.1940    8.3080   26.6590 H   0  0  0  0  0  0  0  0  0  0  0  0
   15.7050    7.6820   28.3740 H   0  0  0  0  0  0  0  0  0  0  0  0
   10.3080   -2.9580   23.4300 H   0  0  0  0  0  0  0  0  0  0  0  0
    9.5380   -1.6400   24.3440 H   0  0  0  0  0  0  0  0  0  0  0  0
   10.8340    2.5760   24.6650 H   0  0  0  0  0  0  0  0  0  0  0  0
   11.8180    3.7010   23.7000 H   0  0  0  0  0  0  0  0  0  0  0  0
    8.5240    0.2000   22.8900 H   0  0  0  0  0  0  0  0  0  0  0  0
  9 40  1  0  0  0  0
  9 25  2  0  0  0  0
 10 25  1  0  0  0  0
  4  9  1  0  0  0  0
 10 41  1  0  0  0  0
 10 14  2  0  0  0  0
  4 35  1  0  0  0  0
  4 12  2  0  0  0  0
 12 14  1  0  0  0  0
 14 26  1  0  0  0  0
 12 21  1  0  0  0  0
 20 27  2  0  0  0  0
 20 26  1  0  0  0  0
 26 52  1  0  0  0  0
 20 23  1  0  0  0  0
 18 31  1  0  0  0  0
 21 43  1  0  0  0  0
  7 38  1  0  0  0  0
 21 44  1  0  0  0  0
 21 42  1  0  0  0  0
  7 18  2  0  0  0  0
  7 13  1  0  0  0  0
  8 18  1  0  0  0  0
  8 39  1  0  0  0  0
  8 17  2  0  0  0  0
 13 23  1  0  0  0  0
  6 13  2  0  0  0  0
 23 48  1  0  0  0  0
 23 49  1  0  0  0  0
 24 51  1  0  0  0  0
  6 17  1  0  0  0  0
  6 37  1  0  0  0  0
 17 30  1  0  0  0  0
 24 30  1  0  0  0  0
 24 50  1  0  0  0  0
 19 24  1  0  0  0  0
 19 28  1  0  0  0  0
  5 19  2  0  0  0  0
 15 28  1  0  0  0  0
 22 46  1  0  0  0  0
 22 29  1  0  0  0  0
 16 29  1  0  0  0  0
  5 36  1  0  0  0  0
  5 11  1  0  0  0  0
 15 16  2  0  0  0  0
 11 15  1  0  0  0  0
 22 45  1  0  0  0  0
 22 47  1  0  0  0  0
  3 16  1  0  0  0  0
  2 11  2  0  0  0  0
  3 34  1  0  0  0  0
  1  3  2  0  0  0  0
  2 33  1  0  0  0  0
  1  2  1  0  0  0  0
  1 32  1  0  0  0  0
M  END
> <CID>
EN300-236658

> <SMILES>
Cc1ccncc1NC(=O)Cc2cc(cc(c2)Cl)OCc3cc4cccc(c4o3)OC

> <RUN>
RUN2648

> <DDG (kcal/mol)>
-0.30

> <dDDG (kcal/mol)>
0.16

$$$$
EN300-254027
  -OEChem-08252008263D

 45 47  0     0  0  0  0  0  0999 V2000
    4.9000    1.0440   19.1930 C   0  0  0  0  0  0  0  0  0  0  0  0
   10.1540    0.0230   24.9980 C   0  0  0  0  0  0  0  0  0  0  0  0
    9.7220    2.5070   28.1760 C   0  0  0  0  0  0  0  0  0  0  0  0
   11.5250   -1.1480   23.3100 C   0  0  0  0  0  0  0  0  0  0  0  0
    9.9020    0.0360   28.2170 C   0  0  0  0  0  0  0  0  0  0  0  0
   12.5640    0.1440   25.1200 C   0  0  0  0  0  0  0  0  0  0  0  0
    5.6330    0.8850   18.0300 C   0  0  0  0  0  0  0  0  0  0  0  0
    7.2630   -0.0890   19.2520 C   0  0  0  0  0  0  0  0  0  0  0  0
    5.3480    0.5770   20.4330 C   0  0  0  0  0  0  0  0  0  0  0  0
   10.2390   -0.8080   23.8460 C   0  0  0  0  0  0  0  0  0  0  0  0
    8.8520    2.4350   29.3560 C   0  0  0  0  0  0  0  0  0  0  0  0
    6.6510    0.0020   20.4740 C   0  0  0  0  0  0  0  0  0  0  0  0
   10.2510    1.2940   27.6480 C   0  0  0  0  0  0  0  0  0  0  0  0
   11.2890    0.4810   25.5950 C   0  0  0  0  0  0  0  0  0  0  0  0
    9.0430    0.0320   29.3190 C   0  0  0  0  0  0  0  0  0  0  0  0
    8.5700    1.2010   29.9210 C   0  0  0  0  0  0  0  0  0  0  0  0
   12.7120   -0.6800   24.0050 C   0  0  0  0  0  0  0  0  0  0  0  0
    8.6210   -0.7460   21.8550 C   0  0  0  0  0  0  0  0  0  0  0  0
    4.6720    1.0140   21.7080 C   0  0  0  0  0  0  0  0  0  0  0  0
    8.9770   -1.3430   23.1810 C   0  0  0  0  0  0  0  0  0  0  0  0
    8.2480    3.7370   29.9790 C   0  0  0  0  0  0  0  0  0  0  0  0
    6.8560    0.3190   18.0620 N   0  0  0  0  0  0  0  0  0  0  0  0
    7.2660   -0.3920   21.6520 N   0  0  0  0  0  0  0  0  0  0  0  0
    9.5290   -0.5690   21.0520 O   0  0  0  0  0  0  0  0  0  0  0  0
   11.2680    1.4130   26.6820 O   0  0  0  0  0  0  0  0  0  0  0  0
    8.6550   -1.1500   29.7640 F   0  0  0  0  0  0  0  0  0  0  0  0
    7.7460    1.0660   30.9910 F   0  0  0  0  0  0  0  0  0  0  0  0
   14.3580   -0.9800   23.4340 Cl  0  0  0  0  0  0  0  0  0  0  0  0
    9.3290    4.3040   31.4940 Br  0  0  0  0  0  0  0  0  0  0  0  0
    3.9160    1.4660   19.0110 H   0  0  0  0  0  0  0  0  0  0  0  0
    9.1780    0.2050   25.4340 H   0  0  0  0  0  0  0  0  0  0  0  0
    9.9100    3.4750   27.7170 H   0  0  0  0  0  0  0  0  0  0  0  0
   11.5150   -1.6310   22.3400 H   0  0  0  0  0  0  0  0  0  0  0  0
   10.2980   -0.8800   27.7970 H   0  0  0  0  0  0  0  0  0  0  0  0
   13.4150    0.5920   25.6180 H   0  0  0  0  0  0  0  0  0  0  0  0
    5.1460    1.1920   17.1050 H   0  0  0  0  0  0  0  0  0  0  0  0
    8.1810   -0.6450   19.0770 H   0  0  0  0  0  0  0  0  0  0  0  0
    4.6740    0.1210   22.3420 H   0  0  0  0  0  0  0  0  0  0  0  0
    5.1650    1.9640   21.9780 H   0  0  0  0  0  0  0  0  0  0  0  0
    3.6590    1.3740   21.4870 H   0  0  0  0  0  0  0  0  0  0  0  0
    9.1430   -2.4250   23.0330 H   0  0  0  0  0  0  0  0  0  0  0  0
    8.1100   -1.0920   23.7980 H   0  0  0  0  0  0  0  0  0  0  0  0
    8.2830    4.5460   29.2330 H   0  0  0  0  0  0  0  0  0  0  0  0
    7.2000    3.6030   30.2160 H   0  0  0  0  0  0  0  0  0  0  0  0
    6.6890   -0.4490   22.4950 H   0  0  0  0  0  0  0  0  0  0  0  0
  7 36  1  0  0  0  0
  7 22  2  0  0  0  0
  1  7  1  0  0  0  0
  8 22  1  0  0  0  0
  1 30  1  0  0  0  0
  8 37  1  0  0  0  0
  1  9  2  0  0  0  0
  8 12  2  0  0  0  0
  9 12  1  0  0  0  0
  9 19  1  0  0  0  0
 12 23  1  0  0  0  0
 18 24  2  0  0  0  0
 19 40  1  0  0  0  0
 18 23  1  0  0  0  0
 23 45  1  0  0  0  0
 19 39  1  0  0  0  0
 19 38  1  0  0  0  0
 18 20  1  0  0  0  0
  4 33  1  0  0  0  0
 20 41  1  0  0  0  0
 20 42  1  0  0  0  0
 10 20  1  0  0  0  0
  4 10  2  0  0  0  0
  4 17  1  0  0  0  0
 17 28  1  0  0  0  0
  2 10  1  0  0  0  0
  6 17  2  0  0  0  0
  2 31  1  0  0  0  0
  2 14  2  0  0  0  0
  6 14  1  0  0  0  0
  6 35  1  0  0  0  0
 14 25  1  0  0  0  0
 13 25  1  0  0  0  0
  3 13  2  0  0  0  0
  5 13  1  0  0  0  0
  3 32  1  0  0  0  0
  5 34  1  0  0  0  0
  3 11  1  0  0  0  0
  5 15  2  0  0  0  0
 21 43  1  0  0  0  0
 15 26  1  0  0  0  0
 15 16  1  0  0  0  0
 11 16  2  0  0  0  0
 11 21  1  0  0  0  0
 16 27  1  0  0  0  0
 21 44  1  0  0  0  0
 21 29  1  0  0  0  0
M  END
> <CID>
EN300-254027

> <SMILES>
Cc1ccncc1NC(=O)Cc2cc(cc(c2)Cl)Oc3cc(c(c(c3)F)F)CBr

> <RUN>
RUN2633

> <DDG (kcal/mol)>
-0.29

> <dDDG (kcal/mol)>
0.12

$$$$
EN300-118287
  -OEChem-08252008263D

 60 63  0     1  0  0  0  0  0999 V2000
   12.9490    5.1490   24.8270 C   0  0  0  0  0  0  0  0  0  0  0  0
   14.8460    4.6860   23.5490 C   0  0  0  0  0  0  0  0  0  0  0  0
   13.5630    6.3700   25.3420 C   0  0  0  0  0  0  0  0  0  0  0  0
   15.5050    5.8400   24.0500 C   0  0  0  0  0  0  0  0  0  0  0  0
    4.8090    0.3390   20.0920 C   0  0  0  0  0  0  0  0  0  0  0  0
   11.8780    0.2790   23.1500 C   0  0  0  0  0  0  0  0  0  0  0  0
   12.5280   -2.0050   23.3400 C   0  0  0  0  0  0  0  0  0  0  0  0
   14.2060   -0.2910   23.7910 C   0  0  0  0  0  0  0  0  0  0  0  0
    5.1920    0.6320   18.7710 C   0  0  0  0  0  0  0  0  0  0  0  0
    7.3170   -0.0870   19.3650 C   0  0  0  0  0  0  0  0  0  0  0  0
   13.5590    4.3530   23.8650 C   0  0  0  0  0  0  0  0  0  0  0  0
    5.6410   -0.2170   21.0270 C   0  0  0  0  0  0  0  0  0  0  0  0
   11.5830   -1.0790   22.9340 C   0  0  0  0  0  0  0  0  0  0  0  0
    6.9650   -0.3990   20.6890 C   0  0  0  0  0  0  0  0  0  0  0  0
   14.8860    6.6960   24.9070 C   0  0  0  0  0  0  0  0  0  0  0  0
   13.2170    0.6630   23.4530 C   0  0  0  0  0  0  0  0  0  0  0  0
   13.8040   -1.6180   23.7860 C   0  0  0  0  0  0  0  0  0  0  0  0
    9.2520   -0.5500   21.6850 C   0  0  0  0  0  0  0  0  0  0  0  0
   14.9340   10.5380   28.9200 C   0  0  0  0  0  0  0  0  0  0  0  0
   13.9370    9.6120   28.2780 C   0  0  0  0  0  0  0  0  0  0  0  0
   16.3420   10.2260   28.4920 C   0  0  0  0  0  0  0  0  0  0  0  0
   14.8810    8.6070   27.4800 C   0  0  1  0  0  0  0  0  0  0  0  0
    5.1840   -0.5420   22.4620 C   0  0  0  0  0  0  0  0  0  0  0  0
   10.1680   -1.5110   22.4930 C   0  0  0  0  0  0  0  0  0  0  0  0
   12.8920    3.1040   23.2630 C   0  0  0  0  0  0  0  0  0  0  0  0
   14.9930    8.8930   26.0010 C   0  0  0  0  0  0  0  0  0  0  0  0
    6.4600    0.3980   18.4740 N   0  0  0  0  0  0  0  0  0  0  0  0
    7.9200   -0.9030   21.5860 N   0  0  0  0  0  0  0  0  0  0  0  0
    9.6830    0.2690   20.8710 O   0  0  0  0  0  0  0  0  0  0  0  0
   16.1390    8.8480   28.1040 O   0  0  0  0  0  0  0  0  0  0  0  0
   13.7560    1.9780   23.5970 O   0  0  0  0  0  0  0  0  0  0  0  0
   15.6010    7.8700   25.2160 O   0  0  0  0  0  0  0  0  0  0  0  0
   14.9970   -2.7890   24.4360 Cl  0  0  0  0  0  0  0  0  0  0  0  0
   11.9320    4.8100   25.0410 H   0  0  0  0  0  0  0  0  0  0  0  0
   15.3700    4.0380   22.8550 H   0  0  0  0  0  0  0  0  0  0  0  0
   13.0680    7.0070   26.0700 H   0  0  0  0  0  0  0  0  0  0  0  0
   16.5700    5.9450   23.8450 H   0  0  0  0  0  0  0  0  0  0  0  0
    3.7800    0.5690   20.3520 H   0  0  0  0  0  0  0  0  0  0  0  0
   11.0930    1.0090   22.9380 H   0  0  0  0  0  0  0  0  0  0  0  0
   12.3480   -3.0820   23.3510 H   0  0  0  0  0  0  0  0  0  0  0  0
   15.2320    0.0350   23.9280 H   0  0  0  0  0  0  0  0  0  0  0  0
    4.4240    1.0290   18.1090 H   0  0  0  0  0  0  0  0  0  0  0  0
    8.3490   -0.1540   19.0300 H   0  0  0  0  0  0  0  0  0  0  0  0
   14.7330   11.5510   28.5520 H   0  0  0  0  0  0  0  0  0  0  0  0
   14.9180   10.4310   30.0050 H   0  0  0  0  0  0  0  0  0  0  0  0
   13.3710    8.9510   28.9490 H   0  0  0  0  0  0  0  0  0  0  0  0
   13.2280   10.1270   27.6180 H   0  0  0  0  0  0  0  0  0  0  0  0
   16.6980   10.8120   27.6420 H   0  0  0  0  0  0  0  0  0  0  0  0
   17.1230   10.3390   29.2470 H   0  0  0  0  0  0  0  0  0  0  0  0
   14.6060    7.5530   27.5900 H   0  0  0  0  0  0  0  0  0  0  0  0
    5.3660   -1.5970   22.6840 H   0  0  0  0  0  0  0  0  0  0  0  0
    5.7270    0.0460   23.2120 H   0  0  0  0  0  0  0  0  0  0  0  0
    4.1210   -0.4590   22.6800 H   0  0  0  0  0  0  0  0  0  0  0  0
   10.1370   -2.5130   22.0510 H   0  0  0  0  0  0  0  0  0  0  0  0
    9.6910   -1.6310   23.4640 H   0  0  0  0  0  0  0  0  0  0  0  0
   11.9050    3.0700   23.7230 H   0  0  0  0  0  0  0  0  0  0  0  0
   12.8040    3.0180   22.1750 H   0  0  0  0  0  0  0  0  0  0  0  0
   15.6460    9.7720   25.8830 H   0  0  0  0  0  0  0  0  0  0  0  0
   13.9750    9.1620   25.7120 H   0  0  0  0  0  0  0  0  0  0  0  0
    7.6510   -1.6220   22.2640 H   0  0  0  0  0  0  0  0  0  0  0  0
  9 42  1  0  0  0  0
  9 27  2  0  0  0  0
 10 27  1  0  0  0  0
  5  9  1  0  0  0  0
 10 43  1  0  0  0  0
 10 14  2  0  0  0  0
  5 38  1  0  0  0  0
  5 12  2  0  0  0  0
 12 14  1  0  0  0  0
 14 28  1  0  0  0  0
 18 29  2  0  0  0  0
 12 23  1  0  0  0  0
 18 28  1  0  0  0  0
 28 60  1  0  0  0  0
 18 24  1  0  0  0  0
 24 54  1  0  0  0  0
 25 57  1  0  0  0  0
 23 53  1  0  0  0  0
 23 51  1  0  0  0  0
 23 52  1  0  0  0  0
 13 24  1  0  0  0  0
 24 55  1  0  0  0  0
  2 35  1  0  0  0  0
  6 13  2  0  0  0  0
  7 13  1  0  0  0  0
  6 39  1  0  0  0  0
  6 16  1  0  0  0  0
 25 31  1  0  0  0  0
 25 56  1  0  0  0  0
 11 25  1  0  0  0  0
  7 40  1  0  0  0  0
  7 17  2  0  0  0  0
 16 31  1  0  0  0  0
  8 16  2  0  0  0  0
  2 11  2  0  0  0  0
  2  4  1  0  0  0  0
  8 17  1  0  0  0  0
 17 33  1  0  0  0  0
  8 41  1  0  0  0  0
  4 37  1  0  0  0  0
  1 11  1  0  0  0  0
  4 15  2  0  0  0  0
  1 34  1  0  0  0  0
  1  3  2  0  0  0  0
 15 32  1  0  0  0  0
  3 15  1  0  0  0  0
 26 32  1  0  0  0  0
  3 36  1  0  0  0  0
 26 59  1  0  0  0  0
 26 58  1  0  0  0  0
 22 26  1  0  0  0  0
 22 50  1  0  0  0  0
 22 30  1  0  0  0  0
 20 22  1  0  0  0  0
 20 47  1  0  0  0  0
 21 48  1  0  0  0  0
 21 30  1  0  0  0  0
 19 20  1  0  0  0  0
 20 46  1  0  0  0  0
 19 21  1  0  0  0  0
 21 49  1  0  0  0  0
 19 44  1  0  0  0  0
 19 45  1  0  0  0  0
M  END
> <CID>
EN300-118287

> <SMILES>
Cc1ccncc1NC(=O)Cc2cc(cc(c2)Cl)OCc3ccc(cc3)OC[C@@H]4CCCO4

> <RUN>
RUN3490

> <DDG (kcal/mol)>
-0.28

> <dDDG (kcal/mol)>
0.15

$$$$
EN300-43569
  -OEChem-08252008263D

 57 60  0     0  0  0  0  0  0999 V2000
   13.1440    5.3190   25.8760 C   0  0  0  0  0  0  0  0  0  0  0  0
   12.1940    5.5830   26.8720 C   0  0  0  0  0  0  0  0  0  0  0  0
    6.6400    0.2510   19.9550 C   0  0  0  0  0  0  0  0  0  0  0  0
   11.6590    3.4730   25.1900 C   0  0  0  0  0  0  0  0  0  0  0  0
   12.6970   -0.3900   23.8070 C   0  0  0  0  0  0  0  0  0  0  0  0
   12.8380   -1.9320   21.9900 C   0  0  0  0  0  0  0  0  0  0  0  0
   14.4470   -0.1580   22.1830 C   0  0  0  0  0  0  0  0  0  0  0  0
    6.2820   -0.8370   19.1320 C   0  0  0  0  0  0  0  0  0  0  0  0
    7.9310   -2.2420   20.0460 C   0  0  0  0  0  0  0  0  0  0  0  0
   12.8170    4.2400   24.9580 C   0  0  0  0  0  0  0  0  0  0  0  0
   11.0540    4.8450   27.0620 C   0  0  0  0  0  0  0  0  0  0  0  0
   10.8040    3.7040   26.1880 C   0  0  0  0  0  0  0  0  0  0  0  0
    7.7590    0.1130   20.7400 C   0  0  0  0  0  0  0  0  0  0  0  0
   12.1700   -1.4880   23.1400 C   0  0  0  0  0  0  0  0  0  0  0  0
    8.4120   -1.1890   20.8620 C   0  0  0  0  0  0  0  0  0  0  0  0
   13.7120    0.2880   23.3220 C   0  0  0  0  0  0  0  0  0  0  0  0
   14.0340   -1.3400   21.5210 C   0  0  0  0  0  0  0  0  0  0  0  0
   13.7660    3.8900   23.9080 C   0  0  0  0  0  0  0  0  0  0  0  0
    9.8190   -2.3200   22.5490 C   0  0  0  0  0  0  0  0  0  0  0  0
    9.9680    5.2020   28.0790 C   0  0  0  0  0  0  0  0  0  0  0  0
    9.6930    2.7720   26.4250 C   0  0  0  0  0  0  0  0  0  0  0  0
    9.2020    4.0050   28.5530 C   0  0  0  0  0  0  0  0  0  0  0  0
    8.6050    3.2380   27.3630 C   0  0  0  0  0  0  0  0  0  0  0  0
    8.1960    1.2860   21.5680 C   0  0  0  0  0  0  0  0  0  0  0  0
   10.9120   -2.1970   23.6000 C   0  0  0  0  0  0  0  0  0  0  0  0
   13.8870    2.5610   23.1840 C   0  0  0  0  0  0  0  0  0  0  0  0
    6.9120   -2.0530   19.2040 N   0  0  0  0  0  0  0  0  0  0  0  0
    9.5510   -1.2430   21.6630 N   0  0  0  0  0  0  0  0  0  0  0  0
   14.4600    4.7730   23.3850 O   0  0  0  0  0  0  0  0  0  0  0  0
    8.9910   -3.2480   22.5920 O   0  0  0  0  0  0  0  0  0  0  0  0
   14.0890    1.3820   24.0450 O   0  0  0  0  0  0  0  0  0  0  0  0
   14.9320   -1.9780   20.2320 Cl  0  0  0  0  0  0  0  0  0  0  0  0
   13.9780    5.9910   25.6980 H   0  0  0  0  0  0  0  0  0  0  0  0
   12.3890    6.4700   27.4600 H   0  0  0  0  0  0  0  0  0  0  0  0
    6.0550    1.1550   19.9270 H   0  0  0  0  0  0  0  0  0  0  0  0
   11.5690    2.5250   24.6690 H   0  0  0  0  0  0  0  0  0  0  0  0
   12.2730   -0.0860   24.7570 H   0  0  0  0  0  0  0  0  0  0  0  0
   12.6010   -2.8900   21.5370 H   0  0  0  0  0  0  0  0  0  0  0  0
   15.2490    0.4190   21.7360 H   0  0  0  0  0  0  0  0  0  0  0  0
    5.5120   -0.7620   18.3840 H   0  0  0  0  0  0  0  0  0  0  0  0
    8.3810   -3.2260   20.1220 H   0  0  0  0  0  0  0  0  0  0  0  0
   10.4490    5.6910   28.9350 H   0  0  0  0  0  0  0  0  0  0  0  0
    9.3010    5.9210   27.5860 H   0  0  0  0  0  0  0  0  0  0  0  0
    9.1470    2.4100   25.5500 H   0  0  0  0  0  0  0  0  0  0  0  0
   10.1340    1.8740   26.8670 H   0  0  0  0  0  0  0  0  0  0  0  0
    9.7550    3.2920   29.1750 H   0  0  0  0  0  0  0  0  0  0  0  0
    8.4360    4.4010   29.2340 H   0  0  0  0  0  0  0  0  0  0  0  0
    7.8400    3.8430   26.8740 H   0  0  0  0  0  0  0  0  0  0  0  0
    8.0850    2.3140   27.6240 H   0  0  0  0  0  0  0  0  0  0  0  0
    7.8470    1.0850   22.5860 H   0  0  0  0  0  0  0  0  0  0  0  0
    9.2730    1.3930   21.4570 H   0  0  0  0  0  0  0  0  0  0  0  0
    7.6590    2.1560   21.1600 H   0  0  0  0  0  0  0  0  0  0  0  0
   11.1780   -3.2130   23.9140 H   0  0  0  0  0  0  0  0  0  0  0  0
   10.5140   -1.8640   24.5620 H   0  0  0  0  0  0  0  0  0  0  0  0
   14.7520    2.5790   22.5240 H   0  0  0  0  0  0  0  0  0  0  0  0
   12.9100    2.4260   22.7230 H   0  0  0  0  0  0  0  0  0  0  0  0
   10.2430   -0.4960   21.7430 H   0  0  0  0  0  0  0  0  0  0  0  0
  8 40  1  0  0  0  0
  8 27  2  0  0  0  0
  3  8  1  0  0  0  0
  9 27  1  0  0  0  0
  3 35  1  0  0  0  0
  3 13  2  0  0  0  0
  9 41  1  0  0  0  0
  9 15  2  0  0  0  0
 17 32  1  0  0  0  0
 13 15  1  0  0  0  0
 13 24  1  0  0  0  0
 15 28  1  0  0  0  0
 24 52  1  0  0  0  0
 24 51  1  0  0  0  0
  6 17  2  0  0  0  0
  7 17  1  0  0  0  0
  6 38  1  0  0  0  0
 24 50  1  0  0  0  0
 28 57  1  0  0  0  0
 19 28  1  0  0  0  0
  7 39  1  0  0  0  0
  6 14  1  0  0  0  0
  7 16  2  0  0  0  0
 26 55  1  0  0  0  0
 19 30  2  0  0  0  0
 19 25  1  0  0  0  0
 26 56  1  0  0  0  0
 14 25  1  0  0  0  0
  5 14  2  0  0  0  0
 18 26  1  0  0  0  0
 26 31  1  0  0  0  0
  5 16  1  0  0  0  0
 16 31  1  0  0  0  0
 18 29  2  0  0  0  0
 25 53  1  0  0  0  0
 25 54  1  0  0  0  0
  5 37  1  0  0  0  0
 10 18  1  0  0  0  0
  4 36  1  0  0  0  0
  4 10  2  0  0  0  0
  1 10  1  0  0  0  0
  4 12  1  0  0  0  0
 21 44  1  0  0  0  0
  1 33  1  0  0  0  0
  1  2  2  0  0  0  0
 12 21  1  0  0  0  0
 11 12  2  0  0  0  0
 21 45  1  0  0  0  0
 21 23  1  0  0  0  0
  2 11  1  0  0  0  0
  2 34  1  0  0  0  0
 23 48  1  0  0  0  0
 11 20  1  0  0  0  0
 23 49  1  0  0  0  0
 22 23  1  0  0  0  0
 20 43  1  0  0  0  0
 20 22  1  0  0  0  0
 20 42  1  0  0  0  0
 22 46  1  0  0  0  0
 22 47  1  0  0  0  0
M  END
> <CID>
EN300-43569

> <SMILES>
Cc1ccncc1NC(=O)Cc2cc(cc(c2)Cl)OCC(=O)c3ccc4c(c3)CCCC4

> <RUN>
RUN4494

> <DDG (kcal/mol)>
-0.28

> <dDDG (kcal/mol)>
0.21

$$$$
EN300-1456498
  -OEChem-08252008263D

 46 48  0     0  0  0  0  0  0999 V2000
   13.5820    7.3010   23.9840 C   0  0  0  0  0  0  0  0  0  0  0  0
   13.8130    6.2560   23.0560 C   0  0  0  0  0  0  0  0  0  0  0  0
    4.3710    1.4640   19.1180 C   0  0  0  0  0  0  0  0  0  0  0  0
   11.4960    1.7420   22.9760 C   0  0  0  0  0  0  0  0  0  0  0  0
   11.4050   -0.6490   23.1580 C   0  0  0  0  0  0  0  0  0  0  0  0
   13.5750    0.4360   22.8700 C   0  0  0  0  0  0  0  0  0  0  0  0
    4.9400    0.7940   18.0190 C   0  0  0  0  0  0  0  0  0  0  0  0
    6.7550    0.1240   19.3150 C   0  0  0  0  0  0  0  0  0  0  0  0
    5.0580    1.5790   20.2790 C   0  0  0  0  0  0  0  0  0  0  0  0
   10.6980    0.5600   23.0640 C   0  0  0  0  0  0  0  0  0  0  0  0
    6.3480    0.8760   20.4100 C   0  0  0  0  0  0  0  0  0  0  0  0
   12.9240    1.7200   22.8700 C   0  0  0  0  0  0  0  0  0  0  0  0
   12.7990   -0.7580   22.9310 C   0  0  0  0  0  0  0  0  0  0  0  0
   12.4960    7.1470   24.8610 C   0  0  0  0  0  0  0  0  0  0  0  0
   12.9810    5.1530   23.0880 C   0  0  0  0  0  0  0  0  0  0  0  0
    8.4650    0.7270   21.7500 C   0  0  0  0  0  0  0  0  0  0  0  0
    4.5500    2.4950   21.3560 C   0  0  0  0  0  0  0  0  0  0  0  0
   12.0160    8.2710   25.7500 C   0  0  0  0  0  0  0  0  0  0  0  0
    9.1670    0.6030   23.1070 C   0  0  0  0  0  0  0  0  0  0  0  0
   13.2730    3.9860   22.1780 C   0  0  0  0  0  0  0  0  0  0  0  0
    6.0850    0.0740   18.0940 N   0  0  0  0  0  0  0  0  0  0  0  0
   11.7430    6.0170   24.8470 N   0  0  0  0  0  0  0  0  0  0  0  0
   11.9330    5.1150   23.9260 N   0  0  0  0  0  0  0  0  0  0  0  0
    7.1000    0.9710   21.6140 N   0  0  0  0  0  0  0  0  0  0  0  0
    9.0230    0.5330   20.7150 O   0  0  0  0  0  0  0  0  0  0  0  0
   13.7520    2.8030   22.8300 O   0  0  0  0  0  0  0  0  0  0  0  0
   13.5560   -2.3480   22.9330 Cl  0  0  0  0  0  0  0  0  0  0  0  0
   14.2230    8.1750   23.9940 H   0  0  0  0  0  0  0  0  0  0  0  0
   14.7110    6.3860   22.4510 H   0  0  0  0  0  0  0  0  0  0  0  0
    3.4540    2.0010   18.8740 H   0  0  0  0  0  0  0  0  0  0  0  0
   11.0550    2.7310   23.0690 H   0  0  0  0  0  0  0  0  0  0  0  0
   10.8460   -1.5390   23.4370 H   0  0  0  0  0  0  0  0  0  0  0  0
   14.6550    0.2950   22.8520 H   0  0  0  0  0  0  0  0  0  0  0  0
    4.5030    0.7690   17.0260 H   0  0  0  0  0  0  0  0  0  0  0  0
    7.5940   -0.5560   19.4770 H   0  0  0  0  0  0  0  0  0  0  0  0
    5.4320    2.9180   21.8470 H   0  0  0  0  0  0  0  0  0  0  0  0
    3.9980    3.3940   21.0580 H   0  0  0  0  0  0  0  0  0  0  0  0
    4.0430    1.8750   22.1000 H   0  0  0  0  0  0  0  0  0  0  0  0
   11.4910    8.9950   25.1150 H   0  0  0  0  0  0  0  0  0  0  0  0
   11.2830    7.9930   26.5080 H   0  0  0  0  0  0  0  0  0  0  0  0
   12.8620    8.7560   26.2500 H   0  0  0  0  0  0  0  0  0  0  0  0
    8.8330   -0.3240   23.5680 H   0  0  0  0  0  0  0  0  0  0  0  0
    8.6600    1.4050   23.6530 H   0  0  0  0  0  0  0  0  0  0  0  0
   12.4030    3.7240   21.5580 H   0  0  0  0  0  0  0  0  0  0  0  0
   14.0570    4.2140   21.4580 H   0  0  0  0  0  0  0  0  0  0  0  0
    6.6480    1.3280   22.4580 H   0  0  0  0  0  0  0  0  0  0  0  0
  7 34  1  0  0  0  0
  7 21  2  0  0  0  0
  3  7  1  0  0  0  0
  8 21  1  0  0  0  0
  3 30  1  0  0  0  0
  3  9  2  0  0  0  0
  8 35  1  0  0  0  0
  8 11  2  0  0  0  0
  9 11  1  0  0  0  0
  9 17  1  0  0  0  0
 11 24  1  0  0  0  0
 16 25  2  0  0  0  0
 17 37  1  0  0  0  0
 17 36  1  0  0  0  0
 17 38  1  0  0  0  0
 20 45  1  0  0  0  0
 20 44  1  0  0  0  0
 16 24  1  0  0  0  0
 24 46  1  0  0  0  0
 16 19  1  0  0  0  0
 20 26  1  0  0  0  0
 15 20  1  0  0  0  0
  2 29  1  0  0  0  0
 12 26  1  0  0  0  0
  6 33  1  0  0  0  0
  6 12  2  0  0  0  0
  6 13  1  0  0  0  0
  4 12  1  0  0  0  0
 13 27  1  0  0  0  0
  5 13  2  0  0  0  0
  4 10  2  0  0  0  0
  4 31  1  0  0  0  0
  2 15  2  0  0  0  0
  1  2  1  0  0  0  0
 10 19  1  0  0  0  0
  5 10  1  0  0  0  0
 15 23  1  0  0  0  0
 19 42  1  0  0  0  0
 19 43  1  0  0  0  0
  5 32  1  0  0  0  0
 22 23  2  0  0  0  0
  1 28  1  0  0  0  0
  1 14  2  0  0  0  0
 14 22  1  0  0  0  0
 14 18  1  0  0  0  0
 18 39  1  0  0  0  0
 18 41  1  0  0  0  0
 18 40  1  0  0  0  0
M  END
> <CID>
EN300-1456498

> <SMILES>
Cc1ccncc1NC(=O)Cc2cc(cc(c2)Cl)OCc3ccc(nn3)C

> <RUN>
RUN1684

> <DDG (kcal/mol)>
-0.28

> <dDDG (kcal/mol)>
0.12

$$$$
EN300-125523
  -OEChem-08252008263D

 50 53  0     0  0  0  0  0  0999 V2000
   14.3000    7.9960   22.1830 C   0  0  0  0  0  0  0  0  0  0  0  0
   13.1520    7.4840   26.8630 C   0  0  0  0  0  0  0  0  0  0  0  0
   14.0050    8.4630   23.4590 C   0  0  0  0  0  0  0  0  0  0  0  0
   13.5380    8.2670   25.8250 C   0  0  0  0  0  0  0  0  0  0  0  0
   14.3450    6.5630   22.0540 C   0  0  0  0  0  0  0  0  0  0  0  0
    9.9290   -6.3170   24.2710 C   0  0  0  0  0  0  0  0  0  0  0  0
   11.8550    1.5940   23.9500 C   0  0  0  0  0  0  0  0  0  0  0  0
   12.6690   -0.5440   23.1050 C   0  0  0  0  0  0  0  0  0  0  0  0
   13.4310    1.4930   22.1270 C   0  0  0  0  0  0  0  0  0  0  0  0
   13.0050    6.1460   26.6400 C   0  0  0  0  0  0  0  0  0  0  0  0
    9.0880   -6.4590   23.0930 C   0  0  0  0  0  0  0  0  0  0  0  0
    8.9050   -4.2030   23.0110 C   0  0  0  0  0  0  0  0  0  0  0  0
   13.8560    7.6420   24.5830 C   0  0  0  0  0  0  0  0  0  0  0  0
   14.0420    5.7120   23.1910 C   0  0  0  0  0  0  0  0  0  0  0  0
   10.0970   -5.0990   24.9030 C   0  0  0  0  0  0  0  0  0  0  0  0
   11.9270    0.1410   24.0470 C   0  0  0  0  0  0  0  0  0  0  0  0
   13.8000    6.2820   24.4290 C   0  0  0  0  0  0  0  0  0  0  0  0
    9.6300   -3.9560   24.2240 C   0  0  0  0  0  0  0  0  0  0  0  0
   12.6470    2.2630   23.0200 C   0  0  0  0  0  0  0  0  0  0  0  0
   13.4130    0.0930   22.1490 C   0  0  0  0  0  0  0  0  0  0  0  0
   10.1250   -1.4950   24.2970 C   0  0  0  0  0  0  0  0  0  0  0  0
   10.8170   -5.1270   26.2270 C   0  0  0  0  0  0  0  0  0  0  0  0
   11.1530   -0.5770   25.0440 C   0  0  0  0  0  0  0  0  0  0  0  0
   13.9520    4.1900   22.9800 C   0  0  0  0  0  0  0  0  0  0  0  0
    8.7080   -5.3910   22.3690 N   0  0  0  0  0  0  0  0  0  0  0  0
   13.4260    5.5560   25.5060 N   0  0  0  0  0  0  0  0  0  0  0  0
    9.9150   -2.7580   24.8370 N   0  0  0  0  0  0  0  0  0  0  0  0
    9.6550   -1.0610   23.2050 O   0  0  0  0  0  0  0  0  0  0  0  0
   12.5790    3.6460   23.0380 O   0  0  0  0  0  0  0  0  0  0  0  0
   14.3900   -0.8220   20.9750 Cl  0  0  0  0  0  0  0  0  0  0  0  0
   14.4130    8.6560   21.3330 H   0  0  0  0  0  0  0  0  0  0  0  0
   12.9310    7.8810   27.8380 H   0  0  0  0  0  0  0  0  0  0  0  0
   13.7910    9.5060   23.6890 H   0  0  0  0  0  0  0  0  0  0  0  0
   13.5200    9.3300   26.0560 H   0  0  0  0  0  0  0  0  0  0  0  0
   14.5730    6.1440   21.0710 H   0  0  0  0  0  0  0  0  0  0  0  0
   10.3760   -7.1800   24.7500 H   0  0  0  0  0  0  0  0  0  0  0  0
   11.2530    2.1830   24.6340 H   0  0  0  0  0  0  0  0  0  0  0  0
   12.7520   -1.6240   23.0720 H   0  0  0  0  0  0  0  0  0  0  0  0
   13.9800    1.9900   21.3460 H   0  0  0  0  0  0  0  0  0  0  0  0
   12.7110    5.5240   27.4780 H   0  0  0  0  0  0  0  0  0  0  0  0
    8.9100   -7.4410   22.6900 H   0  0  0  0  0  0  0  0  0  0  0  0
    8.5580   -3.2440   22.6410 H   0  0  0  0  0  0  0  0  0  0  0  0
   10.6140   -5.9990   26.8430 H   0  0  0  0  0  0  0  0  0  0  0  0
   11.9020   -5.0670   26.0500 H   0  0  0  0  0  0  0  0  0  0  0  0
   10.4820   -4.3990   26.9700 H   0  0  0  0  0  0  0  0  0  0  0  0
   11.7160   -1.1770   25.7650 H   0  0  0  0  0  0  0  0  0  0  0  0
   10.5830    0.0950   25.6970 H   0  0  0  0  0  0  0  0  0  0  0  0
   14.3200    4.0420   21.9640 H   0  0  0  0  0  0  0  0  0  0  0  0
   14.6270    3.7530   23.7330 H   0  0  0  0  0  0  0  0  0  0  0  0
   10.4050   -2.8860   25.7170 H   0  0  0  0  0  0  0  0  0  0  0  0
 20 30  1  0  0  0  0
  5 35  1  0  0  0  0
  1 31  1  0  0  0  0
  9 39  1  0  0  0  0
 24 48  1  0  0  0  0
  1  5  2  0  0  0  0
  5 14  1  0  0  0  0
  9 20  2  0  0  0  0
  9 19  1  0  0  0  0
  8 20  1  0  0  0  0
  1  3  1  0  0  0  0
 12 25  2  0  0  0  0
 11 25  1  0  0  0  0
 12 42  1  0  0  0  0
 11 41  1  0  0  0  0
 24 29  1  0  0  0  0
 14 24  1  0  0  0  0
 24 49  1  0  0  0  0
 12 18  1  0  0  0  0
 19 29  1  0  0  0  0
  7 19  2  0  0  0  0
  8 38  1  0  0  0  0
  6 11  2  0  0  0  0
  8 16  2  0  0  0  0
 14 17  2  0  0  0  0
 21 28  2  0  0  0  0
  3 33  1  0  0  0  0
  3 13  2  0  0  0  0
  7 16  1  0  0  0  0
  7 37  1  0  0  0  0
 16 23  1  0  0  0  0
 18 27  1  0  0  0  0
 15 18  2  0  0  0  0
  6 36  1  0  0  0  0
  6 15  1  0  0  0  0
 21 27  1  0  0  0  0
 21 23  1  0  0  0  0
 13 17  1  0  0  0  0
 17 26  1  0  0  0  0
  4 13  1  0  0  0  0
 27 50  1  0  0  0  0
 15 22  1  0  0  0  0
 23 47  1  0  0  0  0
 23 46  1  0  0  0  0
 10 26  2  0  0  0  0
  4 34  1  0  0  0  0
  2  4  2  0  0  0  0
 22 44  1  0  0  0  0
 22 43  1  0  0  0  0
 22 45  1  0  0  0  0
  2 10  1  0  0  0  0
 10 40  1  0  0  0  0
  2 32  1  0  0  0  0
M  END
> <CID>
EN300-125523

> <SMILES>
Cc1ccncc1NC(=O)Cc2cc(cc(c2)Cl)OCc3cccc4c3nccc4

> <RUN>
RUN274

> <DDG (kcal/mol)>
-0.28

> <dDDG (kcal/mol)>
0.14

$$$$
EN300-1897611
  -OEChem-08252008263D

 52 55  0     0  0  0  0  0  0999 V2000
   16.1890    6.1540   25.4960 C   0  0  0  0  0  0  0  0  0  0  0  0
   15.7550    5.3550   24.4530 C   0  0  0  0  0  0  0  0  0  0  0  0
   15.5860    6.0900   26.7440 C   0  0  0  0  0  0  0  0  0  0  0  0
   14.6330    4.5210   24.5630 C   0  0  0  0  0  0  0  0  0  0  0  0
   13.6570    5.3010   28.0820 C   0  0  0  0  0  0  0  0  0  0  0  0
   12.6230    4.3810   28.2660 C   0  0  0  0  0  0  0  0  0  0  0  0
    4.8150    0.4190   20.0350 C   0  0  0  0  0  0  0  0  0  0  0  0
   11.6410    0.2990   23.5790 C   0  0  0  0  0  0  0  0  0  0  0  0
   12.4440   -1.4370   22.0310 C   0  0  0  0  0  0  0  0  0  0  0  0
   13.9900    0.1300   23.0560 C   0  0  0  0  0  0  0  0  0  0  0  0
    5.1390    0.5020   18.7070 C   0  0  0  0  0  0  0  0  0  0  0  0
    7.2700   -0.2740   19.1960 C   0  0  0  0  0  0  0  0  0  0  0  0
   14.4140    5.3140   26.9340 C   0  0  0  0  0  0  0  0  0  0  0  0
   13.9300    4.4900   25.8080 C   0  0  0  0  0  0  0  0  0  0  0  0
    5.6350   -0.1790   20.9580 C   0  0  0  0  0  0  0  0  0  0  0  0
   11.3540   -0.7810   22.7210 C   0  0  0  0  0  0  0  0  0  0  0  0
   12.7890    3.7380   25.9690 C   0  0  0  0  0  0  0  0  0  0  0  0
    6.9180   -0.5710   20.5310 C   0  0  0  0  0  0  0  0  0  0  0  0
   12.2020    3.5570   27.2440 C   0  0  0  0  0  0  0  0  0  0  0  0
   12.9120    0.8160   23.7440 C   0  0  0  0  0  0  0  0  0  0  0  0
   13.7930   -1.0050   22.2670 C   0  0  0  0  0  0  0  0  0  0  0  0
    9.1070   -0.7360   21.6230 C   0  0  0  0  0  0  0  0  0  0  0  0
    5.2210   -0.2450   22.4210 C   0  0  0  0  0  0  0  0  0  0  0  0
   10.0180   -1.3690   22.7260 C   0  0  0  0  0  0  0  0  0  0  0  0
   12.2670    2.9140   24.7890 C   0  0  0  0  0  0  0  0  0  0  0  0
    6.3740    0.2300   18.2980 N   0  0  0  0  0  0  0  0  0  0  0  0
    7.8410   -1.2150   21.4130 N   0  0  0  0  0  0  0  0  0  0  0  0
    9.3710    0.3490   21.1100 O   0  0  0  0  0  0  0  0  0  0  0  0
   11.1150    2.7510   27.4220 O   0  0  0  0  0  0  0  0  0  0  0  0
   13.2720    1.8970   24.5290 O   0  0  0  0  0  0  0  0  0  0  0  0
   15.0770   -2.0110   21.5840 Cl  0  0  0  0  0  0  0  0  0  0  0  0
   17.1570    6.6390   25.3630 H   0  0  0  0  0  0  0  0  0  0  0  0
   16.2860    5.3540   23.5100 H   0  0  0  0  0  0  0  0  0  0  0  0
   16.1740    6.5920   27.5060 H   0  0  0  0  0  0  0  0  0  0  0  0
   14.2580    3.9010   23.7590 H   0  0  0  0  0  0  0  0  0  0  0  0
   13.9680    5.9150   28.9290 H   0  0  0  0  0  0  0  0  0  0  0  0
   12.2500    4.1860   29.2640 H   0  0  0  0  0  0  0  0  0  0  0  0
    3.9220    0.8400   20.4880 H   0  0  0  0  0  0  0  0  0  0  0  0
   10.7970    0.6170   24.1980 H   0  0  0  0  0  0  0  0  0  0  0  0
   12.3090   -2.2770   21.3550 H   0  0  0  0  0  0  0  0  0  0  0  0
   15.0180    0.4390   23.2160 H   0  0  0  0  0  0  0  0  0  0  0  0
    4.4610    0.9410   17.9780 H   0  0  0  0  0  0  0  0  0  0  0  0
    8.3300   -0.2680   18.9530 H   0  0  0  0  0  0  0  0  0  0  0  0
    5.0850   -1.2650   22.7930 H   0  0  0  0  0  0  0  0  0  0  0  0
    5.8770    0.3980   23.0160 H   0  0  0  0  0  0  0  0  0  0  0  0
    4.2220    0.1690   22.5870 H   0  0  0  0  0  0  0  0  0  0  0  0
   10.1470   -2.4490   22.5630 H   0  0  0  0  0  0  0  0  0  0  0  0
    9.4690   -1.3570   23.6640 H   0  0  0  0  0  0  0  0  0  0  0  0
   11.2350    2.5490   24.8820 H   0  0  0  0  0  0  0  0  0  0  0  0
   12.2460    3.6170   23.9430 H   0  0  0  0  0  0  0  0  0  0  0  0
    7.4950   -2.0540   21.8710 H   0  0  0  0  0  0  0  0  0  0  0  0
   10.4610    3.1870   27.9910 H   0  0  0  0  0  0  0  0  0  0  0  0
 11 42  1  0  0  0  0
 11 26  2  0  0  0  0
 12 26  1  0  0  0  0
  7 11  1  0  0  0  0
 12 43  1  0  0  0  0
 12 18  2  0  0  0  0
  7 38  1  0  0  0  0
  7 15  2  0  0  0  0
 15 18  1  0  0  0  0
 18 27  1  0  0  0  0
 15 23  1  0  0  0  0
 22 28  2  0  0  0  0
  9 40  1  0  0  0  0
 22 27  1  0  0  0  0
 27 51  1  0  0  0  0
 21 31  1  0  0  0  0
 22 24  1  0  0  0  0
  9 21  2  0  0  0  0
  9 16  1  0  0  0  0
 10 21  1  0  0  0  0
 23 46  1  0  0  0  0
 23 44  1  0  0  0  0
 23 45  1  0  0  0  0
 24 47  1  0  0  0  0
 16 24  1  0  0  0  0
  8 16  2  0  0  0  0
 24 48  1  0  0  0  0
 10 41  1  0  0  0  0
 10 20  2  0  0  0  0
  2 33  1  0  0  0  0
  8 20  1  0  0  0  0
  8 39  1  0  0  0  0
 20 30  1  0  0  0  0
  4 35  1  0  0  0  0
 25 50  1  0  0  0  0
  2  4  2  0  0  0  0
  1  2  1  0  0  0  0
 25 30  1  0  0  0  0
  4 14  1  0  0  0  0
 25 49  1  0  0  0  0
 17 25  1  0  0  0  0
  1 32  1  0  0  0  0
  1  3  2  0  0  0  0
 14 17  2  0  0  0  0
 13 14  1  0  0  0  0
 17 19  1  0  0  0  0
  3 13  1  0  0  0  0
  3 34  1  0  0  0  0
  5 13  2  0  0  0  0
 19 29  1  0  0  0  0
  6 19  2  0  0  0  0
 29 52  1  0  0  0  0
  5  6  1  0  0  0  0
  5 36  1  0  0  0  0
  6 37  1  0  0  0  0
M  END
> <CID>
EN300-1897611

> <SMILES>
Cc1ccncc1NC(=O)Cc2cc(cc(c2)Cl)OCc3c4ccccc4ccc3O

> <RUN>
RUN2647

> <DDG (kcal/mol)>
-0.27

> <dDDG (kcal/mol)>
0.14

$$$$
EN300-1937083
  -OEChem-08252008263D

 52 54  0     0  0  0  0  0  0999 V2000
    5.2280    2.8480   17.2890 C   0  0  0  0  0  0  0  0  0  0  0  0
   10.2710    2.0840   23.6420 C   0  0  0  0  0  0  0  0  0  0  0  0
   10.5000    0.0340   22.3950 C   0  0  0  0  0  0  0  0  0  0  0  0
   12.4230    0.9970   23.4610 C   0  0  0  0  0  0  0  0  0  0  0  0
    5.8820    1.9880   16.3910 C   0  0  0  0  0  0  0  0  0  0  0  0
    7.1710    1.1580   18.0340 C   0  0  0  0  0  0  0  0  0  0  0  0
    5.4280    2.7430   18.6590 C   0  0  0  0  0  0  0  0  0  0  0  0
    9.7270    1.1170   22.7700 C   0  0  0  0  0  0  0  0  0  0  0  0
    6.5200    1.9390   19.0780 C   0  0  0  0  0  0  0  0  0  0  0  0
   11.6470    2.0580   23.9770 C   0  0  0  0  0  0  0  0  0  0  0  0
   11.8520    0.0540   22.6360 C   0  0  0  0  0  0  0  0  0  0  0  0
   11.9540    5.0040   26.3330 C   0  0  0  0  0  0  0  0  0  0  0  0
    8.2170    1.6080   20.8940 C   0  0  0  0  0  0  0  0  0  0  0  0
    4.7930    3.7220   19.6070 C   0  0  0  0  0  0  0  0  0  0  0  0
   11.9910    5.4890   30.3570 C   0  0  0  0  0  0  0  0  0  0  0  0
   12.1400    7.9470   29.7300 C   0  0  0  0  0  0  0  0  0  0  0  0
   14.2070    6.7610   29.9620 C   0  0  0  0  0  0  0  0  0  0  0  0
    8.3710    1.2520   22.3640 C   0  0  0  0  0  0  0  0  0  0  0  0
   11.3390    4.0980   25.3340 C   0  0  0  0  0  0  0  0  0  0  0  0
   12.7530    6.5150   29.5270 C   0  0  0  0  0  0  0  0  0  0  0  0
    6.9210    1.2300   16.7280 N   0  0  0  0  0  0  0  0  0  0  0  0
   12.8820    5.9410   25.9780 N   0  0  0  0  0  0  0  0  0  0  0  0
   11.7040    5.1370   27.6110 N   0  0  0  0  0  0  0  0  0  0  0  0
   13.2260    6.6060   27.0210 N   0  0  0  0  0  0  0  0  0  0  0  0
   12.5230    6.1040   28.0800 N   0  0  0  0  0  0  0  0  0  0  0  0
    6.9090    1.7260   20.4290 N   0  0  0  0  0  0  0  0  0  0  0  0
    9.1450    2.0730   20.2000 O   0  0  0  0  0  0  0  0  0  0  0  0
   12.2400    3.0180   24.8290 O   0  0  0  0  0  0  0  0  0  0  0  0
   12.8760   -1.1870   22.0250 Cl  0  0  0  0  0  0  0  0  0  0  0  0
    4.4480    3.5380   16.9940 H   0  0  0  0  0  0  0  0  0  0  0  0
    9.5220    2.7460   24.0580 H   0  0  0  0  0  0  0  0  0  0  0  0
    9.9790   -0.7080   21.8040 H   0  0  0  0  0  0  0  0  0  0  0  0
   13.4930    1.0410   23.6730 H   0  0  0  0  0  0  0  0  0  0  0  0
    5.5850    1.9770   15.3470 H   0  0  0  0  0  0  0  0  0  0  0  0
    7.9520    0.4470   18.3040 H   0  0  0  0  0  0  0  0  0  0  0  0
    4.3660    3.0840   20.3940 H   0  0  0  0  0  0  0  0  0  0  0  0
    5.4820    4.5430   19.8090 H   0  0  0  0  0  0  0  0  0  0  0  0
    3.9490    4.1180   19.0400 H   0  0  0  0  0  0  0  0  0  0  0  0
   12.4810    4.5230   30.2180 H   0  0  0  0  0  0  0  0  0  0  0  0
   11.8300    5.7360   31.4150 H   0  0  0  0  0  0  0  0  0  0  0  0
   10.9740    5.5180   29.9570 H   0  0  0  0  0  0  0  0  0  0  0  0
   12.0400    8.2240   30.7880 H   0  0  0  0  0  0  0  0  0  0  0  0
   11.0980    7.9120   29.4010 H   0  0  0  0  0  0  0  0  0  0  0  0
   12.6810    8.7160   29.1630 H   0  0  0  0  0  0  0  0  0  0  0  0
   14.9440    5.9860   29.7640 H   0  0  0  0  0  0  0  0  0  0  0  0
   14.5380    7.6440   29.4230 H   0  0  0  0  0  0  0  0  0  0  0  0
   14.2610    6.9920   31.0280 H   0  0  0  0  0  0  0  0  0  0  0  0
    7.7750    0.3930   22.6980 H   0  0  0  0  0  0  0  0  0  0  0  0
    7.8720    2.0140   22.9620 H   0  0  0  0  0  0  0  0  0  0  0  0
   10.5280    3.5550   25.8170 H   0  0  0  0  0  0  0  0  0  0  0  0
   11.0230    4.7360   24.4980 H   0  0  0  0  0  0  0  0  0  0  0  0
    6.2110    1.6010   21.1590 H   0  0  0  0  0  0  0  0  0  0  0  0
  5 34  1  0  0  0  0
  5 21  2  0  0  0  0
  1  5  1  0  0  0  0
  6 21  1  0  0  0  0
  1 30  1  0  0  0  0
  1  7  2  0  0  0  0
  6 35  1  0  0  0  0
  6  9  2  0  0  0  0
  7  9  1  0  0  0  0
  7 14  1  0  0  0  0
 14 38  1  0  0  0  0
  9 26  1  0  0  0  0
 14 37  1  0  0  0  0
 14 36  1  0  0  0  0
 13 27  2  0  0  0  0
 13 26  1  0  0  0  0
 26 52  1  0  0  0  0
 13 18  1  0  0  0  0
  3 32  1  0  0  0  0
 11 29  1  0  0  0  0
 18 48  1  0  0  0  0
  8 18  1  0  0  0  0
 18 49  1  0  0  0  0
  3 11  2  0  0  0  0
  3  8  1  0  0  0  0
  4 11  1  0  0  0  0
  2  8  2  0  0  0  0
  4 33  1  0  0  0  0
  4 10  2  0  0  0  0
  2 10  1  0  0  0  0
  2 31  1  0  0  0  0
 10 28  1  0  0  0  0
 19 51  1  0  0  0  0
 19 28  1  0  0  0  0
 19 50  1  0  0  0  0
 12 19  1  0  0  0  0
 12 22  1  0  0  0  0
 22 24  2  0  0  0  0
 12 23  2  0  0  0  0
 24 25  1  0  0  0  0
 23 25  1  0  0  0  0
 20 25  1  0  0  0  0
 16 44  1  0  0  0  0
 16 43  1  0  0  0  0
 17 46  1  0  0  0  0
 16 20  1  0  0  0  0
 17 20  1  0  0  0  0
 15 20  1  0  0  0  0
 16 42  1  0  0  0  0
 17 45  1  0  0  0  0
 15 41  1  0  0  0  0
 17 47  1  0  0  0  0
 15 39  1  0  0  0  0
 15 40  1  0  0  0  0
M  END
> <CID>
EN300-1937083

> <SMILES>
Cc1ccncc1NC(=O)Cc2cc(cc(c2)Cl)OCc3nnn(n3)C(C)(C)C

> <RUN>
RUN1770

> <DDG (kcal/mol)>
-0.27

> <dDDG (kcal/mol)>
0.12

$$$$
EN300-1934022
  -OEChem-08252008263D

 55 57  0     0  0  0  0  0  0999 V2000
   13.8880    7.3030   23.2130 C   0  0  0  0  0  0  0  0  0  0  0  0
   13.4190    8.2250   24.2640 C   0  0  0  0  0  0  0  0  0  0  0  0
    5.3410    1.7070   19.0520 C   0  0  0  0  0  0  0  0  0  0  0  0
   11.9040    1.4040   23.3360 C   0  0  0  0  0  0  0  0  0  0  0  0
   12.2570   -0.7310   22.2750 C   0  0  0  0  0  0  0  0  0  0  0  0
   14.1250    0.6360   22.9170 C   0  0  0  0  0  0  0  0  0  0  0  0
    5.7920    1.2040   17.8560 C   0  0  0  0  0  0  0  0  0  0  0  0
    7.5460    0.0880   18.8300 C   0  0  0  0  0  0  0  0  0  0  0  0
    6.0290    1.3620   20.2210 C   0  0  0  0  0  0  0  0  0  0  0  0
   11.3720    0.2700   22.7130 C   0  0  0  0  0  0  0  0  0  0  0  0
    7.1770    0.5860   20.1280 C   0  0  0  0  0  0  0  0  0  0  0  0
   13.2480    1.6130   23.4790 C   0  0  0  0  0  0  0  0  0  0  0  0
   13.6780   -0.5460   22.3260 C   0  0  0  0  0  0  0  0  0  0  0  0
   13.8790    6.0070   23.6680 C   0  0  0  0  0  0  0  0  0  0  0  0
   13.1980    7.6440   25.4750 C   0  0  0  0  0  0  0  0  0  0  0  0
   14.0250    4.7140   21.4920 C   0  0  0  0  0  0  0  0  0  0  0  0
   14.2440    4.7860   22.8420 C   0  0  0  0  0  0  0  0  0  0  0  0
    9.1770    0.4980   21.4860 C   0  0  0  0  0  0  0  0  0  0  0  0
    5.5800    1.9040   21.5420 C   0  0  0  0  0  0  0  0  0  0  0  0
   15.0530    7.9820   27.8230 C   0  0  0  0  0  0  0  0  0  0  0  0
    9.9130   -0.0780   22.6690 C   0  0  0  0  0  0  0  0  0  0  0  0
   12.7660    8.1220   26.7960 C   0  0  0  0  0  0  0  0  0  0  0  0
   14.7130    3.5380   23.4940 C   0  0  0  0  0  0  0  0  0  0  0  0
   13.9440    8.8290   27.5160 C   0  0  0  0  0  0  0  0  0  0  0  0
    6.8760    0.4140   17.6690 N   0  0  0  0  0  0  0  0  0  0  0  0
    7.9050    0.1730   21.2580 N   0  0  0  0  0  0  0  0  0  0  0  0
    9.7920    1.2310   20.6860 O   0  0  0  0  0  0  0  0  0  0  0  0
   13.6390    2.7750   24.1250 O   0  0  0  0  0  0  0  0  0  0  0  0
   13.5740    5.9210   25.4310 S   0  0  0  0  0  0  0  0  0  0  0  0
   14.8410   -1.7060   21.7160 Cl  0  0  0  0  0  0  0  0  0  0  0  0
   14.0700    7.5850   22.1780 H   0  0  0  0  0  0  0  0  0  0  0  0
   13.3090    9.2980   24.1450 H   0  0  0  0  0  0  0  0  0  0  0  0
    4.5370    2.4330   19.1010 H   0  0  0  0  0  0  0  0  0  0  0  0
   11.2740    2.1400   23.8250 H   0  0  0  0  0  0  0  0  0  0  0  0
   11.8280   -1.5930   21.7720 H   0  0  0  0  0  0  0  0  0  0  0  0
   15.1960    0.7480   23.0200 H   0  0  0  0  0  0  0  0  0  0  0  0
    5.3130    1.6140   16.9760 H   0  0  0  0  0  0  0  0  0  0  0  0
    8.3920   -0.5370   18.5740 H   0  0  0  0  0  0  0  0  0  0  0  0
   14.2110    3.7520   21.0130 H   0  0  0  0  0  0  0  0  0  0  0  0
   13.6060    5.4260   20.7830 H   0  0  0  0  0  0  0  0  0  0  0  0
    5.3030    1.1130   22.2380 H   0  0  0  0  0  0  0  0  0  0  0  0
    6.4310    2.4340   21.9900 H   0  0  0  0  0  0  0  0  0  0  0  0
    4.7400    2.5930   21.3990 H   0  0  0  0  0  0  0  0  0  0  0  0
   15.6740    7.8050   26.9340 H   0  0  0  0  0  0  0  0  0  0  0  0
   15.5770    8.4480   28.6580 H   0  0  0  0  0  0  0  0  0  0  0  0
   14.9040    6.9790   28.2060 H   0  0  0  0  0  0  0  0  0  0  0  0
    9.6520   -1.1390   22.6740 H   0  0  0  0  0  0  0  0  0  0  0  0
    9.4140    0.3220   23.5580 H   0  0  0  0  0  0  0  0  0  0  0  0
   12.0260    8.9200   26.7210 H   0  0  0  0  0  0  0  0  0  0  0  0
   12.4020    7.3260   27.4560 H   0  0  0  0  0  0  0  0  0  0  0  0
   15.4810    3.8520   24.2060 H   0  0  0  0  0  0  0  0  0  0  0  0
   15.2070    2.9780   22.6980 H   0  0  0  0  0  0  0  0  0  0  0  0
   14.3300    9.5770   26.8100 H   0  0  0  0  0  0  0  0  0  0  0  0
   13.5380    9.3070   28.4080 H   0  0  0  0  0  0  0  0  0  0  0  0
    7.3880   -0.2280   22.0340 H   0  0  0  0  0  0  0  0  0  0  0  0
  7 37  1  0  0  0  0
  7 25  2  0  0  0  0
  8 25  1  0  0  0  0
  3  7  1  0  0  0  0
  8 38  1  0  0  0  0
  8 11  2  0  0  0  0
  3 33  1  0  0  0  0
  3  9  2  0  0  0  0
  9 11  1  0  0  0  0
 11 26  1  0  0  0  0
  9 19  1  0  0  0  0
 18 27  2  0  0  0  0
 16 40  1  0  0  0  0
 16 39  1  0  0  0  0
 18 26  1  0  0  0  0
 26 55  1  0  0  0  0
 19 43  1  0  0  0  0
 18 21  1  0  0  0  0
 16 17  2  0  0  0  0
 19 42  1  0  0  0  0
 19 41  1  0  0  0  0
 13 30  1  0  0  0  0
  5 35  1  0  0  0  0
  1 31  1  0  0  0  0
  5 13  2  0  0  0  0
  5 10  1  0  0  0  0
  6 13  1  0  0  0  0
 21 47  1  0  0  0  0
 10 21  1  0  0  0  0
 21 48  1  0  0  0  0
 23 52  1  0  0  0  0
  4 10  2  0  0  0  0
 17 23  1  0  0  0  0
 14 17  1  0  0  0  0
  6 36  1  0  0  0  0
  6 12  2  0  0  0  0
  1 14  2  0  0  0  0
  1  2  1  0  0  0  0
  4 12  1  0  0  0  0
  4 34  1  0  0  0  0
 12 28  1  0  0  0  0
 23 28  1  0  0  0  0
 23 51  1  0  0  0  0
 14 29  1  0  0  0  0
  2 32  1  0  0  0  0
  2 15  2  0  0  0  0
 15 29  1  0  0  0  0
 15 22  1  0  0  0  0
 22 49  1  0  0  0  0
 22 50  1  0  0  0  0
 22 24  1  0  0  0  0
 24 53  1  0  0  0  0
 20 44  1  0  0  0  0
 20 24  1  0  0  0  0
 24 54  1  0  0  0  0
 20 46  1  0  0  0  0
 20 45  1  0  0  0  0
M  END
> <CID>
EN300-1934022

> <SMILES>
CCCc1ccc(s1)C(=C)COc2cc(cc(c2)Cl)CC(=O)Nc3cnccc3C

> <RUN>
RUN4524

> <DDG (kcal/mol)>
-0.27

> <dDDG (kcal/mol)>
0.22

$$$$
EN300-1256145
  -OEChem-08252008263D

 51 54  0     0  0  0  0  0  0999 V2000
    5.2360    0.4000   20.1080 C   0  0  0  0  0  0  0  0  0  0  0  0
   12.6640    1.7980   22.9310 C   0  0  0  0  0  0  0  0  0  0  0  0
   12.7480   -0.6240   23.2720 C   0  0  0  0  0  0  0  0  0  0  0  0
   14.7670    0.6360   22.7500 C   0  0  0  0  0  0  0  0  0  0  0  0
    5.8220    0.3650   18.8450 C   0  0  0  0  0  0  0  0  0  0  0  0
    7.8350   -0.2140   19.7800 C   0  0  0  0  0  0  0  0  0  0  0  0
   12.2810    5.2160   23.5020 C   0  0  0  0  0  0  0  0  0  0  0  0
    6.0940    0.2970   21.2520 C   0  0  0  0  0  0  0  0  0  0  0  0
   11.9940    0.6110   23.1690 C   0  0  0  0  0  0  0  0  0  0  0  0
    7.4530    0.0370   21.0930 C   0  0  0  0  0  0  0  0  0  0  0  0
   14.0150    1.8490   22.7790 C   0  0  0  0  0  0  0  0  0  0  0  0
   14.1280   -0.5980   22.9770 C   0  0  0  0  0  0  0  0  0  0  0  0
   13.6130    4.9370   23.2240 C   0  0  0  0  0  0  0  0  0  0  0  0
    9.6810    0.3990   22.2720 C   0  0  0  0  0  0  0  0  0  0  0  0
   10.1890    7.7320   27.4020 C   0  0  0  0  0  0  0  0  0  0  0  0
   11.3830    6.8740   27.8520 C   0  0  0  0  0  0  0  0  0  0  0  0
   11.3520    7.3990   26.4480 C   0  0  0  0  0  0  0  0  0  0  0  0
    5.5740    0.3120   22.6520 C   0  0  0  0  0  0  0  0  0  0  0  0
   10.4800    0.6350   23.5220 C   0  0  0  0  0  0  0  0  0  0  0  0
   14.1840    4.1780   22.0480 C   0  0  0  0  0  0  0  0  0  0  0  0
   11.0420    6.5190   25.2190 C   0  0  0  0  0  0  0  0  0  0  0  0
    7.0950    0.0790   18.7050 N   0  0  0  0  0  0  0  0  0  0  0  0
   14.3300    5.3080   24.3820 N   0  0  0  0  0  0  0  0  0  0  0  0
   13.4930    5.9110   25.1760 N   0  0  0  0  0  0  0  0  0  0  0  0
   12.2640    5.9100   24.6510 N   0  0  0  0  0  0  0  0  0  0  0  0
    8.3860   -0.0310   22.2120 N   0  0  0  0  0  0  0  0  0  0  0  0
   10.1830    0.7050   21.1830 O   0  0  0  0  0  0  0  0  0  0  0  0
   14.7360    3.0200   22.6200 O   0  0  0  0  0  0  0  0  0  0  0  0
   15.0390   -2.0120   22.9120 Cl  0  0  0  0  0  0  0  0  0  0  0  0
    4.1890    0.5460   20.3360 H   0  0  0  0  0  0  0  0  0  0  0  0
   12.0850    2.7170   22.9550 H   0  0  0  0  0  0  0  0  0  0  0  0
   12.2550   -1.5710   23.4980 H   0  0  0  0  0  0  0  0  0  0  0  0
   15.8470    0.6500   22.6620 H   0  0  0  0  0  0  0  0  0  0  0  0
    5.3610    0.5780   17.8820 H   0  0  0  0  0  0  0  0  0  0  0  0
    8.8300   -0.5810   19.5350 H   0  0  0  0  0  0  0  0  0  0  0  0
   11.4620    4.9000   22.8810 H   0  0  0  0  0  0  0  0  0  0  0  0
    9.2660    7.1910   27.1900 H   0  0  0  0  0  0  0  0  0  0  0  0
   10.1680    8.7620   27.7640 H   0  0  0  0  0  0  0  0  0  0  0  0
   12.0740    7.3160   28.5780 H   0  0  0  0  0  0  0  0  0  0  0  0
   11.2560    5.8180   28.1140 H   0  0  0  0  0  0  0  0  0  0  0  0
   12.0690    8.1550   26.1190 H   0  0  0  0  0  0  0  0  0  0  0  0
    4.4920    0.4720   22.6110 H   0  0  0  0  0  0  0  0  0  0  0  0
    5.6280   -0.7330   22.9840 H   0  0  0  0  0  0  0  0  0  0  0  0
    6.1330    1.0330   23.2480 H   0  0  0  0  0  0  0  0  0  0  0  0
   10.3150   -0.1650   24.2480 H   0  0  0  0  0  0  0  0  0  0  0  0
   10.1940    1.5960   23.9630 H   0  0  0  0  0  0  0  0  0  0  0  0
   13.4340    3.7910   21.3520 H   0  0  0  0  0  0  0  0  0  0  0  0
   14.8970    4.8490   21.5480 H   0  0  0  0  0  0  0  0  0  0  0  0
   10.3060    5.8070   25.6080 H   0  0  0  0  0  0  0  0  0  0  0  0
   10.4500    6.9820   24.4220 H   0  0  0  0  0  0  0  0  0  0  0  0
    7.9660   -0.3530   23.0830 H   0  0  0  0  0  0  0  0  0  0  0  0
  5 34  1  0  0  0  0
  5 22  2  0  0  0  0
  6 22  1  0  0  0  0
  1  5  1  0  0  0  0
  6 35  1  0  0  0  0
  6 10  2  0  0  0  0
  1 30  1  0  0  0  0
  1  8  2  0  0  0  0
  8 10  1  0  0  0  0
 10 26  1  0  0  0  0
 14 27  2  0  0  0  0
  8 18  1  0  0  0  0
 20 47  1  0  0  0  0
 20 48  1  0  0  0  0
 20 28  1  0  0  0  0
 13 20  1  0  0  0  0
 14 26  1  0  0  0  0
 26 51  1  0  0  0  0
 14 19  1  0  0  0  0
 18 42  1  0  0  0  0
 11 28  1  0  0  0  0
 18 43  1  0  0  0  0
 18 44  1  0  0  0  0
  4 33  1  0  0  0  0
  4 11  2  0  0  0  0
  4 12  1  0  0  0  0
  2 11  1  0  0  0  0
  7 36  1  0  0  0  0
 12 29  1  0  0  0  0
  2 31  1  0  0  0  0
  2  9  2  0  0  0  0
  3 12  2  0  0  0  0
  3  9  1  0  0  0  0
  9 19  1  0  0  0  0
  7 13  2  0  0  0  0
 13 23  1  0  0  0  0
  3 32  1  0  0  0  0
  7 25  1  0  0  0  0
 19 46  1  0  0  0  0
 19 45  1  0  0  0  0
 23 24  2  0  0  0  0
 21 50  1  0  0  0  0
 24 25  1  0  0  0  0
 21 25  1  0  0  0  0
 21 49  1  0  0  0  0
 17 21  1  0  0  0  0
 17 41  1  0  0  0  0
 15 17  1  0  0  0  0
 16 17  1  0  0  0  0
 15 37  1  0  0  0  0
 15 38  1  0  0  0  0
 15 16  1  0  0  0  0
 16 40  1  0  0  0  0
 16 39  1  0  0  0  0
M  END
> <CID>
EN300-1256145

> <SMILES>
Cc1ccncc1NC(=O)Cc2cc(cc(c2)Cl)OCc3cn(nn3)CC4CC4

> <RUN>
RUN398

> <DDG (kcal/mol)>
-0.27

> <dDDG (kcal/mol)>
0.11

$$$$
EN300-24109
  -OEChem-08252008263D

 54 56  0     0  0  0  0  0  0999 V2000
   10.6690    6.6170   23.6550 C   0  0  0  0  0  0  0  0  0  0  0  0
    9.6870    7.5620   23.9840 C   0  0  0  0  0  0  0  0  0  0  0  0
    4.8150    1.9900   19.1800 C   0  0  0  0  0  0  0  0  0  0  0  0
   11.0610    8.1060   25.9110 C   0  0  0  0  0  0  0  0  0  0  0  0
   10.8430    1.2720   23.6100 C   0  0  0  0  0  0  0  0  0  0  0  0
   11.3980   -1.0420   23.0840 C   0  0  0  0  0  0  0  0  0  0  0  0
   13.1040    0.4800   23.5740 C   0  0  0  0  0  0  0  0  0  0  0  0
    5.4060    1.7290   17.9890 C   0  0  0  0  0  0  0  0  0  0  0  0
    7.0120    0.4230   19.0540 C   0  0  0  0  0  0  0  0  0  0  0  0
   11.7200    6.3380   24.5250 C   0  0  0  0  0  0  0  0  0  0  0  0
    9.8700    8.3600   25.1030 C   0  0  0  0  0  0  0  0  0  0  0  0
    5.2310    1.4760   20.3730 C   0  0  0  0  0  0  0  0  0  0  0  0
   10.4240    0.0170   23.3720 C   0  0  0  0  0  0  0  0  0  0  0  0
    6.4310    0.7180   20.3110 C   0  0  0  0  0  0  0  0  0  0  0  0
   12.2100    1.5140   23.7730 C   0  0  0  0  0  0  0  0  0  0  0  0
   11.9790    7.0820   25.6610 C   0  0  0  0  0  0  0  0  0  0  0  0
   12.6910   -0.8250   23.3150 C   0  0  0  0  0  0  0  0  0  0  0  0
   12.5520    5.2020   24.2050 C   0  0  0  0  0  0  0  0  0  0  0  0
    8.3890    0.3670   21.8020 C   0  0  0  0  0  0  0  0  0  0  0  0
    8.9400    9.4940   25.5040 C   0  0  0  0  0  0  0  0  0  0  0  0
    4.6560    2.0130   21.6300 C   0  0  0  0  0  0  0  0  0  0  0  0
   13.4690    7.5920   27.5380 C   0  0  0  0  0  0  0  0  0  0  0  0
    8.9070   -0.2650   23.1210 C   0  0  0  0  0  0  0  0  0  0  0  0
   11.9560    3.9360   23.6990 C   0  0  0  0  0  0  0  0  0  0  0  0
    6.4490    0.8760   17.8890 N   0  0  0  0  0  0  0  0  0  0  0  0
    7.0540    0.3870   21.4820 N   0  0  0  0  0  0  0  0  0  0  0  0
   13.7680    5.3900   24.2020 O   0  0  0  0  0  0  0  0  0  0  0  0
    9.1290    0.8510   20.9990 O   0  0  0  0  0  0  0  0  0  0  0  0
   12.9700    6.6390   26.5410 O   0  0  0  0  0  0  0  0  0  0  0  0
   12.6410    2.7790   24.1160 O   0  0  0  0  0  0  0  0  0  0  0  0
   13.8980   -2.0260   23.1860 Cl  0  0  0  0  0  0  0  0  0  0  0  0
   10.4570    6.0910   22.7290 H   0  0  0  0  0  0  0  0  0  0  0  0
    8.8100    7.6120   23.3370 H   0  0  0  0  0  0  0  0  0  0  0  0
    3.9630    2.6410   19.1660 H   0  0  0  0  0  0  0  0  0  0  0  0
   11.0460    8.7640   26.7730 H   0  0  0  0  0  0  0  0  0  0  0  0
   10.1820    2.1220   23.7670 H   0  0  0  0  0  0  0  0  0  0  0  0
   10.9750   -2.0120   22.8350 H   0  0  0  0  0  0  0  0  0  0  0  0
   14.1600    0.6830   23.6790 H   0  0  0  0  0  0  0  0  0  0  0  0
    5.0450    2.3340   17.1690 H   0  0  0  0  0  0  0  0  0  0  0  0
    7.9280   -0.1670   18.9660 H   0  0  0  0  0  0  0  0  0  0  0  0
    9.3550   10.4920   25.3270 H   0  0  0  0  0  0  0  0  0  0  0  0
    8.0150    9.2560   24.9850 H   0  0  0  0  0  0  0  0  0  0  0  0
    8.9020    9.4450   26.5960 H   0  0  0  0  0  0  0  0  0  0  0  0
    4.5100    1.2010   22.3590 H   0  0  0  0  0  0  0  0  0  0  0  0
    5.3070    2.7680   22.0730 H   0  0  0  0  0  0  0  0  0  0  0  0
    3.6880    2.4920   21.4620 H   0  0  0  0  0  0  0  0  0  0  0  0
   12.7400    7.4220   28.3300 H   0  0  0  0  0  0  0  0  0  0  0  0
   13.4190    8.5850   27.0760 H   0  0  0  0  0  0  0  0  0  0  0  0
   14.4910    7.2520   27.7710 H   0  0  0  0  0  0  0  0  0  0  0  0
    8.7320   -1.3430   22.9770 H   0  0  0  0  0  0  0  0  0  0  0  0
    8.4160    0.1080   24.0190 H   0  0  0  0  0  0  0  0  0  0  0  0
   11.8460    3.9370   22.6040 H   0  0  0  0  0  0  0  0  0  0  0  0
   10.9340    3.9190   24.0740 H   0  0  0  0  0  0  0  0  0  0  0  0
    6.4560    0.1860   22.2820 H   0  0  0  0  0  0  0  0  0  0  0  0
  8 39  1  0  0  0  0
  8 25  2  0  0  0  0
  9 25  1  0  0  0  0
  3  8  1  0  0  0  0
  9 40  1  0  0  0  0
  9 14  2  0  0  0  0
  3 34  1  0  0  0  0
  3 12  2  0  0  0  0
 12 14  1  0  0  0  0
 14 26  1  0  0  0  0
 12 21  1  0  0  0  0
 19 28  2  0  0  0  0
 21 46  1  0  0  0  0
 19 26  1  0  0  0  0
 26 54  1  0  0  0  0
 21 45  1  0  0  0  0
 21 44  1  0  0  0  0
 19 23  1  0  0  0  0
 24 52  1  0  0  0  0
  1 32  1  0  0  0  0
  6 37  1  0  0  0  0
 23 50  1  0  0  0  0
  6 17  2  0  0  0  0
  6 13  1  0  0  0  0
 13 23  1  0  0  0  0
 23 51  1  0  0  0  0
 17 31  1  0  0  0  0
  7 17  1  0  0  0  0
  2 33  1  0  0  0  0
  5 13  2  0  0  0  0
  7 38  1  0  0  0  0
  7 15  2  0  0  0  0
  5 36  1  0  0  0  0
  5 15  1  0  0  0  0
  1  2  2  0  0  0  0
  1 10  1  0  0  0  0
 24 53  1  0  0  0  0
 24 30  1  0  0  0  0
 18 24  1  0  0  0  0
 15 30  1  0  0  0  0
  2 11  1  0  0  0  0
 18 27  2  0  0  0  0
 10 18  1  0  0  0  0
 10 16  2  0  0  0  0
 20 42  1  0  0  0  0
 11 20  1  0  0  0  0
  4 11  2  0  0  0  0
 20 41  1  0  0  0  0
 20 43  1  0  0  0  0
  4 16  1  0  0  0  0
 16 29  1  0  0  0  0
  4 35  1  0  0  0  0
 22 29  1  0  0  0  0
 22 48  1  0  0  0  0
 22 49  1  0  0  0  0
 22 47  1  0  0  0  0
M  END
> <CID>
EN300-24109

> <SMILES>
Cc1ccc(c(c1)OC)C(=O)COc2cc(cc(c2)Cl)CC(=O)Nc3cnccc3C

> <RUN>
RUN4349

> <DDG (kcal/mol)>
-0.27

> <dDDG (kcal/mol)>
0.23

$$$$
EN300-374640
  -OEChem-08252008263D

 51 54  0     0  0  0  0  0  0999 V2000
    6.4590    1.1660   18.9240 C   0  0  0  0  0  0  0  0  0  0  0  0
   10.5370    0.1790   23.9230 C   0  0  0  0  0  0  0  0  0  0  0  0
   12.1010   -1.1640   22.5510 C   0  0  0  0  0  0  0  0  0  0  0  0
   12.8530    0.9100   23.6040 C   0  0  0  0  0  0  0  0  0  0  0  0
    6.3870    0.3750   17.8160 C   0  0  0  0  0  0  0  0  0  0  0  0
    7.9560   -0.8950   18.7300 C   0  0  0  0  0  0  0  0  0  0  0  0
    7.2290    0.8770   20.0320 C   0  0  0  0  0  0  0  0  0  0  0  0
   10.8240   -0.9560   23.1020 C   0  0  0  0  0  0  0  0  0  0  0  0
    8.1100   -0.1860   19.9100 C   0  0  0  0  0  0  0  0  0  0  0  0
   11.6230    1.0310   24.2480 C   0  0  0  0  0  0  0  0  0  0  0  0
   13.1180   -0.1350   22.7180 C   0  0  0  0  0  0  0  0  0  0  0  0
    8.5580    4.5510   23.9240 C   0  0  0  0  0  0  0  0  0  0  0  0
    7.6130    3.6620   24.3700 C   0  0  0  0  0  0  0  0  0  0  0  0
    9.5280    3.1280   25.0870 C   0  0  0  0  0  0  0  0  0  0  0  0
    9.2810   -1.7930   21.3680 C   0  0  0  0  0  0  0  0  0  0  0  0
    8.2540    5.7560   22.9880 C   0  0  0  0  0  0  0  0  0  0  0  0
    6.1300    3.7930   23.9630 C   0  0  0  0  0  0  0  0  0  0  0  0
    6.9570    5.4220   22.2150 C   0  0  0  0  0  0  0  0  0  0  0  0
    5.9060    5.1910   23.3040 C   0  0  0  0  0  0  0  0  0  0  0  0
    7.2380    1.7290   21.2490 C   0  0  0  0  0  0  0  0  0  0  0  0
    9.7800   -1.9270   22.7960 C   0  0  0  0  0  0  0  0  0  0  0  0
   10.4780    2.4060   25.9010 C   0  0  0  0  0  0  0  0  0  0  0  0
    7.1640   -0.6920   17.7420 N   0  0  0  0  0  0  0  0  0  0  0  0
    9.7850    4.1800   24.3180 N   0  0  0  0  0  0  0  0  0  0  0  0
    9.1000   -0.5200   20.8980 N   0  0  0  0  0  0  0  0  0  0  0  0
    9.1080   -2.8520   20.6930 O   0  0  0  0  0  0  0  0  0  0  0  0
    8.2270    2.7220   25.1260 O   0  0  0  0  0  0  0  0  0  0  0  0
   11.6330    2.0160   25.2150 O   0  0  0  0  0  0  0  0  0  0  0  0
   14.6020   -0.4610   21.8630 Cl  0  0  0  0  0  0  0  0  0  0  0  0
    5.8660    2.0610   18.9190 H   0  0  0  0  0  0  0  0  0  0  0  0
    9.5480    0.2780   24.3630 H   0  0  0  0  0  0  0  0  0  0  0  0
   12.2210   -1.9210   21.7770 H   0  0  0  0  0  0  0  0  0  0  0  0
   13.7800    1.4110   23.8750 H   0  0  0  0  0  0  0  0  0  0  0  0
    5.6060    0.5850   17.0990 H   0  0  0  0  0  0  0  0  0  0  0  0
    8.6830   -1.6900   18.5720 H   0  0  0  0  0  0  0  0  0  0  0  0
    9.0410    6.0740   22.3080 H   0  0  0  0  0  0  0  0  0  0  0  0
    8.0590    6.5920   23.6600 H   0  0  0  0  0  0  0  0  0  0  0  0
    5.9030    2.9900   23.2620 H   0  0  0  0  0  0  0  0  0  0  0  0
    5.5180    3.6060   24.8500 H   0  0  0  0  0  0  0  0  0  0  0  0
    7.1580    4.5160   21.6420 H   0  0  0  0  0  0  0  0  0  0  0  0
    6.7320    6.2540   21.5330 H   0  0  0  0  0  0  0  0  0  0  0  0
    4.9740    5.1360   22.7420 H   0  0  0  0  0  0  0  0  0  0  0  0
    5.9020    5.9720   24.0710 H   0  0  0  0  0  0  0  0  0  0  0  0
    6.2030    2.0790   21.3120 H   0  0  0  0  0  0  0  0  0  0  0  0
    7.4840    1.1930   22.1700 H   0  0  0  0  0  0  0  0  0  0  0  0
    7.8810    2.5960   21.0870 H   0  0  0  0  0  0  0  0  0  0  0  0
   10.0850   -2.9050   23.1890 H   0  0  0  0  0  0  0  0  0  0  0  0
    8.9410   -1.7010   23.4580 H   0  0  0  0  0  0  0  0  0  0  0  0
   10.6760    3.0650   26.7460 H   0  0  0  0  0  0  0  0  0  0  0  0
    9.9930    1.4870   26.2580 H   0  0  0  0  0  0  0  0  0  0  0  0
    9.2280    0.2680   21.5380 H   0  0  0  0  0  0  0  0  0  0  0  0
  5 34  1  0  0  0  0
  5 23  2  0  0  0  0
  6 23  1  0  0  0  0
  1  5  1  0  0  0  0
  6 35  1  0  0  0  0
  6  9  2  0  0  0  0
  1 30  1  0  0  0  0
  1  7  2  0  0  0  0
  7  9  1  0  0  0  0
  9 25  1  0  0  0  0
  7 20  1  0  0  0  0
 15 26  2  0  0  0  0
 15 25  1  0  0  0  0
 25 51  1  0  0  0  0
 20 46  1  0  0  0  0
 20 44  1  0  0  0  0
 20 45  1  0  0  0  0
 15 21  1  0  0  0  0
 18 41  1  0  0  0  0
 18 40  1  0  0  0  0
  3 32  1  0  0  0  0
 11 29  1  0  0  0  0
 16 18  1  0  0  0  0
 18 19  1  0  0  0  0
 16 36  1  0  0  0  0
  3 11  2  0  0  0  0
  3  8  1  0  0  0  0
  4 11  1  0  0  0  0
 19 42  1  0  0  0  0
  8 21  1  0  0  0  0
 21 47  1  0  0  0  0
 21 48  1  0  0  0  0
 16 37  1  0  0  0  0
 12 16  1  0  0  0  0
  2  8  2  0  0  0  0
 17 38  1  0  0  0  0
 17 19  1  0  0  0  0
 19 43  1  0  0  0  0
  4 33  1  0  0  0  0
  4 10  2  0  0  0  0
  2 10  1  0  0  0  0
  2 31  1  0  0  0  0
 12 24  1  0  0  0  0
 12 13  2  0  0  0  0
 13 17  1  0  0  0  0
 17 39  1  0  0  0  0
 10 28  1  0  0  0  0
 14 24  2  0  0  0  0
 13 27  1  0  0  0  0
 14 27  1  0  0  0  0
 14 22  1  0  0  0  0
 22 28  1  0  0  0  0
 22 50  1  0  0  0  0
 22 49  1  0  0  0  0
M  END
> <CID>
EN300-374640

> <SMILES>
Cc1ccncc1NC(=O)Cc2cc(cc(c2)Cl)OCc3nc4c(o3)CCCC4

> <RUN>
RUN3442

> <DDG (kcal/mol)>
-0.27

> <dDDG (kcal/mol)>
0.11

$$$$
EN300-1864735
  -OEChem-08252008263D

 52 55  0     0  0  0  0  0  0999 V2000
   20.3510    8.5290   18.4450 C   0  0  0  0  0  0  0  0  0  0  0  0
   19.0020    8.5410   18.2020 C   0  0  0  0  0  0  0  0  0  0  0  0
   20.8810    7.5220   19.3000 C   0  0  0  0  0  0  0  0  0  0  0  0
   18.1100    7.5900   18.9070 C   0  0  0  0  0  0  0  0  0  0  0  0
   20.0430    6.5290   19.8460 C   0  0  0  0  0  0  0  0  0  0  0  0
    5.1590    1.1830   21.4330 C   0  0  0  0  0  0  0  0  0  0  0  0
   12.9200    2.0310   22.9430 C   0  0  0  0  0  0  0  0  0  0  0  0
   12.4090   -0.2530   23.5960 C   0  0  0  0  0  0  0  0  0  0  0  0
   14.4250    0.2770   22.3630 C   0  0  0  0  0  0  0  0  0  0  0  0
   16.6030    5.5850   20.7880 C   0  0  0  0  0  0  0  0  0  0  0  0
    5.6810    0.8140   20.1750 C   0  0  0  0  0  0  0  0  0  0  0  0
    7.8510    0.8270   21.0200 C   0  0  0  0  0  0  0  0  0  0  0  0
   18.6840    6.5370   19.6620 C   0  0  0  0  0  0  0  0  0  0  0  0
    6.0310    1.2220   22.4920 C   0  0  0  0  0  0  0  0  0  0  0  0
   12.0270    1.0540   23.4980 C   0  0  0  0  0  0  0  0  0  0  0  0
    7.4500    1.1800   22.3020 C   0  0  0  0  0  0  0  0  0  0  0  0
   14.1190    1.6030   22.2870 C   0  0  0  0  0  0  0  0  0  0  0  0
   13.6400   -0.6480   23.0250 C   0  0  0  0  0  0  0  0  0  0  0  0
   17.8480    5.4860   20.2340 C   0  0  0  0  0  0  0  0  0  0  0  0
   16.3300    4.3800   21.2860 C   0  0  0  0  0  0  0  0  0  0  0  0
    9.6500    1.8890   23.2020 C   0  0  0  0  0  0  0  0  0  0  0  0
    5.4740    1.1780   23.8830 C   0  0  0  0  0  0  0  0  0  0  0  0
   10.7590    1.6430   24.2080 C   0  0  0  0  0  0  0  0  0  0  0  0
   15.1190    3.8070   22.0400 C   0  0  0  0  0  0  0  0  0  0  0  0
    6.9960    0.5470   19.9660 N   0  0  0  0  0  0  0  0  0  0  0  0
   18.3280    4.2530   20.3640 N   0  0  0  0  0  0  0  0  0  0  0  0
   17.3950    3.5020   20.9930 N   0  0  0  0  0  0  0  0  0  0  0  0
    8.4330    1.2960   23.3130 N   0  0  0  0  0  0  0  0  0  0  0  0
    9.8460    2.6570   22.2800 O   0  0  0  0  0  0  0  0  0  0  0  0
   14.8980    2.4470   21.5400 O   0  0  0  0  0  0  0  0  0  0  0  0
   14.1380   -2.3490   23.0170 Cl  0  0  0  0  0  0  0  0  0  0  0  0
   21.0130    9.3250   18.0990 H   0  0  0  0  0  0  0  0  0  0  0  0
   18.5450    9.2620   17.5300 H   0  0  0  0  0  0  0  0  0  0  0  0
   21.8980    7.5220   19.6740 H   0  0  0  0  0  0  0  0  0  0  0  0
   17.0440    7.6460   18.7130 H   0  0  0  0  0  0  0  0  0  0  0  0
   20.5050    5.8640   20.5650 H   0  0  0  0  0  0  0  0  0  0  0  0
    4.1230    1.4810   21.4880 H   0  0  0  0  0  0  0  0  0  0  0  0
   12.7000    3.0930   22.9590 H   0  0  0  0  0  0  0  0  0  0  0  0
   11.6690   -0.9920   23.8820 H   0  0  0  0  0  0  0  0  0  0  0  0
   15.3230   -0.0840   21.8590 H   0  0  0  0  0  0  0  0  0  0  0  0
   16.0290    6.5060   20.7610 H   0  0  0  0  0  0  0  0  0  0  0  0
    4.9670    0.7060   19.3670 H   0  0  0  0  0  0  0  0  0  0  0  0
    8.8830    0.7920   20.6960 H   0  0  0  0  0  0  0  0  0  0  0  0
    5.7720    0.2250   24.3320 H   0  0  0  0  0  0  0  0  0  0  0  0
    5.9290    1.9750   24.4780 H   0  0  0  0  0  0  0  0  0  0  0  0
    4.3800    1.2210   23.9700 H   0  0  0  0  0  0  0  0  0  0  0  0
   10.3970    0.9530   24.9790 H   0  0  0  0  0  0  0  0  0  0  0  0
   10.9870    2.5710   24.7280 H   0  0  0  0  0  0  0  0  0  0  0  0
   15.3580    3.9160   23.1070 H   0  0  0  0  0  0  0  0  0  0  0  0
   14.2510    4.4230   21.8010 H   0  0  0  0  0  0  0  0  0  0  0  0
   17.4730    2.5130   21.2090 H   0  0  0  0  0  0  0  0  0  0  0  0
    8.2660    0.8950   24.2380 H   0  0  0  0  0  0  0  0  0  0  0  0
  2 33  1  0  0  0  0
  1 32  1  0  0  0  0
  1  2  2  0  0  0  0
  2  4  1  0  0  0  0
  1  3  1  0  0  0  0
  4 35  1  0  0  0  0
  4 13  2  0  0  0  0
  3 34  1  0  0  0  0
  3  5  2  0  0  0  0
 11 42  1  0  0  0  0
  5 13  1  0  0  0  0
 13 19  1  0  0  0  0
  5 36  1  0  0  0  0
 11 25  2  0  0  0  0
 12 25  1  0  0  0  0
  6 11  1  0  0  0  0
 19 26  2  0  0  0  0
 10 19  1  0  0  0  0
 26 27  1  0  0  0  0
 12 43  1  0  0  0  0
 10 41  1  0  0  0  0
 10 20  2  0  0  0  0
 27 51  1  0  0  0  0
 20 27  1  0  0  0  0
 12 16  2  0  0  0  0
 20 24  1  0  0  0  0
  6 37  1  0  0  0  0
  6 14  2  0  0  0  0
 24 30  1  0  0  0  0
 17 30  1  0  0  0  0
 24 50  1  0  0  0  0
  9 40  1  0  0  0  0
 24 49  1  0  0  0  0
 21 29  2  0  0  0  0
  9 17  2  0  0  0  0
  7 17  1  0  0  0  0
 14 16  1  0  0  0  0
 16 28  1  0  0  0  0
  9 18  1  0  0  0  0
 14 22  1  0  0  0  0
  7 38  1  0  0  0  0
  7 15  2  0  0  0  0
 18 31  1  0  0  0  0
  8 18  2  0  0  0  0
 21 28  1  0  0  0  0
 21 23  1  0  0  0  0
 28 52  1  0  0  0  0
  8 15  1  0  0  0  0
 15 23  1  0  0  0  0
  8 39  1  0  0  0  0
 22 46  1  0  0  0  0
 22 44  1  0  0  0  0
 22 45  1  0  0  0  0
 23 48  1  0  0  0  0
 23 47  1  0  0  0  0
M  END
> <CID>
EN300-1864735

> <SMILES>
Cc1ccncc1NC(=O)Cc2cc(cc(c2)Cl)OCc3cc(n[nH]3)c4ccccc4

> <RUN>
RUN2573

> <DDG (kcal/mol)>
-0.27

> <dDDG (kcal/mol)>
0.15

$$$$
EN300-764389
  -OEChem-08252008263D

 63 67  0     1  0  0  0  0  0999 V2000
   14.0350    6.2590   30.8900 C   0  0  0  0  0  0  0  0  0  0  0  0
   14.9500    7.3470   30.6790 C   0  0  0  0  0  0  0  0  0  0  0  0
   12.8240    6.2500   30.2520 C   0  0  0  0  0  0  0  0  0  0  0  0
   14.6230    8.3340   29.7410 C   0  0  0  0  0  0  0  0  0  0  0  0
    4.9110    2.0820   17.7810 C   0  0  0  0  0  0  0  0  0  0  0  0
    9.5550    1.4050   23.9140 C   0  0  0  0  0  0  0  0  0  0  0  0
   10.5930   -0.3510   22.5890 C   0  0  0  0  0  0  0  0  0  0  0  0
   11.9510    0.9990   23.9820 C   0  0  0  0  0  0  0  0  0  0  0  0
    5.6940    1.6460   16.7570 C   0  0  0  0  0  0  0  0  0  0  0  0
    6.8310    0.1870   18.1300 C   0  0  0  0  0  0  0  0  0  0  0  0
   12.5170    7.3030   29.2820 C   0  0  0  0  0  0  0  0  0  0  0  0
    5.2050    1.6370   19.1180 C   0  0  0  0  0  0  0  0  0  0  0  0
    9.4260    0.3620   22.9920 C   0  0  0  0  0  0  0  0  0  0  0  0
   13.3890    8.3800   29.1090 C   0  0  0  0  0  0  0  0  0  0  0  0
    6.1740    0.6700   19.2950 C   0  0  0  0  0  0  0  0  0  0  0  0
   10.8260    1.7720   24.3890 C   0  0  0  0  0  0  0  0  0  0  0  0
   11.8640    0.0440   23.0140 C   0  0  0  0  0  0  0  0  0  0  0  0
   10.9670    5.0110   25.7800 C   0  0  0  0  0  0  0  0  0  0  0  0
   10.3300    5.7800   26.6960 C   0  0  0  0  0  0  0  0  0  0  0  0
    7.6290    0.5800   21.2080 C   0  0  0  0  0  0  0  0  0  0  0  0
   10.6790    8.7700   28.2750 C   0  0  0  0  0  0  0  0  0  0  0  0
   11.7890    9.5530   27.6010 C   0  0  0  0  0  0  0  0  0  0  0  0
   11.2080    7.3650   28.5110 C   0  0  1  0  0  0  0  0  0  0  0  0
    4.5310    2.3360   20.3440 C   0  0  0  0  0  0  0  0  0  0  0  0
    8.8780    5.6250   27.0960 C   0  0  0  0  0  0  0  0  0  0  0  0
    8.0220    0.0120   22.5530 C   0  0  0  0  0  0  0  0  0  0  0  0
   10.4060    3.9410   24.9690 C   0  0  0  0  0  0  0  0  0  0  0  0
    6.6080    0.6390   16.9020 N   0  0  0  0  0  0  0  0  0  0  0  0
   12.3050    5.4330   25.7040 N   0  0  0  0  0  0  0  0  0  0  0  0
   12.4780    6.2440   26.6220 N   0  0  0  0  0  0  0  0  0  0  0  0
   11.2880    6.5660   27.2410 N   0  0  0  0  0  0  0  0  0  0  0  0
   13.0460    9.4810   28.3610 N   0  0  0  0  0  0  0  0  0  0  0  0
    6.4440    0.1560   20.5730 N   0  0  0  0  0  0  0  0  0  0  0  0
    8.3680    1.3150   20.5610 O   0  0  0  0  0  0  0  0  0  0  0  0
   11.0430    2.7250   25.2820 O   0  0  0  0  0  0  0  0  0  0  0  0
   13.3300   -0.6940   22.3720 Cl  0  0  0  0  0  0  0  0  0  0  0  0
   14.2130    5.4430   31.5870 H   0  0  0  0  0  0  0  0  0  0  0  0
   15.9470    7.2720   31.0810 H   0  0  0  0  0  0  0  0  0  0  0  0
   12.0950    5.4480   30.3450 H   0  0  0  0  0  0  0  0  0  0  0  0
   15.2770    9.1870   29.5930 H   0  0  0  0  0  0  0  0  0  0  0  0
    4.0720    2.7640   17.7040 H   0  0  0  0  0  0  0  0  0  0  0  0
    8.6330    1.9220   24.1530 H   0  0  0  0  0  0  0  0  0  0  0  0
   10.4500   -1.2230   21.9490 H   0  0  0  0  0  0  0  0  0  0  0  0
   12.9500    1.2330   24.3410 H   0  0  0  0  0  0  0  0  0  0  0  0
    5.3790    2.1570   15.8430 H   0  0  0  0  0  0  0  0  0  0  0  0
    7.5140   -0.6530   18.2520 H   0  0  0  0  0  0  0  0  0  0  0  0
   10.4320    9.3440   29.1720 H   0  0  0  0  0  0  0  0  0  0  0  0
    9.7780    8.6900   27.6580 H   0  0  0  0  0  0  0  0  0  0  0  0
   12.0120    9.1070   26.6300 H   0  0  0  0  0  0  0  0  0  0  0  0
   11.5290   10.6230   27.5690 H   0  0  0  0  0  0  0  0  0  0  0  0
   10.4660    6.8200   29.1030 H   0  0  0  0  0  0  0  0  0  0  0  0
    3.8110    1.6040   20.7220 H   0  0  0  0  0  0  0  0  0  0  0  0
    5.2320    2.6180   21.1360 H   0  0  0  0  0  0  0  0  0  0  0  0
    4.0490    3.2770   20.0440 H   0  0  0  0  0  0  0  0  0  0  0  0
    8.3550    6.5630   26.8750 H   0  0  0  0  0  0  0  0  0  0  0  0
    8.3110    4.9960   26.4000 H   0  0  0  0  0  0  0  0  0  0  0  0
    8.5900    5.3210   28.1080 H   0  0  0  0  0  0  0  0  0  0  0  0
    7.7530   -1.0430   22.6230 H   0  0  0  0  0  0  0  0  0  0  0  0
    7.3200    0.4480   23.2770 H   0  0  0  0  0  0  0  0  0  0  0  0
    9.3230    3.7760   25.0550 H   0  0  0  0  0  0  0  0  0  0  0  0
   10.7080    4.1540   23.9410 H   0  0  0  0  0  0  0  0  0  0  0  0
   13.2980   10.3400   28.8370 H   0  0  0  0  0  0  0  0  0  0  0  0
    5.6730   -0.1100   21.1880 H   0  0  0  0  0  0  0  0  0  0  0  0
  9 45  1  0  0  0  0
  9 28  2  0  0  0  0
  5  9  1  0  0  0  0
 10 28  1  0  0  0  0
  5 41  1  0  0  0  0
  5 12  2  0  0  0  0
 10 46  1  0  0  0  0
 10 15  2  0  0  0  0
 12 15  1  0  0  0  0
 12 24  1  0  0  0  0
 15 33  1  0  0  0  0
 24 54  1  0  0  0  0
 24 52  1  0  0  0  0
 24 53  1  0  0  0  0
 20 34  2  0  0  0  0
 33 63  1  0  0  0  0
 20 33  1  0  0  0  0
 20 26  1  0  0  0  0
  7 43  1  0  0  0  0
 17 36  1  0  0  0  0
 26 58  1  0  0  0  0
 13 26  1  0  0  0  0
 26 59  1  0  0  0  0
  7 13  2  0  0  0  0
  7 17  1  0  0  0  0
  6 13  1  0  0  0  0
  8 17  2  0  0  0  0
  6 42  1  0  0  0  0
  6 16  2  0  0  0  0
 27 61  1  0  0  0  0
  8 44  1  0  0  0  0
  8 16  1  0  0  0  0
 16 35  1  0  0  0  0
 27 60  1  0  0  0  0
 27 35  1  0  0  0  0
 18 27  1  0  0  0  0
 18 29  1  0  0  0  0
 29 30  2  0  0  0  0
 18 19  2  0  0  0  0
 25 56  1  0  0  0  0
 30 31  1  0  0  0  0
 22 49  1  0  0  0  0
 19 25  1  0  0  0  0
 19 31  1  0  0  0  0
 25 55  1  0  0  0  0
 25 57  1  0  0  0  0
 23 31  1  0  0  0  0
 22 50  1  0  0  0  0
 21 22  1  0  0  0  0
 22 32  1  0  0  0  0
 21 48  1  0  0  0  0
 21 23  1  0  0  0  0
 21 47  1  0  0  0  0
 32 62  1  0  0  0  0
 14 32  1  0  0  0  0
 23 51  1  0  0  0  0
 11 23  1  0  0  0  0
 11 14  2  0  0  0  0
  4 14  1  0  0  0  0
  3 11  1  0  0  0  0
  4 40  1  0  0  0  0
  2  4  2  0  0  0  0
  3 39  1  0  0  0  0
  1  3  2  0  0  0  0
  1  2  1  0  0  0  0
  2 38  1  0  0  0  0
  1 37  1  0  0  0  0
M  END
> <CID>
EN300-764389

> <SMILES>
Cc1ccncc1NC(=O)Cc2cc(cc(c2)Cl)OCc3c(n(nn3)[C@@H]4CCNc5c4cccc5)C

> <RUN>
RUN830

> <DDG (kcal/mol)>
-0.26

> <dDDG (kcal/mol)>
0.16

$$$$
EN300-257065
  -OEChem-08252008263D

 44 46  0     0  0  0  0  0  0999 V2000
    5.3870    1.0910   19.2960 C   0  0  0  0  0  0  0  0  0  0  0  0
   11.4130    0.9310   24.3850 C   0  0  0  0  0  0  0  0  0  0  0  0
   12.0420   -0.9980   23.1190 C   0  0  0  0  0  0  0  0  0  0  0  0
   13.7140    0.5790   23.8730 C   0  0  0  0  0  0  0  0  0  0  0  0
    5.9680    0.6710   18.1140 C   0  0  0  0  0  0  0  0  0  0  0  0
    7.7280   -0.3170   19.2440 C   0  0  0  0  0  0  0  0  0  0  0  0
   12.0640    5.7440   26.3690 C   0  0  0  0  0  0  0  0  0  0  0  0
    6.0260    0.8380   20.4970 C   0  0  0  0  0  0  0  0  0  0  0  0
   11.0390   -0.2170   23.6320 C   0  0  0  0  0  0  0  0  0  0  0  0
    7.1820    0.0680   20.5040 C   0  0  0  0  0  0  0  0  0  0  0  0
   12.7470    1.3540   24.4730 C   0  0  0  0  0  0  0  0  0  0  0  0
   13.3690   -0.5900   23.1890 C   0  0  0  0  0  0  0  0  0  0  0  0
   12.7150    4.5380   26.5400 C   0  0  0  0  0  0  0  0  0  0  0  0
    9.1590   -0.2440   22.0310 C   0  0  0  0  0  0  0  0  0  0  0  0
    5.4580    1.4420   21.7620 C   0  0  0  0  0  0  0  0  0  0  0  0
   12.7860    8.1240   26.7920 C   0  0  0  0  0  0  0  0  0  0  0  0
    9.5910   -0.5880   23.4220 C   0  0  0  0  0  0  0  0  0  0  0  0
   12.2020    3.1550   26.1040 C   0  0  0  0  0  0  0  0  0  0  0  0
    7.1290   -0.0050   18.0820 N   0  0  0  0  0  0  0  0  0  0  0  0
   13.9630    4.8060   26.9830 N   0  0  0  0  0  0  0  0  0  0  0  0
   14.1660    6.0540   27.1190 N   0  0  0  0  0  0  0  0  0  0  0  0
   13.0060    6.7160   26.7140 N   0  0  0  0  0  0  0  0  0  0  0  0
    7.8320   -0.1750   21.7780 N   0  0  0  0  0  0  0  0  0  0  0  0
    9.9550    0.1620   21.1530 O   0  0  0  0  0  0  0  0  0  0  0  0
   13.1490    2.4440   25.2430 O   0  0  0  0  0  0  0  0  0  0  0  0
   14.6470   -1.5260   22.4140 Cl  0  0  0  0  0  0  0  0  0  0  0  0
    4.4330    1.6240   19.3390 H   0  0  0  0  0  0  0  0  0  0  0  0
   10.5930    1.4770   24.8360 H   0  0  0  0  0  0  0  0  0  0  0  0
   11.8250   -1.8930   22.5370 H   0  0  0  0  0  0  0  0  0  0  0  0
   14.7710    0.8160   23.8750 H   0  0  0  0  0  0  0  0  0  0  0  0
    5.5760    0.8800   17.1250 H   0  0  0  0  0  0  0  0  0  0  0  0
    8.6480   -0.8950   19.2210 H   0  0  0  0  0  0  0  0  0  0  0  0
   11.0430    5.8200   26.0130 H   0  0  0  0  0  0  0  0  0  0  0  0
    6.1660    1.7350   22.5510 H   0  0  0  0  0  0  0  0  0  0  0  0
    4.9990    2.4210   21.5750 H   0  0  0  0  0  0  0  0  0  0  0  0
    4.6760    0.7690   22.1000 H   0  0  0  0  0  0  0  0  0  0  0  0
   12.1800    8.3570   27.6790 H   0  0  0  0  0  0  0  0  0  0  0  0
   12.3260    8.5690   25.9050 H   0  0  0  0  0  0  0  0  0  0  0  0
   13.7100    8.6460   27.0390 H   0  0  0  0  0  0  0  0  0  0  0  0
    9.4010   -1.6610   23.4760 H   0  0  0  0  0  0  0  0  0  0  0  0
    8.9810    0.0290   24.0900 H   0  0  0  0  0  0  0  0  0  0  0  0
   12.0330    2.5800   27.0190 H   0  0  0  0  0  0  0  0  0  0  0  0
   11.1960    3.2980   25.6950 H   0  0  0  0  0  0  0  0  0  0  0  0
    7.1410   -0.5820   22.4080 H   0  0  0  0  0  0  0  0  0  0  0  0
  5 31  1  0  0  0  0
  5 19  2  0  0  0  0
  6 19  1  0  0  0  0
  1  5  1  0  0  0  0
  6 32  1  0  0  0  0
  6 10  2  0  0  0  0
  1 27  1  0  0  0  0
  1  8  2  0  0  0  0
  8 10  1  0  0  0  0
  8 15  1  0  0  0  0
 10 23  1  0  0  0  0
 14 24  2  0  0  0  0
 15 35  1  0  0  0  0
 15 36  1  0  0  0  0
 15 34  1  0  0  0  0
 14 23  1  0  0  0  0
 23 44  1  0  0  0  0
 14 17  1  0  0  0  0
 12 26  1  0  0  0  0
  3 29  1  0  0  0  0
  3 12  2  0  0  0  0
  3  9  1  0  0  0  0
  4 12  1  0  0  0  0
 17 40  1  0  0  0  0
  9 17  1  0  0  0  0
 17 41  1  0  0  0  0
  2  9  2  0  0  0  0
  4 30  1  0  0  0  0
  4 11  2  0  0  0  0
  2 11  1  0  0  0  0
  2 28  1  0  0  0  0
 11 25  1  0  0  0  0
 18 25  1  0  0  0  0
 18 43  1  0  0  0  0
 16 38  1  0  0  0  0
  7 33  1  0  0  0  0
 13 18  1  0  0  0  0
 18 42  1  0  0  0  0
  7 13  2  0  0  0  0
  7 22  1  0  0  0  0
 13 20  1  0  0  0  0
 16 22  1  0  0  0  0
 21 22  1  0  0  0  0
 16 39  1  0  0  0  0
 16 37  1  0  0  0  0
 20 21  2  0  0  0  0
M  END
> <CID>
EN300-257065

> <SMILES>
Cc1ccncc1NC(=O)Cc2cc(cc(c2)Cl)OCc3cn(nn3)C

> <RUN>
RUN1272

> <DDG (kcal/mol)>
-0.26

> <dDDG (kcal/mol)>
0.09

$$$$
EN300-379204
  -OEChem-08252008263D

 43 44  0     1  0  0  0  0  0999 V2000
    6.3610    2.2100   19.5950 C   0  0  0  0  0  0  0  0  0  0  0  0
   10.2200   -1.8790   23.2780 C   0  0  0  0  0  0  0  0  0  0  0  0
   11.4010   -2.9050   21.4030 C   0  0  0  0  0  0  0  0  0  0  0  0
   12.5180   -1.4580   22.9680 C   0  0  0  0  0  0  0  0  0  0  0  0
    5.7640    1.8020   18.3520 C   0  0  0  0  0  0  0  0  0  0  0  0
    6.8710   -0.2090   18.4120 C   0  0  0  0  0  0  0  0  0  0  0  0
    7.2830    1.3650   20.2190 C   0  0  0  0  0  0  0  0  0  0  0  0
   10.1950   -2.6350   22.0890 C   0  0  0  0  0  0  0  0  0  0  0  0
    7.5410    0.0870   19.6650 C   0  0  0  0  0  0  0  0  0  0  0  0
   11.3530   -1.1860   23.6570 C   0  0  0  0  0  0  0  0  0  0  0  0
   12.5790   -2.2900   21.8070 C   0  0  0  0  0  0  0  0  0  0  0  0
    8.2250   -2.2370   20.3440 C   0  0  0  0  0  0  0  0  0  0  0  0
    7.8200    1.7860   21.5250 C   0  0  0  0  0  0  0  0  0  0  0  0
    8.8740   -3.1240   21.4030 C   0  0  0  0  0  0  0  0  0  0  0  0
   12.9930   -0.2610   26.2210 C   0  0  0  0  0  0  0  0  0  0  0  0
   12.2610    0.6100   25.0940 C   0  0  1  0  0  0  0  0  0  0  0  0
   10.7140    2.8410   24.2150 C   0  0  0  0  0  0  0  0  0  0  0  0
    6.0490    0.5930   17.7640 N   0  0  0  0  0  0  0  0  0  0  0  0
    8.3440   -0.8310   20.3120 N   0  0  0  0  0  0  0  0  0  0  0  0
    7.5710   -2.8390   19.4600 O   0  0  0  0  0  0  0  0  0  0  0  0
   12.7400    3.0790   25.7110 O   0  0  0  0  0  0  0  0  0  0  0  0
   11.2100   -0.2540   24.6830 O   0  0  0  0  0  0  0  0  0  0  0  0
    9.6100    2.1130   24.0900 F   0  0  0  0  0  0  0  0  0  0  0  0
   10.4600    4.1720   24.4040 F   0  0  0  0  0  0  0  0  0  0  0  0
   11.5040    2.6990   23.1050 F   0  0  0  0  0  0  0  0  0  0  0  0
   11.5480    2.2000   25.6550 S   0  0  2  0  0  0  0  0  0  0  0  0
   14.1250   -2.6080   21.0200 Cl  0  0  0  0  0  0  0  0  0  0  0  0
   11.8880   -0.4090   27.8360 Br  0  0  0  0  0  0  0  0  0  0  0  0
    6.2590    3.2430   19.9290 H   0  0  0  0  0  0  0  0  0  0  0  0
    9.3470   -1.5480   23.8310 H   0  0  0  0  0  0  0  0  0  0  0  0
   11.4090   -3.5460   20.5290 H   0  0  0  0  0  0  0  0  0  0  0  0
   13.4400   -0.9700   23.2490 H   0  0  0  0  0  0  0  0  0  0  0  0
    5.0720    2.3100   17.6930 H   0  0  0  0  0  0  0  0  0  0  0  0
    7.0210   -1.1580   17.8900 H   0  0  0  0  0  0  0  0  0  0  0  0
    8.0040    2.8520   21.6760 H   0  0  0  0  0  0  0  0  0  0  0  0
    7.1790    1.4140   22.3230 H   0  0  0  0  0  0  0  0  0  0  0  0
    8.7780    1.3100   21.7730 H   0  0  0  0  0  0  0  0  0  0  0  0
    9.0870   -4.1000   20.9640 H   0  0  0  0  0  0  0  0  0  0  0  0
    8.1720   -3.3450   22.2210 H   0  0  0  0  0  0  0  0  0  0  0  0
   13.4060   -1.2280   25.9340 H   0  0  0  0  0  0  0  0  0  0  0  0
   13.8970    0.2950   26.4960 H   0  0  0  0  0  0  0  0  0  0  0  0
   12.9800    0.8220   24.2910 H   0  0  0  0  0  0  0  0  0  0  0  0
    8.8800   -0.4480   21.0830 H   0  0  0  0  0  0  0  0  0  0  0  0
  5 33  1  0  0  0  0
  5 18  2  0  0  0  0
  6 18  1  0  0  0  0
  6 34  1  0  0  0  0
  1  5  1  0  0  0  0
  6  9  2  0  0  0  0
 12 20  2  0  0  0  0
  1 29  1  0  0  0  0
  1  7  2  0  0  0  0
  7  9  1  0  0  0  0
  9 19  1  0  0  0  0
  7 13  1  0  0  0  0
 12 19  1  0  0  0  0
 19 43  1  0  0  0  0
 12 14  1  0  0  0  0
  3 31  1  0  0  0  0
 14 38  1  0  0  0  0
 11 27  1  0  0  0  0
  3 11  2  0  0  0  0
  3  8  1  0  0  0  0
  8 14  1  0  0  0  0
 14 39  1  0  0  0  0
 13 35  1  0  0  0  0
 13 37  1  0  0  0  0
 13 36  1  0  0  0  0
  4 11  1  0  0  0  0
  2  8  2  0  0  0  0
  4 32  1  0  0  0  0
  4 10  2  0  0  0  0
 17 25  1  0  0  0  0
  2 10  1  0  0  0  0
  2 30  1  0  0  0  0
 10 22  1  0  0  0  0
 17 23  1  0  0  0  0
 17 24  1  0  0  0  0
 17 26  1  0  0  0  0
 16 42  1  0  0  0  0
 16 22  1  0  0  0  0
 16 26  1  0  0  0  0
 15 16  1  0  0  0  0
 21 26  2  0  0  0  0
 15 40  1  0  0  0  0
 15 41  1  0  0  0  0
 15 28  1  0  0  0  0
M  END
> <CID>
EN300-379204

> <SMILES>
Cc1ccncc1NC(=O)Cc2cc(cc(c2)Cl)O[C@H](CBr)[S@@](=O)C(F)(F)F

> <RUN>
RUN3252

> <DDG (kcal/mol)>
-0.25

> <dDDG (kcal/mol)>
0.14

$$$$
EN300-1280988
  -OEChem-08252008263D

 50 52  0     1  0  0  0  0  0999 V2000
    4.7770    2.4930   18.6670 C   0  0  0  0  0  0  0  0  0  0  0  0
   11.7000    3.7170   22.1780 C   0  0  0  0  0  0  0  0  0  0  0  0
   11.8670    1.4270   22.7890 C   0  0  0  0  0  0  0  0  0  0  0  0
   13.8870    2.6480   22.2660 C   0  0  0  0  0  0  0  0  0  0  0  0
    5.2020    1.6620   17.6750 C   0  0  0  0  0  0  0  0  0  0  0  0
    7.0390    0.9670   18.9160 C   0  0  0  0  0  0  0  0  0  0  0  0
    5.4250    2.4870   19.8960 C   0  0  0  0  0  0  0  0  0  0  0  0
   11.0640    2.5200   22.3970 C   0  0  0  0  0  0  0  0  0  0  0  0
    6.6360    1.7980   20.0060 C   0  0  0  0  0  0  0  0  0  0  0  0
   13.1680    3.8140   22.0150 C   0  0  0  0  0  0  0  0  0  0  0  0
   13.2120    1.4790   22.5910 C   0  0  0  0  0  0  0  0  0  0  0  0
   10.8140    5.5990   26.5540 C   0  0  0  0  0  0  0  0  0  0  0  0
   12.8960    6.1900   23.7550 C   0  0  0  0  0  0  0  0  0  0  0  0
    8.7950    1.7800   21.3690 C   0  0  0  0  0  0  0  0  0  0  0  0
    9.8370    7.1840   24.8140 C   0  0  0  0  0  0  0  0  0  0  0  0
   10.3820    6.7930   23.4350 C   0  0  0  0  0  0  0  0  0  0  0  0
   11.1020    6.6330   25.5020 C   0  0  2  0  0  0  0  0  0  0  0  0
    5.0890    3.4730   21.0170 C   0  0  0  0  0  0  0  0  0  0  0  0
    9.4820    2.5170   22.4930 C   0  0  0  0  0  0  0  0  0  0  0  0
   13.3270    6.2240   22.2910 C   0  0  0  0  0  0  0  0  0  0  0  0
    6.3120    0.9280   17.7670 N   0  0  0  0  0  0  0  0  0  0  0  0
   11.5410    6.2660   24.1670 N   0  0  0  0  0  0  0  0  0  0  0  0
   11.2450    5.8110   27.8310 N   0  0  0  0  0  0  0  0  0  0  0  0
    7.4170    2.0300   21.1880 N   0  0  0  0  0  0  0  0  0  0  0  0
   10.4360    4.4290   26.3480 O   0  0  0  0  0  0  0  0  0  0  0  0
   13.7890    5.9290   24.5710 O   0  0  0  0  0  0  0  0  0  0  0  0
    9.4600    1.1900   20.5390 O   0  0  0  0  0  0  0  0  0  0  0  0
   13.8420    5.0030   21.7710 O   0  0  0  0  0  0  0  0  0  0  0  0
   14.1530   -0.0060   22.7940 Cl  0  0  0  0  0  0  0  0  0  0  0  0
    3.9450    3.1820   18.5190 H   0  0  0  0  0  0  0  0  0  0  0  0
   11.0630    4.5760   21.9660 H   0  0  0  0  0  0  0  0  0  0  0  0
   11.5320    0.4660   23.1720 H   0  0  0  0  0  0  0  0  0  0  0  0
   14.9610    2.5340   22.1720 H   0  0  0  0  0  0  0  0  0  0  0  0
    4.5130    1.5030   16.8540 H   0  0  0  0  0  0  0  0  0  0  0  0
    7.8860    0.2890   18.9510 H   0  0  0  0  0  0  0  0  0  0  0  0
    8.9170    6.6930   25.1600 H   0  0  0  0  0  0  0  0  0  0  0  0
    9.7360    8.2490   25.0190 H   0  0  0  0  0  0  0  0  0  0  0  0
   10.6620    7.6530   22.8070 H   0  0  0  0  0  0  0  0  0  0  0  0
    9.6820    6.1090   22.9570 H   0  0  0  0  0  0  0  0  0  0  0  0
   11.7780    7.3960   25.9020 H   0  0  0  0  0  0  0  0  0  0  0  0
    4.9130    3.0150   21.9960 H   0  0  0  0  0  0  0  0  0  0  0  0
    5.8740    4.2340   21.0820 H   0  0  0  0  0  0  0  0  0  0  0  0
    4.2200    4.0410   20.6830 H   0  0  0  0  0  0  0  0  0  0  0  0
    9.1900    1.9640   23.3960 H   0  0  0  0  0  0  0  0  0  0  0  0
    9.1250    3.5500   22.4990 H   0  0  0  0  0  0  0  0  0  0  0  0
   14.0830    6.9950   22.1270 H   0  0  0  0  0  0  0  0  0  0  0  0
   12.4690    6.5340   21.6930 H   0  0  0  0  0  0  0  0  0  0  0  0
   11.4800    6.7630   28.0950 H   0  0  0  0  0  0  0  0  0  0  0  0
   10.8940    5.1870   28.5590 H   0  0  0  0  0  0  0  0  0  0  0  0
    6.9580    2.5510   21.9320 H   0  0  0  0  0  0  0  0  0  0  0  0
  5 34  1  0  0  0  0
  5 21  2  0  0  0  0
  1  5  1  0  0  0  0
  6 21  1  0  0  0  0
  1 30  1  0  0  0  0
  1  7  2  0  0  0  0
  6 35  1  0  0  0  0
  6  9  2  0  0  0  0
  7  9  1  0  0  0  0
  7 18  1  0  0  0  0
  9 24  1  0  0  0  0
 14 27  2  0  0  0  0
 18 43  1  0  0  0  0
 18 42  1  0  0  0  0
 18 41  1  0  0  0  0
 14 24  1  0  0  0  0
 24 50  1  0  0  0  0
 14 19  1  0  0  0  0
 20 47  1  0  0  0  0
 10 28  1  0  0  0  0
 20 28  1  0  0  0  0
  2 31  1  0  0  0  0
  2 10  2  0  0  0  0
  4 10  1  0  0  0  0
 20 46  1  0  0  0  0
  4 33  1  0  0  0  0
  2  8  1  0  0  0  0
  4 11  2  0  0  0  0
 13 20  1  0  0  0  0
  8 19  1  0  0  0  0
  3  8  2  0  0  0  0
 19 45  1  0  0  0  0
 19 44  1  0  0  0  0
  3 11  1  0  0  0  0
 11 29  1  0  0  0  0
  3 32  1  0  0  0  0
 16 38  1  0  0  0  0
 16 39  1  0  0  0  0
 16 22  1  0  0  0  0
 15 16  1  0  0  0  0
 13 22  1  0  0  0  0
 13 26  2  0  0  0  0
 17 22  1  0  0  0  0
 15 37  1  0  0  0  0
 15 36  1  0  0  0  0
 15 17  1  0  0  0  0
 17 40  1  0  0  0  0
 12 17  1  0  0  0  0
 12 25  2  0  0  0  0
 12 23  1  0  0  0  0
 23 48  1  0  0  0  0
 23 49  1  0  0  0  0
M  END
> <CID>
EN300-1280988

> <SMILES>
Cc1ccncc1NC(=O)Cc2cc(cc(c2)Cl)OCC(=O)N3CC[C@H]3C(=O)N

> <RUN>
RUN4578

> <DDG (kcal/mol)>
-0.24

> <dDDG (kcal/mol)>
0.27

$$$$
EN300-1918941
  -OEChem-08252008263D

 49 51  0     1  0  0  0  0  0999 V2000
    5.4610    0.6980   20.5690 C   0  0  0  0  0  0  0  0  0  0  0  0
   12.7680    1.2440   23.8860 C   0  0  0  0  0  0  0  0  0  0  0  0
   12.7960   -0.4610   22.1120 C   0  0  0  0  0  0  0  0  0  0  0  0
   14.7610    0.8790   22.4800 C   0  0  0  0  0  0  0  0  0  0  0  0
    5.8960    0.2920   19.3410 C   0  0  0  0  0  0  0  0  0  0  0  0
    7.8170   -0.5640   20.2160 C   0  0  0  0  0  0  0  0  0  0  0  0
   13.7260    7.0580   22.1980 C   0  0  0  0  0  0  0  0  0  0  0  0
    6.2210    0.4940   21.7230 C   0  0  0  0  0  0  0  0  0  0  0  0
   12.1280    0.2700   23.2040 C   0  0  0  0  0  0  0  0  0  0  0  0
    7.5090   -0.1190   21.4890 C   0  0  0  0  0  0  0  0  0  0  0  0
   14.0680    1.6200   23.5030 C   0  0  0  0  0  0  0  0  0  0  0  0
   14.1380   -0.2020   21.8270 C   0  0  0  0  0  0  0  0  0  0  0  0
   14.6960    6.0170   22.2600 C   0  0  0  0  0  0  0  0  0  0  0  0
   14.8290    7.3230   20.3210 C   0  0  0  0  0  0  0  0  0  0  0  0
    9.6890    0.3310   22.5060 C   0  0  0  0  0  0  0  0  0  0  0  0
    5.6670    0.9980   23.0840 C   0  0  0  0  0  0  0  0  0  0  0  0
   15.8450    7.3540   18.1770 C   0  0  0  0  0  0  0  0  0  0  0  0
   10.7280   -0.0810   23.5610 C   0  0  0  0  0  0  0  0  0  0  0  0
   14.9650    3.7190   23.0190 C   0  0  0  0  0  0  0  0  0  0  0  0
   14.7390    5.1520   23.4270 C   0  0  1  0  0  0  0  0  0  0  0  0
    6.9930   -0.4570   19.2070 N   0  0  0  0  0  0  0  0  0  0  0  0
   13.8120    7.7360   21.0180 N   0  0  0  0  0  0  0  0  0  0  0  0
    8.3860   -0.1300   22.6120 N   0  0  0  0  0  0  0  0  0  0  0  0
    9.9890    0.9490   21.5090 O   0  0  0  0  0  0  0  0  0  0  0  0
   15.7420    5.5920   24.3260 O   0  0  0  0  0  0  0  0  0  0  0  0
   14.5790    2.7780   24.0350 O   0  0  0  0  0  0  0  0  0  0  0  0
   14.9590    7.9340   19.1200 O   0  0  0  0  0  0  0  0  0  0  0  0
   15.7110    5.8980   20.8480 S   0  0  0  0  0  0  0  0  0  0  0  0
   15.0070   -1.1530   20.5900 Cl  0  0  0  0  0  0  0  0  0  0  0  0
    4.4790    1.1380   20.7060 H   0  0  0  0  0  0  0  0  0  0  0  0
   12.1960    1.8320   24.5980 H   0  0  0  0  0  0  0  0  0  0  0  0
   12.2070   -1.1300   21.4910 H   0  0  0  0  0  0  0  0  0  0  0  0
   15.7690    1.1920   22.2480 H   0  0  0  0  0  0  0  0  0  0  0  0
    5.1310    0.5010   18.5960 H   0  0  0  0  0  0  0  0  0  0  0  0
    8.7370   -1.1300   20.1140 H   0  0  0  0  0  0  0  0  0  0  0  0
   12.9890    7.2770   22.9690 H   0  0  0  0  0  0  0  0  0  0  0  0
    5.6430    2.0910   23.1260 H   0  0  0  0  0  0  0  0  0  0  0  0
    4.6370    0.6970   23.2580 H   0  0  0  0  0  0  0  0  0  0  0  0
    6.1170    0.4360   23.9120 H   0  0  0  0  0  0  0  0  0  0  0  0
   15.7740    7.9440   17.2590 H   0  0  0  0  0  0  0  0  0  0  0  0
   15.6340    6.2750   18.1460 H   0  0  0  0  0  0  0  0  0  0  0  0
   16.9050    7.3830   18.4460 H   0  0  0  0  0  0  0  0  0  0  0  0
   10.6840   -1.1650   23.7040 H   0  0  0  0  0  0  0  0  0  0  0  0
   10.4800    0.3850   24.5150 H   0  0  0  0  0  0  0  0  0  0  0  0
   14.3840    3.4720   22.1270 H   0  0  0  0  0  0  0  0  0  0  0  0
   16.0220    3.7340   22.7690 H   0  0  0  0  0  0  0  0  0  0  0  0
   13.7960    5.1970   23.9870 H   0  0  0  0  0  0  0  0  0  0  0  0
    7.9900   -0.1490   23.5410 H   0  0  0  0  0  0  0  0  0  0  0  0
   15.4280    6.3110   24.9070 H   0  0  0  0  0  0  0  0  0  0  0  0
 17 40  1  0  0  0  0
 17 41  1  0  0  0  0
 17 42  1  0  0  0  0
 17 27  1  0  0  0  0
  5 34  1  0  0  0  0
 14 27  1  0  0  0  0
  5 21  2  0  0  0  0
  6 21  1  0  0  0  0
  1  5  1  0  0  0  0
  6 35  1  0  0  0  0
  6 10  2  0  0  0  0
 14 28  1  0  0  0  0
 14 22  2  0  0  0  0
  1 30  1  0  0  0  0
  1  8  2  0  0  0  0
 12 29  1  0  0  0  0
 13 28  1  0  0  0  0
  7 22  1  0  0  0  0
  8 10  1  0  0  0  0
 10 23  1  0  0  0  0
  3 32  1  0  0  0  0
 15 24  2  0  0  0  0
  8 16  1  0  0  0  0
  3 12  2  0  0  0  0
  4 12  1  0  0  0  0
  3  9  1  0  0  0  0
 19 45  1  0  0  0  0
  7 13  2  0  0  0  0
  7 36  1  0  0  0  0
  4 33  1  0  0  0  0
 13 20  1  0  0  0  0
  4 11  2  0  0  0  0
 15 23  1  0  0  0  0
 15 18  1  0  0  0  0
 23 48  1  0  0  0  0
 19 46  1  0  0  0  0
 19 20  1  0  0  0  0
 19 26  1  0  0  0  0
 16 37  1  0  0  0  0
 16 38  1  0  0  0  0
 16 39  1  0  0  0  0
  9 18  1  0  0  0  0
  2  9  2  0  0  0  0
 20 47  1  0  0  0  0
 20 25  1  0  0  0  0
  2 11  1  0  0  0  0
 11 26  1  0  0  0  0
 18 43  1  0  0  0  0
 18 44  1  0  0  0  0
  2 31  1  0  0  0  0
 25 49  1  0  0  0  0
M  END
> <CID>
EN300-1918941

> <SMILES>
Cc1ccncc1NC(=O)Cc2cc(cc(c2)Cl)OC[C@H](c3cnc(s3)OC)O

> <RUN>
RUN3118

> <DDG (kcal/mol)>
-0.24

> <dDDG (kcal/mol)>
0.19

$$$$
EN300-1277859
  -OEChem-08252008263D

 50 52  0     0  0  0  0  0  0999 V2000
    4.9820    2.7600   19.3500 C   0  0  0  0  0  0  0  0  0  0  0  0
    9.9190   -2.5000   22.7440 C   0  0  0  0  0  0  0  0  0  0  0  0
   11.6510   -0.9560   21.9820 C   0  0  0  0  0  0  0  0  0  0  0  0
   12.1330   -3.3280   22.1620 C   0  0  0  0  0  0  0  0  0  0  0  0
    5.2990    2.2070   18.0790 C   0  0  0  0  0  0  0  0  0  0  0  0
    7.0880    1.1660   18.9370 C   0  0  0  0  0  0  0  0  0  0  0  0
    5.7680    2.4540   20.4510 C   0  0  0  0  0  0  0  0  0  0  0  0
   10.3380   -1.1980   22.4110 C   0  0  0  0  0  0  0  0  0  0  0  0
    6.9070    1.5910   20.2210 C   0  0  0  0  0  0  0  0  0  0  0  0
   10.8100   -3.5860   22.5950 C   0  0  0  0  0  0  0  0  0  0  0  0
   12.5860   -2.0580   21.9560 C   0  0  0  0  0  0  0  0  0  0  0  0
    8.6170   -5.8830   24.3510 C   0  0  0  0  0  0  0  0  0  0  0  0
    9.1430   -5.1700   23.3610 C   0  0  0  0  0  0  0  0  0  0  0  0
    8.3770    0.0560   21.5010 C   0  0  0  0  0  0  0  0  0  0  0  0
    5.5020    3.1120   21.7760 C   0  0  0  0  0  0  0  0  0  0  0  0
    5.4400   -7.4520   23.8410 C   0  0  0  0  0  0  0  0  0  0  0  0
    5.3550   -5.8180   25.8550 C   0  0  0  0  0  0  0  0  0  0  0  0
    9.3890   -0.0500   22.6520 C   0  0  0  0  0  0  0  0  0  0  0  0
    9.4210   -6.3200   25.5870 C   0  0  0  0  0  0  0  0  0  0  0  0
    6.2490   -6.6860   24.9010 C   0  0  0  0  0  0  0  0  0  0  0  0
    6.3160    1.3840   17.8950 N   0  0  0  0  0  0  0  0  0  0  0  0
    8.1300   -4.8120   22.4630 N   0  0  0  0  0  0  0  0  0  0  0  0
    7.0130   -5.2820   23.0210 N   0  0  0  0  0  0  0  0  0  0  0  0
    7.2660   -5.8870   24.1700 N   0  0  0  0  0  0  0  0  0  0  0  0
    7.7610    1.2610   21.3030 N   0  0  0  0  0  0  0  0  0  0  0  0
    8.0300   -0.8860   20.8320 O   0  0  0  0  0  0  0  0  0  0  0  0
   10.5200   -4.8920   23.1560 O   0  0  0  0  0  0  0  0  0  0  0  0
   14.1060   -1.7180   21.2120 Cl  0  0  0  0  0  0  0  0  0  0  0  0
    9.0160   -5.3360   27.2070 Br  0  0  0  0  0  0  0  0  0  0  0  0
    4.0600    3.3220   19.4130 H   0  0  0  0  0  0  0  0  0  0  0  0
    8.9380   -2.5510   23.2070 H   0  0  0  0  0  0  0  0  0  0  0  0
   11.9950    0.0340   21.7040 H   0  0  0  0  0  0  0  0  0  0  0  0
   12.7430   -4.2140   21.9780 H   0  0  0  0  0  0  0  0  0  0  0  0
    4.6120    2.3720   17.2510 H   0  0  0  0  0  0  0  0  0  0  0  0
    7.9720    0.5740   18.7260 H   0  0  0  0  0  0  0  0  0  0  0  0
    6.0210    4.0570   21.9780 H   0  0  0  0  0  0  0  0  0  0  0  0
    4.4530    3.3890   21.7090 H   0  0  0  0  0  0  0  0  0  0  0  0
    5.4910    2.3950   22.5940 H   0  0  0  0  0  0  0  0  0  0  0  0
    4.6050   -7.9610   24.3240 H   0  0  0  0  0  0  0  0  0  0  0  0
    5.9990   -8.2250   23.3060 H   0  0  0  0  0  0  0  0  0  0  0  0
    4.9850   -6.8060   23.0830 H   0  0  0  0  0  0  0  0  0  0  0  0
    4.9470   -6.4240   26.6690 H   0  0  0  0  0  0  0  0  0  0  0  0
    4.5920   -5.3250   25.2500 H   0  0  0  0  0  0  0  0  0  0  0  0
    6.0260   -5.0680   26.2960 H   0  0  0  0  0  0  0  0  0  0  0  0
    8.8820   -0.1670   23.6130 H   0  0  0  0  0  0  0  0  0  0  0  0
    9.9810    0.8610   22.6340 H   0  0  0  0  0  0  0  0  0  0  0  0
   10.4880   -6.3230   25.3370 H   0  0  0  0  0  0  0  0  0  0  0  0
    9.2480   -7.3870   25.7520 H   0  0  0  0  0  0  0  0  0  0  0  0
    6.7360   -7.4570   25.5010 H   0  0  0  0  0  0  0  0  0  0  0  0
    8.0780    2.0720   21.8300 H   0  0  0  0  0  0  0  0  0  0  0  0
  5 34  1  0  0  0  0
  5 21  2  0  0  0  0
  6 21  1  0  0  0  0
  1  5  1  0  0  0  0
  6 35  1  0  0  0  0
  6  9  2  0  0  0  0
  1 30  1  0  0  0  0
  1  7  2  0  0  0  0
  7  9  1  0  0  0  0
  9 25  1  0  0  0  0
  7 15  1  0  0  0  0
 14 26  2  0  0  0  0
 11 28  1  0  0  0  0
 14 25  1  0  0  0  0
 25 50  1  0  0  0  0
 14 18  1  0  0  0  0
  3 32  1  0  0  0  0
 15 37  1  0  0  0  0
 15 36  1  0  0  0  0
 15 38  1  0  0  0  0
  3 11  2  0  0  0  0
  4 11  1  0  0  0  0
  4 33  1  0  0  0  0
  3  8  1  0  0  0  0
  4 10  2  0  0  0  0
  8 18  1  0  0  0  0
  2  8  2  0  0  0  0
 22 23  2  0  0  0  0
 13 22  1  0  0  0  0
  2 10  1  0  0  0  0
 10 27  1  0  0  0  0
 18 46  1  0  0  0  0
 18 45  1  0  0  0  0
  2 31  1  0  0  0  0
 23 24  1  0  0  0  0
 16 41  1  0  0  0  0
 13 27  1  0  0  0  0
 16 40  1  0  0  0  0
 12 13  2  0  0  0  0
 16 39  1  0  0  0  0
 16 20  1  0  0  0  0
 12 24  1  0  0  0  0
 20 24  1  0  0  0  0
 12 19  1  0  0  0  0
 20 49  1  0  0  0  0
 17 20  1  0  0  0  0
 17 43  1  0  0  0  0
 19 47  1  0  0  0  0
 19 48  1  0  0  0  0
 19 29  1  0  0  0  0
 17 44  1  0  0  0  0
 17 42  1  0  0  0  0
M  END
> <CID>
EN300-1277859

> <SMILES>
Cc1ccncc1NC(=O)Cc2cc(cc(c2)Cl)Oc3c(n(nn3)C(C)C)CBr

> <RUN>
RUN184

> <DDG (kcal/mol)>
-0.24

> <dDDG (kcal/mol)>
0.11

$$$$
EN300-843012
  -OEChem-08252008263D

 52 55  0     0  0  0  0  0  0999 V2000
   13.1980    6.3860   27.4160 C   0  0  0  0  0  0  0  0  0  0  0  0
   12.7270    6.1970   28.6800 C   0  0  0  0  0  0  0  0  0  0  0  0
   12.6140    5.7030   26.4250 C   0  0  0  0  0  0  0  0  0  0  0  0
    4.7730    1.6640   18.2620 C   0  0  0  0  0  0  0  0  0  0  0  0
   11.2580    6.0360   31.2200 C   0  0  0  0  0  0  0  0  0  0  0  0
   11.2080    4.5000   27.9110 C   0  0  0  0  0  0  0  0  0  0  0  0
   10.4660    1.5120   23.9630 C   0  0  0  0  0  0  0  0  0  0  0  0
   11.1440   -0.2620   22.5930 C   0  0  0  0  0  0  0  0  0  0  0  0
   12.8480    1.1950   23.6010 C   0  0  0  0  0  0  0  0  0  0  0  0
    5.5990    1.1180   17.2720 C   0  0  0  0  0  0  0  0  0  0  0  0
   10.6490    5.4530   32.4210 C   0  0  0  0  0  0  0  0  0  0  0  0
    7.2630    0.5800   18.8180 C   0  0  0  0  0  0  0  0  0  0  0  0
   11.7390    5.2100   28.9710 C   0  0  0  0  0  0  0  0  0  0  0  0
   11.6270    4.7330   26.6660 C   0  0  0  0  0  0  0  0  0  0  0  0
    5.2070    1.6320   19.5970 C   0  0  0  0  0  0  0  0  0  0  0  0
   10.0890    0.4190   23.1970 C   0  0  0  0  0  0  0  0  0  0  0  0
    6.4930    1.0530   19.8800 C   0  0  0  0  0  0  0  0  0  0  0  0
   11.8630    1.9390   24.2130 C   0  0  0  0  0  0  0  0  0  0  0  0
   12.4520    0.0460   22.8790 C   0  0  0  0  0  0  0  0  0  0  0  0
   11.3780    4.9870   30.3560 C   0  0  0  0  0  0  0  0  0  0  0  0
    8.2460    0.8230   21.6220 C   0  0  0  0  0  0  0  0  0  0  0  0
    4.3450    2.2800   20.7670 C   0  0  0  0  0  0  0  0  0  0  0  0
    8.6170    0.1560   22.8920 C   0  0  0  0  0  0  0  0  0  0  0  0
   11.1190    3.7840   25.5890 C   0  0  0  0  0  0  0  0  0  0  0  0
    6.8450    0.6520   17.5720 N   0  0  0  0  0  0  0  0  0  0  0  0
   10.4170    4.1960   32.2560 N   0  0  0  0  0  0  0  0  0  0  0  0
   10.8440    3.9090   31.0240 N   0  0  0  0  0  0  0  0  0  0  0  0
    6.9310    0.8900   21.1650 N   0  0  0  0  0  0  0  0  0  0  0  0
    8.9920    1.5230   20.9710 O   0  0  0  0  0  0  0  0  0  0  0  0
   12.2530    3.0050   25.0740 O   0  0  0  0  0  0  0  0  0  0  0  0
   13.6660   -0.9240   22.1450 Cl  0  0  0  0  0  0  0  0  0  0  0  0
   13.9290    7.1710   27.2810 H   0  0  0  0  0  0  0  0  0  0  0  0
   13.1860    6.7780   29.4720 H   0  0  0  0  0  0  0  0  0  0  0  0
   13.0430    5.8170   25.4350 H   0  0  0  0  0  0  0  0  0  0  0  0
    3.7890    2.0690   18.0680 H   0  0  0  0  0  0  0  0  0  0  0  0
   11.5140    7.0790   31.0890 H   0  0  0  0  0  0  0  0  0  0  0  0
   10.4800    3.7290   28.1530 H   0  0  0  0  0  0  0  0  0  0  0  0
    9.5880    2.0120   24.3620 H   0  0  0  0  0  0  0  0  0  0  0  0
   10.9950   -1.1080   21.9320 H   0  0  0  0  0  0  0  0  0  0  0  0
   13.8750    1.4910   23.7520 H   0  0  0  0  0  0  0  0  0  0  0  0
    5.2420    0.8970   16.2800 H   0  0  0  0  0  0  0  0  0  0  0  0
   10.2570    6.0960   33.2050 H   0  0  0  0  0  0  0  0  0  0  0  0
    8.2460    0.1590   19.0210 H   0  0  0  0  0  0  0  0  0  0  0  0
    3.3220    2.4720   20.4220 H   0  0  0  0  0  0  0  0  0  0  0  0
    4.2220    1.6550   21.6570 H   0  0  0  0  0  0  0  0  0  0  0  0
    4.9420    3.1470   21.0660 H   0  0  0  0  0  0  0  0  0  0  0  0
    8.5270   -0.9320   22.7770 H   0  0  0  0  0  0  0  0  0  0  0  0
    8.0360    0.5430   23.7350 H   0  0  0  0  0  0  0  0  0  0  0  0
   10.2370    3.2650   25.9740 H   0  0  0  0  0  0  0  0  0  0  0  0
   10.6750    4.4290   24.8310 H   0  0  0  0  0  0  0  0  0  0  0  0
   10.8470    2.9380   30.7080 H   0  0  0  0  0  0  0  0  0  0  0  0
    6.2680    0.7760   21.9370 H   0  0  0  0  0  0  0  0  0  0  0  0
 10 41  1  0  0  0  0
 10 25  2  0  0  0  0
  4 10  1  0  0  0  0
 12 25  1  0  0  0  0
  4 35  1  0  0  0  0
  4 15  2  0  0  0  0
 12 43  1  0  0  0  0
 12 17  2  0  0  0  0
 15 17  1  0  0  0  0
 15 22  1  0  0  0  0
 17 28  1  0  0  0  0
 22 44  1  0  0  0  0
 22 46  1  0  0  0  0
 22 45  1  0  0  0  0
 21 29  2  0  0  0  0
 21 28  1  0  0  0  0
 28 52  1  0  0  0  0
 21 23  1  0  0  0  0
  8 39  1  0  0  0  0
 19 31  1  0  0  0  0
  8 19  2  0  0  0  0
  8 16  1  0  0  0  0
 23 47  1  0  0  0  0
  9 19  1  0  0  0  0
 16 23  1  0  0  0  0
 23 48  1  0  0  0  0
  7 16  2  0  0  0  0
  9 40  1  0  0  0  0
  9 18  2  0  0  0  0
  7 18  1  0  0  0  0
  7 38  1  0  0  0  0
 18 30  1  0  0  0  0
 24 50  1  0  0  0  0
 24 30  1  0  0  0  0
  3 34  1  0  0  0  0
 24 49  1  0  0  0  0
 14 24  1  0  0  0  0
  3 14  2  0  0  0  0
  1  3  1  0  0  0  0
  6 14  1  0  0  0  0
  1 32  1  0  0  0  0
  1  2  2  0  0  0  0
  6 37  1  0  0  0  0
  6 13  2  0  0  0  0
  2 13  1  0  0  0  0
  2 33  1  0  0  0  0
 13 20  1  0  0  0  0
 20 27  1  0  0  0  0
  5 20  2  0  0  0  0
 27 51  1  0  0  0  0
 26 27  1  0  0  0  0
  5 36  1  0  0  0  0
  5 11  1  0  0  0  0
 11 26  2  0  0  0  0
 11 42  1  0  0  0  0
M  END
> <CID>
EN300-843012

> <SMILES>
Cc1ccncc1NC(=O)Cc2cc(cc(c2)Cl)OCc3cccc(c3)c4ccn[nH]4

> <RUN>
RUN876

> <DDG (kcal/mol)>
-0.24

> <dDDG (kcal/mol)>
0.12

$$$$
EN300-1274631
  -OEChem-08252008263D

 62 65  0     1  0  0  0  0  0999 V2000
   11.3450    5.2730   24.6090 C   0  0  0  0  0  0  0  0  0  0  0  0
   10.7540    4.9180   26.9150 C   0  0  0  0  0  0  0  0  0  0  0  0
   12.0910    4.0160   24.6290 C   0  0  0  0  0  0  0  0  0  0  0  0
   11.4960    3.7770   26.9300 C   0  0  0  0  0  0  0  0  0  0  0  0
    5.1080    1.1700   19.0650 C   0  0  0  0  0  0  0  0  0  0  0  0
   11.0600    0.7770   24.6340 C   0  0  0  0  0  0  0  0  0  0  0  0
   11.7300   -0.8580   23.0470 C   0  0  0  0  0  0  0  0  0  0  0  0
   13.4030    0.3110   24.3250 C   0  0  0  0  0  0  0  0  0  0  0  0
    5.7780    0.5930   17.9980 C   0  0  0  0  0  0  0  0  0  0  0  0
    7.4930   -0.2110   19.2980 C   0  0  0  0  0  0  0  0  0  0  0  0
   10.6220    5.6650   25.7470 C   0  0  0  0  0  0  0  0  0  0  0  0
    5.5930    0.9540   20.3680 C   0  0  0  0  0  0  0  0  0  0  0  0
   10.6490   -0.1770   23.7070 C   0  0  0  0  0  0  0  0  0  0  0  0
    6.8320    0.2940   20.5310 C   0  0  0  0  0  0  0  0  0  0  0  0
   12.1320    3.2410   25.7930 C   0  0  0  0  0  0  0  0  0  0  0  0
   12.4420    1.0470   24.9490 C   0  0  0  0  0  0  0  0  0  0  0  0
   13.1010   -0.6380   23.3600 C   0  0  0  0  0  0  0  0  0  0  0  0
    7.4540    6.4250   26.0430 C   0  0  3  0  0  0  0  0  0  0  0  0
    8.7420    0.0290   21.9990 C   0  0  0  0  0  0  0  0  0  0  0  0
    5.0550    6.1480   26.2740 C   0  0  1  0  0  0  0  0  0  0  0  0
    5.4820    6.4660   27.7270 C   0  0  2  0  0  0  0  0  0  0  0  0
    4.8590    1.5220   21.5370 C   0  0  0  0  0  0  0  0  0  0  0  0
    4.4650    7.3130   25.5430 C   0  0  0  0  0  0  0  0  0  0  0  0
    9.2130   -0.4590   23.3490 C   0  0  0  0  0  0  0  0  0  0  0  0
    9.7900    6.8960   25.6700 C   0  0  0  0  0  0  0  0  0  0  0  0
    4.7410    7.5760   28.5200 C   0  0  0  0  0  0  0  0  0  0  0  0
    6.9600   -0.0890   18.0470 N   0  0  0  0  0  0  0  0  0  0  0  0
    6.3020    5.8330   25.5610 N   0  0  0  0  0  0  0  0  0  0  0  0
    7.3620    0.0910   21.7260 N   0  0  0  0  0  0  0  0  0  0  0  0
    8.4650    6.4630   25.2890 N   0  0  0  0  0  0  0  0  0  0  0  0
    9.5370    0.4940   21.2340 O   0  0  0  0  0  0  0  0  0  0  0  0
   12.7680    2.0150   25.8840 O   0  0  0  0  0  0  0  0  0  0  0  0
    7.2890    6.9000   27.7080 S   0  0  0  0  0  0  0  0  0  0  0  0
   14.3280   -1.5340   22.3940 Cl  0  0  0  0  0  0  0  0  0  0  0  0
    5.1500    7.5130   30.5290 Br  0  0  0  0  0  0  0  0  0  0  0  0
   11.2600    5.8220   23.6650 H   0  0  0  0  0  0  0  0  0  0  0  0
   10.3330    5.3170   27.8300 H   0  0  0  0  0  0  0  0  0  0  0  0
   12.5640    3.6370   23.7340 H   0  0  0  0  0  0  0  0  0  0  0  0
   11.6500    3.2510   27.8750 H   0  0  0  0  0  0  0  0  0  0  0  0
    4.3110    1.8890   19.0060 H   0  0  0  0  0  0  0  0  0  0  0  0
   10.3130    1.2360   25.2880 H   0  0  0  0  0  0  0  0  0  0  0  0
   11.5790   -1.5150   22.1990 H   0  0  0  0  0  0  0  0  0  0  0  0
   14.4660    0.5180   24.4720 H   0  0  0  0  0  0  0  0  0  0  0  0
    5.2660    0.5760   17.0360 H   0  0  0  0  0  0  0  0  0  0  0  0
    8.5040   -0.5820   19.4150 H   0  0  0  0  0  0  0  0  0  0  0  0
    4.3390    5.3190   26.2660 H   0  0  0  0  0  0  0  0  0  0  0  0
    5.3270    5.5640   28.3340 H   0  0  0  0  0  0  0  0  0  0  0  0
    5.3310    2.4510   21.8740 H   0  0  0  0  0  0  0  0  0  0  0  0
    3.8450    1.7930   21.2420 H   0  0  0  0  0  0  0  0  0  0  0  0
    4.8740    0.7950   22.3570 H   0  0  0  0  0  0  0  0  0  0  0  0
    3.4580    7.5390   25.9130 H   0  0  0  0  0  0  0  0  0  0  0  0
    4.4450    7.1910   24.4600 H   0  0  0  0  0  0  0  0  0  0  0  0
    4.9670    8.2790   25.7000 H   0  0  0  0  0  0  0  0  0  0  0  0
    9.0920   -1.5460   23.4380 H   0  0  0  0  0  0  0  0  0  0  0  0
    8.6280    0.0390   24.1390 H   0  0  0  0  0  0  0  0  0  0  0  0
    9.7390    7.3410   26.6740 H   0  0  0  0  0  0  0  0  0  0  0  0
   10.2310    7.4980   24.8730 H   0  0  0  0  0  0  0  0  0  0  0  0
    3.6980    7.6390   28.1910 H   0  0  0  0  0  0  0  0  0  0  0  0
    5.1320    8.5540   28.2270 H   0  0  0  0  0  0  0  0  0  0  0  0
    6.2300    5.4140   24.6380 H   0  0  0  0  0  0  0  0  0  0  0  0
    6.7570   -0.0880   22.5150 H   0  0  0  0  0  0  0  0  0  0  0  0
    8.4550    6.0680   24.3540 H   0  0  0  0  0  0  0  0  0  0  0  0
  9 44  1  0  0  0  0
  9 27  2  0  0  0  0
  5  9  1  0  0  0  0
 10 27  1  0  0  0  0
  5 40  1  0  0  0  0
  5 12  2  0  0  0  0
 10 45  1  0  0  0  0
 10 14  2  0  0  0  0
 12 14  1  0  0  0  0
 12 22  1  0  0  0  0
 14 29  1  0  0  0  0
 19 31  2  0  0  0  0
 22 49  1  0  0  0  0
 22 48  1  0  0  0  0
 22 50  1  0  0  0  0
 19 29  1  0  0  0  0
 29 61  1  0  0  0  0
 19 24  1  0  0  0  0
  7 42  1  0  0  0  0
 17 34  1  0  0  0  0
  7 17  2  0  0  0  0
  7 13  1  0  0  0  0
 24 54  1  0  0  0  0
 13 24  1  0  0  0  0
 24 55  1  0  0  0  0
  8 17  1  0  0  0  0
  1 36  1  0  0  0  0
  6 13  2  0  0  0  0
  3 38  1  0  0  0  0
  8 43  1  0  0  0  0
  8 16  2  0  0  0  0
 30 62  1  0  0  0  0
 23 52  1  0  0  0  0
  1  3  2  0  0  0  0
  1 11  1  0  0  0  0
  3 15  1  0  0  0  0
  6 16  1  0  0  0  0
  6 41  1  0  0  0  0
 28 60  1  0  0  0  0
 25 57  1  0  0  0  0
 16 32  1  0  0  0  0
 25 30  1  0  0  0  0
 18 30  1  0  0  0  0
 23 53  1  0  0  0  0
 23 51  1  0  0  0  0
 20 23  1  0  0  0  0
 18 28  1  0  0  0  0
 20 28  1  0  0  0  0
 11 25  1  0  0  0  0
 25 56  1  0  0  0  0
  2 11  2  0  0  0  0
 15 32  1  0  0  0  0
  4 15  2  0  0  0  0
 18 33  1  0  0  0  0
 20 46  1  0  0  0  0
 20 21  1  0  0  0  0
  2  4  1  0  0  0  0
  2 37  1  0  0  0  0
  4 39  1  0  0  0  0
 21 33  1  0  0  0  0
 21 47  1  0  0  0  0
 21 26  1  0  0  0  0
 26 58  1  0  0  0  0
 26 59  1  0  0  0  0
 26 35  1  0  0  0  0
M  END
> <CID>
EN300-1274631

> <SMILES>
Cc1ccncc1NC(=O)Cc2cc(cc(c2)Cl)Oc3ccc(cc3)C/[NH+]=C\4/N[C@@H]([C@@H](S4)CBr)C

> <RUN>
RUN1822

> <DDG (kcal/mol)>
-0.24

> <dDDG (kcal/mol)>
0.16

$$$$
EN300-139605
  -OEChem-08252008263D

 42 44  0     0  0  0  0  0  0999 V2000
   12.2800    5.5700   25.6030 C   0  0  0  0  0  0  0  0  0  0  0  0
   12.7080    6.6030   26.4860 C   0  0  0  0  0  0  0  0  0  0  0  0
    5.7910    2.0790   19.4590 C   0  0  0  0  0  0  0  0  0  0  0  0
   12.0010    0.8630   24.0160 C   0  0  0  0  0  0  0  0  0  0  0  0
   12.5120   -0.8840   22.4490 C   0  0  0  0  0  0  0  0  0  0  0  0
   14.2980    0.5240   23.1630 C   0  0  0  0  0  0  0  0  0  0  0  0
    6.4670    1.9750   18.2180 C   0  0  0  0  0  0  0  0  0  0  0  0
    8.1320    0.6330   19.1250 C   0  0  0  0  0  0  0  0  0  0  0  0
    6.4390    1.4900   20.6020 C   0  0  0  0  0  0  0  0  0  0  0  0
   11.5980   -0.1930   23.1710 C   0  0  0  0  0  0  0  0  0  0  0  0
    7.5990    0.7410   20.4300 C   0  0  0  0  0  0  0  0  0  0  0  0
   13.3770    1.2560   24.0070 C   0  0  0  0  0  0  0  0  0  0  0  0
   13.8430   -0.6080   22.4660 C   0  0  0  0  0  0  0  0  0  0  0  0
   13.3070    4.7050   25.2950 C   0  0  0  0  0  0  0  0  0  0  0  0
   14.0070    6.2190   26.8610 C   0  0  0  0  0  0  0  0  0  0  0  0
    9.5270    0.1840   21.7310 C   0  0  0  0  0  0  0  0  0  0  0  0
    5.7910    1.7620   21.9390 C   0  0  0  0  0  0  0  0  0  0  0  0
   10.0710   -0.4340   23.0320 C   0  0  0  0  0  0  0  0  0  0  0  0
   13.3560    3.5510   24.2420 C   0  0  0  0  0  0  0  0  0  0  0  0
    7.6000    1.2530   18.0300 N   0  0  0  0  0  0  0  0  0  0  0  0
    8.1710    0.0090   21.4570 N   0  0  0  0  0  0  0  0  0  0  0  0
   10.2560    0.8350   21.0060 O   0  0  0  0  0  0  0  0  0  0  0  0
   14.3490    5.1120   26.1020 O   0  0  0  0  0  0  0  0  0  0  0  0
   13.9610    2.2790   24.7900 O   0  0  0  0  0  0  0  0  0  0  0  0
   14.9440   -1.6660   21.6910 Cl  0  0  0  0  0  0  0  0  0  0  0  0
   14.9880    7.1680   28.1980 Br  0  0  0  0  0  0  0  0  0  0  0  0
   11.2720    5.4690   25.2220 H   0  0  0  0  0  0  0  0  0  0  0  0
   12.1200    7.4170   26.9010 H   0  0  0  0  0  0  0  0  0  0  0  0
    4.9890    2.7920   19.5940 H   0  0  0  0  0  0  0  0  0  0  0  0
   11.2830    1.3120   24.6990 H   0  0  0  0  0  0  0  0  0  0  0  0
   12.0800   -1.6570   21.8200 H   0  0  0  0  0  0  0  0  0  0  0  0
   15.3520    0.7690   23.1420 H   0  0  0  0  0  0  0  0  0  0  0  0
    6.0830    2.4980   17.3560 H   0  0  0  0  0  0  0  0  0  0  0  0
    8.9790   -0.0260   18.9620 H   0  0  0  0  0  0  0  0  0  0  0  0
    4.9360    1.0980   22.1170 H   0  0  0  0  0  0  0  0  0  0  0  0
    6.5300    1.6100   22.7280 H   0  0  0  0  0  0  0  0  0  0  0  0
    5.4040    2.7860   21.9980 H   0  0  0  0  0  0  0  0  0  0  0  0
    9.8290   -1.5050   22.9970 H   0  0  0  0  0  0  0  0  0  0  0  0
    9.5530   -0.1110   23.9440 H   0  0  0  0  0  0  0  0  0  0  0  0
   12.3640    3.3910   23.8210 H   0  0  0  0  0  0  0  0  0  0  0  0
   13.9400    3.9230   23.3860 H   0  0  0  0  0  0  0  0  0  0  0  0
    7.5590   -0.4220   22.1490 H   0  0  0  0  0  0  0  0  0  0  0  0
  7 33  1  0  0  0  0
  7 20  2  0  0  0  0
  8 20  1  0  0  0  0
  3  7  1  0  0  0  0
  8 34  1  0  0  0  0
  8 11  2  0  0  0  0
  3 29  1  0  0  0  0
  3  9  2  0  0  0  0
  9 11  1  0  0  0  0
 11 21  1  0  0  0  0
  9 17  1  0  0  0  0
 16 22  2  0  0  0  0
 16 21  1  0  0  0  0
 21 42  1  0  0  0  0
 13 25  1  0  0  0  0
 16 18  1  0  0  0  0
  5 31  1  0  0  0  0
 17 37  1  0  0  0  0
 17 35  1  0  0  0  0
 17 36  1  0  0  0  0
  5 13  2  0  0  0  0
  5 10  1  0  0  0  0
  6 13  1  0  0  0  0
 18 38  1  0  0  0  0
 10 18  1  0  0  0  0
 18 39  1  0  0  0  0
  6 32  1  0  0  0  0
  6 12  2  0  0  0  0
  4 10  2  0  0  0  0
 19 41  1  0  0  0  0
 19 40  1  0  0  0  0
  4 12  1  0  0  0  0
 12 24  1  0  0  0  0
  4 30  1  0  0  0  0
 19 24  1  0  0  0  0
 14 19  1  0  0  0  0
  1 27  1  0  0  0  0
  1 14  2  0  0  0  0
 14 23  1  0  0  0  0
  1  2  1  0  0  0  0
 15 23  1  0  0  0  0
  2 15  2  0  0  0  0
  2 28  1  0  0  0  0
 15 26  1  0  0  0  0
M  END
> <CID>
EN300-139605

> <SMILES>
Cc1ccncc1NC(=O)Cc2cc(cc(c2)Cl)OCc3ccc(o3)Br

> <RUN>
RUN316

> <DDG (kcal/mol)>
-0.23

> <dDDG (kcal/mol)>
0.11

$$$$
EN300-121881
  -OEChem-08252008263D

 40 41  0     1  0  0  0  0  0999 V2000
    4.6580    0.8810   19.3720 C   0  0  0  0  0  0  0  0  0  0  0  0
   11.1200    2.1330   23.8760 C   0  0  0  0  0  0  0  0  0  0  0  0
   11.6160   -0.0550   22.8380 C   0  0  0  0  0  0  0  0  0  0  0  0
   13.4150    1.4900   23.3480 C   0  0  0  0  0  0  0  0  0  0  0  0
    5.2280    0.5910   18.1370 C   0  0  0  0  0  0  0  0  0  0  0  0
    7.0970   -0.1070   19.2360 C   0  0  0  0  0  0  0  0  0  0  0  0
    5.3690    0.6830   20.5620 C   0  0  0  0  0  0  0  0  0  0  0  0
   10.7190    0.8620   23.4130 C   0  0  0  0  0  0  0  0  0  0  0  0
    6.6650    0.1980   20.5020 C   0  0  0  0  0  0  0  0  0  0  0  0
   12.5210    2.4640   23.8500 C   0  0  0  0  0  0  0  0  0  0  0  0
   13.0010    0.2600   22.8070 C   0  0  0  0  0  0  0  0  0  0  0  0
    8.6460    0.5970   21.9790 C   0  0  0  0  0  0  0  0  0  0  0  0
   12.9780    5.9220   24.9020 C   0  0  0  0  0  0  0  0  0  0  0  0
    4.7560    1.1190   21.9180 C   0  0  0  0  0  0  0  0  0  0  0  0
    9.2360    0.4740   23.3420 C   0  0  0  0  0  0  0  0  0  0  0  0
   11.5540    5.2240   22.9400 C   0  0  0  0  0  0  0  0  0  0  0  0
   12.1790    4.8160   24.2950 C   0  0  1  0  0  0  0  0  0  0  0  0
    6.4580    0.1070   18.0780 N   0  0  0  0  0  0  0  0  0  0  0  0
    7.4580   -0.0070   21.6870 N   0  0  0  0  0  0  0  0  0  0  0  0
    9.1570    1.3740   21.1440 O   0  0  0  0  0  0  0  0  0  0  0  0
   13.8960    6.4360   24.2570 O   0  0  0  0  0  0  0  0  0  0  0  0
   13.0780    3.6930   24.0580 O   0  0  0  0  0  0  0  0  0  0  0  0
   14.1620   -0.9660   22.2230 Cl  0  0  0  0  0  0  0  0  0  0  0  0
   12.5700    6.6180   26.4120 Cl  0  0  0  0  0  0  0  0  0  0  0  0
   10.3340    6.7530   23.3770 Br  0  0  0  0  0  0  0  0  0  0  0  0
    3.6260    1.2160   19.4200 H   0  0  0  0  0  0  0  0  0  0  0  0
   10.3940    2.8860   24.1800 H   0  0  0  0  0  0  0  0  0  0  0  0
   11.2460   -1.0420   22.5690 H   0  0  0  0  0  0  0  0  0  0  0  0
   14.4550    1.7840   23.2440 H   0  0  0  0  0  0  0  0  0  0  0  0
    4.5560    0.6600   17.2940 H   0  0  0  0  0  0  0  0  0  0  0  0
    8.0790   -0.5310   19.0900 H   0  0  0  0  0  0  0  0  0  0  0  0
    5.5930    1.5570   22.4710 H   0  0  0  0  0  0  0  0  0  0  0  0
    3.8800    1.7450   21.7700 H   0  0  0  0  0  0  0  0  0  0  0  0
    4.4980    0.2250   22.4870 H   0  0  0  0  0  0  0  0  0  0  0  0
    9.1560   -0.5690   23.6730 H   0  0  0  0  0  0  0  0  0  0  0  0
    8.6590    1.1030   24.0270 H   0  0  0  0  0  0  0  0  0  0  0  0
   12.3660    5.5680   22.2950 H   0  0  0  0  0  0  0  0  0  0  0  0
   10.9040    4.4390   22.5310 H   0  0  0  0  0  0  0  0  0  0  0  0
   11.4690    4.6380   25.1050 H   0  0  0  0  0  0  0  0  0  0  0  0
    6.9590   -0.3060   22.5210 H   0  0  0  0  0  0  0  0  0  0  0  0
  5 30  1  0  0  0  0
  5 18  2  0  0  0  0
  6 18  1  0  0  0  0
  1  5  1  0  0  0  0
  6 31  1  0  0  0  0
  6  9  2  0  0  0  0
  1 26  1  0  0  0  0
  1  7  2  0  0  0  0
  7  9  1  0  0  0  0
  9 19  1  0  0  0  0
  7 14  1  0  0  0  0
 12 20  2  0  0  0  0
 12 19  1  0  0  0  0
 19 40  1  0  0  0  0
 14 33  1  0  0  0  0
 14 32  1  0  0  0  0
 14 34  1  0  0  0  0
 12 15  1  0  0  0  0
 11 23  1  0  0  0  0
 16 37  1  0  0  0  0
 16 38  1  0  0  0  0
  3 28  1  0  0  0  0
  3 11  2  0  0  0  0
  4 11  1  0  0  0  0
  3  8  1  0  0  0  0
 16 25  1  0  0  0  0
 16 17  1  0  0  0  0
  4 29  1  0  0  0  0
  8 15  1  0  0  0  0
 15 35  1  0  0  0  0
 15 36  1  0  0  0  0
  4 10  2  0  0  0  0
  2  8  2  0  0  0  0
  2 10  1  0  0  0  0
 10 22  1  0  0  0  0
  2 27  1  0  0  0  0
 17 22  1  0  0  0  0
 13 21  2  0  0  0  0
 13 17  1  0  0  0  0
 17 39  1  0  0  0  0
 13 24  1  0  0  0  0
M  END
> <CID>
EN300-121881

> <SMILES>
Cc1ccncc1NC(=O)Cc2cc(cc(c2)Cl)O[C@H](CBr)C(=O)Cl

> <RUN>
RUN3472

> <DDG (kcal/mol)>
-0.23

> <dDDG (kcal/mol)>
0.14

$$$$
EN300-1893407
  -OEChem-08252008263D

 49 51  0     0  0  0  0  0  0999 V2000
    4.9810   -6.2260   26.8730 C   0  0  0  0  0  0  0  0  0  0  0  0
    9.9590   -2.4620   24.3340 C   0  0  0  0  0  0  0  0  0  0  0  0
   11.6630   -3.0890   22.7990 C   0  0  0  0  0  0  0  0  0  0  0  0
    6.3500   -2.7140   26.9490 C   0  0  0  0  0  0  0  0  0  0  0  0
   11.7660   -0.8960   23.7780 C   0  0  0  0  0  0  0  0  0  0  0  0
    7.8310   -2.0430   28.7220 C   0  0  0  0  0  0  0  0  0  0  0  0
    3.9970   -6.2030   25.8790 C   0  0  0  0  0  0  0  0  0  0  0  0
    5.5670   -6.0020   24.2200 C   0  0  0  0  0  0  0  0  0  0  0  0
    6.3160   -6.1200   26.5740 C   0  0  0  0  0  0  0  0  0  0  0  0
   10.5020   -3.4100   23.5420 C   0  0  0  0  0  0  0  0  0  0  0  0
    8.0300   -0.9810   26.5260 C   0  0  0  0  0  0  0  0  0  0  0  0
    6.6160   -5.9060   25.1910 C   0  0  0  0  0  0  0  0  0  0  0  0
   10.5330   -1.1710   24.5170 C   0  0  0  0  0  0  0  0  0  0  0  0
    6.9160   -1.8140   26.0470 C   0  0  0  0  0  0  0  0  0  0  0  0
    6.7350   -2.8180   28.2380 C   0  0  0  0  0  0  0  0  0  0  0  0
    8.3990   -1.0860   27.9040 C   0  0  0  0  0  0  0  0  0  0  0  0
   12.2830   -1.8170   22.8560 C   0  0  0  0  0  0  0  0  0  0  0  0
    8.5290   -5.0740   23.7030 C   0  0  0  0  0  0  0  0  0  0  0  0
    7.3560   -6.2830   27.6800 C   0  0  0  0  0  0  0  0  0  0  0  0
    5.2980   -2.2560   24.3470 C   0  0  0  0  0  0  0  0  0  0  0  0
   10.0630   -4.8970   23.5780 C   0  0  0  0  0  0  0  0  0  0  0  0
    8.6910    0.0180   25.5630 C   0  0  0  0  0  0  0  0  0  0  0  0
    4.2800   -6.0740   24.5450 N   0  0  0  0  0  0  0  0  0  0  0  0
    7.9600   -5.7810   24.7730 N   0  0  0  0  0  0  0  0  0  0  0  0
    7.8680   -4.6980   22.7840 O   0  0  0  0  0  0  0  0  0  0  0  0
    6.5060   -1.6040   24.7350 O   0  0  0  0  0  0  0  0  0  0  0  0
   10.0980   -0.2400   25.3850 O   0  0  0  0  0  0  0  0  0  0  0  0
    6.0920   -3.7530   28.9970 F   0  0  0  0  0  0  0  0  0  0  0  0
    9.4780   -0.3660   28.3480 F   0  0  0  0  0  0  0  0  0  0  0  0
   13.7230   -1.5090   21.8270 Cl  0  0  0  0  0  0  0  0  0  0  0  0
    4.5560   -6.5090   27.8240 H   0  0  0  0  0  0  0  0  0  0  0  0
    9.0440   -2.6800   24.8730 H   0  0  0  0  0  0  0  0  0  0  0  0
   12.1060   -3.8170   22.1150 H   0  0  0  0  0  0  0  0  0  0  0  0
    5.5840   -3.3980   26.5780 H   0  0  0  0  0  0  0  0  0  0  0  0
   12.3150    0.0230   23.9180 H   0  0  0  0  0  0  0  0  0  0  0  0
    8.1810   -2.1800   29.7430 H   0  0  0  0  0  0  0  0  0  0  0  0
    2.9620   -6.3580   26.1910 H   0  0  0  0  0  0  0  0  0  0  0  0
    5.7790   -5.9790   23.1570 H   0  0  0  0  0  0  0  0  0  0  0  0
    8.0350   -5.4300   27.7100 H   0  0  0  0  0  0  0  0  0  0  0  0
    6.9230   -6.3920   28.6760 H   0  0  0  0  0  0  0  0  0  0  0  0
    7.8180   -7.2390   27.4230 H   0  0  0  0  0  0  0  0  0  0  0  0
    4.9500   -2.0240   23.3390 H   0  0  0  0  0  0  0  0  0  0  0  0
    4.4280   -2.1040   24.9940 H   0  0  0  0  0  0  0  0  0  0  0  0
    5.4990   -3.3340   24.3130 H   0  0  0  0  0  0  0  0  0  0  0  0
   10.4160   -5.5030   22.7370 H   0  0  0  0  0  0  0  0  0  0  0  0
   10.6120   -5.2710   24.4380 H   0  0  0  0  0  0  0  0  0  0  0  0
    8.2460    0.0260   24.5610 H   0  0  0  0  0  0  0  0  0  0  0  0
    8.4250    0.9920   25.9740 H   0  0  0  0  0  0  0  0  0  0  0  0
    8.6520   -5.8730   25.5220 H   0  0  0  0  0  0  0  0  0  0  0  0
 17 30  1  0  0  0  0
  3 33  1  0  0  0  0
 21 45  1  0  0  0  0
 18 25  2  0  0  0  0
  3 17  2  0  0  0  0
  3 10  1  0  0  0  0
  5 17  1  0  0  0  0
  8 38  1  0  0  0  0
 20 42  1  0  0  0  0
 10 21  1  0  0  0  0
  2 10  2  0  0  0  0
 18 21  1  0  0  0  0
 21 46  1  0  0  0  0
 18 24  1  0  0  0  0
  5 35  1  0  0  0  0
  5 13  2  0  0  0  0
  8 23  2  0  0  0  0
  8 12  1  0  0  0  0
 20 44  1  0  0  0  0
  2 13  1  0  0  0  0
  2 32  1  0  0  0  0
 20 26  1  0  0  0  0
 20 43  1  0  0  0  0
 13 27  1  0  0  0  0
  7 23  1  0  0  0  0
 22 47  1  0  0  0  0
 14 26  1  0  0  0  0
 12 24  1  0  0  0  0
 24 49  1  0  0  0  0
  9 12  2  0  0  0  0
 22 27  1  0  0  0  0
 22 48  1  0  0  0  0
 11 22  1  0  0  0  0
  7 37  1  0  0  0  0
  1  7  2  0  0  0  0
 11 14  2  0  0  0  0
  4 14  1  0  0  0  0
 11 16  1  0  0  0  0
  1  9  1  0  0  0  0
  9 19  1  0  0  0  0
  4 34  1  0  0  0  0
  1 31  1  0  0  0  0
  4 15  2  0  0  0  0
 19 41  1  0  0  0  0
 19 39  1  0  0  0  0
 19 40  1  0  0  0  0
 16 29  1  0  0  0  0
  6 16  2  0  0  0  0
  6 15  1  0  0  0  0
 15 28  1  0  0  0  0
  6 36  1  0  0  0  0
M  END
> <CID>
EN300-1893407

> <SMILES>
Cc1ccncc1NC(=O)Cc2cc(cc(c2)Cl)OCc3c(cc(cc3F)F)OC

> <RUN>
RUN1620

> <DDG (kcal/mol)>
-0.23

> <dDDG (kcal/mol)>
0.12

$$$$
EN300-1934449
  -OEChem-08252008263D

 52 55  0     0  0  0  0  0  0999 V2000
    9.5200    8.6580   23.5020 C   0  0  0  0  0  0  0  0  0  0  0  0
    9.2450    9.7680   24.2460 C   0  0  0  0  0  0  0  0  0  0  0  0
    5.3770    1.0640   19.3160 C   0  0  0  0  0  0  0  0  0  0  0  0
   11.5720    9.8590   24.8930 C   0  0  0  0  0  0  0  0  0  0  0  0
   13.1040    8.0010   23.8960 C   0  0  0  0  0  0  0  0  0  0  0  0
   11.8920    1.8590   23.4270 C   0  0  0  0  0  0  0  0  0  0  0  0
   12.2820   -0.5570   23.0710 C   0  0  0  0  0  0  0  0  0  0  0  0
   14.0530    1.0420   22.7900 C   0  0  0  0  0  0  0  0  0  0  0  0
    6.1750    1.0580   18.1770 C   0  0  0  0  0  0  0  0  0  0  0  0
    8.0650    0.5850   19.3740 C   0  0  0  0  0  0  0  0  0  0  0  0
   11.8430    8.7510   24.0700 C   0  0  0  0  0  0  0  0  0  0  0  0
    5.9390    0.8940   20.5890 C   0  0  0  0  0  0  0  0  0  0  0  0
   11.4170    0.5150   23.3590 C   0  0  0  0  0  0  0  0  0  0  0  0
   10.7810    8.1150   23.4690 C   0  0  0  0  0  0  0  0  0  0  0  0
    7.3220    0.5950   20.6410 C   0  0  0  0  0  0  0  0  0  0  0  0
   13.2150    2.0960   23.0400 C   0  0  0  0  0  0  0  0  0  0  0  0
   10.3140   10.4430   24.9430 C   0  0  0  0  0  0  0  0  0  0  0  0
   13.5910   -0.2370   22.6790 C   0  0  0  0  0  0  0  0  0  0  0  0
   12.7580    6.8910   23.2300 C   0  0  0  0  0  0  0  0  0  0  0  0
    9.2840    0.7520   22.1390 C   0  0  0  0  0  0  0  0  0  0  0  0
    5.1840    1.1110   21.8640 C   0  0  0  0  0  0  0  0  0  0  0  0
    9.9430    0.2080   23.4020 C   0  0  0  0  0  0  0  0  0  0  0  0
   13.6900    5.7600   22.9780 C   0  0  0  0  0  0  0  0  0  0  0  0
   12.9370    4.4700   23.2740 C   0  0  0  0  0  0  0  0  0  0  0  0
    7.5120    0.8450   18.2010 N   0  0  0  0  0  0  0  0  0  0  0  0
   11.4110    7.0140   22.8040 N   0  0  0  0  0  0  0  0  0  0  0  0
    7.9690    0.4470   21.8700 N   0  0  0  0  0  0  0  0  0  0  0  0
    9.8510    1.5440   21.3430 O   0  0  0  0  0  0  0  0  0  0  0  0
   13.7870    3.3810   23.0030 O   0  0  0  0  0  0  0  0  0  0  0  0
    9.9310   11.7200   26.0370 Cl  0  0  0  0  0  0  0  0  0  0  0  0
   14.6660   -1.6470   22.3180 Cl  0  0  0  0  0  0  0  0  0  0  0  0
    8.6510    8.2250   23.0190 H   0  0  0  0  0  0  0  0  0  0  0  0
    8.2050   10.0720   24.3030 H   0  0  0  0  0  0  0  0  0  0  0  0
    4.3010    1.1930   19.1990 H   0  0  0  0  0  0  0  0  0  0  0  0
   12.3440   10.1870   25.5920 H   0  0  0  0  0  0  0  0  0  0  0  0
   13.9950    8.2540   24.4590 H   0  0  0  0  0  0  0  0  0  0  0  0
   11.1930    2.6670   23.5940 H   0  0  0  0  0  0  0  0  0  0  0  0
   12.0320   -1.6140   23.0890 H   0  0  0  0  0  0  0  0  0  0  0  0
   15.0790    1.3460   22.5740 H   0  0  0  0  0  0  0  0  0  0  0  0
    5.7820    1.2890   17.1880 H   0  0  0  0  0  0  0  0  0  0  0  0
    9.1050    0.2590   19.3970 H   0  0  0  0  0  0  0  0  0  0  0  0
    5.2870    0.4130   22.6970 H   0  0  0  0  0  0  0  0  0  0  0  0
    5.3820    2.1060   22.2610 H   0  0  0  0  0  0  0  0  0  0  0  0
    4.1180    1.0820   21.6130 H   0  0  0  0  0  0  0  0  0  0  0  0
    9.8010   -0.8750   23.4410 H   0  0  0  0  0  0  0  0  0  0  0  0
    9.4720    0.6620   24.2770 H   0  0  0  0  0  0  0  0  0  0  0  0
   14.1240    5.7890   21.9800 H   0  0  0  0  0  0  0  0  0  0  0  0
   14.5900    5.8040   23.6060 H   0  0  0  0  0  0  0  0  0  0  0  0
   12.6630    4.4200   24.3410 H   0  0  0  0  0  0  0  0  0  0  0  0
   12.0090    4.4650   22.6900 H   0  0  0  0  0  0  0  0  0  0  0  0
   10.8860    6.3600   22.2190 H   0  0  0  0  0  0  0  0  0  0  0  0
    7.4870   -0.0470   22.6230 H   0  0  0  0  0  0  0  0  0  0  0  0
  9 40  1  0  0  0  0
  9 25  2  0  0  0  0
  3  9  1  0  0  0  0
 10 25  1  0  0  0  0
  3 34  1  0  0  0  0
  3 12  2  0  0  0  0
 10 41  1  0  0  0  0
 10 15  2  0  0  0  0
 12 15  1  0  0  0  0
 12 21  1  0  0  0  0
 15 27  1  0  0  0  0
 20 28  2  0  0  0  0
 21 44  1  0  0  0  0
 21 43  1  0  0  0  0
 21 42  1  0  0  0  0
 20 27  1  0  0  0  0
 27 52  1  0  0  0  0
 23 47  1  0  0  0  0
 20 22  1  0  0  0  0
 26 51  1  0  0  0  0
 18 31  1  0  0  0  0
  8 39  1  0  0  0  0
  8 18  2  0  0  0  0
  7 18  1  0  0  0  0
 24 50  1  0  0  0  0
  8 16  1  0  0  0  0
 19 26  1  0  0  0  0
 14 26  1  0  0  0  0
 19 23  1  0  0  0  0
 23 24  1  0  0  0  0
 23 48  1  0  0  0  0
 16 29  1  0  0  0  0
 24 29  1  0  0  0  0
  1 32  1  0  0  0  0
  6 16  2  0  0  0  0
  7 38  1  0  0  0  0
  7 13  2  0  0  0  0
  5 19  2  0  0  0  0
 24 49  1  0  0  0  0
 13 22  1  0  0  0  0
  6 13  1  0  0  0  0
 22 45  1  0  0  0  0
 22 46  1  0  0  0  0
  6 37  1  0  0  0  0
  1 14  2  0  0  0  0
 11 14  1  0  0  0  0
  1  2  1  0  0  0  0
  5 11  1  0  0  0  0
  5 36  1  0  0  0  0
  4 11  2  0  0  0  0
  2 33  1  0  0  0  0
  2 17  2  0  0  0  0
  4 17  1  0  0  0  0
  4 35  1  0  0  0  0
 17 30  1  0  0  0  0
M  END
> <CID>
EN300-1934449

> <SMILES>
Cc1ccncc1NC(=O)Cc2cc(cc(c2)Cl)OCCc3cc4cc(ccc4[nH]3)Cl

> <RUN>
RUN3668

> <DDG (kcal/mol)>
-0.23

> <dDDG (kcal/mol)>
0.15

$$$$
EN300-1117588
  -OEChem-08252008263D

 57 59  0     0  0  0  0  0  0999 V2000
    8.7720    2.0510   29.7320 C   0  0  0  0  0  0  0  0  0  0  0  0
    9.2980    0.7910   29.6010 C   0  0  0  0  0  0  0  0  0  0  0  0
    8.3910    2.7790   28.6130 C   0  0  0  0  0  0  0  0  0  0  0  0
    6.3610    2.5750   18.6150 C   0  0  0  0  0  0  0  0  0  0  0  0
    9.4980   -0.9180   23.2800 C   0  0  0  0  0  0  0  0  0  0  0  0
   10.9370   -1.5820   21.4890 C   0  0  0  0  0  0  0  0  0  0  0  0
   11.7020   -0.0310   23.1410 C   0  0  0  0  0  0  0  0  0  0  0  0
    6.2190    2.1290   17.3140 C   0  0  0  0  0  0  0  0  0  0  0  0
    7.2620    0.1870   17.9210 C   0  0  0  0  0  0  0  0  0  0  0  0
    9.5430    0.2430   28.3390 C   0  0  0  0  0  0  0  0  0  0  0  0
    8.5190    2.2520   27.3100 C   0  0  0  0  0  0  0  0  0  0  0  0
    6.9360    1.8450   19.5970 C   0  0  0  0  0  0  0  0  0  0  0  0
    9.6570   -1.6230   22.1140 C   0  0  0  0  0  0  0  0  0  0  0  0
    9.1250    0.9820   27.1660 C   0  0  0  0  0  0  0  0  0  0  0  0
    7.3230    0.5530   19.2640 C   0  0  0  0  0  0  0  0  0  0  0  0
   10.4700   -0.1110   23.8430 C   0  0  0  0  0  0  0  0  0  0  0  0
   11.9400   -0.8420   22.0550 C   0  0  0  0  0  0  0  0  0  0  0  0
    7.9710   -1.6500   20.2680 C   0  0  0  0  0  0  0  0  0  0  0  0
   10.0180   -1.1910   28.3190 C   0  0  0  0  0  0  0  0  0  0  0  0
    7.0290    2.4730   20.9350 C   0  0  0  0  0  0  0  0  0  0  0  0
    5.9770    3.8940   24.8010 C   0  0  0  0  0  0  0  0  0  0  0  0
    8.5290   -2.3670   21.4960 C   0  0  0  0  0  0  0  0  0  0  0  0
    7.9550    3.1000   26.1910 C   0  0  0  0  0  0  0  0  0  0  0  0
    9.2160    0.2420   25.8460 C   0  0  0  0  0  0  0  0  0  0  0  0
    6.6020    2.7500   25.6900 C   0  0  0  0  0  0  0  0  0  0  0  0
    6.7070    0.9120   16.9180 N   0  0  0  0  0  0  0  0  0  0  0  0
    7.9290   -0.2770   20.2520 N   0  0  0  0  0  0  0  0  0  0  0  0
    7.4370   -2.2800   19.3840 O   0  0  0  0  0  0  0  0  0  0  0  0
   10.4220    0.4950   25.1270 O   0  0  0  0  0  0  0  0  0  0  0  0
   13.5290   -1.1160   21.4240 Cl  0  0  0  0  0  0  0  0  0  0  0  0
    8.5310    2.5040   30.6850 H   0  0  0  0  0  0  0  0  0  0  0  0
    9.3790    0.1810   30.5020 H   0  0  0  0  0  0  0  0  0  0  0  0
    7.8650    3.7100   28.7510 H   0  0  0  0  0  0  0  0  0  0  0  0
    5.8840    3.5380   18.8110 H   0  0  0  0  0  0  0  0  0  0  0  0
    8.4530   -0.7990   23.5450 H   0  0  0  0  0  0  0  0  0  0  0  0
   11.1840   -2.1400   20.5900 H   0  0  0  0  0  0  0  0  0  0  0  0
   12.4720    0.5330   23.6490 H   0  0  0  0  0  0  0  0  0  0  0  0
    5.7650    2.7050   16.5160 H   0  0  0  0  0  0  0  0  0  0  0  0
    7.5540   -0.8350   17.6590 H   0  0  0  0  0  0  0  0  0  0  0  0
   10.5400   -1.5100   29.2310 H   0  0  0  0  0  0  0  0  0  0  0  0
   10.7330   -1.3960   27.5120 H   0  0  0  0  0  0  0  0  0  0  0  0
    9.0670   -1.7130   28.2010 H   0  0  0  0  0  0  0  0  0  0  0  0
    7.8920    2.1640   21.5400 H   0  0  0  0  0  0  0  0  0  0  0  0
    7.0660    3.5700   20.9510 H   0  0  0  0  0  0  0  0  0  0  0  0
    6.1340    2.3200   21.5500 H   0  0  0  0  0  0  0  0  0  0  0  0
    6.7200    4.1070   24.0230 H   0  0  0  0  0  0  0  0  0  0  0  0
    5.1250    3.5540   24.2170 H   0  0  0  0  0  0  0  0  0  0  0  0
    5.7020    4.7820   25.3910 H   0  0  0  0  0  0  0  0  0  0  0  0
    8.9340   -3.3380   21.2010 H   0  0  0  0  0  0  0  0  0  0  0  0
    7.6710   -2.3630   22.1830 H   0  0  0  0  0  0  0  0  0  0  0  0
    8.0090    4.1720   26.3680 H   0  0  0  0  0  0  0  0  0  0  0  0
    8.6950    2.9750   25.4020 H   0  0  0  0  0  0  0  0  0  0  0  0
    8.3790    0.5990   25.2410 H   0  0  0  0  0  0  0  0  0  0  0  0
    9.1060   -0.8240   26.0740 H   0  0  0  0  0  0  0  0  0  0  0  0
    6.5830    1.8020   25.1530 H   0  0  0  0  0  0  0  0  0  0  0  0
    6.0380    2.6540   26.6310 H   0  0  0  0  0  0  0  0  0  0  0  0
    8.3050    0.1220   21.1160 H   0  0  0  0  0  0  0  0  0  0  0  0
  8 38  1  0  0  0  0
  8 26  2  0  0  0  0
  9 26  1  0  0  0  0
  4  8  1  0  0  0  0
  9 39  1  0  0  0  0
  9 15  2  0  0  0  0
  4 34  1  0  0  0  0
  4 12  2  0  0  0  0
 12 15  1  0  0  0  0
 15 27  1  0  0  0  0
 18 28  2  0  0  0  0
 12 20  1  0  0  0  0
 18 27  1  0  0  0  0
 27 57  1  0  0  0  0
 18 22  1  0  0  0  0
  6 36  1  0  0  0  0
 20 44  1  0  0  0  0
 20 43  1  0  0  0  0
 20 45  1  0  0  0  0
 22 49  1  0  0  0  0
 17 30  1  0  0  0  0
  6 17  2  0  0  0  0
  6 13  1  0  0  0  0
 13 22  1  0  0  0  0
 22 50  1  0  0  0  0
  7 17  1  0  0  0  0
  5 13  2  0  0  0  0
  7 37  1  0  0  0  0
  7 16  2  0  0  0  0
  5 35  1  0  0  0  0
  5 16  1  0  0  0  0
 16 29  1  0  0  0  0
 21 46  1  0  0  0  0
 21 47  1  0  0  0  0
 21 48  1  0  0  0  0
 21 25  1  0  0  0  0
 24 29  1  0  0  0  0
 25 55  1  0  0  0  0
 24 53  1  0  0  0  0
 23 52  1  0  0  0  0
 23 25  1  0  0  0  0
 25 56  1  0  0  0  0
 24 54  1  0  0  0  0
 14 24  1  0  0  0  0
 23 51  1  0  0  0  0
 11 23  1  0  0  0  0
 11 14  2  0  0  0  0
 10 14  1  0  0  0  0
  3 11  1  0  0  0  0
 19 41  1  0  0  0  0
 19 42  1  0  0  0  0
 10 19  1  0  0  0  0
 19 40  1  0  0  0  0
  2 10  2  0  0  0  0
  3 33  1  0  0  0  0
  1  3  2  0  0  0  0
  1  2  1  0  0  0  0
  2 32  1  0  0  0  0
  1 31  1  0  0  0  0
M  END
> <CID>
EN300-1117588

> <SMILES>
CCCc1cccc(c1COc2cc(cc(c2)Cl)CC(=O)Nc3cnccc3C)C

> <RUN>
RUN4303

> <DDG (kcal/mol)>
-0.23

> <dDDG (kcal/mol)>
0.13

$$$$
EN300-99101
  -OEChem-08252008263D

 47 50  0     0  0  0  0  0  0999 V2000
    8.0010    6.8250   25.3240 C   0  0  0  0  0  0  0  0  0  0  0  0
    7.9380    6.5210   23.9520 C   0  0  0  0  0  0  0  0  0  0  0  0
    9.0980    6.3600   26.0500 C   0  0  0  0  0  0  0  0  0  0  0  0
    8.9830    5.8390   23.2640 C   0  0  0  0  0  0  0  0  0  0  0  0
    6.4120    4.0210   26.0160 C   0  0  0  0  0  0  0  0  0  0  0  0
   12.4910    1.3730   24.9190 C   0  0  0  0  0  0  0  0  0  0  0  0
   12.8280   -0.6590   23.5870 C   0  0  0  0  0  0  0  0  0  0  0  0
   14.2510    1.1710   23.3210 C   0  0  0  0  0  0  0  0  0  0  0  0
    5.7100    3.8850   24.7550 C   0  0  0  0  0  0  0  0  0  0  0  0
    6.8720    1.9440   24.2700 C   0  0  0  0  0  0  0  0  0  0  0  0
    7.3190    3.0230   26.4120 C   0  0  0  0  0  0  0  0  0  0  0  0
   12.0730    0.0740   24.5650 C   0  0  0  0  0  0  0  0  0  0  0  0
   10.1020    5.6700   25.3610 C   0  0  0  0  0  0  0  0  0  0  0  0
    7.6030    2.0010   25.4760 C   0  0  0  0  0  0  0  0  0  0  0  0
   13.5830    1.9170   24.2590 C   0  0  0  0  0  0  0  0  0  0  0  0
   10.0350    5.3990   24.0590 C   0  0  0  0  0  0  0  0  0  0  0  0
   13.9880   -0.1530   23.1140 C   0  0  0  0  0  0  0  0  0  0  0  0
   11.9270    4.5140   25.1010 C   0  0  0  0  0  0  0  0  0  0  0  0
    9.5170    0.5210   24.7070 C   0  0  0  0  0  0  0  0  0  0  0  0
    7.8950    3.0410   27.7940 C   0  0  0  0  0  0  0  0  0  0  0  0
   10.7070   -0.4010   25.0090 C   0  0  0  0  0  0  0  0  0  0  0  0
   13.3620    4.0750   25.4590 C   0  0  0  0  0  0  0  0  0  0  0  0
    5.9640    2.9070   23.8860 N   0  0  0  0  0  0  0  0  0  0  0  0
   11.2290    5.2090   25.9890 N   0  0  0  0  0  0  0  0  0  0  0  0
    8.7440    1.1430   25.7080 N   0  0  0  0  0  0  0  0  0  0  0  0
    9.2310    0.6470   23.5010 O   0  0  0  0  0  0  0  0  0  0  0  0
   14.0080    3.2520   24.4440 O   0  0  0  0  0  0  0  0  0  0  0  0
   11.2940    4.4120   23.4850 S   0  0  0  0  0  0  0  0  0  0  0  0
   14.8710   -1.0500   21.8840 Cl  0  0  0  0  0  0  0  0  0  0  0  0
    7.1690    7.3090   25.8250 H   0  0  0  0  0  0  0  0  0  0  0  0
    7.1440    6.9560   23.3420 H   0  0  0  0  0  0  0  0  0  0  0  0
    9.2030    6.4450   27.1270 H   0  0  0  0  0  0  0  0  0  0  0  0
    9.0720    5.6520   22.2070 H   0  0  0  0  0  0  0  0  0  0  0  0
    6.1730    4.8160   26.7290 H   0  0  0  0  0  0  0  0  0  0  0  0
   12.0450    1.9860   25.6980 H   0  0  0  0  0  0  0  0  0  0  0  0
   12.4210   -1.6220   23.3270 H   0  0  0  0  0  0  0  0  0  0  0  0
   15.0080    1.6950   22.7370 H   0  0  0  0  0  0  0  0  0  0  0  0
    4.8840    4.5310   24.4520 H   0  0  0  0  0  0  0  0  0  0  0  0
    6.9900    1.1900   23.4960 H   0  0  0  0  0  0  0  0  0  0  0  0
    8.0650    2.0890   28.3040 H   0  0  0  0  0  0  0  0  0  0  0  0
    8.7790    3.6810   27.8790 H   0  0  0  0  0  0  0  0  0  0  0  0
    7.1650    3.6160   28.3830 H   0  0  0  0  0  0  0  0  0  0  0  0
   10.6050   -1.3710   24.5220 H   0  0  0  0  0  0  0  0  0  0  0  0
   10.6380   -0.6700   26.0670 H   0  0  0  0  0  0  0  0  0  0  0  0
   14.0530    4.9170   25.5980 H   0  0  0  0  0  0  0  0  0  0  0  0
   13.2960    3.5130   26.3950 H   0  0  0  0  0  0  0  0  0  0  0  0
    9.0800    1.0400   26.6680 H   0  0  0  0  0  0  0  0  0  0  0  0
 17 29  1  0  0  0  0
  4 33  1  0  0  0  0
  8 37  1  0  0  0  0
  8 17  2  0  0  0  0
  7 17  1  0  0  0  0
  2  4  2  0  0  0  0
  4 16  1  0  0  0  0
  8 15  1  0  0  0  0
  7 36  1  0  0  0  0
  2 31  1  0  0  0  0
 16 28  1  0  0  0  0
 18 28  1  0  0  0  0
 10 39  1  0  0  0  0
 19 26  2  0  0  0  0
  7 12  2  0  0  0  0
 10 23  2  0  0  0  0
  9 23  1  0  0  0  0
  1  2  1  0  0  0  0
 13 16  2  0  0  0  0
 15 27  1  0  0  0  0
  6 15  2  0  0  0  0
 10 14  1  0  0  0  0
 22 27  1  0  0  0  0
  9 38  1  0  0  0  0
 21 43  1  0  0  0  0
  6 12  1  0  0  0  0
 12 21  1  0  0  0  0
 19 21  1  0  0  0  0
 19 25  1  0  0  0  0
  5  9  2  0  0  0  0
  6 35  1  0  0  0  0
 21 44  1  0  0  0  0
 18 22  1  0  0  0  0
 18 24  2  0  0  0  0
  1 30  1  0  0  0  0
  1  3  2  0  0  0  0
 13 24  1  0  0  0  0
  3 13  1  0  0  0  0
 22 45  1  0  0  0  0
 22 46  1  0  0  0  0
 14 25  1  0  0  0  0
 11 14  2  0  0  0  0
 25 47  1  0  0  0  0
  5 11  1  0  0  0  0
  5 34  1  0  0  0  0
  3 32  1  0  0  0  0
 11 20  1  0  0  0  0
 20 41  1  0  0  0  0
 20 40  1  0  0  0  0
 20 42  1  0  0  0  0
M  END
> <CID>
EN300-99101

> <SMILES>
Cc1ccncc1NC(=O)Cc2cc(cc(c2)Cl)OCc3nc4ccccc4s3

> <RUN>
RUN3682

> <DDG (kcal/mol)>
-0.23

> <dDDG (kcal/mol)>
0.13

$$$$
EN300-1894400
  -OEChem-08252008263D

 50 52  0     0  0  0  0  0  0999 V2000
   13.3460    5.7880   24.5040 C   0  0  0  0  0  0  0  0  0  0  0  0
   13.9650    6.8310   25.1300 C   0  0  0  0  0  0  0  0  0  0  0  0
    5.4600    0.8260   19.3290 C   0  0  0  0  0  0  0  0  0  0  0  0
   11.9800    1.2760   23.0940 C   0  0  0  0  0  0  0  0  0  0  0  0
   12.6370   -1.0840   22.7330 C   0  0  0  0  0  0  0  0  0  0  0  0
   15.6850    6.5950   23.5080 C   0  0  0  0  0  0  0  0  0  0  0  0
   14.3020    0.5560   23.1310 C   0  0  0  0  0  0  0  0  0  0  0  0
    6.0210    0.8040   18.0700 C   0  0  0  0  0  0  0  0  0  0  0  0
    7.9970   -0.1020   18.9270 C   0  0  0  0  0  0  0  0  0  0  0  0
   13.8740    5.1170   23.4270 C   0  0  0  0  0  0  0  0  0  0  0  0
    6.1260    0.3340   20.4490 C   0  0  0  0  0  0  0  0  0  0  0  0
   11.6390   -0.0690   22.8480 C   0  0  0  0  0  0  0  0  0  0  0  0
    7.4190   -0.1340   20.2500 C   0  0  0  0  0  0  0  0  0  0  0  0
   15.1970    7.3130   24.5640 C   0  0  0  0  0  0  0  0  0  0  0  0
   13.3730    1.5760   23.2210 C   0  0  0  0  0  0  0  0  0  0  0  0
   15.1210    5.4610   22.9550 C   0  0  0  0  0  0  0  0  0  0  0  0
   13.9660   -0.7350   22.9210 C   0  0  0  0  0  0  0  0  0  0  0  0
    9.4260   -0.0330   21.5960 C   0  0  0  0  0  0  0  0  0  0  0  0
    5.4520    0.3070   21.7850 C   0  0  0  0  0  0  0  0  0  0  0  0
   15.2300    9.2200   25.9630 C   0  0  0  0  0  0  0  0  0  0  0  0
   10.1810   -0.4200   22.8530 C   0  0  0  0  0  0  0  0  0  0  0  0
   13.1860    3.8950   22.9340 C   0  0  0  0  0  0  0  0  0  0  0  0
    7.2760    0.3510   17.8880 N   0  0  0  0  0  0  0  0  0  0  0  0
    8.2070   -0.5340   21.3500 N   0  0  0  0  0  0  0  0  0  0  0  0
    9.9630    0.6390   20.7720 O   0  0  0  0  0  0  0  0  0  0  0  0
   15.7950    4.7250   21.8940 O   0  0  0  0  0  0  0  0  0  0  0  0
   15.9500    8.3600   25.0480 O   0  0  0  0  0  0  0  0  0  0  0  0
   13.9780    2.8270   23.3830 O   0  0  0  0  0  0  0  0  0  0  0  0
   15.1690   -1.9660   22.9510 Cl  0  0  0  0  0  0  0  0  0  0  0  0
   12.3530    5.5250   24.8840 H   0  0  0  0  0  0  0  0  0  0  0  0
   13.5090    7.2170   26.0380 H   0  0  0  0  0  0  0  0  0  0  0  0
    4.4880    1.2700   19.5420 H   0  0  0  0  0  0  0  0  0  0  0  0
   11.2060    2.0290   23.1100 H   0  0  0  0  0  0  0  0  0  0  0  0
   12.4800   -2.1390   22.5620 H   0  0  0  0  0  0  0  0  0  0  0  0
   16.6510    6.9670   23.1560 H   0  0  0  0  0  0  0  0  0  0  0  0
   15.3510    0.7920   23.2510 H   0  0  0  0  0  0  0  0  0  0  0  0
    5.4390    1.2000   17.2470 H   0  0  0  0  0  0  0  0  0  0  0  0
    8.9740   -0.5820   18.8490 H   0  0  0  0  0  0  0  0  0  0  0  0
    5.8010    1.0700   22.4700 H   0  0  0  0  0  0  0  0  0  0  0  0
    4.3800    0.5440   21.7090 H   0  0  0  0  0  0  0  0  0  0  0  0
    5.6180   -0.7010   22.1860 H   0  0  0  0  0  0  0  0  0  0  0  0
   14.3330    9.6540   25.5170 H   0  0  0  0  0  0  0  0  0  0  0  0
   15.1550    8.6730   26.9060 H   0  0  0  0  0  0  0  0  0  0  0  0
   15.8590   10.1200   25.9790 H   0  0  0  0  0  0  0  0  0  0  0  0
   10.0940   -1.5060   22.9320 H   0  0  0  0  0  0  0  0  0  0  0  0
    9.7040   -0.0890   23.7750 H   0  0  0  0  0  0  0  0  0  0  0  0
   12.2280    3.8530   23.4560 H   0  0  0  0  0  0  0  0  0  0  0  0
   13.1350    3.9120   21.8410 H   0  0  0  0  0  0  0  0  0  0  0  0
    7.6580   -0.9380   22.1070 H   0  0  0  0  0  0  0  0  0  0  0  0
   15.3430    3.9130   21.6190 H   0  0  0  0  0  0  0  0  0  0  0  0
  8 37  1  0  0  0  0
  8 23  2  0  0  0  0
  9 23  1  0  0  0  0
  3  8  1  0  0  0  0
  9 38  1  0  0  0  0
  9 13  2  0  0  0  0
  3 32  1  0  0  0  0
  3 11  2  0  0  0  0
 11 13  1  0  0  0  0
 13 24  1  0  0  0  0
 11 19  1  0  0  0  0
 18 25  2  0  0  0  0
 18 24  1  0  0  0  0
 24 49  1  0  0  0  0
 18 21  1  0  0  0  0
 26 50  1  0  0  0  0
 19 40  1  0  0  0  0
 19 41  1  0  0  0  0
 19 39  1  0  0  0  0
 22 48  1  0  0  0  0
 16 26  1  0  0  0  0
  5 34  1  0  0  0  0
  5 12  2  0  0  0  0
  5 17  1  0  0  0  0
 12 21  1  0  0  0  0
  4 12  1  0  0  0  0
 21 45  1  0  0  0  0
 21 46  1  0  0  0  0
 17 29  1  0  0  0  0
  7 17  2  0  0  0  0
 22 28  1  0  0  0  0
 10 22  1  0  0  0  0
 22 47  1  0  0  0  0
 10 16  2  0  0  0  0
  6 16  1  0  0  0  0
  4 33  1  0  0  0  0
  4 15  2  0  0  0  0
  7 15  1  0  0  0  0
  7 36  1  0  0  0  0
  6 35  1  0  0  0  0
 15 28  1  0  0  0  0
  1 10  1  0  0  0  0
  6 14  2  0  0  0  0
  1 30  1  0  0  0  0
  1  2  2  0  0  0  0
 14 27  1  0  0  0  0
  2 14  1  0  0  0  0
 20 27  1  0  0  0  0
  2 31  1  0  0  0  0
 20 42  1  0  0  0  0
 20 44  1  0  0  0  0
 20 43  1  0  0  0  0
M  END
> <CID>
EN300-1894400

> <SMILES>
Cc1ccncc1NC(=O)Cc2cc(cc(c2)Cl)OCc3ccc(cc3O)OC

> <RUN>
RUN2847

> <DDG (kcal/mol)>
-0.23

> <dDDG (kcal/mol)>
0.13

$$$$
EN300-1918983
  -OEChem-08252008263D

 55 57  0     0  0  0  0  0  0999 V2000
    6.6190    1.2630   18.9730 C   0  0  0  0  0  0  0  0  0  0  0  0
   12.3270    0.7560   23.0020 C   0  0  0  0  0  0  0  0  0  0  0  0
   11.7570    6.2480   25.2930 C   0  0  0  0  0  0  0  0  0  0  0  0
   13.0310    5.9660   22.8990 C   0  0  0  0  0  0  0  0  0  0  0  0
   13.0880   -1.1890   21.7590 C   0  0  0  0  0  0  0  0  0  0  0  0
   14.4400    0.7350   22.0210 C   0  0  0  0  0  0  0  0  0  0  0  0
    6.5490    0.3420   17.9450 C   0  0  0  0  0  0  0  0  0  0  0  0
    8.1380   -0.9090   18.9960 C   0  0  0  0  0  0  0  0  0  0  0  0
    7.5570    1.1810   20.0390 C   0  0  0  0  0  0  0  0  0  0  0  0
   12.1190   -0.5550   22.4650 C   0  0  0  0  0  0  0  0  0  0  0  0
   11.0520    6.5960   24.1090 C   0  0  0  0  0  0  0  0  0  0  0  0
   13.6640    5.4860   24.0770 C   0  0  0  0  0  0  0  0  0  0  0  0
    8.3320    0.0150   20.1160 C   0  0  0  0  0  0  0  0  0  0  0  0
   13.4950    1.4140   22.7900 C   0  0  0  0  0  0  0  0  0  0  0  0
   13.0530    5.6510   25.2980 C   0  0  0  0  0  0  0  0  0  0  0  0
   11.7500    6.4930   22.9180 C   0  0  0  0  0  0  0  0  0  0  0  0
   14.2490   -0.5400   21.5370 C   0  0  0  0  0  0  0  0  0  0  0  0
    9.8420   -1.3040   21.6120 C   0  0  0  0  0  0  0  0  0  0  0  0
    7.4380    2.1750   21.1150 C   0  0  0  0  0  0  0  0  0  0  0  0
    9.6600    7.1440   24.2110 C   0  0  0  0  0  0  0  0  0  0  0  0
   13.3050    5.9770   27.6180 C   0  0  0  0  0  0  0  0  0  0  0  0
   10.8470   -1.3110   22.7780 C   0  0  0  0  0  0  0  0  0  0  0  0
   14.9260    4.6690   23.9800 C   0  0  0  0  0  0  0  0  0  0  0  0
   14.8470    3.4800   22.9890 C   0  0  0  0  0  0  0  0  0  0  0  0
    7.2300   -0.7700   17.9450 N   0  0  0  0  0  0  0  0  0  0  0  0
    9.3850   -0.0980   21.0610 N   0  0  0  0  0  0  0  0  0  0  0  0
    9.3320   -2.3390   21.2620 O   0  0  0  0  0  0  0  0  0  0  0  0
   13.7420    5.3050   26.4390 O   0  0  0  0  0  0  0  0  0  0  0  0
   13.7330    2.6640   23.3970 O   0  0  0  0  0  0  0  0  0  0  0  0
   11.0320    6.7610   21.8010 F   0  0  0  0  0  0  0  0  0  0  0  0
   15.3590   -1.2080   20.3770 Cl  0  0  0  0  0  0  0  0  0  0  0  0
    5.9770    2.1410   18.9530 H   0  0  0  0  0  0  0  0  0  0  0  0
   11.5440    1.2080   23.6030 H   0  0  0  0  0  0  0  0  0  0  0  0
   11.2130    6.1970   26.2400 H   0  0  0  0  0  0  0  0  0  0  0  0
   13.5090    5.8160   21.9350 H   0  0  0  0  0  0  0  0  0  0  0  0
   13.0080   -2.1800   21.3280 H   0  0  0  0  0  0  0  0  0  0  0  0
   15.4080    1.1730   21.8280 H   0  0  0  0  0  0  0  0  0  0  0  0
    5.7900    0.4250   17.1680 H   0  0  0  0  0  0  0  0  0  0  0  0
    8.7700   -1.7840   18.8920 H   0  0  0  0  0  0  0  0  0  0  0  0
    7.7570    3.1620   20.7820 H   0  0  0  0  0  0  0  0  0  0  0  0
    6.4020    2.3720   21.4170 H   0  0  0  0  0  0  0  0  0  0  0  0
    8.0270    1.8650   21.9810 H   0  0  0  0  0  0  0  0  0  0  0  0
    8.9840    6.2980   24.3570 H   0  0  0  0  0  0  0  0  0  0  0  0
    9.7710    7.8890   25.0060 H   0  0  0  0  0  0  0  0  0  0  0  0
    9.2910    7.6180   23.3020 H   0  0  0  0  0  0  0  0  0  0  0  0
   13.2760    7.0690   27.4550 H   0  0  0  0  0  0  0  0  0  0  0  0
   13.8770    5.8670   28.5470 H   0  0  0  0  0  0  0  0  0  0  0  0
   12.3270    5.5990   27.9300 H   0  0  0  0  0  0  0  0  0  0  0  0
   11.0860   -2.3370   23.0620 H   0  0  0  0  0  0  0  0  0  0  0  0
   10.2690   -0.9140   23.6070 H   0  0  0  0  0  0  0  0  0  0  0  0
   15.7860    5.2700   23.6950 H   0  0  0  0  0  0  0  0  0  0  0  0
   15.1130    4.2120   24.9570 H   0  0  0  0  0  0  0  0  0  0  0  0
   14.6590    3.9470   22.0140 H   0  0  0  0  0  0  0  0  0  0  0  0
   15.7770    2.9200   23.0730 H   0  0  0  0  0  0  0  0  0  0  0  0
    9.9180    0.7470   21.2700 H   0  0  0  0  0  0  0  0  0  0  0  0
  7 38  1  0  0  0  0
  7 25  2  0  0  0  0
  1  7  1  0  0  0  0
  8 25  1  0  0  0  0
  8 39  1  0  0  0  0
  1 32  1  0  0  0  0
  1  9  2  0  0  0  0
  8 13  2  0  0  0  0
  9 13  1  0  0  0  0
  9 19  1  0  0  0  0
 13 26  1  0  0  0  0
 17 31  1  0  0  0  0
 19 40  1  0  0  0  0
 26 55  1  0  0  0  0
 18 26  1  0  0  0  0
 19 41  1  0  0  0  0
 19 42  1  0  0  0  0
 18 27  2  0  0  0  0
  5 36  1  0  0  0  0
  5 17  2  0  0  0  0
  6 17  1  0  0  0  0
 18 22  1  0  0  0  0
  5 10  1  0  0  0  0
 16 30  1  0  0  0  0
  6 37  1  0  0  0  0
  4 35  1  0  0  0  0
 24 53  1  0  0  0  0
  6 14  2  0  0  0  0
 10 22  1  0  0  0  0
  2 10  2  0  0  0  0
 22 49  1  0  0  0  0
 22 50  1  0  0  0  0
  2 14  1  0  0  0  0
 14 29  1  0  0  0  0
  4 16  2  0  0  0  0
  4 12  1  0  0  0  0
 11 16  1  0  0  0  0
 24 54  1  0  0  0  0
 24 29  1  0  0  0  0
 23 24  1  0  0  0  0
  2 33  1  0  0  0  0
 20 45  1  0  0  0  0
 23 51  1  0  0  0  0
 12 23  1  0  0  0  0
 23 52  1  0  0  0  0
 12 15  2  0  0  0  0
 11 20  1  0  0  0  0
  3 11  2  0  0  0  0
 20 43  1  0  0  0  0
 20 44  1  0  0  0  0
  3 15  1  0  0  0  0
  3 34  1  0  0  0  0
 15 28  1  0  0  0  0
 21 28  1  0  0  0  0
 21 46  1  0  0  0  0
 21 48  1  0  0  0  0
 21 47  1  0  0  0  0
M  END
> <CID>
EN300-1918983

> <SMILES>
Cc1ccncc1NC(=O)Cc2cc(cc(c2)Cl)OCCc3cc(c(cc3OC)C)F

> <RUN>
RUN3513

> <DDG (kcal/mol)>
-0.22

> <dDDG (kcal/mol)>
0.15

$$$$
EN300-313279
  -OEChem-08252008263D

 48 50  0     0  0  0  0  0  0999 V2000
    5.4960    1.2640   20.2100 C   0  0  0  0  0  0  0  0  0  0  0  0
   14.8110    6.5130   24.7680 C   0  0  0  0  0  0  0  0  0  0  0  0
   12.3710    0.5100   23.5950 C   0  0  0  0  0  0  0  0  0  0  0  0
   12.6150   -1.3770   22.1090 C   0  0  0  0  0  0  0  0  0  0  0  0
   14.5040    0.0680   22.5590 C   0  0  0  0  0  0  0  0  0  0  0  0
    5.9110    1.3450   18.8600 C   0  0  0  0  0  0  0  0  0  0  0  0
    7.8250    0.2500   19.2580 C   0  0  0  0  0  0  0  0  0  0  0  0
   15.7840    6.1860   23.8670 C   0  0  0  0  0  0  0  0  0  0  0  0
   13.8700    5.4050   25.0950 C   0  0  0  0  0  0  0  0  0  0  0  0
    6.2800    0.6680   21.1670 C   0  0  0  0  0  0  0  0  0  0  0  0
   11.8020   -0.5670   22.9630 C   0  0  0  0  0  0  0  0  0  0  0  0
    7.4190    0.1150   20.6640 C   0  0  0  0  0  0  0  0  0  0  0  0
   13.7220    0.8870   23.4120 C   0  0  0  0  0  0  0  0  0  0  0  0
   13.9410   -1.0470   21.8940 C   0  0  0  0  0  0  0  0  0  0  0  0
   14.1980    4.2780   24.4160 C   0  0  0  0  0  0  0  0  0  0  0  0
   12.7750    5.7100   26.0110 C   0  0  0  0  0  0  0  0  0  0  0  0
    9.5880   -0.1570   21.9550 C   0  0  0  0  0  0  0  0  0  0  0  0
    5.7800    0.5760   22.6300 C   0  0  0  0  0  0  0  0  0  0  0  0
   10.9740    4.9810   27.4180 C   0  0  0  0  0  0  0  0  0  0  0  0
   10.3150   -0.8610   23.1180 C   0  0  0  0  0  0  0  0  0  0  0  0
   13.4770    3.0040   24.5710 C   0  0  0  0  0  0  0  0  0  0  0  0
    6.9870    0.7680   18.3190 N   0  0  0  0  0  0  0  0  0  0  0  0
    8.2490   -0.4250   21.6530 N   0  0  0  0  0  0  0  0  0  0  0  0
   12.5770    6.8950   26.2460 O   0  0  0  0  0  0  0  0  0  0  0  0
   10.1630    0.7160   21.2790 O   0  0  0  0  0  0  0  0  0  0  0  0
   14.3000    2.0080   23.9560 O   0  0  0  0  0  0  0  0  0  0  0  0
   11.9740    4.6890   26.4070 O   0  0  0  0  0  0  0  0  0  0  0  0
   15.6650    4.4830   23.4340 S   0  0  0  0  0  0  0  0  0  0  0  0
   14.8240   -1.8500   20.6660 Cl  0  0  0  0  0  0  0  0  0  0  0  0
    4.5710    1.7870   20.4490 H   0  0  0  0  0  0  0  0  0  0  0  0
   14.7120    7.4640   25.2740 H   0  0  0  0  0  0  0  0  0  0  0  0
   11.7770    1.1570   24.2370 H   0  0  0  0  0  0  0  0  0  0  0  0
   12.2540   -2.1650   21.4450 H   0  0  0  0  0  0  0  0  0  0  0  0
   15.5250    0.4040   22.4500 H   0  0  0  0  0  0  0  0  0  0  0  0
    5.3140    1.9600   18.1860 H   0  0  0  0  0  0  0  0  0  0  0  0
    8.7500   -0.1320   18.8370 H   0  0  0  0  0  0  0  0  0  0  0  0
   16.6020    6.8100   23.5350 H   0  0  0  0  0  0  0  0  0  0  0  0
    5.2550   -0.3630   22.8370 H   0  0  0  0  0  0  0  0  0  0  0  0
    6.5850    0.7870   23.3460 H   0  0  0  0  0  0  0  0  0  0  0  0
    4.9750    1.2960   22.8060 H   0  0  0  0  0  0  0  0  0  0  0  0
   11.2960    5.8250   28.0380 H   0  0  0  0  0  0  0  0  0  0  0  0
   10.8360    4.0910   28.0310 H   0  0  0  0  0  0  0  0  0  0  0  0
   10.0170    5.2770   26.9730 H   0  0  0  0  0  0  0  0  0  0  0  0
   10.0990   -1.9380   23.0810 H   0  0  0  0  0  0  0  0  0  0  0  0
    9.8710   -0.4220   24.0210 H   0  0  0  0  0  0  0  0  0  0  0  0
   12.5100    3.0530   24.0700 H   0  0  0  0  0  0  0  0  0  0  0  0
   13.3790    2.7860   25.6460 H   0  0  0  0  0  0  0  0  0  0  0  0
    7.8070   -1.0750   22.2950 H   0  0  0  0  0  0  0  0  0  0  0  0
  6 35  1  0  0  0  0
  6 22  2  0  0  0  0
  7 22  1  0  0  0  0
  7 36  1  0  0  0  0
  1  6  1  0  0  0  0
  7 12  2  0  0  0  0
  1 30  1  0  0  0  0
  1 10  2  0  0  0  0
 10 12  1  0  0  0  0
 12 23  1  0  0  0  0
 14 29  1  0  0  0  0
 10 18  1  0  0  0  0
 17 25  2  0  0  0  0
  4 33  1  0  0  0  0
 17 23  1  0  0  0  0
 23 48  1  0  0  0  0
  4 14  2  0  0  0  0
  5 14  1  0  0  0  0
 17 20  1  0  0  0  0
  4 11  1  0  0  0  0
  5 34  1  0  0  0  0
  5 13  2  0  0  0  0
 18 40  1  0  0  0  0
 18 38  1  0  0  0  0
 18 39  1  0  0  0  0
 11 20  1  0  0  0  0
  3 11  2  0  0  0  0
 20 44  1  0  0  0  0
 20 45  1  0  0  0  0
  3 13  1  0  0  0  0
 13 26  1  0  0  0  0
  8 28  1  0  0  0  0
 15 28  1  0  0  0  0
  8 37  1  0  0  0  0
  3 32  1  0  0  0  0
  2  8  2  0  0  0  0
 21 26  1  0  0  0  0
 21 46  1  0  0  0  0
 15 21  1  0  0  0  0
  9 15  2  0  0  0  0
 21 47  1  0  0  0  0
  2  9  1  0  0  0  0
  2 31  1  0  0  0  0
  9 16  1  0  0  0  0
 16 24  2  0  0  0  0
 16 27  1  0  0  0  0
 19 27  1  0  0  0  0
 19 43  1  0  0  0  0
 19 42  1  0  0  0  0
 19 41  1  0  0  0  0
M  END
> <CID>
EN300-313279

> <SMILES>
Cc1ccncc1NC(=O)Cc2cc(cc(c2)Cl)OCc3c(ccs3)C(=O)OC

> <RUN>
RUN970

> <DDG (kcal/mol)>
-0.21

> <dDDG (kcal/mol)>
0.12

$$$$
EN300-2003699
  -OEChem-08252008263D

 51 53  0     1  0  0  0  0  0999 V2000
    5.4480    2.1650   19.5570 C   0  0  0  0  0  0  0  0  0  0  0  0
   12.4510    1.3270   22.8800 C   0  0  0  0  0  0  0  0  0  0  0  0
   15.4520    5.9170   20.8080 C   0  0  0  0  0  0  0  0  0  0  0  0
   12.6730   -0.6510   21.5040 C   0  0  0  0  0  0  0  0  0  0  0  0
   15.1230    7.9750   22.5880 C   0  0  0  0  0  0  0  0  0  0  0  0
   14.5810    0.5550   22.2440 C   0  0  0  0  0  0  0  0  0  0  0  0
    5.8920    2.1870   18.2220 C   0  0  0  0  0  0  0  0  0  0  0  0
    7.8290    1.2130   18.7790 C   0  0  0  0  0  0  0  0  0  0  0  0
    6.2580    1.7210   20.5800 C   0  0  0  0  0  0  0  0  0  0  0  0
   11.8280    0.2520   22.1890 C   0  0  0  0  0  0  0  0  0  0  0  0
   14.5850    5.7500   21.9540 C   0  0  0  0  0  0  0  0  0  0  0  0
   15.8970    8.2260   21.5030 C   0  0  0  0  0  0  0  0  0  0  0  0
    7.5100    1.1750   20.1850 C   0  0  0  0  0  0  0  0  0  0  0  0
   13.7950    1.4630   22.9340 C   0  0  0  0  0  0  0  0  0  0  0  0
   16.1360    7.1650   20.6520 C   0  0  0  0  0  0  0  0  0  0  0  0
   14.5010    6.7710   22.8960 C   0  0  0  0  0  0  0  0  0  0  0  0
   14.0140   -0.4880   21.4670 C   0  0  0  0  0  0  0  0  0  0  0  0
    9.6410    0.8660   21.3000 C   0  0  0  0  0  0  0  0  0  0  0  0
    5.7350    1.7570   21.9530 C   0  0  0  0  0  0  0  0  0  0  0  0
   10.3400    0.1060   22.3600 C   0  0  0  0  0  0  0  0  0  0  0  0
   14.9080    3.6790   22.8700 C   0  0  0  0  0  0  0  0  0  0  0  0
   13.9070    4.4870   22.1670 C   0  0  2  0  0  0  0  0  0  0  0  0
    7.0920    1.7920   17.8230 N   0  0  0  0  0  0  0  0  0  0  0  0
    8.3290    0.7420   21.2060 N   0  0  0  0  0  0  0  0  0  0  0  0
   16.4180    9.5120   21.3280 N   0  0  0  0  0  0  0  0  0  0  0  0
   10.1380    1.6120   20.5750 O   0  0  0  0  0  0  0  0  0  0  0  0
   16.8670   10.1080   22.3190 O   0  0  0  0  0  0  0  0  0  0  0  0
   16.3560    9.9700   20.1730 O   0  0  0  0  0  0  0  0  0  0  0  0
   13.4320    3.9040   20.9190 O   0  0  0  0  0  0  0  0  0  0  0  0
   14.3990    2.4660   23.6730 O   0  0  0  0  0  0  0  0  0  0  0  0
   16.8900    7.2330   19.5080 F   0  0  0  0  0  0  0  0  0  0  0  0
   13.8900    6.6200   24.0890 F   0  0  0  0  0  0  0  0  0  0  0  0
   15.1360   -1.6210   20.7190 Cl  0  0  0  0  0  0  0  0  0  0  0  0
    4.4510    2.5140   19.7840 H   0  0  0  0  0  0  0  0  0  0  0  0
   11.8020    2.0430   23.3660 H   0  0  0  0  0  0  0  0  0  0  0  0
   15.5270    5.0830   20.1070 H   0  0  0  0  0  0  0  0  0  0  0  0
   12.2220   -1.5290   21.0530 H   0  0  0  0  0  0  0  0  0  0  0  0
   15.0170    8.7320   23.3570 H   0  0  0  0  0  0  0  0  0  0  0  0
   15.6740    0.5880   22.2720 H   0  0  0  0  0  0  0  0  0  0  0  0
    5.2990    2.5700   17.3970 H   0  0  0  0  0  0  0  0  0  0  0  0
    8.7570    0.6980   18.5650 H   0  0  0  0  0  0  0  0  0  0  0  0
    6.2920    2.4440   22.6020 H   0  0  0  0  0  0  0  0  0  0  0  0
    4.7020    2.1190   21.9230 H   0  0  0  0  0  0  0  0  0  0  0  0
    5.7570    0.7320   22.3450 H   0  0  0  0  0  0  0  0  0  0  0  0
   10.1690   -0.9740   22.3060 H   0  0  0  0  0  0  0  0  0  0  0  0
   10.0220    0.4820   23.3370 H   0  0  0  0  0  0  0  0  0  0  0  0
   15.5230    3.3250   22.0370 H   0  0  0  0  0  0  0  0  0  0  0  0
   15.5090    4.3330   23.5010 H   0  0  0  0  0  0  0  0  0  0  0  0
   13.0470    4.5690   22.8430 H   0  0  0  0  0  0  0  0  0  0  0  0
    7.9000    0.2920   22.0190 H   0  0  0  0  0  0  0  0  0  0  0  0
   12.7110    4.4490   20.5360 H   0  0  0  0  0  0  0  0  0  0  0  0
  7 40  1  0  0  0  0
  7 23  2  0  0  0  0
  8 23  1  0  0  0  0
  1  7  1  0  0  0  0
  8 41  1  0  0  0  0
  8 13  2  0  0  0  0
 15 31  1  0  0  0  0
  1 34  1  0  0  0  0
  1  9  2  0  0  0  0
  3 36  1  0  0  0  0
 25 28  2  0  0  0  0
  9 13  1  0  0  0  0
 13 24  1  0  0  0  0
 29 51  1  0  0  0  0
 18 26  2  0  0  0  0
  9 19  1  0  0  0  0
  3 15  2  0  0  0  0
 12 15  1  0  0  0  0
 17 33  1  0  0  0  0
  3 11  1  0  0  0  0
 22 29  1  0  0  0  0
  4 37  1  0  0  0  0
 18 24  1  0  0  0  0
 24 50  1  0  0  0  0
 18 20  1  0  0  0  0
 12 25  1  0  0  0  0
 25 27  2  0  0  0  0
  4 17  2  0  0  0  0
  6 17  1  0  0  0  0
  5 12  2  0  0  0  0
  4 10  1  0  0  0  0
 19 43  1  0  0  0  0
 19 44  1  0  0  0  0
 19 42  1  0  0  0  0
 11 22  1  0  0  0  0
 11 16  2  0  0  0  0
 21 47  1  0  0  0  0
 22 49  1  0  0  0  0
 21 22  1  0  0  0  0
 10 20  1  0  0  0  0
  2 10  2  0  0  0  0
  6 39  1  0  0  0  0
  6 14  2  0  0  0  0
 20 45  1  0  0  0  0
 20 46  1  0  0  0  0
  5 16  1  0  0  0  0
  5 38  1  0  0  0  0
 21 48  1  0  0  0  0
 21 30  1  0  0  0  0
  2 14  1  0  0  0  0
  2 35  1  0  0  0  0
 16 32  1  0  0  0  0
 14 30  1  0  0  0  0
M  END
> <CID>
EN300-2003699

> <SMILES>
Cc1ccncc1NC(=O)Cc2cc(cc(c2)Cl)OC[C@@H](c3cc(c(cc3F)N(=O)=O)F)O

> <RUN>
RUN2754

> <DDG (kcal/mol)>
-0.21

> <dDDG (kcal/mol)>
0.20

$$$$
EN300-1706848
  -OEChem-08252008263D

 58 60  0     0  0  0  0  0  0999 V2000
    5.2350    1.1360   19.2190 C   0  0  0  0  0  0  0  0  0  0  0  0
   12.3680    1.0890   23.4590 C   0  0  0  0  0  0  0  0  0  0  0  0
   12.0930   -1.0500   22.3300 C   0  0  0  0  0  0  0  0  0  0  0  0
   14.3190   -0.1600   22.7730 C   0  0  0  0  0  0  0  0  0  0  0  0
   12.9410    1.9510   27.0830 C   0  0  0  0  0  0  0  0  0  0  0  0
    5.9880    0.8180   18.1060 C   0  0  0  0  0  0  0  0  0  0  0  0
    7.9410    0.1710   19.2870 C   0  0  0  0  0  0  0  0  0  0  0  0
    5.9250    0.9350   20.4710 C   0  0  0  0  0  0  0  0  0  0  0  0
   11.5300    0.0780   22.9650 C   0  0  0  0  0  0  0  0  0  0  0  0
    7.3360    0.5100   20.5030 C   0  0  0  0  0  0  0  0  0  0  0  0
   13.7860    0.9730   23.3910 C   0  0  0  0  0  0  0  0  0  0  0  0
   13.5060   -1.2070   22.2390 C   0  0  0  0  0  0  0  0  0  0  0  0
   13.9970    1.8290   26.2870 C   0  0  0  0  0  0  0  0  0  0  0  0
   13.2040    1.0310   28.1850 C   0  0  0  0  0  0  0  0  0  0  0  0
    9.2520    0.7150   22.0220 C   0  0  0  0  0  0  0  0  0  0  0  0
   11.6300    1.7410   29.8950 C   0  0  0  0  0  0  0  0  0  0  0  0
    5.1470    1.1360   21.7240 C   0  0  0  0  0  0  0  0  0  0  0  0
    8.8270    2.8250   30.1960 C   0  0  0  0  0  0  0  0  0  0  0  0
   10.6810    4.3960   30.7840 C   0  0  0  0  0  0  0  0  0  0  0  0
    9.7720    4.4380   28.4780 C   0  0  0  0  0  0  0  0  0  0  0  0
   10.0410    0.1580   23.2260 C   0  0  0  0  0  0  0  0  0  0  0  0
   14.3420    2.7270   25.0350 C   0  0  0  0  0  0  0  0  0  0  0  0
   10.0790    3.5580   29.6640 C   0  0  0  0  0  0  0  0  0  0  0  0
    7.2420    0.3760   18.0970 N   0  0  0  0  0  0  0  0  0  0  0  0
   14.2330    0.2940   27.9060 N   0  0  0  0  0  0  0  0  0  0  0  0
    7.8980    0.4480   21.7920 N   0  0  0  0  0  0  0  0  0  0  0  0
   12.5380    0.8430   29.3790 N   0  0  0  0  0  0  0  0  0  0  0  0
    9.8620    1.2380   21.1200 O   0  0  0  0  0  0  0  0  0  0  0  0
   11.3880    1.5170   31.0600 O   0  0  0  0  0  0  0  0  0  0  0  0
   14.7870    0.7880   26.6740 O   0  0  0  0  0  0  0  0  0  0  0  0
   14.6130    1.9500   23.7840 O   0  0  0  0  0  0  0  0  0  0  0  0
   11.0230    2.6210   29.1380 O   0  0  0  0  0  0  0  0  0  0  0  0
   14.2580   -2.6010   21.4920 Cl  0  0  0  0  0  0  0  0  0  0  0  0
    4.2830    1.6540   19.1140 H   0  0  0  0  0  0  0  0  0  0  0  0
   11.8740    1.8790   24.0110 H   0  0  0  0  0  0  0  0  0  0  0  0
   11.4330   -1.8770   22.0960 H   0  0  0  0  0  0  0  0  0  0  0  0
   15.3900   -0.3170   22.8120 H   0  0  0  0  0  0  0  0  0  0  0  0
   12.1180    2.6420   26.9900 H   0  0  0  0  0  0  0  0  0  0  0  0
    5.5950    1.1750   17.1500 H   0  0  0  0  0  0  0  0  0  0  0  0
    8.8150   -0.4690   19.3540 H   0  0  0  0  0  0  0  0  0  0  0  0
    5.7980    1.6980   22.4060 H   0  0  0  0  0  0  0  0  0  0  0  0
    4.1620    1.5870   21.5920 H   0  0  0  0  0  0  0  0  0  0  0  0
    4.8790    0.1960   22.2020 H   0  0  0  0  0  0  0  0  0  0  0  0
    8.4390    2.1780   29.4180 H   0  0  0  0  0  0  0  0  0  0  0  0
    9.0170    2.2120   31.0920 H   0  0  0  0  0  0  0  0  0  0  0  0
    8.0610    3.5530   30.4560 H   0  0  0  0  0  0  0  0  0  0  0  0
   10.9110    3.8750   31.7210 H   0  0  0  0  0  0  0  0  0  0  0  0
   10.0030    5.2280   30.9550 H   0  0  0  0  0  0  0  0  0  0  0  0
   11.5890    4.8760   30.4240 H   0  0  0  0  0  0  0  0  0  0  0  0
   10.6670    4.8900   28.0620 H   0  0  0  0  0  0  0  0  0  0  0  0
    9.3370    3.8410   27.6680 H   0  0  0  0  0  0  0  0  0  0  0  0
    9.0700    5.2380   28.7470 H   0  0  0  0  0  0  0  0  0  0  0  0
    9.8160   -0.8860   23.4730 H   0  0  0  0  0  0  0  0  0  0  0  0
    9.8540    0.7490   24.1290 H   0  0  0  0  0  0  0  0  0  0  0  0
   13.5880    3.5070   24.8550 H   0  0  0  0  0  0  0  0  0  0  0  0
   15.2070    3.2860   25.4010 H   0  0  0  0  0  0  0  0  0  0  0  0
    7.4260    0.0570   22.6070 H   0  0  0  0  0  0  0  0  0  0  0  0
   12.7820    0.0460   29.9640 H   0  0  0  0  0  0  0  0  0  0  0  0
  6 39  1  0  0  0  0
  6 24  2  0  0  0  0
  7 24  1  0  0  0  0
  1  6  1  0  0  0  0
  1 34  1  0  0  0  0
  1  8  2  0  0  0  0
  7 40  1  0  0  0  0
  7 10  2  0  0  0  0
  8 10  1  0  0  0  0
  8 17  1  0  0  0  0
 10 26  1  0  0  0  0
 15 28  2  0  0  0  0
 12 33  1  0  0  0  0
 17 42  1  0  0  0  0
 17 43  1  0  0  0  0
 17 41  1  0  0  0  0
 15 26  1  0  0  0  0
 26 57  1  0  0  0  0
 15 21  1  0  0  0  0
  3 36  1  0  0  0  0
  3 12  2  0  0  0  0
  4 12  1  0  0  0  0
  3  9  1  0  0  0  0
  4 37  1  0  0  0  0
  4 11  2  0  0  0  0
  9 21  1  0  0  0  0
  2  9  2  0  0  0  0
 21 53  1  0  0  0  0
 21 54  1  0  0  0  0
  2 11  1  0  0  0  0
 11 31  1  0  0  0  0
  2 35  1  0  0  0  0
 22 31  1  0  0  0  0
 22 55  1  0  0  0  0
 22 56  1  0  0  0  0
 13 22  1  0  0  0  0
 13 30  1  0  0  0  0
  5 13  2  0  0  0  0
 25 30  1  0  0  0  0
  5 38  1  0  0  0  0
  5 14  1  0  0  0  0
 20 51  1  0  0  0  0
 14 25  2  0  0  0  0
 20 50  1  0  0  0  0
 14 27  1  0  0  0  0
 20 52  1  0  0  0  0
 20 23  1  0  0  0  0
 23 32  1  0  0  0  0
 16 32  1  0  0  0  0
 16 27  1  0  0  0  0
 27 58  1  0  0  0  0
 18 44  1  0  0  0  0
 18 23  1  0  0  0  0
 19 23  1  0  0  0  0
 16 29  2  0  0  0  0
 18 46  1  0  0  0  0
 18 45  1  0  0  0  0
 19 49  1  0  0  0  0
 19 48  1  0  0  0  0
 19 47  1  0  0  0  0
M  END
> <CID>
EN300-1706848

> <SMILES>
Cc1ccncc1NC(=O)Cc2cc(cc(c2)Cl)OCc3cc(no3)NC(=O)OC(C)(C)C

> <RUN>
RUN2157

> <DDG (kcal/mol)>
-0.21

> <dDDG (kcal/mol)>
0.15

$$$$
EN300-703228
  -OEChem-08252008263D

 58 61  0     0  0  0  0  0  0999 V2000
    5.4730    1.0290   19.0510 C   0  0  0  0  0  0  0  0  0  0  0  0
   12.5290    0.7660   23.1120 C   0  0  0  0  0  0  0  0  0  0  0  0
   12.6670   -1.1110   21.4970 C   0  0  0  0  0  0  0  0  0  0  0  0
   14.6190    0.1830   22.1440 C   0  0  0  0  0  0  0  0  0  0  0  0
    6.0000    0.9550   17.7660 C   0  0  0  0  0  0  0  0  0  0  0  0
    8.0600    0.2990   18.5470 C   0  0  0  0  0  0  0  0  0  0  0  0
   11.0200    4.8560   24.2470 C   0  0  0  0  0  0  0  0  0  0  0  0
   13.2310    5.0210   23.6560 C   0  0  0  0  0  0  0  0  0  0  0  0
   11.9090    5.6900   23.6140 C   0  0  0  0  0  0  0  0  0  0  0  0
    6.2640    0.6880   20.1670 C   0  0  0  0  0  0  0  0  0  0  0  0
   11.9230   -0.2960   22.3670 C   0  0  0  0  0  0  0  0  0  0  0  0
    7.6090    0.2560   19.9080 C   0  0  0  0  0  0  0  0  0  0  0  0
   13.8980    0.9820   22.9830 C   0  0  0  0  0  0  0  0  0  0  0  0
   14.1210   -0.8970   21.4040 C   0  0  0  0  0  0  0  0  0  0  0  0
   12.9660    3.8400   24.2490 C   0  0  0  0  0  0  0  0  0  0  0  0
   14.5260    5.4250   23.0920 C   0  0  0  0  0  0  0  0  0  0  0  0
    9.7160    0.1570   21.2360 C   0  0  0  0  0  0  0  0  0  0  0  0
   10.8960    8.0610   23.8640 C   0  0  0  0  0  0  0  0  0  0  0  0
    9.9800    7.3830   22.8650 C   0  0  0  0  0  0  0  0  0  0  0  0
   11.4590    6.9590   22.9460 C   0  0  0  0  0  0  0  0  0  0  0  0
    5.6460    0.7770   21.5840 C   0  0  0  0  0  0  0  0  0  0  0  0
   15.8240    6.5560   19.7590 C   0  0  0  0  0  0  0  0  0  0  0  0
   10.4550   -0.4700   22.4550 C   0  0  0  0  0  0  0  0  0  0  0  0
   13.9420    2.8220   24.6080 C   0  0  0  0  0  0  0  0  0  0  0  0
   15.7810    5.8770   21.1190 C   0  0  0  0  0  0  0  0  0  0  0  0
    7.2980    0.6650   17.5090 N   0  0  0  0  0  0  0  0  0  0  0  0
    8.3910   -0.2200   20.9570 N   0  0  0  0  0  0  0  0  0  0  0  0
   15.4800    5.2840   23.8150 O   0  0  0  0  0  0  0  0  0  0  0  0
   10.3040    0.9100   20.4190 O   0  0  0  0  0  0  0  0  0  0  0  0
   11.6700    3.7250   24.5720 O   0  0  0  0  0  0  0  0  0  0  0  0
   14.5670    2.1040   23.5140 O   0  0  0  0  0  0  0  0  0  0  0  0
   14.5380    5.9600   21.8250 O   0  0  0  0  0  0  0  0  0  0  0  0
   15.0710   -1.6860   20.2410 Cl  0  0  0  0  0  0  0  0  0  0  0  0
    4.4140    1.2560   19.1300 H   0  0  0  0  0  0  0  0  0  0  0  0
   11.9770    1.4870   23.7010 H   0  0  0  0  0  0  0  0  0  0  0  0
   12.1540   -1.8660   20.9080 H   0  0  0  0  0  0  0  0  0  0  0  0
   15.6630    0.4160   21.9680 H   0  0  0  0  0  0  0  0  0  0  0  0
    5.2860    1.1870   16.9730 H   0  0  0  0  0  0  0  0  0  0  0  0
    9.0530   -0.1240   18.4100 H   0  0  0  0  0  0  0  0  0  0  0  0
    9.9460    4.9490   24.3770 H   0  0  0  0  0  0  0  0  0  0  0  0
   10.6080    9.1100   23.7230 H   0  0  0  0  0  0  0  0  0  0  0  0
   11.6880    8.8180   23.9320 H   0  0  0  0  0  0  0  0  0  0  0  0
    9.1580    6.7580   23.2090 H   0  0  0  0  0  0  0  0  0  0  0  0
    9.7180    7.9690   21.9760 H   0  0  0  0  0  0  0  0  0  0  0  0
   12.0810    7.3150   22.1290 H   0  0  0  0  0  0  0  0  0  0  0  0
    4.5990    1.0680   21.5220 H   0  0  0  0  0  0  0  0  0  0  0  0
    5.6900   -0.1970   22.0710 H   0  0  0  0  0  0  0  0  0  0  0  0
    6.2150    1.4690   22.2120 H   0  0  0  0  0  0  0  0  0  0  0  0
   16.7670    6.2620   19.2900 H   0  0  0  0  0  0  0  0  0  0  0  0
   15.7130    7.6280   19.9240 H   0  0  0  0  0  0  0  0  0  0  0  0
   14.9690    6.1670   19.1820 H   0  0  0  0  0  0  0  0  0  0  0  0
   10.2610   -1.5420   22.5590 H   0  0  0  0  0  0  0  0  0  0  0  0
   10.0620    0.1630   23.2590 H   0  0  0  0  0  0  0  0  0  0  0  0
   14.7370    3.2560   25.2090 H   0  0  0  0  0  0  0  0  0  0  0  0
   13.5120    2.1260   25.3400 H   0  0  0  0  0  0  0  0  0  0  0  0
   16.0900    4.8400   21.0120 H   0  0  0  0  0  0  0  0  0  0  0  0
   16.5590    6.3350   21.7410 H   0  0  0  0  0  0  0  0  0  0  0  0
    7.9380   -0.8000   21.6630 H   0  0  0  0  0  0  0  0  0  0  0  0
  5 38  1  0  0  0  0
  5 26  2  0  0  0  0
  6 26  1  0  0  0  0
  1  5  1  0  0  0  0
  6 39  1  0  0  0  0
  6 12  2  0  0  0  0
  1 34  1  0  0  0  0
  1 10  2  0  0  0  0
 22 51  1  0  0  0  0
 22 49  1  0  0  0  0
 22 50  1  0  0  0  0
 22 25  1  0  0  0  0
 10 12  1  0  0  0  0
 12 27  1  0  0  0  0
 10 21  1  0  0  0  0
 14 33  1  0  0  0  0
 17 29  2  0  0  0  0
  3 36  1  0  0  0  0
 17 27  1  0  0  0  0
 27 58  1  0  0  0  0
 25 56  1  0  0  0  0
 25 57  1  0  0  0  0
 25 32  1  0  0  0  0
 17 23  1  0  0  0  0
  3 14  2  0  0  0  0
  4 14  1  0  0  0  0
  3 11  1  0  0  0  0
 21 46  1  0  0  0  0
 21 47  1  0  0  0  0
 21 48  1  0  0  0  0
 16 32  1  0  0  0  0
  4 37  1  0  0  0  0
 19 44  1  0  0  0  0
 20 45  1  0  0  0  0
  4 13  2  0  0  0  0
 11 23  1  0  0  0  0
  2 11  2  0  0  0  0
 23 52  1  0  0  0  0
 23 53  1  0  0  0  0
 19 20  1  0  0  0  0
 19 43  1  0  0  0  0
 18 19  1  0  0  0  0
  9 20  1  0  0  0  0
 18 20  1  0  0  0  0
  2 13  1  0  0  0  0
 13 31  1  0  0  0  0
  8 16  1  0  0  0  0
 16 28  2  0  0  0  0
  2 35  1  0  0  0  0
 24 31  1  0  0  0  0
  8  9  1  0  0  0  0
  7  9  2  0  0  0  0
  8 15  2  0  0  0  0
 18 41  1  0  0  0  0
 18 42  1  0  0  0  0
  7 40  1  0  0  0  0
  7 30  1  0  0  0  0
 15 30  1  0  0  0  0
 15 24  1  0  0  0  0
 24 54  1  0  0  0  0
 24 55  1  0  0  0  0
M  END
> <CID>
EN300-703228

> <SMILES>
CCOC(=O)c1c(coc1COc2cc(cc(c2)Cl)CC(=O)Nc3cnccc3C)C4CC4

> <RUN>
RUN1126

> <DDG (kcal/mol)>
-0.20

> <dDDG (kcal/mol)>
0.15

$$$$
EN300-1939155
  -OEChem-08252008263D

 56 59  0     1  0  0  0  0  0999 V2000
    4.6180    1.3650   19.7510 C   0  0  0  0  0  0  0  0  0  0  0  0
   11.3950    2.8790   22.6120 C   0  0  0  0  0  0  0  0  0  0  0  0
   11.9180    0.6480   23.1880 C   0  0  0  0  0  0  0  0  0  0  0  0
   13.6740    2.0920   22.5940 C   0  0  0  0  0  0  0  0  0  0  0  0
    4.9290    0.3950   18.8210 C   0  0  0  0  0  0  0  0  0  0  0  0
    6.8020   -0.2940   20.0910 C   0  0  0  0  0  0  0  0  0  0  0  0
   14.4210    7.1350   23.5050 C   0  0  0  0  0  0  0  0  0  0  0  0
   14.5900    7.2770   22.1320 C   0  0  0  0  0  0  0  0  0  0  0  0
   14.5210    8.7090   21.8710 C   0  0  0  0  0  0  0  0  0  0  0  0
    5.3200    1.4290   20.9390 C   0  0  0  0  0  0  0  0  0  0  0  0
   10.9720    1.6430   23.0280 C   0  0  0  0  0  0  0  0  0  0  0  0
    6.4640    0.6460   21.1020 C   0  0  0  0  0  0  0  0  0  0  0  0
   12.7560    3.1840   22.3880 C   0  0  0  0  0  0  0  0  0  0  0  0
   13.2500    0.8110   23.0100 C   0  0  0  0  0  0  0  0  0  0  0  0
   14.2440    9.4620   22.9580 C   0  0  0  0  0  0  0  0  0  0  0  0
   15.2930    6.3310   19.8500 C   0  5  0  0  0  0  0  0  0  0  0  0
   14.8580    6.1380   21.1760 C   0  0  3  0  0  0  0  0  0  0  0  0
    8.6870    1.0440   22.0700 C   0  0  0  0  0  0  0  0  0  0  0  0
   14.9220    9.3010   20.5790 C   0  0  0  0  0  0  0  0  0  0  0  0
   14.0090   10.9410   22.8700 C   0  0  0  0  0  0  0  0  0  0  0  0
   14.9120   10.8560   20.6670 C   0  0  0  0  0  0  0  0  0  0  0  0
   13.7680   11.3910   21.4820 C   0  0  0  0  0  0  0  0  0  0  0  0
    4.9370    2.5250   21.8620 C   0  0  0  0  0  0  0  0  0  0  0  0
    9.5210    1.4840   23.3290 C   0  0  0  0  0  0  0  0  0  0  0  0
   14.5650    4.7280   21.6930 C   0  0  0  0  0  0  0  0  0  0  0  0
    6.0150   -0.4230   18.9800 N   0  0  0  0  0  0  0  0  0  0  0  0
    7.3160    0.8530   22.1710 N   0  0  0  0  0  0  0  0  0  0  0  0
    9.2490    0.8020   21.0130 O   0  0  0  0  0  0  0  0  0  0  0  0
   13.1150    4.4490   21.8260 O   0  0  0  0  0  0  0  0  0  0  0  0
   14.0350    8.5740   24.3890 S   0  0  0  0  0  0  0  0  0  0  0  0
   14.4360   -0.4130   23.3180 Cl  0  0  0  0  0  0  0  0  0  0  0  0
    3.8880    2.1450   19.6080 H   0  0  0  0  0  0  0  0  0  0  0  0
   10.6810    3.6970   22.5670 H   0  0  0  0  0  0  0  0  0  0  0  0
   11.6980   -0.3660   23.4960 H   0  0  0  0  0  0  0  0  0  0  0  0
   14.7240    2.3190   22.4290 H   0  0  0  0  0  0  0  0  0  0  0  0
    4.2980    0.3090   17.9350 H   0  0  0  0  0  0  0  0  0  0  0  0
    7.6770   -0.9260   20.2120 H   0  0  0  0  0  0  0  0  0  0  0  0
   14.3150    6.1850   24.0190 H   0  0  0  0  0  0  0  0  0  0  0  0
   15.3790    5.4570   19.2100 H   0  0  0  0  0  0  0  0  0  0  0  0
   15.5060    7.2560   19.3400 H   0  0  0  0  0  0  0  0  0  0  0  0
   15.9290    8.9200   20.3790 H   0  0  0  0  0  0  0  0  0  0  0  0
   14.2520    9.0600   19.7450 H   0  0  0  0  0  0  0  0  0  0  0  0
   13.1380   11.3000   23.4330 H   0  0  0  0  0  0  0  0  0  0  0  0
   14.8750   11.4870   23.2660 H   0  0  0  0  0  0  0  0  0  0  0  0
   15.8540   11.1650   21.1400 H   0  0  0  0  0  0  0  0  0  0  0  0
   14.9580   11.3450   19.6890 H   0  0  0  0  0  0  0  0  0  0  0  0
   13.7800   12.4760   21.4040 H   0  0  0  0  0  0  0  0  0  0  0  0
   12.8430   10.9310   21.1140 H   0  0  0  0  0  0  0  0  0  0  0  0
    4.0640    3.0990   21.5570 H   0  0  0  0  0  0  0  0  0  0  0  0
    4.9210    2.0760   22.8600 H   0  0  0  0  0  0  0  0  0  0  0  0
    5.7720    3.2140   21.9690 H   0  0  0  0  0  0  0  0  0  0  0  0
    9.4190    0.6320   24.0050 H   0  0  0  0  0  0  0  0  0  0  0  0
    9.1330    2.3960   23.7830 H   0  0  0  0  0  0  0  0  0  0  0  0
   15.1440    4.5700   22.6110 H   0  0  0  0  0  0  0  0  0  0  0  0
   14.9680    4.0160   20.9710 H   0  0  0  0  0  0  0  0  0  0  0  0
    6.8610    1.0500   23.0590 H   0  0  0  0  0  0  0  0  0  0  0  0
  5 36  1  0  0  0  0
  5 26  2  0  0  0  0
  1  5  1  0  0  0  0
  6 26  1  0  0  0  0
 16 39  1  0  0  0  0
 16 40  1  0  0  0  0
  1 32  1  0  0  0  0
 21 46  1  0  0  0  0
 19 42  1  0  0  0  0
  1 10  2  0  0  0  0
 16 17  1  0  0  0  0
  6 37  1  0  0  0  0
  6 12  2  0  0  0  0
 19 41  1  0  0  0  0
 19 21  1  0  0  0  0
  9 19  1  0  0  0  0
 21 45  1  0  0  0  0
 21 22  1  0  0  0  0
 10 12  1  0  0  0  0
 10 23  1  0  0  0  0
 25 55  1  0  0  0  0
 18 28  2  0  0  0  0
 12 27  1  0  0  0  0
 22 48  1  0  0  0  0
 17 25  1  0  0  0  0
  8 17  1  0  0  0  0
 22 47  1  0  0  0  0
 20 22  1  0  0  0  0
 23 49  1  0  0  0  0
 25 29  1  0  0  0  0
 25 54  1  0  0  0  0
 13 29  1  0  0  0  0
 23 51  1  0  0  0  0
 23 50  1  0  0  0  0
  8  9  1  0  0  0  0
  9 15  2  0  0  0  0
 18 27  1  0  0  0  0
 18 24  1  0  0  0  0
  7  8  2  0  0  0  0
 27 56  1  0  0  0  0
  4 13  2  0  0  0  0
  2 13  1  0  0  0  0
  4 35  1  0  0  0  0
  2 33  1  0  0  0  0
  4 14  1  0  0  0  0
  2 11  2  0  0  0  0
 15 20  1  0  0  0  0
 20 44  1  0  0  0  0
 20 43  1  0  0  0  0
 15 30  1  0  0  0  0
  3 14  2  0  0  0  0
 14 31  1  0  0  0  0
  3 11  1  0  0  0  0
 11 24  1  0  0  0  0
  3 34  1  0  0  0  0
 24 53  1  0  0  0  0
 24 52  1  0  0  0  0
  7 38  1  0  0  0  0
  7 30  1  0  0  0  0
M  CHG  1  16  -1
M  END
> <CID>
EN300-1939155

> <SMILES>
Cc1ccncc1NC(=O)Cc2cc(cc(c2)Cl)OCC(=C)c3csc4c3CCCC4

> <RUN>
RUN4498

> <DDG (kcal/mol)>
-0.20

> <dDDG (kcal/mol)>
0.20

$$$$
EN300-76695
  -OEChem-08252008263D

 45 47  0     0  0  0  0  0  0999 V2000
   16.0600    7.2580   22.8330 C   0  0  0  0  0  0  0  0  0  0  0  0
   16.0400    8.4900   22.2770 C   0  0  0  0  0  0  0  0  0  0  0  0
    5.7520    2.2240   19.6960 C   0  0  0  0  0  0  0  0  0  0  0  0
   12.6810    3.1890   23.2590 C   0  0  0  0  0  0  0  0  0  0  0  0
   12.6730    0.9440   24.0390 C   0  0  0  0  0  0  0  0  0  0  0  0
   14.7600    2.0980   23.5490 C   0  0  0  0  0  0  0  0  0  0  0  0
   16.5650    7.4110   20.1830 C   0  0  0  0  0  0  0  0  0  0  0  0
    6.2950    1.3990   18.6620 C   0  0  0  0  0  0  0  0  0  0  0  0
    8.1910    1.0510   19.9000 C   0  0  0  0  0  0  0  0  0  0  0  0
   16.1270    6.0460   22.0680 C   0  0  0  0  0  0  0  0  0  0  0  0
    6.4390    2.4510   20.9120 C   0  0  0  0  0  0  0  0  0  0  0  0
   12.0040    2.0760   23.5960 C   0  0  0  0  0  0  0  0  0  0  0  0
    7.7430    1.9090   20.9280 C   0  0  0  0  0  0  0  0  0  0  0  0
   14.0590    3.2070   23.1510 C   0  0  0  0  0  0  0  0  0  0  0  0
   16.3720    8.6150   20.9270 C   0  0  0  0  0  0  0  0  0  0  0  0
   14.0880    0.9290   23.9810 C   0  0  0  0  0  0  0  0  0  0  0  0
   16.3850    6.1230   20.6860 C   0  0  0  0  0  0  0  0  0  0  0  0
    9.9080    1.9980   22.2410 C   0  0  0  0  0  0  0  0  0  0  0  0
    5.9540    3.3660   21.9450 C   0  0  0  0  0  0  0  0  0  0  0  0
   10.5050    2.1730   23.5700 C   0  0  0  0  0  0  0  0  0  0  0  0
   15.9110    4.7240   22.7430 C   0  0  0  0  0  0  0  0  0  0  0  0
    7.5010    0.7760   18.7990 N   0  0  0  0  0  0  0  0  0  0  0  0
    8.5330    2.0480   22.0950 N   0  0  0  0  0  0  0  0  0  0  0  0
   10.6760    2.0200   21.2750 O   0  0  0  0  0  0  0  0  0  0  0  0
   14.5320    4.4120   22.6030 O   0  0  0  0  0  0  0  0  0  0  0  0
   16.4210   10.2290   20.1670 Cl  0  0  0  0  0  0  0  0  0  0  0  0
   15.0140   -0.5720   24.3030 Cl  0  0  0  0  0  0  0  0  0  0  0  0
   16.2640    4.6540   19.4440 Br  0  0  0  0  0  0  0  0  0  0  0  0
   15.7260    7.1670   23.8670 H   0  0  0  0  0  0  0  0  0  0  0  0
   15.9600    9.3730   22.9060 H   0  0  0  0  0  0  0  0  0  0  0  0
    4.7780    2.6420   19.4600 H   0  0  0  0  0  0  0  0  0  0  0  0
   12.1290    4.1140   23.1460 H   0  0  0  0  0  0  0  0  0  0  0  0
   12.0830    0.0930   24.3760 H   0  0  0  0  0  0  0  0  0  0  0  0
   15.8400    1.9840   23.6210 H   0  0  0  0  0  0  0  0  0  0  0  0
   16.8290    7.5430   19.1380 H   0  0  0  0  0  0  0  0  0  0  0  0
    5.8010    1.1640   17.7200 H   0  0  0  0  0  0  0  0  0  0  0  0
    9.1470    0.5420   20.0450 H   0  0  0  0  0  0  0  0  0  0  0  0
    6.5660    4.2620   22.0610 H   0  0  0  0  0  0  0  0  0  0  0  0
    5.0520    3.8840   21.5940 H   0  0  0  0  0  0  0  0  0  0  0  0
    5.7730    2.9690   22.9430 H   0  0  0  0  0  0  0  0  0  0  0  0
   10.0810    1.4630   24.2780 H   0  0  0  0  0  0  0  0  0  0  0  0
   10.1530    3.1260   23.9900 H   0  0  0  0  0  0  0  0  0  0  0  0
   16.5260    3.9630   22.2620 H   0  0  0  0  0  0  0  0  0  0  0  0
   16.0430    4.8410   23.8290 H   0  0  0  0  0  0  0  0  0  0  0  0
    8.0360    2.2720   22.9660 H   0  0  0  0  0  0  0  0  0  0  0  0
  8 36  1  0  0  0  0
  8 22  2  0  0  0  0
  3  8  1  0  0  0  0
  9 22  1  0  0  0  0
  7 35  1  0  0  0  0
 17 28  1  0  0  0  0
  3 31  1  0  0  0  0
  3 11  2  0  0  0  0
  9 37  1  0  0  0  0
  9 13  2  0  0  0  0
 15 26  1  0  0  0  0
  7 17  2  0  0  0  0
  7 15  1  0  0  0  0
 10 17  1  0  0  0  0
 11 13  1  0  0  0  0
 11 19  1  0  0  0  0
  2 15  2  0  0  0  0
 13 23  1  0  0  0  0
 18 24  2  0  0  0  0
 19 39  1  0  0  0  0
 19 38  1  0  0  0  0
 19 40  1  0  0  0  0
 10 21  1  0  0  0  0
  1 10  2  0  0  0  0
 18 23  1  0  0  0  0
 23 45  1  0  0  0  0
 18 20  1  0  0  0  0
 21 43  1  0  0  0  0
  1  2  1  0  0  0  0
  2 30  1  0  0  0  0
 21 25  1  0  0  0  0
 14 25  1  0  0  0  0
 21 44  1  0  0  0  0
  1 29  1  0  0  0  0
  4 32  1  0  0  0  0
  4 14  2  0  0  0  0
  6 14  1  0  0  0  0
  4 12  1  0  0  0  0
  6 34  1  0  0  0  0
  6 16  2  0  0  0  0
 12 20  1  0  0  0  0
 20 42  1  0  0  0  0
 20 41  1  0  0  0  0
  5 12  2  0  0  0  0
  5 16  1  0  0  0  0
 16 27  1  0  0  0  0
  5 33  1  0  0  0  0
M  END
> <CID>
EN300-76695

> <SMILES>
Cc1ccncc1NC(=O)Cc2cc(cc(c2)Cl)OCc3ccc(cc3Br)Cl

> <RUN>
RUN3337

> <DDG (kcal/mol)>
-0.20

> <dDDG (kcal/mol)>
0.14

$$$$
EN300-1921759
  -OEChem-08252008263D

 54 57  0     1  0  0  0  0  0999 V2000
    6.5000    7.7080   23.6830 C   0  0  0  0  0  0  0  0  0  0  0  0
    6.9500    8.6580   24.6220 C   0  0  0  0  0  0  0  0  0  0  0  0
    7.4690    6.7970   23.1900 C   0  0  0  0  0  0  0  0  0  0  0  0
    8.3020    8.7950   24.9340 C   0  0  0  0  0  0  0  0  0  0  0  0
    4.5660    0.7820   19.2350 C   0  0  0  0  0  0  0  0  0  0  0  0
    9.8200    6.0930   22.8610 C   0  0  0  0  0  0  0  0  0  0  0  0
   11.4530    1.1270   22.4720 C   0  0  0  0  0  0  0  0  0  0  0  0
   12.2760   -0.9650   21.5820 C   0  0  0  0  0  0  0  0  0  0  0  0
   13.7730    0.9290   21.8830 C   0  0  0  0  0  0  0  0  0  0  0  0
    5.0400    0.8100   17.9130 C   0  0  0  0  0  0  0  0  0  0  0  0
    7.1130    0.1620   18.7030 C   0  0  0  0  0  0  0  0  0  0  0  0
    8.8620    6.9210   23.4590 C   0  0  0  0  0  0  0  0  0  0  0  0
    5.3420    0.3350   20.3220 C   0  0  0  0  0  0  0  0  0  0  0  0
   11.1510    6.3250   23.0970 C   0  0  0  0  0  0  0  0  0  0  0  0
   11.2370   -0.2010   22.0920 C   0  0  0  0  0  0  0  0  0  0  0  0
    9.2820    7.8910   24.3350 C   0  0  0  0  0  0  0  0  0  0  0  0
    6.6950    0.0300   20.0530 C   0  0  0  0  0  0  0  0  0  0  0  0
   12.6520    1.6840   22.3170 C   0  0  0  0  0  0  0  0  0  0  0  0
   13.5670   -0.4120   21.4880 C   0  0  0  0  0  0  0  0  0  0  0  0
   11.4630    7.3130   24.0210 C   0  0  0  0  0  0  0  0  0  0  0  0
    8.8860   -0.1280   21.0720 C   0  0  0  0  0  0  0  0  0  0  0  0
    4.8410    0.3870   21.7100 C   0  0  0  0  0  0  0  0  0  0  0  0
    9.7810   -0.6920   22.1650 C   0  0  0  0  0  0  0  0  0  0  0  0
   11.8030    3.8980   22.8480 C   0  0  0  0  0  0  0  0  0  0  0  0
   12.2270    5.3250   22.5920 C   0  0  1  0  0  0  0  0  0  0  0  0
    6.3480    0.5080   17.6840 N   0  0  0  0  0  0  0  0  0  0  0  0
   10.5710    8.0440   24.6540 N   0  0  0  0  0  0  0  0  0  0  0  0
    7.5790   -0.5760   20.9920 N   0  0  0  0  0  0  0  0  0  0  0  0
    9.2140    0.9140   20.4640 O   0  0  0  0  0  0  0  0  0  0  0  0
   12.4050    5.6310   21.2020 O   0  0  0  0  0  0  0  0  0  0  0  0
   12.9060    3.0290   22.6000 O   0  0  0  0  0  0  0  0  0  0  0  0
   14.9530   -1.2800   20.8750 Cl  0  0  0  0  0  0  0  0  0  0  0  0
   13.1530    7.6800   24.4920 Cl  0  0  0  0  0  0  0  0  0  0  0  0
    5.4590    7.7780   23.3700 H   0  0  0  0  0  0  0  0  0  0  0  0
    6.2800    9.3680   25.0910 H   0  0  0  0  0  0  0  0  0  0  0  0
    7.1330    6.0930   22.4320 H   0  0  0  0  0  0  0  0  0  0  0  0
    8.6190    9.5440   25.6470 H   0  0  0  0  0  0  0  0  0  0  0  0
    3.5330    1.0790   19.3460 H   0  0  0  0  0  0  0  0  0  0  0  0
    9.4600    5.4240   22.0840 H   0  0  0  0  0  0  0  0  0  0  0  0
   10.6270    1.6520   22.9430 H   0  0  0  0  0  0  0  0  0  0  0  0
   12.1460   -1.9650   21.1780 H   0  0  0  0  0  0  0  0  0  0  0  0
   14.7660    1.3810   21.8720 H   0  0  0  0  0  0  0  0  0  0  0  0
    4.4480    1.1790   17.0810 H   0  0  0  0  0  0  0  0  0  0  0  0
    8.1110   -0.2380   18.5730 H   0  0  0  0  0  0  0  0  0  0  0  0
    5.2380    1.2160   22.3060 H   0  0  0  0  0  0  0  0  0  0  0  0
    3.7540    0.5240   21.7160 H   0  0  0  0  0  0  0  0  0  0  0  0
    5.0960   -0.5170   22.2850 H   0  0  0  0  0  0  0  0  0  0  0  0
    9.6410   -1.7530   21.9380 H   0  0  0  0  0  0  0  0  0  0  0  0
    9.2950   -0.5290   23.1380 H   0  0  0  0  0  0  0  0  0  0  0  0
   11.5180    3.8110   23.9020 H   0  0  0  0  0  0  0  0  0  0  0  0
   10.9380    3.6090   22.2550 H   0  0  0  0  0  0  0  0  0  0  0  0
   13.2050    5.5540   23.0120 H   0  0  0  0  0  0  0  0  0  0  0  0
    7.2480   -1.3030   21.6330 H   0  0  0  0  0  0  0  0  0  0  0  0
   11.6600    5.2810   20.6850 H   0  0  0  0  0  0  0  0  0  0  0  0
 10 43  1  0  0  0  0
 10 26  2  0  0  0  0
 11 26  1  0  0  0  0
  5 10  1  0  0  0  0
 11 44  1  0  0  0  0
 11 17  2  0  0  0  0
  5 38  1  0  0  0  0
  5 13  2  0  0  0  0
 13 17  1  0  0  0  0
 17 28  1  0  0  0  0
 13 22  1  0  0  0  0
 21 29  2  0  0  0  0
 30 54  1  0  0  0  0
 19 32  1  0  0  0  0
 21 28  1  0  0  0  0
 28 53  1  0  0  0  0
 21 23  1  0  0  0  0
  8 41  1  0  0  0  0
 25 30  1  0  0  0  0
  8 19  2  0  0  0  0
  9 19  1  0  0  0  0
  8 15  1  0  0  0  0
 22 46  1  0  0  0  0
 22 47  1  0  0  0  0
 22 45  1  0  0  0  0
  9 42  1  0  0  0  0
  9 18  2  0  0  0  0
 23 48  1  0  0  0  0
  6 39  1  0  0  0  0
 15 23  1  0  0  0  0
  7 15  2  0  0  0  0
 23 49  1  0  0  0  0
 24 51  1  0  0  0  0
  7 18  1  0  0  0  0
 18 31  1  0  0  0  0
  3 36  1  0  0  0  0
  7 40  1  0  0  0  0
 24 25  1  0  0  0  0
 25 52  1  0  0  0  0
 14 25  1  0  0  0  0
 24 31  1  0  0  0  0
 24 50  1  0  0  0  0
  6 14  2  0  0  0  0
  6 12  1  0  0  0  0
 14 20  1  0  0  0  0
  3 12  2  0  0  0  0
  1  3  1  0  0  0  0
  1 34  1  0  0  0  0
 12 16  1  0  0  0  0
  1  2  2  0  0  0  0
 20 33  1  0  0  0  0
 20 27  2  0  0  0  0
 16 27  1  0  0  0  0
  4 16  2  0  0  0  0
  2  4  1  0  0  0  0
  2 35  1  0  0  0  0
  4 37  1  0  0  0  0
M  END
> <CID>
EN300-1921759

> <SMILES>
Cc1ccncc1NC(=O)Cc2cc(cc(c2)Cl)OC[C@H](c3cc4ccccc4nc3Cl)O

> <RUN>
RUN4336

> <DDG (kcal/mol)>
-0.20

> <dDDG (kcal/mol)>
0.22

$$$$
EN300-740100
  -OEChem-08252008263D

 52 55  0     0  0  0  0  0  0999 V2000
    4.4030    1.5790   19.9440 C   0  0  0  0  0  0  0  0  0  0  0  0
   11.5970    0.7750   23.1030 C   0  0  0  0  0  0  0  0  0  0  0  0
   12.2020   -1.2750   22.1450 C   0  0  0  0  0  0  0  0  0  0  0  0
   13.9260    0.3060   22.5760 C   0  0  0  0  0  0  0  0  0  0  0  0
    4.7920    1.4340   18.6150 C   0  0  0  0  0  0  0  0  0  0  0  0
    6.7750    0.4520   19.2630 C   0  0  0  0  0  0  0  0  0  0  0  0
   15.0650    4.3900   22.2770 C   0  0  0  0  0  0  0  0  0  0  0  0
    5.3280    1.1520   20.9570 C   0  0  0  0  0  0  0  0  0  0  0  0
   11.2110   -0.3830   22.5560 C   0  0  0  0  0  0  0  0  0  0  0  0
    6.5320    0.5720   20.6680 C   0  0  0  0  0  0  0  0  0  0  0  0
   12.9980    1.1740   23.1000 C   0  0  0  0  0  0  0  0  0  0  0  0
   13.5620   -0.9350   22.1260 C   0  0  0  0  0  0  0  0  0  0  0  0
   14.3930    5.0000   23.2900 C   0  0  0  0  0  0  0  0  0  0  0  0
    8.8150    0.2450   21.6650 C   0  0  0  0  0  0  0  0  0  0  0  0
   17.6910    4.4770   20.1130 C   0  0  0  0  0  0  0  0  0  0  0  0
   18.8120    4.7280   21.7980 C   0  0  0  0  0  0  0  0  0  0  0  0
   17.4190    4.2060   21.5610 C   0  0  0  0  0  0  0  0  0  0  0  0
    5.0510    1.4800   22.4510 C   0  0  0  0  0  0  0  0  0  0  0  0
    9.7210   -0.6480   22.5050 C   0  0  0  0  0  0  0  0  0  0  0  0
   12.9560    4.9130   23.6620 C   0  0  0  0  0  0  0  0  0  0  0  0
   12.4040    3.4590   23.4780 C   0  0  0  0  0  0  0  0  0  0  0  0
    5.9790    0.8460   18.2890 N   0  0  0  0  0  0  0  0  0  0  0  0
   15.3100    5.7750   23.8770 N   0  0  0  0  0  0  0  0  0  0  0  0
   16.4370    5.7040   23.2890 N   0  0  0  0  0  0  0  0  0  0  0  0
   16.3230    4.9040   22.2230 N   0  0  0  0  0  0  0  0  0  0  0  0
    7.4190    0.0260   21.6500 N   0  0  0  0  0  0  0  0  0  0  0  0
    9.2140    1.0570   20.8390 O   0  0  0  0  0  0  0  0  0  0  0  0
   18.9360    4.9510   20.4380 O   0  0  0  0  0  0  0  0  0  0  0  0
   13.3420    2.3800   23.7460 O   0  0  0  0  0  0  0  0  0  0  0  0
   14.7790   -1.9840   21.3740 Cl  0  0  0  0  0  0  0  0  0  0  0  0
    3.4640    2.0320   20.2610 H   0  0  0  0  0  0  0  0  0  0  0  0
   10.7850    1.3940   23.4770 H   0  0  0  0  0  0  0  0  0  0  0  0
   11.9510   -2.2820   21.8380 H   0  0  0  0  0  0  0  0  0  0  0  0
   14.9620    0.6220   22.5950 H   0  0  0  0  0  0  0  0  0  0  0  0
    4.0140    1.6310   17.8780 H   0  0  0  0  0  0  0  0  0  0  0  0
    7.6510   -0.0160   18.8320 H   0  0  0  0  0  0  0  0  0  0  0  0
   14.5670    3.7600   21.5460 H   0  0  0  0  0  0  0  0  0  0  0  0
   17.0650    5.2720   19.6920 H   0  0  0  0  0  0  0  0  0  0  0  0
   17.7240    3.5510   19.5360 H   0  0  0  0  0  0  0  0  0  0  0  0
   18.9240    5.6200   22.4280 H   0  0  0  0  0  0  0  0  0  0  0  0
   19.5530    4.0220   22.1800 H   0  0  0  0  0  0  0  0  0  0  0  0
   17.3640    3.1400   21.8010 H   0  0  0  0  0  0  0  0  0  0  0  0
    4.1580    2.1110   22.4110 H   0  0  0  0  0  0  0  0  0  0  0  0
    4.9030    0.5770   23.0590 H   0  0  0  0  0  0  0  0  0  0  0  0
    5.8730    2.0920   22.8110 H   0  0  0  0  0  0  0  0  0  0  0  0
    9.5840   -1.7220   22.3530 H   0  0  0  0  0  0  0  0  0  0  0  0
    9.4370   -0.6390   23.5610 H   0  0  0  0  0  0  0  0  0  0  0  0
   12.8750    5.1870   24.7230 H   0  0  0  0  0  0  0  0  0  0  0  0
   12.3600    5.6120   23.0700 H   0  0  0  0  0  0  0  0  0  0  0  0
   11.4500    3.3370   23.9900 H   0  0  0  0  0  0  0  0  0  0  0  0
   12.2260    3.3810   22.4010 H   0  0  0  0  0  0  0  0  0  0  0  0
    6.8930   -0.3230   22.4530 H   0  0  0  0  0  0  0  0  0  0  0  0
  5 35  1  0  0  0  0
  5 22  2  0  0  0  0
  6 22  1  0  0  0  0
  1  5  1  0  0  0  0
  6 36  1  0  0  0  0
  6 10  2  0  0  0  0
 15 39  1  0  0  0  0
 15 38  1  0  0  0  0
  1 31  1  0  0  0  0
  1  8  2  0  0  0  0
 15 28  1  0  0  0  0
 15 17  1  0  0  0  0
 16 28  1  0  0  0  0
  8 10  1  0  0  0  0
 10 26  1  0  0  0  0
 14 27  2  0  0  0  0
  8 18  1  0  0  0  0
 12 30  1  0  0  0  0
  7 37  1  0  0  0  0
 16 17  1  0  0  0  0
 17 42  1  0  0  0  0
 17 25  1  0  0  0  0
 14 26  1  0  0  0  0
 26 52  1  0  0  0  0
 14 19  1  0  0  0  0
 16 41  1  0  0  0  0
 16 40  1  0  0  0  0
  3 33  1  0  0  0  0
  3 12  2  0  0  0  0
  4 12  1  0  0  0  0
  3  9  1  0  0  0  0
  7 25  1  0  0  0  0
 24 25  1  0  0  0  0
  7 13  2  0  0  0  0
 19 46  1  0  0  0  0
 21 51  1  0  0  0  0
 18 43  1  0  0  0  0
 18 45  1  0  0  0  0
 18 44  1  0  0  0  0
  9 19  1  0  0  0  0
 19 47  1  0  0  0  0
  2  9  2  0  0  0  0
  4 34  1  0  0  0  0
  4 11  2  0  0  0  0
 20 49  1  0  0  0  0
  2 11  1  0  0  0  0
 11 29  1  0  0  0  0
  2 32  1  0  0  0  0
 23 24  2  0  0  0  0
 13 20  1  0  0  0  0
 13 23  1  0  0  0  0
 20 21  1  0  0  0  0
 21 29  1  0  0  0  0
 21 50  1  0  0  0  0
 20 48  1  0  0  0  0
M  END
> <CID>
EN300-740100

> <SMILES>
Cc1ccncc1NC(=O)Cc2cc(cc(c2)Cl)OCCc3cn(nn3)C4COC4

> <RUN>
RUN3372

> <DDG (kcal/mol)>
-0.19

> <dDDG (kcal/mol)>
0.17

$$$$
EN300-1132820
  -OEChem-08252008263D

 59 62  0     1  0  0  0  0  0999 V2000
    7.7670    2.2150   26.1810 C   0  0  0  0  0  0  0  0  0  0  0  0
    7.8500    1.1630   27.1140 C   0  0  0  0  0  0  0  0  0  0  0  0
    8.8390    2.4480   25.2650 C   0  0  0  0  0  0  0  0  0  0  0  0
    5.7490    1.9720   20.0610 C   0  0  0  0  0  0  0  0  0  0  0  0
    9.9750    0.5480   26.2010 C   0  0  0  0  0  0  0  0  0  0  0  0
   10.3010   -0.3830   23.1660 C   0  0  0  0  0  0  0  0  0  0  0  0
   11.9560   -1.5220   21.8870 C   0  0  0  0  0  0  0  0  0  0  0  0
   12.5770    0.5250   23.1130 C   0  0  0  0  0  0  0  0  0  0  0  0
    5.4400    1.5990   18.8280 C   0  0  0  0  0  0  0  0  0  0  0  0
    7.0320   -0.1260   18.8810 C   0  0  0  0  0  0  0  0  0  0  0  0
    9.0050    0.3880   27.1340 C   0  0  0  0  0  0  0  0  0  0  0  0
    6.7620    1.3460   20.7590 C   0  0  0  0  0  0  0  0  0  0  0  0
   10.6220   -1.4410   22.3620 C   0  0  0  0  0  0  0  0  0  0  0  0
    7.4040    0.2410   20.1660 C   0  0  0  0  0  0  0  0  0  0  0  0
    9.9630    1.5870   25.2800 C   0  0  0  0  0  0  0  0  0  0  0  0
   11.2920    0.6300   23.5850 C   0  0  0  0  0  0  0  0  0  0  0  0
   12.9230   -0.5640   22.2950 C   0  0  0  0  0  0  0  0  0  0  0  0
    8.4980   -1.8480   21.0250 C   0  0  0  0  0  0  0  0  0  0  0  0
   10.1520   -0.6580   32.3860 C   0  0  0  0  0  0  0  0  0  0  0  0
    9.2210    0.3140   31.7870 C   0  0  0  0  0  0  0  0  0  0  0  0
   10.3220   -1.3360   31.0130 C   0  0  0  0  0  0  0  0  0  0  0  0
    9.7350   -0.0670   30.3760 C   0  0  0  0  0  0  0  0  0  0  0  0
    7.0800    1.8590   22.0550 C   0  0  0  0  0  0  0  0  0  0  0  0
    9.4920   -2.4660   21.9910 C   0  0  0  0  0  0  0  0  0  0  0  0
    8.4370   -1.9880   27.6830 C   0  0  0  0  0  0  0  0  0  0  0  0
    9.2310   -0.7780   28.1300 C   0  0  2  0  0  0  0  0  0  0  0  0
    6.0530    0.5490   18.1970 N   0  0  0  0  0  0  0  0  0  0  0  0
    8.4500   -0.4660   20.8500 N   0  0  0  0  0  0  0  0  0  0  0  0
    7.6790   -2.6300   20.5180 O   0  0  0  0  0  0  0  0  0  0  0  0
   10.9740    1.6880   24.3790 O   0  0  0  0  0  0  0  0  0  0  0  0
    8.6920   -0.3370   29.4200 O   0  0  0  0  0  0  0  0  0  0  0  0
   14.6040   -0.9020   21.8490 Cl  0  0  0  0  0  0  0  0  0  0  0  0
    9.3520   -3.1410   26.1230 I   0  0  0  0  0  0  0  0  0  0  0  0
    6.8650    2.8300   26.2070 H   0  0  0  0  0  0  0  0  0  0  0  0
    7.0760    1.0270   27.8720 H   0  0  0  0  0  0  0  0  0  0  0  0
    8.7180    3.3110   24.6260 H   0  0  0  0  0  0  0  0  0  0  0  0
    5.2890    2.8650   20.4610 H   0  0  0  0  0  0  0  0  0  0  0  0
   10.8220   -0.1200   26.0700 H   0  0  0  0  0  0  0  0  0  0  0  0
    9.2680   -0.2850   23.4900 H   0  0  0  0  0  0  0  0  0  0  0  0
   12.3530   -2.2590   21.2000 H   0  0  0  0  0  0  0  0  0  0  0  0
   13.3690    1.2360   23.3220 H   0  0  0  0  0  0  0  0  0  0  0  0
    4.7190    2.2670   18.3570 H   0  0  0  0  0  0  0  0  0  0  0  0
    7.4790   -0.9640   18.3530 H   0  0  0  0  0  0  0  0  0  0  0  0
   11.0910   -0.2170   32.7570 H   0  0  0  0  0  0  0  0  0  0  0  0
    9.7450   -1.3920   33.0980 H   0  0  0  0  0  0  0  0  0  0  0  0
    8.1760    0.1140   32.0590 H   0  0  0  0  0  0  0  0  0  0  0  0
    9.4880    1.3540   32.0160 H   0  0  0  0  0  0  0  0  0  0  0  0
   11.3740   -1.5180   30.7860 H   0  0  0  0  0  0  0  0  0  0  0  0
    9.6650   -2.1890   30.8100 H   0  0  0  0  0  0  0  0  0  0  0  0
   10.5460    0.5650   30.0060 H   0  0  0  0  0  0  0  0  0  0  0  0
    6.8630    2.9300   22.0810 H   0  0  0  0  0  0  0  0  0  0  0  0
    6.6400    1.4160   22.9500 H   0  0  0  0  0  0  0  0  0  0  0  0
    8.1660    1.7370   22.1600 H   0  0  0  0  0  0  0  0  0  0  0  0
    9.9400   -3.2970   21.4320 H   0  0  0  0  0  0  0  0  0  0  0  0
    9.0070   -2.8340   22.8970 H   0  0  0  0  0  0  0  0  0  0  0  0
    7.3980   -1.7850   27.4080 H   0  0  0  0  0  0  0  0  0  0  0  0
    8.3460   -2.5840   28.5930 H   0  0  0  0  0  0  0  0  0  0  0  0
   10.2590   -1.1510   28.2240 H   0  0  0  0  0  0  0  0  0  0  0  0
    8.6940    0.0650   21.6890 H   0  0  0  0  0  0  0  0  0  0  0  0
  9 27  2  0  0  0  0
 10 27  1  0  0  0  0
 10 43  1  0  0  0  0
  9 42  1  0  0  0  0
  4  9  1  0  0  0  0
 10 14  2  0  0  0  0
  4 37  1  0  0  0  0
  4 12  2  0  0  0  0
 12 14  1  0  0  0  0
 14 28  1  0  0  0  0
 18 29  2  0  0  0  0
 12 23  1  0  0  0  0
 18 28  1  0  0  0  0
 28 59  1  0  0  0  0
 18 24  1  0  0  0  0
  7 40  1  0  0  0  0
 24 54  1  0  0  0  0
 17 32  1  0  0  0  0
  7 17  2  0  0  0  0
  7 13  1  0  0  0  0
 13 24  1  0  0  0  0
 24 55  1  0  0  0  0
 23 51  1  0  0  0  0
 23 53  1  0  0  0  0
 23 52  1  0  0  0  0
  8 17  1  0  0  0  0
  6 13  2  0  0  0  0
  8 41  1  0  0  0  0
  8 16  2  0  0  0  0
  6 39  1  0  0  0  0
  6 16  1  0  0  0  0
 16 30  1  0  0  0  0
 15 30  1  0  0  0  0
  3 36  1  0  0  0  0
  3 15  2  0  0  0  0
  1  3  1  0  0  0  0
  5 15  1  0  0  0  0
  5 38  1  0  0  0  0
 25 33  1  0  0  0  0
  1 34  1  0  0  0  0
  1  2  2  0  0  0  0
  5 11  2  0  0  0  0
  2 11  1  0  0  0  0
  2 35  1  0  0  0  0
 11 26  1  0  0  0  0
 25 56  1  0  0  0  0
 25 26  1  0  0  0  0
 25 57  1  0  0  0  0
 26 58  1  0  0  0  0
 26 31  1  0  0  0  0
 22 31  1  0  0  0  0
 22 50  1  0  0  0  0
 21 22  1  0  0  0  0
 20 22  1  0  0  0  0
 21 48  1  0  0  0  0
 21 49  1  0  0  0  0
 19 21  1  0  0  0  0
 20 47  1  0  0  0  0
 20 46  1  0  0  0  0
 19 20  1  0  0  0  0
 19 44  1  0  0  0  0
 19 45  1  0  0  0  0
M  END
> <CID>
EN300-1132820

> <SMILES>
Cc1ccncc1NC(=O)Cc2cc(cc(c2)Cl)Oc3cccc(c3)[C@H](CI)OC4CCC4

> <RUN>
RUN546

> <DDG (kcal/mol)>
-0.19

> <dDDG (kcal/mol)>
0.14

$$$$
EN300-189792
  -OEChem-08252008263D

 40 41  0     0  0  0  0  0  0999 V2000
    5.0040    2.2920   17.6830 C   0  0  0  0  0  0  0  0  0  0  0  0
    9.5430   -0.2820   22.5380 C   0  0  0  0  0  0  0  0  0  0  0  0
    9.9980   -2.2590   21.2150 C   0  0  0  0  0  0  0  0  0  0  0  0
   11.8010   -1.0930   22.2840 C   0  0  0  0  0  0  0  0  0  0  0  0
    5.3120    1.7070   16.4660 C   0  0  0  0  0  0  0  0  0  0  0  0
    6.5540    0.0660   17.6210 C   0  0  0  0  0  0  0  0  0  0  0  0
    5.6000    1.9070   18.8870 C   0  0  0  0  0  0  0  0  0  0  0  0
    9.0670   -1.3260   21.7600 C   0  0  0  0  0  0  0  0  0  0  0  0
    6.4120    0.7400   18.8630 C   0  0  0  0  0  0  0  0  0  0  0  0
   10.9270   -0.1690   22.8860 C   0  0  0  0  0  0  0  0  0  0  0  0
   11.3450   -2.1380   21.4750 C   0  0  0  0  0  0  0  0  0  0  0  0
    7.1270   -1.0820   20.3570 C   0  0  0  0  0  0  0  0  0  0  0  0
    5.3400    2.7090   20.1260 C   0  0  0  0  0  0  0  0  0  0  0  0
    7.6460   -1.5270   21.6240 C   0  0  0  0  0  0  0  0  0  0  0  0
   12.8330    2.2300   25.1030 C   0  0  0  0  0  0  0  0  0  0  0  0
   12.6240    1.0510   24.1370 C   0  0  0  0  0  0  0  0  0  0  0  0
    5.9590    0.5250   16.4730 N   0  0  0  0  0  0  0  0  0  0  0  0
    6.9930    0.2210   20.0320 N   0  0  0  0  0  0  0  0  0  0  0  0
   11.9820    2.1160   26.3120 N   0  0  0  0  0  0  0  0  0  0  0  0
    6.5620   -1.8860   19.5310 O   0  0  0  0  0  0  0  0  0  0  0  0
   11.0590    2.8980   26.4120 O   0  0  0  0  0  0  0  0  0  0  0  0
   12.2600    1.2400   27.0950 O   0  0  0  0  0  0  0  0  0  0  0  0
   11.2500    0.9160   23.6830 O   0  0  0  0  0  0  0  0  0  0  0  0
   12.4510   -3.2660   20.6710 Cl  0  0  0  0  0  0  0  0  0  0  0  0
    4.5130    3.2650   17.6280 H   0  0  0  0  0  0  0  0  0  0  0  0
    8.9190    0.5110   22.9370 H   0  0  0  0  0  0  0  0  0  0  0  0
    9.6750   -3.1920   20.7580 H   0  0  0  0  0  0  0  0  0  0  0  0
   12.8790   -1.0020   22.2880 H   0  0  0  0  0  0  0  0  0  0  0  0
    4.8080    2.0390   15.5640 H   0  0  0  0  0  0  0  0  0  0  0  0
    7.0340   -0.9070   17.5660 H   0  0  0  0  0  0  0  0  0  0  0  0
    5.9230    2.4190   21.0010 H   0  0  0  0  0  0  0  0  0  0  0  0
    5.5390    3.7750   19.9750 H   0  0  0  0  0  0  0  0  0  0  0  0
    4.2770    2.6480   20.3940 H   0  0  0  0  0  0  0  0  0  0  0  0
    7.4440   -2.6010   21.6390 H   0  0  0  0  0  0  0  0  0  0  0  0
    7.1640   -1.1520   22.5290 H   0  0  0  0  0  0  0  0  0  0  0  0
   13.8830    2.0740   25.3830 H   0  0  0  0  0  0  0  0  0  0  0  0
   12.6420    3.1590   24.5540 H   0  0  0  0  0  0  0  0  0  0  0  0
   12.8620    0.1630   24.7350 H   0  0  0  0  0  0  0  0  0  0  0  0
   13.1840    1.0670   23.1980 H   0  0  0  0  0  0  0  0  0  0  0  0
    7.0800    0.8820   20.8030 H   0  0  0  0  0  0  0  0  0  0  0  0
  5 29  1  0  0  0  0
  5 17  2  0  0  0  0
  1  5  1  0  0  0  0
  6 17  1  0  0  0  0
  6 30  1  0  0  0  0
  6  9  2  0  0  0  0
  1 25  1  0  0  0  0
  1  7  2  0  0  0  0
  7  9  1  0  0  0  0
  9 18  1  0  0  0  0
  7 13  1  0  0  0  0
 12 20  2  0  0  0  0
 13 32  1  0  0  0  0
 12 18  1  0  0  0  0
 18 40  1  0  0  0  0
 13 33  1  0  0  0  0
 13 31  1  0  0  0  0
 12 14  1  0  0  0  0
 11 24  1  0  0  0  0
  3 27  1  0  0  0  0
  3 11  2  0  0  0  0
  3  8  1  0  0  0  0
  4 11  1  0  0  0  0
 14 34  1  0  0  0  0
  8 14  1  0  0  0  0
 14 35  1  0  0  0  0
  2  8  2  0  0  0  0
  4 28  1  0  0  0  0
  4 10  2  0  0  0  0
  2 10  1  0  0  0  0
  2 26  1  0  0  0  0
 10 23  1  0  0  0  0
 16 39  1  0  0  0  0
 16 23  1  0  0  0  0
 16 38  1  0  0  0  0
 15 16  1  0  0  0  0
 15 37  1  0  0  0  0
 15 36  1  0  0  0  0
 15 19  1  0  0  0  0
 19 21  2  0  0  0  0
 19 22  2  0  0  0  0
M  END
> <CID>
EN300-189792

> <SMILES>
Cc1ccncc1NC(=O)Cc2cc(cc(c2)Cl)OCCN(=O)=O

> <RUN>
RUN1898

> <DDG (kcal/mol)>
-0.19

> <dDDG (kcal/mol)>
0.10

$$$$
EN300-1910456
  -OEChem-08252008263D

 49 51  0     1  0  0  0  0  0999 V2000
    6.7430    1.8560   19.2460 C   0  0  0  0  0  0  0  0  0  0  0  0
    9.6260   -2.3290   23.2130 C   0  0  0  0  0  0  0  0  0  0  0  0
   11.4280   -2.1120   21.6690 C   0  0  0  0  0  0  0  0  0  0  0  0
    7.9520   -1.7710   26.6720 C   0  0  0  0  0  0  0  0  0  0  0  0
   11.5930   -1.0510   23.8230 C   0  0  0  0  0  0  0  0  0  0  0  0
    6.5440    1.6230   17.9010 C   0  0  0  0  0  0  0  0  0  0  0  0
    7.4680   -0.4940   18.1340 C   0  0  0  0  0  0  0  0  0  0  0  0
    7.4030    0.9510   20.1350 C   0  0  0  0  0  0  0  0  0  0  0  0
   10.2010   -2.6480   21.9610 C   0  0  0  0  0  0  0  0  0  0  0  0
    7.2290   -2.9180   27.1560 C   0  0  0  0  0  0  0  0  0  0  0  0
    7.7770   -0.3120   19.5270 C   0  0  0  0  0  0  0  0  0  0  0  0
   10.2870   -1.5030   24.1710 C   0  0  0  0  0  0  0  0  0  0  0  0
   12.1180   -1.3100   22.5790 C   0  0  0  0  0  0  0  0  0  0  0  0
    7.9610   -4.0180   26.7370 C   0  0  0  0  0  0  0  0  0  0  0  0
    8.9510   -2.2310   25.9220 C   0  0  0  0  0  0  0  0  0  0  0  0
    8.4310   -2.6210   20.1370 C   0  0  0  0  0  0  0  0  0  0  0  0
    7.7270    1.2580   21.6340 C   0  0  0  0  0  0  0  0  0  0  0  0
    5.9070   -2.9610   27.8810 C   0  0  0  0  0  0  0  0  0  0  0  0
    9.3810   -3.4890   20.9320 C   0  0  0  0  0  0  0  0  0  0  0  0
    6.8460   -5.9510   25.7600 C   0  0  0  0  0  0  0  0  0  0  0  0
    7.6100   -5.4670   26.9410 C   0  0  1  0  0  0  0  0  0  0  0  0
    6.8800    0.4790   17.3120 N   0  0  0  0  0  0  0  0  0  0  0  0
    8.3890   -1.2580   20.2960 N   0  0  0  0  0  0  0  0  0  0  0  0
    7.6180   -3.1930   19.3360 O   0  0  0  0  0  0  0  0  0  0  0  0
    9.0510   -3.5520   26.0720 O   0  0  0  0  0  0  0  0  0  0  0  0
    8.7800   -6.2630   27.3630 O   0  0  0  0  0  0  0  0  0  0  0  0
    9.8090   -1.2570   25.4240 O   0  0  0  0  0  0  0  0  0  0  0  0
   13.7830   -0.9620   22.1120 Cl  0  0  0  0  0  0  0  0  0  0  0  0
    7.8050   -5.9640   24.0200 Br  0  0  0  0  0  0  0  0  0  0  0  0
    6.2880    2.7970   19.5280 H   0  0  0  0  0  0  0  0  0  0  0  0
    8.6590   -2.7570   23.4760 H   0  0  0  0  0  0  0  0  0  0  0  0
   11.8970   -2.1770   20.6900 H   0  0  0  0  0  0  0  0  0  0  0  0
    7.6650   -0.7570   26.9110 H   0  0  0  0  0  0  0  0  0  0  0  0
   12.2270   -0.4490   24.4620 H   0  0  0  0  0  0  0  0  0  0  0  0
    6.0080    2.3920   17.3410 H   0  0  0  0  0  0  0  0  0  0  0  0
    7.4360   -1.5080   17.7590 H   0  0  0  0  0  0  0  0  0  0  0  0
    7.0860    0.7220   22.3400 H   0  0  0  0  0  0  0  0  0  0  0  0
    8.7520    0.9480   21.8770 H   0  0  0  0  0  0  0  0  0  0  0  0
    7.7390    2.3440   21.7450 H   0  0  0  0  0  0  0  0  0  0  0  0
    5.1360   -2.4920   27.2750 H   0  0  0  0  0  0  0  0  0  0  0  0
    5.5330   -3.9860   28.0280 H   0  0  0  0  0  0  0  0  0  0  0  0
    6.0380   -2.3770   28.7960 H   0  0  0  0  0  0  0  0  0  0  0  0
   10.0850   -3.9820   20.2550 H   0  0  0  0  0  0  0  0  0  0  0  0
    8.8700   -4.2780   21.4860 H   0  0  0  0  0  0  0  0  0  0  0  0
    5.9360   -5.3470   25.6810 H   0  0  0  0  0  0  0  0  0  0  0  0
    6.4930   -6.9630   25.9550 H   0  0  0  0  0  0  0  0  0  0  0  0
    6.8450   -5.5850   27.7210 H   0  0  0  0  0  0  0  0  0  0  0  0
    8.9110   -0.8350   21.0700 H   0  0  0  0  0  0  0  0  0  0  0  0
    9.3710   -6.3110   26.5790 H   0  0  0  0  0  0  0  0  0  0  0  0
  6 22  2  0  0  0  0
  7 22  1  0  0  0  0
  6 35  1  0  0  0  0
  7 36  1  0  0  0  0
  1  6  1  0  0  0  0
  7 11  2  0  0  0  0
  1 30  1  0  0  0  0
  1  8  2  0  0  0  0
 16 24  2  0  0  0  0
  8 11  1  0  0  0  0
 11 23  1  0  0  0  0
  8 17  1  0  0  0  0
 16 23  1  0  0  0  0
 16 19  1  0  0  0  0
 19 43  1  0  0  0  0
 23 48  1  0  0  0  0
  3 32  1  0  0  0  0
 19 44  1  0  0  0  0
  9 19  1  0  0  0  0
 17 39  1  0  0  0  0
 17 38  1  0  0  0  0
 17 37  1  0  0  0  0
  3  9  2  0  0  0  0
  3 13  1  0  0  0  0
  2  9  1  0  0  0  0
 13 28  1  0  0  0  0
  5 13  2  0  0  0  0
  2 31  1  0  0  0  0
  2 12  2  0  0  0  0
  5 12  1  0  0  0  0
  5 34  1  0  0  0  0
 20 29  1  0  0  0  0
 12 27  1  0  0  0  0
 15 27  1  0  0  0  0
 20 45  1  0  0  0  0
 20 46  1  0  0  0  0
 20 21  1  0  0  0  0
 15 25  1  0  0  0  0
  4 15  2  0  0  0  0
 14 25  1  0  0  0  0
 26 49  1  0  0  0  0
  4 33  1  0  0  0  0
  4 10  1  0  0  0  0
 14 21  1  0  0  0  0
 10 14  2  0  0  0  0
 21 26  1  0  0  0  0
 21 47  1  0  0  0  0
 10 18  1  0  0  0  0
 18 40  1  0  0  0  0
 18 41  1  0  0  0  0
 18 42  1  0  0  0  0
M  END
> <CID>
EN300-1910456

> <SMILES>
Cc1ccncc1NC(=O)Cc2cc(cc(c2)Cl)Oc3cc(c(o3)[C@@H](CBr)O)C

> <RUN>
RUN77

> <DDG (kcal/mol)>
-0.18

> <dDDG (kcal/mol)>
0.16

$$$$
EN300-840854
  -OEChem-08252008263D

 56 59  0     0  0  0  0  0  0999 V2000
   12.4600    5.4930   30.3020 C   0  0  0  0  0  0  0  0  0  0  0  0
   13.5740    5.7930   31.1140 C   0  0  0  0  0  0  0  0  0  0  0  0
    4.0050    0.7620   19.5790 C   0  0  0  0  0  0  0  0  0  0  0  0
   10.0070   -0.1980   24.1610 C   0  0  0  0  0  0  0  0  0  0  0  0
   10.9930   -1.6980   22.4840 C   0  0  0  0  0  0  0  0  0  0  0  0
   12.3160   -0.2600   23.7950 C   0  0  0  0  0  0  0  0  0  0  0  0
    4.4610    0.6580   18.2560 C   0  0  0  0  0  0  0  0  0  0  0  0
    6.1580   -0.7790   19.0760 C   0  0  0  0  0  0  0  0  0  0  0  0
   11.8780    6.5650   29.6170 C   0  0  0  0  0  0  0  0  0  0  0  0
    4.6630    0.1970   20.6150 C   0  0  0  0  0  0  0  0  0  0  0  0
    9.8550   -1.2200   23.1270 C   0  0  0  0  0  0  0  0  0  0  0  0
    5.8320   -0.5600   20.4010 C   0  0  0  0  0  0  0  0  0  0  0  0
   11.2450    0.2540   24.5520 C   0  0  0  0  0  0  0  0  0  0  0  0
   12.2060   -1.2530   22.8470 C   0  0  0  0  0  0  0  0  0  0  0  0
   10.9130    3.3820   26.5510 C   0  0  0  0  0  0  0  0  0  0  0  0
   10.2130    4.1250   27.4750 C   0  0  0  0  0  0  0  0  0  0  0  0
   14.1340    7.0900   31.1540 C   0  0  0  0  0  0  0  0  0  0  0  0
   12.3930    7.8950   29.8090 C   0  0  0  0  0  0  0  0  0  0  0  0
    7.8740   -1.1460   21.6190 C   0  0  0  0  0  0  0  0  0  0  0  0
    4.3260    0.6680   21.9740 C   0  0  0  0  0  0  0  0  0  0  0  0
    8.8670    3.9220   28.1400 C   0  0  0  0  0  0  0  0  0  0  0  0
    8.4570   -1.6940   22.8900 C   0  0  0  0  0  0  0  0  0  0  0  0
   10.7430    6.2900   28.6840 C   0  0  0  0  0  0  0  0  0  0  0  0
   10.4740    2.1700   25.7720 C   0  0  0  0  0  0  0  0  0  0  0  0
    5.5400   -0.1730   18.0240 N   0  0  0  0  0  0  0  0  0  0  0  0
   12.1580    4.0510   26.3630 N   0  0  0  0  0  0  0  0  0  0  0  0
   13.5030    8.1160   30.5260 N   0  0  0  0  0  0  0  0  0  0  0  0
   12.2070    5.1090   27.0700 N   0  0  0  0  0  0  0  0  0  0  0  0
   11.1040    5.1420   27.7820 N   0  0  0  0  0  0  0  0  0  0  0  0
    6.4610   -1.2520   21.4380 N   0  0  0  0  0  0  0  0  0  0  0  0
    8.5630   -0.5480   20.8130 O   0  0  0  0  0  0  0  0  0  0  0  0
   11.5130    1.2210   25.5000 O   0  0  0  0  0  0  0  0  0  0  0  0
   15.2780    7.1830   31.9080 F   0  0  0  0  0  0  0  0  0  0  0  0
   13.6230   -1.8260   22.0790 Cl  0  0  0  0  0  0  0  0  0  0  0  0
   11.8630    9.3130   28.6240 Br  0  0  0  0  0  0  0  0  0  0  0  0
   12.0940    4.4760   30.1880 H   0  0  0  0  0  0  0  0  0  0  0  0
   14.0190    5.1040   31.8130 H   0  0  0  0  0  0  0  0  0  0  0  0
    3.1600    1.4290   19.7150 H   0  0  0  0  0  0  0  0  0  0  0  0
    9.1880    0.3180   24.6480 H   0  0  0  0  0  0  0  0  0  0  0  0
   10.8400   -2.4300   21.7020 H   0  0  0  0  0  0  0  0  0  0  0  0
   13.3060    0.1480   23.9760 H   0  0  0  0  0  0  0  0  0  0  0  0
    3.9050    1.0840   17.4230 H   0  0  0  0  0  0  0  0  0  0  0  0
    6.9810   -1.4050   18.7470 H   0  0  0  0  0  0  0  0  0  0  0  0
    4.6430    1.7120   22.0290 H   0  0  0  0  0  0  0  0  0  0  0  0
    3.2580    0.5370   22.1720 H   0  0  0  0  0  0  0  0  0  0  0  0
    4.9440    0.1380   22.7090 H   0  0  0  0  0  0  0  0  0  0  0  0
    8.9450    3.6450   29.1990 H   0  0  0  0  0  0  0  0  0  0  0  0
    8.1340    4.7100   27.9490 H   0  0  0  0  0  0  0  0  0  0  0  0
    8.4590    2.9480   27.8260 H   0  0  0  0  0  0  0  0  0  0  0  0
    8.6030   -2.7810   22.8440 H   0  0  0  0  0  0  0  0  0  0  0  0
    7.7490   -1.4850   23.6920 H   0  0  0  0  0  0  0  0  0  0  0  0
   10.4810    7.1640   28.1000 H   0  0  0  0  0  0  0  0  0  0  0  0
    9.8510    6.0270   29.2600 H   0  0  0  0  0  0  0  0  0  0  0  0
    9.7860    1.5420   26.3480 H   0  0  0  0  0  0  0  0  0  0  0  0
    9.9470    2.5120   24.8820 H   0  0  0  0  0  0  0  0  0  0  0  0
    5.9220   -1.4790   22.2770 H   0  0  0  0  0  0  0  0  0  0  0  0
  7 42  1  0  0  0  0
  7 25  2  0  0  0  0
  8 25  1  0  0  0  0
  3  7  1  0  0  0  0
  8 43  1  0  0  0  0
  8 12  2  0  0  0  0
  3 38  1  0  0  0  0
  3 10  2  0  0  0  0
 10 12  1  0  0  0  0
 12 30  1  0  0  0  0
 10 20  1  0  0  0  0
 19 31  2  0  0  0  0
 19 30  1  0  0  0  0
 30 56  1  0  0  0  0
 19 22  1  0  0  0  0
  5 40  1  0  0  0  0
 20 44  1  0  0  0  0
 20 45  1  0  0  0  0
 20 46  1  0  0  0  0
 14 34  1  0  0  0  0
  5 14  2  0  0  0  0
  5 11  1  0  0  0  0
 22 50  1  0  0  0  0
  6 14  1  0  0  0  0
 11 22  1  0  0  0  0
 22 51  1  0  0  0  0
  4 11  2  0  0  0  0
  6 41  1  0  0  0  0
  6 13  2  0  0  0  0
  4 13  1  0  0  0  0
  4 39  1  0  0  0  0
 13 32  1  0  0  0  0
 24 55  1  0  0  0  0
 24 32  1  0  0  0  0
 24 54  1  0  0  0  0
 15 24  1  0  0  0  0
 15 26  1  0  0  0  0
 26 28  2  0  0  0  0
 15 16  2  0  0  0  0
 28 29  1  0  0  0  0
 16 29  1  0  0  0  0
 16 21  1  0  0  0  0
 23 29  1  0  0  0  0
 21 49  1  0  0  0  0
 21 48  1  0  0  0  0
 23 52  1  0  0  0  0
 21 47  1  0  0  0  0
 18 35  1  0  0  0  0
 23 53  1  0  0  0  0
  9 23  1  0  0  0  0
  9 18  2  0  0  0  0
  1  9  1  0  0  0  0
 18 27  1  0  0  0  0
  1 36  1  0  0  0  0
  1  2  2  0  0  0  0
 17 27  2  0  0  0  0
  2 17  1  0  0  0  0
  2 37  1  0  0  0  0
 17 33  1  0  0  0  0
M  END
> <CID>
EN300-840854

> <SMILES>
Cc1ccncc1NC(=O)Cc2cc(cc(c2)Cl)OCc3c(n(nn3)Cc4ccc(nc4Br)F)C

> <RUN>
RUN1094

> <DDG (kcal/mol)>
-0.18

> <dDDG (kcal/mol)>
0.16

$$$$
EN300-1145382
  -OEChem-08252008263D

 57 59  0     0  0  0  0  0  0999 V2000
    5.3750    3.0200   18.5920 C   0  0  0  0  0  0  0  0  0  0  0  0
   12.5630    3.4890   26.3430 C   0  0  0  0  0  0  0  0  0  0  0  0
    9.2440   -0.2770   23.2660 C   0  0  0  0  0  0  0  0  0  0  0  0
   10.2510   -1.6900   21.5700 C   0  0  0  0  0  0  0  0  0  0  0  0
   11.6110   -0.3010   22.8710 C   0  0  0  0  0  0  0  0  0  0  0  0
    5.4440    2.4650   17.2770 C   0  0  0  0  0  0  0  0  0  0  0  0
   11.5430    4.1780   28.3070 C   0  0  0  0  0  0  0  0  0  0  0  0
    6.3490    0.5280   18.0310 C   0  0  0  0  0  0  0  0  0  0  0  0
    5.8650    2.2900   19.6500 C   0  0  0  0  0  0  0  0  0  0  0  0
   12.4560    4.4000   27.3040 C   0  0  0  0  0  0  0  0  0  0  0  0
   11.8100    2.3330   26.4110 C   0  0  0  0  0  0  0  0  0  0  0  0
    9.0890   -1.1570   22.1690 C   0  0  0  0  0  0  0  0  0  0  0  0
    6.3240    1.0270   19.3980 C   0  0  0  0  0  0  0  0  0  0  0  0
   10.5180    0.2610   23.6520 C   0  0  0  0  0  0  0  0  0  0  0  0
   11.5410   -1.2890   21.9070 C   0  0  0  0  0  0  0  0  0  0  0  0
   10.8710    2.2060   27.4840 C   0  0  0  0  0  0  0  0  0  0  0  0
   10.1060    0.9460   27.5750 C   0  0  0  0  0  0  0  0  0  0  0  0
    7.2950   -1.0860   20.4560 C   0  0  0  0  0  0  0  0  0  0  0  0
    5.8300    2.9820   21.0330 C   0  0  0  0  0  0  0  0  0  0  0  0
    7.9580   -0.1420   27.5850 C   0  0  0  0  0  0  0  0  0  0  0  0
   14.8890    6.3880   29.0350 C   0  0  0  0  0  0  0  0  0  0  0  0
    7.7430   -1.7290   21.7450 C   0  0  0  0  0  0  0  0  0  0  0  0
   13.2490    5.6960   27.3370 C   0  0  0  0  0  0  0  0  0  0  0  0
   11.9340    1.2890   25.3190 C   0  0  0  0  0  0  0  0  0  0  0  0
    5.9670    1.3020   16.9900 N   0  0  0  0  0  0  0  0  0  0  0  0
   10.7680    3.1540   28.4630 N   0  0  0  0  0  0  0  0  0  0  0  0
    6.7650    0.2160   20.4850 N   0  0  0  0  0  0  0  0  0  0  0  0
   10.6970   -0.1250   27.8080 O   0  0  0  0  0  0  0  0  0  0  0  0
    6.9700   -1.7960   19.5180 O   0  0  0  0  0  0  0  0  0  0  0  0
   10.6180    1.2520   24.6320 O   0  0  0  0  0  0  0  0  0  0  0  0
    8.7640    1.0640   27.3600 O   0  0  0  0  0  0  0  0  0  0  0  0
   14.4110    5.3470   28.1220 O   0  0  0  0  0  0  0  0  0  0  0  0
   12.9300   -2.0940   21.3280 Cl  0  0  0  0  0  0  0  0  0  0  0  0
    5.0820    4.0560   18.7170 H   0  0  0  0  0  0  0  0  0  0  0  0
   13.2550    3.5370   25.5100 H   0  0  0  0  0  0  0  0  0  0  0  0
    8.3360    0.1030   23.7140 H   0  0  0  0  0  0  0  0  0  0  0  0
   10.1920   -2.5070   20.8500 H   0  0  0  0  0  0  0  0  0  0  0  0
   12.6260    0.0240   23.1050 H   0  0  0  0  0  0  0  0  0  0  0  0
    4.9900    3.0410   16.4800 H   0  0  0  0  0  0  0  0  0  0  0  0
   11.3480    4.9590   29.0370 H   0  0  0  0  0  0  0  0  0  0  0  0
    6.7970   -0.4280   17.7930 H   0  0  0  0  0  0  0  0  0  0  0  0
    6.8500    2.8610   21.4060 H   0  0  0  0  0  0  0  0  0  0  0  0
    5.5280    4.0300   21.0960 H   0  0  0  0  0  0  0  0  0  0  0  0
    5.1770    2.4400   21.7260 H   0  0  0  0  0  0  0  0  0  0  0  0
    8.4320   -0.5910   28.4560 H   0  0  0  0  0  0  0  0  0  0  0  0
    8.0350   -0.8220   26.7350 H   0  0  0  0  0  0  0  0  0  0  0  0
    6.9120    0.1340   27.7450 H   0  0  0  0  0  0  0  0  0  0  0  0
   14.0720    6.6190   29.7230 H   0  0  0  0  0  0  0  0  0  0  0  0
   15.1410    7.3000   28.4900 H   0  0  0  0  0  0  0  0  0  0  0  0
   15.7460    6.0310   29.5990 H   0  0  0  0  0  0  0  0  0  0  0  0
    7.8530   -2.8090   21.5600 H   0  0  0  0  0  0  0  0  0  0  0  0
    6.9880   -1.6990   22.5370 H   0  0  0  0  0  0  0  0  0  0  0  0
   12.7070    6.5080   27.8240 H   0  0  0  0  0  0  0  0  0  0  0  0
   13.5950    5.9580   26.3300 H   0  0  0  0  0  0  0  0  0  0  0  0
   12.7440    1.5610   24.6340 H   0  0  0  0  0  0  0  0  0  0  0  0
   12.1650    0.3530   25.8360 H   0  0  0  0  0  0  0  0  0  0  0  0
    6.8810    0.6080   21.4190 H   0  0  0  0  0  0  0  0  0  0  0  0
  6 39  1  0  0  0  0
  6 25  2  0  0  0  0
  8 25  1  0  0  0  0
  1  6  1  0  0  0  0
  8 41  1  0  0  0  0
  8 13  2  0  0  0  0
  1 34  1  0  0  0  0
  1  9  2  0  0  0  0
  9 13  1  0  0  0  0
 13 27  1  0  0  0  0
 18 29  2  0  0  0  0
  9 19  1  0  0  0  0
 18 27  1  0  0  0  0
 18 22  1  0  0  0  0
 27 57  1  0  0  0  0
  4 37  1  0  0  0  0
 19 43  1  0  0  0  0
 19 42  1  0  0  0  0
 19 44  1  0  0  0  0
 15 33  1  0  0  0  0
 22 51  1  0  0  0  0
  4 15  2  0  0  0  0
  4 12  1  0  0  0  0
 12 22  1  0  0  0  0
 22 52  1  0  0  0  0
  5 15  1  0  0  0  0
  3 12  2  0  0  0  0
  5 38  1  0  0  0  0
  5 14  2  0  0  0  0
  3 14  1  0  0  0  0
  3 36  1  0  0  0  0
 14 30  1  0  0  0  0
 24 30  1  0  0  0  0
 24 55  1  0  0  0  0
 24 56  1  0  0  0  0
 11 24  1  0  0  0  0
  2 35  1  0  0  0  0
 23 54  1  0  0  0  0
  2 11  2  0  0  0  0
  2 10  1  0  0  0  0
 11 16  1  0  0  0  0
 20 46  1  0  0  0  0
 10 23  1  0  0  0  0
  7 10  2  0  0  0  0
 23 53  1  0  0  0  0
 23 32  1  0  0  0  0
 17 31  1  0  0  0  0
 20 31  1  0  0  0  0
 16 17  1  0  0  0  0
 16 26  2  0  0  0  0
 17 28  2  0  0  0  0
 20 47  1  0  0  0  0
 20 45  1  0  0  0  0
 21 32  1  0  0  0  0
  7 26  1  0  0  0  0
  7 40  1  0  0  0  0
 21 49  1  0  0  0  0
 21 50  1  0  0  0  0
 21 48  1  0  0  0  0
M  END
> <CID>
EN300-1145382

> <SMILES>
Cc1ccncc1NC(=O)Cc2cc(cc(c2)Cl)OCc3cc(cnc3C(=O)OC)COC

> <RUN>
RUN4276

> <DDG (kcal/mol)>
-0.18

> <dDDG (kcal/mol)>
0.17

$$$$
EN300-1913480
  -OEChem-08252008263D

 59 62  0     0  0  0  0  0  0999 V2000
   15.1650    2.6350   24.4220 C   0  0  0  0  0  0  0  0  0  0  0  0
   14.8690    1.3180   24.8080 C   0  0  0  0  0  0  0  0  0  0  0  0
    7.2350   -6.2500   22.9430 C   0  0  0  0  0  0  0  0  0  0  0  0
   11.1690   -0.6980   24.1470 C   0  0  0  0  0  0  0  0  0  0  0  0
   11.5920   -1.5800   22.0100 C   0  0  0  0  0  0  0  0  0  0  0  0
   13.2660   -1.7100   23.6830 C   0  0  0  0  0  0  0  0  0  0  0  0
   14.6360    3.6450   25.2210 C   0  0  0  0  0  0  0  0  0  0  0  0
    6.3310   -6.2640   21.9260 C   0  0  0  0  0  0  0  0  0  0  0  0
    6.7600   -4.1610   21.3300 C   0  0  0  0  0  0  0  0  0  0  0  0
   14.1910    1.0210   26.0000 C   0  0  0  0  0  0  0  0  0  0  0  0
    7.9530   -5.0680   23.1990 C   0  0  0  0  0  0  0  0  0  0  0  0
   10.7600   -0.8960   22.8600 C   0  0  0  0  0  0  0  0  0  0  0  0
    7.7420   -3.9740   22.3210 C   0  0  0  0  0  0  0  0  0  0  0  0
   12.3910   -1.1410   24.6200 C   0  0  0  0  0  0  0  0  0  0  0  0
   12.8760   -1.8820   22.3780 C   0  0  0  0  0  0  0  0  0  0  0  0
   13.7090    2.0960   26.7460 C   0  0  0  0  0  0  0  0  0  0  0  0
    8.3440   -1.5020   22.1970 C   0  0  0  0  0  0  0  0  0  0  0  0
   11.2670    1.3960   30.1970 C   0  0  0  0  0  0  0  0  0  0  0  0
   12.7780    1.9030   30.3090 C   0  0  0  0  0  0  0  0  0  0  0  0
   11.0750    0.6350   28.8640 C   0  0  0  0  0  0  0  0  0  0  0  0
   13.2090    2.7300   29.0880 C   0  0  0  0  0  0  0  0  0  0  0  0
   11.4780    1.5670   27.7140 C   0  0  0  0  0  0  0  0  0  0  0  0
    9.1280   -5.1620   24.1290 C   0  0  0  0  0  0  0  0  0  0  0  0
    9.3410   -0.4320   22.4580 C   0  0  0  0  0  0  0  0  0  0  0  0
   13.9940   -0.4570   26.3730 C   0  0  0  0  0  0  0  0  0  0  0  0
    6.0890   -5.2420   21.0850 N   0  0  0  0  0  0  0  0  0  0  0  0
   14.0040    3.3760   26.3830 N   0  0  0  0  0  0  0  0  0  0  0  0
   12.9380    1.9020   27.8940 N   0  0  0  0  0  0  0  0  0  0  0  0
    8.6100   -2.8250   22.4290 N   0  0  0  0  0  0  0  0  0  0  0  0
    7.2820   -1.1560   21.7080 O   0  0  0  0  0  0  0  0  0  0  0  0
   12.6740   -0.8840   25.9150 O   0  0  0  0  0  0  0  0  0  0  0  0
   14.0380   -2.5420   21.2000 Cl  0  0  0  0  0  0  0  0  0  0  0  0
   15.7610    2.8720   23.5470 H   0  0  0  0  0  0  0  0  0  0  0  0
   15.1690    0.5500   24.1000 H   0  0  0  0  0  0  0  0  0  0  0  0
    7.3930   -7.1690   23.4900 H   0  0  0  0  0  0  0  0  0  0  0  0
   10.5810   -0.2310   24.9280 H   0  0  0  0  0  0  0  0  0  0  0  0
   11.3550   -1.7120   20.9640 H   0  0  0  0  0  0  0  0  0  0  0  0
   14.2180   -2.1490   23.9610 H   0  0  0  0  0  0  0  0  0  0  0  0
   14.7500    4.6840   24.9460 H   0  0  0  0  0  0  0  0  0  0  0  0
    5.6870   -7.1300   21.7690 H   0  0  0  0  0  0  0  0  0  0  0  0
    6.6790   -3.4410   20.5080 H   0  0  0  0  0  0  0  0  0  0  0  0
   10.9530    0.8410   31.0810 H   0  0  0  0  0  0  0  0  0  0  0  0
   10.6020    2.2600   30.1310 H   0  0  0  0  0  0  0  0  0  0  0  0
   12.9300    2.6470   31.0900 H   0  0  0  0  0  0  0  0  0  0  0  0
   13.4710    1.0880   30.5090 H   0  0  0  0  0  0  0  0  0  0  0  0
   11.6440   -0.3010   28.8850 H   0  0  0  0  0  0  0  0  0  0  0  0
   10.0200    0.4180   28.6870 H   0  0  0  0  0  0  0  0  0  0  0  0
   12.6010    3.6420   29.0790 H   0  0  0  0  0  0  0  0  0  0  0  0
   14.2560    3.0370   29.1070 H   0  0  0  0  0  0  0  0  0  0  0  0
   11.4250    1.0200   26.7680 H   0  0  0  0  0  0  0  0  0  0  0  0
   10.9070    2.4750   27.5200 H   0  0  0  0  0  0  0  0  0  0  0  0
    9.9310   -5.7630   23.6870 H   0  0  0  0  0  0  0  0  0  0  0  0
    9.5420   -4.1790   24.3800 H   0  0  0  0  0  0  0  0  0  0  0  0
    8.8870   -5.6850   25.0500 H   0  0  0  0  0  0  0  0  0  0  0  0
    9.0500    0.2660   23.2400 H   0  0  0  0  0  0  0  0  0  0  0  0
    9.3840    0.0700   21.4870 H   0  0  0  0  0  0  0  0  0  0  0  0
   14.8240   -0.9790   25.9060 H   0  0  0  0  0  0  0  0  0  0  0  0
   14.0250   -0.6130   27.4520 H   0  0  0  0  0  0  0  0  0  0  0  0
    9.5110   -2.8310   22.9080 H   0  0  0  0  0  0  0  0  0  0  0  0
  9 41  1  0  0  0  0
  5 37  1  0  0  0  0
  9 26  2  0  0  0  0
  8 26  1  0  0  0  0
 15 32  1  0  0  0  0
  9 13  1  0  0  0  0
 24 56  1  0  0  0  0
 17 30  2  0  0  0  0
  8 40  1  0  0  0  0
  3  8  2  0  0  0  0
  5 15  2  0  0  0  0
  5 12  1  0  0  0  0
 17 29  1  0  0  0  0
 17 24  1  0  0  0  0
 13 29  1  0  0  0  0
 11 13  2  0  0  0  0
  6 15  1  0  0  0  0
 29 59  1  0  0  0  0
 12 24  1  0  0  0  0
 24 55  1  0  0  0  0
  4 12  2  0  0  0  0
  3 11  1  0  0  0  0
  3 35  1  0  0  0  0
 11 23  1  0  0  0  0
  1 33  1  0  0  0  0
  6 38  1  0  0  0  0
  6 14  2  0  0  0  0
 23 52  1  0  0  0  0
  2 34  1  0  0  0  0
 23 53  1  0  0  0  0
 23 54  1  0  0  0  0
  4 14  1  0  0  0  0
  4 36  1  0  0  0  0
  1  2  2  0  0  0  0
  1  7  1  0  0  0  0
 14 31  1  0  0  0  0
  2 10  1  0  0  0  0
  7 39  1  0  0  0  0
  7 27  2  0  0  0  0
 25 57  1  0  0  0  0
 25 31  1  0  0  0  0
 10 25  1  0  0  0  0
 10 16  2  0  0  0  0
 25 58  1  0  0  0  0
 16 27  1  0  0  0  0
 16 28  1  0  0  0  0
 22 50  1  0  0  0  0
 22 51  1  0  0  0  0
 22 28  1  0  0  0  0
 20 22  1  0  0  0  0
 21 28  1  0  0  0  0
 20 47  1  0  0  0  0
 20 46  1  0  0  0  0
 18 20  1  0  0  0  0
 21 48  1  0  0  0  0
 21 49  1  0  0  0  0
 19 21  1  0  0  0  0
 18 43  1  0  0  0  0
 18 19  1  0  0  0  0
 18 42  1  0  0  0  0
 19 45  1  0  0  0  0
 19 44  1  0  0  0  0
M  END
> <CID>
EN300-1913480

> <SMILES>
Cc1ccncc1NC(=O)Cc2cc(cc(c2)Cl)OCc3cccnc3N4CCCCC4

> <RUN>
RUN3408

> <DDG (kcal/mol)>
-0.18

> <dDDG (kcal/mol)>
0.17

$$$$
EN300-1895232
  -OEChem-08252008263D

 44 46  0     0  0  0  0  0  0999 V2000
    6.4230    2.0260   19.6020 C   0  0  0  0  0  0  0  0  0  0  0  0
   10.3130   -2.3540   23.0020 C   0  0  0  0  0  0  0  0  0  0  0  0
   11.4180   -3.0110   20.9180 C   0  0  0  0  0  0  0  0  0  0  0  0
   12.7140   -1.9390   22.5410 C   0  0  0  0  0  0  0  0  0  0  0  0
   12.4350    2.6780   22.7550 C   0  0  0  0  0  0  0  0  0  0  0  0
    6.1560    1.7210   18.2790 C   0  0  0  0  0  0  0  0  0  0  0  0
    7.1520   -0.3220   18.4400 C   0  0  0  0  0  0  0  0  0  0  0  0
   14.7480    1.9060   22.8910 C   0  0  0  0  0  0  0  0  0  0  0  0
    7.0870    1.1160   20.4490 C   0  0  0  0  0  0  0  0  0  0  0  0
   10.2260   -2.8400   21.7290 C   0  0  0  0  0  0  0  0  0  0  0  0
    7.4840   -0.1120   19.8410 C   0  0  0  0  0  0  0  0  0  0  0  0
   11.5420   -1.7930   23.4510 C   0  0  0  0  0  0  0  0  0  0  0  0
   12.6030   -2.4910   21.2930 C   0  0  0  0  0  0  0  0  0  0  0  0
   13.7910    2.7870   22.3770 C   0  0  0  0  0  0  0  0  0  0  0  0
   12.1270    1.7290   23.7490 C   0  0  0  0  0  0  0  0  0  0  0  0
   13.1100    0.7780   24.1070 C   0  0  0  0  0  0  0  0  0  0  0  0
    8.0630   -2.4370   20.4480 C   0  0  0  0  0  0  0  0  0  0  0  0
    7.3980    1.4670   21.8590 C   0  0  0  0  0  0  0  0  0  0  0  0
    8.8410   -3.3640   21.3940 C   0  0  0  0  0  0  0  0  0  0  0  0
   12.8330   -0.3860   25.0270 C   0  0  0  0  0  0  0  0  0  0  0  0
    6.5190    0.6160   17.7100 N   0  0  0  0  0  0  0  0  0  0  0  0
   14.4250    0.9590   23.7790 N   0  0  0  0  0  0  0  0  0  0  0  0
    8.2000   -1.0860   20.6180 N   0  0  0  0  0  0  0  0  0  0  0  0
    7.2520   -2.9490   19.7060 O   0  0  0  0  0  0  0  0  0  0  0  0
   11.6770   -1.2020   24.7280 O   0  0  0  0  0  0  0  0  0  0  0  0
   13.9670   -2.6670   20.3790 Cl  0  0  0  0  0  0  0  0  0  0  0  0
   14.2820    3.9450   21.1250 Cl  0  0  0  0  0  0  0  0  0  0  0  0
   10.5710    1.4850   24.2980 Cl  0  0  0  0  0  0  0  0  0  0  0  0
    6.1230    2.9860   19.9870 H   0  0  0  0  0  0  0  0  0  0  0  0
    9.4830   -2.3850   23.7050 H   0  0  0  0  0  0  0  0  0  0  0  0
   11.3120   -3.5800   19.9930 H   0  0  0  0  0  0  0  0  0  0  0  0
   13.6950   -1.5550   22.8320 H   0  0  0  0  0  0  0  0  0  0  0  0
   11.6140    3.2670   22.3570 H   0  0  0  0  0  0  0  0  0  0  0  0
    5.6630    2.5770   17.8210 H   0  0  0  0  0  0  0  0  0  0  0  0
    7.4220   -1.2520   17.9470 H   0  0  0  0  0  0  0  0  0  0  0  0
   15.7620    2.1570   22.5890 H   0  0  0  0  0  0  0  0  0  0  0  0
    8.4710    1.5060   22.0620 H   0  0  0  0  0  0  0  0  0  0  0  0
    6.9250    2.4200   22.0960 H   0  0  0  0  0  0  0  0  0  0  0  0
    7.1040    0.6690   22.5480 H   0  0  0  0  0  0  0  0  0  0  0  0
    8.9500   -4.3580   20.9540 H   0  0  0  0  0  0  0  0  0  0  0  0
    8.3060   -3.6920   22.2830 H   0  0  0  0  0  0  0  0  0  0  0  0
   13.6250   -1.1330   25.0320 H   0  0  0  0  0  0  0  0  0  0  0  0
   12.8010   -0.0200   26.0630 H   0  0  0  0  0  0  0  0  0  0  0  0
    8.5170   -0.7470   21.5200 H   0  0  0  0  0  0  0  0  0  0  0  0
  6 21  2  0  0  0  0
  7 21  1  0  0  0  0
  6 34  1  0  0  0  0
  7 35  1  0  0  0  0
  1  6  1  0  0  0  0
  7 11  2  0  0  0  0
  1 29  1  0  0  0  0
  1  9  2  0  0  0  0
 17 24  2  0  0  0  0
  9 11  1  0  0  0  0
 11 23  1  0  0  0  0
  3 31  1  0  0  0  0
 13 26  1  0  0  0  0
 17 23  1  0  0  0  0
 17 19  1  0  0  0  0
  9 18  1  0  0  0  0
 23 44  1  0  0  0  0
  3 13  2  0  0  0  0
  3 10  1  0  0  0  0
 19 40  1  0  0  0  0
 14 27  1  0  0  0  0
  4 13  1  0  0  0  0
 10 19  1  0  0  0  0
 19 41  1  0  0  0  0
  2 10  2  0  0  0  0
 18 37  1  0  0  0  0
 18 38  1  0  0  0  0
 18 39  1  0  0  0  0
  5 33  1  0  0  0  0
  5 14  2  0  0  0  0
  8 14  1  0  0  0  0
  4 32  1  0  0  0  0
  4 12  2  0  0  0  0
  8 36  1  0  0  0  0
  5 15  1  0  0  0  0
  8 22  2  0  0  0  0
  2 12  1  0  0  0  0
  2 30  1  0  0  0  0
 12 25  1  0  0  0  0
 15 16  2  0  0  0  0
 15 28  1  0  0  0  0
 16 22  1  0  0  0  0
 16 20  1  0  0  0  0
 20 25  1  0  0  0  0
 20 42  1  0  0  0  0
 20 43  1  0  0  0  0
M  END
> <CID>
EN300-1895232

> <SMILES>
Cc1ccncc1NC(=O)Cc2cc(cc(c2)Cl)OCc3c(cc(cn3)Cl)Cl

> <RUN>
RUN2929

> <DDG (kcal/mol)>
-0.18

> <dDDG (kcal/mol)>
0.12

$$$$
EN300-10621
  -OEChem-08252008263D

 47 49  0     0  0  0  0  0  0999 V2000
   14.4440   -2.5840   20.7820 C   0  0  0  0  0  0  0  0  0  0  0  0
   14.7960   -1.5890   21.6410 C   0  0  0  0  0  0  0  0  0  0  0  0
   13.4360   -3.4400   21.0510 C   0  0  0  0  0  0  0  0  0  0  0  0
   14.1490   -1.4680   22.8480 C   0  0  0  0  0  0  0  0  0  0  0  0
    5.0610    1.4380   19.1580 C   0  0  0  0  0  0  0  0  0  0  0  0
    7.9160   -4.0020   22.2760 C   0  0  0  0  0  0  0  0  0  0  0  0
    6.8140   -6.0570   22.5990 C   0  0  0  0  0  0  0  0  0  0  0  0
    9.2320   -5.9800   22.7230 C   0  0  0  0  0  0  0  0  0  0  0  0
    5.6770    1.0260   17.9750 C   0  0  0  0  0  0  0  0  0  0  0  0
    6.2070   -0.9910   18.8750 C   0  0  0  0  0  0  0  0  0  0  0  0
   12.7080   -3.2810   22.2140 C   0  0  0  0  0  0  0  0  0  0  0  0
    4.9890    0.5640   20.2350 C   0  0  0  0  0  0  0  0  0  0  0  0
    6.7340   -4.7050   22.3460 C   0  0  0  0  0  0  0  0  0  0  0  0
   13.0470   -2.3150   23.1330 C   0  0  0  0  0  0  0  0  0  0  0  0
    5.5130   -0.6880   20.1100 C   0  0  0  0  0  0  0  0  0  0  0  0
    9.1770   -4.6060   22.3290 C   0  0  0  0  0  0  0  0  0  0  0  0
    8.0550   -6.6620   22.9260 C   0  0  0  0  0  0  0  0  0  0  0  0
    5.4000   -2.9750   20.9560 C   0  0  0  0  0  0  0  0  0  0  0  0
    4.4250    1.0360   21.5380 C   0  0  0  0  0  0  0  0  0  0  0  0
    5.3670   -3.9620   22.1980 C   0  0  0  0  0  0  0  0  0  0  0  0
   11.6330   -4.2770   22.5930 C   0  0  0  0  0  0  0  0  0  0  0  0
    6.3310   -0.1730   17.8730 N   0  0  0  0  0  0  0  0  0  0  0  0
    5.5620   -1.6300   21.1390 N   0  0  0  0  0  0  0  0  0  0  0  0
   12.3260   -2.1550   24.2780 N   0  0  0  0  0  0  0  0  0  0  0  0
    5.1620   -3.4730   19.8520 O   0  0  0  0  0  0  0  0  0  0  0  0
   12.9600   -2.3670   25.3140 O   0  0  0  0  0  0  0  0  0  0  0  0
   11.1170   -1.8870   24.2390 O   0  0  0  0  0  0  0  0  0  0  0  0
   10.3040   -3.8480   22.1080 O   0  0  0  0  0  0  0  0  0  0  0  0
    8.1530   -8.2090   23.5930 Cl  0  0  0  0  0  0  0  0  0  0  0  0
   15.0880   -2.6710   19.9100 H   0  0  0  0  0  0  0  0  0  0  0  0
   15.5460   -0.8180   21.4910 H   0  0  0  0  0  0  0  0  0  0  0  0
   13.1870   -4.2050   20.3150 H   0  0  0  0  0  0  0  0  0  0  0  0
   14.5030   -0.6740   23.4990 H   0  0  0  0  0  0  0  0  0  0  0  0
    4.5890    2.4090   19.2110 H   0  0  0  0  0  0  0  0  0  0  0  0
    7.9110   -2.9180   22.2970 H   0  0  0  0  0  0  0  0  0  0  0  0
    5.8810   -6.5890   22.7330 H   0  0  0  0  0  0  0  0  0  0  0  0
   10.0940   -6.4990   23.1000 H   0  0  0  0  0  0  0  0  0  0  0  0
    5.7930    1.7760   17.2060 H   0  0  0  0  0  0  0  0  0  0  0  0
    6.6760   -1.9670   18.8640 H   0  0  0  0  0  0  0  0  0  0  0  0
    4.5380    2.1170   21.6730 H   0  0  0  0  0  0  0  0  0  0  0  0
    3.3430    1.0010   21.3820 H   0  0  0  0  0  0  0  0  0  0  0  0
    4.7140    0.4370   22.4120 H   0  0  0  0  0  0  0  0  0  0  0  0
    4.5260   -4.6560   22.1500 H   0  0  0  0  0  0  0  0  0  0  0  0
    5.1180   -3.3510   23.0820 H   0  0  0  0  0  0  0  0  0  0  0  0
   11.8390   -5.2400   22.1060 H   0  0  0  0  0  0  0  0  0  0  0  0
   11.6110   -4.4590   23.6730 H   0  0  0  0  0  0  0  0  0  0  0  0
    5.6490   -1.4230   22.1310 H   0  0  0  0  0  0  0  0  0  0  0  0
  9 38  1  0  0  0  0
  9 22  2  0  0  0  0
 10 22  1  0  0  0  0
  5  9  1  0  0  0  0
 10 39  1  0  0  0  0
 10 15  2  0  0  0  0
  5 34  1  0  0  0  0
  5 12  2  0  0  0  0
 18 25  2  0  0  0  0
  1 30  1  0  0  0  0
 12 15  1  0  0  0  0
 15 23  1  0  0  0  0
 12 19  1  0  0  0  0
  3 32  1  0  0  0  0
  1  3  2  0  0  0  0
  1  2  1  0  0  0  0
 18 23  1  0  0  0  0
 18 20  1  0  0  0  0
  3 11  1  0  0  0  0
 23 47  1  0  0  0  0
 19 41  1  0  0  0  0
  2 31  1  0  0  0  0
 19 40  1  0  0  0  0
 19 42  1  0  0  0  0
  2  4  2  0  0  0  0
 21 45  1  0  0  0  0
 16 28  1  0  0  0  0
 21 28  1  0  0  0  0
 20 43  1  0  0  0  0
 13 20  1  0  0  0  0
 20 44  1  0  0  0  0
 11 21  1  0  0  0  0
 11 14  2  0  0  0  0
  6 35  1  0  0  0  0
  6 16  2  0  0  0  0
  6 13  1  0  0  0  0
  8 16  1  0  0  0  0
  7 13  2  0  0  0  0
 21 46  1  0  0  0  0
  7 36  1  0  0  0  0
  7 17  1  0  0  0  0
  8 17  2  0  0  0  0
  8 37  1  0  0  0  0
  4 14  1  0  0  0  0
  4 33  1  0  0  0  0
 17 29  1  0  0  0  0
 14 24  1  0  0  0  0
 24 27  2  0  0  0  0
 24 26  2  0  0  0  0
M  END
> <CID>
EN300-10621

> <SMILES>
Cc1ccncc1NC(=O)Cc2cc(cc(c2)Cl)OCc3ccccc3N(=O)=O

> <RUN>
RUN1965

> <DDG (kcal/mol)>
-0.18

> <dDDG (kcal/mol)>
0.13

$$$$
EN300-1613388
  -OEChem-08252008263D

 54 57  0     0  0  0  0  0  0999 V2000
   16.4820    1.3710   28.1680 C   0  0  0  0  0  0  0  0  0  0  0  0
   15.7060    0.3870   26.0870 C   0  0  0  0  0  0  0  0  0  0  0  0
   16.7170    0.0140   28.6760 C   0  0  0  0  0  0  0  0  0  0  0  0
   16.0080   -0.8330   26.6090 C   0  0  0  0  0  0  0  0  0  0  0  0
    5.0900    0.7400   18.9320 C   0  0  0  0  0  0  0  0  0  0  0  0
   11.7050    0.8790   23.8670 C   0  0  0  0  0  0  0  0  0  0  0  0
   11.8000   -1.0580   22.4250 C   0  0  0  0  0  0  0  0  0  0  0  0
   13.6880    0.2920   22.8160 C   0  0  0  0  0  0  0  0  0  0  0  0
    5.8290    0.2530   17.8300 C   0  0  0  0  0  0  0  0  0  0  0  0
    7.6100   -0.2570   19.1330 C   0  0  0  0  0  0  0  0  0  0  0  0
   15.9390    1.5070   26.8560 C   0  0  0  0  0  0  0  0  0  0  0  0
   16.4890   -1.0670   27.9210 C   0  0  0  0  0  0  0  0  0  0  0  0
    5.6950    0.7010   20.2450 C   0  0  0  0  0  0  0  0  0  0  0  0
   11.0530   -0.2110   23.1920 C   0  0  0  0  0  0  0  0  0  0  0  0
    7.0330    0.2590   20.3110 C   0  0  0  0  0  0  0  0  0  0  0  0
   13.0550    1.1550   23.7000 C   0  0  0  0  0  0  0  0  0  0  0  0
   13.1410   -0.8480   22.2190 C   0  0  0  0  0  0  0  0  0  0  0  0
   15.6860    2.9040   26.3930 C   0  0  0  0  0  0  0  0  0  0  0  0
   15.3130    3.5250   25.2570 C   0  0  0  0  0  0  0  0  0  0  0  0
   15.6680    5.0630   26.7970 C   0  0  0  0  0  0  0  0  0  0  0  0
    8.9820    0.1160   21.8190 C   0  0  0  0  0  0  0  0  0  0  0  0
   16.6890   -2.4780   28.3590 C   0  0  0  0  0  0  0  0  0  0  0  0
    4.8690    1.1510   21.4110 C   0  0  0  0  0  0  0  0  0  0  0  0
    9.5150   -0.3200   23.2040 C   0  0  0  0  0  0  0  0  0  0  0  0
   14.8860    2.8340   24.0180 C   0  0  0  0  0  0  0  0  0  0  0  0
    6.9880   -0.2810   17.9350 N   0  0  0  0  0  0  0  0  0  0  0  0
    7.6470    0.0710   21.5530 N   0  0  0  0  0  0  0  0  0  0  0  0
   15.6260    6.1560   27.3970 O   0  0  0  0  0  0  0  0  0  0  0  0
    9.7150    0.6730   20.9780 O   0  0  0  0  0  0  0  0  0  0  0  0
   15.9540    3.8740   27.3550 O   0  0  0  0  0  0  0  0  0  0  0  0
   15.3150    4.8700   25.5170 O   0  0  0  0  0  0  0  0  0  0  0  0
   13.5400    2.3430   24.2990 O   0  0  0  0  0  0  0  0  0  0  0  0
   14.1050   -1.7880   21.1440 Cl  0  0  0  0  0  0  0  0  0  0  0  0
   16.6880    2.1730   28.8630 H   0  0  0  0  0  0  0  0  0  0  0  0
   15.2940    0.4550   25.0930 H   0  0  0  0  0  0  0  0  0  0  0  0
   17.0310   -0.0640   29.7120 H   0  0  0  0  0  0  0  0  0  0  0  0
   15.6840   -1.6030   25.9140 H   0  0  0  0  0  0  0  0  0  0  0  0
    4.1140    1.1620   18.7310 H   0  0  0  0  0  0  0  0  0  0  0  0
   11.2250    1.5210   24.6040 H   0  0  0  0  0  0  0  0  0  0  0  0
   11.4550   -1.8720   21.7910 H   0  0  0  0  0  0  0  0  0  0  0  0
   14.7360    0.4520   22.5780 H   0  0  0  0  0  0  0  0  0  0  0  0
    5.5090    0.3630   16.8000 H   0  0  0  0  0  0  0  0  0  0  0  0
    8.6290   -0.6150   19.2370 H   0  0  0  0  0  0  0  0  0  0  0  0
   17.6220   -2.9170   27.9910 H   0  0  0  0  0  0  0  0  0  0  0  0
   16.7220   -2.5060   29.4510 H   0  0  0  0  0  0  0  0  0  0  0  0
   15.8570   -3.0220   27.8910 H   0  0  0  0  0  0  0  0  0  0  0  0
    4.0820    1.7810   20.9870 H   0  0  0  0  0  0  0  0  0  0  0  0
    4.3970    0.3650   22.0100 H   0  0  0  0  0  0  0  0  0  0  0  0
    5.4790    1.7960   22.0590 H   0  0  0  0  0  0  0  0  0  0  0  0
    9.4170   -1.3540   23.5550 H   0  0  0  0  0  0  0  0  0  0  0  0
    8.9830    0.2950   23.9300 H   0  0  0  0  0  0  0  0  0  0  0  0
   15.5610    1.9770   23.9470 H   0  0  0  0  0  0  0  0  0  0  0  0
   14.8760    3.5530   23.1940 H   0  0  0  0  0  0  0  0  0  0  0  0
    7.0530   -0.2840   22.3090 H   0  0  0  0  0  0  0  0  0  0  0  0
  9 42  1  0  0  0  0
  9 26  2  0  0  0  0
  5  9  1  0  0  0  0
 10 26  1  0  0  0  0
  5 38  1  0  0  0  0
  5 13  2  0  0  0  0
 10 43  1  0  0  0  0
 10 15  2  0  0  0  0
 13 15  1  0  0  0  0
 13 23  1  0  0  0  0
 15 27  1  0  0  0  0
 21 29  2  0  0  0  0
 23 47  1  0  0  0  0
 17 33  1  0  0  0  0
 23 48  1  0  0  0  0
 23 49  1  0  0  0  0
 21 27  1  0  0  0  0
 27 54  1  0  0  0  0
  7 40  1  0  0  0  0
 21 24  1  0  0  0  0
  7 17  2  0  0  0  0
  8 17  1  0  0  0  0
  7 14  1  0  0  0  0
  8 41  1  0  0  0  0
  8 16  2  0  0  0  0
 14 24  1  0  0  0  0
  6 14  2  0  0  0  0
 25 53  1  0  0  0  0
 24 50  1  0  0  0  0
 24 51  1  0  0  0  0
  6 16  1  0  0  0  0
 16 32  1  0  0  0  0
  6 39  1  0  0  0  0
 25 52  1  0  0  0  0
 25 32  1  0  0  0  0
 19 25  1  0  0  0  0
  2 35  1  0  0  0  0
 19 31  1  0  0  0  0
 18 19  2  0  0  0  0
 20 31  1  0  0  0  0
  4 37  1  0  0  0  0
  2  4  2  0  0  0  0
  2 11  1  0  0  0  0
 11 18  1  0  0  0  0
 18 30  1  0  0  0  0
  4 12  1  0  0  0  0
 20 30  1  0  0  0  0
 20 28  2  0  0  0  0
  1 11  2  0  0  0  0
 22 46  1  0  0  0  0
 12 22  1  0  0  0  0
  3 12  2  0  0  0  0
 22 44  1  0  0  0  0
  1  3  1  0  0  0  0
  1 34  1  0  0  0  0
 22 45  1  0  0  0  0
  3 36  1  0  0  0  0
M  END
> <CID>
EN300-1613388

> <SMILES>
Cc1ccc(cc1)c2c(oc(=O)o2)COc3cc(cc(c3)Cl)CC(=O)Nc4cnccc4C

> <RUN>
RUN2168

> <DDG (kcal/mol)>
-0.18

> <dDDG (kcal/mol)>
0.18

$$$$
EN300-13565
  -OEChem-08252008263D

 51 54  0     0  0  0  0  0  0999 V2000
   12.5370    5.2920   30.1190 C   0  0  0  0  0  0  0  0  0  0  0  0
   13.7570    7.1490   29.0720 C   0  0  0  0  0  0  0  0  0  0  0  0
   13.0300    5.7540   31.3690 C   0  0  0  0  0  0  0  0  0  0  0  0
   14.1560    7.5790   30.2880 C   0  0  0  0  0  0  0  0  0  0  0  0
    4.3290    0.7180   19.1020 C   0  0  0  0  0  0  0  0  0  0  0  0
   10.6810    0.8800   23.7510 C   0  0  0  0  0  0  0  0  0  0  0  0
   11.3130   -1.1440   22.5010 C   0  0  0  0  0  0  0  0  0  0  0  0
   12.9500    0.2800   23.5950 C   0  0  0  0  0  0  0  0  0  0  0  0
    5.0040    0.5400   17.8480 C   0  0  0  0  0  0  0  0  0  0  0  0
    6.8790   -0.2000   18.8660 C   0  0  0  0  0  0  0  0  0  0  0  0
   12.8450    6.0000   26.3290 C   0  0  0  0  0  0  0  0  0  0  0  0
   12.9570    5.9090   28.9300 C   0  0  0  0  0  0  0  0  0  0  0  0
    4.9860    0.3240   20.3230 C   0  0  0  0  0  0  0  0  0  0  0  0
   10.3260   -0.3060   23.0590 C   0  0  0  0  0  0  0  0  0  0  0  0
    6.3040   -0.1110   20.1570 C   0  0  0  0  0  0  0  0  0  0  0  0
   11.9860    1.1210   24.0840 C   0  0  0  0  0  0  0  0  0  0  0  0
   13.8460    6.8430   31.4650 C   0  0  0  0  0  0  0  0  0  0  0  0
   12.6250   -0.8390   22.8140 C   0  0  0  0  0  0  0  0  0  0  0  0
   12.5980    5.4740   27.5660 C   0  0  0  0  0  0  0  0  0  0  0  0
   11.8440    4.2790   26.0230 C   0  0  0  0  0  0  0  0  0  0  0  0
    8.2500   -0.0330   21.6170 C   0  0  0  0  0  0  0  0  0  0  0  0
    4.2830    0.4770   21.6370 C   0  0  0  0  0  0  0  0  0  0  0  0
    8.8920   -0.5930   22.8700 C   0  0  0  0  0  0  0  0  0  0  0  0
   11.2770    3.1180   25.3500 C   0  0  0  0  0  0  0  0  0  0  0  0
    6.2730    0.0760   17.7790 N   0  0  0  0  0  0  0  0  0  0  0  0
   12.3810    5.2730   25.3150 N   0  0  0  0  0  0  0  0  0  0  0  0
    6.9770   -0.3890   21.3570 N   0  0  0  0  0  0  0  0  0  0  0  0
    8.8750    0.6310   20.8380 O   0  0  0  0  0  0  0  0  0  0  0  0
   11.8570    4.4400   27.3530 O   0  0  0  0  0  0  0  0  0  0  0  0
   12.3450    2.1860   24.8380 O   0  0  0  0  0  0  0  0  0  0  0  0
   14.3360    7.1990   32.6160 F   0  0  0  0  0  0  0  0  0  0  0  0
   13.8220   -1.8400   22.0790 Cl  0  0  0  0  0  0  0  0  0  0  0  0
   11.9520    4.3810   30.1530 H   0  0  0  0  0  0  0  0  0  0  0  0
   14.1670    7.7330   28.2540 H   0  0  0  0  0  0  0  0  0  0  0  0
   12.8170    5.1130   32.2190 H   0  0  0  0  0  0  0  0  0  0  0  0
   14.9070    8.3480   30.4550 H   0  0  0  0  0  0  0  0  0  0  0  0
    3.3260    1.1490   19.1450 H   0  0  0  0  0  0  0  0  0  0  0  0
    9.8830    1.5190   24.1110 H   0  0  0  0  0  0  0  0  0  0  0  0
   11.0880   -1.8910   21.7500 H   0  0  0  0  0  0  0  0  0  0  0  0
   13.9920    0.5310   23.8050 H   0  0  0  0  0  0  0  0  0  0  0  0
    4.3730    0.7440   16.9910 H   0  0  0  0  0  0  0  0  0  0  0  0
    7.8760   -0.5740   18.6820 H   0  0  0  0  0  0  0  0  0  0  0  0
   13.3650    6.9450   26.2210 H   0  0  0  0  0  0  0  0  0  0  0  0
    3.2510    0.8370   21.5490 H   0  0  0  0  0  0  0  0  0  0  0  0
    4.1060   -0.4730   22.1330 H   0  0  0  0  0  0  0  0  0  0  0  0
    4.8220    1.2390   22.2140 H   0  0  0  0  0  0  0  0  0  0  0  0
    8.7930   -1.6840   22.8210 H   0  0  0  0  0  0  0  0  0  0  0  0
    8.2880   -0.2870   23.7260 H   0  0  0  0  0  0  0  0  0  0  0  0
   10.5690    2.6580   26.0420 H   0  0  0  0  0  0  0  0  0  0  0  0
   10.6800    3.5670   24.5420 H   0  0  0  0  0  0  0  0  0  0  0  0
    6.5200   -0.7670   22.1910 H   0  0  0  0  0  0  0  0  0  0  0  0
  9 41  1  0  0  0  0
  9 25  2  0  0  0  0
 10 25  1  0  0  0  0
  5  9  1  0  0  0  0
 10 42  1  0  0  0  0
 10 15  2  0  0  0  0
  5 37  1  0  0  0  0
  5 13  2  0  0  0  0
 13 15  1  0  0  0  0
 15 27  1  0  0  0  0
 13 22  1  0  0  0  0
 21 28  2  0  0  0  0
 21 27  1  0  0  0  0
 27 51  1  0  0  0  0
 22 44  1  0  0  0  0
 21 23  1  0  0  0  0
 22 45  1  0  0  0  0
 22 46  1  0  0  0  0
  7 39  1  0  0  0  0
 18 32  1  0  0  0  0
  7 18  2  0  0  0  0
  7 14  1  0  0  0  0
  8 18  1  0  0  0  0
 23 47  1  0  0  0  0
 14 23  1  0  0  0  0
 23 48  1  0  0  0  0
  6 14  2  0  0  0  0
  8 40  1  0  0  0  0
  8 16  2  0  0  0  0
  6 16  1  0  0  0  0
  6 38  1  0  0  0  0
 16 30  1  0  0  0  0
 24 50  1  0  0  0  0
 24 30  1  0  0  0  0
 20 26  2  0  0  0  0
 11 26  1  0  0  0  0
 20 24  1  0  0  0  0
 24 49  1  0  0  0  0
 20 29  1  0  0  0  0
 11 43  1  0  0  0  0
 11 19  2  0  0  0  0
 19 29  1  0  0  0  0
 12 19  1  0  0  0  0
  2 34  1  0  0  0  0
  2 12  2  0  0  0  0
  1 12  1  0  0  0  0
  2  4  1  0  0  0  0
  1 33  1  0  0  0  0
  1  3  2  0  0  0  0
  4 36  1  0  0  0  0
  4 17  2  0  0  0  0
  3 17  1  0  0  0  0
  3 35  1  0  0  0  0
 17 31  1  0  0  0  0
M  END
> <CID>
EN300-13565

> <SMILES>
Cc1ccncc1NC(=O)Cc2cc(cc(c2)Cl)OCc3ncc(o3)c4ccc(cc4)F

> <RUN>
RUN591

> <DDG (kcal/mol)>
-0.17

> <dDDG (kcal/mol)>
0.14

$$$$
EN300-1910385
  -OEChem-08252008263D

 51 53  0     1  0  0  0  0  0999 V2000
    5.9730    1.5290   20.0220 C   0  0  0  0  0  0  0  0  0  0  0  0
    9.6790   -2.3210   23.4830 C   0  0  0  0  0  0  0  0  0  0  0  0
   11.3190   -2.9610   21.8330 C   0  0  0  0  0  0  0  0  0  0  0  0
   11.2210   -0.1740   27.3690 C   0  0  0  0  0  0  0  0  0  0  0  0
   11.9360   -1.7360   23.8240 C   0  0  0  0  0  0  0  0  0  0  0  0
    5.5170    1.2300   18.7360 C   0  0  0  0  0  0  0  0  0  0  0  0
    6.7570   -0.6410   18.7170 C   0  0  0  0  0  0  0  0  0  0  0  0
    6.9800    0.8020   20.6360 C   0  0  0  0  0  0  0  0  0  0  0  0
    9.9590   -2.9580   22.2880 C   0  0  0  0  0  0  0  0  0  0  0  0
   12.1750    0.8410   27.6710 C   0  0  0  0  0  0  0  0  0  0  0  0
    7.2620   -0.4680   20.0370 C   0  0  0  0  0  0  0  0  0  0  0  0
   10.6220   -1.6980   24.3030 C   0  0  0  0  0  0  0  0  0  0  0  0
   12.3090   -2.3350   22.5670 C   0  0  0  0  0  0  0  0  0  0  0  0
   12.6180    1.3120   26.4080 C   0  0  0  0  0  0  0  0  0  0  0  0
   11.1020   -0.2430   26.0230 C   0  0  0  0  0  0  0  0  0  0  0  0
    8.1280   -2.7930   20.4840 C   0  0  0  0  0  0  0  0  0  0  0  0
    7.2490    1.2550   22.0680 C   0  0  0  0  0  0  0  0  0  0  0  0
   12.6250    1.1100   29.0570 C   0  0  0  0  0  0  0  0  0  0  0  0
   12.8980    3.6850   26.1710 C   0  0  0  0  0  0  0  0  0  0  0  0
    8.8380   -3.6760   21.5320 C   0  0  0  0  0  0  0  0  0  0  0  0
   14.3890    2.1380   24.8110 C   0  0  0  0  0  0  0  0  0  0  0  0
   13.6370    2.3730   26.1540 C   0  0  2  0  0  0  0  0  0  0  0  0
    5.9510    0.1730   18.0320 N   0  0  0  0  0  0  0  0  0  0  0  0
    8.0080   -1.4180   20.7360 N   0  0  0  0  0  0  0  0  0  0  0  0
    7.3120   -3.3340   19.7470 O   0  0  0  0  0  0  0  0  0  0  0  0
   11.8910    0.7080   25.3960 O   0  0  0  0  0  0  0  0  0  0  0  0
   10.2300   -1.1510   25.4880 O   0  0  0  0  0  0  0  0  0  0  0  0
   13.9090   -2.3070   21.8720 Cl  0  0  0  0  0  0  0  0  0  0  0  0
   15.2310    0.3240   24.6790 Br  0  0  0  0  0  0  0  0  0  0  0  0
    5.4640    2.2870   20.6070 H   0  0  0  0  0  0  0  0  0  0  0  0
    8.7520   -2.4210   24.0450 H   0  0  0  0  0  0  0  0  0  0  0  0
   11.6410   -3.4450   20.9240 H   0  0  0  0  0  0  0  0  0  0  0  0
   10.6660   -0.7640   28.0790 H   0  0  0  0  0  0  0  0  0  0  0  0
   12.8550   -1.4460   24.3280 H   0  0  0  0  0  0  0  0  0  0  0  0
    4.7940    1.9410   18.3480 H   0  0  0  0  0  0  0  0  0  0  0  0
    7.0710   -1.5570   18.2150 H   0  0  0  0  0  0  0  0  0  0  0  0
    7.2270    2.3270   22.3060 H   0  0  0  0  0  0  0  0  0  0  0  0
    6.3380    0.8450   22.5180 H   0  0  0  0  0  0  0  0  0  0  0  0
    8.0380    0.6400   22.5230 H   0  0  0  0  0  0  0  0  0  0  0  0
   13.2080    0.2760   29.4420 H   0  0  0  0  0  0  0  0  0  0  0  0
   13.1650    2.0590   28.9810 H   0  0  0  0  0  0  0  0  0  0  0  0
   11.7300    1.1520   29.6920 H   0  0  0  0  0  0  0  0  0  0  0  0
   12.1210    3.6490   25.4110 H   0  0  0  0  0  0  0  0  0  0  0  0
   12.3920    3.7910   27.1320 H   0  0  0  0  0  0  0  0  0  0  0  0
   13.5690    4.5260   25.9650 H   0  0  0  0  0  0  0  0  0  0  0  0
    9.1920   -4.5790   21.0130 H   0  0  0  0  0  0  0  0  0  0  0  0
    8.0380   -4.0470   22.1730 H   0  0  0  0  0  0  0  0  0  0  0  0
   15.1240    2.8940   24.5300 H   0  0  0  0  0  0  0  0  0  0  0  0
   13.5790    2.1190   24.0690 H   0  0  0  0  0  0  0  0  0  0  0  0
   14.3170    2.3810   27.0060 H   0  0  0  0  0  0  0  0  0  0  0  0
    8.5520   -1.0210   21.4990 H   0  0  0  0  0  0  0  0  0  0  0  0
  7 23  2  0  0  0  0
  6 23  1  0  0  0  0
  7 36  1  0  0  0  0
  6 35  1  0  0  0  0
  7 11  1  0  0  0  0
  1  6  2  0  0  0  0
 16 25  2  0  0  0  0
  1 30  1  0  0  0  0
  1  8  1  0  0  0  0
  8 11  2  0  0  0  0
 11 24  1  0  0  0  0
 16 24  1  0  0  0  0
 16 20  1  0  0  0  0
  8 17  1  0  0  0  0
 24 51  1  0  0  0  0
  3 32  1  0  0  0  0
 20 46  1  0  0  0  0
 20 47  1  0  0  0  0
  9 20  1  0  0  0  0
  3  9  2  0  0  0  0
  3 13  1  0  0  0  0
 13 28  1  0  0  0  0
 17 37  1  0  0  0  0
 17 38  1  0  0  0  0
 17 39  1  0  0  0  0
  2  9  1  0  0  0  0
  5 13  2  0  0  0  0
  2 31  1  0  0  0  0
  2 12  2  0  0  0  0
  5 12  1  0  0  0  0
  5 34  1  0  0  0  0
 21 49  1  0  0  0  0
 12 27  1  0  0  0  0
 21 48  1  0  0  0  0
 21 29  1  0  0  0  0
 21 22  1  0  0  0  0
 15 26  1  0  0  0  0
 14 26  1  0  0  0  0
 19 43  1  0  0  0  0
 15 27  1  0  0  0  0
 19 45  1  0  0  0  0
  4 15  2  0  0  0  0
 19 22  1  0  0  0  0
 14 22  1  0  0  0  0
 22 50  1  0  0  0  0
 19 44  1  0  0  0  0
 10 14  2  0  0  0  0
  4 10  1  0  0  0  0
  4 33  1  0  0  0  0
 10 18  1  0  0  0  0
 18 41  1  0  0  0  0
 18 40  1  0  0  0  0
 18 42  1  0  0  0  0
M  END
> <CID>
EN300-1910385

> <SMILES>
Cc1ccncc1NC(=O)Cc2cc(cc(c2)Cl)Oc3cc(c(o3)[C@H](C)CBr)C

> <RUN>
RUN602

> <DDG (kcal/mol)>
-0.17

> <dDDG (kcal/mol)>
0.11

$$$$
EN300-1117578
  -OEChem-08252008263D

 58 60  0     0  0  0  0  0  0999 V2000
   11.5940   -0.1640   28.3580 C   0  0  0  0  0  0  0  0  0  0  0  0
   11.1450    0.2500   29.6080 C   0  0  0  0  0  0  0  0  0  0  0  0
    6.4780    2.4560   19.8940 C   0  0  0  0  0  0  0  0  0  0  0  0
    9.6360   -2.2650   23.7020 C   0  0  0  0  0  0  0  0  0  0  0  0
   10.6140   -2.0680   30.2060 C   0  0  0  0  0  0  0  0  0  0  0  0
   10.7940   -2.9110   21.7220 C   0  0  0  0  0  0  0  0  0  0  0  0
   12.0120   -2.0110   23.6040 C   0  0  0  0  0  0  0  0  0  0  0  0
    6.0890    2.1530   18.5680 C   0  0  0  0  0  0  0  0  0  0  0  0
    7.0160    0.0750   18.7530 C   0  0  0  0  0  0  0  0  0  0  0  0
   11.5140   -1.5320   28.0040 C   0  0  0  0  0  0  0  0  0  0  0  0
    7.0660    1.4330   20.7020 C   0  0  0  0  0  0  0  0  0  0  0  0
    9.5780   -2.7460   22.4150 C   0  0  0  0  0  0  0  0  0  0  0  0
   11.0290   -2.5140   28.9070 C   0  0  0  0  0  0  0  0  0  0  0  0
    7.3400    0.1680   20.0990 C   0  0  0  0  0  0  0  0  0  0  0  0
   10.7840   -0.6900   30.5750 C   0  0  0  0  0  0  0  0  0  0  0  0
   10.7940   -1.9100   24.2840 C   0  0  0  0  0  0  0  0  0  0  0  0
   12.0440   -2.5140   22.2560 C   0  0  0  0  0  0  0  0  0  0  0  0
    7.7060   -2.1650   20.7290 C   0  0  0  0  0  0  0  0  0  0  0  0
    7.2680    1.7390   22.1350 C   0  0  0  0  0  0  0  0  0  0  0  0
   10.7260   -5.3630   26.5030 C   0  0  0  0  0  0  0  0  0  0  0  0
   10.9270    0.8810   32.3590 C   0  0  0  0  0  0  0  0  0  0  0  0
    8.2500   -3.1580   21.7360 C   0  0  0  0  0  0  0  0  0  0  0  0
   10.9590   -4.0120   28.6240 C   0  0  0  0  0  0  0  0  0  0  0  0
   11.8700   -1.8620   26.5790 C   0  0  0  0  0  0  0  0  0  0  0  0
    9.9790   -4.4360   27.4680 C   0  0  0  0  0  0  0  0  0  0  0  0
    6.4020    0.9730   18.0120 N   0  0  0  0  0  0  0  0  0  0  0  0
    8.0810   -0.8750   20.6930 N   0  0  0  0  0  0  0  0  0  0  0  0
    6.8050   -2.4950   19.9420 O   0  0  0  0  0  0  0  0  0  0  0  0
   10.6730   -0.4240   31.9100 O   0  0  0  0  0  0  0  0  0  0  0  0
   10.7420   -1.6220   25.6990 O   0  0  0  0  0  0  0  0  0  0  0  0
   13.4630   -2.5360   21.3940 Cl  0  0  0  0  0  0  0  0  0  0  0  0
   11.9980    0.5640   27.6500 H   0  0  0  0  0  0  0  0  0  0  0  0
   11.2450    1.3100   29.8160 H   0  0  0  0  0  0  0  0  0  0  0  0
    6.2580    3.4700   20.2050 H   0  0  0  0  0  0  0  0  0  0  0  0
    8.7030   -2.2520   24.2660 H   0  0  0  0  0  0  0  0  0  0  0  0
   10.1670   -2.7260   30.9350 H   0  0  0  0  0  0  0  0  0  0  0  0
   10.8500   -3.2660   20.7010 H   0  0  0  0  0  0  0  0  0  0  0  0
   12.9390   -1.6720   24.0640 H   0  0  0  0  0  0  0  0  0  0  0  0
    5.5570    2.8820   17.9580 H   0  0  0  0  0  0  0  0  0  0  0  0
    7.2700   -0.8610   18.2810 H   0  0  0  0  0  0  0  0  0  0  0  0
    8.1730    1.2840   22.5510 H   0  0  0  0  0  0  0  0  0  0  0  0
    7.2870    2.8340   22.2480 H   0  0  0  0  0  0  0  0  0  0  0  0
    6.3580    1.3140   22.5800 H   0  0  0  0  0  0  0  0  0  0  0  0
   11.5470   -4.7200   26.1610 H   0  0  0  0  0  0  0  0  0  0  0  0
   11.0840   -6.2990   26.9490 H   0  0  0  0  0  0  0  0  0  0  0  0
   10.0550   -5.6630   25.6920 H   0  0  0  0  0  0  0  0  0  0  0  0
   11.8720    1.2480   31.9390 H   0  0  0  0  0  0  0  0  0  0  0  0
   10.0140    1.4570   32.2120 H   0  0  0  0  0  0  0  0  0  0  0  0
   11.0570    0.8910   33.4440 H   0  0  0  0  0  0  0  0  0  0  0  0
    8.4250   -4.1020   21.2200 H   0  0  0  0  0  0  0  0  0  0  0  0
    7.4710   -3.3340   22.4860 H   0  0  0  0  0  0  0  0  0  0  0  0
   11.9550   -4.4440   28.5010 H   0  0  0  0  0  0  0  0  0  0  0  0
   10.6070   -4.5570   29.5040 H   0  0  0  0  0  0  0  0  0  0  0  0
   12.0980   -2.9180   26.4260 H   0  0  0  0  0  0  0  0  0  0  0  0
   12.6830   -1.2120   26.2390 H   0  0  0  0  0  0  0  0  0  0  0  0
    9.1160   -5.0310   27.7910 H   0  0  0  0  0  0  0  0  0  0  0  0
    9.6420   -3.5380   26.9460 H   0  0  0  0  0  0  0  0  0  0  0  0
    8.7020   -0.6270   21.4670 H   0  0  0  0  0  0  0  0  0  0  0  0
  8 39  1  0  0  0  0
  8 26  2  0  0  0  0
  9 26  1  0  0  0  0
  9 40  1  0  0  0  0
  3  8  1  0  0  0  0
  9 14  2  0  0  0  0
  3 34  1  0  0  0  0
  3 11  2  0  0  0  0
 18 28  2  0  0  0  0
 14 27  1  0  0  0  0
 11 14  1  0  0  0  0
 18 27  1  0  0  0  0
 27 58  1  0  0  0  0
  6 37  1  0  0  0  0
 11 19  1  0  0  0  0
 18 22  1  0  0  0  0
 22 50  1  0  0  0  0
 17 31  1  0  0  0  0
  6 17  2  0  0  0  0
  6 12  1  0  0  0  0
 12 22  1  0  0  0  0
 22 51  1  0  0  0  0
 19 42  1  0  0  0  0
 19 41  1  0  0  0  0
 19 43  1  0  0  0  0
  7 17  1  0  0  0  0
  4 12  2  0  0  0  0
  7 38  1  0  0  0  0
  7 16  2  0  0  0  0
  4 35  1  0  0  0  0
  4 16  1  0  0  0  0
 16 30  1  0  0  0  0
 20 46  1  0  0  0  0
 24 30  1  0  0  0  0
 20 44  1  0  0  0  0
 24 55  1  0  0  0  0
 24 54  1  0  0  0  0
 20 45  1  0  0  0  0
 20 25  1  0  0  0  0
 10 24  1  0  0  0  0
 25 57  1  0  0  0  0
 25 56  1  0  0  0  0
 23 25  1  0  0  0  0
  1 32  1  0  0  0  0
  1 10  2  0  0  0  0
 10 13  1  0  0  0  0
  1  2  1  0  0  0  0
 23 52  1  0  0  0  0
 13 23  1  0  0  0  0
 23 53  1  0  0  0  0
  5 13  2  0  0  0  0
  2 33  1  0  0  0  0
  2 15  2  0  0  0  0
  5 15  1  0  0  0  0
  5 36  1  0  0  0  0
 15 29  1  0  0  0  0
 21 29  1  0  0  0  0
 21 47  1  0  0  0  0
 21 48  1  0  0  0  0
 21 49  1  0  0  0  0
M  END
> <CID>
EN300-1117578

> <SMILES>
CCCc1cc(ccc1COc2cc(cc(c2)Cl)CC(=O)Nc3cnccc3C)OC

> <RUN>
RUN4356

> <DDG (kcal/mol)>
-0.17

> <dDDG (kcal/mol)>
0.15

$$$$
EN300-170062
  -OEChem-08252008263D

 55 57  0     0  0  0  0  0  0999 V2000
    7.3640    1.1600   19.6590 C   0  0  0  0  0  0  0  0  0  0  0  0
   13.0240    3.0800   26.4380 C   0  0  0  0  0  0  0  0  0  0  0  0
   12.9370   -0.7100   23.5730 C   0  0  0  0  0  0  0  0  0  0  0  0
   12.9370   -1.6990   21.4180 C   0  0  0  0  0  0  0  0  0  0  0  0
   13.7810    0.4430   26.3280 C   0  0  0  0  0  0  0  0  0  0  0  0
   14.6150   -0.0850   21.9790 C   0  0  0  0  0  0  0  0  0  0  0  0
    6.9140    0.2120   18.7420 C   0  0  0  0  0  0  0  0  0  0  0  0
    8.3430   -1.3720   19.5480 C   0  0  0  0  0  0  0  0  0  0  0  0
   13.7830    2.6140   25.3710 C   0  0  0  0  0  0  0  0  0  0  0  0
    8.3740    0.8430   20.5840 C   0  0  0  0  0  0  0  0  0  0  0  0
   12.3370   -1.5790   22.6750 C   0  0  0  0  0  0  0  0  0  0  0  0
    8.8440   -0.4820   20.5250 C   0  0  0  0  0  0  0  0  0  0  0  0
   12.5280    2.1760   27.3390 C   0  0  0  0  0  0  0  0  0  0  0  0
   14.1250    0.0240   23.2780 C   0  0  0  0  0  0  0  0  0  0  0  0
   14.1460    1.2670   25.3340 C   0  0  0  0  0  0  0  0  0  0  0  0
   12.9680    0.8400   27.3750 C   0  0  0  0  0  0  0  0  0  0  0  0
   14.0570   -0.9600   21.0460 C   0  0  0  0  0  0  0  0  0  0  0  0
   14.2080    3.6200   24.3540 C   0  0  0  0  0  0  0  0  0  0  0  0
   10.0960   -2.2420   21.8040 C   0  0  0  0  0  0  0  0  0  0  0  0
    9.0410    1.8870   21.3880 C   0  0  0  0  0  0  0  0  0  0  0  0
   10.2390    1.8650   28.1780 C   0  0  0  0  0  0  0  0  0  0  0  0
   12.9350   -0.1280   29.5930 C   0  0  0  0  0  0  0  0  0  0  0  0
   11.0700   -2.4140   23.0080 C   0  0  0  0  0  0  0  0  0  0  0  0
   13.9750    3.5030   22.8790 C   0  0  0  0  0  0  0  0  0  0  0  0
    7.3920   -0.9980   18.7080 N   0  0  0  0  0  0  0  0  0  0  0  0
    9.6730   -0.9510   21.5960 N   0  0  0  0  0  0  0  0  0  0  0  0
   14.7780    4.6320   24.7300 O   0  0  0  0  0  0  0  0  0  0  0  0
    9.6100   -3.2880   21.3570 O   0  0  0  0  0  0  0  0  0  0  0  0
   14.7790    0.8910   24.1810 O   0  0  0  0  0  0  0  0  0  0  0  0
   11.5330    2.4870   28.2970 O   0  0  0  0  0  0  0  0  0  0  0  0
   12.3880   -0.1120   28.2270 O   0  0  0  0  0  0  0  0  0  0  0  0
   14.7360   -1.1380   19.3780 Cl  0  0  0  0  0  0  0  0  0  0  0  0
   12.0320    3.1750   22.4120 Br  0  0  0  0  0  0  0  0  0  0  0  0
    7.0590    2.2030   19.5780 H   0  0  0  0  0  0  0  0  0  0  0  0
   12.8290    4.1330   26.6050 H   0  0  0  0  0  0  0  0  0  0  0  0
   12.3910   -0.5600   24.5060 H   0  0  0  0  0  0  0  0  0  0  0  0
   12.4750   -2.3620   20.6960 H   0  0  0  0  0  0  0  0  0  0  0  0
   14.1550   -0.5610   26.1680 H   0  0  0  0  0  0  0  0  0  0  0  0
   15.4680    0.5470   21.7570 H   0  0  0  0  0  0  0  0  0  0  0  0
    6.0590    0.4350   18.1150 H   0  0  0  0  0  0  0  0  0  0  0  0
    8.7690   -2.3730   19.5200 H   0  0  0  0  0  0  0  0  0  0  0  0
    8.9180    1.7430   22.4610 H   0  0  0  0  0  0  0  0  0  0  0  0
   10.0720    1.9450   21.0240 H   0  0  0  0  0  0  0  0  0  0  0  0
    8.6120    2.8440   21.0960 H   0  0  0  0  0  0  0  0  0  0  0  0
   10.0980    1.1820   29.0250 H   0  0  0  0  0  0  0  0  0  0  0  0
   10.1840    1.2870   27.2510 H   0  0  0  0  0  0  0  0  0  0  0  0
    9.4970    2.6710   28.2080 H   0  0  0  0  0  0  0  0  0  0  0  0
   14.0300   -0.1150   29.5910 H   0  0  0  0  0  0  0  0  0  0  0  0
   12.5710   -0.9360   30.2340 H   0  0  0  0  0  0  0  0  0  0  0  0
   12.5950    0.7920   30.0830 H   0  0  0  0  0  0  0  0  0  0  0  0
   11.3750   -3.4590   23.1340 H   0  0  0  0  0  0  0  0  0  0  0  0
   10.5650   -2.1900   23.9570 H   0  0  0  0  0  0  0  0  0  0  0  0
   14.3110    4.4240   22.3850 H   0  0  0  0  0  0  0  0  0  0  0  0
   14.5390    2.6830   22.4210 H   0  0  0  0  0  0  0  0  0  0  0  0
   10.0450   -0.2790   22.2650 H   0  0  0  0  0  0  0  0  0  0  0  0
  7 40  1  0  0  0  0
  7 25  2  0  0  0  0
  8 25  1  0  0  0  0
  1  7  1  0  0  0  0
 17 32  1  0  0  0  0
  8 41  1  0  0  0  0
  8 12  2  0  0  0  0
  1 34  1  0  0  0  0
  1 10  2  0  0  0  0
 10 12  1  0  0  0  0
 12 26  1  0  0  0  0
 10 20  1  0  0  0  0
  4 37  1  0  0  0  0
 20 43  1  0  0  0  0
  4 17  2  0  0  0  0
  6 17  1  0  0  0  0
 20 44  1  0  0  0  0
 19 28  2  0  0  0  0
 20 42  1  0  0  0  0
  4 11  1  0  0  0  0
 19 26  1  0  0  0  0
 26 55  1  0  0  0  0
  6 39  1  0  0  0  0
 19 23  1  0  0  0  0
  6 14  2  0  0  0  0
 24 53  1  0  0  0  0
 24 33  1  0  0  0  0
 24 54  1  0  0  0  0
 11 23  1  0  0  0  0
  3 11  2  0  0  0  0
 18 24  1  0  0  0  0
 23 51  1  0  0  0  0
 23 52  1  0  0  0  0
  3 14  1  0  0  0  0
 14 29  1  0  0  0  0
  3 36  1  0  0  0  0
 15 29  1  0  0  0  0
 18 27  2  0  0  0  0
  9 18  1  0  0  0  0
  9 15  2  0  0  0  0
  5 15  1  0  0  0  0
  2  9  1  0  0  0  0
  5 38  1  0  0  0  0
  5 16  2  0  0  0  0
  2 35  1  0  0  0  0
  2 13  2  0  0  0  0
 21 46  1  0  0  0  0
 13 16  1  0  0  0  0
 13 30  1  0  0  0  0
 16 31  1  0  0  0  0
 21 47  1  0  0  0  0
 21 30  1  0  0  0  0
 21 45  1  0  0  0  0
 22 31  1  0  0  0  0
 22 48  1  0  0  0  0
 22 50  1  0  0  0  0
 22 49  1  0  0  0  0
M  END
> <CID>
EN300-170062

> <SMILES>
Cc1ccncc1NC(=O)Cc2cc(cc(c2)Cl)Oc3cc(c(cc3C(=O)CBr)OC)OC

> <RUN>
RUN1973

> <DDG (kcal/mol)>
-0.17

> <dDDG (kcal/mol)>
0.20

$$$$
EN300-1910226
  -OEChem-08252008263D

 51 53  0     1  0  0  0  0  0999 V2000
   14.4510    7.0700   23.4080 C   0  0  0  0  0  0  0  0  0  0  0  0
   14.7850    6.0930   21.2380 C   0  0  0  0  0  0  0  0  0  0  0  0
   15.0240    8.2720   22.9030 C   0  0  0  0  0  0  0  0  0  0  0  0
   15.1060    7.3570   20.6930 C   0  0  0  0  0  0  0  0  0  0  0  0
    4.8870    0.2820   19.7940 C   0  0  0  0  0  0  0  0  0  0  0  0
   12.1900    0.5670   22.8990 C   0  0  0  0  0  0  0  0  0  0  0  0
   12.6970   -1.2920   21.5070 C   0  0  0  0  0  0  0  0  0  0  0  0
   14.2440    0.4760   21.7950 C   0  0  0  0  0  0  0  0  0  0  0  0
    5.4460    0.5890   18.5700 C   0  0  0  0  0  0  0  0  0  0  0  0
    7.5350   -0.1140   19.2430 C   0  0  0  0  0  0  0  0  0  0  0  0
   14.3330    6.0100   22.5750 C   0  0  0  0  0  0  0  0  0  0  0  0
    5.6520   -0.2200   20.8090 C   0  0  0  0  0  0  0  0  0  0  0  0
   11.7770   -0.6620   22.3360 C   0  0  0  0  0  0  0  0  0  0  0  0
   15.1940    8.4450   21.5550 C   0  0  0  0  0  0  0  0  0  0  0  0
    7.0650   -0.3670   20.5750 C   0  0  0  0  0  0  0  0  0  0  0  0
   13.4470    1.1080   22.6620 C   0  0  0  0  0  0  0  0  0  0  0  0
   13.9210   -0.6940   21.1310 C   0  0  0  0  0  0  0  0  0  0  0  0
    9.3190   -0.4830   21.5350 C   0  0  0  0  0  0  0  0  0  0  0  0
    5.0610   -0.5430   22.1410 C   0  0  0  0  0  0  0  0  0  0  0  0
   10.3170   -1.1290   22.4930 C   0  0  0  0  0  0  0  0  0  0  0  0
   14.2410    3.3890   22.5250 C   0  0  0  0  0  0  0  0  0  0  0  0
   13.9490    4.6930   23.2870 C   0  0  2  0  0  0  0  0  0  0  0  0
    6.7360    0.3040   18.2570 N   0  0  0  0  0  0  0  0  0  0  0  0
    7.9780   -0.7830   21.6030 N   0  0  0  0  0  0  0  0  0  0  0  0
   15.6100    9.7120   21.0600 N   0  0  0  0  0  0  0  0  0  0  0  0
    9.6510    0.5310   20.9010 O   0  0  0  0  0  0  0  0  0  0  0  0
   15.8740    9.7860   19.8180 O   0  0  0  0  0  0  0  0  0  0  0  0
   15.6720   10.6080   21.8700 O   0  0  0  0  0  0  0  0  0  0  0  0
   12.5350    4.6890   23.6330 O   0  0  0  0  0  0  0  0  0  0  0  0
   13.7850    2.2870   23.3880 O   0  0  0  0  0  0  0  0  0  0  0  0
   15.0730   -1.6320   20.1220 Cl  0  0  0  0  0  0  0  0  0  0  0  0
   14.0640    7.0870   24.4220 H   0  0  0  0  0  0  0  0  0  0  0  0
   14.6680    5.2630   20.5520 H   0  0  0  0  0  0  0  0  0  0  0  0
   15.2600    9.0800   23.5920 H   0  0  0  0  0  0  0  0  0  0  0  0
   15.3720    7.4090   19.6430 H   0  0  0  0  0  0  0  0  0  0  0  0
    3.8160    0.4260   19.9120 H   0  0  0  0  0  0  0  0  0  0  0  0
   11.4910    1.0260   23.5930 H   0  0  0  0  0  0  0  0  0  0  0  0
   12.4110   -2.2370   21.0510 H   0  0  0  0  0  0  0  0  0  0  0  0
   15.1440    0.9620   21.4260 H   0  0  0  0  0  0  0  0  0  0  0  0
    4.8310    1.0080   17.7730 H   0  0  0  0  0  0  0  0  0  0  0  0
    8.5510   -0.2940   18.8870 H   0  0  0  0  0  0  0  0  0  0  0  0
    4.1040   -0.0640   22.3830 H   0  0  0  0  0  0  0  0  0  0  0  0
    5.0730   -1.6370   22.2150 H   0  0  0  0  0  0  0  0  0  0  0  0
    5.7030   -0.2600   22.9850 H   0  0  0  0  0  0  0  0  0  0  0  0
   10.2820   -2.2220   22.5860 H   0  0  0  0  0  0  0  0  0  0  0  0
    9.9860   -0.7530   23.4610 H   0  0  0  0  0  0  0  0  0  0  0  0
   13.6250    3.3470   21.6220 H   0  0  0  0  0  0  0  0  0  0  0  0
   15.3240    3.3300   22.3760 H   0  0  0  0  0  0  0  0  0  0  0  0
   14.4940    4.7250   24.2280 H   0  0  0  0  0  0  0  0  0  0  0  0
    7.6990   -1.4850   22.2930 H   0  0  0  0  0  0  0  0  0  0  0  0
   12.4060    4.0930   24.3940 H   0  0  0  0  0  0  0  0  0  0  0  0
  9 40  1  0  0  0  0
  9 23  2  0  0  0  0
 10 23  1  0  0  0  0
  5  9  1  0  0  0  0
 10 41  1  0  0  0  0
 10 15  2  0  0  0  0
  4 35  1  0  0  0  0
  5 36  1  0  0  0  0
  5 12  2  0  0  0  0
 25 27  2  0  0  0  0
 17 31  1  0  0  0  0
  2 33  1  0  0  0  0
 12 15  1  0  0  0  0
 15 24  1  0  0  0  0
  2  4  2  0  0  0  0
  4 14  1  0  0  0  0
 12 19  1  0  0  0  0
 18 26  2  0  0  0  0
  7 38  1  0  0  0  0
 14 25  1  0  0  0  0
 25 28  2  0  0  0  0
  7 17  2  0  0  0  0
  8 17  1  0  0  0  0
  2 11  1  0  0  0  0
  8 39  1  0  0  0  0
  7 13  1  0  0  0  0
 18 24  1  0  0  0  0
 18 20  1  0  0  0  0
  3 14  2  0  0  0  0
 24 50  1  0  0  0  0
 21 47  1  0  0  0  0
  8 16  2  0  0  0  0
 19 43  1  0  0  0  0
 19 42  1  0  0  0  0
 19 44  1  0  0  0  0
 13 20  1  0  0  0  0
  6 13  2  0  0  0  0
 21 48  1  0  0  0  0
 20 45  1  0  0  0  0
 20 46  1  0  0  0  0
 21 22  1  0  0  0  0
 21 30  1  0  0  0  0
 11 22  1  0  0  0  0
  1 11  2  0  0  0  0
  6 16  1  0  0  0  0
 16 30  1  0  0  0  0
  6 37  1  0  0  0  0
  1  3  1  0  0  0  0
  3 34  1  0  0  0  0
 22 29  1  0  0  0  0
 22 49  1  0  0  0  0
  1 32  1  0  0  0  0
 29 51  1  0  0  0  0
M  END
> <CID>
EN300-1910226

> <SMILES>
Cc1ccncc1NC(=O)Cc2cc(cc(c2)Cl)OC[C@@H](c3ccc(cc3)N(=O)=O)O

> <RUN>
RUN2028

> <DDG (kcal/mol)>
-0.17

> <dDDG (kcal/mol)>
0.18

$$$$
EN300-20767
  -OEChem-08252008263D

 49 51  0     0  0  0  0  0  0999 V2000
   14.7480    7.5930   25.1170 C   0  0  0  0  0  0  0  0  0  0  0  0
   14.9060    6.7490   24.0780 C   0  0  0  0  0  0  0  0  0  0  0  0
   13.6600    7.4200   26.0520 C   0  0  0  0  0  0  0  0  0  0  0  0
    5.3380    1.1260   18.7010 C   0  0  0  0  0  0  0  0  0  0  0  0
   12.9860    5.5500   24.6780 C   0  0  0  0  0  0  0  0  0  0  0  0
   11.6640    1.4540   23.5150 C   0  0  0  0  0  0  0  0  0  0  0  0
   11.5840   -0.9620   23.5410 C   0  0  0  0  0  0  0  0  0  0  0  0
   13.6290    0.1370   23.5720 C   0  0  0  0  0  0  0  0  0  0  0  0
    6.0270    0.5360   17.5750 C   0  0  0  0  0  0  0  0  0  0  0  0
    7.8180    0.0210   18.9680 C   0  0  0  0  0  0  0  0  0  0  0  0
   14.0760    5.6780   23.8660 C   0  0  0  0  0  0  0  0  0  0  0  0
    5.9370    1.1160   20.0150 C   0  0  0  0  0  0  0  0  0  0  0  0
   10.9110    0.2940   23.4510 C   0  0  0  0  0  0  0  0  0  0  0  0
   12.7840    6.3930   25.7860 C   0  0  0  0  0  0  0  0  0  0  0  0
    7.1410    0.4410   20.1200 C   0  0  0  0  0  0  0  0  0  0  0  0
   13.0490    1.4040   23.5010 C   0  0  0  0  0  0  0  0  0  0  0  0
   12.9510   -1.0470   23.5390 C   0  0  0  0  0  0  0  0  0  0  0  0
   14.1990    4.8690   22.6590 C   0  0  0  0  0  0  0  0  0  0  0  0
    9.0940    0.2900   21.7470 C   0  0  0  0  0  0  0  0  0  0  0  0
    5.1930    1.7670   21.2140 C   0  0  0  0  0  0  0  0  0  0  0  0
    9.4620    0.3400   23.2460 C   0  0  0  0  0  0  0  0  0  0  0  0
   13.5040    3.4750   22.4140 C   0  0  0  0  0  0  0  0  0  0  0  0
    7.2990    0.0490   17.7250 N   0  0  0  0  0  0  0  0  0  0  0  0
    7.6850    0.2080   21.4230 N   0  0  0  0  0  0  0  0  0  0  0  0
   11.6700    6.1430   26.6930 N   0  0  0  0  0  0  0  0  0  0  0  0
   15.0050    5.2480   21.7830 O   0  0  0  0  0  0  0  0  0  0  0  0
    9.9790    0.1430   20.8930 O   0  0  0  0  0  0  0  0  0  0  0  0
   11.0460    5.0840   26.6390 O   0  0  0  0  0  0  0  0  0  0  0  0
   11.3860    7.0170   27.5250 O   0  0  0  0  0  0  0  0  0  0  0  0
   13.8330    2.5500   23.4290 O   0  0  0  0  0  0  0  0  0  0  0  0
   13.6550   -2.6150   23.3670 Cl  0  0  0  0  0  0  0  0  0  0  0  0
   15.4910    8.3680   25.2480 H   0  0  0  0  0  0  0  0  0  0  0  0
   15.7390    7.0170   23.4360 H   0  0  0  0  0  0  0  0  0  0  0  0
   13.5620    8.0400   26.9320 H   0  0  0  0  0  0  0  0  0  0  0  0
    4.3720    1.5970   18.5240 H   0  0  0  0  0  0  0  0  0  0  0  0
   12.1890    4.8150   24.6140 H   0  0  0  0  0  0  0  0  0  0  0  0
   11.1050    2.3700   23.3560 H   0  0  0  0  0  0  0  0  0  0  0  0
   11.0670   -1.9200   23.5570 H   0  0  0  0  0  0  0  0  0  0  0  0
   14.7170    0.2000   23.5760 H   0  0  0  0  0  0  0  0  0  0  0  0
    5.5410    0.6550   16.6090 H   0  0  0  0  0  0  0  0  0  0  0  0
    8.8350   -0.3330   19.0920 H   0  0  0  0  0  0  0  0  0  0  0  0
    4.5810    0.9840   21.6730 H   0  0  0  0  0  0  0  0  0  0  0  0
    5.8870    2.2460   21.9130 H   0  0  0  0  0  0  0  0  0  0  0  0
    4.5160    2.5260   20.8190 H   0  0  0  0  0  0  0  0  0  0  0  0
    8.9160   -0.4700   23.7330 H   0  0  0  0  0  0  0  0  0  0  0  0
    9.0600    1.2830   23.6250 H   0  0  0  0  0  0  0  0  0  0  0  0
   13.8320    3.0250   21.4720 H   0  0  0  0  0  0  0  0  0  0  0  0
   12.4200    3.5910   22.3880 H   0  0  0  0  0  0  0  0  0  0  0  0
    7.0340    0.2750   22.2000 H   0  0  0  0  0  0  0  0  0  0  0  0
  9 40  1  0  0  0  0
  9 23  2  0  0  0  0
  4  9  1  0  0  0  0
 10 23  1  0  0  0  0
  4 35  1  0  0  0  0
  4 12  2  0  0  0  0
 10 41  1  0  0  0  0
 10 15  2  0  0  0  0
 12 15  1  0  0  0  0
 12 20  1  0  0  0  0
 15 24  1  0  0  0  0
 20 44  1  0  0  0  0
 19 27  2  0  0  0  0
 20 42  1  0  0  0  0
 20 43  1  0  0  0  0
 19 24  1  0  0  0  0
 24 49  1  0  0  0  0
 22 47  1  0  0  0  0
 19 21  1  0  0  0  0
 18 26  2  0  0  0  0
 22 48  1  0  0  0  0
 18 22  1  0  0  0  0
 22 30  1  0  0  0  0
 11 18  1  0  0  0  0
 13 21  1  0  0  0  0
 21 46  1  0  0  0  0
 21 45  1  0  0  0  0
  6 37  1  0  0  0  0
 17 31  1  0  0  0  0
 16 30  1  0  0  0  0
  2 33  1  0  0  0  0
  6 13  2  0  0  0  0
  7 13  1  0  0  0  0
  6 16  1  0  0  0  0
  8 16  2  0  0  0  0
  7 17  2  0  0  0  0
  8 17  1  0  0  0  0
  7 38  1  0  0  0  0
  8 39  1  0  0  0  0
  2 11  2  0  0  0  0
  5 11  1  0  0  0  0
  1  2  1  0  0  0  0
  5 36  1  0  0  0  0
  5 14  2  0  0  0  0
  1 32  1  0  0  0  0
  1  3  2  0  0  0  0
  3 14  1  0  0  0  0
 14 25  1  0  0  0  0
  3 34  1  0  0  0  0
 25 28  2  0  0  0  0
 25 29  2  0  0  0  0
M  END
> <CID>
EN300-20767

> <SMILES>
Cc1ccncc1NC(=O)Cc2cc(cc(c2)Cl)OCC(=O)c3cccc(c3)N(=O)=O

> <RUN>
RUN4590

> <DDG (kcal/mol)>
-0.16

> <dDDG (kcal/mol)>
0.34

$$$$
EN300-703231
  -OEChem-08252008263D

 61 64  0     0  0  0  0  0  0999 V2000
    5.9490    1.9710   18.9210 C   0  0  0  0  0  0  0  0  0  0  0  0
    9.5250   -1.4280   23.1100 C   0  0  0  0  0  0  0  0  0  0  0  0
   10.9450   -2.4390   21.5650 C   0  0  0  0  0  0  0  0  0  0  0  0
   11.8660   -0.8320   23.0740 C   0  0  0  0  0  0  0  0  0  0  0  0
    5.7670    1.5180   17.6010 C   0  0  0  0  0  0  0  0  0  0  0  0
    6.8230   -0.4790   18.0770 C   0  0  0  0  0  0  0  0  0  0  0  0
   11.1220    0.5790   29.0750 C   0  0  0  0  0  0  0  0  0  0  0  0
    9.9410    1.7870   27.4840 C   0  0  0  0  0  0  0  0  0  0  0  0
    6.4860    1.1610   19.8890 C   0  0  0  0  0  0  0  0  0  0  0  0
    9.7490   -2.3330   22.0110 C   0  0  0  0  0  0  0  0  0  0  0  0
   10.1600    1.5630   28.9380 C   0  0  0  0  0  0  0  0  0  0  0  0
    7.0330   -0.1250   19.4640 C   0  0  0  0  0  0  0  0  0  0  0  0
   10.5920   -0.7070   23.6620 C   0  0  0  0  0  0  0  0  0  0  0  0
   12.0390   -1.7400   22.0950 C   0  0  0  0  0  0  0  0  0  0  0  0
   10.9580    0.9430   26.8940 C   0  0  0  0  0  0  0  0  0  0  0  0
    8.9720    2.6190   26.7740 C   0  0  0  0  0  0  0  0  0  0  0  0
    7.6780   -2.3530   20.4290 C   0  0  0  0  0  0  0  0  0  0  0  0
    7.1030    2.3030   31.2690 C   0  0  0  0  0  0  0  0  0  0  0  0
    7.7580    1.0450   31.7000 C   0  0  0  0  0  0  0  0  0  0  0  0
    8.0760    1.6190   30.3500 C   0  0  0  0  0  0  0  0  0  0  0  0
    6.6710    1.6580   21.3020 C   0  0  0  0  0  0  0  0  0  0  0  0
    6.4610    2.4780   25.1390 C   0  0  0  0  0  0  0  0  0  0  0  0
    8.6140   -3.1440   21.3680 C   0  0  0  0  0  0  0  0  0  0  0  0
    9.4770    2.2020   30.0920 C   0  0  0  0  0  0  0  0  0  0  0  0
   11.2830    0.6530   25.4890 C   0  0  0  0  0  0  0  0  0  0  0  0
    7.7990    3.1390   24.7610 C   0  0  0  0  0  0  0  0  0  0  0  0
    6.2170    0.3470   17.1590 N   0  0  0  0  0  0  0  0  0  0  0  0
    7.6620   -0.9910   20.4020 N   0  0  0  0  0  0  0  0  0  0  0  0
    8.3220    3.4490   27.4650 O   0  0  0  0  0  0  0  0  0  0  0  0
    6.9590   -2.9980   19.6920 O   0  0  0  0  0  0  0  0  0  0  0  0
   11.6660    0.2050   27.8610 O   0  0  0  0  0  0  0  0  0  0  0  0
   10.2070    0.0150   24.7500 O   0  0  0  0  0  0  0  0  0  0  0  0
    8.9610    2.5760   25.3930 O   0  0  0  0  0  0  0  0  0  0  0  0
   13.5760   -1.8350   21.3180 Cl  0  0  0  0  0  0  0  0  0  0  0  0
    5.5780    2.9770   19.0710 H   0  0  0  0  0  0  0  0  0  0  0  0
    8.5380   -1.2630   23.5370 H   0  0  0  0  0  0  0  0  0  0  0  0
   11.2060   -3.1340   20.7610 H   0  0  0  0  0  0  0  0  0  0  0  0
   12.6880   -0.2360   23.4580 H   0  0  0  0  0  0  0  0  0  0  0  0
    5.2360    2.2950   17.0580 H   0  0  0  0  0  0  0  0  0  0  0  0
    7.1150   -1.4670   17.7520 H   0  0  0  0  0  0  0  0  0  0  0  0
   11.4820    0.2070   30.0240 H   0  0  0  0  0  0  0  0  0  0  0  0
    6.0330    2.2560   31.0270 H   0  0  0  0  0  0  0  0  0  0  0  0
    7.4810    3.1870   31.7870 H   0  0  0  0  0  0  0  0  0  0  0  0
    8.5050    0.9090   32.4890 H   0  0  0  0  0  0  0  0  0  0  0  0
    7.0860    0.1930   31.6000 H   0  0  0  0  0  0  0  0  0  0  0  0
    7.5420    1.0640   29.5740 H   0  0  0  0  0  0  0  0  0  0  0  0
    5.8560    2.3120   21.6430 H   0  0  0  0  0  0  0  0  0  0  0  0
    6.5230    0.7780   21.9450 H   0  0  0  0  0  0  0  0  0  0  0  0
    7.6680    2.0930   21.3940 H   0  0  0  0  0  0  0  0  0  0  0  0
    6.4540    1.3830   25.0710 H   0  0  0  0  0  0  0  0  0  0  0  0
    6.1820    2.7910   26.1480 H   0  0  0  0  0  0  0  0  0  0  0  0
    5.6760    2.8100   24.4540 H   0  0  0  0  0  0  0  0  0  0  0  0
    9.0970   -3.9890   20.8660 H   0  0  0  0  0  0  0  0  0  0  0  0
    7.9260   -3.5630   22.1040 H   0  0  0  0  0  0  0  0  0  0  0  0
   10.0840    2.0970   30.9910 H   0  0  0  0  0  0  0  0  0  0  0  0
    9.4590    3.2640   29.8170 H   0  0  0  0  0  0  0  0  0  0  0  0
   11.5190    1.5620   24.9360 H   0  0  0  0  0  0  0  0  0  0  0  0
   12.1910    0.0470   25.4810 H   0  0  0  0  0  0  0  0  0  0  0  0
    7.9260    3.2310   23.6810 H   0  0  0  0  0  0  0  0  0  0  0  0
    7.6980    4.1420   25.1790 H   0  0  0  0  0  0  0  0  0  0  0  0
    8.3520   -0.4530   20.9240 H   0  0  0  0  0  0  0  0  0  0  0  0
  5 39  1  0  0  0  0
  5 27  2  0  0  0  0
  6 27  1  0  0  0  0
  1  5  1  0  0  0  0
  6 40  1  0  0  0  0
  6 12  2  0  0  0  0
  1 35  1  0  0  0  0
  1  9  2  0  0  0  0
  9 12  1  0  0  0  0
 12 28  1  0  0  0  0
 17 30  2  0  0  0  0
  9 21  1  0  0  0  0
 17 28  1  0  0  0  0
 28 61  1  0  0  0  0
 17 23  1  0  0  0  0
  3 37  1  0  0  0  0
 23 53  1  0  0  0  0
 21 49  1  0  0  0  0
 21 47  1  0  0  0  0
 21 48  1  0  0  0  0
 14 34  1  0  0  0  0
 10 23  1  0  0  0  0
 23 54  1  0  0  0  0
  3 10  2  0  0  0  0
  3 14  1  0  0  0  0
  2 10  1  0  0  0  0
  4 14  2  0  0  0  0
  4 38  1  0  0  0  0
  4 13  1  0  0  0  0
  2 36  1  0  0  0  0
  2 13  2  0  0  0  0
 13 32  1  0  0  0  0
 26 59  1  0  0  0  0
 22 52  1  0  0  0  0
 25 32  1  0  0  0  0
 22 26  1  0  0  0  0
 26 60  1  0  0  0  0
 26 33  1  0  0  0  0
 25 57  1  0  0  0  0
 22 50  1  0  0  0  0
 22 51  1  0  0  0  0
 16 33  1  0  0  0  0
 25 58  1  0  0  0  0
 15 25  1  0  0  0  0
 16 29  2  0  0  0  0
  8 16  1  0  0  0  0
  8 15  2  0  0  0  0
 15 31  1  0  0  0  0
  8 11  1  0  0  0  0
  7 31  1  0  0  0  0
  7 11  2  0  0  0  0
 11 24  1  0  0  0  0
  7 41  1  0  0  0  0
 20 46  1  0  0  0  0
 24 56  1  0  0  0  0
 20 24  1  0  0  0  0
 24 55  1  0  0  0  0
 18 20  1  0  0  0  0
 19 20  1  0  0  0  0
 18 42  1  0  0  0  0
 18 19  1  0  0  0  0
 18 43  1  0  0  0  0
 19 45  1  0  0  0  0
 19 44  1  0  0  0  0
M  END
> <CID>
EN300-703231

> <SMILES>
CCOC(=O)c1c(coc1COc2cc(cc(c2)Cl)CC(=O)Nc3cnccc3C)CC4CC4

> <RUN>
RUN1063

> <DDG (kcal/mol)>
-0.16

> <dDDG (kcal/mol)>
0.17

$$$$
EN300-367729
  -OEChem-08252008263D

 52 55  0     0  0  0  0  0  0999 V2000
   10.9860    9.8640   24.6930 C   0  0  0  0  0  0  0  0  0  0  0  0
   10.4020    9.7640   23.3830 C   0  0  0  0  0  0  0  0  0  0  0  0
   11.8490    8.8970   25.1650 C   0  0  0  0  0  0  0  0  0  0  0  0
   10.8400    8.7800   22.4900 C   0  0  0  0  0  0  0  0  0  0  0  0
    5.9210    2.0200   19.0470 C   0  0  0  0  0  0  0  0  0  0  0  0
   13.0250    6.7290   24.3760 C   0  0  0  0  0  0  0  0  0  0  0  0
   12.8540    1.6020   22.9670 C   0  0  0  0  0  0  0  0  0  0  0  0
   13.0060   -0.6020   21.9500 C   0  0  0  0  0  0  0  0  0  0  0  0
   14.9980    0.6160   22.6260 C   0  0  0  0  0  0  0  0  0  0  0  0
    6.4890    1.4150   17.9230 C   0  0  0  0  0  0  0  0  0  0  0  0
    8.3150    0.7060   19.0980 C   0  0  0  0  0  0  0  0  0  0  0  0
   12.2240    7.9070   24.2400 C   0  0  0  0  0  0  0  0  0  0  0  0
    6.5900    1.9550   20.2790 C   0  0  0  0  0  0  0  0  0  0  0  0
   12.2000    0.4270   22.5030 C   0  0  0  0  0  0  0  0  0  0  0  0
   11.8540    7.8990   22.8740 C   0  0  0  0  0  0  0  0  0  0  0  0
    7.8080    1.2690   20.3460 C   0  0  0  0  0  0  0  0  0  0  0  0
   14.2570    1.6890   23.1200 C   0  0  0  0  0  0  0  0  0  0  0  0
   14.4120   -0.5340   22.0920 C   0  0  0  0  0  0  0  0  0  0  0  0
   13.1070    6.1000   23.1520 C   0  0  0  0  0  0  0  0  0  0  0  0
    9.7700    1.2490   21.6450 C   0  0  0  0  0  0  0  0  0  0  0  0
    6.0540    2.6660   21.4440 C   0  0  0  0  0  0  0  0  0  0  0  0
   10.6320    0.2790   22.5110 C   0  0  0  0  0  0  0  0  0  0  0  0
   13.8360    4.8330   22.8190 C   0  0  0  0  0  0  0  0  0  0  0  0
   14.0830    3.8660   23.9880 C   0  0  0  0  0  0  0  0  0  0  0  0
    7.6710    0.7860   17.9190 N   0  0  0  0  0  0  0  0  0  0  0  0
   12.3840    6.7730   22.2160 N   0  0  0  0  0  0  0  0  0  0  0  0
    8.4370    1.1060   21.5560 N   0  0  0  0  0  0  0  0  0  0  0  0
   10.3600    2.0980   21.0080 O   0  0  0  0  0  0  0  0  0  0  0  0
   14.9210    2.7670   23.6650 O   0  0  0  0  0  0  0  0  0  0  0  0
   15.5220   -1.8310   21.5720 Cl  0  0  0  0  0  0  0  0  0  0  0  0
   10.6690   10.6540   25.3680 H   0  0  0  0  0  0  0  0  0  0  0  0
    9.6280   10.5110   23.2330 H   0  0  0  0  0  0  0  0  0  0  0  0
   12.1030    8.8830   26.2230 H   0  0  0  0  0  0  0  0  0  0  0  0
   10.4090    8.7200   21.5030 H   0  0  0  0  0  0  0  0  0  0  0  0
    5.0120    2.5780   18.8980 H   0  0  0  0  0  0  0  0  0  0  0  0
   13.5050    6.4220   25.2980 H   0  0  0  0  0  0  0  0  0  0  0  0
   12.1710    2.3650   23.3190 H   0  0  0  0  0  0  0  0  0  0  0  0
   12.5570   -1.4560   21.4570 H   0  0  0  0  0  0  0  0  0  0  0  0
   16.0730    0.7730   22.6040 H   0  0  0  0  0  0  0  0  0  0  0  0
    5.9560    1.5740   16.9820 H   0  0  0  0  0  0  0  0  0  0  0  0
    9.2310    0.1220   19.1940 H   0  0  0  0  0  0  0  0  0  0  0  0
    5.2190    2.1190   21.8810 H   0  0  0  0  0  0  0  0  0  0  0  0
    6.7610    2.8170   22.2600 H   0  0  0  0  0  0  0  0  0  0  0  0
    5.5980    3.6490   21.2980 H   0  0  0  0  0  0  0  0  0  0  0  0
   10.5110   -0.6800   22.0080 H   0  0  0  0  0  0  0  0  0  0  0  0
   10.3460    0.2530   23.5670 H   0  0  0  0  0  0  0  0  0  0  0  0
   13.2580    4.3250   22.0420 H   0  0  0  0  0  0  0  0  0  0  0  0
   14.8270    5.1480   22.4820 H   0  0  0  0  0  0  0  0  0  0  0  0
   14.6900    4.4070   24.7150 H   0  0  0  0  0  0  0  0  0  0  0  0
   13.2600    3.5420   24.6290 H   0  0  0  0  0  0  0  0  0  0  0  0
   12.0500    6.3910   21.3330 H   0  0  0  0  0  0  0  0  0  0  0  0
    7.9320    0.7920   22.3840 H   0  0  0  0  0  0  0  0  0  0  0  0
 10 40  1  0  0  0  0
 10 25  2  0  0  0  0
 11 25  1  0  0  0  0
  5 10  1  0  0  0  0
  5 35  1  0  0  0  0
  5 13  2  0  0  0  0
 11 41  1  0  0  0  0
 11 16  2  0  0  0  0
 13 16  1  0  0  0  0
 13 21  1  0  0  0  0
 16 27  1  0  0  0  0
 20 28  2  0  0  0  0
 21 44  1  0  0  0  0
 26 51  1  0  0  0  0
 21 42  1  0  0  0  0
 21 43  1  0  0  0  0
  8 38  1  0  0  0  0
  4 34  1  0  0  0  0
 20 27  1  0  0  0  0
 27 52  1  0  0  0  0
 18 30  1  0  0  0  0
 20 22  1  0  0  0  0
  8 18  2  0  0  0  0
  8 14  1  0  0  0  0
 22 45  1  0  0  0  0
 23 47  1  0  0  0  0
  9 18  1  0  0  0  0
 15 26  1  0  0  0  0
 19 26  1  0  0  0  0
 23 48  1  0  0  0  0
  4 15  2  0  0  0  0
  2  4  1  0  0  0  0
 14 22  1  0  0  0  0
  7 14  2  0  0  0  0
 22 46  1  0  0  0  0
  9 39  1  0  0  0  0
  9 17  2  0  0  0  0
 19 23  1  0  0  0  0
 23 24  1  0  0  0  0
 12 15  1  0  0  0  0
  7 17  1  0  0  0  0
  7 37  1  0  0  0  0
 17 29  1  0  0  0  0
  6 19  2  0  0  0  0
  2 32  1  0  0  0  0
  1  2  2  0  0  0  0
 24 29  1  0  0  0  0
 24 50  1  0  0  0  0
 24 49  1  0  0  0  0
  6 12  1  0  0  0  0
  3 12  2  0  0  0  0
  6 36  1  0  0  0  0
  1  3  1  0  0  0  0
  1 31  1  0  0  0  0
  3 33  1  0  0  0  0
M  END
> <CID>
EN300-367729

> <SMILES>
Cc1ccncc1NC(=O)Cc2cc(cc(c2)Cl)OCCc3cc4ccccc4[nH]3

> <RUN>
RUN3481

> <DDG (kcal/mol)>
-0.16

> <dDDG (kcal/mol)>
0.15

$$$$
EN300-1609143
  -OEChem-08252008263D

 56 58  0     0  0  0  0  0  0999 V2000
    4.9200    1.8400   19.9360 C   0  0  0  0  0  0  0  0  0  0  0  0
   11.9760    3.1130   22.5380 C   0  0  0  0  0  0  0  0  0  0  0  0
   12.4010    0.7780   22.9280 C   0  0  0  0  0  0  0  0  0  0  0  0
   14.1790    2.1520   22.3630 C   0  0  0  0  0  0  0  0  0  0  0  0
    5.4490    1.1200   18.8450 C   0  0  0  0  0  0  0  0  0  0  0  0
    7.3250    0.7190   19.9410 C   0  0  0  0  0  0  0  0  0  0  0  0
   15.9240    7.4750   19.5390 C   0  0  0  0  0  0  0  0  0  0  0  0
    5.7120    2.0180   21.0690 C   0  0  0  0  0  0  0  0  0  0  0  0
   11.4740    1.8790   22.9790 C   0  0  0  0  0  0  0  0  0  0  0  0
    6.9750    1.4040   21.0730 C   0  0  0  0  0  0  0  0  0  0  0  0
   13.3490    3.2560   22.1730 C   0  0  0  0  0  0  0  0  0  0  0  0
   13.7410    0.8830   22.7050 C   0  0  0  0  0  0  0  0  0  0  0  0
   15.1420    8.3970   20.1130 C   0  0  0  0  0  0  0  0  0  0  0  0
   14.2250    6.4750   20.5200 C   0  0  0  0  0  0  0  0  0  0  0  0
   15.5480    9.8390   19.9600 C   0  0  0  0  0  0  0  0  0  0  0  0
    9.2050    1.4040   22.2550 C   0  0  0  0  0  0  0  0  0  0  0  0
    5.2880    2.9010   22.2350 C   0  0  0  0  0  0  0  0  0  0  0  0
   15.9390   12.8250   20.8740 C   0  0  0  0  0  0  0  0  0  0  0  0
   14.7590   12.4080   18.6350 C   0  0  0  0  0  0  0  0  0  0  0  0
   13.5870   12.7790   20.8000 C   0  0  0  0  0  0  0  0  0  0  0  0
   10.0610    1.7560   23.4330 C   0  0  0  0  0  0  0  0  0  0  0  0
   13.3140    5.4120   20.9730 C   0  0  0  0  0  0  0  0  0  0  0  0
   14.8050   12.1100   20.1820 C   0  0  0  0  0  0  0  0  0  0  0  0
    6.6160    0.5950   18.8740 N   0  0  0  0  0  0  0  0  0  0  0  0
   14.0600    7.7830   20.7520 N   0  0  0  0  0  0  0  0  0  0  0  0
    7.8360    1.5450   22.1890 N   0  0  0  0  0  0  0  0  0  0  0  0
   16.5230   10.1280   19.2810 O   0  0  0  0  0  0  0  0  0  0  0  0
    9.7670    0.7450   21.4140 O   0  0  0  0  0  0  0  0  0  0  0  0
   15.3860    6.2480   19.8410 O   0  0  0  0  0  0  0  0  0  0  0  0
   14.0040    4.4400   21.7930 O   0  0  0  0  0  0  0  0  0  0  0  0
   14.6820   10.7420   20.5060 O   0  0  0  0  0  0  0  0  0  0  0  0
   14.7620   -0.5430   22.7500 Cl  0  0  0  0  0  0  0  0  0  0  0  0
    3.9460    2.2860   19.7600 H   0  0  0  0  0  0  0  0  0  0  0  0
   11.4140    4.0280   22.3540 H   0  0  0  0  0  0  0  0  0  0  0  0
   11.9790   -0.1660   23.2680 H   0  0  0  0  0  0  0  0  0  0  0  0
   15.2510    2.2430   22.2060 H   0  0  0  0  0  0  0  0  0  0  0  0
    4.8720    0.9970   17.9310 H   0  0  0  0  0  0  0  0  0  0  0  0
    8.2270    0.1170   19.8870 H   0  0  0  0  0  0  0  0  0  0  0  0
   16.8720    7.6280   19.0460 H   0  0  0  0  0  0  0  0  0  0  0  0
    5.8220    3.8450   22.0960 H   0  0  0  0  0  0  0  0  0  0  0  0
    4.2350    3.1840   22.1870 H   0  0  0  0  0  0  0  0  0  0  0  0
    5.5660    2.5310   23.2330 H   0  0  0  0  0  0  0  0  0  0  0  0
   16.8020   12.2840   20.4810 H   0  0  0  0  0  0  0  0  0  0  0  0
   16.0430   13.8610   20.5560 H   0  0  0  0  0  0  0  0  0  0  0  0
   15.8940   12.6050   21.9490 H   0  0  0  0  0  0  0  0  0  0  0  0
   14.4920   13.4690   18.5040 H   0  0  0  0  0  0  0  0  0  0  0  0
   14.0110   11.7280   18.2240 H   0  0  0  0  0  0  0  0  0  0  0  0
   15.8020   12.2570   18.3380 H   0  0  0  0  0  0  0  0  0  0  0  0
   13.4150   13.8110   20.4770 H   0  0  0  0  0  0  0  0  0  0  0  0
   12.6840   12.3200   20.3670 H   0  0  0  0  0  0  0  0  0  0  0  0
   13.6030   12.8260   21.8910 H   0  0  0  0  0  0  0  0  0  0  0  0
    9.9060    1.0680   24.2650 H   0  0  0  0  0  0  0  0  0  0  0  0
    9.7190    2.7570   23.7320 H   0  0  0  0  0  0  0  0  0  0  0  0
   12.5250    5.9060   21.5450 H   0  0  0  0  0  0  0  0  0  0  0  0
   12.8210    4.8700   20.1560 H   0  0  0  0  0  0  0  0  0  0  0  0
    7.3530    1.8250   23.0440 H   0  0  0  0  0  0  0  0  0  0  0  0
  5 37  1  0  0  0  0
 19 47  1  0  0  0  0
 19 48  1  0  0  0  0
 19 46  1  0  0  0  0
 19 23  1  0  0  0  0
  5 24  2  0  0  0  0
  1  5  1  0  0  0  0
  6 24  1  0  0  0  0
  7 39  1  0  0  0  0
 15 27  2  0  0  0  0
  7 29  1  0  0  0  0
  7 13  2  0  0  0  0
  1 33  1  0  0  0  0
 14 29  1  0  0  0  0
  6 38  1  0  0  0  0
  1  8  2  0  0  0  0
  6 10  2  0  0  0  0
 13 15  1  0  0  0  0
 15 31  1  0  0  0  0
 13 25  1  0  0  0  0
 22 55  1  0  0  0  0
 23 31  1  0  0  0  0
 20 23  1  0  0  0  0
 18 23  1  0  0  0  0
 20 50  1  0  0  0  0
 20 49  1  0  0  0  0
 18 43  1  0  0  0  0
 14 25  2  0  0  0  0
 14 22  1  0  0  0  0
 18 44  1  0  0  0  0
 20 51  1  0  0  0  0
 18 45  1  0  0  0  0
 22 54  1  0  0  0  0
 22 30  1  0  0  0  0
  8 10  1  0  0  0  0
  8 17  1  0  0  0  0
 10 26  1  0  0  0  0
 16 28  2  0  0  0  0
 11 30  1  0  0  0  0
 17 40  1  0  0  0  0
  4 11  2  0  0  0  0
  2 11  1  0  0  0  0
 17 41  1  0  0  0  0
 16 26  1  0  0  0  0
 26 56  1  0  0  0  0
  4 36  1  0  0  0  0
 17 42  1  0  0  0  0
 16 21  1  0  0  0  0
  2 34  1  0  0  0  0
  4 12  1  0  0  0  0
  2  9  2  0  0  0  0
 12 32  1  0  0  0  0
  3 12  2  0  0  0  0
  3  9  1  0  0  0  0
  3 35  1  0  0  0  0
  9 21  1  0  0  0  0
 21 53  1  0  0  0  0
 21 52  1  0  0  0  0
M  END
> <CID>
EN300-1609143

> <SMILES>
Cc1ccncc1NC(=O)Cc2cc(cc(c2)Cl)OCc3nc(co3)C(=O)OC(C)(C)C

> <RUN>
RUN364

> <DDG (kcal/mol)>
-0.15

> <dDDG (kcal/mol)>
0.14

$$$$
EN300-1700433
  -OEChem-08252008263D

 50 52  0     0  0  0  0  0  0999 V2000
    4.3230    1.9230   19.1870 C   0  0  0  0  0  0  0  0  0  0  0  0
   12.2960    5.2060   24.6650 C   0  0  0  0  0  0  0  0  0  0  0  0
   10.9990    1.3060   23.0670 C   0  0  0  0  0  0  0  0  0  0  0  0
   11.1780   -0.9520   22.2540 C   0  0  0  0  0  0  0  0  0  0  0  0
   13.0840    0.3490   22.4520 C   0  0  0  0  0  0  0  0  0  0  0  0
    4.8930    1.6230   17.9800 C   0  0  0  0  0  0  0  0  0  0  0  0
    6.6790    0.5600   18.9970 C   0  0  0  0  0  0  0  0  0  0  0  0
   14.0240    6.6810   23.9450 C   0  0  0  0  0  0  0  0  0  0  0  0
   13.2550    5.5670   23.6270 C   0  0  0  0  0  0  0  0  0  0  0  0
    4.8950    1.5330   20.4170 C   0  0  0  0  0  0  0  0  0  0  0  0
   10.4060    0.1360   22.7380 C   0  0  0  0  0  0  0  0  0  0  0  0
    6.1700    0.8470   20.3080 C   0  0  0  0  0  0  0  0  0  0  0  0
   12.3710    1.4290   22.8980 C   0  0  0  0  0  0  0  0  0  0  0  0
   12.5520   -0.8610   22.0860 C   0  0  0  0  0  0  0  0  0  0  0  0
   12.3650    6.0260   25.7500 C   0  0  0  0  0  0  0  0  0  0  0  0
   13.4510    4.8650   22.2940 C   0  0  0  0  0  0  0  0  0  0  0  0
   11.6550    5.8930   27.0790 C   0  0  0  0  0  0  0  0  0  0  0  0
    8.2570    0.5940   21.6360 C   0  0  0  0  0  0  0  0  0  0  0  0
    4.4430    1.9680   21.7430 C   0  0  0  0  0  0  0  0  0  0  0  0
   10.5840    6.6140   29.0020 C   0  0  0  0  0  0  0  0  0  0  0  0
    8.8870   -0.0080   22.8190 C   0  0  0  0  0  0  0  0  0  0  0  0
   12.6800    3.6590   22.0530 C   0  0  0  0  0  0  0  0  0  0  0  0
    6.0510    0.9200   17.8600 N   0  0  0  0  0  0  0  0  0  0  0  0
    6.9070    0.4720   21.5060 N   0  0  0  0  0  0  0  0  0  0  0  0
   14.3320    5.3170   21.5030 O   0  0  0  0  0  0  0  0  0  0  0  0
   11.2550    4.7780   27.2750 O   0  0  0  0  0  0  0  0  0  0  0  0
    8.8710    1.2710   20.8180 O   0  0  0  0  0  0  0  0  0  0  0  0
   12.9640    2.6810   23.0580 O   0  0  0  0  0  0  0  0  0  0  0  0
   11.2810    6.9640   27.8040 O   0  0  0  0  0  0  0  0  0  0  0  0
   13.5610    7.2680   25.5180 S   0  0  0  0  0  0  0  0  0  0  0  0
   13.4600   -2.1640   21.2960 Cl  0  0  0  0  0  0  0  0  0  0  0  0
    3.4210    2.5200   19.2810 H   0  0  0  0  0  0  0  0  0  0  0  0
   11.5960    4.3750   24.6850 H   0  0  0  0  0  0  0  0  0  0  0  0
   10.4370    2.0590   23.6080 H   0  0  0  0  0  0  0  0  0  0  0  0
   10.7490   -1.9170   22.0440 H   0  0  0  0  0  0  0  0  0  0  0  0
   14.1630    0.4190   22.3370 H   0  0  0  0  0  0  0  0  0  0  0  0
    4.3790    2.0600   17.1300 H   0  0  0  0  0  0  0  0  0  0  0  0
    7.6310    0.0450   18.9690 H   0  0  0  0  0  0  0  0  0  0  0  0
   14.9000    6.9510   23.3770 H   0  0  0  0  0  0  0  0  0  0  0  0
    3.6220    2.6830   21.6450 H   0  0  0  0  0  0  0  0  0  0  0  0
    4.1240    1.0940   22.3280 H   0  0  0  0  0  0  0  0  0  0  0  0
    5.2310    2.5160   22.2600 H   0  0  0  0  0  0  0  0  0  0  0  0
   10.4200    7.4820   29.6500 H   0  0  0  0  0  0  0  0  0  0  0  0
   11.2200    5.9520   29.5960 H   0  0  0  0  0  0  0  0  0  0  0  0
    9.7000    6.0100   28.7680 H   0  0  0  0  0  0  0  0  0  0  0  0
    8.6220   -1.0660   22.6930 H   0  0  0  0  0  0  0  0  0  0  0  0
    8.6330    0.3990   23.7960 H   0  0  0  0  0  0  0  0  0  0  0  0
   12.8380    3.3270   21.0250 H   0  0  0  0  0  0  0  0  0  0  0  0
   11.6580    4.0440   22.1420 H   0  0  0  0  0  0  0  0  0  0  0  0
    6.3530    0.1620   22.2960 H   0  0  0  0  0  0  0  0  0  0  0  0
  6 37  1  0  0  0  0
  6 23  2  0  0  0  0
  7 23  1  0  0  0  0
  1  6  1  0  0  0  0
  7 38  1  0  0  0  0
  7 12  2  0  0  0  0
  1 32  1  0  0  0  0
  1 10  2  0  0  0  0
 10 12  1  0  0  0  0
 12 24  1  0  0  0  0
 10 19  1  0  0  0  0
 18 27  2  0  0  0  0
 22 48  1  0  0  0  0
 14 31  1  0  0  0  0
 16 25  2  0  0  0  0
 18 24  1  0  0  0  0
 24 50  1  0  0  0  0
 18 21  1  0  0  0  0
 19 40  1  0  0  0  0
 19 42  1  0  0  0  0
 19 41  1  0  0  0  0
  4 35  1  0  0  0  0
 22 49  1  0  0  0  0
 16 22  1  0  0  0  0
 22 28  1  0  0  0  0
  4 14  2  0  0  0  0
  5 14  1  0  0  0  0
  4 11  1  0  0  0  0
  9 16  1  0  0  0  0
  5 36  1  0  0  0  0
  5 13  2  0  0  0  0
 21 46  1  0  0  0  0
 11 21  1  0  0  0  0
  3 11  2  0  0  0  0
 21 47  1  0  0  0  0
 13 28  1  0  0  0  0
  3 13  1  0  0  0  0
  3 34  1  0  0  0  0
  8 39  1  0  0  0  0
  8  9  2  0  0  0  0
  2  9  1  0  0  0  0
  8 30  1  0  0  0  0
  2 33  1  0  0  0  0
  2 15  2  0  0  0  0
 15 30  1  0  0  0  0
 15 17  1  0  0  0  0
 17 26  2  0  0  0  0
 17 29  1  0  0  0  0
 20 29  1  0  0  0  0
 20 45  1  0  0  0  0
 20 44  1  0  0  0  0
 20 43  1  0  0  0  0
M  END
> <CID>
EN300-1700433

> <SMILES>
Cc1ccncc1NC(=O)Cc2cc(cc(c2)Cl)OCC(=O)c3cc(sc3)C(=O)OC

> <RUN>
RUN4283

> <DDG (kcal/mol)>
-0.15

> <dDDG (kcal/mol)>
0.17

$$$$
EN300-210903
  -OEChem-08252008263D

 50 52  0     0  0  0  0  0  0999 V2000
   12.2220    0.9110   29.8280 C   0  0  0  0  0  0  0  0  0  0  0  0
   12.2430    1.4260   31.1290 C   0  0  0  0  0  0  0  0  0  0  0  0
    5.3070    1.0950   20.7000 C   0  0  0  0  0  0  0  0  0  0  0  0
    9.8590    1.3450   29.6440 C   0  0  0  0  0  0  0  0  0  0  0  0
   11.2630   -0.7060   24.9080 C   0  0  0  0  0  0  0  0  0  0  0  0
   12.6560   -0.6810   22.9840 C   0  0  0  0  0  0  0  0  0  0  0  0
   13.4180    0.4310   25.0510 C   0  0  0  0  0  0  0  0  0  0  0  0
    5.8230    1.4190   19.4580 C   0  0  0  0  0  0  0  0  0  0  0  0
    7.6970    0.2160   19.8590 C   0  0  0  0  0  0  0  0  0  0  0  0
   11.0580    0.8220   29.0920 C   0  0  0  0  0  0  0  0  0  0  0  0
   11.0350    1.9270   31.6990 C   0  0  0  0  0  0  0  0  0  0  0  0
    6.0200    0.3910   21.6150 C   0  0  0  0  0  0  0  0  0  0  0  0
   11.4480   -1.1290   23.5690 C   0  0  0  0  0  0  0  0  0  0  0  0
    9.8180    1.9070   30.9200 C   0  0  0  0  0  0  0  0  0  0  0  0
    7.2800   -0.1020   21.2050 C   0  0  0  0  0  0  0  0  0  0  0  0
   12.2410    0.0220   25.6580 C   0  0  0  0  0  0  0  0  0  0  0  0
   13.6530    0.0110   23.7310 C   0  0  0  0  0  0  0  0  0  0  0  0
    9.5440   -0.6100   22.1140 C   0  0  0  0  0  0  0  0  0  0  0  0
   11.1250    2.5170   33.1220 C   0  0  0  0  0  0  0  0  0  0  0  0
    5.5060    0.0400   23.0090 C   0  0  0  0  0  0  0  0  0  0  0  0
   10.3570   -1.7250   22.7840 C   0  0  0  0  0  0  0  0  0  0  0  0
   10.9970    0.1730   27.7030 C   0  0  0  0  0  0  0  0  0  0  0  0
    6.9750    0.9300   19.0160 N   0  0  0  0  0  0  0  0  0  0  0  0
    8.1510   -0.6850   22.1040 N   0  0  0  0  0  0  0  0  0  0  0  0
    8.6400    2.4550   31.3830 N   0  0  0  0  0  0  0  0  0  0  0  0
   10.0870    0.2710   21.4860 O   0  0  0  0  0  0  0  0  0  0  0  0
    8.6880    3.5080   31.9990 O   0  0  0  0  0  0  0  0  0  0  0  0
    7.5860    1.8250   31.1610 O   0  0  0  0  0  0  0  0  0  0  0  0
   12.1650    0.4330   26.9760 O   0  0  0  0  0  0  0  0  0  0  0  0
   15.1000    0.5100   22.9820 Cl  0  0  0  0  0  0  0  0  0  0  0  0
   13.1710    0.6100   29.3890 H   0  0  0  0  0  0  0  0  0  0  0  0
   13.1730    1.5200   31.6650 H   0  0  0  0  0  0  0  0  0  0  0  0
    4.4130    1.5730   21.0720 H   0  0  0  0  0  0  0  0  0  0  0  0
    8.9970    1.3110   28.9730 H   0  0  0  0  0  0  0  0  0  0  0  0
   10.2850   -0.8700   25.3540 H   0  0  0  0  0  0  0  0  0  0  0  0
   12.7740   -0.8820   21.9270 H   0  0  0  0  0  0  0  0  0  0  0  0
   14.1290    1.0850   25.5460 H   0  0  0  0  0  0  0  0  0  0  0  0
    5.1260    1.9720   18.8210 H   0  0  0  0  0  0  0  0  0  0  0  0
    8.6880   -0.0890   19.5340 H   0  0  0  0  0  0  0  0  0  0  0  0
   11.8480    1.9590   33.7270 H   0  0  0  0  0  0  0  0  0  0  0  0
   10.1640    2.4070   33.6380 H   0  0  0  0  0  0  0  0  0  0  0  0
   11.4630    3.5510   33.1970 H   0  0  0  0  0  0  0  0  0  0  0  0
    6.2280    0.4220   23.7380 H   0  0  0  0  0  0  0  0  0  0  0  0
    4.5040    0.4300   23.2210 H   0  0  0  0  0  0  0  0  0  0  0  0
    5.4690   -1.0180   23.2900 H   0  0  0  0  0  0  0  0  0  0  0  0
   10.7580   -2.3930   22.0060 H   0  0  0  0  0  0  0  0  0  0  0  0
    9.7810   -2.3190   23.4900 H   0  0  0  0  0  0  0  0  0  0  0  0
   10.8550   -0.9100   27.7390 H   0  0  0  0  0  0  0  0  0  0  0  0
   10.1160    0.6600   27.2630 H   0  0  0  0  0  0  0  0  0  0  0  0
    7.7620   -1.3730   22.7570 H   0  0  0  0  0  0  0  0  0  0  0  0
  8 38  1  0  0  0  0
  8 23  2  0  0  0  0
  9 23  1  0  0  0  0
  3  8  1  0  0  0  0
  9 39  1  0  0  0  0
  9 15  2  0  0  0  0
  3 33  1  0  0  0  0
  3 12  2  0  0  0  0
 12 15  1  0  0  0  0
 15 24  1  0  0  0  0
 18 26  2  0  0  0  0
 12 20  1  0  0  0  0
  6 36  1  0  0  0  0
 21 46  1  0  0  0  0
 18 24  1  0  0  0  0
 24 50  1  0  0  0  0
 18 21  1  0  0  0  0
 21 47  1  0  0  0  0
 13 21  1  0  0  0  0
 17 30  1  0  0  0  0
  6 13  2  0  0  0  0
  6 17  1  0  0  0  0
 20 44  1  0  0  0  0
 20 45  1  0  0  0  0
 20 43  1  0  0  0  0
  5 13  1  0  0  0  0
  7 17  2  0  0  0  0
  5 35  1  0  0  0  0
  5 16  2  0  0  0  0
  7 37  1  0  0  0  0
  7 16  1  0  0  0  0
 16 29  1  0  0  0  0
 22 29  1  0  0  0  0
 22 49  1  0  0  0  0
 22 48  1  0  0  0  0
 10 22  1  0  0  0  0
  4 34  1  0  0  0  0
  4 10  2  0  0  0  0
  1 10  1  0  0  0  0
  1 31  1  0  0  0  0
  4 14  1  0  0  0  0
  1  2  2  0  0  0  0
 14 25  1  0  0  0  0
 11 14  2  0  0  0  0
  2 32  1  0  0  0  0
  2 11  1  0  0  0  0
 25 28  2  0  0  0  0
 25 27  2  0  0  0  0
 11 19  1  0  0  0  0
 19 42  1  0  0  0  0
 19 41  1  0  0  0  0
 19 40  1  0  0  0  0
M  END
> <CID>
EN300-210903

> <SMILES>
Cc1ccc(cc1N(=O)=O)COc2cc(cc(c2)Cl)CC(=O)Nc3cnccc3C

> <RUN>
RUN2470

> <DDG (kcal/mol)>
-0.15

> <dDDG (kcal/mol)>
0.14

$$$$
EN300-1889287
  -OEChem-08252008263D

 62 64  0     0  0  0  0  0  0999 V2000
   16.4240    5.3650   23.5360 C   0  0  0  0  0  0  0  0  0  0  0  0
   16.5810    6.2150   24.6310 C   0  0  0  0  0  0  0  0  0  0  0  0
    5.8250    1.4020   20.0430 C   0  0  0  0  0  0  0  0  0  0  0  0
   13.2800    1.4560   22.6170 C   0  0  0  0  0  0  0  0  0  0  0  0
   13.2330   -0.9130   23.0730 C   0  0  0  0  0  0  0  0  0  0  0  0
   14.2750    5.9900   25.0800 C   0  0  0  0  0  0  0  0  0  0  0  0
   15.2970    0.2110   22.6200 C   0  0  0  0  0  0  0  0  0  0  0  0
    6.2960    1.2290   18.7720 C   0  0  0  0  0  0  0  0  0  0  0  0
    8.3200    0.3390   19.6450 C   0  0  0  0  0  0  0  0  0  0  0  0
   15.1770    4.7680   23.2160 C   0  0  0  0  0  0  0  0  0  0  0  0
    6.5860    0.9890   21.2030 C   0  0  0  0  0  0  0  0  0  0  0  0
   12.5360    0.3020   22.9540 C   0  0  0  0  0  0  0  0  0  0  0  0
   14.0350    5.1250   24.0330 C   0  0  0  0  0  0  0  0  0  0  0  0
    7.8740    0.5330   20.9820 C   0  0  0  0  0  0  0  0  0  0  0  0
   14.6920    1.4160   22.5500 C   0  0  0  0  0  0  0  0  0  0  0  0
   15.4890    6.6050   25.3810 C   0  0  0  0  0  0  0  0  0  0  0  0
   14.5670   -0.9840   22.8260 C   0  0  0  0  0  0  0  0  0  0  0  0
   10.1200    0.3320   22.0240 C   0  0  0  0  0  0  0  0  0  0  0  0
   11.6210    4.5350   24.4040 C   0  0  0  0  0  0  0  0  0  0  0  0
    5.9470    1.1180   22.5890 C   0  0  0  0  0  0  0  0  0  0  0  0
    8.7960    2.9080   24.9390 C   0  0  0  0  0  0  0  0  0  0  0  0
    8.8020    5.4980   24.6200 C   0  0  0  0  0  0  0  0  0  0  0  0
    8.4360    4.0290   22.8160 C   0  0  0  0  0  0  0  0  0  0  0  0
   11.0770    0.5050   23.2670 C   0  0  0  0  0  0  0  0  0  0  0  0
   15.1190    3.8120   22.1350 C   0  0  0  0  0  0  0  0  0  0  0  0
    9.1540    4.1480   24.0730 C   0  0  0  0  0  0  0  0  0  0  0  0
    7.5450    0.7360   18.6110 N   0  0  0  0  0  0  0  0  0  0  0  0
    8.7290    0.3480   22.1110 N   0  0  0  0  0  0  0  0  0  0  0  0
   12.7540    4.6390   23.6430 N   0  0  0  0  0  0  0  0  0  0  0  0
   10.6470    0.2450   20.9450 O   0  0  0  0  0  0  0  0  0  0  0  0
   11.6560    4.7780   25.6210 O   0  0  0  0  0  0  0  0  0  0  0  0
   15.5680    2.5110   22.4790 O   0  0  0  0  0  0  0  0  0  0  0  0
   10.5640    4.0820   23.7060 O   0  0  0  0  0  0  0  0  0  0  0  0
   15.5620    7.8230   26.6170 Cl  0  0  0  0  0  0  0  0  0  0  0  0
   15.4130   -2.4770   23.1880 Cl  0  0  0  0  0  0  0  0  0  0  0  0
   17.2260    5.1400   22.8530 H   0  0  0  0  0  0  0  0  0  0  0  0
   17.5290    6.7280   24.7440 H   0  0  0  0  0  0  0  0  0  0  0  0
    4.8410    1.8240   20.2420 H   0  0  0  0  0  0  0  0  0  0  0  0
   12.7400    2.3900   22.5060 H   0  0  0  0  0  0  0  0  0  0  0  0
   12.6530   -1.7870   23.3410 H   0  0  0  0  0  0  0  0  0  0  0  0
   13.4900    6.3760   25.7260 H   0  0  0  0  0  0  0  0  0  0  0  0
   16.3630    0.1900   22.4510 H   0  0  0  0  0  0  0  0  0  0  0  0
    5.6900    1.5800   17.9410 H   0  0  0  0  0  0  0  0  0  0  0  0
    9.2140   -0.1680   19.2960 H   0  0  0  0  0  0  0  0  0  0  0  0
    4.8530    1.2060   22.5640 H   0  0  0  0  0  0  0  0  0  0  0  0
    6.2450    0.3280   23.2910 H   0  0  0  0  0  0  0  0  0  0  0  0
    6.3710    2.0670   22.9360 H   0  0  0  0  0  0  0  0  0  0  0  0
    9.4890    2.8940   25.7820 H   0  0  0  0  0  0  0  0  0  0  0  0
    7.8280    3.2090   25.3500 H   0  0  0  0  0  0  0  0  0  0  0  0
    8.7720    2.0080   24.3240 H   0  0  0  0  0  0  0  0  0  0  0  0
    8.8440    5.5360   25.7080 H   0  0  0  0  0  0  0  0  0  0  0  0
    7.7700    5.7840   24.3970 H   0  0  0  0  0  0  0  0  0  0  0  0
    9.5120    6.2250   24.2070 H   0  0  0  0  0  0  0  0  0  0  0  0
    8.6980    3.1510   22.2120 H   0  0  0  0  0  0  0  0  0  0  0  0
    7.3590    3.9520   22.9910 H   0  0  0  0  0  0  0  0  0  0  0  0
    8.6190    4.8810   22.1520 H   0  0  0  0  0  0  0  0  0  0  0  0
   10.8040   -0.2520   24.0080 H   0  0  0  0  0  0  0  0  0  0  0  0
   10.8690    1.5110   23.6400 H   0  0  0  0  0  0  0  0  0  0  0  0
   14.1830    3.7870   21.5490 H   0  0  0  0  0  0  0  0  0  0  0  0
   15.8960    4.0580   21.4100 H   0  0  0  0  0  0  0  0  0  0  0  0
    8.4290    0.3280   23.0850 H   0  0  0  0  0  0  0  0  0  0  0  0
   12.5570    4.2960   22.7070 H   0  0  0  0  0  0  0  0  0  0  0  0
  8 43  1  0  0  0  0
  8 27  2  0  0  0  0
  9 27  1  0  0  0  0
  3  8  1  0  0  0  0
  9 44  1  0  0  0  0
  9 14  2  0  0  0  0
  3 38  1  0  0  0  0
  3 11  2  0  0  0  0
 18 30  2  0  0  0  0
 11 14  1  0  0  0  0
 14 28  1  0  0  0  0
 11 20  1  0  0  0  0
 25 60  1  0  0  0  0
 25 59  1  0  0  0  0
 18 28  1  0  0  0  0
 18 24  1  0  0  0  0
 28 61  1  0  0  0  0
 25 32  1  0  0  0  0
 10 25  1  0  0  0  0
 23 56  1  0  0  0  0
 23 54  1  0  0  0  0
  7 42  1  0  0  0  0
 15 32  1  0  0  0  0
  4 39  1  0  0  0  0
  4 15  2  0  0  0  0
  7 15  1  0  0  0  0
 20 45  1  0  0  0  0
 20 47  1  0  0  0  0
 20 46  1  0  0  0  0
  4 12  1  0  0  0  0
  7 17  2  0  0  0  0
 29 62  1  0  0  0  0
 23 55  1  0  0  0  0
 23 26  1  0  0  0  0
  5 17  1  0  0  0  0
 17 35  1  0  0  0  0
  1 36  1  0  0  0  0
  5 12  2  0  0  0  0
 12 24  1  0  0  0  0
  5 40  1  0  0  0  0
  1 10  2  0  0  0  0
 10 13  1  0  0  0  0
 24 58  1  0  0  0  0
 24 57  1  0  0  0  0
  1  2  1  0  0  0  0
 13 29  1  0  0  0  0
 19 29  1  0  0  0  0
 26 33  1  0  0  0  0
 19 33  1  0  0  0  0
  6 13  2  0  0  0  0
 22 26  1  0  0  0  0
 21 26  1  0  0  0  0
 22 53  1  0  0  0  0
 21 50  1  0  0  0  0
 22 52  1  0  0  0  0
 19 31  2  0  0  0  0
 22 51  1  0  0  0  0
  2 37  1  0  0  0  0
  2 16  2  0  0  0  0
 21 49  1  0  0  0  0
 21 48  1  0  0  0  0
  6 16  1  0  0  0  0
  6 41  1  0  0  0  0
 16 34  1  0  0  0  0
M  END
> <CID>
EN300-1889287

> <SMILES>
Cc1ccncc1NC(=O)Cc2cc(cc(c2)Cl)OCc3ccc(cc3NC(=O)OC(C)(C)C)Cl

> <RUN>
RUN2123

> <DDG (kcal/mol)>
-0.15

> <dDDG (kcal/mol)>
0.18

$$$$
EN300-764382
  -OEChem-08252008263D

 60 64  0     1  0  0  0  0  0999 V2000
   15.6700    7.4750   28.7440 C   0  0  0  0  0  0  0  0  0  0  0  0
   15.2830    6.8570   29.9480 C   0  0  0  0  0  0  0  0  0  0  0  0
   14.9700    7.2370   27.5930 C   0  0  0  0  0  0  0  0  0  0  0  0
   14.1410    6.0550   29.9370 C   0  0  0  0  0  0  0  0  0  0  0  0
    6.0450    2.5430   19.4050 C   0  0  0  0  0  0  0  0  0  0  0  0
   10.9720   -0.0150   22.7470 C   0  0  0  0  0  0  0  0  0  0  0  0
   11.6330   -2.0680   21.7300 C   0  0  0  0  0  0  0  0  0  0  0  0
   13.2320   -0.3590   22.1550 C   0  0  0  0  0  0  0  0  0  0  0  0
    6.2240    2.1510   18.0990 C   0  0  0  0  0  0  0  0  0  0  0  0
    7.7010    0.5690   18.7550 C   0  0  0  0  0  0  0  0  0  0  0  0
   13.0260    4.1590   24.7410 C   0  0  0  0  0  0  0  0  0  0  0  0
   13.8280    6.4420   27.5060 C   0  0  0  0  0  0  0  0  0  0  0  0
    6.7390    1.9400   20.4050 C   0  0  0  0  0  0  0  0  0  0  0  0
   10.6040   -1.2250   22.1940 C   0  0  0  0  0  0  0  0  0  0  0  0
   13.3620    5.8960   28.7350 C   0  0  0  0  0  0  0  0  0  0  0  0
    7.6040    0.9230   20.0830 C   0  0  0  0  0  0  0  0  0  0  0  0
   12.3140    0.4070   22.7730 C   0  0  0  0  0  0  0  0  0  0  0  0
   12.9700   -1.6110   21.6230 C   0  0  0  0  0  0  0  0  0  0  0  0
   13.9070    3.6410   23.8510 C   0  0  0  0  0  0  0  0  0  0  0  0
    8.3680   -1.1140   21.1270 C   0  0  0  0  0  0  0  0  0  0  0  0
   11.5740    5.9480   26.5240 C   0  0  0  0  0  0  0  0  0  0  0  0
   11.4060    4.7590   27.5140 C   0  0  0  0  0  0  0  0  0  0  0  0
   13.0860    6.2160   26.1950 C   0  0  2  0  0  0  0  0  0  0  0  0
    6.6290    2.4580   21.7740 C   0  0  0  0  0  0  0  0  0  0  0  0
    9.2050   -1.6810   22.2610 C   0  0  0  0  0  0  0  0  0  0  0  0
   13.7510    2.3470   23.1000 C   0  0  0  0  0  0  0  0  0  0  0  0
    7.0020    1.1690   17.7190 N   0  0  0  0  0  0  0  0  0  0  0  0
   14.9450    4.5650   23.7590 N   0  0  0  0  0  0  0  0  0  0  0  0
   14.7900    5.5040   24.5940 N   0  0  0  0  0  0  0  0  0  0  0  0
   13.6260    5.3270   25.2200 N   0  0  0  0  0  0  0  0  0  0  0  0
   12.2440    5.0590   28.7210 N   0  0  0  0  0  0  0  0  0  0  0  0
    8.3610    0.2830   21.0210 N   0  0  0  0  0  0  0  0  0  0  0  0
    7.4680   -1.7950   20.6530 O   0  0  0  0  0  0  0  0  0  0  0  0
   12.5590    1.6190   23.4360 O   0  0  0  0  0  0  0  0  0  0  0  0
   14.2670   -2.4680   20.7510 Cl  0  0  0  0  0  0  0  0  0  0  0  0
   16.4630    8.2110   28.7790 H   0  0  0  0  0  0  0  0  0  0  0  0
   15.9670    6.9620   30.7830 H   0  0  0  0  0  0  0  0  0  0  0  0
   15.3220    7.7020   26.6800 H   0  0  0  0  0  0  0  0  0  0  0  0
   13.8140    5.6400   30.8880 H   0  0  0  0  0  0  0  0  0  0  0  0
    5.4210    3.4150   19.6030 H   0  0  0  0  0  0  0  0  0  0  0  0
   10.2760    0.6810   23.1850 H   0  0  0  0  0  0  0  0  0  0  0  0
   11.4320   -3.0200   21.2400 H   0  0  0  0  0  0  0  0  0  0  0  0
   14.3090   -0.1820   22.0950 H   0  0  0  0  0  0  0  0  0  0  0  0
    5.6850    2.7680   17.3910 H   0  0  0  0  0  0  0  0  0  0  0  0
    8.3560   -0.2190   18.3900 H   0  0  0  0  0  0  0  0  0  0  0  0
   12.1060    3.6280   24.9850 H   0  0  0  0  0  0  0  0  0  0  0  0
   10.9400    5.7930   25.6410 H   0  0  0  0  0  0  0  0  0  0  0  0
   11.1550    6.8390   27.0030 H   0  0  0  0  0  0  0  0  0  0  0  0
   10.3520    4.6070   27.7740 H   0  0  0  0  0  0  0  0  0  0  0  0
   11.6700    3.8620   26.9530 H   0  0  0  0  0  0  0  0  0  0  0  0
   13.0890    7.2050   25.7280 H   0  0  0  0  0  0  0  0  0  0  0  0
    5.7080    3.0420   21.8150 H   0  0  0  0  0  0  0  0  0  0  0  0
    6.6890    1.6220   22.4690 H   0  0  0  0  0  0  0  0  0  0  0  0
    7.4350    3.1740   21.9890 H   0  0  0  0  0  0  0  0  0  0  0  0
    9.1800   -2.7800   22.2680 H   0  0  0  0  0  0  0  0  0  0  0  0
    8.8080   -1.3650   23.2300 H   0  0  0  0  0  0  0  0  0  0  0  0
   13.4970    2.5510   22.0560 H   0  0  0  0  0  0  0  0  0  0  0  0
   14.6820    1.7700   23.1530 H   0  0  0  0  0  0  0  0  0  0  0  0
   12.0210    4.5550   29.5800 H   0  0  0  0  0  0  0  0  0  0  0  0
    8.8610    0.8910   21.6830 H   0  0  0  0  0  0  0  0  0  0  0  0
  9 44  1  0  0  0  0
  9 27  2  0  0  0  0
 10 27  1  0  0  0  0
  5  9  1  0  0  0  0
 10 45  1  0  0  0  0
 10 16  2  0  0  0  0
  5 40  1  0  0  0  0
  5 13  2  0  0  0  0
 13 16  1  0  0  0  0
 16 32  1  0  0  0  0
 13 24  1  0  0  0  0
 20 33  2  0  0  0  0
 18 35  1  0  0  0  0
 20 32  1  0  0  0  0
 32 60  1  0  0  0  0
 20 25  1  0  0  0  0
  7 42  1  0  0  0  0
  7 18  2  0  0  0  0
  8 18  1  0  0  0  0
  7 14  1  0  0  0  0
 24 52  1  0  0  0  0
 24 54  1  0  0  0  0
 24 53  1  0  0  0  0
 26 57  1  0  0  0  0
  8 43  1  0  0  0  0
  8 17  2  0  0  0  0
 14 25  1  0  0  0  0
  6 14  2  0  0  0  0
 25 55  1  0  0  0  0
 25 56  1  0  0  0  0
  6 17  1  0  0  0  0
  6 41  1  0  0  0  0
 17 34  1  0  0  0  0
 26 58  1  0  0  0  0
 26 34  1  0  0  0  0
 19 26  1  0  0  0  0
 19 28  1  0  0  0  0
 28 29  2  0  0  0  0
 11 19  2  0  0  0  0
 29 30  1  0  0  0  0
 11 46  1  0  0  0  0
 11 30  1  0  0  0  0
 23 30  1  0  0  0  0
 21 47  1  0  0  0  0
 23 51  1  0  0  0  0
 21 23  1  0  0  0  0
 12 23  1  0  0  0  0
 21 48  1  0  0  0  0
 21 22  1  0  0  0  0
  3 38  1  0  0  0  0
 22 50  1  0  0  0  0
  3 12  2  0  0  0  0
 12 15  1  0  0  0  0
 22 49  1  0  0  0  0
 22 31  1  0  0  0  0
  1  3  1  0  0  0  0
 15 31  1  0  0  0  0
 31 59  1  0  0  0  0
  4 15  2  0  0  0  0
  1 36  1  0  0  0  0
  1  2  2  0  0  0  0
  2  4  1  0  0  0  0
  4 39  1  0  0  0  0
  2 37  1  0  0  0  0
M  END
> <CID>
EN300-764382

> <SMILES>
Cc1ccncc1NC(=O)Cc2cc(cc(c2)Cl)OCc3cn(nn3)[C@H]4CCNc5c4cccc5

> <RUN>
RUN1176

> <DDG (kcal/mol)>
-0.15

> <dDDG (kcal/mol)>
0.17

$$$$
EN300-1912469
  -OEChem-08252008263D

 52 55  0     0  0  0  0  0  0999 V2000
    7.9160    2.1250   28.6040 C   0  0  0  0  0  0  0  0  0  0  0  0
    8.0140    1.1130   29.5360 C   0  0  0  0  0  0  0  0  0  0  0  0
    8.8870    2.2680   27.6670 C   0  0  0  0  0  0  0  0  0  0  0  0
    9.0940    0.2280   29.5000 C   0  0  0  0  0  0  0  0  0  0  0  0
    4.9890    1.4590   19.5510 C   0  0  0  0  0  0  0  0  0  0  0  0
   10.6280   -0.0770   23.6990 C   0  0  0  0  0  0  0  0  0  0  0  0
   11.3090   -1.7060   22.1200 C   0  0  0  0  0  0  0  0  0  0  0  0
   12.9890   -0.1040   22.9520 C   0  0  0  0  0  0  0  0  0  0  0  0
    4.9200    0.6950   18.3370 C   0  0  0  0  0  0  0  0  0  0  0  0
    6.8140   -0.4570   18.8940 C   0  0  0  0  0  0  0  0  0  0  0  0
   11.7330    0.2090   27.0300 C   0  0  0  0  0  0  0  0  0  0  0  0
    9.9290    1.3870   27.6280 C   0  0  0  0  0  0  0  0  0  0  0  0
    6.0420    1.2500   20.4290 C   0  0  0  0  0  0  0  0  0  0  0  0
   10.2970   -1.1720   22.8820 C   0  0  0  0  0  0  0  0  0  0  0  0
   11.0680    1.2780   26.6810 C   0  0  0  0  0  0  0  0  0  0  0  0
   10.0350    0.3880   28.4780 C   0  0  0  0  0  0  0  0  0  0  0  0
    6.9960    0.2510   20.1090 C   0  0  0  0  0  0  0  0  0  0  0  0
   11.9490    0.4960   23.7580 C   0  0  0  0  0  0  0  0  0  0  0  0
   12.6880   -1.2070   22.1340 C   0  0  0  0  0  0  0  0  0  0  0  0
    8.1510   -1.4020   21.4160 C   0  0  0  0  0  0  0  0  0  0  0  0
    6.0340    2.1000   21.7150 C   0  0  0  0  0  0  0  0  0  0  0  0
   11.5480   -1.5450   28.9010 C   0  0  0  0  0  0  0  0  0  0  0  0
    8.9240   -1.7380   22.7720 C   0  0  0  0  0  0  0  0  0  0  0  0
   11.3790    2.1510   25.5140 C   0  0  0  0  0  0  0  0  0  0  0  0
    5.7960   -0.2740   18.0460 N   0  0  0  0  0  0  0  0  0  0  0  0
   11.0900   -0.4500   28.1050 N   0  0  0  0  0  0  0  0  0  0  0  0
    7.9940   -0.1290   21.0030 N   0  0  0  0  0  0  0  0  0  0  0  0
    7.6640   -2.3360   20.7610 O   0  0  0  0  0  0  0  0  0  0  0  0
   12.3360    1.5420   24.6100 O   0  0  0  0  0  0  0  0  0  0  0  0
   13.8850   -1.8240   21.0610 Cl  0  0  0  0  0  0  0  0  0  0  0  0
    7.1140    2.8560   28.6020 H   0  0  0  0  0  0  0  0  0  0  0  0
    7.2120    1.0700   30.2630 H   0  0  0  0  0  0  0  0  0  0  0  0
    8.8950    3.1150   26.9970 H   0  0  0  0  0  0  0  0  0  0  0  0
    9.1890   -0.5900   30.2030 H   0  0  0  0  0  0  0  0  0  0  0  0
    4.1720    2.1620   19.6360 H   0  0  0  0  0  0  0  0  0  0  0  0
    9.8370    0.2080   24.3860 H   0  0  0  0  0  0  0  0  0  0  0  0
   11.0460   -2.4760   21.4050 H   0  0  0  0  0  0  0  0  0  0  0  0
   13.9920    0.3220   22.9400 H   0  0  0  0  0  0  0  0  0  0  0  0
    4.1630    0.9190   17.5860 H   0  0  0  0  0  0  0  0  0  0  0  0
    7.6340   -1.1080   18.5910 H   0  0  0  0  0  0  0  0  0  0  0  0
   12.6460   -0.1230   26.5440 H   0  0  0  0  0  0  0  0  0  0  0  0
    5.5620    1.4510   22.4670 H   0  0  0  0  0  0  0  0  0  0  0  0
    7.0500    2.3940   22.0010 H   0  0  0  0  0  0  0  0  0  0  0  0
    5.5720    3.0600   21.4910 H   0  0  0  0  0  0  0  0  0  0  0  0
   11.1620   -2.4580   28.4510 H   0  0  0  0  0  0  0  0  0  0  0  0
   12.6430   -1.6320   28.8290 H   0  0  0  0  0  0  0  0  0  0  0  0
   11.2600   -1.4940   29.9590 H   0  0  0  0  0  0  0  0  0  0  0  0
    9.0470   -2.8100   22.9350 H   0  0  0  0  0  0  0  0  0  0  0  0
    8.3330   -1.3840   23.6340 H   0  0  0  0  0  0  0  0  0  0  0  0
   10.4860    2.2440   24.8840 H   0  0  0  0  0  0  0  0  0  0  0  0
   11.7070    3.0920   25.9790 H   0  0  0  0  0  0  0  0  0  0  0  0
    8.3990    0.6390   21.5450 H   0  0  0  0  0  0  0  0  0  0  0  0
  9 39  1  0  0  0  0
  9 25  2  0  0  0  0
 10 25  1  0  0  0  0
  5  9  1  0  0  0  0
 10 40  1  0  0  0  0
 10 17  2  0  0  0  0
  5 35  1  0  0  0  0
  5 13  2  0  0  0  0
 13 17  1  0  0  0  0
 17 27  1  0  0  0  0
 13 21  1  0  0  0  0
 20 28  2  0  0  0  0
 20 27  1  0  0  0  0
 27 52  1  0  0  0  0
 19 30  1  0  0  0  0
  7 37  1  0  0  0  0
 20 23  1  0  0  0  0
 21 44  1  0  0  0  0
 21 43  1  0  0  0  0
 21 42  1  0  0  0  0
  7 19  2  0  0  0  0
  7 14  1  0  0  0  0
  8 19  1  0  0  0  0
 14 23  1  0  0  0  0
 23 48  1  0  0  0  0
 23 49  1  0  0  0  0
  6 14  2  0  0  0  0
  8 38  1  0  0  0  0
  8 18  2  0  0  0  0
  6 18  1  0  0  0  0
  6 36  1  0  0  0  0
 18 29  1  0  0  0  0
 24 29  1  0  0  0  0
 24 50  1  0  0  0  0
 24 51  1  0  0  0  0
 15 24  1  0  0  0  0
 11 41  1  0  0  0  0
 11 15  2  0  0  0  0
 12 15  1  0  0  0  0
  3 33  1  0  0  0  0
 11 26  1  0  0  0  0
  3 12  2  0  0  0  0
 12 16  1  0  0  0  0
  1  3  1  0  0  0  0
 16 26  1  0  0  0  0
 22 26  1  0  0  0  0
 22 45  1  0  0  0  0
  4 16  2  0  0  0  0
  1 31  1  0  0  0  0
  1  2  2  0  0  0  0
 22 46  1  0  0  0  0
 22 47  1  0  0  0  0
  2  4  1  0  0  0  0
  4 34  1  0  0  0  0
  2 32  1  0  0  0  0
M  END
> <CID>
EN300-1912469

> <SMILES>
Cc1ccncc1NC(=O)Cc2cc(cc(c2)Cl)OCc3cn(c4c3cccc4)C

> <RUN>
RUN435

> <DDG (kcal/mol)>
-0.15

> <dDDG (kcal/mol)>
0.10

$$$$
EN300-1921861
  -OEChem-08252008263D

 48 50  0     0  0  0  0  0  0999 V2000
    4.4640    1.0120   19.0110 C   0  0  0  0  0  0  0  0  0  0  0  0
   10.1790   -0.7840   24.2060 C   0  0  0  0  0  0  0  0  0  0  0  0
   11.3230   -1.7830   22.2960 C   0  0  0  0  0  0  0  0  0  0  0  0
   12.5480   -0.8060   24.1170 C   0  0  0  0  0  0  0  0  0  0  0  0
   10.3500   -1.1970   27.4950 C   0  0  0  0  0  0  0  0  0  0  0  0
    5.0610    0.8380   17.8180 C   0  0  0  0  0  0  0  0  0  0  0  0
    6.8920   -0.1260   18.7050 C   0  0  0  0  0  0  0  0  0  0  0  0
    5.1530    0.7260   20.1500 C   0  0  0  0  0  0  0  0  0  0  0  0
   10.1480   -1.3690   22.9430 C   0  0  0  0  0  0  0  0  0  0  0  0
    6.4080    0.0980   20.0540 C   0  0  0  0  0  0  0  0  0  0  0  0
   11.4320   -0.3430   24.7360 C   0  0  0  0  0  0  0  0  0  0  0  0
   12.5570   -1.5160   22.8850 C   0  0  0  0  0  0  0  0  0  0  0  0
    9.7550   -0.8410   28.6650 C   0  0  0  0  0  0  0  0  0  0  0  0
   10.7920    0.0580   26.9500 C   0  0  0  0  0  0  0  0  0  0  0  0
    8.3380   -0.9170   21.2490 C   0  0  0  0  0  0  0  0  0  0  0  0
    4.5750    1.1690   21.5380 C   0  0  0  0  0  0  0  0  0  0  0  0
    9.4510    1.2620   30.0220 C   0  0  0  0  0  0  0  0  0  0  0  0
    8.8150   -1.7630   22.3500 C   0  0  0  0  0  0  0  0  0  0  0  0
    9.0910   -1.7820   29.6770 C   0  0  0  0  0  0  0  0  0  0  0  0
    7.5490   -1.6350   29.6210 C   0  0  0  0  0  0  0  0  0  0  0  0
    6.2150    0.1830   17.6040 N   0  0  0  0  0  0  0  0  0  0  0  0
   10.4330    1.0740   27.7200 N   0  0  0  0  0  0  0  0  0  0  0  0
    9.7450    0.5750   28.7550 N   0  0  0  0  0  0  0  0  0  0  0  0
    7.0240   -0.4320   21.2270 N   0  0  0  0  0  0  0  0  0  0  0  0
    9.1100   -0.5760   20.3370 O   0  0  0  0  0  0  0  0  0  0  0  0
   11.6040    0.3140   25.9200 O   0  0  0  0  0  0  0  0  0  0  0  0
   13.9840   -2.1950   22.2080 Cl  0  0  0  0  0  0  0  0  0  0  0  0
    6.7190   -2.1150   27.8990 Br  0  0  0  0  0  0  0  0  0  0  0  0
    3.5270    1.5560   19.0050 H   0  0  0  0  0  0  0  0  0  0  0  0
    9.2470   -0.5780   24.7140 H   0  0  0  0  0  0  0  0  0  0  0  0
   11.3960   -2.1970   21.3000 H   0  0  0  0  0  0  0  0  0  0  0  0
   13.5140   -0.5820   24.5530 H   0  0  0  0  0  0  0  0  0  0  0  0
   10.5120   -2.2280   27.2050 H   0  0  0  0  0  0  0  0  0  0  0  0
    4.4380    1.2500   17.0250 H   0  0  0  0  0  0  0  0  0  0  0  0
    7.6870   -0.8550   18.5690 H   0  0  0  0  0  0  0  0  0  0  0  0
    3.6470    1.7440   21.5260 H   0  0  0  0  0  0  0  0  0  0  0  0
    4.5000    0.2840   22.1640 H   0  0  0  0  0  0  0  0  0  0  0  0
    5.2980    1.8610   21.9850 H   0  0  0  0  0  0  0  0  0  0  0  0
   10.1850    1.1710   30.8220 H   0  0  0  0  0  0  0  0  0  0  0  0
    9.1840    2.3230   29.9460 H   0  0  0  0  0  0  0  0  0  0  0  0
    8.4980    0.9080   30.4280 H   0  0  0  0  0  0  0  0  0  0  0  0
    8.7790   -2.8340   22.1070 H   0  0  0  0  0  0  0  0  0  0  0  0
    8.0670   -1.8080   23.1460 H   0  0  0  0  0  0  0  0  0  0  0  0
    9.5190   -1.6140   30.6690 H   0  0  0  0  0  0  0  0  0  0  0  0
    9.3710   -2.7650   29.2970 H   0  0  0  0  0  0  0  0  0  0  0  0
    7.0230   -2.1930   30.3940 H   0  0  0  0  0  0  0  0  0  0  0  0
    7.2590   -0.5850   29.7620 H   0  0  0  0  0  0  0  0  0  0  0  0
    6.4810   -0.7490   22.0280 H   0  0  0  0  0  0  0  0  0  0  0  0
  6 34  1  0  0  0  0
  6 21  2  0  0  0  0
  7 21  1  0  0  0  0
  1  6  1  0  0  0  0
  7 35  1  0  0  0  0
  7 10  2  0  0  0  0
  1 29  1  0  0  0  0
  1  8  2  0  0  0  0
  8 10  1  0  0  0  0
 10 24  1  0  0  0  0
  8 16  1  0  0  0  0
 15 25  2  0  0  0  0
 15 24  1  0  0  0  0
 24 48  1  0  0  0  0
 15 18  1  0  0  0  0
  3 31  1  0  0  0  0
 16 36  1  0  0  0  0
 16 38  1  0  0  0  0
 16 37  1  0  0  0  0
 18 42  1  0  0  0  0
 12 27  1  0  0  0  0
  3 12  2  0  0  0  0
  3  9  1  0  0  0  0
  9 18  1  0  0  0  0
 18 43  1  0  0  0  0
  4 12  1  0  0  0  0
  2  9  2  0  0  0  0
  4 32  1  0  0  0  0
  4 11  2  0  0  0  0
  2 30  1  0  0  0  0
  2 11  1  0  0  0  0
 11 26  1  0  0  0  0
 14 26  1  0  0  0  0
  5 14  1  0  0  0  0
 14 22  2  0  0  0  0
  5 33  1  0  0  0  0
  5 13  2  0  0  0  0
 22 23  1  0  0  0  0
 20 28  1  0  0  0  0
 13 23  1  0  0  0  0
 13 19  1  0  0  0  0
 17 23  1  0  0  0  0
 19 45  1  0  0  0  0
 19 20  1  0  0  0  0
 20 47  1  0  0  0  0
 20 46  1  0  0  0  0
 19 44  1  0  0  0  0
 17 40  1  0  0  0  0
 17 41  1  0  0  0  0
 17 39  1  0  0  0  0
M  END
> <CID>
EN300-1921861

> <SMILES>
Cc1ccncc1NC(=O)Cc2cc(cc(c2)Cl)Oc3cc(n(n3)C)CCBr

> <RUN>
RUN226

> <DDG (kcal/mol)>
-0.14

> <dDDG (kcal/mol)>
0.12

$$$$
EN300-364189
  -OEChem-08252008263D

 59 61  0     0  0  0  0  0  0999 V2000
    4.8970    0.3180   19.8420 C   0  0  0  0  0  0  0  0  0  0  0  0
   11.1880   -0.2860   23.8690 C   0  0  0  0  0  0  0  0  0  0  0  0
   12.2810   -2.3620   23.4620 C   0  0  0  0  0  0  0  0  0  0  0  0
   12.2170    5.3420   27.1740 C   0  0  0  0  0  0  0  0  0  0  0  0
   13.3710   -0.5630   24.6340 C   0  0  0  0  0  0  0  0  0  0  0  0
    5.4620    0.3750   18.5880 C   0  0  0  0  0  0  0  0  0  0  0  0
    7.4830   -0.4410   19.2750 C   0  0  0  0  0  0  0  0  0  0  0  0
    5.6630   -0.2050   20.9030 C   0  0  0  0  0  0  0  0  0  0  0  0
   11.1580   -1.5190   23.2460 C   0  0  0  0  0  0  0  0  0  0  0  0
   11.5050    4.4120   26.3900 C   0  0  0  0  0  0  0  0  0  0  0  0
   12.2460    3.8970   25.3180 C   0  0  0  0  0  0  0  0  0  0  0  0
    6.9910   -0.6330   20.5980 C   0  0  0  0  0  0  0  0  0  0  0  0
   12.3110    0.3160   24.5040 C   0  0  0  0  0  0  0  0  0  0  0  0
   13.3950   -1.8960   24.1200 C   0  0  0  0  0  0  0  0  0  0  0  0
   13.5520    5.6440   27.0490 C   0  0  0  0  0  0  0  0  0  0  0  0
   13.5950    4.2110   25.2100 C   0  0  0  0  0  0  0  0  0  0  0  0
    9.0950   -1.0890   21.7070 C   0  0  0  0  0  0  0  0  0  0  0  0
    5.0920   -0.1220   22.3190 C   0  0  0  0  0  0  0  0  0  0  0  0
   14.4690    3.5070   24.1030 C   0  0  0  0  0  0  0  0  0  0  0  0
    9.7640    3.0210   27.6430 C   0  0  0  0  0  0  0  0  0  0  0  0
   14.6980    6.0150   29.2030 C   0  0  0  0  0  0  0  0  0  0  0  0
    9.9310   -2.0890   22.6280 C   0  0  0  0  0  0  0  0  0  0  0  0
    9.9510    4.1500   26.5920 C   0  0  0  0  0  0  0  0  0  0  0  0
   11.7050    2.7050   24.4800 C   0  0  0  0  0  0  0  0  0  0  0  0
   14.2450    6.6660   27.9220 C   0  0  0  0  0  0  0  0  0  0  0  0
    6.6940    0.0020   18.2920 N   0  0  0  0  0  0  0  0  0  0  0  0
   14.2520    5.0490   26.0100 N   0  0  0  0  0  0  0  0  0  0  0  0
    7.7620   -1.1730   21.6160 N   0  0  0  0  0  0  0  0  0  0  0  0
    9.6430   -0.0700   21.2180 O   0  0  0  0  0  0  0  0  0  0  0  0
   12.4820    1.6230   24.9770 O   0  0  0  0  0  0  0  0  0  0  0  0
   14.7680   -2.8730   24.3820 Cl  0  0  0  0  0  0  0  0  0  0  0  0
    3.8340    0.4830   19.8900 H   0  0  0  0  0  0  0  0  0  0  0  0
   10.2780    0.3000   23.7690 H   0  0  0  0  0  0  0  0  0  0  0  0
   12.3510   -3.3830   23.1020 H   0  0  0  0  0  0  0  0  0  0  0  0
   11.6970    5.8410   27.9820 H   0  0  0  0  0  0  0  0  0  0  0  0
   14.2640   -0.1510   25.1070 H   0  0  0  0  0  0  0  0  0  0  0  0
    4.9020    0.9510   17.8640 H   0  0  0  0  0  0  0  0  0  0  0  0
    8.5330   -0.6180   19.0650 H   0  0  0  0  0  0  0  0  0  0  0  0
    4.6950   -1.0750   22.6590 H   0  0  0  0  0  0  0  0  0  0  0  0
    5.8970    0.1800   22.9950 H   0  0  0  0  0  0  0  0  0  0  0  0
    4.3420    0.6700   22.4250 H   0  0  0  0  0  0  0  0  0  0  0  0
   15.4320    4.0190   24.0210 H   0  0  0  0  0  0  0  0  0  0  0  0
   14.0420    3.3820   23.1060 H   0  0  0  0  0  0  0  0  0  0  0  0
   14.6760    2.4910   24.4640 H   0  0  0  0  0  0  0  0  0  0  0  0
   10.3420    2.1010   27.5040 H   0  0  0  0  0  0  0  0  0  0  0  0
    8.7080    2.7490   27.7050 H   0  0  0  0  0  0  0  0  0  0  0  0
   10.1810    3.4030   28.5820 H   0  0  0  0  0  0  0  0  0  0  0  0
   15.2350    6.6570   29.9030 H   0  0  0  0  0  0  0  0  0  0  0  0
   15.2350    5.1210   28.8770 H   0  0  0  0  0  0  0  0  0  0  0  0
   13.8980    5.5670   29.7900 H   0  0  0  0  0  0  0  0  0  0  0  0
   10.1590   -2.9860   22.0350 H   0  0  0  0  0  0  0  0  0  0  0  0
    9.2400   -2.4100   23.4180 H   0  0  0  0  0  0  0  0  0  0  0  0
    9.5250    5.0930   26.9130 H   0  0  0  0  0  0  0  0  0  0  0  0
    9.4630    3.9190   25.6390 H   0  0  0  0  0  0  0  0  0  0  0  0
   10.6370    2.4770   24.6270 H   0  0  0  0  0  0  0  0  0  0  0  0
   11.8210    2.9590   23.4220 H   0  0  0  0  0  0  0  0  0  0  0  0
   15.0840    7.1360   27.4020 H   0  0  0  0  0  0  0  0  0  0  0  0
   13.5390    7.4780   28.1480 H   0  0  0  0  0  0  0  0  0  0  0  0
    7.3940   -1.9150   22.2090 H   0  0  0  0  0  0  0  0  0  0  0  0
  6 37  1  0  0  0  0
  6 26  2  0  0  0  0
  7 26  1  0  0  0  0
  1  6  1  0  0  0  0
  7 38  1  0  0  0  0
  7 12  2  0  0  0  0
  1 32  1  0  0  0  0
  1  8  2  0  0  0  0
  8 12  1  0  0  0  0
 12 28  1  0  0  0  0
  8 18  1  0  0  0  0
 17 29  2  0  0  0  0
 17 28  1  0  0  0  0
 28 59  1  0  0  0  0
 17 22  1  0  0  0  0
 22 51  1  0  0  0  0
 18 41  1  0  0  0  0
 18 39  1  0  0  0  0
 18 40  1  0  0  0  0
  9 22  1  0  0  0  0
 22 52  1  0  0  0  0
  3 34  1  0  0  0  0
 19 43  1  0  0  0  0
  3  9  2  0  0  0  0
  2  9  1  0  0  0  0
 24 56  1  0  0  0  0
  3 14  1  0  0  0  0
  2 33  1  0  0  0  0
  2 13  2  0  0  0  0
 19 42  1  0  0  0  0
 19 44  1  0  0  0  0
 16 19  1  0  0  0  0
 14 31  1  0  0  0  0
  5 14  2  0  0  0  0
 24 55  1  0  0  0  0
 24 30  1  0  0  0  0
 11 24  1  0  0  0  0
  5 13  1  0  0  0  0
 13 30  1  0  0  0  0
  5 36  1  0  0  0  0
 11 16  2  0  0  0  0
 16 27  1  0  0  0  0
 10 11  1  0  0  0  0
 23 54  1  0  0  0  0
 15 27  2  0  0  0  0
 10 23  1  0  0  0  0
  4 10  2  0  0  0  0
 23 53  1  0  0  0  0
 20 23  1  0  0  0  0
  4 15  1  0  0  0  0
 15 25  1  0  0  0  0
  4 35  1  0  0  0  0
 25 57  1  0  0  0  0
 20 45  1  0  0  0  0
 20 46  1  0  0  0  0
 20 47  1  0  0  0  0
 25 58  1  0  0  0  0
 21 25  1  0  0  0  0
 21 49  1  0  0  0  0
 21 50  1  0  0  0  0
 21 48  1  0  0  0  0
M  END
> <CID>
EN300-364189

> <SMILES>
CCc1cc(nc(c1COc2cc(cc(c2)Cl)CC(=O)Nc3cnccc3C)C)CC

> <RUN>
RUN4567

> <DDG (kcal/mol)>
-0.14

> <dDDG (kcal/mol)>
0.29

$$$$
EN300-695729
  -OEChem-08252008263D

 57 60  0     1  0  0  0  0  0999 V2000
    5.5340    1.5070   18.7620 C   0  0  0  0  0  0  0  0  0  0  0  0
    9.2870   -1.5070   22.4390 C   0  0  0  0  0  0  0  0  0  0  0  0
   10.0760   -3.5180   21.3120 C   0  0  0  0  0  0  0  0  0  0  0  0
   11.6260   -1.7760   21.8990 C   0  0  0  0  0  0  0  0  0  0  0  0
    5.3310    1.0240   17.4360 C   0  0  0  0  0  0  0  0  0  0  0  0
    6.1470   -0.9860   18.1610 C   0  0  0  0  0  0  0  0  0  0  0  0
   10.9930    3.2270   23.0000 C   0  0  0  0  0  0  0  0  0  0  0  0
    6.0730    0.8230   19.7770 C   0  0  0  0  0  0  0  0  0  0  0  0
    8.9830   -2.7760   21.8550 C   0  0  0  0  0  0  0  0  0  0  0  0
    6.4310   -0.4850   19.4670 C   0  0  0  0  0  0  0  0  0  0  0  0
   10.6110   -1.0400   22.4760 C   0  0  0  0  0  0  0  0  0  0  0  0
   11.3650   -2.9970   21.3260 C   0  0  0  0  0  0  0  0  0  0  0  0
   11.9960    2.3950   23.2710 C   0  0  0  0  0  0  0  0  0  0  0  0
    6.9290   -2.6740   20.6050 C   0  0  0  0  0  0  0  0  0  0  0  0
    9.9230    5.8010   24.3040 C   0  0  0  0  0  0  0  0  0  0  0  0
   10.1850    7.1290   24.9760 C   0  0  0  0  0  0  0  0  0  0  0  0
   11.6060    6.9950   23.1370 C   0  0  0  0  0  0  0  0  0  0  0  0
   10.7660    5.7400   23.0890 C   0  0  1  0  0  0  0  0  0  0  0  0
   11.5380    7.6390   24.4710 C   0  0  2  0  0  0  0  0  0  0  0  0
    6.1660    1.3470   21.1930 C   0  0  0  0  0  0  0  0  0  0  0  0
    7.6520   -3.3710   21.7830 C   0  0  0  0  0  0  0  0  0  0  0  0
   12.0340    0.8620   23.1450 C   0  0  0  0  0  0  0  0  0  0  0  0
    5.6080   -0.2480   17.1590 N   0  0  0  0  0  0  0  0  0  0  0  0
   13.1270    3.1810   23.5510 N   0  0  0  0  0  0  0  0  0  0  0  0
   12.8150    4.3790   23.5050 N   0  0  0  0  0  0  0  0  0  0  0  0
   11.5130    4.4690   23.1630 N   0  0  0  0  0  0  0  0  0  0  0  0
    6.9900   -1.2990   20.4820 N   0  0  0  0  0  0  0  0  0  0  0  0
   12.5610    7.2090   25.4880 N   0  3  0  0  0  0  0  0  0  0  0  0
    6.2080   -3.3590   19.9170 O   0  0  0  0  0  0  0  0  0  0  0  0
   10.7360    0.2230   23.0330 O   0  0  0  0  0  0  0  0  0  0  0  0
   12.6970   -3.9040   20.7090 Cl  0  0  0  0  0  0  0  0  0  0  0  0
    5.1330    2.5080   18.9020 H   0  0  0  0  0  0  0  0  0  0  0  0
    8.5110   -0.9540   22.9570 H   0  0  0  0  0  0  0  0  0  0  0  0
    9.9490   -4.5360   20.9570 H   0  0  0  0  0  0  0  0  0  0  0  0
   12.7020   -1.6000   21.8330 H   0  0  0  0  0  0  0  0  0  0  0  0
    4.9780    1.7200   16.6840 H   0  0  0  0  0  0  0  0  0  0  0  0
    6.2450   -2.0330   17.8970 H   0  0  0  0  0  0  0  0  0  0  0  0
    9.9720    3.0600   22.6760 H   0  0  0  0  0  0  0  0  0  0  0  0
   10.1430    5.0380   25.0640 H   0  0  0  0  0  0  0  0  0  0  0  0
    8.8930    5.7110   23.9580 H   0  0  0  0  0  0  0  0  0  0  0  0
    9.4230    7.8860   24.8150 H   0  0  0  0  0  0  0  0  0  0  0  0
   10.2120    7.0150   26.0680 H   0  0  0  0  0  0  0  0  0  0  0  0
   12.6250    6.7560   22.8110 H   0  0  0  0  0  0  0  0  0  0  0  0
   11.2620    7.6650   22.3390 H   0  0  0  0  0  0  0  0  0  0  0  0
   10.2340    5.6900   22.1320 H   0  0  0  0  0  0  0  0  0  0  0  0
   11.4910    8.7230   24.3290 H   0  0  0  0  0  0  0  0  0  0  0  0
    5.9540    2.4140   21.0780 H   0  0  0  0  0  0  0  0  0  0  0  0
    5.5080    0.7620   21.8400 H   0  0  0  0  0  0  0  0  0  0  0  0
    7.1980    1.2580   21.5640 H   0  0  0  0  0  0  0  0  0  0  0  0
    7.7240   -4.4510   21.6020 H   0  0  0  0  0  0  0  0  0  0  0  0
    7.0800   -3.1920   22.6900 H   0  0  0  0  0  0  0  0  0  0  0  0
   12.6090    0.6710   22.2300 H   0  0  0  0  0  0  0  0  0  0  0  0
   12.5490    0.2920   23.9260 H   0  0  0  0  0  0  0  0  0  0  0  0
    7.4250   -0.8740   21.3020 H   0  0  0  0  0  0  0  0  0  0  0  0
   12.5530    6.2040   25.6510 H   0  0  0  0  0  0  0  0  0  0  0  0
   13.4600    7.4170   25.0420 H   0  0  0  0  0  0  0  0  0  0  0  0
   12.5120    7.6310   26.4150 H   0  0  0  0  0  0  0  0  0  0  0  0
  5 36  1  0  0  0  0
  5 23  2  0  0  0  0
  6 23  1  0  0  0  0
  1  5  1  0  0  0  0
  6 37  1  0  0  0  0
  6 10  2  0  0  0  0
  1 32  1  0  0  0  0
  1  8  2  0  0  0  0
  8 10  1  0  0  0  0
 10 27  1  0  0  0  0
  8 20  1  0  0  0  0
 14 29  2  0  0  0  0
 14 27  1  0  0  0  0
 27 54  1  0  0  0  0
 14 21  1  0  0  0  0
 12 31  1  0  0  0  0
  3 34  1  0  0  0  0
 20 47  1  0  0  0  0
 20 49  1  0  0  0  0
 20 48  1  0  0  0  0
  3 12  2  0  0  0  0
  3  9  1  0  0  0  0
  4 12  1  0  0  0  0
 21 50  1  0  0  0  0
  9 21  1  0  0  0  0
 21 51  1  0  0  0  0
  4 35  1  0  0  0  0
  2  9  2  0  0  0  0
  4 11  2  0  0  0  0
 18 45  1  0  0  0  0
 22 52  1  0  0  0  0
 17 44  1  0  0  0  0
  2 11  1  0  0  0  0
  2 33  1  0  0  0  0
 11 30  1  0  0  0  0
  7 38  1  0  0  0  0
 17 43  1  0  0  0  0
  7 26  1  0  0  0  0
  7 13  2  0  0  0  0
 22 30  1  0  0  0  0
 17 18  1  0  0  0  0
 18 26  1  0  0  0  0
 15 18  1  0  0  0  0
 17 19  1  0  0  0  0
 13 22  1  0  0  0  0
 22 53  1  0  0  0  0
 25 26  1  0  0  0  0
 13 24  1  0  0  0  0
 24 25  2  0  0  0  0
 15 40  1  0  0  0  0
 15 16  1  0  0  0  0
 15 39  1  0  0  0  0
 19 46  1  0  0  0  0
 16 19  1  0  0  0  0
 19 28  1  0  0  0  0
 16 41  1  0  0  0  0
 16 42  1  0  0  0  0
 28 56  1  0  0  0  0
 28 55  1  0  0  0  0
 28 57  1  0  0  0  0
M  CHG  1  28   1
M  END
> <CID>
EN300-695729

> <SMILES>
Cc1ccncc1NC(=O)Cc2cc(cc(c2)Cl)OCc3cn(nn3)[C@H]4CC[C@H](C4)[NH3+]

> <RUN>
RUN1073

> <DDG (kcal/mol)>
-0.14

> <dDDG (kcal/mol)>
0.16

$$$$
EN300-14150
  -OEChem-08252008263D

 53 55  0     0  0  0  0  0  0999 V2000
   13.2910    6.8270   26.0680 C   0  0  0  0  0  0  0  0  0  0  0  0
   12.1530    6.1200   26.2320 C   0  0  0  0  0  0  0  0  0  0  0  0
    4.6890    0.8210   19.9600 C   0  0  0  0  0  0  0  0  0  0  0  0
   11.6190    0.8400   23.3240 C   0  0  0  0  0  0  0  0  0  0  0  0
   13.9390    5.4020   24.2930 C   0  0  0  0  0  0  0  0  0  0  0  0
   12.2900   -0.9910   21.9320 C   0  0  0  0  0  0  0  0  0  0  0  0
   13.9300    0.5530   22.6970 C   0  0  0  0  0  0  0  0  0  0  0  0
    5.1850    0.7860   18.6400 C   0  0  0  0  0  0  0  0  0  0  0  0
    7.2010    0.1880   19.3350 C   0  0  0  0  0  0  0  0  0  0  0  0
    5.5060    0.3710   21.0020 C   0  0  0  0  0  0  0  0  0  0  0  0
   11.2760   -0.3630   22.7150 C   0  0  0  0  0  0  0  0  0  0  0  0
   12.6820    4.7410   24.3740 C   0  0  0  0  0  0  0  0  0  0  0  0
    6.8250    0.1420   20.6730 C   0  0  0  0  0  0  0  0  0  0  0  0
   14.1770    6.4950   25.1130 C   0  0  0  0  0  0  0  0  0  0  0  0
   11.7840    5.1140   25.3410 C   0  0  0  0  0  0  0  0  0  0  0  0
   12.9190    1.3050   23.3260 C   0  0  0  0  0  0  0  0  0  0  0  0
   13.6150   -0.5190   21.9720 C   0  0  0  0  0  0  0  0  0  0  0  0
    9.0620   -0.1980   21.6160 C   0  0  0  0  0  0  0  0  0  0  0  0
    4.9650    0.3430   22.4230 C   0  0  0  0  0  0  0  0  0  0  0  0
   15.4680    8.6110   25.2790 C   0  0  0  0  0  0  0  0  0  0  0  0
    9.5710    4.7910   26.1760 C   0  0  0  0  0  0  0  0  0  0  0  0
    9.8360   -0.8470   22.7300 C   0  0  0  0  0  0  0  0  0  0  0  0
   12.4550    3.5850   23.5470 C   0  0  0  0  0  0  0  0  0  0  0  0
    6.4140    0.4080   18.2940 N   0  0  0  0  0  0  0  0  0  0  0  0
    7.7120   -0.0800   21.7260 N   0  0  0  0  0  0  0  0  0  0  0  0
    9.6330    0.3970   20.7170 O   0  0  0  0  0  0  0  0  0  0  0  0
   15.3760    7.2520   24.9110 O   0  0  0  0  0  0  0  0  0  0  0  0
   10.6330    4.3220   25.3820 O   0  0  0  0  0  0  0  0  0  0  0  0
   13.2000    2.4390   24.0500 O   0  0  0  0  0  0  0  0  0  0  0  0
   14.9490   -1.3710   21.0780 Cl  0  0  0  0  0  0  0  0  0  0  0  0
   13.4770    7.6440   26.7640 H   0  0  0  0  0  0  0  0  0  0  0  0
   11.4560    6.4360   27.0080 H   0  0  0  0  0  0  0  0  0  0  0  0
    3.7160    1.1990   20.2300 H   0  0  0  0  0  0  0  0  0  0  0  0
   10.7670    1.2350   23.8780 H   0  0  0  0  0  0  0  0  0  0  0  0
   14.6260    5.1850   23.4840 H   0  0  0  0  0  0  0  0  0  0  0  0
   12.0210   -1.7690   21.2150 H   0  0  0  0  0  0  0  0  0  0  0  0
   14.9620    0.9040   22.7220 H   0  0  0  0  0  0  0  0  0  0  0  0
    4.4710    1.0580   17.8690 H   0  0  0  0  0  0  0  0  0  0  0  0
    8.2160   -0.0290   19.0220 H   0  0  0  0  0  0  0  0  0  0  0  0
    4.1700    1.0960   22.4630 H   0  0  0  0  0  0  0  0  0  0  0  0
    4.3900   -0.5590   22.6210 H   0  0  0  0  0  0  0  0  0  0  0  0
    5.5930    0.5920   23.2850 H   0  0  0  0  0  0  0  0  0  0  0  0
   16.4990    8.9790   25.3310 H   0  0  0  0  0  0  0  0  0  0  0  0
   15.1520    8.7810   26.3120 H   0  0  0  0  0  0  0  0  0  0  0  0
   14.8910    9.3510   24.7130 H   0  0  0  0  0  0  0  0  0  0  0  0
    8.6880    4.1950   25.9490 H   0  0  0  0  0  0  0  0  0  0  0  0
    9.3680    5.8220   25.8760 H   0  0  0  0  0  0  0  0  0  0  0  0
    9.7790    4.6620   27.2410 H   0  0  0  0  0  0  0  0  0  0  0  0
    9.8220   -1.8940   22.4040 H   0  0  0  0  0  0  0  0  0  0  0  0
    9.2570   -0.6440   23.6350 H   0  0  0  0  0  0  0  0  0  0  0  0
   11.3890    3.3970   23.4250 H   0  0  0  0  0  0  0  0  0  0  0  0
   12.6890    3.7510   22.4940 H   0  0  0  0  0  0  0  0  0  0  0  0
    7.2850   -0.4410   22.5760 H   0  0  0  0  0  0  0  0  0  0  0  0
  8 38  1  0  0  0  0
  8 24  2  0  0  0  0
  9 24  1  0  0  0  0
  3  8  1  0  0  0  0
  9 39  1  0  0  0  0
  9 13  2  0  0  0  0
  3 33  1  0  0  0  0
  3 10  2  0  0  0  0
 10 13  1  0  0  0  0
 13 25  1  0  0  0  0
 18 26  2  0  0  0  0
 10 19  1  0  0  0  0
 17 30  1  0  0  0  0
  6 36  1  0  0  0  0
 18 25  1  0  0  0  0
 18 22  1  0  0  0  0
 25 53  1  0  0  0  0
  6 17  2  0  0  0  0
  6 11  1  0  0  0  0
  7 17  1  0  0  0  0
 22 49  1  0  0  0  0
 19 40  1  0  0  0  0
 19 41  1  0  0  0  0
 19 42  1  0  0  0  0
 23 52  1  0  0  0  0
  7 37  1  0  0  0  0
  7 16  2  0  0  0  0
 11 22  1  0  0  0  0
  4 11  2  0  0  0  0
 22 50  1  0  0  0  0
  4 16  1  0  0  0  0
  4 34  1  0  0  0  0
 16 29  1  0  0  0  0
 23 51  1  0  0  0  0
  5 35  1  0  0  0  0
 23 29  1  0  0  0  0
 12 23  1  0  0  0  0
  5 12  2  0  0  0  0
  5 14  1  0  0  0  0
 12 15  1  0  0  0  0
 20 45  1  0  0  0  0
 14 27  1  0  0  0  0
 20 27  1  0  0  0  0
  1 14  2  0  0  0  0
 20 43  1  0  0  0  0
 20 44  1  0  0  0  0
 15 28  1  0  0  0  0
  2 15  2  0  0  0  0
 21 28  1  0  0  0  0
 21 47  1  0  0  0  0
 21 46  1  0  0  0  0
  1  2  1  0  0  0  0
  1 31  1  0  0  0  0
 21 48  1  0  0  0  0
  2 32  1  0  0  0  0
M  END
> <CID>
EN300-14150

> <SMILES>
Cc1ccncc1NC(=O)Cc2cc(cc(c2)Cl)OCc3cc(ccc3OC)OC

> <RUN>
RUN2092

> <DDG (kcal/mol)>
-0.14

> <dDDG (kcal/mol)>
0.14

$$$$
EN300-2966841
  -OEChem-08252008263D

 46 47  0     0  0  0  0  0  0999 V2000
    5.1260    0.7210   19.2590 C   0  0  0  0  0  0  0  0  0  0  0  0
   12.1910    1.1750   23.4570 C   0  0  0  0  0  0  0  0  0  0  0  0
   12.5640   -0.7130   21.9760 C   0  0  0  0  0  0  0  0  0  0  0  0
   14.3810    0.6570   22.6630 C   0  0  0  0  0  0  0  0  0  0  0  0
    5.8570    0.6650   18.0070 C   0  0  0  0  0  0  0  0  0  0  0  0
    7.8470    0.5140   19.1380 C   0  0  0  0  0  0  0  0  0  0  0  0
    5.7930    0.7060   20.4890 C   0  0  0  0  0  0  0  0  0  0  0  0
   11.6580    0.1040   22.7230 C   0  0  0  0  0  0  0  0  0  0  0  0
    7.2400    0.6760   20.4300 C   0  0  0  0  0  0  0  0  0  0  0  0
   13.5600    1.5000   23.4060 C   0  0  0  0  0  0  0  0  0  0  0  0
   13.9350   -0.4740   21.9300 C   0  0  0  0  0  0  0  0  0  0  0  0
    9.3260    0.7470   21.8830 C   0  0  0  0  0  0  0  0  0  0  0  0
   13.9530    4.7600   25.2940 C   0  0  0  0  0  0  0  0  0  0  0  0
    5.0900    1.0400   21.8060 C   0  0  0  0  0  0  0  0  0  0  0  0
   13.9160    4.7700   21.0580 C   0  0  0  0  0  0  0  0  0  0  0  0
   10.1690   -0.1820   22.8470 C   0  0  0  0  0  0  0  0  0  0  0  0
   13.2890    3.4680   24.7900 C   0  0  0  0  0  0  0  0  0  0  0  0
   13.9110    5.7680   22.1340 C   0  0  0  0  0  0  0  0  0  0  0  0
    7.1880    0.5480   18.0400 N   0  0  0  0  0  0  0  0  0  0  0  0
    7.9890    0.4900   21.6180 N   0  0  0  0  0  0  0  0  0  0  0  0
   14.5160    5.6530   24.4190 N   0  0  0  0  0  0  0  0  0  0  0  0
    9.8650    1.6380   21.2120 O   0  0  0  0  0  0  0  0  0  0  0  0
   13.9470    4.9580   26.5410 O   0  0  0  0  0  0  0  0  0  0  0  0
   14.1640    2.5850   24.0970 O   0  0  0  0  0  0  0  0  0  0  0  0
   14.8970    5.3840   23.0720 O   0  0  0  0  0  0  0  0  0  0  0  0
   14.8440   -1.5530   21.0030 Cl  0  0  0  0  0  0  0  0  0  0  0  0
    4.0600    0.9070   19.3140 H   0  0  0  0  0  0  0  0  0  0  0  0
   11.4890    1.7550   24.0490 H   0  0  0  0  0  0  0  0  0  0  0  0
   12.1920   -1.6480   21.5630 H   0  0  0  0  0  0  0  0  0  0  0  0
   15.4380    0.9060   22.6530 H   0  0  0  0  0  0  0  0  0  0  0  0
    5.3610    0.7540   17.0470 H   0  0  0  0  0  0  0  0  0  0  0  0
    8.8860    0.1830   19.0480 H   0  0  0  0  0  0  0  0  0  0  0  0
    5.7710    1.6060   22.4500 H   0  0  0  0  0  0  0  0  0  0  0  0
    4.1050    1.5030   21.7050 H   0  0  0  0  0  0  0  0  0  0  0  0
    4.7640    0.1580   22.3540 H   0  0  0  0  0  0  0  0  0  0  0  0
   14.7760    4.8710   20.3950 H   0  0  0  0  0  0  0  0  0  0  0  0
   13.5680    3.7630   21.3090 H   0  0  0  0  0  0  0  0  0  0  0  0
   13.1220    5.0590   20.3650 H   0  0  0  0  0  0  0  0  0  0  0  0
    9.9360   -1.2150   22.5570 H   0  0  0  0  0  0  0  0  0  0  0  0
    9.7560    0.0080   23.8330 H   0  0  0  0  0  0  0  0  0  0  0  0
   12.8260    2.9410   25.6320 H   0  0  0  0  0  0  0  0  0  0  0  0
   12.5750    3.8300   24.0480 H   0  0  0  0  0  0  0  0  0  0  0  0
   12.8880    5.6850   22.5190 H   0  0  0  0  0  0  0  0  0  0  0  0
   14.2080    6.7310   21.7030 H   0  0  0  0  0  0  0  0  0  0  0  0
    7.5210   -0.1290   22.2710 H   0  0  0  0  0  0  0  0  0  0  0  0
   14.9770    6.4130   24.9130 H   0  0  0  0  0  0  0  0  0  0  0  0
  5 31  1  0  0  0  0
  5 19  2  0  0  0  0
  1  5  1  0  0  0  0
  6 19  1  0  0  0  0
  6 32  1  0  0  0  0
  6  9  2  0  0  0  0
  1 27  1  0  0  0  0
  1  7  2  0  0  0  0
 15 38  1  0  0  0  0
 15 36  1  0  0  0  0
  7  9  1  0  0  0  0
  9 20  1  0  0  0  0
  7 14  1  0  0  0  0
 11 26  1  0  0  0  0
 15 37  1  0  0  0  0
 15 18  1  0  0  0  0
 12 22  2  0  0  0  0
  3 29  1  0  0  0  0
 12 20  1  0  0  0  0
 20 45  1  0  0  0  0
 18 44  1  0  0  0  0
 14 34  1  0  0  0  0
 14 35  1  0  0  0  0
 14 33  1  0  0  0  0
 12 16  1  0  0  0  0
  3 11  2  0  0  0  0
  4 11  1  0  0  0  0
  3  8  1  0  0  0  0
 18 43  1  0  0  0  0
 18 25  1  0  0  0  0
 16 39  1  0  0  0  0
  4 30  1  0  0  0  0
  4 10  2  0  0  0  0
  8 16  1  0  0  0  0
  2  8  2  0  0  0  0
 16 40  1  0  0  0  0
 21 25  1  0  0  0  0
  2 10  1  0  0  0  0
 10 24  1  0  0  0  0
  2 28  1  0  0  0  0
 17 42  1  0  0  0  0
 17 24  1  0  0  0  0
 21 46  1  0  0  0  0
 13 21  1  0  0  0  0
 13 17  1  0  0  0  0
 17 41  1  0  0  0  0
 13 23  2  0  0  0  0
M  END
> <CID>
EN300-2966841

> <SMILES>
CCONC(=O)COc1cc(cc(c1)Cl)CC(=O)Nc2cnccc2C

> <RUN>
RUN43

> <DDG (kcal/mol)>
-0.13

> <dDDG (kcal/mol)>
0.10

$$$$
EN300-1136771
  -OEChem-08252008263D

 49 51  0     1  0  0  0  0  0999 V2000
   11.2450    2.6460   29.5930 C   0  0  0  0  0  0  0  0  0  0  0  0
   13.3520    1.9970   30.6200 C   0  0  0  0  0  0  0  0  0  0  0  0
   10.7230    2.9700   30.8470 C   0  0  0  0  0  0  0  0  0  0  0  0
   12.9060    2.4170   31.8790 C   0  0  0  0  0  0  0  0  0  0  0  0
    4.4540    0.6750   19.9080 C   0  0  0  0  0  0  0  0  0  0  0  0
   11.0600   -0.3370   24.9070 C   0  0  0  0  0  0  0  0  0  0  0  0
   11.5250   -1.3060   22.8090 C   0  0  0  0  0  0  0  0  0  0  0  0
   13.3850   -0.6200   24.1510 C   0  0  0  0  0  0  0  0  0  0  0  0
    5.1670    0.2540   18.7510 C   0  0  0  0  0  0  0  0  0  0  0  0
    7.1060    0.0530   19.9660 C   0  0  0  0  0  0  0  0  0  0  0  0
   12.5700    2.0750   29.4330 C   0  0  0  0  0  0  0  0  0  0  0  0
    5.1650    0.8280   21.0870 C   0  0  0  0  0  0  0  0  0  0  0  0
   10.5890   -0.8450   23.7280 C   0  0  0  0  0  0  0  0  0  0  0  0
    6.5460    0.4660   21.1390 C   0  0  0  0  0  0  0  0  0  0  0  0
   12.4360   -0.2310   25.1280 C   0  0  0  0  0  0  0  0  0  0  0  0
   11.5710    2.8770   31.9780 C   0  0  0  0  0  0  0  0  0  0  0  0
   12.9090   -1.2190   22.9310 C   0  0  0  0  0  0  0  0  0  0  0  0
    8.6160    0.1750   22.5230 C   0  0  0  0  0  0  0  0  0  0  0  0
    4.4930    1.3980   22.3190 C   0  0  0  0  0  0  0  0  0  0  0  0
    9.0930   -0.8920   23.5100 C   0  0  0  0  0  0  0  0  0  0  0  0
   12.1820    0.9810   27.2500 C   0  0  0  0  0  0  0  0  0  0  0  0
   13.1830    1.6490   28.1120 C   0  0  1  0  0  0  0  0  0  0  0  0
    6.4140   -0.0380   18.8170 N   0  0  0  0  0  0  0  0  0  0  0  0
    7.2370    0.4520   22.3590 N   0  0  0  0  0  0  0  0  0  0  0  0
    9.3740    0.6460   21.6820 O   0  0  0  0  0  0  0  0  0  0  0  0
   13.7810    2.7240   27.3800 O   0  0  0  0  0  0  0  0  0  0  0  0
   13.0020    0.3300   26.2700 O   0  0  0  0  0  0  0  0  0  0  0  0
   11.1380    3.1220   33.2140 F   0  0  0  0  0  0  0  0  0  0  0  0
   14.0040   -1.5380   21.7160 Cl  0  0  0  0  0  0  0  0  0  0  0  0
   10.6410    2.7520   28.6880 H   0  0  0  0  0  0  0  0  0  0  0  0
   14.3330    1.5420   30.5730 H   0  0  0  0  0  0  0  0  0  0  0  0
    9.7190    3.3680   30.9280 H   0  0  0  0  0  0  0  0  0  0  0  0
   13.6150    2.2780   32.6800 H   0  0  0  0  0  0  0  0  0  0  0  0
    3.3920    0.9140   19.9040 H   0  0  0  0  0  0  0  0  0  0  0  0
   10.3700    0.1460   25.5860 H   0  0  0  0  0  0  0  0  0  0  0  0
   11.0990   -1.7120   21.9040 H   0  0  0  0  0  0  0  0  0  0  0  0
   14.4620   -0.4940   24.1960 H   0  0  0  0  0  0  0  0  0  0  0  0
    4.6910    0.4270   17.7930 H   0  0  0  0  0  0  0  0  0  0  0  0
    8.1760   -0.1760   19.9490 H   0  0  0  0  0  0  0  0  0  0  0  0
    4.4550    0.5670   23.0280 H   0  0  0  0  0  0  0  0  0  0  0  0
    5.0720    2.2130   22.7710 H   0  0  0  0  0  0  0  0  0  0  0  0
    3.5130    1.8160   22.1130 H   0  0  0  0  0  0  0  0  0  0  0  0
    8.9040   -1.8620   23.0380 H   0  0  0  0  0  0  0  0  0  0  0  0
    8.4990   -0.8060   24.4170 H   0  0  0  0  0  0  0  0  0  0  0  0
   11.5680    0.3590   27.9150 H   0  0  0  0  0  0  0  0  0  0  0  0
   11.5420    1.7840   26.8650 H   0  0  0  0  0  0  0  0  0  0  0  0
   14.0100    0.9660   28.3100 H   0  0  0  0  0  0  0  0  0  0  0  0
    6.6420    0.1610   23.1410 H   0  0  0  0  0  0  0  0  0  0  0  0
   14.2260    3.3780   27.9400 H   0  0  0  0  0  0  0  0  0  0  0  0
  9 38  1  0  0  0  0
  9 23  2  0  0  0  0
  5  9  1  0  0  0  0
 10 23  1  0  0  0  0
  5 34  1  0  0  0  0
  5 12  2  0  0  0  0
 10 39  1  0  0  0  0
 10 14  2  0  0  0  0
 12 14  1  0  0  0  0
 12 19  1  0  0  0  0
 14 24  1  0  0  0  0
 18 25  2  0  0  0  0
 17 29  1  0  0  0  0
  7 36  1  0  0  0  0
 19 42  1  0  0  0  0
 19 41  1  0  0  0  0
 19 40  1  0  0  0  0
 18 24  1  0  0  0  0
 24 48  1  0  0  0  0
 18 20  1  0  0  0  0
  7 17  2  0  0  0  0
  7 13  1  0  0  0  0
  8 17  1  0  0  0  0
 20 43  1  0  0  0  0
 13 20  1  0  0  0  0
 20 44  1  0  0  0  0
  6 13  2  0  0  0  0
  8 37  1  0  0  0  0
  8 15  2  0  0  0  0
  6 15  1  0  0  0  0
  6 35  1  0  0  0  0
 15 27  1  0  0  0  0
 21 27  1  0  0  0  0
 21 46  1  0  0  0  0
 21 45  1  0  0  0  0
 21 22  1  0  0  0  0
 26 49  1  0  0  0  0
 22 26  1  0  0  0  0
 22 47  1  0  0  0  0
 11 22  1  0  0  0  0
  1 30  1  0  0  0  0
  1 11  2  0  0  0  0
  2 11  1  0  0  0  0
  1  3  1  0  0  0  0
  2 31  1  0  0  0  0
  2  4  2  0  0  0  0
  3 32  1  0  0  0  0
  3 16  2  0  0  0  0
  4 16  1  0  0  0  0
  4 33  1  0  0  0  0
 16 28  1  0  0  0  0
M  END
> <CID>
EN300-1136771

> <SMILES>
Cc1ccncc1NC(=O)Cc2cc(cc(c2)Cl)OC[C@H](c3ccc(cc3)F)O

> <RUN>
RUN2852

> <DDG (kcal/mol)>
-0.13

> <dDDG (kcal/mol)>
0.17

$$$$
EN300-1613383
  -OEChem-08252008263D

 51 54  0     0  0  0  0  0  0999 V2000
    6.8410   -3.2390   25.5210 C   0  0  0  0  0  0  0  0  0  0  0  0
    7.3880   -1.9760   25.4890 C   0  0  0  0  0  0  0  0  0  0  0  0
    7.4020   -4.2390   26.3770 C   0  0  0  0  0  0  0  0  0  0  0  0
    7.1210    1.4710   21.5560 C   0  0  0  0  0  0  0  0  0  0  0  0
    9.0600   -2.7440   27.0420 C   0  0  0  0  0  0  0  0  0  0  0  0
   11.9390   -1.3600   24.5710 C   0  0  0  0  0  0  0  0  0  0  0  0
   13.3230   -1.3350   22.6440 C   0  0  0  0  0  0  0  0  0  0  0  0
   13.7990    0.0790   24.5190 C   0  0  0  0  0  0  0  0  0  0  0  0
    5.9980    0.6520   21.3920 C   0  0  0  0  0  0  0  0  0  0  0  0
    7.2290   -1.2780   21.4600 C   0  0  0  0  0  0  0  0  0  0  0  0
    8.4860   -1.6730   26.2560 C   0  0  0  0  0  0  0  0  0  0  0  0
    8.3160    0.8890   21.9420 C   0  0  0  0  0  0  0  0  0  0  0  0
   12.2280   -1.8680   23.2940 C   0  0  0  0  0  0  0  0  0  0  0  0
    8.4420   -0.4920   21.7740 C   0  0  0  0  0  0  0  0  0  0  0  0
   12.7100   -0.4300   25.2480 C   0  0  0  0  0  0  0  0  0  0  0  0
    8.5180   -4.0530   27.1010 C   0  0  0  0  0  0  0  0  0  0  0  0
   14.1420   -0.3620   23.2820 C   0  0  0  0  0  0  0  0  0  0  0  0
    9.0290   -0.2770   26.2990 C   0  0  0  0  0  0  0  0  0  0  0  0
   10.2330    0.2700   26.7340 C   0  0  0  0  0  0  0  0  0  0  0  0
    9.0440    1.8480   25.8110 C   0  0  0  0  0  0  0  0  0  0  0  0
   10.1550   -2.3410   21.8830 C   0  0  0  0  0  0  0  0  0  0  0  0
    9.4520    1.7630   22.2430 C   0  0  0  0  0  0  0  0  0  0  0  0
   11.3680   -2.8570   22.6000 C   0  0  0  0  0  0  0  0  0  0  0  0
   11.5070   -0.4560   27.2940 C   0  0  0  0  0  0  0  0  0  0  0  0
    6.0340   -0.7080   21.2580 N   0  0  0  0  0  0  0  0  0  0  0  0
    9.7030   -1.0940   22.1530 N   0  0  0  0  0  0  0  0  0  0  0  0
    8.7790    2.9270   25.2540 O   0  0  0  0  0  0  0  0  0  0  0  0
    9.4470   -3.1910   21.3170 O   0  0  0  0  0  0  0  0  0  0  0  0
    8.3370    0.7280   25.7490 O   0  0  0  0  0  0  0  0  0  0  0  0
   10.2320    1.5800   26.5020 O   0  0  0  0  0  0  0  0  0  0  0  0
   12.5300    0.1060   26.5180 O   0  0  0  0  0  0  0  0  0  0  0  0
    9.1730   -5.2850   28.1440 Cl  0  0  0  0  0  0  0  0  0  0  0  0
   15.5550    0.2850   22.5430 Cl  0  0  0  0  0  0  0  0  0  0  0  0
    5.9650   -3.5440   24.9500 H   0  0  0  0  0  0  0  0  0  0  0  0
    6.9080   -1.1960   24.9080 H   0  0  0  0  0  0  0  0  0  0  0  0
    6.9320   -5.2120   26.4020 H   0  0  0  0  0  0  0  0  0  0  0  0
    6.9710    2.5400   21.6590 H   0  0  0  0  0  0  0  0  0  0  0  0
    9.8030   -2.5750   27.8140 H   0  0  0  0  0  0  0  0  0  0  0  0
   11.0610   -1.7550   25.0720 H   0  0  0  0  0  0  0  0  0  0  0  0
   13.5430   -1.6000   21.6200 H   0  0  0  0  0  0  0  0  0  0  0  0
   14.3400    0.8550   25.0600 H   0  0  0  0  0  0  0  0  0  0  0  0
    4.9940    1.0550   21.4850 H   0  0  0  0  0  0  0  0  0  0  0  0
    7.2550   -2.3410   21.2660 H   0  0  0  0  0  0  0  0  0  0  0  0
   10.2440    1.5920   21.5070 H   0  0  0  0  0  0  0  0  0  0  0  0
    9.1200    2.8040   22.3740 H   0  0  0  0  0  0  0  0  0  0  0  0
    9.8630    1.4620   23.2100 H   0  0  0  0  0  0  0  0  0  0  0  0
   12.0170   -3.4600   21.9600 H   0  0  0  0  0  0  0  0  0  0  0  0
   11.0630   -3.6060   23.3450 H   0  0  0  0  0  0  0  0  0  0  0  0
   11.5200   -1.5340   27.1510 H   0  0  0  0  0  0  0  0  0  0  0  0
   11.5210   -0.2140   28.3660 H   0  0  0  0  0  0  0  0  0  0  0  0
   10.3680   -0.4820   22.6210 H   0  0  0  0  0  0  0  0  0  0  0  0
  9 25  2  0  0  0  0
 10 25  1  0  0  0  0
 10 43  1  0  0  0  0
 21 28  2  0  0  0  0
  9 42  1  0  0  0  0
  4  9  1  0  0  0  0
 10 14  2  0  0  0  0
 22 44  1  0  0  0  0
  4 37  1  0  0  0  0
  4 12  2  0  0  0  0
  7 40  1  0  0  0  0
 12 14  1  0  0  0  0
 14 26  1  0  0  0  0
 21 26  1  0  0  0  0
 21 23  1  0  0  0  0
 12 22  1  0  0  0  0
 23 47  1  0  0  0  0
 26 51  1  0  0  0  0
 22 45  1  0  0  0  0
 22 46  1  0  0  0  0
 17 33  1  0  0  0  0
 13 23  1  0  0  0  0
 23 48  1  0  0  0  0
  7 17  2  0  0  0  0
  7 13  1  0  0  0  0
  8 17  1  0  0  0  0
  6 13  2  0  0  0  0
  8 41  1  0  0  0  0
  8 15  2  0  0  0  0
  6 39  1  0  0  0  0
  6 15  1  0  0  0  0
  2 35  1  0  0  0  0
  1 34  1  0  0  0  0
 15 31  1  0  0  0  0
 20 27  2  0  0  0  0
  1  2  2  0  0  0  0
  2 11  1  0  0  0  0
  1  3  1  0  0  0  0
 20 29  1  0  0  0  0
 18 29  1  0  0  0  0
 20 30  1  0  0  0  0
 11 18  1  0  0  0  0
  5 11  2  0  0  0  0
 18 19  2  0  0  0  0
  3 36  1  0  0  0  0
  3 16  2  0  0  0  0
 19 30  1  0  0  0  0
 24 31  1  0  0  0  0
 19 24  1  0  0  0  0
  5 16  1  0  0  0  0
  5 38  1  0  0  0  0
 16 32  1  0  0  0  0
 24 49  1  0  0  0  0
 24 50  1  0  0  0  0
M  END
> <CID>
EN300-1613383

> <SMILES>
Cc1ccncc1NC(=O)Cc2cc(cc(c2)Cl)OCc3c(oc(=O)o3)c4cccc(c4)Cl

> <RUN>
RUN1379

> <DDG (kcal/mol)>
-0.13

> <dDDG (kcal/mol)>
0.18

$$$$
EN300-1915974
  -OEChem-08252008263D

 44 46  0     0  0  0  0  0  0999 V2000
    4.7070    1.0210   18.6880 C   0  0  0  0  0  0  0  0  0  0  0  0
   11.3190    1.6500   22.3460 C   0  0  0  0  0  0  0  0  0  0  0  0
   12.1110   -0.5510   22.2040 C   0  0  0  0  0  0  0  0  0  0  0  0
   13.6920    1.2470   22.3310 C   0  0  0  0  0  0  0  0  0  0  0  0
    5.2600    0.9940   17.3870 C   0  0  0  0  0  0  0  0  0  0  0  0
    7.3160    0.2330   18.1810 C   0  0  0  0  0  0  0  0  0  0  0  0
   12.4090    6.3860   23.7930 C   0  0  0  0  0  0  0  0  0  0  0  0
    5.4540    0.5390   19.7580 C   0  0  0  0  0  0  0  0  0  0  0  0
   11.0360    0.3040   22.2440 C   0  0  0  0  0  0  0  0  0  0  0  0
   12.4000    5.8950   22.5480 C   0  0  0  0  0  0  0  0  0  0  0  0
    6.8470    0.1950   19.5040 C   0  0  0  0  0  0  0  0  0  0  0  0
   12.6250    2.2140   22.3300 C   0  0  0  0  0  0  0  0  0  0  0  0
   13.4290   -0.1450   22.2580 C   0  0  0  0  0  0  0  0  0  0  0  0
   13.2380    6.7140   21.7440 C   0  0  0  0  0  0  0  0  0  0  0  0
    8.6710    0.5400   21.0850 C   0  0  0  0  0  0  0  0  0  0  0  0
    4.7540    0.3530   21.0740 C   0  0  0  0  0  0  0  0  0  0  0  0
    9.5680   -0.0890   22.1630 C   0  0  0  0  0  0  0  0  0  0  0  0
   11.8230    4.5270   22.2320 C   0  0  0  0  0  0  0  0  0  0  0  0
    6.5600    0.6870   17.1320 N   0  0  0  0  0  0  0  0  0  0  0  0
   13.7130    7.7670   22.4000 N   0  0  0  0  0  0  0  0  0  0  0  0
   13.1760    7.5520   23.6820 N   0  0  0  0  0  0  0  0  0  0  0  0
    7.6110   -0.1710   20.6270 N   0  0  0  0  0  0  0  0  0  0  0  0
   13.5900    6.5110   20.3770 N   0  0  0  0  0  0  0  0  0  0  0  0
    8.8990    1.6720   20.6050 O   0  0  0  0  0  0  0  0  0  0  0  0
   14.0780    7.4970   19.7220 O   0  0  0  0  0  0  0  0  0  0  0  0
   13.3080    5.4320   19.8800 O   0  0  0  0  0  0  0  0  0  0  0  0
   12.9390    3.5530   22.3430 O   0  0  0  0  0  0  0  0  0  0  0  0
   14.7670   -1.2820   22.1410 Cl  0  0  0  0  0  0  0  0  0  0  0  0
    3.7010    1.3870   18.8590 H   0  0  0  0  0  0  0  0  0  0  0  0
   10.4010    2.2180   22.3710 H   0  0  0  0  0  0  0  0  0  0  0  0
   12.0500   -1.6380   22.2790 H   0  0  0  0  0  0  0  0  0  0  0  0
   14.6880    1.6750   22.3730 H   0  0  0  0  0  0  0  0  0  0  0  0
    4.6620    1.3560   16.5560 H   0  0  0  0  0  0  0  0  0  0  0  0
    8.3080   -0.1750   17.9870 H   0  0  0  0  0  0  0  0  0  0  0  0
   11.9200    5.9430   24.6450 H   0  0  0  0  0  0  0  0  0  0  0  0
    4.7790   -0.7160   21.2700 H   0  0  0  0  0  0  0  0  0  0  0  0
    5.3930    0.8800   21.7870 H   0  0  0  0  0  0  0  0  0  0  0  0
    3.7760    0.8450   21.1440 H   0  0  0  0  0  0  0  0  0  0  0  0
    9.5730   -1.1740   22.0180 H   0  0  0  0  0  0  0  0  0  0  0  0
    9.0850    0.2800   23.0730 H   0  0  0  0  0  0  0  0  0  0  0  0
   11.0550    4.2170   22.9410 H   0  0  0  0  0  0  0  0  0  0  0  0
   11.5100    4.5280   21.1850 H   0  0  0  0  0  0  0  0  0  0  0  0
   13.2170    8.1870   24.4810 H   0  0  0  0  0  0  0  0  0  0  0  0
    7.2290   -0.8400   21.2980 H   0  0  0  0  0  0  0  0  0  0  0  0
  5 33  1  0  0  0  0
  5 19  2  0  0  0  0
  6 19  1  0  0  0  0
  1  5  1  0  0  0  0
  6 34  1  0  0  0  0
  6 11  2  0  0  0  0
  1 29  1  0  0  0  0
  1  8  2  0  0  0  0
  8 11  1  0  0  0  0
 11 22  1  0  0  0  0
 23 25  2  0  0  0  0
  8 16  1  0  0  0  0
 23 26  2  0  0  0  0
 14 23  1  0  0  0  0
 15 24  2  0  0  0  0
 15 22  1  0  0  0  0
 22 44  1  0  0  0  0
 16 38  1  0  0  0  0
 16 36  1  0  0  0  0
 16 37  1  0  0  0  0
 15 17  1  0  0  0  0
 18 42  1  0  0  0  0
 14 20  2  0  0  0  0
 10 14  1  0  0  0  0
 17 39  1  0  0  0  0
 13 28  1  0  0  0  0
  9 17  1  0  0  0  0
 17 40  1  0  0  0  0
  3  9  2  0  0  0  0
  3 13  1  0  0  0  0
  3 31  1  0  0  0  0
 18 27  1  0  0  0  0
 10 18  1  0  0  0  0
 18 41  1  0  0  0  0
  2  9  1  0  0  0  0
  4 13  2  0  0  0  0
  4 12  1  0  0  0  0
 12 27  1  0  0  0  0
  2 12  2  0  0  0  0
  4 32  1  0  0  0  0
  2 30  1  0  0  0  0
 20 21  1  0  0  0  0
  7 10  2  0  0  0  0
  7 21  1  0  0  0  0
 21 43  1  0  0  0  0
  7 35  1  0  0  0  0
M  END
> <CID>
EN300-1915974

> <SMILES>
Cc1ccncc1NC(=O)Cc2cc(cc(c2)Cl)OCc3c[nH]nc3N(=O)=O

> <RUN>
RUN2156

> <DDG (kcal/mol)>
-0.13

> <dDDG (kcal/mol)>
0.12

$$$$
EN300-1896524
  -OEChem-08252008263D

 42 44  0     0  0  0  0  0  0999 V2000
   12.4200    5.3020   24.1780 C   0  0  0  0  0  0  0  0  0  0  0  0
   12.4540    6.3560   25.1640 C   0  0  0  0  0  0  0  0  0  0  0  0
    5.3290    0.7860   19.1690 C   0  0  0  0  0  0  0  0  0  0  0  0
   11.5990    0.3780   23.7030 C   0  0  0  0  0  0  0  0  0  0  0  0
   12.5250   -1.4660   22.3910 C   0  0  0  0  0  0  0  0  0  0  0  0
   14.0540    0.0110   23.5240 C   0  0  0  0  0  0  0  0  0  0  0  0
    5.9040    1.1200   17.9270 C   0  0  0  0  0  0  0  0  0  0  0  0
    7.9610    0.3050   18.5600 C   0  0  0  0  0  0  0  0  0  0  0  0
    6.0890    0.1000   20.1310 C   0  0  0  0  0  0  0  0  0  0  0  0
   11.3780   -0.7310   22.9070 C   0  0  0  0  0  0  0  0  0  0  0  0
    7.4410   -0.0510   19.8880 C   0  0  0  0  0  0  0  0  0  0  0  0
   12.9660    0.8070   23.9960 C   0  0  0  0  0  0  0  0  0  0  0  0
   13.8770   -1.1060   22.7040 C   0  0  0  0  0  0  0  0  0  0  0  0
   13.4050    4.3890   24.5500 C   0  0  0  0  0  0  0  0  0  0  0  0
   13.4570    5.9980   26.0530 C   0  0  0  0  0  0  0  0  0  0  0  0
    9.4130   -0.4400   21.3150 C   0  0  0  0  0  0  0  0  0  0  0  0
    5.5730   -0.2070   21.4990 C   0  0  0  0  0  0  0  0  0  0  0  0
    9.9350   -1.1190   22.5860 C   0  0  0  0  0  0  0  0  0  0  0  0
   13.5270    3.0640   23.8610 C   0  0  0  0  0  0  0  0  0  0  0  0
    7.1470    0.8320   17.6000 N   0  0  0  0  0  0  0  0  0  0  0  0
    8.1990   -0.7930   20.8020 N   0  0  0  0  0  0  0  0  0  0  0  0
    9.9930    0.4660   20.8330 O   0  0  0  0  0  0  0  0  0  0  0  0
   14.0890    4.8630   25.6490 O   0  0  0  0  0  0  0  0  0  0  0  0
   13.1710    2.0020   24.7190 O   0  0  0  0  0  0  0  0  0  0  0  0
   15.0850   -1.7820   21.7430 Cl  0  0  0  0  0  0  0  0  0  0  0  0
   13.7040    6.9150   27.5340 Cl  0  0  0  0  0  0  0  0  0  0  0  0
   11.6730    5.1730   23.4070 H   0  0  0  0  0  0  0  0  0  0  0  0
   11.8520    7.2510   25.3200 H   0  0  0  0  0  0  0  0  0  0  0  0
    4.2760    1.0370   19.2240 H   0  0  0  0  0  0  0  0  0  0  0  0
   10.8090    0.9380   24.1910 H   0  0  0  0  0  0  0  0  0  0  0  0
   12.4510   -2.2530   21.6560 H   0  0  0  0  0  0  0  0  0  0  0  0
   14.9980    0.4950   23.6840 H   0  0  0  0  0  0  0  0  0  0  0  0
    5.3250    1.5570   17.1170 H   0  0  0  0  0  0  0  0  0  0  0  0
    9.0010    0.1990   18.2460 H   0  0  0  0  0  0  0  0  0  0  0  0
    4.5230    0.0880   21.5490 H   0  0  0  0  0  0  0  0  0  0  0  0
    5.6130   -1.2700   21.7410 H   0  0  0  0  0  0  0  0  0  0  0  0
    6.1370    0.2580   22.3040 H   0  0  0  0  0  0  0  0  0  0  0  0
    9.9790   -2.2190   22.5730 H   0  0  0  0  0  0  0  0  0  0  0  0
    9.3170   -0.8530   23.4490 H   0  0  0  0  0  0  0  0  0  0  0  0
   12.9860    3.0310   22.9120 H   0  0  0  0  0  0  0  0  0  0  0  0
   14.5910    2.9040   23.6360 H   0  0  0  0  0  0  0  0  0  0  0  0
    7.7440   -1.5730   21.2800 H   0  0  0  0  0  0  0  0  0  0  0  0
  7 33  1  0  0  0  0
  7 20  2  0  0  0  0
  8 20  1  0  0  0  0
  3  7  1  0  0  0  0
  8 34  1  0  0  0  0
  8 11  2  0  0  0  0
  3 29  1  0  0  0  0
  3  9  2  0  0  0  0
  9 11  1  0  0  0  0
 11 21  1  0  0  0  0
  9 17  1  0  0  0  0
 21 42  1  0  0  0  0
 16 21  1  0  0  0  0
 16 22  2  0  0  0  0
 16 18  1  0  0  0  0
 17 35  1  0  0  0  0
 17 36  1  0  0  0  0
 17 37  1  0  0  0  0
  5 31  1  0  0  0  0
 13 25  1  0  0  0  0
  5 13  2  0  0  0  0
  5 10  1  0  0  0  0
 18 38  1  0  0  0  0
 10 18  1  0  0  0  0
 18 39  1  0  0  0  0
  6 13  1  0  0  0  0
  4 10  2  0  0  0  0
 19 40  1  0  0  0  0
  1 27  1  0  0  0  0
  6 32  1  0  0  0  0
  6 12  2  0  0  0  0
 19 41  1  0  0  0  0
  4 12  1  0  0  0  0
  4 30  1  0  0  0  0
 14 19  1  0  0  0  0
 19 24  1  0  0  0  0
 12 24  1  0  0  0  0
  1 14  2  0  0  0  0
  1  2  1  0  0  0  0
 14 23  1  0  0  0  0
  2 28  1  0  0  0  0
  2 15  2  0  0  0  0
 15 23  1  0  0  0  0
 15 26  1  0  0  0  0
M  END
> <CID>
EN300-1896524

> <SMILES>
Cc1ccncc1NC(=O)Cc2cc(cc(c2)Cl)OCc3ccc(o3)Cl

> <RUN>
RUN384

> <DDG (kcal/mol)>
-0.13

> <dDDG (kcal/mol)>
0.11

$$$$
EN300-4263497
  -OEChem-08252008263D

 49 51  0     0  0  0  0  0  0999 V2000
    6.2380    1.7910   19.1030 C   0  0  0  0  0  0  0  0  0  0  0  0
   10.1650   -4.6210   26.0150 C   0  0  0  0  0  0  0  0  0  0  0  0
    9.1270   -4.9170   28.1850 C   0  0  0  0  0  0  0  0  0  0  0  0
    9.5430   -2.8380   23.6140 C   0  0  0  0  0  0  0  0  0  0  0  0
   10.3870   -2.5340   21.3450 C   0  0  0  0  0  0  0  0  0  0  0  0
    9.9330   -2.7430   27.5480 C   0  0  0  0  0  0  0  0  0  0  0  0
   11.7020   -1.9070   23.2450 C   0  0  0  0  0  0  0  0  0  0  0  0
    6.1750    1.2880   17.7860 C   0  0  0  0  0  0  0  0  0  0  0  0
    7.0620   -0.6910   18.4170 C   0  0  0  0  0  0  0  0  0  0  0  0
    6.6960    1.0230   20.1620 C   0  0  0  0  0  0  0  0  0  0  0  0
    9.5200   -5.4670   26.9740 C   0  0  0  0  0  0  0  0  0  0  0  0
    9.3630   -2.9090   22.1620 C   0  0  0  0  0  0  0  0  0  0  0  0
    7.1150   -0.2850   19.7740 C   0  0  0  0  0  0  0  0  0  0  0  0
   10.3440   -3.2270   26.3220 C   0  0  0  0  0  0  0  0  0  0  0  0
    9.3470   -3.5580   28.5180 C   0  0  0  0  0  0  0  0  0  0  0  0
   10.7530   -2.4170   24.1480 C   0  0  0  0  0  0  0  0  0  0  0  0
   11.5780   -2.0020   21.8570 C   0  0  0  0  0  0  0  0  0  0  0  0
    7.3540   -2.5670   20.6720 C   0  0  0  0  0  0  0  0  0  0  0  0
    6.7080    1.5080   21.5830 C   0  0  0  0  0  0  0  0  0  0  0  0
    8.9840   -1.7070   29.9190 C   0  0  0  0  0  0  0  0  0  0  0  0
    8.0170   -3.4990   21.6510 C   0  0  0  0  0  0  0  0  0  0  0  0
    9.2550   -6.8960   26.6820 C   0  0  0  0  0  0  0  0  0  0  0  0
    6.6590    0.0810   17.3850 N   0  0  0  0  0  0  0  0  0  0  0  0
    7.4530   -1.1930   20.7940 N   0  0  0  0  0  0  0  0  0  0  0  0
    6.5740   -3.1100   19.8550 O   0  0  0  0  0  0  0  0  0  0  0  0
   11.0140   -2.3650   25.5230 O   0  0  0  0  0  0  0  0  0  0  0  0
    8.7660   -3.0940   29.6910 O   0  0  0  0  0  0  0  0  0  0  0  0
   12.8140   -1.5730   20.7080 Cl  0  0  0  0  0  0  0  0  0  0  0  0
    7.9720   -7.1030   25.1940 Br  0  0  0  0  0  0  0  0  0  0  0  0
    5.8900    2.8110   19.2490 H   0  0  0  0  0  0  0  0  0  0  0  0
   10.4770   -4.9210   25.0200 H   0  0  0  0  0  0  0  0  0  0  0  0
    8.4920   -5.5700   28.7700 H   0  0  0  0  0  0  0  0  0  0  0  0
    8.6840   -2.9950   24.2670 H   0  0  0  0  0  0  0  0  0  0  0  0
   10.3600   -2.5800   20.2620 H   0  0  0  0  0  0  0  0  0  0  0  0
   10.0280   -1.6680   27.6900 H   0  0  0  0  0  0  0  0  0  0  0  0
   12.5870   -1.4690   23.6890 H   0  0  0  0  0  0  0  0  0  0  0  0
    5.8130    2.0110   17.0690 H   0  0  0  0  0  0  0  0  0  0  0  0
    7.4830   -1.6320   18.0530 H   0  0  0  0  0  0  0  0  0  0  0  0
    5.8310    2.1310   21.7730 H   0  0  0  0  0  0  0  0  0  0  0  0
    6.7490    0.7260   22.3510 H   0  0  0  0  0  0  0  0  0  0  0  0
    7.5630    2.1780   21.6370 H   0  0  0  0  0  0  0  0  0  0  0  0
    8.4950   -1.5000   30.8780 H   0  0  0  0  0  0  0  0  0  0  0  0
    8.5170   -1.0500   29.1900 H   0  0  0  0  0  0  0  0  0  0  0  0
   10.0350   -1.4160   30.0150 H   0  0  0  0  0  0  0  0  0  0  0  0
    8.2230   -4.4530   21.1560 H   0  0  0  0  0  0  0  0  0  0  0  0
    7.3670   -3.6360   22.5220 H   0  0  0  0  0  0  0  0  0  0  0  0
   10.1890   -7.4340   26.4760 H   0  0  0  0  0  0  0  0  0  0  0  0
    8.8690   -7.4640   27.5270 H   0  0  0  0  0  0  0  0  0  0  0  0
    7.8460   -0.9130   21.6960 H   0  0  0  0  0  0  0  0  0  0  0  0
  8 37  1  0  0  0  0
  8 23  2  0  0  0  0
  9 23  1  0  0  0  0
  1  8  1  0  0  0  0
  9 38  1  0  0  0  0
  9 13  2  0  0  0  0
  1 30  1  0  0  0  0
  1 10  2  0  0  0  0
 10 13  1  0  0  0  0
 13 24  1  0  0  0  0
 18 25  2  0  0  0  0
 10 19  1  0  0  0  0
  5 34  1  0  0  0  0
 18 24  1  0  0  0  0
 18 21  1  0  0  0  0
 17 28  1  0  0  0  0
 24 49  1  0  0  0  0
 21 45  1  0  0  0  0
  5 17  2  0  0  0  0
  5 12  1  0  0  0  0
 19 41  1  0  0  0  0
 19 39  1  0  0  0  0
 19 40  1  0  0  0  0
 12 21  1  0  0  0  0
 21 46  1  0  0  0  0
  7 17  1  0  0  0  0
  4 12  2  0  0  0  0
  7 36  1  0  0  0  0
  7 16  2  0  0  0  0
  4 16  1  0  0  0  0
  4 33  1  0  0  0  0
 16 26  1  0  0  0  0
  2 31  1  0  0  0  0
 22 29  1  0  0  0  0
 14 26  1  0  0  0  0
  2 14  2  0  0  0  0
  2 11  1  0  0  0  0
  6 14  1  0  0  0  0
 22 47  1  0  0  0  0
 11 22  1  0  0  0  0
 22 48  1  0  0  0  0
  3 11  2  0  0  0  0
  6 35  1  0  0  0  0
  6 15  2  0  0  0  0
  3 15  1  0  0  0  0
  3 32  1  0  0  0  0
 15 27  1  0  0  0  0
 20 43  1  0  0  0  0
 20 27  1  0  0  0  0
 20 44  1  0  0  0  0
 20 42  1  0  0  0  0
M  END
> <CID>
EN300-4263497

> <SMILES>
Cc1ccncc1NC(=O)Cc2cc(cc(c2)Cl)Oc3cc(cc(c3)OC)CBr

> <RUN>
RUN2446

> <DDG (kcal/mol)>
-0.13

> <dDDG (kcal/mol)>
0.12

$$$$
EN300-7433156
  -OEChem-08252008263D

 53 56  0     1  0  0  0  0  0999 V2000
    5.5780    2.1810   19.3030 C   0  0  0  0  0  0  0  0  0  0  0  0
   10.0930   -2.3330   28.9060 C   0  0  0  0  0  0  0  0  0  0  0  0
   11.3930   -0.8140   27.5410 C   0  0  0  0  0  0  0  0  0  0  0  0
    9.9680   -1.8450   23.7080 C   0  0  0  0  0  0  0  0  0  0  0  0
   10.5890   -2.3750   21.4330 C   0  0  0  0  0  0  0  0  0  0  0  0
   12.2600   -1.7070   23.0520 C   0  0  0  0  0  0  0  0  0  0  0  0
    5.5920    1.7820   17.9920 C   0  0  0  0  0  0  0  0  0  0  0  0
    6.8990   -0.0420   18.4270 C   0  0  0  0  0  0  0  0  0  0  0  0
    9.9870   -3.1710   27.7420 C   0  0  0  0  0  0  0  0  0  0  0  0
    6.3500    1.4170   20.2380 C   0  0  0  0  0  0  0  0  0  0  0  0
   10.7180   -1.1070   28.7420 C   0  0  0  0  0  0  0  0  0  0  0  0
    9.5660   -2.2500   22.3930 C   0  0  0  0  0  0  0  0  0  0  0  0
    6.9970    0.2510   19.7750 C   0  0  0  0  0  0  0  0  0  0  0  0
   10.6170   -2.8880   26.5720 C   0  0  0  0  0  0  0  0  0  0  0  0
   11.3630   -1.6850   24.0310 C   0  0  0  0  0  0  0  0  0  0  0  0
   11.2810   -1.6520   26.4060 C   0  0  0  0  0  0  0  0  0  0  0  0
   11.9240   -2.1890   21.7670 C   0  0  0  0  0  0  0  0  0  0  0  0
    7.6280   -1.9130   20.8010 C   0  0  0  0  0  0  0  0  0  0  0  0
    9.2970   -4.4450   27.6990 C   0  0  0  0  0  0  0  0  0  0  0  0
    9.6720   -4.7810   26.2200 C   0  0  2  0  0  0  0  0  0  0  0  0
    6.4960    1.8040   21.6580 C   0  0  0  0  0  0  0  0  0  0  0  0
   10.6360   -0.1400   29.8570 C   0  0  0  0  0  0  0  0  0  0  0  0
    8.0720   -2.5250   22.1300 C   0  0  0  0  0  0  0  0  0  0  0  0
   10.0780   -6.2400   25.8580 C   0  0  0  0  0  0  0  0  0  0  0  0
    6.3640    0.8300   17.5380 N   0  0  0  0  0  0  0  0  0  0  0  0
    7.6900   -0.5630   20.6940 N   0  0  0  0  0  0  0  0  0  0  0  0
    7.1230   -2.6270   19.9360 O   0  0  0  0  0  0  0  0  0  0  0  0
   10.5600   -3.8250   25.6070 O   0  0  0  0  0  0  0  0  0  0  0  0
   11.9700   -1.3960   25.2360 O   0  0  0  0  0  0  0  0  0  0  0  0
   13.2300   -2.3720   20.6510 Cl  0  0  0  0  0  0  0  0  0  0  0  0
    9.6050   -6.7300   23.7970 I   0  0  0  0  0  0  0  0  0  0  0  0
    4.8990    2.9380   19.6750 H   0  0  0  0  0  0  0  0  0  0  0  0
    9.7500   -2.5090   29.9160 H   0  0  0  0  0  0  0  0  0  0  0  0
   11.8710    0.1630   27.4750 H   0  0  0  0  0  0  0  0  0  0  0  0
    9.1880   -1.5920   24.4310 H   0  0  0  0  0  0  0  0  0  0  0  0
   10.4240   -2.6810   20.4070 H   0  0  0  0  0  0  0  0  0  0  0  0
   13.3200   -1.5460   23.2140 H   0  0  0  0  0  0  0  0  0  0  0  0
    5.1720    2.4560   17.2490 H   0  0  0  0  0  0  0  0  0  0  0  0
    7.4310   -0.8850   17.9960 H   0  0  0  0  0  0  0  0  0  0  0  0
    9.6880   -5.2100   28.3830 H   0  0  0  0  0  0  0  0  0  0  0  0
    8.2210   -4.2900   27.6660 H   0  0  0  0  0  0  0  0  0  0  0  0
    8.6930   -4.6890   25.7450 H   0  0  0  0  0  0  0  0  0  0  0  0
    6.1220    1.1980   22.4860 H   0  0  0  0  0  0  0  0  0  0  0  0
    7.5740    1.9070   21.8530 H   0  0  0  0  0  0  0  0  0  0  0  0
    6.0200    2.7810   21.7790 H   0  0  0  0  0  0  0  0  0  0  0  0
   11.1530    0.7720   29.5520 H   0  0  0  0  0  0  0  0  0  0  0  0
   11.1190   -0.6340   30.7090 H   0  0  0  0  0  0  0  0  0  0  0  0
    9.6230    0.0440   30.2330 H   0  0  0  0  0  0  0  0  0  0  0  0
    7.8870   -3.5980   22.0310 H   0  0  0  0  0  0  0  0  0  0  0  0
    7.4490   -2.0300   22.8790 H   0  0  0  0  0  0  0  0  0  0  0  0
    9.6060   -6.8900   26.5960 H   0  0  0  0  0  0  0  0  0  0  0  0
   11.1500   -6.3530   26.0850 H   0  0  0  0  0  0  0  0  0  0  0  0
    8.2910   -0.1160   21.3850 H   0  0  0  0  0  0  0  0  0  0  0  0
  7 38  1  0  0  0  0
  7 25  2  0  0  0  0
  8 25  1  0  0  0  0
  1  7  1  0  0  0  0
  8 39  1  0  0  0  0
  8 13  2  0  0  0  0
  1 32  1  0  0  0  0
  1 10  2  0  0  0  0
 10 13  1  0  0  0  0
 13 26  1  0  0  0  0
 18 27  2  0  0  0  0
 10 21  1  0  0  0  0
  5 36  1  0  0  0  0
 17 30  1  0  0  0  0
 18 26  1  0  0  0  0
 26 53  1  0  0  0  0
 18 23  1  0  0  0  0
  5 17  2  0  0  0  0
  5 12  1  0  0  0  0
 21 45  1  0  0  0  0
 21 44  1  0  0  0  0
 21 43  1  0  0  0  0
  6 17  1  0  0  0  0
 23 49  1  0  0  0  0
 12 23  1  0  0  0  0
 23 50  1  0  0  0  0
  4 12  2  0  0  0  0
  6 37  1  0  0  0  0
  6 15  2  0  0  0  0
  4 15  1  0  0  0  0
  4 35  1  0  0  0  0
 24 31  1  0  0  0  0
 15 29  1  0  0  0  0
 16 29  1  0  0  0  0
 20 28  1  0  0  0  0
 14 28  1  0  0  0  0
 20 42  1  0  0  0  0
 24 52  1  0  0  0  0
 20 24  1  0  0  0  0
 24 51  1  0  0  0  0
 19 20  1  0  0  0  0
 14 16  2  0  0  0  0
  3 16  1  0  0  0  0
  9 14  1  0  0  0  0
  3 34  1  0  0  0  0
  3 11  2  0  0  0  0
 19 41  1  0  0  0  0
  9 19  1  0  0  0  0
 19 40  1  0  0  0  0
  2  9  2  0  0  0  0
  2 11  1  0  0  0  0
 11 22  1  0  0  0  0
  2 33  1  0  0  0  0
 22 46  1  0  0  0  0
 22 48  1  0  0  0  0
 22 47  1  0  0  0  0
M  END
> <CID>
EN300-7433156

> <SMILES>
Cc1ccncc1NC(=O)Cc2cc(cc(c2)Cl)Oc3cc(cc4c3O[C@@H](C4)CI)C

> <RUN>
RUN2999

> <DDG (kcal/mol)>
-0.13

> <dDDG (kcal/mol)>
0.16

$$$$
EN300-382760
  -OEChem-08252008263D

 50 53  0     0  0  0  0  0  0999 V2000
    5.9740    2.4450   16.9940 C   0  0  0  0  0  0  0  0  0  0  0  0
   12.3560    4.1150   21.3800 C   0  0  0  0  0  0  0  0  0  0  0  0
   12.1230    1.7850   22.1490 C   0  0  0  0  0  0  0  0  0  0  0  0
   14.2690    2.8640   21.9790 C   0  0  0  0  0  0  0  0  0  0  0  0
    6.6040    1.4690   16.2750 C   0  0  0  0  0  0  0  0  0  0  0  0
   16.4880    7.5740   22.1210 C   0  0  0  0  0  0  0  0  0  0  0  0
   16.7250    6.7940   19.8850 C   0  0  0  0  0  0  0  0  0  0  0  0
    8.1700    1.2310   17.8320 C   0  0  0  0  0  0  0  0  0  0  0  0
    6.5060    2.9360   18.2040 C   0  0  0  0  0  0  0  0  0  0  0  0
   11.5100    3.0220   21.7510 C   0  0  0  0  0  0  0  0  0  0  0  0
   16.4710    6.5060   21.1990 C   0  0  0  0  0  0  0  0  0  0  0  0
    7.6830    2.2710   18.6410 C   0  0  0  0  0  0  0  0  0  0  0  0
   13.7620    4.0570   21.5190 C   0  0  0  0  0  0  0  0  0  0  0  0
   13.4610    1.7290   22.3130 C   0  0  0  0  0  0  0  0  0  0  0  0
   17.0570    9.0410   20.4070 C   0  0  0  0  0  0  0  0  0  0  0  0
    9.5410    2.5650   20.2810 C   0  0  0  0  0  0  0  0  0  0  0  0
   17.8110   11.4360   21.0680 C   0  0  0  0  0  0  0  0  0  0  0  0
   16.4990   11.6700   20.3610 C   0  0  0  0  0  0  0  0  0  0  0  0
   17.3260   10.4430   19.9880 C   0  0  0  0  0  0  0  0  0  0  0  0
    5.8700    4.1270   18.8950 C   0  0  0  0  0  0  0  0  0  0  0  0
   10.0240    3.0930   21.6520 C   0  0  0  0  0  0  0  0  0  0  0  0
   15.9530    5.1610   21.5350 C   0  0  0  0  0  0  0  0  0  0  0  0
    7.6850    0.7760   16.6650 N   0  0  0  0  0  0  0  0  0  0  0  0
   16.7700    8.8430   21.7440 N   0  0  0  0  0  0  0  0  0  0  0  0
   16.9600    8.0440   19.4390 N   0  0  0  0  0  0  0  0  0  0  0  0
    8.2560    2.7130   19.8210 N   0  0  0  0  0  0  0  0  0  0  0  0
   10.3370    1.9920   19.5330 O   0  0  0  0  0  0  0  0  0  0  0  0
   14.6330    5.0800   21.0210 O   0  0  0  0  0  0  0  0  0  0  0  0
   14.3570    0.2870   22.8590 Cl  0  0  0  0  0  0  0  0  0  0  0  0
    4.9900    2.7600   16.6620 H   0  0  0  0  0  0  0  0  0  0  0  0
   11.9100    5.0070   20.9610 H   0  0  0  0  0  0  0  0  0  0  0  0
   11.5740    0.8830   22.4070 H   0  0  0  0  0  0  0  0  0  0  0  0
   15.3260    2.8340   22.2220 H   0  0  0  0  0  0  0  0  0  0  0  0
    6.1430    1.1800   15.3320 H   0  0  0  0  0  0  0  0  0  0  0  0
   16.1940    7.4040   23.1530 H   0  0  0  0  0  0  0  0  0  0  0  0
   16.8940    5.9790   19.1800 H   0  0  0  0  0  0  0  0  0  0  0  0
    8.9880    0.6360   18.2350 H   0  0  0  0  0  0  0  0  0  0  0  0
   18.6970   11.9830   20.7360 H   0  0  0  0  0  0  0  0  0  0  0  0
   17.7840   11.1210   22.1120 H   0  0  0  0  0  0  0  0  0  0  0  0
   15.6680   11.4900   21.0580 H   0  0  0  0  0  0  0  0  0  0  0  0
   16.4380   12.5130   19.6670 H   0  0  0  0  0  0  0  0  0  0  0  0
   17.8640   10.5280   19.0450 H   0  0  0  0  0  0  0  0  0  0  0  0
    5.0270    4.4410   18.2770 H   0  0  0  0  0  0  0  0  0  0  0  0
    5.4370    3.8830   19.8670 H   0  0  0  0  0  0  0  0  0  0  0  0
    6.6000    4.9410   18.9810 H   0  0  0  0  0  0  0  0  0  0  0  0
    9.6530    2.3750   22.3870 H   0  0  0  0  0  0  0  0  0  0  0  0
    9.6480    4.1170   21.8120 H   0  0  0  0  0  0  0  0  0  0  0  0
   16.6580    4.4580   21.0760 H   0  0  0  0  0  0  0  0  0  0  0  0
   15.9910    5.0150   22.6110 H   0  0  0  0  0  0  0  0  0  0  0  0
    7.6220    3.2330   20.4240 H   0  0  0  0  0  0  0  0  0  0  0  0
  5 34  1  0  0  0  0
  5 23  2  0  0  0  0
  1  5  1  0  0  0  0
  1 30  1  0  0  0  0
  8 23  1  0  0  0  0
  1  9  2  0  0  0  0
  8 37  1  0  0  0  0
  8 12  2  0  0  0  0
  9 12  1  0  0  0  0
  9 20  1  0  0  0  0
 20 43  1  0  0  0  0
 12 26  1  0  0  0  0
 20 45  1  0  0  0  0
 20 44  1  0  0  0  0
 19 42  1  0  0  0  0
  7 36  1  0  0  0  0
  7 25  2  0  0  0  0
 15 25  1  0  0  0  0
 16 27  2  0  0  0  0
 18 41  1  0  0  0  0
 16 26  1  0  0  0  0
 26 50  1  0  0  0  0
  7 11  1  0  0  0  0
 18 19  1  0  0  0  0
 15 19  1  0  0  0  0
 17 19  1  0  0  0  0
 16 21  1  0  0  0  0
 18 40  1  0  0  0  0
 17 18  1  0  0  0  0
 15 24  2  0  0  0  0
 17 38  1  0  0  0  0
  2 31  1  0  0  0  0
 13 28  1  0  0  0  0
 22 28  1  0  0  0  0
 17 39  1  0  0  0  0
 22 48  1  0  0  0  0
 11 22  1  0  0  0  0
  6 11  2  0  0  0  0
  2 13  2  0  0  0  0
  2 10  1  0  0  0  0
  4 13  1  0  0  0  0
 22 49  1  0  0  0  0
 10 21  1  0  0  0  0
 21 47  1  0  0  0  0
 21 46  1  0  0  0  0
  6 24  1  0  0  0  0
  3 10  2  0  0  0  0
  4 33  1  0  0  0  0
  4 14  2  0  0  0  0
  6 35  1  0  0  0  0
  3 14  1  0  0  0  0
  3 32  1  0  0  0  0
 14 29  1  0  0  0  0
M  END
> <CID>
EN300-382760

> <SMILES>
Cc1ccncc1NC(=O)Cc2cc(cc(c2)Cl)OCc3cnc(nc3)C4CC4

> <RUN>
RUN2654

> <DDG (kcal/mol)>
-0.13

> <dDDG (kcal/mol)>
0.13

$$$$
EN300-1897863
  -OEChem-08252008263D

 48 50  0     0  0  0  0  0  0999 V2000
    7.4760    0.1490   17.0700 C   0  0  0  0  0  0  0  0  0  0  0  0
   11.4400   -0.0420   23.3700 C   0  0  0  0  0  0  0  0  0  0  0  0
   12.4790   -1.5240   21.8180 C   0  0  0  0  0  0  0  0  0  0  0  0
   13.7990    0.2660   22.7180 C   0  0  0  0  0  0  0  0  0  0  0  0
   10.5960    4.8390   24.6200 C   0  0  0  0  0  0  0  0  0  0  0  0
    8.1560   -0.6440   16.2180 C   0  0  0  0  0  0  0  0  0  0  0  0
    9.3970   -1.5110   17.9050 C   0  0  0  0  0  0  0  0  0  0  0  0
    7.7070    0.1180   18.4590 C   0  0  0  0  0  0  0  0  0  0  0  0
   11.3300   -1.1260   22.4890 C   0  0  0  0  0  0  0  0  0  0  0  0
    8.7600   -0.7330   18.8840 C   0  0  0  0  0  0  0  0  0  0  0  0
   12.6590    0.7520   23.4130 C   0  0  0  0  0  0  0  0  0  0  0  0
   13.7130   -0.8680   21.8960 C   0  0  0  0  0  0  0  0  0  0  0  0
   10.8360    6.1640   24.3920 C   0  0  0  0  0  0  0  0  0  0  0  0
   11.5600    4.2040   23.9270 C   0  0  0  0  0  0  0  0  0  0  0  0
    9.5640   -1.9000   20.9270 C   0  0  0  0  0  0  0  0  0  0  0  0
    6.6820    0.8250   19.4000 C   0  0  0  0  0  0  0  0  0  0  0  0
   10.0270    7.2940   24.8900 C   0  0  0  0  0  0  0  0  0  0  0  0
   13.5190    4.7430   22.4980 C   0  0  0  0  0  0  0  0  0  0  0  0
    9.9560   -1.8470   22.3720 C   0  0  0  0  0  0  0  0  0  0  0  0
   11.4720    2.7370   23.8890 C   0  0  0  0  0  0  0  0  0  0  0  0
    9.1380   -1.4190   16.5490 N   0  0  0  0  0  0  0  0  0  0  0  0
   11.8980    6.3170   23.6110 N   0  0  0  0  0  0  0  0  0  0  0  0
   12.4060    5.0940   23.3650 N   0  0  0  0  0  0  0  0  0  0  0  0
    9.0080   -0.8210   20.2610 N   0  0  0  0  0  0  0  0  0  0  0  0
    9.6980   -2.9770   20.3590 O   0  0  0  0  0  0  0  0  0  0  0  0
   12.7290    1.9960   24.0320 O   0  0  0  0  0  0  0  0  0  0  0  0
   15.1380   -1.5900   21.1570 Cl  0  0  0  0  0  0  0  0  0  0  0  0
    6.6550    0.7750   16.7210 H   0  0  0  0  0  0  0  0  0  0  0  0
   10.5870    0.1990   24.0050 H   0  0  0  0  0  0  0  0  0  0  0  0
   12.4680   -2.4560   21.2680 H   0  0  0  0  0  0  0  0  0  0  0  0
   14.7310    0.7910   22.8600 H   0  0  0  0  0  0  0  0  0  0  0  0
    9.8210    4.4160   25.2670 H   0  0  0  0  0  0  0  0  0  0  0  0
    7.8840   -0.4990   15.1800 H   0  0  0  0  0  0  0  0  0  0  0  0
   10.2250   -2.1290   18.2050 H   0  0  0  0  0  0  0  0  0  0  0  0
    5.7680    1.1220   18.8940 H   0  0  0  0  0  0  0  0  0  0  0  0
    6.4740    0.2950   20.3430 H   0  0  0  0  0  0  0  0  0  0  0  0
    7.0810    1.8170   19.6180 H   0  0  0  0  0  0  0  0  0  0  0  0
   10.2680    8.2870   24.5070 H   0  0  0  0  0  0  0  0  0  0  0  0
    8.9560    7.0910   24.8770 H   0  0  0  0  0  0  0  0  0  0  0  0
   10.3650    7.5150   25.9100 H   0  0  0  0  0  0  0  0  0  0  0  0
   13.3650    5.0140   21.4480 H   0  0  0  0  0  0  0  0  0  0  0  0
   14.4110    5.3050   22.7710 H   0  0  0  0  0  0  0  0  0  0  0  0
   13.7090    3.6620   22.4710 H   0  0  0  0  0  0  0  0  0  0  0  0
   10.1590   -2.8710   22.7210 H   0  0  0  0  0  0  0  0  0  0  0  0
    9.2110   -1.5500   23.1150 H   0  0  0  0  0  0  0  0  0  0  0  0
   10.7750    2.4210   24.6700 H   0  0  0  0  0  0  0  0  0  0  0  0
   10.9760    2.3180   23.0150 H   0  0  0  0  0  0  0  0  0  0  0  0
    9.0500    0.0900   20.7110 H   0  0  0  0  0  0  0  0  0  0  0  0
  6 33  1  0  0  0  0
  6 21  2  0  0  0  0
  1  6  1  0  0  0  0
  7 21  1  0  0  0  0
  1 28  1  0  0  0  0
  1  8  2  0  0  0  0
  7 34  1  0  0  0  0
  7 10  2  0  0  0  0
  8 10  1  0  0  0  0
  8 16  1  0  0  0  0
 10 24  1  0  0  0  0
 16 35  1  0  0  0  0
 16 37  1  0  0  0  0
 16 36  1  0  0  0  0
 24 48  1  0  0  0  0
 15 24  1  0  0  0  0
 15 25  2  0  0  0  0
 15 19  1  0  0  0  0
 12 27  1  0  0  0  0
  3 30  1  0  0  0  0
 18 41  1  0  0  0  0
  3 12  2  0  0  0  0
  3  9  1  0  0  0  0
  4 12  1  0  0  0  0
  9 19  1  0  0  0  0
 19 44  1  0  0  0  0
 19 45  1  0  0  0  0
 18 43  1  0  0  0  0
  2  9  2  0  0  0  0
 18 42  1  0  0  0  0
 18 23  1  0  0  0  0
  4 31  1  0  0  0  0
  4 11  2  0  0  0  0
 20 47  1  0  0  0  0
 22 23  1  0  0  0  0
 14 23  1  0  0  0  0
  2 11  1  0  0  0  0
  2 29  1  0  0  0  0
 11 26  1  0  0  0  0
 13 22  2  0  0  0  0
 14 20  1  0  0  0  0
 20 26  1  0  0  0  0
 20 46  1  0  0  0  0
  5 14  2  0  0  0  0
  5 13  1  0  0  0  0
 13 17  1  0  0  0  0
 17 38  1  0  0  0  0
  5 32  1  0  0  0  0
 17 39  1  0  0  0  0
 17 40  1  0  0  0  0
M  END
> <CID>
EN300-1897863

> <SMILES>
Cc1ccncc1NC(=O)Cc2cc(cc(c2)Cl)OCc3cc(nn3C)C

> <RUN>
RUN956

> <DDG (kcal/mol)>
-0.13

> <dDDG (kcal/mol)>
0.12

$$$$
EN300-1908580
  -OEChem-08252008263D

 51 53  0     1  0  0  0  0  0999 V2000
   16.6800    6.9560   20.2160 C   0  0  0  0  0  0  0  0  0  0  0  0
   17.8090    7.2810   19.4490 C   0  0  0  0  0  0  0  0  0  0  0  0
    4.7200    1.5090   20.2420 C   0  0  0  0  0  0  0  0  0  0  0  0
   17.9770    5.2490   21.4450 C   0  0  0  0  0  0  0  0  0  0  0  0
   12.1180    2.6370   23.3310 C   0  0  0  0  0  0  0  0  0  0  0  0
   12.0680    0.3730   22.7120 C   0  0  0  0  0  0  0  0  0  0  0  0
   14.0700    1.6850   22.3680 C   0  0  0  0  0  0  0  0  0  0  0  0
    5.1640    0.9620   19.0310 C   0  0  0  0  0  0  0  0  0  0  0  0
    7.2370    0.5290   19.9070 C   0  0  0  0  0  0  0  0  0  0  0  0
   16.7830    5.9830   21.2530 C   0  0  0  0  0  0  0  0  0  0  0  0
    5.5330    1.4680   21.3990 C   0  0  0  0  0  0  0  0  0  0  0  0
   11.4210    1.4860   23.1620 C   0  0  0  0  0  0  0  0  0  0  0  0
   19.1230    5.4770   20.6260 C   0  0  0  0  0  0  0  0  0  0  0  0
    6.8340    1.0130   21.1650 C   0  0  0  0  0  0  0  0  0  0  0  0
   13.4050    2.8070   22.8890 C   0  0  0  0  0  0  0  0  0  0  0  0
   19.0060    6.5500   19.6220 C   0  0  0  0  0  0  0  0  0  0  0  0
   13.4060    0.4420   22.2820 C   0  0  0  0  0  0  0  0  0  0  0  0
    9.1080    1.4440   22.1580 C   0  0  0  0  0  0  0  0  0  0  0  0
    5.0630    2.0180   22.6880 C   0  0  0  0  0  0  0  0  0  0  0  0
    9.8970    1.4380   23.4180 C   0  0  0  0  0  0  0  0  0  0  0  0
   15.2330    4.3350   22.4620 C   0  0  0  0  0  0  0  0  0  0  0  0
   15.6770    5.7780   22.2740 C   0  0  1  0  0  0  0  0  0  0  0  0
    6.3880    0.4460   18.8710 N   0  0  0  0  0  0  0  0  0  0  0  0
    7.7230    1.1230   22.2210 N   0  0  0  0  0  0  0  0  0  0  0  0
   20.3540    4.7920   20.8090 N   0  0  0  0  0  0  0  0  0  0  0  0
    9.5810    1.6650   21.0690 O   0  0  0  0  0  0  0  0  0  0  0  0
   20.5190    4.2370   21.8720 O   0  0  0  0  0  0  0  0  0  0  0  0
   21.2780    4.7100   19.9290 O   0  0  0  0  0  0  0  0  0  0  0  0
   16.0970    6.3320   23.5550 O   0  0  0  0  0  0  0  0  0  0  0  0
   13.9380    4.1020   22.9660 O   0  0  0  0  0  0  0  0  0  0  0  0
   20.0650    6.9730   18.8900 F   0  0  0  0  0  0  0  0  0  0  0  0
   14.1950   -0.9470   21.6890 Cl  0  0  0  0  0  0  0  0  0  0  0  0
   15.7170    7.4450   20.1000 H   0  0  0  0  0  0  0  0  0  0  0  0
   17.7590    8.1260   18.7680 H   0  0  0  0  0  0  0  0  0  0  0  0
    3.6880    1.8360   20.2680 H   0  0  0  0  0  0  0  0  0  0  0  0
   17.9980    4.5440   22.2650 H   0  0  0  0  0  0  0  0  0  0  0  0
   11.7250    3.5050   23.8510 H   0  0  0  0  0  0  0  0  0  0  0  0
   11.4700   -0.5240   22.6210 H   0  0  0  0  0  0  0  0  0  0  0  0
   15.0930    1.7230   21.9850 H   0  0  0  0  0  0  0  0  0  0  0  0
    4.4700    0.8300   18.2110 H   0  0  0  0  0  0  0  0  0  0  0  0
    8.1540   -0.0570   19.9010 H   0  0  0  0  0  0  0  0  0  0  0  0
    4.7470    3.0520   22.5390 H   0  0  0  0  0  0  0  0  0  0  0  0
    4.2500    1.4040   23.0580 H   0  0  0  0  0  0  0  0  0  0  0  0
    5.9070    2.0290   23.3880 H   0  0  0  0  0  0  0  0  0  0  0  0
    9.7830    0.5100   23.9860 H   0  0  0  0  0  0  0  0  0  0  0  0
    9.4540    2.1720   24.0960 H   0  0  0  0  0  0  0  0  0  0  0  0
   15.1690    3.8090   21.5040 H   0  0  0  0  0  0  0  0  0  0  0  0
   15.8920    3.7550   23.1160 H   0  0  0  0  0  0  0  0  0  0  0  0
   14.7860    6.2870   21.9050 H   0  0  0  0  0  0  0  0  0  0  0  0
    7.3800    0.8730   23.1490 H   0  0  0  0  0  0  0  0  0  0  0  0
   15.4280    6.0840   24.2190 H   0  0  0  0  0  0  0  0  0  0  0  0
  8 40  1  0  0  0  0
  2 34  1  0  0  0  0
  8 23  2  0  0  0  0
  9 23  1  0  0  0  0
 16 31  1  0  0  0  0
  3  8  1  0  0  0  0
  2 16  2  0  0  0  0
  1  2  1  0  0  0  0
 13 16  1  0  0  0  0
  9 41  1  0  0  0  0
  9 14  2  0  0  0  0
 25 28  2  0  0  0  0
  1 33  1  0  0  0  0
  1 10  2  0  0  0  0
  3 35  1  0  0  0  0
  3 11  2  0  0  0  0
 13 25  1  0  0  0  0
  4 13  2  0  0  0  0
 25 27  2  0  0  0  0
 18 26  2  0  0  0  0
 11 14  1  0  0  0  0
 14 24  1  0  0  0  0
  4 10  1  0  0  0  0
 10 22  1  0  0  0  0
 11 19  1  0  0  0  0
  4 36  1  0  0  0  0
 21 47  1  0  0  0  0
 17 32  1  0  0  0  0
 22 49  1  0  0  0  0
  7 39  1  0  0  0  0
 18 24  1  0  0  0  0
 18 20  1  0  0  0  0
 24 50  1  0  0  0  0
 21 22  1  0  0  0  0
 22 29  1  0  0  0  0
  7 17  2  0  0  0  0
  6 17  1  0  0  0  0
  7 15  1  0  0  0  0
 21 30  1  0  0  0  0
 21 48  1  0  0  0  0
 19 42  1  0  0  0  0
  6 38  1  0  0  0  0
 19 43  1  0  0  0  0
 19 44  1  0  0  0  0
  6 12  2  0  0  0  0
 15 30  1  0  0  0  0
  5 15  2  0  0  0  0
  5 12  1  0  0  0  0
 12 20  1  0  0  0  0
  5 37  1  0  0  0  0
 20 45  1  0  0  0  0
 20 46  1  0  0  0  0
 29 51  1  0  0  0  0
M  END
> <CID>
EN300-1908580

> <SMILES>
Cc1ccncc1NC(=O)Cc2cc(cc(c2)Cl)OC[C@H](c3ccc(c(c3)N(=O)=O)F)O

> <RUN>
RUN3152

> <DDG (kcal/mol)>
-0.12

> <dDDG (kcal/mol)>
0.19

$$$$
EN300-1921979
  -OEChem-08252008263D

 51 54  0     1  0  0  0  0  0999 V2000
   10.4690   -3.2080   21.1700 C   0  0  0  0  0  0  0  0  0  0  0  0
   11.7540   -3.8030   21.2640 C   0  0  0  0  0  0  0  0  0  0  0  0
   10.2920   -1.7720   21.2210 C   0  0  0  0  0  0  0  0  0  0  0  0
   12.8650   -2.8680   21.5630 C   0  0  0  0  0  0  0  0  0  0  0  0
    4.7620    1.8310   17.3880 C   0  0  0  0  0  0  0  0  0  0  0  0
    8.6080    1.7280   23.7540 C   0  0  0  0  0  0  0  0  0  0  0  0
    8.0440   -0.4300   24.6430 C   0  0  0  0  0  0  0  0  0  0  0  0
   10.2530    0.5220   24.9320 C   0  0  0  0  0  0  0  0  0  0  0  0
    5.7960    1.2390   16.6950 C   0  0  0  0  0  0  0  0  0  0  0  0
    6.8310    0.7610   18.7890 C   0  0  0  0  0  0  0  0  0  0  0  0
    4.7040    1.8050   18.8060 C   0  0  0  0  0  0  0  0  0  0  0  0
    7.6430    0.7150   23.9000 C   0  0  0  0  0  0  0  0  0  0  0  0
   11.3420   -0.9830   21.6320 C   0  0  0  0  0  0  0  0  0  0  0  0
    5.7590    1.2230   19.5150 C   0  0  0  0  0  0  0  0  0  0  0  0
    9.8760    1.6740   24.2500 C   0  0  0  0  0  0  0  0  0  0  0  0
   12.5960   -1.5330   21.7520 C   0  0  0  0  0  0  0  0  0  0  0  0
    9.3760   -0.5210   25.1550 C   0  0  0  0  0  0  0  0  0  0  0  0
   12.4690    0.8180   22.0620 C   0  0  0  0  0  0  0  0  0  0  0  0
    6.4660    0.4460   21.7600 C   0  0  0  0  0  0  0  0  0  0  0  0
    3.5830    2.4260   19.4220 C   0  0  0  0  0  0  0  0  0  0  0  0
    6.3660    0.7400   23.2490 C   0  0  0  0  0  0  0  0  0  0  0  0
   12.2100    2.5080   23.8800 C   0  0  0  0  0  0  0  0  0  0  0  0
   12.6940    2.2310   22.4870 C   0  0  1  0  0  0  0  0  0  0  0  0
    6.8390    0.7360   17.4550 N   0  0  0  0  0  0  0  0  0  0  0  0
   11.2750    0.3450   21.7710 N   0  0  0  0  0  0  0  0  0  0  0  0
    5.7230    1.2090   20.8750 N   0  0  0  0  0  0  0  0  0  0  0  0
    7.1630   -0.5480   21.3960 O   0  0  0  0  0  0  0  0  0  0  0  0
   14.1280    2.5780   22.3900 O   0  0  0  0  0  0  0  0  0  0  0  0
   10.7860    2.7770   23.9850 O   0  0  0  0  0  0  0  0  0  0  0  0
   13.8400   -0.3610   22.0620 S   0  0  0  0  0  0  0  0  0  0  0  0
   10.0440   -1.9900   25.8800 Cl  0  0  0  0  0  0  0  0  0  0  0  0
    9.6620   -3.8850   20.9160 H   0  0  0  0  0  0  0  0  0  0  0  0
   11.9330   -4.8400   21.0020 H   0  0  0  0  0  0  0  0  0  0  0  0
    9.3560   -1.2930   20.9430 H   0  0  0  0  0  0  0  0  0  0  0  0
   13.8840   -3.1880   21.7410 H   0  0  0  0  0  0  0  0  0  0  0  0
    3.9590    2.2410   16.7900 H   0  0  0  0  0  0  0  0  0  0  0  0
    8.3240    2.5550   23.1120 H   0  0  0  0  0  0  0  0  0  0  0  0
    7.3670   -1.2550   24.8360 H   0  0  0  0  0  0  0  0  0  0  0  0
   11.2630    0.2420   25.2160 H   0  0  0  0  0  0  0  0  0  0  0  0
    5.7510    1.2760   15.6110 H   0  0  0  0  0  0  0  0  0  0  0  0
    7.6590    0.2380   19.2620 H   0  0  0  0  0  0  0  0  0  0  0  0
    2.9620    2.8900   18.6500 H   0  0  0  0  0  0  0  0  0  0  0  0
    3.1010    1.7850   20.1730 H   0  0  0  0  0  0  0  0  0  0  0  0
    3.9400    3.3110   19.9510 H   0  0  0  0  0  0  0  0  0  0  0  0
    5.7100   -0.0120   23.7120 H   0  0  0  0  0  0  0  0  0  0  0  0
    5.9160    1.7040   23.5000 H   0  0  0  0  0  0  0  0  0  0  0  0
   12.5580    1.6970   24.5340 H   0  0  0  0  0  0  0  0  0  0  0  0
   12.7330    3.3710   24.2960 H   0  0  0  0  0  0  0  0  0  0  0  0
   12.0890    2.8990   21.8620 H   0  0  0  0  0  0  0  0  0  0  0  0
    5.0420    1.7440   21.4120 H   0  0  0  0  0  0  0  0  0  0  0  0
   14.5700    2.5030   23.2510 H   0  0  0  0  0  0  0  0  0  0  0  0
  9 40  1  0  0  0  0
  5  9  2  0  0  0  0
  9 24  1  0  0  0  0
  5 36  1  0  0  0  0
  5 11  1  0  0  0  0
 10 24  2  0  0  0  0
 20 42  1  0  0  0  0
 10 41  1  0  0  0  0
 10 14  1  0  0  0  0
 11 20  1  0  0  0  0
 11 14  2  0  0  0  0
 20 44  1  0  0  0  0
 20 43  1  0  0  0  0
 14 26  1  0  0  0  0
 26 50  1  0  0  0  0
 19 26  1  0  0  0  0
  1 32  1  0  0  0  0
  3 34  1  0  0  0  0
  2 33  1  0  0  0  0
  1  3  2  0  0  0  0
  1  2  1  0  0  0  0
  3 13  1  0  0  0  0
  2  4  2  0  0  0  0
 19 27  2  0  0  0  0
  4 35  1  0  0  0  0
  4 16  1  0  0  0  0
 13 16  2  0  0  0  0
 13 25  1  0  0  0  0
 16 30  1  0  0  0  0
 19 21  1  0  0  0  0
 18 25  2  0  0  0  0
 23 49  1  0  0  0  0
 18 30  1  0  0  0  0
 18 23  1  0  0  0  0
 23 28  1  0  0  0  0
 28 51  1  0  0  0  0
 22 23  1  0  0  0  0
  6 37  1  0  0  0  0
 21 46  1  0  0  0  0
 21 45  1  0  0  0  0
 12 21  1  0  0  0  0
  6 12  2  0  0  0  0
  6 15  1  0  0  0  0
 22 29  1  0  0  0  0
 22 48  1  0  0  0  0
 22 47  1  0  0  0  0
  7 12  1  0  0  0  0
 15 29  1  0  0  0  0
  8 15  2  0  0  0  0
  7 38  1  0  0  0  0
  7 17  2  0  0  0  0
  8 17  1  0  0  0  0
  8 39  1  0  0  0  0
 17 31  1  0  0  0  0
M  END
> <CID>
EN300-1921979

> <SMILES>
Cc1ccncc1NC(=O)Cc2cc(cc(c2)Cl)OC[C@H](c3nc4ccccc4s3)O

> <RUN>
RUN3104

> <DDG (kcal/mol)>
-0.12

> <dDDG (kcal/mol)>
0.22

$$$$
EN300-1904938
  -OEChem-08252008263D

 51 53  0     0  0  0  0  0  0999 V2000
    6.8880    2.3270   19.6900 C   0  0  0  0  0  0  0  0  0  0  0  0
   10.2200   -2.1240   23.7150 C   0  0  0  0  0  0  0  0  0  0  0  0
   11.5980   -2.1490   21.7410 C   0  0  0  0  0  0  0  0  0  0  0  0
   10.1220   -1.1130   27.8410 C   0  0  0  0  0  0  0  0  0  0  0  0
   12.5230   -1.2540   23.8590 C   0  0  0  0  0  0  0  0  0  0  0  0
    6.7730    2.0420   18.3610 C   0  0  0  0  0  0  0  0  0  0  0  0
    7.5960   -0.1430   18.7150 C   0  0  0  0  0  0  0  0  0  0  0  0
    7.3530    1.3590   20.6210 C   0  0  0  0  0  0  0  0  0  0  0  0
   10.4740   -2.4560   22.3890 C   0  0  0  0  0  0  0  0  0  0  0  0
    9.3220   -2.1010   28.6090 C   0  0  0  0  0  0  0  0  0  0  0  0
    7.6730    0.1160   20.1150 C   0  0  0  0  0  0  0  0  0  0  0  0
   11.3000   -1.5510   24.4890 C   0  0  0  0  0  0  0  0  0  0  0  0
   12.6690   -1.5050   22.4440 C   0  0  0  0  0  0  0  0  0  0  0  0
    9.1520   -3.1400   27.7600 C   0  0  0  0  0  0  0  0  0  0  0  0
   10.3390   -1.6830   26.6340 C   0  0  0  0  0  0  0  0  0  0  0  0
    8.5260   -2.1940   20.7050 C   0  0  0  0  0  0  0  0  0  0  0  0
    7.5700    1.8330   22.0880 C   0  0  0  0  0  0  0  0  0  0  0  0
    8.8010   -1.8650   30.0400 C   0  0  0  0  0  0  0  0  0  0  0  0
    9.3540   -3.1200   21.6610 C   0  0  0  0  0  0  0  0  0  0  0  0
    8.3150   -4.3240   27.9860 C   0  0  0  0  0  0  0  0  0  0  0  0
    9.1120   -5.6610   27.9290 C   0  0  0  0  0  0  0  0  0  0  0  0
    8.1050   -6.8590   28.0120 C   0  0  0  0  0  0  0  0  0  0  0  0
    7.1350    0.8560   17.8710 N   0  0  0  0  0  0  0  0  0  0  0  0
    8.3010   -0.8320   20.9220 N   0  0  0  0  0  0  0  0  0  0  0  0
    7.7970   -2.7330   19.8660 O   0  0  0  0  0  0  0  0  0  0  0  0
    9.7980   -2.8720   26.5680 O   0  0  0  0  0  0  0  0  0  0  0  0
   11.1020   -0.9710   25.7230 O   0  0  0  0  0  0  0  0  0  0  0  0
   14.1120   -1.0930   21.6900 Cl  0  0  0  0  0  0  0  0  0  0  0  0
    7.6990   -7.3460   29.8580 Br  0  0  0  0  0  0  0  0  0  0  0  0
    6.5630    3.2950   20.0460 H   0  0  0  0  0  0  0  0  0  0  0  0
    9.2450   -2.0750   24.2050 H   0  0  0  0  0  0  0  0  0  0  0  0
   11.5880   -2.4520   20.6970 H   0  0  0  0  0  0  0  0  0  0  0  0
   10.6120   -0.1990   28.1500 H   0  0  0  0  0  0  0  0  0  0  0  0
   13.3460   -0.8610   24.4280 H   0  0  0  0  0  0  0  0  0  0  0  0
    6.3470    2.8650   17.7990 H   0  0  0  0  0  0  0  0  0  0  0  0
    7.8940   -1.0750   18.2400 H   0  0  0  0  0  0  0  0  0  0  0  0
    7.6730    0.9930   22.7790 H   0  0  0  0  0  0  0  0  0  0  0  0
    8.5260    2.3600   22.1620 H   0  0  0  0  0  0  0  0  0  0  0  0
    6.8430    2.5930   22.3830 H   0  0  0  0  0  0  0  0  0  0  0  0
    9.5220   -1.2410   30.5780 H   0  0  0  0  0  0  0  0  0  0  0  0
    7.8120   -1.4010   29.9870 H   0  0  0  0  0  0  0  0  0  0  0  0
    8.8080   -2.8160   30.5810 H   0  0  0  0  0  0  0  0  0  0  0  0
    9.7870   -4.0010   21.1790 H   0  0  0  0  0  0  0  0  0  0  0  0
    8.6670   -3.5250   22.4080 H   0  0  0  0  0  0  0  0  0  0  0  0
    7.8120   -4.2720   28.9500 H   0  0  0  0  0  0  0  0  0  0  0  0
    7.5450   -4.2040   27.2220 H   0  0  0  0  0  0  0  0  0  0  0  0
    9.5360   -5.5980   26.9250 H   0  0  0  0  0  0  0  0  0  0  0  0
    9.8460   -5.8250   28.7260 H   0  0  0  0  0  0  0  0  0  0  0  0
    8.6190   -7.7080   27.5510 H   0  0  0  0  0  0  0  0  0  0  0  0
    7.1810   -6.6820   27.4470 H   0  0  0  0  0  0  0  0  0  0  0  0
    8.8080   -0.3860   21.6900 H   0  0  0  0  0  0  0  0  0  0  0  0
  6 35  1  0  0  0  0
  6 23  2  0  0  0  0
  7 23  1  0  0  0  0
  7 36  1  0  0  0  0
  1  6  1  0  0  0  0
  7 11  2  0  0  0  0
  1 30  1  0  0  0  0
  1  8  2  0  0  0  0
 16 25  2  0  0  0  0
  8 11  1  0  0  0  0
 11 24  1  0  0  0  0
  8 17  1  0  0  0  0
  3 32  1  0  0  0  0
 16 24  1  0  0  0  0
 16 19  1  0  0  0  0
 24 51  1  0  0  0  0
 19 43  1  0  0  0  0
  9 19  1  0  0  0  0
 19 44  1  0  0  0  0
 13 28  1  0  0  0  0
  3  9  2  0  0  0  0
  3 13  1  0  0  0  0
 17 38  1  0  0  0  0
 17 39  1  0  0  0  0
 17 37  1  0  0  0  0
  2  9  1  0  0  0  0
  5 13  2  0  0  0  0
  2 31  1  0  0  0  0
  2 12  2  0  0  0  0
  5 34  1  0  0  0  0
  5 12  1  0  0  0  0
 12 27  1  0  0  0  0
 15 27  1  0  0  0  0
 15 26  1  0  0  0  0
 14 26  1  0  0  0  0
  4 15  2  0  0  0  0
 21 47  1  0  0  0  0
 20 46  1  0  0  0  0
 22 50  1  0  0  0  0
 22 49  1  0  0  0  0
 14 20  1  0  0  0  0
 10 14  2  0  0  0  0
  4 33  1  0  0  0  0
  4 10  1  0  0  0  0
 20 21  1  0  0  0  0
 21 22  1  0  0  0  0
 21 48  1  0  0  0  0
 20 45  1  0  0  0  0
 22 29  1  0  0  0  0
 10 18  1  0  0  0  0
 18 41  1  0  0  0  0
 18 40  1  0  0  0  0
 18 42  1  0  0  0  0
M  END
> <CID>
EN300-1904938

> <SMILES>
Cc1ccncc1NC(=O)Cc2cc(cc(c2)Cl)Oc3cc(c(o3)CCCBr)C

> <RUN>
RUN373

> <DDG (kcal/mol)>
-0.12

> <dDDG (kcal/mol)>
0.12

$$$$
EN300-7493972
  -OEChem-08252008263D

 51 54  0     0  0  0  0  0  0999 V2000
   15.4260    9.1910   29.8460 C   0  0  0  0  0  0  0  0  0  0  0  0
   14.5660    8.8790   28.8370 C   0  0  0  0  0  0  0  0  0  0  0  0
   15.9570    8.2150   30.6700 C   0  0  0  0  0  0  0  0  0  0  0  0
    5.5460    2.0380   18.8800 C   0  0  0  0  0  0  0  0  0  0  0  0
   11.5150    2.2740   23.8490 C   0  0  0  0  0  0  0  0  0  0  0  0
   12.3320    0.3530   22.5200 C   0  0  0  0  0  0  0  0  0  0  0  0
   14.6200    6.5450   29.6460 C   0  0  0  0  0  0  0  0  0  0  0  0
   13.8450    1.9920   23.2940 C   0  0  0  0  0  0  0  0  0  0  0  0
    6.1840    1.5630   17.7270 C   0  0  0  0  0  0  0  0  0  0  0  0
    7.8680    0.7650   18.9690 C   0  0  0  0  0  0  0  0  0  0  0  0
   12.6450    7.2250   25.6150 C   0  0  0  0  0  0  0  0  0  0  0  0
    6.0230    1.8200   20.1060 C   0  0  0  0  0  0  0  0  0  0  0  0
   11.2480    1.0490   23.1380 C   0  0  0  0  0  0  0  0  0  0  0  0
   14.1590    7.5350   28.6870 C   0  0  0  0  0  0  0  0  0  0  0  0
    7.2190    1.0930   20.2130 C   0  0  0  0  0  0  0  0  0  0  0  0
   12.8240    2.7330   23.9750 C   0  0  0  0  0  0  0  0  0  0  0  0
   13.6240    0.8390   22.5820 C   0  0  0  0  0  0  0  0  0  0  0  0
   15.6230    6.8520   30.5680 C   0  0  0  0  0  0  0  0  0  0  0  0
   12.7050    5.8850   26.0250 C   0  0  0  0  0  0  0  0  0  0  0  0
    9.1660    1.0580   21.7940 C   0  0  0  0  0  0  0  0  0  0  0  0
    5.2650    2.4220   21.3720 C   0  0  0  0  0  0  0  0  0  0  0  0
    9.8260    0.5180   23.0850 C   0  0  0  0  0  0  0  0  0  0  0  0
   12.2050    4.5960   25.3820 C   0  0  0  0  0  0  0  0  0  0  0  0
    7.3060    0.8900   17.7930 N   0  0  0  0  0  0  0  0  0  0  0  0
   13.0980    7.9770   26.5430 N   0  0  0  0  0  0  0  0  0  0  0  0
   13.1770    5.8550   27.2570 N   0  0  0  0  0  0  0  0  0  0  0  0
   13.4120    7.0940   27.5880 N   0  0  0  0  0  0  0  0  0  0  0  0
    7.8510    0.9070   21.5370 N   0  0  0  0  0  0  0  0  0  0  0  0
    9.8040    1.7630   21.0540 O   0  0  0  0  0  0  0  0  0  0  0  0
   13.2540    3.7800   24.8380 O   0  0  0  0  0  0  0  0  0  0  0  0
   14.9000   -0.0120   21.7610 Cl  0  0  0  0  0  0  0  0  0  0  0  0
   16.4890    5.6690   31.7610 Br  0  0  0  0  0  0  0  0  0  0  0  0
   15.7710   10.1860   30.0770 H   0  0  0  0  0  0  0  0  0  0  0  0
   14.2960    9.6570   28.1310 H   0  0  0  0  0  0  0  0  0  0  0  0
   16.7160    8.5120   31.3770 H   0  0  0  0  0  0  0  0  0  0  0  0
    4.7410    2.7660   18.8240 H   0  0  0  0  0  0  0  0  0  0  0  0
   10.6730    2.6770   24.4020 H   0  0  0  0  0  0  0  0  0  0  0  0
   12.0090   -0.5490   22.0030 H   0  0  0  0  0  0  0  0  0  0  0  0
   14.1880    5.5580   29.5590 H   0  0  0  0  0  0  0  0  0  0  0  0
   14.8760    2.3300   23.3220 H   0  0  0  0  0  0  0  0  0  0  0  0
    5.7570    1.9420   16.8020 H   0  0  0  0  0  0  0  0  0  0  0  0
    8.8500    0.3130   19.0750 H   0  0  0  0  0  0  0  0  0  0  0  0
   12.3150    7.5510   24.6400 H   0  0  0  0  0  0  0  0  0  0  0  0
    5.1750    3.5200   21.2860 H   0  0  0  0  0  0  0  0  0  0  0  0
    4.2430    2.0350   21.3210 H   0  0  0  0  0  0  0  0  0  0  0  0
    5.6780    2.0650   22.3150 H   0  0  0  0  0  0  0  0  0  0  0  0
    9.8350   -0.5710   22.9420 H   0  0  0  0  0  0  0  0  0  0  0  0
    9.2660    0.7770   23.9830 H   0  0  0  0  0  0  0  0  0  0  0  0
   11.6360    4.0900   26.1700 H   0  0  0  0  0  0  0  0  0  0  0  0
   11.5170    4.8230   24.5610 H   0  0  0  0  0  0  0  0  0  0  0  0
    7.2000    0.6260   22.2650 H   0  0  0  0  0  0  0  0  0  0  0  0
  9 41  1  0  0  0  0
  9 24  2  0  0  0  0
  4  9  1  0  0  0  0
 10 24  1  0  0  0  0
  4 36  1  0  0  0  0
  4 12  2  0  0  0  0
 10 42  1  0  0  0  0
 10 15  2  0  0  0  0
 12 15  1  0  0  0  0
 12 21  1  0  0  0  0
 15 28  1  0  0  0  0
 20 29  2  0  0  0  0
 21 44  1  0  0  0  0
 21 45  1  0  0  0  0
 21 46  1  0  0  0  0
 20 28  1  0  0  0  0
 28 51  1  0  0  0  0
 17 31  1  0  0  0  0
 20 22  1  0  0  0  0
  6 38  1  0  0  0  0
  6 17  2  0  0  0  0
  6 13  1  0  0  0  0
  8 17  1  0  0  0  0
 22 47  1  0  0  0  0
 13 22  1  0  0  0  0
 22 48  1  0  0  0  0
  5 13  2  0  0  0  0
  8 40  1  0  0  0  0
  8 16  2  0  0  0  0
  5 16  1  0  0  0  0
  5 37  1  0  0  0  0
 16 30  1  0  0  0  0
 23 50  1  0  0  0  0
 11 43  1  0  0  0  0
 23 30  1  0  0  0  0
 19 23  1  0  0  0  0
 23 49  1  0  0  0  0
 11 19  1  0  0  0  0
 11 25  2  0  0  0  0
 19 26  2  0  0  0  0
 25 27  1  0  0  0  0
 26 27  1  0  0  0  0
 14 27  1  0  0  0  0
  2 34  1  0  0  0  0
  2 14  2  0  0  0  0
  7 14  1  0  0  0  0
  1  2  1  0  0  0  0
  7 39  1  0  0  0  0
  7 18  2  0  0  0  0
  1 33  1  0  0  0  0
  1  3  2  0  0  0  0
  3 18  1  0  0  0  0
 18 32  1  0  0  0  0
  3 35  1  0  0  0  0
M  END
> <CID>
EN300-7493972

> <SMILES>
Cc1ccncc1NC(=O)Cc2cc(cc(c2)Cl)OCc3cnn(n3)c4cccc(c4)Br

> <RUN>
RUN1316

> <DDG (kcal/mol)>
-0.11

> <dDDG (kcal/mol)>
0.14

$$$$
EN300-138681
  -OEChem-08252008263D

 51 53  0     0  0  0  0  0  0999 V2000
    6.0310    2.5070   21.2070 C   0  0  0  0  0  0  0  0  0  0  0  0
   10.3590   -0.2390   24.0880 C   0  0  0  0  0  0  0  0  0  0  0  0
   12.1950    4.6960   25.8060 C   0  0  0  0  0  0  0  0  0  0  0  0
   11.2810   -2.0540   22.6870 C   0  0  0  0  0  0  0  0  0  0  0  0
   11.8280    6.3460   23.5440 C   0  0  0  0  0  0  0  0  0  0  0  0
   12.5380    0.1040   22.9900 C   0  0  0  0  0  0  0  0  0  0  0  0
    5.2070    1.8820   20.2820 C   0  0  0  0  0  0  0  0  0  0  0  0
    6.1290   -0.1890   20.5900 C   0  0  0  0  0  0  0  0  0  0  0  0
    6.9650    1.7460   21.8900 C   0  0  0  0  0  0  0  0  0  0  0  0
   10.2010   -1.5210   23.4800 C   0  0  0  0  0  0  0  0  0  0  0  0
   12.2810    4.0870   24.4900 C   0  0  0  0  0  0  0  0  0  0  0  0
   12.0840    4.9790   23.3760 C   0  0  0  0  0  0  0  0  0  0  0  0
    6.9720    0.3300   21.6770 C   0  0  0  0  0  0  0  0  0  0  0  0
   11.4530    0.6400   23.7640 C   0  0  0  0  0  0  0  0  0  0  0  0
   11.9250    6.0730   25.9690 C   0  0  0  0  0  0  0  0  0  0  0  0
   11.7880    6.9030   24.8380 C   0  0  0  0  0  0  0  0  0  0  0  0
   12.3800   -1.2060   22.4080 C   0  0  0  0  0  0  0  0  0  0  0  0
    7.8490   -1.8450   22.6440 C   0  0  0  0  0  0  0  0  0  0  0  0
    7.9110    2.3920   22.8740 C   0  0  0  0  0  0  0  0  0  0  0  0
   11.2010    5.7730   28.1960 C   0  0  0  0  0  0  0  0  0  0  0  0
    8.9350   -2.3270   23.5780 C   0  0  0  0  0  0  0  0  0  0  0  0
   12.6400    2.6750   24.4350 C   0  0  0  0  0  0  0  0  0  0  0  0
    5.2560    0.5880   19.9160 N   0  0  0  0  0  0  0  0  0  0  0  0
    7.8530   -0.5160   22.3870 N   0  0  0  0  0  0  0  0  0  0  0  0
   12.3860    4.5340   22.0830 N   0  0  0  0  0  0  0  0  0  0  0  0
    7.1790   -2.6370   21.9850 O   0  0  0  0  0  0  0  0  0  0  0  0
   11.4650    4.6300   21.2950 O   0  0  0  0  0  0  0  0  0  0  0  0
   13.5400    4.0670   21.8520 O   0  0  0  0  0  0  0  0  0  0  0  0
   11.7180    6.6070   27.2350 O   0  0  0  0  0  0  0  0  0  0  0  0
   11.4220    1.9360   24.2200 O   0  0  0  0  0  0  0  0  0  0  0  0
   11.7260    8.2380   24.9740 F   0  0  0  0  0  0  0  0  0  0  0  0
   13.5840   -1.9280   21.4220 Cl  0  0  0  0  0  0  0  0  0  0  0  0
    5.8030    3.5300   21.4980 H   0  0  0  0  0  0  0  0  0  0  0  0
    9.6290    0.1000   24.8220 H   0  0  0  0  0  0  0  0  0  0  0  0
   12.3590    4.0820   26.6800 H   0  0  0  0  0  0  0  0  0  0  0  0
   11.3890   -3.0260   22.2050 H   0  0  0  0  0  0  0  0  0  0  0  0
   11.8650    7.0460   22.7120 H   0  0  0  0  0  0  0  0  0  0  0  0
   13.4130    0.6770   22.7190 H   0  0  0  0  0  0  0  0  0  0  0  0
    4.4910    2.4930   19.7370 H   0  0  0  0  0  0  0  0  0  0  0  0
    6.1960   -1.2210   20.2620 H   0  0  0  0  0  0  0  0  0  0  0  0
    7.5300    2.2720   23.8930 H   0  0  0  0  0  0  0  0  0  0  0  0
    8.9140    1.9840   22.7630 H   0  0  0  0  0  0  0  0  0  0  0  0
    8.1060    3.4400   22.6290 H   0  0  0  0  0  0  0  0  0  0  0  0
   10.7810    6.3260   29.0460 H   0  0  0  0  0  0  0  0  0  0  0  0
   11.9760    5.1630   28.6750 H   0  0  0  0  0  0  0  0  0  0  0  0
   10.4090    5.1950   27.7130 H   0  0  0  0  0  0  0  0  0  0  0  0
    9.1120   -3.3830   23.3650 H   0  0  0  0  0  0  0  0  0  0  0  0
    8.5920   -2.3350   24.6210 H   0  0  0  0  0  0  0  0  0  0  0  0
   13.3210    2.5010   23.5890 H   0  0  0  0  0  0  0  0  0  0  0  0
   13.2390    2.3430   25.2840 H   0  0  0  0  0  0  0  0  0  0  0  0
    8.5750   -0.0010   22.8840 H   0  0  0  0  0  0  0  0  0  0  0  0
  7 39  1  0  0  0  0
  7 23  2  0  0  0  0
  8 23  1  0  0  0  0
  8 40  1  0  0  0  0
  1  7  1  0  0  0  0
  8 13  2  0  0  0  0
  1 33  1  0  0  0  0
  1  9  2  0  0  0  0
 25 27  2  0  0  0  0
 17 32  1  0  0  0  0
  9 13  1  0  0  0  0
 13 24  1  0  0  0  0
 25 28  2  0  0  0  0
  9 19  1  0  0  0  0
 18 26  2  0  0  0  0
 12 25  1  0  0  0  0
  4 36  1  0  0  0  0
 18 24  1  0  0  0  0
 24 51  1  0  0  0  0
  4 17  2  0  0  0  0
  6 17  1  0  0  0  0
 19 43  1  0  0  0  0
 18 21  1  0  0  0  0
  4 10  1  0  0  0  0
  5 37  1  0  0  0  0
  6 38  1  0  0  0  0
 19 42  1  0  0  0  0
 19 41  1  0  0  0  0
  6 14  2  0  0  0  0
 21 47  1  0  0  0  0
  5 12  2  0  0  0  0
 11 12  1  0  0  0  0
 10 21  1  0  0  0  0
  2 10  2  0  0  0  0
  5 16  1  0  0  0  0
 21 48  1  0  0  0  0
 22 49  1  0  0  0  0
  2 14  1  0  0  0  0
 14 30  1  0  0  0  0
  2 34  1  0  0  0  0
 22 30  1  0  0  0  0
 11 22  1  0  0  0  0
 22 50  1  0  0  0  0
  3 11  2  0  0  0  0
 16 31  1  0  0  0  0
 15 16  2  0  0  0  0
  3 15  1  0  0  0  0
  3 35  1  0  0  0  0
 15 29  1  0  0  0  0
 20 29  1  0  0  0  0
 20 46  1  0  0  0  0
 20 45  1  0  0  0  0
 20 44  1  0  0  0  0
M  END
> <CID>
EN300-138681

> <SMILES>
Cc1ccncc1NC(=O)Cc2cc(cc(c2)Cl)OCc3cc(c(cc3N(=O)=O)F)OC

> <RUN>
RUN4536

> <DDG (kcal/mol)>
-0.11

> <dDDG (kcal/mol)>
0.28

$$$$
EN300-1934062
  -OEChem-08252008263D

 51 53  0     0  0  0  0  0  0999 V2000
    4.9570    1.2440   19.4970 C   0  0  0  0  0  0  0  0  0  0  0  0
   12.1450    2.4390   23.2930 C   0  0  0  0  0  0  0  0  0  0  0  0
   12.0140    0.2600   22.2320 C   0  0  0  0  0  0  0  0  0  0  0  0
   13.4380    9.3440   23.4560 C   0  0  0  0  0  0  0  0  0  0  0  0
   11.8200    8.6990   25.1500 C   0  0  0  0  0  0  0  0  0  0  0  0
   14.0440    1.6160   22.1090 C   0  0  0  0  0  0  0  0  0  0  0  0
    5.6770    0.8850   18.3380 C   0  0  0  0  0  0  0  0  0  0  0  0
    7.6240    0.6660   19.5010 C   0  0  0  0  0  0  0  0  0  0  0  0
    5.6560    1.3680   20.6620 C   0  0  0  0  0  0  0  0  0  0  0  0
   11.3560    1.3250   22.9270 C   0  0  0  0  0  0  0  0  0  0  0  0
   12.5910    7.1110   23.4790 C   0  0  0  0  0  0  0  0  0  0  0  0
    7.0430    1.0970   20.6840 C   0  0  0  0  0  0  0  0  0  0  0  0
   13.4920    2.5900   22.8750 C   0  0  0  0  0  0  0  0  0  0  0  0
   12.6860    9.6670   24.6320 C   0  0  0  0  0  0  0  0  0  0  0  0
   13.3720    8.0960   22.8630 C   0  0  0  0  0  0  0  0  0  0  0  0
   11.8360    7.3910   24.5910 C   0  0  0  0  0  0  0  0  0  0  0  0
   13.2970    0.4080   21.8310 C   0  0  0  0  0  0  0  0  0  0  0  0
    9.0270    1.6440   21.8390 C   0  0  0  0  0  0  0  0  0  0  0  0
    4.8500    1.7090   21.8700 C   0  0  0  0  0  0  0  0  0  0  0  0
    9.8110    1.2450   23.0650 C   0  0  0  0  0  0  0  0  0  0  0  0
   12.6600    5.6780   22.9300 C   0  0  0  0  0  0  0  0  0  0  0  0
   13.6800    4.8610   23.8290 C   0  0  0  0  0  0  0  0  0  0  0  0
    6.9400    0.5430   18.3770 N   0  0  0  0  0  0  0  0  0  0  0  0
    7.7720    1.2010   21.8450 N   0  0  0  0  0  0  0  0  0  0  0  0
    9.4540    2.3970   20.9760 O   0  0  0  0  0  0  0  0  0  0  0  0
   12.9150   10.9000   25.2270 O   0  0  0  0  0  0  0  0  0  0  0  0
   14.1650    7.8500   21.7470 O   0  0  0  0  0  0  0  0  0  0  0  0
   10.9740    6.4840   25.0870 O   0  0  0  0  0  0  0  0  0  0  0  0
   14.2960    3.7340   23.1430 O   0  0  0  0  0  0  0  0  0  0  0  0
   13.9890   -0.9030   20.8210 Cl  0  0  0  0  0  0  0  0  0  0  0  0
    3.9100    1.4770   19.3300 H   0  0  0  0  0  0  0  0  0  0  0  0
   11.6770    3.1290   23.9780 H   0  0  0  0  0  0  0  0  0  0  0  0
   11.5180   -0.6600   21.9500 H   0  0  0  0  0  0  0  0  0  0  0  0
   13.9200   10.1970   22.9750 H   0  0  0  0  0  0  0  0  0  0  0  0
   11.2360    8.8870   26.0470 H   0  0  0  0  0  0  0  0  0  0  0  0
   15.0350    1.6960   21.6670 H   0  0  0  0  0  0  0  0  0  0  0  0
    5.1140    0.7610   17.4190 H   0  0  0  0  0  0  0  0  0  0  0  0
    8.5790    0.1690   19.5120 H   0  0  0  0  0  0  0  0  0  0  0  0
    5.2260    1.0560   22.6620 H   0  0  0  0  0  0  0  0  0  0  0  0
    5.0710    2.7090   22.2310 H   0  0  0  0  0  0  0  0  0  0  0  0
    3.7690    1.5850   21.7250 H   0  0  0  0  0  0  0  0  0  0  0  0
    9.4830    0.2840   23.4750 H   0  0  0  0  0  0  0  0  0  0  0  0
    9.5250    1.8940   23.8990 H   0  0  0  0  0  0  0  0  0  0  0  0
   11.6380    5.2890   22.8420 H   0  0  0  0  0  0  0  0  0  0  0  0
   13.0640    5.6060   21.9080 H   0  0  0  0  0  0  0  0  0  0  0  0
   14.4320    5.6250   24.0730 H   0  0  0  0  0  0  0  0  0  0  0  0
   13.2430    4.6130   24.7990 H   0  0  0  0  0  0  0  0  0  0  0  0
    7.3440    0.9350   22.7330 H   0  0  0  0  0  0  0  0  0  0  0  0
   12.0920   11.0800   25.7100 H   0  0  0  0  0  0  0  0  0  0  0  0
   14.5650    8.6790   21.4340 H   0  0  0  0  0  0  0  0  0  0  0  0
   10.6250    6.7130   25.9680 H   0  0  0  0  0  0  0  0  0  0  0  0
  7 37  1  0  0  0  0
  7 23  2  0  0  0  0
  1  7  1  0  0  0  0
  8 23  1  0  0  0  0
  1 31  1  0  0  0  0
  1  9  2  0  0  0  0
  8 38  1  0  0  0  0
  8 12  2  0  0  0  0
  9 12  1  0  0  0  0
  9 19  1  0  0  0  0
 12 24  1  0  0  0  0
 17 30  1  0  0  0  0
 18 25  2  0  0  0  0
 27 50  1  0  0  0  0
  6 36  1  0  0  0  0
 19 41  1  0  0  0  0
 15 27  1  0  0  0  0
  6 17  2  0  0  0  0
  3 17  1  0  0  0  0
 18 24  1  0  0  0  0
 18 20  1  0  0  0  0
 24 48  1  0  0  0  0
 19 40  1  0  0  0  0
 19 39  1  0  0  0  0
 21 45  1  0  0  0  0
  3 33  1  0  0  0  0
  6 13  1  0  0  0  0
  3 10  2  0  0  0  0
 21 44  1  0  0  0  0
  4 15  2  0  0  0  0
 11 15  1  0  0  0  0
 13 29  1  0  0  0  0
  2 13  2  0  0  0  0
 10 20  1  0  0  0  0
  2 10  1  0  0  0  0
 11 21  1  0  0  0  0
 21 22  1  0  0  0  0
  4 34  1  0  0  0  0
 20 42  1  0  0  0  0
 20 43  1  0  0  0  0
 22 29  1  0  0  0  0
  2 32  1  0  0  0  0
  4 14  1  0  0  0  0
 11 16  2  0  0  0  0
 22 46  1  0  0  0  0
 22 47  1  0  0  0  0
 16 28  1  0  0  0  0
  5 16  1  0  0  0  0
  5 14  2  0  0  0  0
 14 26  1  0  0  0  0
 28 51  1  0  0  0  0
  5 35  1  0  0  0  0
 26 49  1  0  0  0  0
M  END
> <CID>
EN300-1934062

> <SMILES>
Cc1ccncc1NC(=O)Cc2cc(cc(c2)Cl)OCCc3c(cc(cc3O)O)O

> <RUN>
RUN2850

> <DDG (kcal/mol)>
-0.11

> <dDDG (kcal/mol)>
0.13

$$$$
EN300-1917568
  -OEChem-08252008263D

 55 58  0     1  0  0  0  0  0999 V2000
   14.6650   -0.5890   26.3930 C   0  0  0  0  0  0  0  0  0  0  0  0
   15.0700   -1.6570   27.0150 C   0  0  0  0  0  0  0  0  0  0  0  0
    6.1260    2.6640   19.6640 C   0  0  0  0  0  0  0  0  0  0  0  0
   12.4820   -0.7590   27.3030 C   0  0  0  0  0  0  0  0  0  0  0  0
   10.4900   -0.2900   23.3060 C   0  0  0  0  0  0  0  0  0  0  0  0
   11.5700   -1.8880   21.7460 C   0  0  0  0  0  0  0  0  0  0  0  0
   12.9260   -0.4870   23.2250 C   0  0  0  0  0  0  0  0  0  0  0  0
    6.1270    2.3960   18.3710 C   0  0  0  0  0  0  0  0  0  0  0  0
    7.4950    0.5670   18.6300 C   0  0  0  0  0  0  0  0  0  0  0  0
   13.3180   -0.1390   26.4440 C   0  0  0  0  0  0  0  0  0  0  0  0
    6.7570    1.8350   20.5680 C   0  0  0  0  0  0  0  0  0  0  0  0
   10.4300   -1.3220   22.3140 C   0  0  0  0  0  0  0  0  0  0  0  0
   12.9270   -1.8950   28.0470 C   0  0  0  0  0  0  0  0  0  0  0  0
    7.5300    0.7890   20.0350 C   0  0  0  0  0  0  0  0  0  0  0  0
   14.2160   -2.4000   27.9130 C   0  0  0  0  0  0  0  0  0  0  0  0
   11.7620    0.0760   23.8380 C   0  0  0  0  0  0  0  0  0  0  0  0
   12.8550   -1.4720   22.1810 C   0  0  0  0  0  0  0  0  0  0  0  0
    8.3150   -1.1930   20.9910 C   0  0  0  0  0  0  0  0  0  0  0  0
   12.4150   -3.7570   29.7320 C   0  0  0  0  0  0  0  0  0  0  0  0
   13.6300   -4.4910   28.9640 C   0  0  0  0  0  0  0  0  0  0  0  0
    6.6960    2.1690   22.0680 C   0  0  0  0  0  0  0  0  0  0  0  0
   10.7890   -1.9800   29.3620 C   0  0  0  0  0  0  0  0  0  0  0  0
    9.0820   -1.9120   22.0570 C   0  0  0  0  0  0  0  0  0  0  0  0
   12.8970    1.1340   25.7180 C   0  0  0  0  0  0  0  0  0  0  0  0
    6.7570    1.2940   17.8340 N   0  0  0  0  0  0  0  0  0  0  0  0
   12.0420   -2.5090   29.0070 N   0  0  3  0  0  0  0  0  0  0  0  0
    8.3930    0.1690   20.8440 N   0  0  0  0  0  0  0  0  0  0  0  0
    7.5760   -1.8410   20.2900 O   0  0  0  0  0  0  0  0  0  0  0  0
   14.6430   -3.5740   28.5540 O   0  0  0  0  0  0  0  0  0  0  0  0
   11.7380    0.9700   24.8790 O   0  0  0  0  0  0  0  0  0  0  0  0
   14.2600   -2.0820   21.3940 Cl  0  0  0  0  0  0  0  0  0  0  0  0
   15.4560   -0.0520   25.8800 H   0  0  0  0  0  0  0  0  0  0  0  0
   16.1010   -1.9370   26.8230 H   0  0  0  0  0  0  0  0  0  0  0  0
    5.5060    3.4800   20.0260 H   0  0  0  0  0  0  0  0  0  0  0  0
   11.4630   -0.3870   27.3810 H   0  0  0  0  0  0  0  0  0  0  0  0
    9.5150    0.0510   23.6240 H   0  0  0  0  0  0  0  0  0  0  0  0
   11.4120   -2.5840   20.9280 H   0  0  0  0  0  0  0  0  0  0  0  0
   13.8700   -0.0860   23.5600 H   0  0  0  0  0  0  0  0  0  0  0  0
    5.6460    3.0840   17.6880 H   0  0  0  0  0  0  0  0  0  0  0  0
    8.0530   -0.2940   18.2790 H   0  0  0  0  0  0  0  0  0  0  0  0
   11.5370   -4.4050   29.7530 H   0  0  0  0  0  0  0  0  0  0  0  0
   12.8170   -3.4780   30.7150 H   0  0  0  0  0  0  0  0  0  0  0  0
   14.0040   -5.1770   29.7310 H   0  0  0  0  0  0  0  0  0  0  0  0
   13.1770   -4.9150   28.0600 H   0  0  0  0  0  0  0  0  0  0  0  0
    5.7120    2.5810   22.3040 H   0  0  0  0  0  0  0  0  0  0  0  0
    6.8300    1.2450   22.6430 H   0  0  0  0  0  0  0  0  0  0  0  0
    7.4030    2.9550   22.3520 H   0  0  0  0  0  0  0  0  0  0  0  0
   10.0640   -2.1840   28.5630 H   0  0  0  0  0  0  0  0  0  0  0  0
   10.8250   -0.9070   29.5990 H   0  0  0  0  0  0  0  0  0  0  0  0
   10.3420   -2.4420   30.2530 H   0  0  0  0  0  0  0  0  0  0  0  0
    9.3070   -2.9500   21.8040 H   0  0  0  0  0  0  0  0  0  0  0  0
    8.4420   -1.8580   22.9510 H   0  0  0  0  0  0  0  0  0  0  0  0
   12.5030    1.8130   26.4790 H   0  0  0  0  0  0  0  0  0  0  0  0
   13.7300    1.5710   25.1570 H   0  0  0  0  0  0  0  0  0  0  0  0
    9.0060    0.7300   21.4290 H   0  0  0  0  0  0  0  0  0  0  0  0
  8 39  1  0  0  0  0
  8 25  2  0  0  0  0
  9 25  1  0  0  0  0
  9 40  1  0  0  0  0
  3  8  1  0  0  0  0
  9 14  2  0  0  0  0
  3 34  1  0  0  0  0
  3 11  2  0  0  0  0
 11 14  1  0  0  0  0
 14 27  1  0  0  0  0
 18 28  2  0  0  0  0
 11 21  1  0  0  0  0
 18 27  1  0  0  0  0
 27 55  1  0  0  0  0
  6 37  1  0  0  0  0
 18 23  1  0  0  0  0
 17 31  1  0  0  0  0
  6 17  2  0  0  0  0
  6 12  1  0  0  0  0
 23 51  1  0  0  0  0
 12 23  1  0  0  0  0
 23 52  1  0  0  0  0
 21 45  1  0  0  0  0
 21 47  1  0  0  0  0
 21 46  1  0  0  0  0
  7 17  1  0  0  0  0
  5 12  2  0  0  0  0
  7 38  1  0  0  0  0
  7 16  2  0  0  0  0
  5 36  1  0  0  0  0
  5 16  1  0  0  0  0
 16 30  1  0  0  0  0
 24 30  1  0  0  0  0
 24 54  1  0  0  0  0
 10 24  1  0  0  0  0
 24 53  1  0  0  0  0
  1 32  1  0  0  0  0
  1 10  2  0  0  0  0
  1  2  1  0  0  0  0
  4 10  1  0  0  0  0
  2 33  1  0  0  0  0
  2 15  2  0  0  0  0
  4 35  1  0  0  0  0
  4 13  2  0  0  0  0
 13 15  1  0  0  0  0
 15 29  1  0  0  0  0
 13 26  1  0  0  0  0
 20 44  1  0  0  0  0
 20 29  1  0  0  0  0
 22 48  1  0  0  0  0
 20 43  1  0  0  0  0
 19 20  1  0  0  0  0
 22 26  1  0  0  0  0
 19 26  1  0  0  0  0
 22 49  1  0  0  0  0
 22 50  1  0  0  0  0
 19 41  1  0  0  0  0
 19 42  1  0  0  0  0
M  END
> <CID>
EN300-1917568

> <SMILES>
Cc1ccncc1NC(=O)Cc2cc(cc(c2)Cl)OCc3ccc4c(c3)[N@@](CCO4)C

> <RUN>
RUN1675

> <DDG (kcal/mol)>
-0.11

> <dDDG (kcal/mol)>
0.12

$$$$
EN300-2002092
  -OEChem-08252008263D

 49 51  0     0  0  0  0  0  0999 V2000
    9.1920    3.6860   25.7620 C   0  0  0  0  0  0  0  0  0  0  0  0
   10.2470    2.9670   25.2400 C   0  0  0  0  0  0  0  0  0  0  0  0
    6.2890    1.8580   17.3350 C   0  0  0  0  0  0  0  0  0  0  0  0
   10.8150    0.2630   23.7220 C   0  0  0  0  0  0  0  0  0  0  0  0
   12.0530   -0.9390   22.0250 C   0  0  0  0  0  0  0  0  0  0  0  0
   10.6490    2.0670   27.3750 C   0  0  0  0  0  0  0  0  0  0  0  0
   13.2420    0.1530   23.8300 C   0  0  0  0  0  0  0  0  0  0  0  0
    5.4530    2.7020   18.1150 C   0  0  0  0  0  0  0  0  0  0  0  0
    6.5540    1.7860   19.9290 C   0  0  0  0  0  0  0  0  0  0  0  0
    8.8410    3.6410   27.1230 C   0  0  0  0  0  0  0  0  0  0  0  0
    7.2890    1.0240   17.8140 C   0  0  0  0  0  0  0  0  0  0  0  0
   10.8830   -0.4520   22.5090 C   0  0  0  0  0  0  0  0  0  0  0  0
    7.3700    0.9650   19.2000 C   0  0  0  0  0  0  0  0  0  0  0  0
   10.9200    2.1020   25.9980 C   0  0  0  0  0  0  0  0  0  0  0  0
   12.0250    0.6750   24.3970 C   0  0  0  0  0  0  0  0  0  0  0  0
    9.6900    2.8370   27.9710 C   0  0  0  0  0  0  0  0  0  0  0  0
   13.2390   -0.6580   22.6660 C   0  0  0  0  0  0  0  0  0  0  0  0
    9.1220    0.3670   20.7910 C   0  0  0  0  0  0  0  0  0  0  0  0
    8.1880    0.2750   16.8450 C   0  0  0  0  0  0  0  0  0  0  0  0
    9.6200   -0.7290   21.7450 C   0  0  0  0  0  0  0  0  0  0  0  0
    7.5960    4.2400   27.6480 C   0  0  0  0  0  0  0  0  0  0  0  0
    6.5250    3.1360   27.6260 C   0  0  0  0  0  0  0  0  0  0  0  0
    5.5270    2.6160   19.4750 N   0  0  0  0  0  0  0  0  0  0  0  0
    8.1240    0.0250   19.8900 N   0  0  0  0  0  0  0  0  0  0  0  0
    9.6550    1.4810   20.7660 O   0  0  0  0  0  0  0  0  0  0  0  0
    9.4250    2.6130   29.3300 O   0  0  0  0  0  0  0  0  0  0  0  0
   12.0390    1.4250   25.5250 O   0  0  0  0  0  0  0  0  0  0  0  0
   14.6970   -1.2510   21.9640 Cl  0  0  0  0  0  0  0  0  0  0  0  0
    5.3080    3.1710   29.1740 Br  0  0  0  0  0  0  0  0  0  0  0  0
    8.6660    4.2760   25.0090 H   0  0  0  0  0  0  0  0  0  0  0  0
   10.3510    3.2120   24.1870 H   0  0  0  0  0  0  0  0  0  0  0  0
    6.1820    1.9580   16.2570 H   0  0  0  0  0  0  0  0  0  0  0  0
    9.8370    0.6280   23.9880 H   0  0  0  0  0  0  0  0  0  0  0  0
   12.0810   -1.3790   21.0300 H   0  0  0  0  0  0  0  0  0  0  0  0
   11.2230    1.4000   28.0030 H   0  0  0  0  0  0  0  0  0  0  0  0
   14.2000    0.4240   24.2530 H   0  0  0  0  0  0  0  0  0  0  0  0
    4.6480    3.2190   17.5900 H   0  0  0  0  0  0  0  0  0  0  0  0
    6.6910    1.8450   20.9990 H   0  0  0  0  0  0  0  0  0  0  0  0
    8.8650    1.0260   16.4430 H   0  0  0  0  0  0  0  0  0  0  0  0
    8.6860   -0.5790   17.3200 H   0  0  0  0  0  0  0  0  0  0  0  0
    7.5780   -0.0730   16.0080 H   0  0  0  0  0  0  0  0  0  0  0  0
    9.6550   -1.7580   21.3900 H   0  0  0  0  0  0  0  0  0  0  0  0
    8.8670   -0.8080   22.5300 H   0  0  0  0  0  0  0  0  0  0  0  0
    7.3160    5.1190   27.0550 H   0  0  0  0  0  0  0  0  0  0  0  0
    7.7360    4.5040   28.7010 H   0  0  0  0  0  0  0  0  0  0  0  0
    5.9030    3.2780   26.7390 H   0  0  0  0  0  0  0  0  0  0  0  0
    7.0030    2.1520   27.6580 H   0  0  0  0  0  0  0  0  0  0  0  0
    8.0320   -0.9790   19.7160 H   0  0  0  0  0  0  0  0  0  0  0  0
   10.2200    2.1670   29.6800 H   0  0  0  0  0  0  0  0  0  0  0  0
 19 41  1  0  0  0  0
  3 32  1  0  0  0  0
 19 39  1  0  0  0  0
 19 40  1  0  0  0  0
 11 19  1  0  0  0  0
  3 11  2  0  0  0  0
  3  8  1  0  0  0  0
  8 37  1  0  0  0  0
 11 13  1  0  0  0  0
  8 23  2  0  0  0  0
 13 24  1  0  0  0  0
  9 13  2  0  0  0  0
  9 23  1  0  0  0  0
 24 48  1  0  0  0  0
 18 24  1  0  0  0  0
  9 38  1  0  0  0  0
 18 25  2  0  0  0  0
 18 20  1  0  0  0  0
  5 34  1  0  0  0  0
 20 42  1  0  0  0  0
 12 20  1  0  0  0  0
 20 43  1  0  0  0  0
 17 28  1  0  0  0  0
  5 12  2  0  0  0  0
  5 17  1  0  0  0  0
  4 12  1  0  0  0  0
  7 17  2  0  0  0  0
  4 33  1  0  0  0  0
  4 15  2  0  0  0  0
  7 36  1  0  0  0  0
  7 15  1  0  0  0  0
  2 31  1  0  0  0  0
 15 27  1  0  0  0  0
  1 30  1  0  0  0  0
  1  2  2  0  0  0  0
  2 14  1  0  0  0  0
 14 27  1  0  0  0  0
  1 10  1  0  0  0  0
  6 14  2  0  0  0  0
 22 46  1  0  0  0  0
 21 44  1  0  0  0  0
 10 21  1  0  0  0  0
 10 16  2  0  0  0  0
  6 16  1  0  0  0  0
  6 35  1  0  0  0  0
 21 22  1  0  0  0  0
 22 47  1  0  0  0  0
 22 29  1  0  0  0  0
 21 45  1  0  0  0  0
 16 26  1  0  0  0  0
 26 49  1  0  0  0  0
M  END
> <CID>
EN300-2002092

> <SMILES>
Cc1ccncc1NC(=O)Cc2cc(cc(c2)Cl)Oc3ccc(c(c3)O)CCBr

> <RUN>
RUN700

> <DDG (kcal/mol)>
-0.11

> <dDDG (kcal/mol)>
0.12

$$$$
EN300-1165403
  -OEChem-08252008263D

 48 51  0     0  0  0  0  0  0999 V2000
    9.2880    8.1150   24.1620 C   0  0  0  0  0  0  0  0  0  0  0  0
    9.5110    7.6430   25.4510 C   0  0  0  0  0  0  0  0  0  0  0  0
    5.0630    2.2410   18.8050 C   0  0  0  0  0  0  0  0  0  0  0  0
   10.2060    6.1110   23.2840 C   0  0  0  0  0  0  0  0  0  0  0  0
    9.4140    0.3450   23.0680 C   0  0  0  0  0  0  0  0  0  0  0  0
   10.8100   -1.2430   21.8090 C   0  0  0  0  0  0  0  0  0  0  0  0
   11.8110    0.6810   22.9160 C   0  0  0  0  0  0  0  0  0  0  0  0
    5.2820    1.6890   17.5290 C   0  0  0  0  0  0  0  0  0  0  0  0
    6.5950   -0.0090   18.3070 C   0  0  0  0  0  0  0  0  0  0  0  0
   10.4040    5.6800   24.5280 C   0  0  0  0  0  0  0  0  0  0  0  0
    5.7320    1.6390   19.8900 C   0  0  0  0  0  0  0  0  0  0  0  0
    9.6090   -0.8550   22.3040 C   0  0  0  0  0  0  0  0  0  0  0  0
    6.4790    0.4290   19.6230 C   0  0  0  0  0  0  0  0  0  0  0  0
    9.5790    7.3700   23.1060 C   0  0  0  0  0  0  0  0  0  0  0  0
   10.5220    1.1370   23.3380 C   0  0  0  0  0  0  0  0  0  0  0  0
   10.1000    6.3960   25.6410 C   0  0  0  0  0  0  0  0  0  0  0  0
   11.9600   -0.4680   22.0970 C   0  0  0  0  0  0  0  0  0  0  0  0
   10.9740    4.3840   24.9950 C   0  0  0  0  0  0  0  0  0  0  0  0
    7.5820   -1.4260   20.8670 C   0  0  0  0  0  0  0  0  0  0  0  0
    5.5390    2.1850   21.2980 C   0  0  0  0  0  0  0  0  0  0  0  0
    8.3850   -1.7120   22.1730 C   0  0  0  0  0  0  0  0  0  0  0  0
   11.3360    3.2320   24.1090 C   0  0  0  0  0  0  0  0  0  0  0  0
    5.9680    0.5670   17.2430 N   0  0  0  0  0  0  0  0  0  0  0  0
   11.1360    4.2600   26.3000 N   0  0  0  0  0  0  0  0  0  0  0  0
    7.1570   -0.1560   20.6930 N   0  0  0  0  0  0  0  0  0  0  0  0
    7.1130   -2.3310   20.1500 O   0  0  0  0  0  0  0  0  0  0  0  0
    9.3230    7.7490   21.8070 O   0  0  0  0  0  0  0  0  0  0  0  0
   10.2940    2.2560   23.9990 O   0  0  0  0  0  0  0  0  0  0  0  0
   10.5350    5.6210   27.1660 S   0  0  0  0  0  0  0  0  0  0  0  0
   13.5180   -0.9250   21.5600 Cl  0  0  0  0  0  0  0  0  0  0  0  0
    8.8770    9.1150   24.0670 H   0  0  0  0  0  0  0  0  0  0  0  0
    9.2070    8.3170   26.2340 H   0  0  0  0  0  0  0  0  0  0  0  0
    4.4000    3.0710   18.9990 H   0  0  0  0  0  0  0  0  0  0  0  0
   10.5410    5.5880   22.3870 H   0  0  0  0  0  0  0  0  0  0  0  0
    8.4320    0.5360   23.4920 H   0  0  0  0  0  0  0  0  0  0  0  0
   10.8540   -2.1170   21.1560 H   0  0  0  0  0  0  0  0  0  0  0  0
   12.7660    1.1400   23.1440 H   0  0  0  0  0  0  0  0  0  0  0  0
    4.8110    2.2880   16.7580 H   0  0  0  0  0  0  0  0  0  0  0  0
    7.3080   -0.7760   18.0140 H   0  0  0  0  0  0  0  0  0  0  0  0
    4.8370    1.5700   21.8670 H   0  0  0  0  0  0  0  0  0  0  0  0
    6.4990    2.3480   21.7950 H   0  0  0  0  0  0  0  0  0  0  0  0
    5.1490    3.2110   21.2890 H   0  0  0  0  0  0  0  0  0  0  0  0
    8.6820   -2.7660   22.2510 H   0  0  0  0  0  0  0  0  0  0  0  0
    7.6790   -1.5990   22.9970 H   0  0  0  0  0  0  0  0  0  0  0  0
   11.6480    3.6970   23.1650 H   0  0  0  0  0  0  0  0  0  0  0  0
   12.2340    2.7930   24.5420 H   0  0  0  0  0  0  0  0  0  0  0  0
    7.3320    0.5040   21.4510 H   0  0  0  0  0  0  0  0  0  0  0  0
    9.2900    6.9460   21.2640 H   0  0  0  0  0  0  0  0  0  0  0  0
  8 38  1  0  0  0  0
  8 23  2  0  0  0  0
  9 23  1  0  0  0  0
  3  8  1  0  0  0  0
  9 39  1  0  0  0  0
  9 13  2  0  0  0  0
  3 33  1  0  0  0  0
  3 11  2  0  0  0  0
 11 13  1  0  0  0  0
 13 25  1  0  0  0  0
 11 20  1  0  0  0  0
 19 26  2  0  0  0  0
 19 25  1  0  0  0  0
 25 47  1  0  0  0  0
 19 21  1  0  0  0  0
  6 36  1  0  0  0  0
 27 48  1  0  0  0  0
 20 42  1  0  0  0  0
 20 41  1  0  0  0  0
 20 40  1  0  0  0  0
 17 30  1  0  0  0  0
 14 27  1  0  0  0  0
  6 17  2  0  0  0  0
  6 12  1  0  0  0  0
  7 17  1  0  0  0  0
 21 43  1  0  0  0  0
 12 21  1  0  0  0  0
 21 44  1  0  0  0  0
  5 12  2  0  0  0  0
  4 34  1  0  0  0  0
  7 37  1  0  0  0  0
  7 15  2  0  0  0  0
  5 15  1  0  0  0  0
  5 35  1  0  0  0  0
  4 14  2  0  0  0  0
  1 14  1  0  0  0  0
 22 45  1  0  0  0  0
  4 10  1  0  0  0  0
 15 28  1  0  0  0  0
 22 28  1  0  0  0  0
  1 31  1  0  0  0  0
 22 46  1  0  0  0  0
 18 22  1  0  0  0  0
  1  2  2  0  0  0  0
 10 18  1  0  0  0  0
 10 16  2  0  0  0  0
 18 24  2  0  0  0  0
  2 16  1  0  0  0  0
  2 32  1  0  0  0  0
 16 29  1  0  0  0  0
 24 29  1  0  0  0  0
M  END
> <CID>
EN300-1165403

> <SMILES>
Cc1ccncc1NC(=O)Cc2cc(cc(c2)Cl)OCc3c4cc(ccc4sn3)O

> <RUN>
RUN405

> <DDG (kcal/mol)>
-0.11

> <dDDG (kcal/mol)>
0.12

$$$$
EN300-134559
  -OEChem-08252008263D

 47 50  0     0  0  0  0  0  0999 V2000
   12.6420    4.8980   30.0240 C   0  0  0  0  0  0  0  0  0  0  0  0
   11.9260    3.7240   30.2460 C   0  0  0  0  0  0  0  0  0  0  0  0
   12.8820    5.4030   28.6770 C   0  0  0  0  0  0  0  0  0  0  0  0
   11.5000    2.9590   29.1280 C   0  0  0  0  0  0  0  0  0  0  0  0
    6.0760    1.1840   19.6290 C   0  0  0  0  0  0  0  0  0  0  0  0
   12.1590    0.8830   23.3150 C   0  0  0  0  0  0  0  0  0  0  0  0
   13.2460   -1.2260   23.5830 C   0  0  0  0  0  0  0  0  0  0  0  0
   14.5400    0.7740   23.8870 C   0  0  0  0  0  0  0  0  0  0  0  0
    6.5240    0.8570   18.3860 C   0  0  0  0  0  0  0  0  0  0  0  0
    8.3100   -0.3840   19.2220 C   0  0  0  0  0  0  0  0  0  0  0  0
    6.9050    0.9450   20.6920 C   0  0  0  0  0  0  0  0  0  0  0  0
   12.0590   -0.5310   23.2770 C   0  0  0  0  0  0  0  0  0  0  0  0
   12.4630    4.5590   27.5740 C   0  0  0  0  0  0  0  0  0  0  0  0
    8.0460    0.1080   20.4950 C   0  0  0  0  0  0  0  0  0  0  0  0
   13.4010    1.5730   23.5430 C   0  0  0  0  0  0  0  0  0  0  0  0
   11.8590    3.3350   27.8410 C   0  0  0  0  0  0  0  0  0  0  0  0
   14.4270   -0.5860   23.9980 C   0  0  0  0  0  0  0  0  0  0  0  0
   12.1830    3.8220   25.4140 C   0  0  0  0  0  0  0  0  0  0  0  0
   10.1550   -0.7290   21.6290 C   0  0  0  0  0  0  0  0  0  0  0  0
    6.5900    1.4760   22.0410 C   0  0  0  0  0  0  0  0  0  0  0  0
   10.7520   -1.2130   22.9750 C   0  0  0  0  0  0  0  0  0  0  0  0
   12.3210    3.7470   23.8930 C   0  0  0  0  0  0  0  0  0  0  0  0
    7.5250   -0.0040   18.2180 N   0  0  0  0  0  0  0  0  0  0  0  0
   12.6280    4.8270   26.1940 N   0  0  0  0  0  0  0  0  0  0  0  0
    8.8310   -0.2420   21.6310 N   0  0  0  0  0  0  0  0  0  0  0  0
   10.7520   -0.6700   20.6060 O   0  0  0  0  0  0  0  0  0  0  0  0
   13.4900    2.9950   23.4950 O   0  0  0  0  0  0  0  0  0  0  0  0
   11.4500    2.4850   26.3340 S   0  0  0  0  0  0  0  0  0  0  0  0
   15.7310   -1.6030   24.2310 Cl  0  0  0  0  0  0  0  0  0  0  0  0
   13.0140    5.5380   30.8100 H   0  0  0  0  0  0  0  0  0  0  0  0
   11.6470    3.5540   31.2800 H   0  0  0  0  0  0  0  0  0  0  0  0
   13.3890    6.3350   28.4740 H   0  0  0  0  0  0  0  0  0  0  0  0
   10.8640    2.0970   29.3470 H   0  0  0  0  0  0  0  0  0  0  0  0
    5.1350    1.6960   19.7920 H   0  0  0  0  0  0  0  0  0  0  0  0
   11.2050    1.3730   23.1400 H   0  0  0  0  0  0  0  0  0  0  0  0
   13.2880   -2.3080   23.5930 H   0  0  0  0  0  0  0  0  0  0  0  0
   15.5130    1.2470   24.0070 H   0  0  0  0  0  0  0  0  0  0  0  0
    6.0020    1.2690   17.5250 H   0  0  0  0  0  0  0  0  0  0  0  0
    9.1560   -1.0050   18.9760 H   0  0  0  0  0  0  0  0  0  0  0  0
    7.4020    2.0790   22.4390 H   0  0  0  0  0  0  0  0  0  0  0  0
    5.6970    2.1100   22.0180 H   0  0  0  0  0  0  0  0  0  0  0  0
    6.5030    0.6190   22.7100 H   0  0  0  0  0  0  0  0  0  0  0  0
   10.9040   -2.2980   22.9770 H   0  0  0  0  0  0  0  0  0  0  0  0
   10.0780   -0.9260   23.7900 H   0  0  0  0  0  0  0  0  0  0  0  0
   11.3630    3.3790   23.5280 H   0  0  0  0  0  0  0  0  0  0  0  0
   12.4090    4.7600   23.4970 H   0  0  0  0  0  0  0  0  0  0  0  0
    8.5670   -0.0260   22.5910 H   0  0  0  0  0  0  0  0  0  0  0  0
  9 38  1  0  0  0  0
  9 23  2  0  0  0  0
 10 23  1  0  0  0  0
  5  9  1  0  0  0  0
 10 39  1  0  0  0  0
 10 14  2  0  0  0  0
  5 34  1  0  0  0  0
  5 11  2  0  0  0  0
 11 14  1  0  0  0  0
 14 25  1  0  0  0  0
 19 26  2  0  0  0  0
 11 20  1  0  0  0  0
 19 25  1  0  0  0  0
 19 21  1  0  0  0  0
 25 47  1  0  0  0  0
 20 41  1  0  0  0  0
 20 40  1  0  0  0  0
 20 42  1  0  0  0  0
 21 43  1  0  0  0  0
 12 21  1  0  0  0  0
 21 44  1  0  0  0  0
  6 35  1  0  0  0  0
  6 12  2  0  0  0  0
  7 12  1  0  0  0  0
  6 15  1  0  0  0  0
 15 27  1  0  0  0  0
 22 27  1  0  0  0  0
 22 46  1  0  0  0  0
 22 45  1  0  0  0  0
  8 15  2  0  0  0  0
  7 36  1  0  0  0  0
  7 17  2  0  0  0  0
  8 17  1  0  0  0  0
  8 37  1  0  0  0  0
 18 22  1  0  0  0  0
 17 29  1  0  0  0  0
 18 24  2  0  0  0  0
 18 28  1  0  0  0  0
 13 24  1  0  0  0  0
 16 28  1  0  0  0  0
 13 16  2  0  0  0  0
  3 13  1  0  0  0  0
  4 16  1  0  0  0  0
  3 32  1  0  0  0  0
  1  3  2  0  0  0  0
  4 33  1  0  0  0  0
  2  4  2  0  0  0  0
  1  2  1  0  0  0  0
  1 30  1  0  0  0  0
  2 31  1  0  0  0  0
M  END
> <CID>
EN300-134559

> <SMILES>
Cc1ccncc1NC(=O)Cc2cc(cc(c2)Cl)OCc3nc4ccccc4s3

> <RUN>
RUN3684

> <DDG (kcal/mol)>
-0.11

> <dDDG (kcal/mol)>
0.12

$$$$
EN300-1908666
  -OEChem-08252008263D

 50 52  0     0  0  0  0  0  0999 V2000
   12.0770   -0.4400   26.1490 C   0  0  0  0  0  0  0  0  0  0  0  0
   11.1480   -1.3980   25.7380 C   0  0  0  0  0  0  0  0  0  0  0  0
    5.0490    2.2900   19.3390 C   0  0  0  0  0  0  0  0  0  0  0  0
   11.9630    1.7510   23.9190 C   0  0  0  0  0  0  0  0  0  0  0  0
   13.8390   -1.8510   25.5130 C   0  0  0  0  0  0  0  0  0  0  0  0
   11.4900    0.0120   22.2760 C   0  0  0  0  0  0  0  0  0  0  0  0
   13.7360    0.6130   22.7820 C   0  0  0  0  0  0  0  0  0  0  0  0
    5.5060    1.5730   18.2790 C   0  0  0  0  0  0  0  0  0  0  0  0
    7.3520    1.0130   19.6540 C   0  0  0  0  0  0  0  0  0  0  0  0
   13.4450   -0.6750   26.0650 C   0  0  0  0  0  0  0  0  0  0  0  0
    5.6720    2.3490   20.6030 C   0  0  0  0  0  0  0  0  0  0  0  0
   10.9920    0.9820   23.2060 C   0  0  0  0  0  0  0  0  0  0  0  0
   11.5360   -2.5780   25.2660 C   0  0  0  0  0  0  0  0  0  0  0  0
    6.8960    1.7480   20.7640 C   0  0  0  0  0  0  0  0  0  0  0  0
   13.3420    1.4790   23.7930 C   0  0  0  0  0  0  0  0  0  0  0  0
   12.9510   -2.8160   25.1100 C   0  0  0  0  0  0  0  0  0  0  0  0
   12.8900   -0.1220   22.0140 C   0  0  0  0  0  0  0  0  0  0  0  0
    8.8500    1.8590   22.2280 C   0  0  0  0  0  0  0  0  0  0  0  0
    5.0560    3.1600   21.6940 C   0  0  0  0  0  0  0  0  0  0  0  0
    9.5460    1.2640   23.4450 C   0  0  0  0  0  0  0  0  0  0  0  0
   14.3740    0.4110   26.5510 C   0  0  0  0  0  0  0  0  0  0  0  0
   15.0190    1.0950   25.3630 C   0  0  0  0  0  0  0  0  0  0  0  0
    6.6090    0.7960   18.4990 N   0  0  0  0  0  0  0  0  0  0  0  0
    7.5130    1.6560   22.0240 N   0  0  0  0  0  0  0  0  0  0  0  0
   10.6520   -3.5830   24.8510 N   0  0  0  0  0  0  0  0  0  0  0  0
    9.4320    2.4950   21.3410 O   0  0  0  0  0  0  0  0  0  0  0  0
    9.4840   -3.2200   24.4990 O   0  0  0  0  0  0  0  0  0  0  0  0
   11.0340   -4.7100   24.8120 O   0  0  0  0  0  0  0  0  0  0  0  0
   14.2390    2.0530   24.6730 O   0  0  0  0  0  0  0  0  0  0  0  0
   13.4710   -3.8760   24.4760 F   0  0  0  0  0  0  0  0  0  0  0  0
   13.4900   -1.3590   20.9790 Cl  0  0  0  0  0  0  0  0  0  0  0  0
   11.6470    0.5000   26.4840 H   0  0  0  0  0  0  0  0  0  0  0  0
   10.1050   -1.1090   25.7680 H   0  0  0  0  0  0  0  0  0  0  0  0
    4.1570    2.8840   19.1620 H   0  0  0  0  0  0  0  0  0  0  0  0
   11.6680    2.3620   24.7760 H   0  0  0  0  0  0  0  0  0  0  0  0
   14.8900   -2.0740   25.3450 H   0  0  0  0  0  0  0  0  0  0  0  0
   10.8190   -0.6650   21.7430 H   0  0  0  0  0  0  0  0  0  0  0  0
   14.8020    0.4600   22.6760 H   0  0  0  0  0  0  0  0  0  0  0  0
    4.9490    1.6070   17.3450 H   0  0  0  0  0  0  0  0  0  0  0  0
    8.2080    0.3750   19.8410 H   0  0  0  0  0  0  0  0  0  0  0  0
    3.9800    3.3020   21.5500 H   0  0  0  0  0  0  0  0  0  0  0  0
    5.1510    2.6180   22.6310 H   0  0  0  0  0  0  0  0  0  0  0  0
    5.5130    4.1570   21.7580 H   0  0  0  0  0  0  0  0  0  0  0  0
    9.0140    0.3290   23.6370 H   0  0  0  0  0  0  0  0  0  0  0  0
    9.4140    1.9510   24.2880 H   0  0  0  0  0  0  0  0  0  0  0  0
   13.9250    1.1030   27.2680 H   0  0  0  0  0  0  0  0  0  0  0  0
   15.2640   -0.0520   26.9730 H   0  0  0  0  0  0  0  0  0  0  0  0
   15.7360    1.7060   25.9120 H   0  0  0  0  0  0  0  0  0  0  0  0
   15.5570    0.3590   24.7400 H   0  0  0  0  0  0  0  0  0  0  0  0
    6.8830    1.3440   22.7640 H   0  0  0  0  0  0  0  0  0  0  0  0
  8 39  1  0  0  0  0
  8 23  2  0  0  0  0
  3  8  1  0  0  0  0
  9 23  1  0  0  0  0
  3 34  1  0  0  0  0
  3 11  2  0  0  0  0
  9 40  1  0  0  0  0
  9 14  2  0  0  0  0
 11 14  1  0  0  0  0
 11 19  1  0  0  0  0
 14 24  1  0  0  0  0
 17 31  1  0  0  0  0
 18 26  2  0  0  0  0
 19 41  1  0  0  0  0
 19 43  1  0  0  0  0
 19 42  1  0  0  0  0
  6 37  1  0  0  0  0
  6 17  2  0  0  0  0
  7 17  1  0  0  0  0
 18 24  1  0  0  0  0
 24 50  1  0  0  0  0
 18 20  1  0  0  0  0
  6 12  1  0  0  0  0
  7 38  1  0  0  0  0
  7 15  2  0  0  0  0
 12 20  1  0  0  0  0
  4 12  2  0  0  0  0
 20 44  1  0  0  0  0
 20 45  1  0  0  0  0
  4 15  1  0  0  0  0
 15 29  1  0  0  0  0
  4 35  1  0  0  0  0
 16 30  1  0  0  0  0
 25 27  2  0  0  0  0
 22 29  1  0  0  0  0
 22 49  1  0  0  0  0
 25 28  2  0  0  0  0
 13 25  1  0  0  0  0
 13 16  2  0  0  0  0
  5 16  1  0  0  0  0
  2 13  1  0  0  0  0
  5 36  1  0  0  0  0
 22 48  1  0  0  0  0
 21 22  1  0  0  0  0
  5 10  2  0  0  0  0
  2 33  1  0  0  0  0
  1  2  2  0  0  0  0
  1 10  1  0  0  0  0
 10 21  1  0  0  0  0
  1 32  1  0  0  0  0
 21 47  1  0  0  0  0
 21 46  1  0  0  0  0
M  END
> <CID>
EN300-1908666

> <SMILES>
Cc1ccncc1NC(=O)Cc2cc(cc(c2)Cl)OCCc3ccc(c(c3)F)N(=O)=O

> <RUN>
RUN3114

> <DDG (kcal/mol)>
-0.11

> <dDDG (kcal/mol)>
0.14

$$$$
EN300-1915476
  -OEChem-08252008263D

 48 50  0     1  0  0  0  0  0999 V2000
   10.5320    6.2240   23.9230 C   0  0  0  0  0  0  0  0  0  0  0  0
   10.4560    6.8520   25.1900 C   0  0  0  0  0  0  0  0  0  0  0  0
    4.4380    1.1950   18.7250 C   0  0  0  0  0  0  0  0  0  0  0  0
   10.2590    1.0130   23.2940 C   0  0  0  0  0  0  0  0  0  0  0  0
   11.2120   -1.1290   22.6910 C   0  0  0  0  0  0  0  0  0  0  0  0
   12.6250    0.7540   23.0730 C   0  0  0  0  0  0  0  0  0  0  0  0
    5.1330    1.0930   17.5390 C   0  0  0  0  0  0  0  0  0  0  0  0
    6.8590    0.0390   18.5150 C   0  0  0  0  0  0  0  0  0  0  0  0
    4.9280    0.5880   19.8410 C   0  0  0  0  0  0  0  0  0  0  0  0
   10.0900   -0.3310   22.8710 C   0  0  0  0  0  0  0  0  0  0  0  0
    6.1660    0.0110   19.7800 C   0  0  0  0  0  0  0  0  0  0  0  0
   11.5320    1.5400   23.4200 C   0  0  0  0  0  0  0  0  0  0  0  0
   12.4680   -0.6240   22.7560 C   0  0  0  0  0  0  0  0  0  0  0  0
   11.7300    5.4560   23.9140 C   0  0  0  0  0  0  0  0  0  0  0  0
   11.6710    6.4870   25.8040 C   0  0  0  0  0  0  0  0  0  0  0  0
    8.0930   -0.0590   21.3410 C   0  0  0  0  0  0  0  0  0  0  0  0
    4.1340    0.6590   21.1000 C   0  0  0  0  0  0  0  0  0  0  0  0
    8.7580   -0.8700   22.4190 C   0  0  0  0  0  0  0  0  0  0  0  0
   12.6440    3.5160   22.8470 C   0  0  0  0  0  0  0  0  0  0  0  0
   12.2250    4.8680   22.6210 C   0  0  2  0  0  0  0  0  0  0  0  0
    6.3480    0.5360   17.4130 N   0  0  0  0  0  0  0  0  0  0  0  0
    6.8230   -0.4850   20.9070 N   0  0  0  0  0  0  0  0  0  0  0  0
   12.0630    6.9130   27.0830 N   0  0  0  0  0  0  0  0  0  0  0  0
    8.6580    0.9510   20.8340 O   0  0  0  0  0  0  0  0  0  0  0  0
   12.9710    6.2480   27.6330 O   0  0  0  0  0  0  0  0  0  0  0  0
   11.5760    7.9310   27.5220 O   0  0  0  0  0  0  0  0  0  0  0  0
   12.4290    5.6960   25.0110 O   0  0  0  0  0  0  0  0  0  0  0  0
   13.3280    5.6780   22.1400 O   0  0  0  0  0  0  0  0  0  0  0  0
   11.6590    2.9160   23.6320 O   0  0  0  0  0  0  0  0  0  0  0  0
   13.8530   -1.5770   22.4200 Cl  0  0  0  0  0  0  0  0  0  0  0  0
    9.8840    6.3370   23.0560 H   0  0  0  0  0  0  0  0  0  0  0  0
    9.6760    7.4370   25.6740 H   0  0  0  0  0  0  0  0  0  0  0  0
    3.6070    1.8900   18.8080 H   0  0  0  0  0  0  0  0  0  0  0  0
    9.4920    1.6980   23.6370 H   0  0  0  0  0  0  0  0  0  0  0  0
   11.0770   -2.1570   22.3510 H   0  0  0  0  0  0  0  0  0  0  0  0
   13.6760    0.9770   22.9960 H   0  0  0  0  0  0  0  0  0  0  0  0
    4.5960    1.6930   16.7940 H   0  0  0  0  0  0  0  0  0  0  0  0
    7.8510   -0.3880   18.5010 H   0  0  0  0  0  0  0  0  0  0  0  0
    3.8340   -0.3760   21.3130 H   0  0  0  0  0  0  0  0  0  0  0  0
    4.6980    1.0170   21.9600 H   0  0  0  0  0  0  0  0  0  0  0  0
    3.2450    1.2610   20.8890 H   0  0  0  0  0  0  0  0  0  0  0  0
    8.8410   -1.9290   22.1590 H   0  0  0  0  0  0  0  0  0  0  0  0
    8.0960   -0.8260   23.2870 H   0  0  0  0  0  0  0  0  0  0  0  0
   12.7500    2.8790   21.9620 H   0  0  0  0  0  0  0  0  0  0  0  0
   13.6640    3.4030   23.2200 H   0  0  0  0  0  0  0  0  0  0  0  0
   11.3510    4.8710   21.9640 H   0  0  0  0  0  0  0  0  0  0  0  0
    6.3860   -1.3250   21.2910 H   0  0  0  0  0  0  0  0  0  0  0  0
   13.8580    6.0010   22.8930 H   0  0  0  0  0  0  0  0  0  0  0  0
  7 37  1  0  0  0  0
  7 21  2  0  0  0  0
  8 21  1  0  0  0  0
  3  7  1  0  0  0  0
  8 38  1  0  0  0  0
  8 11  2  0  0  0  0
  3 33  1  0  0  0  0
  3  9  2  0  0  0  0
  9 11  1  0  0  0  0
 11 22  1  0  0  0  0
  9 17  1  0  0  0  0
 16 24  2  0  0  0  0
 17 41  1  0  0  0  0
 22 47  1  0  0  0  0
 16 22  1  0  0  0  0
 17 39  1  0  0  0  0
 17 40  1  0  0  0  0
 16 18  1  0  0  0  0
 19 44  1  0  0  0  0
 20 46  1  0  0  0  0
 20 28  1  0  0  0  0
 28 48  1  0  0  0  0
 18 42  1  0  0  0  0
  5 35  1  0  0  0  0
 10 18  1  0  0  0  0
 18 43  1  0  0  0  0
 13 30  1  0  0  0  0
 19 20  1  0  0  0  0
 14 20  1  0  0  0  0
  5 13  2  0  0  0  0
  5 10  1  0  0  0  0
  6 13  1  0  0  0  0
 19 45  1  0  0  0  0
 19 29  1  0  0  0  0
  4 10  2  0  0  0  0
  6 36  1  0  0  0  0
  1 31  1  0  0  0  0
  6 12  2  0  0  0  0
  4 12  1  0  0  0  0
  4 34  1  0  0  0  0
 12 29  1  0  0  0  0
  1 14  2  0  0  0  0
 14 27  1  0  0  0  0
  1  2  1  0  0  0  0
 15 27  1  0  0  0  0
  2 32  1  0  0  0  0
  2 15  2  0  0  0  0
 15 23  1  0  0  0  0
 23 26  2  0  0  0  0
 23 25  2  0  0  0  0
M  END
> <CID>
EN300-1915476

> <SMILES>
Cc1ccncc1NC(=O)Cc2cc(cc(c2)Cl)OC[C@@H](c3ccc(o3)N(=O)=O)O

> <RUN>
RUN1400

> <DDG (kcal/mol)>
-0.11

> <dDDG (kcal/mol)>
0.19

$$$$
EN300-1136777
  -OEChem-08252008263D

 49 51  0     1  0  0  0  0  0999 V2000
   12.8720    7.1270   24.4750 C   0  0  0  0  0  0  0  0  0  0  0  0
   11.7060    6.3620   24.6620 C   0  0  0  0  0  0  0  0  0  0  0  0
   13.9640    6.5860   23.7440 C   0  0  0  0  0  0  0  0  0  0  0  0
    4.1750    1.5150   18.6790 C   0  0  0  0  0  0  0  0  0  0  0  0
   10.0910    0.9350   23.9960 C   0  0  0  0  0  0  0  0  0  0  0  0
   12.5640    4.6270   23.2750 C   0  0  0  0  0  0  0  0  0  0  0  0
   10.8240   -0.8440   22.5550 C   0  0  0  0  0  0  0  0  0  0  0  0
   12.4570    0.5550   23.5350 C   0  0  0  0  0  0  0  0  0  0  0  0
    4.7130    1.0320   17.4850 C   0  0  0  0  0  0  0  0  0  0  0  0
    6.4830   -0.0620   18.6360 C   0  0  0  0  0  0  0  0  0  0  0  0
   11.5450    5.1320   24.0330 C   0  0  0  0  0  0  0  0  0  0  0  0
    4.8020    1.1240   19.9360 C   0  0  0  0  0  0  0  0  0  0  0  0
    9.7640   -0.1310   23.1620 C   0  0  0  0  0  0  0  0  0  0  0  0
    5.9030    0.2780   19.8900 C   0  0  0  0  0  0  0  0  0  0  0  0
   11.4230    1.2990   24.2060 C   0  0  0  0  0  0  0  0  0  0  0  0
   13.7650    5.3110   23.1400 C   0  0  0  0  0  0  0  0  0  0  0  0
   12.1750   -0.5300   22.6780 C   0  0  0  0  0  0  0  0  0  0  0  0
    7.8560   -0.1170   21.3830 C   0  0  0  0  0  0  0  0  0  0  0  0
    4.2030    1.6970   21.2110 C   0  0  0  0  0  0  0  0  0  0  0  0
    8.3250   -0.5740   22.8790 C   0  0  0  0  0  0  0  0  0  0  0  0
   10.8300    3.2760   25.5390 C   0  0  0  0  0  0  0  0  0  0  0  0
   10.3800    4.1990   24.4190 C   0  0  1  0  0  0  0  0  0  0  0  0
    5.8500    0.2490   17.4610 N   0  0  0  0  0  0  0  0  0  0  0  0
    6.4830   -0.1870   21.0750 N   0  0  0  0  0  0  0  0  0  0  0  0
    8.6990    0.1890   20.5360 O   0  0  0  0  0  0  0  0  0  0  0  0
    9.1510    4.8420   24.7870 O   0  0  0  0  0  0  0  0  0  0  0  0
   11.8150    2.3810   24.9740 O   0  0  0  0  0  0  0  0  0  0  0  0
   15.0780    4.7460   22.1520 Cl  0  0  0  0  0  0  0  0  0  0  0  0
   13.4040   -1.5740   21.8260 Cl  0  0  0  0  0  0  0  0  0  0  0  0
   13.0110    8.0070   25.1000 H   0  0  0  0  0  0  0  0  0  0  0  0
   10.9460    6.6250   25.4030 H   0  0  0  0  0  0  0  0  0  0  0  0
   14.9250    7.1010   23.7220 H   0  0  0  0  0  0  0  0  0  0  0  0
    3.4120    2.2770   18.6010 H   0  0  0  0  0  0  0  0  0  0  0  0
    9.2570    1.5290   24.3480 H   0  0  0  0  0  0  0  0  0  0  0  0
   12.5570    3.6880   22.7190 H   0  0  0  0  0  0  0  0  0  0  0  0
   10.5340   -1.6350   21.8680 H   0  0  0  0  0  0  0  0  0  0  0  0
   13.4670    0.8820   23.7430 H   0  0  0  0  0  0  0  0  0  0  0  0
    4.1980    1.3350   16.5850 H   0  0  0  0  0  0  0  0  0  0  0  0
    7.3430   -0.7170   18.5090 H   0  0  0  0  0  0  0  0  0  0  0  0
    4.6190    2.7170   21.2360 H   0  0  0  0  0  0  0  0  0  0  0  0
    3.1240    1.8520   21.1350 H   0  0  0  0  0  0  0  0  0  0  0  0
    4.4610    1.1070   22.0960 H   0  0  0  0  0  0  0  0  0  0  0  0
    8.2540   -1.6560   23.0210 H   0  0  0  0  0  0  0  0  0  0  0  0
    7.5810   -0.1810   23.5730 H   0  0  0  0  0  0  0  0  0  0  0  0
   11.1620    3.8920   26.3760 H   0  0  0  0  0  0  0  0  0  0  0  0
    9.9390    2.7520   25.8980 H   0  0  0  0  0  0  0  0  0  0  0  0
   10.0680    3.6170   23.5390 H   0  0  0  0  0  0  0  0  0  0  0  0
    5.8500   -0.5260   21.7940 H   0  0  0  0  0  0  0  0  0  0  0  0
    9.1270    5.6700   24.2750 H   0  0  0  0  0  0  0  0  0  0  0  0
  9 38  1  0  0  0  0
  9 23  2  0  0  0  0
 10 23  1  0  0  0  0
  4  9  1  0  0  0  0
 10 39  1  0  0  0  0
  4 33  1  0  0  0  0
 10 14  2  0  0  0  0
  4 12  2  0  0  0  0
 12 14  1  0  0  0  0
 14 24  1  0  0  0  0
 12 19  1  0  0  0  0
 18 25  2  0  0  0  0
 18 24  1  0  0  0  0
 24 48  1  0  0  0  0
 19 41  1  0  0  0  0
 19 40  1  0  0  0  0
 19 42  1  0  0  0  0
 18 20  1  0  0  0  0
 17 29  1  0  0  0  0
  7 36  1  0  0  0  0
 16 28  1  0  0  0  0
  7 17  2  0  0  0  0
  7 13  1  0  0  0  0
  8 17  1  0  0  0  0
  6 35  1  0  0  0  0
 20 43  1  0  0  0  0
 13 20  1  0  0  0  0
 20 44  1  0  0  0  0
  6 16  2  0  0  0  0
  3 16  1  0  0  0  0
  5 13  2  0  0  0  0
  6 11  1  0  0  0  0
  8 37  1  0  0  0  0
  8 15  2  0  0  0  0
 22 47  1  0  0  0  0
  3 32  1  0  0  0  0
  1  3  2  0  0  0  0
  5 15  1  0  0  0  0
  5 34  1  0  0  0  0
 11 22  1  0  0  0  0
  2 11  2  0  0  0  0
 15 27  1  0  0  0  0
 26 49  1  0  0  0  0
 22 26  1  0  0  0  0
 21 22  1  0  0  0  0
  1  2  1  0  0  0  0
  1 30  1  0  0  0  0
  2 31  1  0  0  0  0
 21 27  1  0  0  0  0
 21 46  1  0  0  0  0
 21 45  1  0  0  0  0
M  END
> <CID>
EN300-1136777

> <SMILES>
Cc1ccncc1NC(=O)Cc2cc(cc(c2)Cl)OC[C@H](c3cccc(c3)Cl)O

> <RUN>
RUN2701

> <DDG (kcal/mol)>
-0.10

> <dDDG (kcal/mol)>
0.17

$$$$
EN300-26674128
  -OEChem-08252008263D

 52 55  0     0  0  0  0  0  0999 V2000
   14.0350    8.0090   21.5170 C   0  0  0  0  0  0  0  0  0  0  0  0
   13.7530    8.9350   22.5600 C   0  0  0  0  0  0  0  0  0  0  0  0
   13.4290    6.7170   21.6790 C   0  0  0  0  0  0  0  0  0  0  0  0
    4.3370    1.6030   19.4230 C   0  0  0  0  0  0  0  0  0  0  0  0
   13.2200   10.9220   24.9340 C   0  0  0  0  0  0  0  0  0  0  0  0
   12.3830    7.3940   23.7300 C   0  0  0  0  0  0  0  0  0  0  0  0
   11.0740    2.4400   23.2670 C   0  0  0  0  0  0  0  0  0  0  0  0
   11.6040    0.0750   23.3340 C   0  0  0  0  0  0  0  0  0  0  0  0
   13.3580    1.7130   23.4450 C   0  0  0  0  0  0  0  0  0  0  0  0
    4.9810    1.3670   18.1940 C   0  0  0  0  0  0  0  0  0  0  0  0
   12.7070   11.3230   26.1970 C   0  0  0  0  0  0  0  0  0  0  0  0
    6.8800    0.6380   19.1910 C   0  0  0  0  0  0  0  0  0  0  0  0
   12.9410    8.6450   23.6540 C   0  0  0  0  0  0  0  0  0  0  0  0
   12.6030    6.4710   22.7400 C   0  0  0  0  0  0  0  0  0  0  0  0
    4.9900    1.2430   20.5920 C   0  0  0  0  0  0  0  0  0  0  0  0
   10.6640    1.1270   23.2370 C   0  0  0  0  0  0  0  0  0  0  0  0
    6.3920    0.9320   20.4700 C   0  0  0  0  0  0  0  0  0  0  0  0
   12.4470    2.7790   23.3310 C   0  0  0  0  0  0  0  0  0  0  0  0
   12.8980    0.3490   23.4290 C   0  0  0  0  0  0  0  0  0  0  0  0
   12.7440    9.6750   24.7160 C   0  0  0  0  0  0  0  0  0  0  0  0
    8.4780    1.0910   21.8960 C   0  0  0  0  0  0  0  0  0  0  0  0
    4.2340    1.3290   21.8850 C   0  0  0  0  0  0  0  0  0  0  0  0
    9.1600    0.8980   23.2520 C   0  0  0  0  0  0  0  0  0  0  0  0
   11.9830    5.0390   22.8190 C   0  0  0  0  0  0  0  0  0  0  0  0
    6.2210    0.8660   18.0550 N   0  0  0  0  0  0  0  0  0  0  0  0
   11.9010   10.4010   26.6520 N   0  0  0  0  0  0  0  0  0  0  0  0
   11.8880    9.4350   25.7490 N   0  0  0  0  0  0  0  0  0  0  0  0
    7.1480    0.7430   21.7180 N   0  0  0  0  0  0  0  0  0  0  0  0
    9.0320    1.5380   20.8970 O   0  0  0  0  0  0  0  0  0  0  0  0
   12.9120    4.0590   23.3800 O   0  0  0  0  0  0  0  0  0  0  0  0
   14.1510   -0.9750   23.5460 Cl  0  0  0  0  0  0  0  0  0  0  0  0
   14.6860    8.1890   20.6700 H   0  0  0  0  0  0  0  0  0  0  0  0
   14.3310    9.8540   22.5430 H   0  0  0  0  0  0  0  0  0  0  0  0
   13.6360    5.9280   20.9710 H   0  0  0  0  0  0  0  0  0  0  0  0
    3.3000    1.9280   19.4640 H   0  0  0  0  0  0  0  0  0  0  0  0
   13.9050   11.3910   24.2270 H   0  0  0  0  0  0  0  0  0  0  0  0
   11.7540    7.1470   24.5770 H   0  0  0  0  0  0  0  0  0  0  0  0
   10.2930    3.2010   23.2760 H   0  0  0  0  0  0  0  0  0  0  0  0
   11.3340   -0.9720   23.4080 H   0  0  0  0  0  0  0  0  0  0  0  0
   14.4110    1.9360   23.5450 H   0  0  0  0  0  0  0  0  0  0  0  0
    4.3330    1.6630   17.3730 H   0  0  0  0  0  0  0  0  0  0  0  0
   12.8410   12.2230   26.7940 H   0  0  0  0  0  0  0  0  0  0  0  0
    7.9070    0.2940   19.1780 H   0  0  0  0  0  0  0  0  0  0  0  0
    4.8260    1.9040   22.6040 H   0  0  0  0  0  0  0  0  0  0  0  0
    3.2330    1.7190   21.6710 H   0  0  0  0  0  0  0  0  0  0  0  0
    4.1090    0.2800   22.1880 H   0  0  0  0  0  0  0  0  0  0  0  0
    8.9410   -0.1000   23.6360 H   0  0  0  0  0  0  0  0  0  0  0  0
    8.7530    1.4830   24.0740 H   0  0  0  0  0  0  0  0  0  0  0  0
   11.0710    5.0990   23.4260 H   0  0  0  0  0  0  0  0  0  0  0  0
   11.6380    4.7080   21.8280 H   0  0  0  0  0  0  0  0  0  0  0  0
   11.5990    8.4840   25.9810 H   0  0  0  0  0  0  0  0  0  0  0  0
    6.6090    0.4780   22.5390 H   0  0  0  0  0  0  0  0  0  0  0  0
 10 41  1  0  0  0  0
 10 25  2  0  0  0  0
 12 25  1  0  0  0  0
  4 10  1  0  0  0  0
 12 43  1  0  0  0  0
 12 17  2  0  0  0  0
  4 35  1  0  0  0  0
  4 15  2  0  0  0  0
 15 17  1  0  0  0  0
 17 28  1  0  0  0  0
 15 22  1  0  0  0  0
  1 32  1  0  0  0  0
 21 29  2  0  0  0  0
  3 34  1  0  0  0  0
  1  3  2  0  0  0  0
  1  2  1  0  0  0  0
 22 45  1  0  0  0  0
  3 14  1  0  0  0  0
 21 28  1  0  0  0  0
 28 52  1  0  0  0  0
 24 50  1  0  0  0  0
 22 46  1  0  0  0  0
 22 44  1  0  0  0  0
 21 23  1  0  0  0  0
  2 33  1  0  0  0  0
  2 13  2  0  0  0  0
 14 24  1  0  0  0  0
  6 14  2  0  0  0  0
 24 30  1  0  0  0  0
 24 49  1  0  0  0  0
 16 23  1  0  0  0  0
  7 16  2  0  0  0  0
  8 16  1  0  0  0  0
 23 47  1  0  0  0  0
 23 48  1  0  0  0  0
  7 38  1  0  0  0  0
  7 18  1  0  0  0  0
 18 30  1  0  0  0  0
  9 18  2  0  0  0  0
  8 39  1  0  0  0  0
  8 19  2  0  0  0  0
  9 19  1  0  0  0  0
 19 31  1  0  0  0  0
  9 40  1  0  0  0  0
  6 13  1  0  0  0  0
 13 20  1  0  0  0  0
  6 37  1  0  0  0  0
  5 36  1  0  0  0  0
  5 20  2  0  0  0  0
 20 27  1  0  0  0  0
  5 11  1  0  0  0  0
 27 51  1  0  0  0  0
 26 27  1  0  0  0  0
 11 26  2  0  0  0  0
 11 42  1  0  0  0  0
M  END
> <CID>
EN300-26674128

> <SMILES>
Cc1ccncc1NC(=O)Cc2cc(cc(c2)Cl)OCc3cccc(c3)c4ccn[nH]4

> <RUN>
RUN877

> <DDG (kcal/mol)>
-0.10

> <dDDG (kcal/mol)>
0.13

$$$$
EN300-396514
  -OEChem-08252008263D

 46 48  0     0  0  0  0  0  0999 V2000
    6.6690    3.2280   28.6710 C   0  0  0  0  0  0  0  0  0  0  0  0
    5.9840    1.8050   19.4850 C   0  0  0  0  0  0  0  0  0  0  0  0
    7.3650    1.0850   27.6860 C   0  0  0  0  0  0  0  0  0  0  0  0
    8.1350    1.6510   29.8910 C   0  0  0  0  0  0  0  0  0  0  0  0
    9.0230   -1.9640   23.9340 C   0  0  0  0  0  0  0  0  0  0  0  0
    8.7750   -0.4510   28.9090 C   0  0  0  0  0  0  0  0  0  0  0  0
   10.7690   -2.0380   22.2560 C   0  0  0  0  0  0  0  0  0  0  0  0
   11.1400   -0.8350   24.2960 C   0  0  0  0  0  0  0  0  0  0  0  0
    5.6880    1.4160   18.1620 C   0  0  0  0  0  0  0  0  0  0  0  0
    6.7460   -0.5810   18.4470 C   0  0  0  0  0  0  0  0  0  0  0  0
    7.3870    1.9970   28.6940 C   0  0  0  0  0  0  0  0  0  0  0  0
    6.7170    1.0030   20.2910 C   0  0  0  0  0  0  0  0  0  0  0  0
    8.1070   -0.0760   27.6970 C   0  0  0  0  0  0  0  0  0  0  0  0
    9.4580   -2.3680   22.6370 C   0  0  0  0  0  0  0  0  0  0  0  0
    7.0740   -0.1950   19.7890 C   0  0  0  0  0  0  0  0  0  0  0  0
    9.8720   -1.1730   24.7700 C   0  0  0  0  0  0  0  0  0  0  0  0
    8.7640    0.4370   29.9980 C   0  0  0  0  0  0  0  0  0  0  0  0
   11.6130   -1.1940   23.0300 C   0  0  0  0  0  0  0  0  0  0  0  0
    7.7130   -2.3850   20.6910 C   0  0  0  0  0  0  0  0  0  0  0  0
    6.8400    1.4000   21.7590 C   0  0  0  0  0  0  0  0  0  0  0  0
    8.4980   -3.1770   21.7340 C   0  0  0  0  0  0  0  0  0  0  0  0
    8.2200   -0.8860   26.4920 C   0  0  0  0  0  0  0  0  0  0  0  0
    6.0900    4.2410   28.5240 N   0  0  0  0  0  0  0  0  0  0  0  0
    6.1210    0.2530   17.5910 N   0  0  0  0  0  0  0  0  0  0  0  0
    7.8580   -1.0100   20.6060 N   0  0  0  0  0  0  0  0  0  0  0  0
    6.9870   -3.0720   19.8860 O   0  0  0  0  0  0  0  0  0  0  0  0
    9.5540   -0.6880   25.9850 O   0  0  0  0  0  0  0  0  0  0  0  0
    9.7010    0.0220   31.4360 Cl  0  0  0  0  0  0  0  0  0  0  0  0
   13.2910   -0.7080   22.5040 Cl  0  0  0  0  0  0  0  0  0  0  0  0
    5.5560    2.7390   19.8350 H   0  0  0  0  0  0  0  0  0  0  0  0
    6.7580    1.4510   26.8580 H   0  0  0  0  0  0  0  0  0  0  0  0
    8.2080    2.2680   30.7770 H   0  0  0  0  0  0  0  0  0  0  0  0
    8.0130   -2.1370   24.2770 H   0  0  0  0  0  0  0  0  0  0  0  0
    9.1880   -1.4430   29.0150 H   0  0  0  0  0  0  0  0  0  0  0  0
   11.2270   -2.4000   21.3400 H   0  0  0  0  0  0  0  0  0  0  0  0
   11.8110   -0.2060   24.8730 H   0  0  0  0  0  0  0  0  0  0  0  0
    5.0700    2.0610   17.5460 H   0  0  0  0  0  0  0  0  0  0  0  0
    7.1090   -1.5640   18.1680 H   0  0  0  0  0  0  0  0  0  0  0  0
    7.8680    1.5580   22.0950 H   0  0  0  0  0  0  0  0  0  0  0  0
    6.1960    2.2480   21.9830 H   0  0  0  0  0  0  0  0  0  0  0  0
    6.5440    0.5120   22.3340 H   0  0  0  0  0  0  0  0  0  0  0  0
    9.2110   -3.8410   21.2370 H   0  0  0  0  0  0  0  0  0  0  0  0
    7.7980   -3.7920   22.3060 H   0  0  0  0  0  0  0  0  0  0  0  0
    7.9320   -1.9180   26.6760 H   0  0  0  0  0  0  0  0  0  0  0  0
    7.4670   -0.5130   25.7830 H   0  0  0  0  0  0  0  0  0  0  0  0
    8.3070   -0.7130   21.4620 H   0  0  0  0  0  0  0  0  0  0  0  0
  9 37  1  0  0  0  0
  9 24  2  0  0  0  0
 10 24  1  0  0  0  0
  2  9  1  0  0  0  0
 10 38  1  0  0  0  0
 10 15  2  0  0  0  0
  2 30  1  0  0  0  0
  2 12  2  0  0  0  0
 12 15  1  0  0  0  0
 15 25  1  0  0  0  0
 19 26  2  0  0  0  0
 12 20  1  0  0  0  0
 19 25  1  0  0  0  0
 25 46  1  0  0  0  0
 19 21  1  0  0  0  0
 21 42  1  0  0  0  0
  7 35  1  0  0  0  0
 21 43  1  0  0  0  0
 14 21  1  0  0  0  0
 20 40  1  0  0  0  0
 20 39  1  0  0  0  0
 20 41  1  0  0  0  0
  7 14  2  0  0  0  0
  7 18  1  0  0  0  0
 18 29  1  0  0  0  0
  5 14  1  0  0  0  0
  8 18  2  0  0  0  0
  5 33  1  0  0  0  0
  5 16  2  0  0  0  0
  8 16  1  0  0  0  0
  8 36  1  0  0  0  0
 16 27  1  0  0  0  0
 22 45  1  0  0  0  0
 22 27  1  0  0  0  0
 22 44  1  0  0  0  0
 13 22  1  0  0  0  0
  3 31  1  0  0  0  0
  3 13  2  0  0  0  0
  3 11  1  0  0  0  0
  6 13  1  0  0  0  0
  1 23  3  0  0  0  0
  1 11  1  0  0  0  0
  4 11  2  0  0  0  0
  6 34  1  0  0  0  0
  6 17  2  0  0  0  0
  4 17  1  0  0  0  0
  4 32  1  0  0  0  0
 17 28  1  0  0  0  0
M  END
> <CID>
EN300-396514

> <SMILES>
Cc1ccncc1NC(=O)Cc2cc(cc(c2)Cl)OCc3cc(cc(c3)Cl)C#N

> <RUN>
RUN2105

> <DDG (kcal/mol)>
-0.10

> <dDDG (kcal/mol)>
0.13

$$$$
EN300-1997073
  -OEChem-08252008263D

 52 55  0     0  0  0  0  0  0999 V2000
    7.1090    2.2440   19.4280 C   0  0  0  0  0  0  0  0  0  0  0  0
    9.9490    1.6980   25.4040 C   0  0  0  0  0  0  0  0  0  0  0  0
    9.8710   -2.2400   23.9570 C   0  0  0  0  0  0  0  0  0  0  0  0
   10.8800   -2.6470   21.8320 C   0  0  0  0  0  0  0  0  0  0  0  0
   11.7280    2.9800   23.6400 C   0  0  0  0  0  0  0  0  0  0  0  0
   12.1180   -1.5580   23.6110 C   0  0  0  0  0  0  0  0  0  0  0  0
    6.8820    1.7370   18.1690 C   0  0  0  0  0  0  0  0  0  0  0  0
    7.5710   -0.3520   18.8190 C   0  0  0  0  0  0  0  0  0  0  0  0
    7.6000    1.4180   20.4450 C   0  0  0  0  0  0  0  0  0  0  0  0
   11.2730    1.2260   25.2420 C   0  0  0  0  0  0  0  0  0  0  0  0
    9.7510   -2.6820   22.6980 C   0  0  0  0  0  0  0  0  0  0  0  0
    7.7540    0.0610   20.1190 C   0  0  0  0  0  0  0  0  0  0  0  0
    9.5280    2.8390   24.7350 C   0  0  0  0  0  0  0  0  0  0  0  0
   10.3850    3.4960   23.8280 C   0  0  0  0  0  0  0  0  0  0  0  0
   11.0030   -1.6130   24.4370 C   0  0  0  0  0  0  0  0  0  0  0  0
   12.1790    1.8480   24.3570 C   0  0  0  0  0  0  0  0  0  0  0  0
   12.0500   -2.0730   22.3220 C   0  0  0  0  0  0  0  0  0  0  0  0
    7.7660   -2.2520   21.1470 C   0  0  0  0  0  0  0  0  0  0  0  0
    8.4770    4.6560   24.0100 C   0  0  0  0  0  0  0  0  0  0  0  0
    8.0210    1.9780   21.7640 C   0  0  0  0  0  0  0  0  0  0  0  0
   14.1860    1.5060   22.9860 C   0  0  0  0  0  0  0  0  0  0  0  0
    8.4490   -3.1550   22.1610 C   0  0  0  0  0  0  0  0  0  0  0  0
   11.6570    0.0280   26.0020 C   0  0  0  0  0  0  0  0  0  0  0  0
    6.9720    0.4630   17.9110 N   0  0  0  0  0  0  0  0  0  0  0  0
    8.0510   -0.8590   21.1500 N   0  0  0  0  0  0  0  0  0  0  0  0
    7.0510   -2.7170   20.2960 O   0  0  0  0  0  0  0  0  0  0  0  0
    8.3760    3.5000   24.8690 O   0  0  0  0  0  0  0  0  0  0  0  0
    9.7290    4.5940   23.3760 O   0  0  0  0  0  0  0  0  0  0  0  0
   13.4350    1.3040   24.1830 O   0  0  0  0  0  0  0  0  0  0  0  0
   10.9270   -1.1600   25.7470 O   0  0  0  0  0  0  0  0  0  0  0  0
   13.5150   -2.0110   21.3150 Cl  0  0  0  0  0  0  0  0  0  0  0  0
    6.9000    3.2740   19.6960 H   0  0  0  0  0  0  0  0  0  0  0  0
    9.2320    1.3190   26.1340 H   0  0  0  0  0  0  0  0  0  0  0  0
    9.0410   -2.3650   24.6510 H   0  0  0  0  0  0  0  0  0  0  0  0
   10.9420   -2.9450   20.7980 H   0  0  0  0  0  0  0  0  0  0  0  0
   12.3920    3.5260   22.9750 H   0  0  0  0  0  0  0  0  0  0  0  0
   13.0500   -1.1870   24.0140 H   0  0  0  0  0  0  0  0  0  0  0  0
    6.5830    2.5240   17.4860 H   0  0  0  0  0  0  0  0  0  0  0  0
    7.7270   -1.3910   18.5410 H   0  0  0  0  0  0  0  0  0  0  0  0
    8.4570    5.6130   24.5420 H   0  0  0  0  0  0  0  0  0  0  0  0
    7.7990    4.5650   23.1590 H   0  0  0  0  0  0  0  0  0  0  0  0
    7.4900    2.9070   21.9810 H   0  0  0  0  0  0  0  0  0  0  0  0
    7.7790    1.3260   22.6150 H   0  0  0  0  0  0  0  0  0  0  0  0
    9.1010    2.1350   21.7790 H   0  0  0  0  0  0  0  0  0  0  0  0
   14.3770    2.5630   22.7590 H   0  0  0  0  0  0  0  0  0  0  0  0
   13.6380    1.1590   22.1020 H   0  0  0  0  0  0  0  0  0  0  0  0
   15.1760    1.0590   23.0420 H   0  0  0  0  0  0  0  0  0  0  0  0
    8.8030   -4.0610   21.6750 H   0  0  0  0  0  0  0  0  0  0  0  0
    7.7170   -3.2950   22.9650 H   0  0  0  0  0  0  0  0  0  0  0  0
   12.7340   -0.1550   26.0910 H   0  0  0  0  0  0  0  0  0  0  0  0
   11.5870    0.2760   27.0680 H   0  0  0  0  0  0  0  0  0  0  0  0
    8.5420   -0.5060   21.9650 H   0  0  0  0  0  0  0  0  0  0  0  0
  7 38  1  0  0  0  0
  7 24  2  0  0  0  0
  8 24  1  0  0  0  0
  1  7  1  0  0  0  0
  8 39  1  0  0  0  0
  8 12  2  0  0  0  0
  1 32  1  0  0  0  0
  1  9  2  0  0  0  0
  9 12  1  0  0  0  0
 12 25  1  0  0  0  0
 18 26  2  0  0  0  0
  9 20  1  0  0  0  0
  4 35  1  0  0  0  0
 18 25  1  0  0  0  0
 18 22  1  0  0  0  0
 25 52  1  0  0  0  0
 17 31  1  0  0  0  0
 22 48  1  0  0  0  0
 20 44  1  0  0  0  0
 20 42  1  0  0  0  0
 20 43  1  0  0  0  0
  4 17  2  0  0  0  0
  4 11  1  0  0  0  0
 21 46  1  0  0  0  0
 11 22  1  0  0  0  0
 22 49  1  0  0  0  0
  6 17  1  0  0  0  0
  3 11  2  0  0  0  0
 21 45  1  0  0  0  0
  5 36  1  0  0  0  0
 21 47  1  0  0  0  0
 21 29  1  0  0  0  0
 19 41  1  0  0  0  0
 14 28  1  0  0  0  0
 19 28  1  0  0  0  0
  6 37  1  0  0  0  0
  6 15  2  0  0  0  0
  5 14  2  0  0  0  0
  5 16  1  0  0  0  0
 13 14  1  0  0  0  0
  3 15  1  0  0  0  0
  3 34  1  0  0  0  0
 19 40  1  0  0  0  0
 19 27  1  0  0  0  0
 16 29  1  0  0  0  0
 10 16  2  0  0  0  0
 15 30  1  0  0  0  0
 13 27  1  0  0  0  0
  2 13  2  0  0  0  0
  2 10  1  0  0  0  0
 10 23  1  0  0  0  0
  2 33  1  0  0  0  0
 23 30  1  0  0  0  0
 23 50  1  0  0  0  0
 23 51  1  0  0  0  0
M  END
> <CID>
EN300-1997073

> <SMILES>
Cc1ccncc1NC(=O)Cc2cc(cc(c2)Cl)OCc3cc4c(cc3OC)OCO4

> <RUN>
RUN3647

> <DDG (kcal/mol)>
-0.10

> <dDDG (kcal/mol)>
0.15

$$$$
EN300-216088
  -OEChem-08252008263D

 44 46  0     0  0  0  0  0  0999 V2000
    4.5700    2.0330   18.9740 C   0  0  0  0  0  0  0  0  0  0  0  0
   10.7300    2.0700   23.4440 C   0  0  0  0  0  0  0  0  0  0  0  0
   11.3510   -0.1110   22.9690 C   0  0  0  0  0  0  0  0  0  0  0  0
   13.0200    1.4830   23.3550 C   0  0  0  0  0  0  0  0  0  0  0  0
   12.4090    6.7810   24.5210 C   0  0  0  0  0  0  0  0  0  0  0  0
    5.1700    1.5180   17.8200 C   0  0  0  0  0  0  0  0  0  0  0  0
    6.8350    0.6050   19.0960 C   0  0  0  0  0  0  0  0  0  0  0  0
    5.0120    1.6700   20.2450 C   0  0  0  0  0  0  0  0  0  0  0  0
   10.3500    0.8060   23.2060 C   0  0  0  0  0  0  0  0  0  0  0  0
    6.2460    0.9830   20.2960 C   0  0  0  0  0  0  0  0  0  0  0  0
   12.0900    2.4550   23.6020 C   0  0  0  0  0  0  0  0  0  0  0  0
   12.6910    0.1840   22.9790 C   0  0  0  0  0  0  0  0  0  0  0  0
   13.3880    5.7840   24.1370 C   0  0  0  0  0  0  0  0  0  0  0  0
   13.1280    7.6350   25.2680 C   0  0  0  0  0  0  0  0  0  0  0  0
    8.3260    0.8630   21.7610 C   0  0  0  0  0  0  0  0  0  0  0  0
    4.3160    2.2200   21.4600 C   0  0  0  0  0  0  0  0  0  0  0  0
   12.6150    8.8800   25.7620 C   0  0  0  0  0  0  0  0  0  0  0  0
    8.8620    0.4180   23.1170 C   0  0  0  0  0  0  0  0  0  0  0  0
   13.1000    4.6320   23.1780 C   0  0  0  0  0  0  0  0  0  0  0  0
    6.3230    0.8690   17.8500 N   0  0  0  0  0  0  0  0  0  0  0  0
   14.5630    6.0700   24.6520 N   0  0  0  0  0  0  0  0  0  0  0  0
    6.9920    0.7200   21.5140 N   0  0  0  0  0  0  0  0  0  0  0  0
    9.0680    1.4500   20.9370 O   0  0  0  0  0  0  0  0  0  0  0  0
   14.4190    7.2210   25.3720 O   0  0  0  0  0  0  0  0  0  0  0  0
   12.3620    3.7380   24.0110 O   0  0  0  0  0  0  0  0  0  0  0  0
   13.8330   -0.9240   22.5110 Cl  0  0  0  0  0  0  0  0  0  0  0  0
    3.6950    2.6710   18.9210 H   0  0  0  0  0  0  0  0  0  0  0  0
    9.9460    2.8070   23.5760 H   0  0  0  0  0  0  0  0  0  0  0  0
   11.1040   -1.1600   22.8030 H   0  0  0  0  0  0  0  0  0  0  0  0
   14.0700    1.7910   23.3580 H   0  0  0  0  0  0  0  0  0  0  0  0
   11.3890    6.8690   24.1630 H   0  0  0  0  0  0  0  0  0  0  0  0
    4.8580    1.8730   16.8500 H   0  0  0  0  0  0  0  0  0  0  0  0
    7.7310   -0.0020   19.0990 H   0  0  0  0  0  0  0  0  0  0  0  0
    4.4000    3.3020   21.5810 H   0  0  0  0  0  0  0  0  0  0  0  0
    3.2490    1.9610   21.5340 H   0  0  0  0  0  0  0  0  0  0  0  0
    4.6350    1.7770   22.4000 H   0  0  0  0  0  0  0  0  0  0  0  0
   11.5290    8.8890   25.7940 H   0  0  0  0  0  0  0  0  0  0  0  0
   13.0250    9.0350   26.7650 H   0  0  0  0  0  0  0  0  0  0  0  0
   13.0050    9.7440   25.2040 H   0  0  0  0  0  0  0  0  0  0  0  0
    8.6770   -0.6400   23.3190 H   0  0  0  0  0  0  0  0  0  0  0  0
    8.3690    1.0080   23.8880 H   0  0  0  0  0  0  0  0  0  0  0  0
   12.3940    5.0230   22.4430 H   0  0  0  0  0  0  0  0  0  0  0  0
   14.0180    4.1660   22.8010 H   0  0  0  0  0  0  0  0  0  0  0  0
    6.4130    0.3590   22.2770 H   0  0  0  0  0  0  0  0  0  0  0  0
  6 32  1  0  0  0  0
  6 20  2  0  0  0  0
  1  6  1  0  0  0  0
  7 20  1  0  0  0  0
  1 27  1  0  0  0  0
  1  8  2  0  0  0  0
  7 33  1  0  0  0  0
  7 10  2  0  0  0  0
  8 10  1  0  0  0  0
  8 16  1  0  0  0  0
 10 22  1  0  0  0  0
 15 23  2  0  0  0  0
 16 35  1  0  0  0  0
 16 34  1  0  0  0  0
 16 36  1  0  0  0  0
 15 22  1  0  0  0  0
 22 44  1  0  0  0  0
 15 18  1  0  0  0  0
 19 42  1  0  0  0  0
 12 26  1  0  0  0  0
 19 43  1  0  0  0  0
  3 29  1  0  0  0  0
  3 12  2  0  0  0  0
  3  9  1  0  0  0  0
  4 12  1  0  0  0  0
  9 18  1  0  0  0  0
 18 40  1  0  0  0  0
 18 41  1  0  0  0  0
 19 25  1  0  0  0  0
 13 19  1  0  0  0  0
  2  9  2  0  0  0  0
  4 30  1  0  0  0  0
  4 11  2  0  0  0  0
  2 28  1  0  0  0  0
  2 11  1  0  0  0  0
 11 25  1  0  0  0  0
  5 13  1  0  0  0  0
 13 21  2  0  0  0  0
  5 31  1  0  0  0  0
  5 14  2  0  0  0  0
 21 24  1  0  0  0  0
 17 39  1  0  0  0  0
 14 24  1  0  0  0  0
 14 17  1  0  0  0  0
 17 37  1  0  0  0  0
 17 38  1  0  0  0  0
M  END
> <CID>
EN300-216088

> <SMILES>
Cc1ccncc1NC(=O)Cc2cc(cc(c2)Cl)OCc3cc(on3)C

> <RUN>
RUN989

> <DDG (kcal/mol)>
-0.09

> <dDDG (kcal/mol)>
0.11

$$$$
EN300-1246893
  -OEChem-08252008263D

 49 51  0     0  0  0  0  0  0999 V2000
   11.5610    6.8960   25.4910 C   0  0  0  0  0  0  0  0  0  0  0  0
   12.8740    7.2310   25.8530 C   0  0  0  0  0  0  0  0  0  0  0  0
   11.4150    6.3050   24.2260 C   0  0  0  0  0  0  0  0  0  0  0  0
   13.9950    6.8670   25.0930 C   0  0  0  0  0  0  0  0  0  0  0  0
   12.5550    5.9230   23.5100 C   0  0  0  0  0  0  0  0  0  0  0  0
    5.5450    0.7660   20.2100 C   0  0  0  0  0  0  0  0  0  0  0  0
   12.7300    1.1010   23.5310 C   0  0  0  0  0  0  0  0  0  0  0  0
   12.6220   -1.2120   23.9170 C   0  0  0  0  0  0  0  0  0  0  0  0
   14.7740   -0.0700   23.9200 C   0  0  0  0  0  0  0  0  0  0  0  0
    6.0400    0.4230   18.9700 C   0  0  0  0  0  0  0  0  0  0  0  0
    8.0390   -0.1140   19.9490 C   0  0  0  0  0  0  0  0  0  0  0  0
   13.8740    6.1050   24.0020 C   0  0  0  0  0  0  0  0  0  0  0  0
    6.3430    0.8090   21.3130 C   0  0  0  0  0  0  0  0  0  0  0  0
   11.9780   -0.0190   23.7280 C   0  0  0  0  0  0  0  0  0  0  0  0
    7.6330    0.4060   21.1910 C   0  0  0  0  0  0  0  0  0  0  0  0
   14.1290    1.1380   23.5550 C   0  0  0  0  0  0  0  0  0  0  0  0
   14.0310   -1.2820   24.0740 C   0  0  0  0  0  0  0  0  0  0  0  0
   15.0820    5.7080   23.2970 C   0  0  0  0  0  0  0  0  0  0  0  0
   15.3320    4.4980   22.6600 C   0  0  0  0  0  0  0  0  0  0  0  0
    9.8540    0.2030   22.4440 C   0  0  0  0  0  0  0  0  0  0  0  0
    5.7970    1.4350   22.6210 C   0  0  0  0  0  0  0  0  0  0  0  0
   10.5170    0.0180   23.7300 C   0  0  0  0  0  0  0  0  0  0  0  0
   14.3740    3.3240   22.6420 C   0  0  0  0  0  0  0  0  0  0  0  0
    7.2730   -0.0140   18.8380 N   0  0  0  0  0  0  0  0  0  0  0  0
    8.4810    0.4400   22.3360 N   0  0  0  0  0  0  0  0  0  0  0  0
   10.4710    0.1530   21.3940 O   0  0  0  0  0  0  0  0  0  0  0  0
   14.9510    2.2130   23.3590 O   0  0  0  0  0  0  0  0  0  0  0  0
   14.7400   -2.7870   24.4080 Cl  0  0  0  0  0  0  0  0  0  0  0  0
   10.6330    7.1400   26.0060 H   0  0  0  0  0  0  0  0  0  0  0  0
   12.9240    7.8150   26.7680 H   0  0  0  0  0  0  0  0  0  0  0  0
   10.4100    6.1600   23.8410 H   0  0  0  0  0  0  0  0  0  0  0  0
   14.9740    7.1600   25.4730 H   0  0  0  0  0  0  0  0  0  0  0  0
   12.3770    5.4560   22.5450 H   0  0  0  0  0  0  0  0  0  0  0  0
    4.5150    1.0870   20.2780 H   0  0  0  0  0  0  0  0  0  0  0  0
   12.1420    2.0030   23.3790 H   0  0  0  0  0  0  0  0  0  0  0  0
   12.1740   -2.1940   24.0410 H   0  0  0  0  0  0  0  0  0  0  0  0
   15.8360   -0.0370   24.0940 H   0  0  0  0  0  0  0  0  0  0  0  0
    5.4840    0.5370   18.0420 H   0  0  0  0  0  0  0  0  0  0  0  0
    9.0470   -0.4920   19.8410 H   0  0  0  0  0  0  0  0  0  0  0  0
   15.9090    6.4090   23.3200 H   0  0  0  0  0  0  0  0  0  0  0  0
   16.2560    4.3170   22.1220 H   0  0  0  0  0  0  0  0  0  0  0  0
    4.8840    1.9670   22.3480 H   0  0  0  0  0  0  0  0  0  0  0  0
    5.4960    0.6540   23.3260 H   0  0  0  0  0  0  0  0  0  0  0  0
    6.4850    2.1030   23.1430 H   0  0  0  0  0  0  0  0  0  0  0  0
   10.1190   -0.9570   24.0240 H   0  0  0  0  0  0  0  0  0  0  0  0
   10.0850    0.6040   24.5480 H   0  0  0  0  0  0  0  0  0  0  0  0
   13.4670    3.6350   23.1600 H   0  0  0  0  0  0  0  0  0  0  0  0
   14.0370    3.1080   21.6300 H   0  0  0  0  0  0  0  0  0  0  0  0
    8.0480    0.5750   23.2500 H   0  0  0  0  0  0  0  0  0  0  0  0
 10 38  1  0  0  0  0
 10 24  2  0  0  0  0
 11 24  1  0  0  0  0
  6 10  1  0  0  0  0
 11 39  1  0  0  0  0
 11 15  2  0  0  0  0
  6 34  1  0  0  0  0
  6 13  2  0  0  0  0
 13 15  1  0  0  0  0
 15 25  1  0  0  0  0
 13 21  1  0  0  0  0
 20 26  2  0  0  0  0
 23 48  1  0  0  0  0
 19 41  1  0  0  0  0
 20 25  1  0  0  0  0
 25 49  1  0  0  0  0
 21 42  1  0  0  0  0
 20 22  1  0  0  0  0
  5 33  1  0  0  0  0
 21 44  1  0  0  0  0
 21 43  1  0  0  0  0
 19 23  1  0  0  0  0
 23 47  1  0  0  0  0
 23 27  1  0  0  0  0
 18 19  2  0  0  0  0
 18 40  1  0  0  0  0
 12 18  1  0  0  0  0
 16 27  1  0  0  0  0
  7 35  1  0  0  0  0
  5 12  2  0  0  0  0
  3  5  1  0  0  0  0
  7 16  2  0  0  0  0
  7 14  1  0  0  0  0
  9 16  1  0  0  0  0
 14 22  1  0  0  0  0
  8 14  2  0  0  0  0
 22 45  1  0  0  0  0
 22 46  1  0  0  0  0
  3 31  1  0  0  0  0
  8 36  1  0  0  0  0
  8 17  1  0  0  0  0
  9 17  2  0  0  0  0
  9 37  1  0  0  0  0
  4 12  1  0  0  0  0
 17 28  1  0  0  0  0
  1  3  2  0  0  0  0
  4 32  1  0  0  0  0
  2  4  2  0  0  0  0
  1  2  1  0  0  0  0
  1 29  1  0  0  0  0
  2 30  1  0  0  0  0
M  END
> <CID>
EN300-1246893

> <SMILES>
Cc1ccncc1NC(=O)Cc2cc(cc(c2)Cl)OC/C=C\c3ccccc3

> <RUN>
RUN1067

> <DDG (kcal/mol)>
-0.09

> <dDDG (kcal/mol)>
0.11

$$$$
EN300-674675
  -OEChem-08252008263D

 51 53  0     0  0  0  0  0  0999 V2000
    8.4760   -4.0460   29.1140 C   0  0  0  0  0  0  0  0  0  0  0  0
    9.7390   -3.7010   28.7150 C   0  0  0  0  0  0  0  0  0  0  0  0
    5.4580    0.3070   20.0490 C   0  0  0  0  0  0  0  0  0  0  0  0
   11.0400   -1.8150   25.3970 C   0  0  0  0  0  0  0  0  0  0  0  0
   11.5030    0.3080   24.4030 C   0  0  0  0  0  0  0  0  0  0  0  0
    8.9640   -1.6640   27.7820 C   0  0  0  0  0  0  0  0  0  0  0  0
   11.9590   -0.1020   26.7780 C   0  0  0  0  0  0  0  0  0  0  0  0
    5.9870    0.6300   18.7690 C   0  0  0  0  0  0  0  0  0  0  0  0
    8.0980   -0.0150   19.5250 C   0  0  0  0  0  0  0  0  0  0  0  0
    7.4220   -3.2370   28.7630 C   0  0  0  0  0  0  0  0  0  0  0  0
    6.2210   -0.1550   21.0620 C   0  0  0  0  0  0  0  0  0  0  0  0
   11.1050   -1.0280   24.2790 C   0  0  0  0  0  0  0  0  0  0  0  0
    7.6440   -0.3670   20.8200 C   0  0  0  0  0  0  0  0  0  0  0  0
   10.0100   -2.5660   28.0480 C   0  0  0  0  0  0  0  0  0  0  0  0
   11.4680   -1.3860   26.6040 C   0  0  0  0  0  0  0  0  0  0  0  0
    7.6840   -2.0220   28.0790 C   0  0  0  0  0  0  0  0  0  0  0  0
   12.0050    0.7460   25.6530 C   0  0  0  0  0  0  0  0  0  0  0  0
    9.7430   -0.5200   22.2280 C   0  0  0  0  0  0  0  0  0  0  0  0
    5.5650   -0.5140   22.3530 C   0  0  0  0  0  0  0  0  0  0  0  0
   10.5560   -1.5000   22.9950 C   0  0  0  0  0  0  0  0  0  0  0  0
    6.0400   -3.5890   29.1230 C   0  0  0  0  0  0  0  0  0  0  0  0
    5.6400   -3.2030   30.5920 C   0  0  0  0  0  0  0  0  0  0  0  0
    4.2720   -3.6880   30.9290 C   0  0  0  0  0  0  0  0  0  0  0  0
    7.3050    0.3840   18.4900 N   0  0  0  0  0  0  0  0  0  0  0  0
    8.4350   -0.8180   21.8790 N   0  0  0  0  0  0  0  0  0  0  0  0
   10.3060    0.2720   21.5100 O   0  0  0  0  0  0  0  0  0  0  0  0
   11.3630   -2.3600   27.6450 O   0  0  0  0  0  0  0  0  0  0  0  0
    6.7110   -1.1310   27.7160 F   0  0  0  0  0  0  0  0  0  0  0  0
   12.8280    2.2870   25.6910 Cl  0  0  0  0  0  0  0  0  0  0  0  0
    4.1900   -3.9600   32.9780 Br  0  0  0  0  0  0  0  0  0  0  0  0
    8.2740   -4.9830   29.6100 H   0  0  0  0  0  0  0  0  0  0  0  0
   10.5430   -4.3540   29.0470 H   0  0  0  0  0  0  0  0  0  0  0  0
    4.4220    0.6020   20.2190 H   0  0  0  0  0  0  0  0  0  0  0  0
   10.7020   -2.8440   25.3510 H   0  0  0  0  0  0  0  0  0  0  0  0
   11.4820    0.9400   23.5200 H   0  0  0  0  0  0  0  0  0  0  0  0
    9.0650   -0.6550   27.4000 H   0  0  0  0  0  0  0  0  0  0  0  0
   12.4530    0.3200   27.6600 H   0  0  0  0  0  0  0  0  0  0  0  0
    5.3470    1.0090   17.9700 H   0  0  0  0  0  0  0  0  0  0  0  0
    9.1600   -0.1520   19.3060 H   0  0  0  0  0  0  0  0  0  0  0  0
    6.2260   -0.4640   23.2170 H   0  0  0  0  0  0  0  0  0  0  0  0
    4.6680    0.1000   22.4750 H   0  0  0  0  0  0  0  0  0  0  0  0
    5.1730   -1.5290   22.2940 H   0  0  0  0  0  0  0  0  0  0  0  0
   11.3070   -1.7760   22.2590 H   0  0  0  0  0  0  0  0  0  0  0  0
    9.9290   -2.3810   23.1930 H   0  0  0  0  0  0  0  0  0  0  0  0
    5.3830   -3.0920   28.3990 H   0  0  0  0  0  0  0  0  0  0  0  0
    5.9130   -4.6710   28.9860 H   0  0  0  0  0  0  0  0  0  0  0  0
    6.3600   -3.7350   31.2180 H   0  0  0  0  0  0  0  0  0  0  0  0
    5.7460   -2.1210   30.7350 H   0  0  0  0  0  0  0  0  0  0  0  0
    4.0560   -4.6830   30.5360 H   0  0  0  0  0  0  0  0  0  0  0  0
    3.4990   -3.0650   30.4680 H   0  0  0  0  0  0  0  0  0  0  0  0
    8.0470   -1.6460   22.3400 H   0  0  0  0  0  0  0  0  0  0  0  0
  8 38  1  0  0  0  0
  8 24  2  0  0  0  0
  9 24  1  0  0  0  0
  3  8  1  0  0  0  0
  9 39  1  0  0  0  0
  9 13  2  0  0  0  0
  3 33  1  0  0  0  0
  3 11  2  0  0  0  0
 11 13  1  0  0  0  0
 13 25  1  0  0  0  0
 11 19  1  0  0  0  0
 18 26  2  0  0  0  0
 18 25  1  0  0  0  0
 25 51  1  0  0  0  0
 18 20  1  0  0  0  0
 20 43  1  0  0  0  0
 19 42  1  0  0  0  0
 19 41  1  0  0  0  0
 19 40  1  0  0  0  0
 20 44  1  0  0  0  0
 12 20  1  0  0  0  0
  5 35  1  0  0  0  0
  5 12  2  0  0  0  0
  4 12  1  0  0  0  0
  5 17  1  0  0  0  0
  4 34  1  0  0  0  0
  4 15  2  0  0  0  0
 17 29  1  0  0  0  0
  7 17  2  0  0  0  0
  7 15  1  0  0  0  0
 15 27  1  0  0  0  0
  7 37  1  0  0  0  0
  6 36  1  0  0  0  0
 14 27  1  0  0  0  0
 16 28  1  0  0  0  0
  6 14  2  0  0  0  0
  6 16  1  0  0  0  0
  2 14  1  0  0  0  0
 10 16  2  0  0  0  0
 21 45  1  0  0  0  0
  2 32  1  0  0  0  0
  1  2  2  0  0  0  0
  1 10  1  0  0  0  0
 10 21  1  0  0  0  0
 21 46  1  0  0  0  0
  1 31  1  0  0  0  0
 21 22  1  0  0  0  0
 23 50  1  0  0  0  0
 23 49  1  0  0  0  0
 22 48  1  0  0  0  0
 22 23  1  0  0  0  0
 22 47  1  0  0  0  0
 23 30  1  0  0  0  0
M  END
> <CID>
EN300-674675

> <SMILES>
Cc1ccncc1NC(=O)Cc2cc(cc(c2)Cl)Oc3ccc(c(c3)F)CCCBr

> <RUN>
RUN1103

> <DDG (kcal/mol)>
-0.09

> <dDDG (kcal/mol)>
0.12

$$$$
EN300-1653517
  -OEChem-08252008263D

 56 59  0     1  0  0  0  0  0999 V2000
   15.2200    2.9780   22.5410 C   0  0  0  0  0  0  0  0  0  0  0  0
   15.4700    4.2370   23.1740 C   0  0  0  0  0  0  0  0  0  0  0  0
    6.8240    2.5830   19.5850 C   0  0  0  0  0  0  0  0  0  0  0  0
   13.9330    2.2240   24.4580 C   0  0  0  0  0  0  0  0  0  0  0  0
   11.1430   -1.0340   22.3360 C   0  0  0  0  0  0  0  0  0  0  0  0
   11.2410   -3.1990   21.3970 C   0  0  0  0  0  0  0  0  0  0  0  0
   13.0650   -1.7090   21.1760 C   0  0  0  0  0  0  0  0  0  0  0  0
    7.1400    2.1780   18.3320 C   0  0  0  0  0  0  0  0  0  0  0  0
    7.7690    0.1100   19.0450 C   0  0  0  0  0  0  0  0  0  0  0  0
   14.2720    3.4570   25.1130 C   0  0  0  0  0  0  0  0  0  0  0  0
   14.4770    1.9500   23.1640 C   0  0  0  0  0  0  0  0  0  0  0  0
    6.9650    1.6400   20.6940 C   0  0  0  0  0  0  0  0  0  0  0  0
   10.4940   -2.2850   22.0910 C   0  0  0  0  0  0  0  0  0  0  0  0
    7.5400    0.3880   20.4060 C   0  0  0  0  0  0  0  0  0  0  0  0
   14.9990    4.3870   24.5170 C   0  0  0  0  0  0  0  0  0  0  0  0
   12.3730   -0.7220   21.8790 C   0  0  0  0  0  0  0  0  0  0  0  0
   12.5010   -2.9520   20.8990 C   0  0  0  0  0  0  0  0  0  0  0  0
    8.1930   -1.7690   21.3000 C   0  0  0  0  0  0  0  0  0  0  0  0
   13.8150    4.0060   26.4140 C   0  0  1  0  0  0  0  0  0  0  0  0
   14.4060    5.4130   26.4570 C   0  0  1  0  0  0  0  0  0  0  0  0
    6.6110    2.1210   22.0810 C   0  0  0  0  0  0  0  0  0  0  0  0
   12.2790    3.9150   26.5780 C   0  0  0  0  0  0  0  0  0  0  0  0
   15.2250    5.7400   27.7180 C   0  0  0  0  0  0  0  0  0  0  0  0
    9.0280   -2.5010   22.3770 C   0  0  0  0  0  0  0  0  0  0  0  0
   14.2490    0.6320   22.5430 C   0  0  0  0  0  0  0  0  0  0  0  0
    7.6040    0.9300   18.0090 N   0  0  0  0  0  0  0  0  0  0  0  0
    7.8100   -0.4840   21.4950 N   0  0  0  0  0  0  0  0  0  0  0  0
    7.7300   -2.4480   20.4090 O   0  0  0  0  0  0  0  0  0  0  0  0
   15.1380    5.5440   25.2420 O   0  0  0  0  0  0  0  0  0  0  0  0
   12.8800    0.4560   22.3850 O   0  0  0  0  0  0  0  0  0  0  0  0
   13.4160   -4.1610   20.0640 Cl  0  0  0  0  0  0  0  0  0  0  0  0
   15.7360    2.8050   21.5940 H   0  0  0  0  0  0  0  0  0  0  0  0
   16.1010    5.0030   22.7360 H   0  0  0  0  0  0  0  0  0  0  0  0
    6.5250    3.5990   19.7920 H   0  0  0  0  0  0  0  0  0  0  0  0
   13.1990    1.5310   24.8500 H   0  0  0  0  0  0  0  0  0  0  0  0
   10.6290   -0.3230   22.9770 H   0  0  0  0  0  0  0  0  0  0  0  0
   10.7650   -4.1760   21.3040 H   0  0  0  0  0  0  0  0  0  0  0  0
   14.0950   -1.5080   20.9160 H   0  0  0  0  0  0  0  0  0  0  0  0
    7.0020    2.9520   17.5750 H   0  0  0  0  0  0  0  0  0  0  0  0
    8.2990   -0.7840   18.7240 H   0  0  0  0  0  0  0  0  0  0  0  0
   14.2130    3.4290   27.2590 H   0  0  0  0  0  0  0  0  0  0  0  0
   13.6100    6.1580   26.4990 H   0  0  0  0  0  0  0  0  0  0  0  0
    6.6410    1.3930   22.9010 H   0  0  0  0  0  0  0  0  0  0  0  0
    7.3250    2.9030   22.3580 H   0  0  0  0  0  0  0  0  0  0  0  0
    5.5820    2.4830   22.0730 H   0  0  0  0  0  0  0  0  0  0  0  0
   11.8100    4.5060   25.7800 H   0  0  0  0  0  0  0  0  0  0  0  0
   11.8810    2.9070   26.6350 H   0  0  0  0  0  0  0  0  0  0  0  0
   12.0500    4.3690   27.5530 H   0  0  0  0  0  0  0  0  0  0  0  0
   15.7980    6.6720   27.6680 H   0  0  0  0  0  0  0  0  0  0  0  0
   14.4880    5.7520   28.5320 H   0  0  0  0  0  0  0  0  0  0  0  0
   15.9510    4.9350   27.8560 H   0  0  0  0  0  0  0  0  0  0  0  0
    8.7010   -3.5380   22.2650 H   0  0  0  0  0  0  0  0  0  0  0  0
    8.7210   -2.0600   23.3320 H   0  0  0  0  0  0  0  0  0  0  0  0
   14.6810    0.6020   21.5370 H   0  0  0  0  0  0  0  0  0  0  0  0
   14.6860   -0.1750   23.1370 H   0  0  0  0  0  0  0  0  0  0  0  0
    8.1530   -0.0810   22.3670 H   0  0  0  0  0  0  0  0  0  0  0  0
  8 39  1  0  0  0  0
  8 26  2  0  0  0  0
  9 26  1  0  0  0  0
  3  8  1  0  0  0  0
  9 40  1  0  0  0  0
  9 14  2  0  0  0  0
  3 34  1  0  0  0  0
  3 12  2  0  0  0  0
 17 31  1  0  0  0  0
 12 14  1  0  0  0  0
 14 27  1  0  0  0  0
 18 28  2  0  0  0  0
 12 21  1  0  0  0  0
  7 17  2  0  0  0  0
  6 17  1  0  0  0  0
  7 38  1  0  0  0  0
  7 16  1  0  0  0  0
 18 27  1  0  0  0  0
 18 24  1  0  0  0  0
  6 37  1  0  0  0  0
  6 13  2  0  0  0  0
 27 56  1  0  0  0  0
 25 54  1  0  0  0  0
  1 32  1  0  0  0  0
  5 16  2  0  0  0  0
 16 30  1  0  0  0  0
 21 45  1  0  0  0  0
 21 44  1  0  0  0  0
 21 43  1  0  0  0  0
  5 13  1  0  0  0  0
 13 24  1  0  0  0  0
 24 52  1  0  0  0  0
  5 36  1  0  0  0  0
 24 53  1  0  0  0  0
 25 30  1  0  0  0  0
  1 11  2  0  0  0  0
  1  2  1  0  0  0  0
 25 55  1  0  0  0  0
 11 25  1  0  0  0  0
  2 33  1  0  0  0  0
  4 11  1  0  0  0  0
  2 15  2  0  0  0  0
  4 35  1  0  0  0  0
  4 10  2  0  0  0  0
 10 15  1  0  0  0  0
 15 29  1  0  0  0  0
 10 19  1  0  0  0  0
 20 29  1  0  0  0  0
 22 46  1  0  0  0  0
 19 20  1  0  0  0  0
 19 22  1  0  0  0  0
 19 41  1  0  0  0  0
 20 42  1  0  0  0  0
 20 23  1  0  0  0  0
 22 47  1  0  0  0  0
 22 48  1  0  0  0  0
 23 49  1  0  0  0  0
 23 51  1  0  0  0  0
 23 50  1  0  0  0  0
M  END
> <CID>
EN300-1653517

> <SMILES>
Cc1ccncc1NC(=O)Cc2cc(cc(c2)Cl)OCc3ccc4c(c3)[C@@H]([C@@H](O4)C)C

> <RUN>
RUN1588

> <DDG (kcal/mol)>
-0.09

> <dDDG (kcal/mol)>
0.14

$$$$
EN300-28768
  -OEChem-08252008263D

 50 53  0     0  0  0  0  0  0999 V2000
   14.2100   11.0880   22.0760 C   0  0  0  0  0  0  0  0  0  0  0  0
   13.7100   11.3200   23.3090 C   0  0  0  0  0  0  0  0  0  0  0  0
   14.0280    9.8160   21.4610 C   0  0  0  0  0  0  0  0  0  0  0  0
   13.0660   10.2880   24.0090 C   0  0  0  0  0  0  0  0  0  0  0  0
    4.8160    1.8660   19.5360 C   0  0  0  0  0  0  0  0  0  0  0  0
   12.0960    2.6480   22.7680 C   0  0  0  0  0  0  0  0  0  0  0  0
   12.3170    0.3150   22.3270 C   0  0  0  0  0  0  0  0  0  0  0  0
   14.2180    1.8050   22.0160 C   0  0  0  0  0  0  0  0  0  0  0  0
    5.3120    1.5040   18.3110 C   0  0  0  0  0  0  0  0  0  0  0  0
    7.2730    0.8850   19.2340 C   0  0  0  0  0  0  0  0  0  0  0  0
    5.6140    1.7420   20.7220 C   0  0  0  0  0  0  0  0  0  0  0  0
   11.5260    1.4000   22.6990 C   0  0  0  0  0  0  0  0  0  0  0  0
   13.4680    8.7110   22.1550 C   0  0  0  0  0  0  0  0  0  0  0  0
   12.9740    8.9520   23.4570 C   0  0  0  0  0  0  0  0  0  0  0  0
    6.9470    1.3580   20.5240 C   0  0  0  0  0  0  0  0  0  0  0  0
   13.4230    2.9490   22.3950 C   0  0  0  0  0  0  0  0  0  0  0  0
   13.7020    0.5040   21.9770 C   0  0  0  0  0  0  0  0  0  0  0  0
   13.0410    6.4570   22.1490 C   0  0  0  0  0  0  0  0  0  0  0  0
   12.4290    6.6560   23.4880 C   0  0  0  0  0  0  0  0  0  0  0  0
    9.1200    1.6450   21.7070 C   0  0  0  0  0  0  0  0  0  0  0  0
    5.0010    2.1950   22.0540 C   0  0  0  0  0  0  0  0  0  0  0  0
   10.0360    1.2340   22.8850 C   0  0  0  0  0  0  0  0  0  0  0  0
   13.1470    5.1230   21.4650 C   0  0  0  0  0  0  0  0  0  0  0  0
    6.5000    0.9350   18.1470 N   0  0  0  0  0  0  0  0  0  0  0  0
   13.4180    7.4990   21.4500 N   0  0  0  0  0  0  0  0  0  0  0  0
   12.4170    7.8560   24.1490 N   0  0  0  0  0  0  0  0  0  0  0  0
    7.7760    1.3760   21.6490 N   0  0  0  0  0  0  0  0  0  0  0  0
   11.7480    5.8650   23.9930 O   0  0  0  0  0  0  0  0  0  0  0  0
    9.6240    2.0370   20.6690 O   0  0  0  0  0  0  0  0  0  0  0  0
   13.9010    4.2520   22.2660 O   0  0  0  0  0  0  0  0  0  0  0  0
   14.6250   -0.8420   21.4440 Cl  0  0  0  0  0  0  0  0  0  0  0  0
   14.6900   11.9280   21.5910 H   0  0  0  0  0  0  0  0  0  0  0  0
   13.7810   12.3770   23.5570 H   0  0  0  0  0  0  0  0  0  0  0  0
   14.4840    9.7400   20.4720 H   0  0  0  0  0  0  0  0  0  0  0  0
   12.7910   10.4680   25.0490 H   0  0  0  0  0  0  0  0  0  0  0  0
    3.8010    2.2580   19.6260 H   0  0  0  0  0  0  0  0  0  0  0  0
   11.3440    3.3630   23.0700 H   0  0  0  0  0  0  0  0  0  0  0  0
   11.9240   -0.6990   22.2820 H   0  0  0  0  0  0  0  0  0  0  0  0
   15.2650    2.0040   21.8290 H   0  0  0  0  0  0  0  0  0  0  0  0
    4.6600    1.6130   17.4570 H   0  0  0  0  0  0  0  0  0  0  0  0
    8.2760    0.5080   19.0580 H   0  0  0  0  0  0  0  0  0  0  0  0
    4.9680    1.2410   22.5980 H   0  0  0  0  0  0  0  0  0  0  0  0
    5.6030    3.0070   22.4820 H   0  0  0  0  0  0  0  0  0  0  0  0
    4.0190    2.6720   22.0030 H   0  0  0  0  0  0  0  0  0  0  0  0
    9.8020    0.2140   23.2040 H   0  0  0  0  0  0  0  0  0  0  0  0
    9.6800    1.8320   23.7430 H   0  0  0  0  0  0  0  0  0  0  0  0
   13.5080    5.1490   20.4310 H   0  0  0  0  0  0  0  0  0  0  0  0
   12.1290    4.7260   21.3070 H   0  0  0  0  0  0  0  0  0  0  0  0
   11.9690    7.9390   25.0580 H   0  0  0  0  0  0  0  0  0  0  0  0
    7.3260    1.3510   22.5700 H   0  0  0  0  0  0  0  0  0  0  0  0
  9 40  1  0  0  0  0
  9 24  2  0  0  0  0
 10 24  1  0  0  0  0
  5  9  1  0  0  0  0
 10 41  1  0  0  0  0
 10 15  2  0  0  0  0
  5 36  1  0  0  0  0
  5 11  2  0  0  0  0
 23 47  1  0  0  0  0
  3 34  1  0  0  0  0
 11 15  1  0  0  0  0
 15 27  1  0  0  0  0
 20 29  2  0  0  0  0
 11 21  1  0  0  0  0
 23 48  1  0  0  0  0
 17 31  1  0  0  0  0
 18 25  2  0  0  0  0
 13 25  1  0  0  0  0
  1  3  2  0  0  0  0
  3 13  1  0  0  0  0
 18 23  1  0  0  0  0
 23 30  1  0  0  0  0
  1 32  1  0  0  0  0
 20 27  1  0  0  0  0
 27 50  1  0  0  0  0
 20 22  1  0  0  0  0
  8 39  1  0  0  0  0
  8 17  2  0  0  0  0
  7 17  1  0  0  0  0
 21 44  1  0  0  0  0
  8 16  1  0  0  0  0
 21 43  1  0  0  0  0
 21 42  1  0  0  0  0
  1  2  1  0  0  0  0
 18 19  1  0  0  0  0
 13 14  2  0  0  0  0
 16 30  1  0  0  0  0
  7 38  1  0  0  0  0
  7 12  2  0  0  0  0
  6 16  2  0  0  0  0
  6 12  1  0  0  0  0
 12 22  1  0  0  0  0
  6 37  1  0  0  0  0
 22 45  1  0  0  0  0
 22 46  1  0  0  0  0
  2 33  1  0  0  0  0
  2  4  2  0  0  0  0
  4 14  1  0  0  0  0
 14 26  1  0  0  0  0
 19 28  2  0  0  0  0
 19 26  1  0  0  0  0
  4 35  1  0  0  0  0
 26 49  1  0  0  0  0
M  END
> <CID>
EN300-28768

> <SMILES>
Cc1ccncc1NC(=O)Cc2cc(cc(c2)Cl)OCc3c(=O)[nH]c4ccccc4n3

> <RUN>
RUN3274

> <DDG (kcal/mol)>
-0.09

> <dDDG (kcal/mol)>
0.15

$$$$
EN300-6245933
  -OEChem-08252008263D

 43 45  0     0  0  0  0  0  0999 V2000
    6.4780    2.0600   19.7460 C   0  0  0  0  0  0  0  0  0  0  0  0
   10.6630   -1.5110   23.2950 C   0  0  0  0  0  0  0  0  0  0  0  0
   12.0100   -2.4280   21.5130 C   0  0  0  0  0  0  0  0  0  0  0  0
   13.0360   -1.0030   23.0840 C   0  0  0  0  0  0  0  0  0  0  0  0
    6.1520    1.7670   18.4080 C   0  0  0  0  0  0  0  0  0  0  0  0
    7.4130   -0.1750   18.5560 C   0  0  0  0  0  0  0  0  0  0  0  0
   12.5960    3.0270   24.9610 C   0  0  0  0  0  0  0  0  0  0  0  0
   12.2990    3.8020   22.4620 C   0  0  0  0  0  0  0  0  0  0  0  0
    7.2300    1.1980   20.5270 C   0  0  0  0  0  0  0  0  0  0  0  0
   10.8050   -2.2880   22.1590 C   0  0  0  0  0  0  0  0  0  0  0  0
    7.7800    0.0520   19.8920 C   0  0  0  0  0  0  0  0  0  0  0  0
   11.7670   -0.8260   23.7660 C   0  0  0  0  0  0  0  0  0  0  0  0
   13.2090   -1.7650   21.9470 C   0  0  0  0  0  0  0  0  0  0  0  0
   11.7060    2.3650   24.0790 C   0  0  0  0  0  0  0  0  0  0  0  0
   13.1690    4.5410   23.3090 C   0  0  0  0  0  0  0  0  0  0  0  0
    8.6970   -2.1220   20.6510 C   0  0  0  0  0  0  0  0  0  0  0  0
    7.5330    1.4030   21.9930 C   0  0  0  0  0  0  0  0  0  0  0  0
    9.6180   -2.9690   21.5510 C   0  0  0  0  0  0  0  0  0  0  0  0
   10.8960    1.2850   24.6200 C   0  0  0  0  0  0  0  0  0  0  0  0
    6.6070    0.6810   17.8200 N   0  0  0  0  0  0  0  0  0  0  0  0
   11.5800    2.7140   22.8180 N   0  0  0  0  0  0  0  0  0  0  0  0
   13.2880    4.1810   24.5910 N   0  0  0  0  0  0  0  0  0  0  0  0
    8.7520   -0.7500   20.5290 N   0  0  0  0  0  0  0  0  0  0  0  0
    7.6700   -2.6900   20.2150 O   0  0  0  0  0  0  0  0  0  0  0  0
   11.6800    0.1350   24.7950 O   0  0  0  0  0  0  0  0  0  0  0  0
   14.7040   -1.8940   21.1420 Cl  0  0  0  0  0  0  0  0  0  0  0  0
   14.3090    5.8830   22.5520 Br  0  0  0  0  0  0  0  0  0  0  0  0
    6.0400    2.9540   20.1720 H   0  0  0  0  0  0  0  0  0  0  0  0
    9.7050   -1.4160   23.7850 H   0  0  0  0  0  0  0  0  0  0  0  0
   12.0820   -2.9470   20.5690 H   0  0  0  0  0  0  0  0  0  0  0  0
   13.8680   -0.3980   23.4300 H   0  0  0  0  0  0  0  0  0  0  0  0
    5.6540    2.5410   17.8370 H   0  0  0  0  0  0  0  0  0  0  0  0
    7.9230   -0.9450   17.9870 H   0  0  0  0  0  0  0  0  0  0  0  0
   12.6130    2.7720   26.0170 H   0  0  0  0  0  0  0  0  0  0  0  0
   12.2660    4.0000   21.3940 H   0  0  0  0  0  0  0  0  0  0  0  0
    7.4500    0.5100   22.6110 H   0  0  0  0  0  0  0  0  0  0  0  0
    8.5720    1.7200   22.1340 H   0  0  0  0  0  0  0  0  0  0  0  0
    6.9070    2.2060   22.3940 H   0  0  0  0  0  0  0  0  0  0  0  0
   10.0090   -3.8360   21.0170 H   0  0  0  0  0  0  0  0  0  0  0  0
    9.1050   -3.4490   22.3860 H   0  0  0  0  0  0  0  0  0  0  0  0
   10.3670    1.6670   25.4940 H   0  0  0  0  0  0  0  0  0  0  0  0
   10.1730    1.0260   23.8370 H   0  0  0  0  0  0  0  0  0  0  0  0
    9.5370   -0.2790   20.9860 H   0  0  0  0  0  0  0  0  0  0  0  0
  5 20  2  0  0  0  0
  6 20  1  0  0  0  0
  5 32  1  0  0  0  0
  6 33  1  0  0  0  0
  1  5  1  0  0  0  0
  6 11  2  0  0  0  0
  1 28  1  0  0  0  0
  1  9  2  0  0  0  0
  9 11  1  0  0  0  0
 11 23  1  0  0  0  0
 16 24  2  0  0  0  0
  9 17  1  0  0  0  0
 16 23  1  0  0  0  0
 23 43  1  0  0  0  0
  3 30  1  0  0  0  0
 16 18  1  0  0  0  0
 18 39  1  0  0  0  0
 13 26  1  0  0  0  0
  8 35  1  0  0  0  0
  3 13  2  0  0  0  0
  3 10  1  0  0  0  0
 10 18  1  0  0  0  0
 18 40  1  0  0  0  0
  4 13  1  0  0  0  0
 17 37  1  0  0  0  0
 17 38  1  0  0  0  0
 17 36  1  0  0  0  0
  2 10  2  0  0  0  0
  8 21  2  0  0  0  0
  8 15  1  0  0  0  0
 15 27  1  0  0  0  0
 14 21  1  0  0  0  0
  4 31  1  0  0  0  0
  4 12  2  0  0  0  0
  2 12  1  0  0  0  0
  2 29  1  0  0  0  0
 15 22  2  0  0  0  0
 12 25  1  0  0  0  0
 19 42  1  0  0  0  0
 14 19  1  0  0  0  0
  7 14  2  0  0  0  0
  7 22  1  0  0  0  0
 19 25  1  0  0  0  0
 19 41  1  0  0  0  0
  7 34  1  0  0  0  0
M  END
> <CID>
EN300-6245933

> <SMILES>
Cc1ccncc1NC(=O)Cc2cc(cc(c2)Cl)OCc3cnc(cn3)Br

> <RUN>
RUN3059

> <DDG (kcal/mol)>
-0.09

> <dDDG (kcal/mol)>
0.12

$$$$
EN300-260177
  -OEChem-08252008263D

 45 47  0     0  0  0  0  0  0999 V2000
   10.2580    4.9210   23.1730 C   0  0  0  0  0  0  0  0  0  0  0  0
   11.2400    3.8560   23.1410 C   0  0  0  0  0  0  0  0  0  0  0  0
    6.4150    2.0750   19.5000 C   0  0  0  0  0  0  0  0  0  0  0  0
   11.4390    0.6860   24.1050 C   0  0  0  0  0  0  0  0  0  0  0  0
   11.8890   -1.2320   22.6770 C   0  0  0  0  0  0  0  0  0  0  0  0
   11.7470    4.4080   25.4470 C   0  0  0  0  0  0  0  0  0  0  0  0
   13.5330    0.5700   23.1260 C   0  0  0  0  0  0  0  0  0  0  0  0
    6.7200    1.3310   18.3980 C   0  0  0  0  0  0  0  0  0  0  0  0
    8.0850   -0.0320   19.6210 C   0  0  0  0  0  0  0  0  0  0  0  0
   10.0830    5.7360   24.2730 C   0  0  0  0  0  0  0  0  0  0  0  0
    7.0390    1.8220   20.6650 C   0  0  0  0  0  0  0  0  0  0  0  0
   11.0190   -0.5370   23.5000 C   0  0  0  0  0  0  0  0  0  0  0  0
    7.8560    0.6490   20.8140 C   0  0  0  0  0  0  0  0  0  0  0  0
   11.9600    3.5470   24.3400 C   0  0  0  0  0  0  0  0  0  0  0  0
   12.6130    1.3140   23.8350 C   0  0  0  0  0  0  0  0  0  0  0  0
   13.2100   -0.7300   22.6080 C   0  0  0  0  0  0  0  0  0  0  0  0
   10.8030    5.4470   25.4820 C   0  0  0  0  0  0  0  0  0  0  0  0
    8.8060   -0.8650   22.4020 C   0  0  0  0  0  0  0  0  0  0  0  0
    6.7960    2.7780   21.8420 C   0  0  0  0  0  0  0  0  0  0  0  0
    9.5890   -1.0230   23.7110 C   0  0  0  0  0  0  0  0  0  0  0  0
    9.0620    6.8390   24.2180 C   0  0  0  0  0  0  0  0  0  0  0  0
    7.4810    0.2280   18.4620 N   0  0  0  0  0  0  0  0  0  0  0  0
    8.4450    0.4010   22.0200 N   0  0  0  0  0  0  0  0  0  0  0  0
    8.5660   -1.8410   21.6670 O   0  0  0  0  0  0  0  0  0  0  0  0
   12.9490    2.5700   24.4220 O   0  0  0  0  0  0  0  0  0  0  0  0
   14.4770   -1.5670   21.6490 Cl  0  0  0  0  0  0  0  0  0  0  0  0
   10.4610    6.3650   26.9660 Cl  0  0  0  0  0  0  0  0  0  0  0  0
    9.7080    8.1990   23.0160 Br  0  0  0  0  0  0  0  0  0  0  0  0
    9.7750    5.2100   22.2430 H   0  0  0  0  0  0  0  0  0  0  0  0
   11.4150    3.2410   22.2640 H   0  0  0  0  0  0  0  0  0  0  0  0
    5.6500    2.8250   19.3430 H   0  0  0  0  0  0  0  0  0  0  0  0
   10.7350    1.1120   24.8140 H   0  0  0  0  0  0  0  0  0  0  0  0
   11.5800   -2.1180   22.1260 H   0  0  0  0  0  0  0  0  0  0  0  0
   12.3440    4.3340   26.3640 H   0  0  0  0  0  0  0  0  0  0  0  0
   14.5040    1.0450   23.0380 H   0  0  0  0  0  0  0  0  0  0  0  0
    6.2040    1.5340   17.4600 H   0  0  0  0  0  0  0  0  0  0  0  0
    8.9070   -0.7480   19.5950 H   0  0  0  0  0  0  0  0  0  0  0  0
    7.7120    3.1860   22.2650 H   0  0  0  0  0  0  0  0  0  0  0  0
    6.2430    3.6590   21.4970 H   0  0  0  0  0  0  0  0  0  0  0  0
    6.2480    2.3080   22.6710 H   0  0  0  0  0  0  0  0  0  0  0  0
    9.5330   -2.0710   24.0090 H   0  0  0  0  0  0  0  0  0  0  0  0
    9.1080   -0.3790   24.4630 H   0  0  0  0  0  0  0  0  0  0  0  0
    8.8820    7.2610   25.2060 H   0  0  0  0  0  0  0  0  0  0  0  0
    8.1260    6.4230   23.8510 H   0  0  0  0  0  0  0  0  0  0  0  0
    8.4790    1.1880   22.6740 H   0  0  0  0  0  0  0  0  0  0  0  0
  8 36  1  0  0  0  0
  8 22  2  0  0  0  0
  3  8  1  0  0  0  0
  9 22  1  0  0  0  0
  3 31  1  0  0  0  0
  3 11  2  0  0  0  0
  9 37  1  0  0  0  0
  9 13  2  0  0  0  0
 11 13  1  0  0  0  0
 11 19  1  0  0  0  0
 13 23  1  0  0  0  0
 19 39  1  0  0  0  0
 16 26  1  0  0  0  0
 18 24  2  0  0  0  0
 19 38  1  0  0  0  0
 19 40  1  0  0  0  0
 18 23  1  0  0  0  0
 23 45  1  0  0  0  0
  5 33  1  0  0  0  0
  1 29  1  0  0  0  0
  2 30  1  0  0  0  0
 18 20  1  0  0  0  0
  5 16  2  0  0  0  0
  7 16  1  0  0  0  0
  5 12  1  0  0  0  0
 21 28  1  0  0  0  0
  7 35  1  0  0  0  0
  7 15  2  0  0  0  0
  1  2  2  0  0  0  0
  2 14  1  0  0  0  0
  1 10  1  0  0  0  0
 12 20  1  0  0  0  0
  4 12  2  0  0  0  0
 20 41  1  0  0  0  0
 20 42  1  0  0  0  0
  4 15  1  0  0  0  0
 15 25  1  0  0  0  0
 21 44  1  0  0  0  0
  4 32  1  0  0  0  0
 10 21  1  0  0  0  0
 21 43  1  0  0  0  0
 10 17  2  0  0  0  0
 14 25  1  0  0  0  0
  6 14  2  0  0  0  0
  6 17  1  0  0  0  0
  6 34  1  0  0  0  0
 17 27  1  0  0  0  0
M  END
> <CID>
EN300-260177

> <SMILES>
Cc1ccncc1NC(=O)Cc2cc(cc(c2)Cl)Oc3ccc(c(c3)Cl)CBr

> <RUN>
RUN1848

> <DDG (kcal/mol)>
-0.09

> <dDDG (kcal/mol)>
0.12

$$$$
EN300-1296576
  -OEChem-08252008263D

 56 59  0     0  0  0  0  0  0999 V2000
   11.6780    5.8010   26.8940 C   0  0  0  0  0  0  0  0  0  0  0  0
   12.3660    8.1070   26.9030 C   0  0  0  0  0  0  0  0  0  0  0  0
   10.7540    5.9960   27.9220 C   0  0  0  0  0  0  0  0  0  0  0  0
   11.4380    8.2770   27.9110 C   0  0  0  0  0  0  0  0  0  0  0  0
    5.1930    0.6490   19.2060 C   0  0  0  0  0  0  0  0  0  0  0  0
   11.9380    1.1340   22.9330 C   0  0  0  0  0  0  0  0  0  0  0  0
   12.7160   -1.0550   22.4300 C   0  0  0  0  0  0  0  0  0  0  0  0
   14.2930    0.7100   22.7980 C   0  0  0  0  0  0  0  0  0  0  0  0
    5.7770    0.7430   17.9860 C   0  0  0  0  0  0  0  0  0  0  0  0
   14.6240    7.1530   23.5010 C   0  0  0  0  0  0  0  0  0  0  0  0
    7.8470    0.0220   18.8660 C   0  0  0  0  0  0  0  0  0  0  0  0
   13.3720    5.5040   24.4360 C   0  0  0  0  0  0  0  0  0  0  0  0
    5.9200    0.3560   20.3620 C   0  0  0  0  0  0  0  0  0  0  0  0
   11.6050   -0.2100   22.7040 C   0  0  0  0  0  0  0  0  0  0  0  0
   14.0970    5.8040   23.2900 C   0  0  0  0  0  0  0  0  0  0  0  0
   12.4720    6.8310   26.2680 C   0  0  0  0  0  0  0  0  0  0  0  0
    7.2850    0.0760   20.1750 C   0  0  0  0  0  0  0  0  0  0  0  0
   10.6310    7.2660   28.4470 C   0  0  0  0  0  0  0  0  0  0  0  0
   13.2480    1.6180   22.9710 C   0  0  0  0  0  0  0  0  0  0  0  0
   14.0330   -0.6410   22.5390 C   0  0  0  0  0  0  0  0  0  0  0  0
    9.4130    0.0440   21.4840 C   0  0  0  0  0  0  0  0  0  0  0  0
    5.2400    0.3250   21.7170 C   0  0  0  0  0  0  0  0  0  0  0  0
   10.1700   -0.6200   22.6320 C   0  0  0  0  0  0  0  0  0  0  0  0
   14.4480    4.8920   22.1000 C   0  0  0  0  0  0  0  0  0  0  0  0
   13.6220    3.6660   21.8930 C   0  0  0  0  0  0  0  0  0  0  0  0
    7.0740    0.3900   17.7460 N   0  0  0  0  0  0  0  0  0  0  0  0
   14.1980    7.6110   24.6470 N   0  0  0  0  0  0  0  0  0  0  0  0
   13.3660    6.6700   25.2290 N   0  0  0  0  0  0  0  0  0  0  0  0
    8.0300   -0.2220   21.3180 N   0  0  0  0  0  0  0  0  0  0  0  0
    9.8850    0.8870   20.7250 O   0  0  0  0  0  0  0  0  0  0  0  0
    9.8360    7.4530   29.5230 O   0  0  0  0  0  0  0  0  0  0  0  0
   13.5360    2.9670   23.1030 O   0  0  0  0  0  0  0  0  0  0  0  0
   15.3410   -1.8840   22.4190 Cl  0  0  0  0  0  0  0  0  0  0  0  0
   11.9140    4.8230   26.4840 H   0  0  0  0  0  0  0  0  0  0  0  0
   13.0150    8.8870   26.5280 H   0  0  0  0  0  0  0  0  0  0  0  0
   10.2800    5.1810   28.4660 H   0  0  0  0  0  0  0  0  0  0  0  0
   11.2110    9.2500   28.3200 H   0  0  0  0  0  0  0  0  0  0  0  0
    4.1750    1.0380   19.1680 H   0  0  0  0  0  0  0  0  0  0  0  0
   11.1710    1.9000   23.0280 H   0  0  0  0  0  0  0  0  0  0  0  0
   12.4620   -2.0990   22.2850 H   0  0  0  0  0  0  0  0  0  0  0  0
   15.3300    1.0230   22.8310 H   0  0  0  0  0  0  0  0  0  0  0  0
    5.1070    0.9550   17.1570 H   0  0  0  0  0  0  0  0  0  0  0  0
   15.3110    7.6150   22.7970 H   0  0  0  0  0  0  0  0  0  0  0  0
    8.9000   -0.1950   18.7350 H   0  0  0  0  0  0  0  0  0  0  0  0
   12.7910    4.6000   24.5350 H   0  0  0  0  0  0  0  0  0  0  0  0
    5.2940   -0.6870   22.1370 H   0  0  0  0  0  0  0  0  0  0  0  0
    5.7180    1.0020   22.4460 H   0  0  0  0  0  0  0  0  0  0  0  0
    4.1780    0.5170   21.6240 H   0  0  0  0  0  0  0  0  0  0  0  0
   10.1690   -1.7060   22.4980 H   0  0  0  0  0  0  0  0  0  0  0  0
    9.6300   -0.4760   23.5690 H   0  0  0  0  0  0  0  0  0  0  0  0
   14.5680    5.4780   21.1810 H   0  0  0  0  0  0  0  0  0  0  0  0
   15.4650    4.5460   22.3040 H   0  0  0  0  0  0  0  0  0  0  0  0
   12.6190    3.8900   21.5170 H   0  0  0  0  0  0  0  0  0  0  0  0
   14.0920    3.0730   21.1060 H   0  0  0  0  0  0  0  0  0  0  0  0
    7.4170   -0.6660   21.9910 H   0  0  0  0  0  0  0  0  0  0  0  0
    9.1340    6.7960   29.6090 H   0  0  0  0  0  0  0  0  0  0  0  0
  9 42  1  0  0  0  0
  9 26  2  0  0  0  0
 11 26  1  0  0  0  0
  5  9  1  0  0  0  0
 11 44  1  0  0  0  0
 11 17  2  0  0  0  0
  5 38  1  0  0  0  0
  5 13  2  0  0  0  0
 13 17  1  0  0  0  0
 17 29  1  0  0  0  0
 13 22  1  0  0  0  0
 21 30  2  0  0  0  0
 25 54  1  0  0  0  0
 24 51  1  0  0  0  0
 21 29  1  0  0  0  0
 29 55  1  0  0  0  0
 21 23  1  0  0  0  0
 25 53  1  0  0  0  0
 22 48  1  0  0  0  0
 22 46  1  0  0  0  0
 22 47  1  0  0  0  0
 24 25  1  0  0  0  0
 25 32  1  0  0  0  0
 24 52  1  0  0  0  0
 15 24  1  0  0  0  0
  7 40  1  0  0  0  0
 20 33  1  0  0  0  0
  7 20  2  0  0  0  0
  7 14  1  0  0  0  0
 23 49  1  0  0  0  0
  8 20  1  0  0  0  0
 14 23  1  0  0  0  0
 23 50  1  0  0  0  0
  6 14  2  0  0  0  0
 10 43  1  0  0  0  0
  8 41  1  0  0  0  0
  8 19  2  0  0  0  0
  6 19  1  0  0  0  0
  6 39  1  0  0  0  0
 19 32  1  0  0  0  0
 10 15  1  0  0  0  0
 12 15  2  0  0  0  0
 10 27  2  0  0  0  0
 12 45  1  0  0  0  0
 12 28  1  0  0  0  0
 27 28  1  0  0  0  0
 16 28  1  0  0  0  0
  1 16  2  0  0  0  0
  2 16  1  0  0  0  0
  1 34  1  0  0  0  0
  2 35  1  0  0  0  0
  1  3  1  0  0  0  0
  2  4  2  0  0  0  0
  4 37  1  0  0  0  0
  4 18  1  0  0  0  0
  3 18  2  0  0  0  0
  3 36  1  0  0  0  0
 18 31  1  0  0  0  0
 31 56  1  0  0  0  0
M  END
> <CID>
EN300-1296576

> <SMILES>
Cc1ccncc1NC(=O)Cc2cc(cc(c2)Cl)OCCc3cnn(c3)c4ccc(cc4)O

> <RUN>
RUN4341

> <DDG (kcal/mol)>
-0.09

> <dDDG (kcal/mol)>
0.16

$$$$
EN300-26952
  -OEChem-08252008263D

 49 51  0     0  0  0  0  0  0999 V2000
   17.3100    4.6040   20.6690 C   0  0  0  0  0  0  0  0  0  0  0  0
   18.6960    4.4930   20.5730 C   0  0  0  0  0  0  0  0  0  0  0  0
    4.9590    1.8910   19.8120 C   0  0  0  0  0  0  0  0  0  0  0  0
   17.4520    6.8070   19.6580 C   0  0  0  0  0  0  0  0  0  0  0  0
   12.5590    3.0730   22.3690 C   0  0  0  0  0  0  0  0  0  0  0  0
   12.4840    0.6850   22.4690 C   0  0  0  0  0  0  0  0  0  0  0  0
   14.4380    1.6850   21.7190 C   0  0  0  0  0  0  0  0  0  0  0  0
    5.3290    1.1200   18.7180 C   0  0  0  0  0  0  0  0  0  0  0  0
    7.3230    0.5760   19.6940 C   0  0  0  0  0  0  0  0  0  0  0  0
   16.6510    5.8000   20.2480 C   0  0  0  0  0  0  0  0  0  0  0  0
    5.9060    2.1610   20.8370 C   0  0  0  0  0  0  0  0  0  0  0  0
   11.8330    1.9290   22.6040 C   0  0  0  0  0  0  0  0  0  0  0  0
   18.8220    6.6410   19.4440 C   0  0  0  0  0  0  0  0  0  0  0  0
    7.1800    1.5590   20.7730 C   0  0  0  0  0  0  0  0  0  0  0  0
   13.9510    3.0020   21.9560 C   0  0  0  0  0  0  0  0  0  0  0  0
   19.4880    5.4820   20.0050 C   0  0  0  0  0  0  0  0  0  0  0  0
   13.7270    0.5320   21.9900 C   0  0  0  0  0  0  0  0  0  0  0  0
   15.2030    6.0820   20.4680 C   0  0  0  0  0  0  0  0  0  0  0  0
    9.4950    1.5150   21.7280 C   0  0  0  0  0  0  0  0  0  0  0  0
    5.5200    3.0050   21.9550 C   0  0  0  0  0  0  0  0  0  0  0  0
   10.3660    2.0190   22.8420 C   0  0  0  0  0  0  0  0  0  0  0  0
   14.2330    5.1250   20.9760 C   0  0  0  0  0  0  0  0  0  0  0  0
    6.4390    0.3850   18.7390 N   0  0  0  0  0  0  0  0  0  0  0  0
    8.1260    1.9210   21.6970 N   0  0  0  0  0  0  0  0  0  0  0  0
   19.4950    7.4540   18.4500 N   0  0  0  0  0  0  0  0  0  0  0  0
   14.7700    7.1480   20.0070 O   0  0  0  0  0  0  0  0  0  0  0  0
    9.8920    0.7700   20.8630 O   0  0  0  0  0  0  0  0  0  0  0  0
   19.2040    8.6720   18.4550 O   0  0  0  0  0  0  0  0  0  0  0  0
   20.3280    6.8610   17.7100 O   0  0  0  0  0  0  0  0  0  0  0  0
   14.7730    4.0760   21.7750 O   0  0  0  0  0  0  0  0  0  0  0  0
   21.2460    5.3790   19.9490 Cl  0  0  0  0  0  0  0  0  0  0  0  0
   14.2950   -1.0610   21.4840 Cl  0  0  0  0  0  0  0  0  0  0  0  0
   16.9670    3.6590   21.0740 H   0  0  0  0  0  0  0  0  0  0  0  0
   19.2630    3.6120   20.8520 H   0  0  0  0  0  0  0  0  0  0  0  0
    3.9930    2.3910   19.8060 H   0  0  0  0  0  0  0  0  0  0  0  0
   16.9430    7.6960   19.2990 H   0  0  0  0  0  0  0  0  0  0  0  0
   12.0360    4.0270   22.3110 H   0  0  0  0  0  0  0  0  0  0  0  0
   11.8080   -0.1480   22.6210 H   0  0  0  0  0  0  0  0  0  0  0  0
   15.4650    1.6100   21.3640 H   0  0  0  0  0  0  0  0  0  0  0  0
    4.7150    1.0980   17.8190 H   0  0  0  0  0  0  0  0  0  0  0  0
    8.2060   -0.0350   19.5530 H   0  0  0  0  0  0  0  0  0  0  0  0
    4.4430    3.1480   21.9130 H   0  0  0  0  0  0  0  0  0  0  0  0
    5.8000    2.6640   22.9580 H   0  0  0  0  0  0  0  0  0  0  0  0
    6.0040    3.9650   21.7710 H   0  0  0  0  0  0  0  0  0  0  0  0
   10.2240    1.4840   23.7810 H   0  0  0  0  0  0  0  0  0  0  0  0
   10.2060    3.0790   23.0640 H   0  0  0  0  0  0  0  0  0  0  0  0
   13.6350    4.7250   20.1590 H   0  0  0  0  0  0  0  0  0  0  0  0
   13.5450    5.6270   21.6540 H   0  0  0  0  0  0  0  0  0  0  0  0
    7.9060    2.7220   22.2970 H   0  0  0  0  0  0  0  0  0  0  0  0
 25 29  2  0  0  0  0
  8 40  1  0  0  0  0
 25 28  2  0  0  0  0
 13 25  1  0  0  0  0
  8 23  2  0  0  0  0
  3  8  1  0  0  0  0
  9 23  1  0  0  0  0
  4 36  1  0  0  0  0
  4 13  2  0  0  0  0
 13 16  1  0  0  0  0
  9 41  1  0  0  0  0
  4 10  1  0  0  0  0
  9 14  2  0  0  0  0
  3 35  1  0  0  0  0
  3 11  2  0  0  0  0
 16 31  1  0  0  0  0
  2 16  2  0  0  0  0
 18 26  2  0  0  0  0
 22 47  1  0  0  0  0
 10 18  1  0  0  0  0
  1 10  2  0  0  0  0
 18 22  1  0  0  0  0
  1  2  1  0  0  0  0
  2 34  1  0  0  0  0
  1 33  1  0  0  0  0
 11 14  1  0  0  0  0
 14 24  1  0  0  0  0
 11 20  1  0  0  0  0
 19 27  2  0  0  0  0
 22 48  1  0  0  0  0
 22 30  1  0  0  0  0
  7 39  1  0  0  0  0
 17 32  1  0  0  0  0
 19 24  1  0  0  0  0
 24 49  1  0  0  0  0
  7 15  2  0  0  0  0
  7 17  1  0  0  0  0
 19 21  1  0  0  0  0
 20 44  1  0  0  0  0
 15 30  1  0  0  0  0
 20 42  1  0  0  0  0
 20 43  1  0  0  0  0
  5 15  1  0  0  0  0
  6 17  2  0  0  0  0
  5 37  1  0  0  0  0
  5 12  2  0  0  0  0
  6 12  1  0  0  0  0
  6 38  1  0  0  0  0
 12 21  1  0  0  0  0
 21 46  1  0  0  0  0
 21 45  1  0  0  0  0
M  END
> <CID>
EN300-26952

> <SMILES>
Cc1ccncc1NC(=O)Cc2cc(cc(c2)Cl)OCC(=O)c3ccc(c(c3)N(=O)=O)Cl

> <RUN>
RUN4419

> <DDG (kcal/mol)>
-0.08

> <dDDG (kcal/mol)>
0.20

$$$$
EN300-1132820
  -OEChem-08252008263D

 59 62  0     1  0  0  0  0  0999 V2000
   10.9530    5.6390   23.4830 C   0  0  0  0  0  0  0  0  0  0  0  0
   10.6980    6.4620   24.6650 C   0  0  0  0  0  0  0  0  0  0  0  0
   11.6180    4.4370   23.5300 C   0  0  0  0  0  0  0  0  0  0  0  0
    4.7730    1.9820   18.3470 C   0  0  0  0  0  0  0  0  0  0  0  0
   11.6140    4.7000   25.9350 C   0  0  0  0  0  0  0  0  0  0  0  0
   10.8110    1.4120   23.4410 C   0  0  0  0  0  0  0  0  0  0  0  0
   11.4800   -0.3630   21.9200 C   0  0  0  0  0  0  0  0  0  0  0  0
   13.1360    0.9300   23.1170 C   0  0  0  0  0  0  0  0  0  0  0  0
    5.1610    1.3860   17.1660 C   0  0  0  0  0  0  0  0  0  0  0  0
    7.0880    0.7080   18.2680 C   0  0  0  0  0  0  0  0  0  0  0  0
   11.0490    5.9510   25.9100 C   0  0  0  0  0  0  0  0  0  0  0  0
    5.5140    1.9500   19.4690 C   0  0  0  0  0  0  0  0  0  0  0  0
   10.4390    0.3930   22.5430 C   0  0  0  0  0  0  0  0  0  0  0  0
    6.7710    1.3480   19.4770 C   0  0  0  0  0  0  0  0  0  0  0  0
   11.9050    3.9260   24.7960 C   0  0  0  0  0  0  0  0  0  0  0  0
   12.1350    1.7250   23.7740 C   0  0  0  0  0  0  0  0  0  0  0  0
   12.8170   -0.0440   22.1440 C   0  0  0  0  0  0  0  0  0  0  0  0
    8.5970    0.4300   20.9870 C   0  0  0  0  0  0  0  0  0  0  0  0
    7.8050    7.5840   30.1530 C   0  0  0  0  0  0  0  0  0  0  0  0
    9.3120    7.5960   29.9750 C   0  0  0  0  0  0  0  0  0  0  0  0
    7.6510    6.4030   29.1480 C   0  0  0  0  0  0  0  0  0  0  0  0
    9.1490    6.5400   28.8640 C   0  0  0  0  0  0  0  0  0  0  0  0
    4.9000    2.5790   20.6880 C   0  0  0  0  0  0  0  0  0  0  0  0
    8.9730    0.1160   22.3910 C   0  0  0  0  0  0  0  0  0  0  0  0
   11.6250    8.1620   27.1030 C   0  0  0  0  0  0  0  0  0  0  0  0
   10.8840    6.7750   27.1850 C   0  0  1  0  0  0  0  0  0  0  0  0
    6.3600    0.8020   17.1250 N   0  0  0  0  0  0  0  0  0  0  0  0
    7.4920    1.2050   20.6710 N   0  0  0  0  0  0  0  0  0  0  0  0
    9.1600   -0.1780   20.1230 O   0  0  0  0  0  0  0  0  0  0  0  0
   12.4160    2.6250   24.8250 O   0  0  0  0  0  0  0  0  0  0  0  0
    9.4430    7.0080   27.5360 O   0  0  0  0  0  0  0  0  0  0  0  0
   13.9730   -1.0230   21.3420 Cl  0  0  0  0  0  0  0  0  0  0  0  0
   13.7400    7.9800   26.6310 I   0  0  0  0  0  0  0  0  0  0  0  0
   10.5330    6.1060   22.5940 H   0  0  0  0  0  0  0  0  0  0  0  0
   10.3260    7.4630   24.4630 H   0  0  0  0  0  0  0  0  0  0  0  0
   11.9470    3.8880   22.6530 H   0  0  0  0  0  0  0  0  0  0  0  0
    3.8910    2.6280   18.3070 H   0  0  0  0  0  0  0  0  0  0  0  0
   11.8940    4.2310   26.8760 H   0  0  0  0  0  0  0  0  0  0  0  0
   10.0530    2.1110   23.7910 H   0  0  0  0  0  0  0  0  0  0  0  0
   11.2030   -1.1890   21.2820 H   0  0  0  0  0  0  0  0  0  0  0  0
   14.1980    1.0640   23.2690 H   0  0  0  0  0  0  0  0  0  0  0  0
    4.5670    1.5270   16.2620 H   0  0  0  0  0  0  0  0  0  0  0  0
    7.8340   -0.0840   18.3030 H   0  0  0  0  0  0  0  0  0  0  0  0
    7.4450    7.3720   31.1600 H   0  0  0  0  0  0  0  0  0  0  0  0
    7.3280    8.4960   29.7770 H   0  0  0  0  0  0  0  0  0  0  0  0
    9.6540    8.5980   29.7180 H   0  0  0  0  0  0  0  0  0  0  0  0
    9.9130    7.1970   30.7960 H   0  0  0  0  0  0  0  0  0  0  0  0
    7.4350    5.4230   29.5820 H   0  0  0  0  0  0  0  0  0  0  0  0
    6.8870    6.4810   28.3740 H   0  0  0  0  0  0  0  0  0  0  0  0
    9.6030    5.5890   29.1570 H   0  0  0  0  0  0  0  0  0  0  0  0
    4.6150    1.8490   21.4590 H   0  0  0  0  0  0  0  0  0  0  0  0
    5.5780    3.2850   21.1740 H   0  0  0  0  0  0  0  0  0  0  0  0
    4.0500    3.2450   20.5320 H   0  0  0  0  0  0  0  0  0  0  0  0
    8.8000   -0.9400   22.6010 H   0  0  0  0  0  0  0  0  0  0  0  0
    8.3240    0.6200   23.1150 H   0  0  0  0  0  0  0  0  0  0  0  0
   11.4770    8.6760   28.0570 H   0  0  0  0  0  0  0  0  0  0  0  0
   11.2410    8.7390   26.2550 H   0  0  0  0  0  0  0  0  0  0  0  0
   11.4780    6.2070   27.9100 H   0  0  0  0  0  0  0  0  0  0  0  0
    7.0800    1.6250   21.5000 H   0  0  0  0  0  0  0  0  0  0  0  0
  9 42  1  0  0  0  0
  9 27  2  0  0  0  0
 10 27  1  0  0  0  0
  4  9  1  0  0  0  0
 10 43  1  0  0  0  0
 10 14  2  0  0  0  0
  4 37  1  0  0  0  0
  4 12  2  0  0  0  0
 12 14  1  0  0  0  0
 12 23  1  0  0  0  0
 14 28  1  0  0  0  0
 18 29  2  0  0  0  0
 23 53  1  0  0  0  0
 18 28  1  0  0  0  0
 28 59  1  0  0  0  0
 23 52  1  0  0  0  0
 23 51  1  0  0  0  0
 18 24  1  0  0  0  0
  7 40  1  0  0  0  0
 17 32  1  0  0  0  0
  7 17  2  0  0  0  0
  7 13  1  0  0  0  0
  8 17  1  0  0  0  0
 13 24  1  0  0  0  0
 24 54  1  0  0  0  0
 24 55  1  0  0  0  0
  6 13  2  0  0  0  0
  1 34  1  0  0  0  0
  3 36  1  0  0  0  0
  8 41  1  0  0  0  0
  8 16  2  0  0  0  0
  6 16  1  0  0  0  0
  6 39  1  0  0  0  0
  1  3  2  0  0  0  0
  1  2  1  0  0  0  0
  3 15  1  0  0  0  0
 16 30  1  0  0  0  0
  2 35  1  0  0  0  0
  2 11  2  0  0  0  0
 15 30  1  0  0  0  0
  5 15  2  0  0  0  0
  5 11  1  0  0  0  0
 11 26  1  0  0  0  0
  5 38  1  0  0  0  0
 25 57  1  0  0  0  0
 25 33  1  0  0  0  0
 25 26  1  0  0  0  0
 25 56  1  0  0  0  0
 26 31  1  0  0  0  0
 26 58  1  0  0  0  0
 22 31  1  0  0  0  0
 21 49  1  0  0  0  0
 21 22  1  0  0  0  0
 22 50  1  0  0  0  0
 20 22  1  0  0  0  0
 21 48  1  0  0  0  0
 19 21  1  0  0  0  0
 20 46  1  0  0  0  0
 19 45  1  0  0  0  0
 19 20  1  0  0  0  0
 20 47  1  0  0  0  0
 19 44  1  0  0  0  0
M  END
> <CID>
EN300-1132820

> <SMILES>
Cc1ccncc1NC(=O)Cc2cc(cc(c2)Cl)Oc3cccc(c3)[C@@H](CI)OC4CCC4

> <RUN>
RUN692

> <DDG (kcal/mol)>
-0.08

> <dDDG (kcal/mol)>
0.16

$$$$
EN300-310116
  -OEChem-08252008263D

 52 54  0     0  0  0  0  0  0999 V2000
   13.2190   -3.9120   26.6380 C   0  0  0  0  0  0  0  0  0  0  0  0
   13.3970   -2.6030   26.1470 C   0  0  0  0  0  0  0  0  0  0  0  0
   12.1140   -4.2310   27.3710 C   0  0  0  0  0  0  0  0  0  0  0  0
    5.3330    1.1890   18.8030 C   0  0  0  0  0  0  0  0  0  0  0  0
    9.8810   -1.1310   23.7340 C   0  0  0  0  0  0  0  0  0  0  0  0
   10.4300   -2.5180   21.8510 C   0  0  0  0  0  0  0  0  0  0  0  0
   12.1180   -1.3320   23.0930 C   0  0  0  0  0  0  0  0  0  0  0  0
    5.4920    0.5870   17.6070 C   0  0  0  0  0  0  0  0  0  0  0  0
    6.8320   -1.0080   18.6840 C   0  0  0  0  0  0  0  0  0  0  0  0
   12.3690   -1.6270   26.4560 C   0  0  0  0  0  0  0  0  0  0  0  0
    5.9210    0.7840   20.0010 C   0  0  0  0  0  0  0  0  0  0  0  0
    9.4780   -2.0130   22.7310 C   0  0  0  0  0  0  0  0  0  0  0  0
   11.2990   -2.0020   27.3240 C   0  0  0  0  0  0  0  0  0  0  0  0
    6.7150   -0.3410   19.9010 C   0  0  0  0  0  0  0  0  0  0  0  0
   11.1350   -3.3010   27.7140 C   0  0  0  0  0  0  0  0  0  0  0  0
   11.2130   -0.6810   23.8960 C   0  0  0  0  0  0  0  0  0  0  0  0
   11.8180   -2.2270   22.0490 C   0  0  0  0  0  0  0  0  0  0  0  0
    7.2560   -2.1900   21.5150 C   0  0  0  0  0  0  0  0  0  0  0  0
    5.5190    1.4330   21.2720 C   0  0  0  0  0  0  0  0  0  0  0  0
   10.1790   -0.9710   27.7330 C   0  0  0  0  0  0  0  0  0  0  0  0
    9.6250   -5.0950   28.4440 C   0  0  0  0  0  0  0  0  0  0  0  0
    8.0040   -2.5430   22.7470 C   0  0  0  0  0  0  0  0  0  0  0  0
   12.5150   -0.2000   25.9070 C   0  0  0  0  0  0  0  0  0  0  0  0
    6.2310   -0.5710   17.5820 N   0  0  0  0  0  0  0  0  0  0  0  0
    7.3430   -0.9090   21.0520 N   0  0  0  0  0  0  0  0  0  0  0  0
    6.6130   -3.0120   20.8200 O   0  0  0  0  0  0  0  0  0  0  0  0
    9.9950   -3.7310   28.4520 O   0  0  0  0  0  0  0  0  0  0  0  0
   11.5030    0.2030   24.9500 O   0  0  0  0  0  0  0  0  0  0  0  0
   13.0920   -3.1010   21.2530 Cl  0  0  0  0  0  0  0  0  0  0  0  0
   13.9400   -4.7200   26.5530 H   0  0  0  0  0  0  0  0  0  0  0  0
   14.2320   -2.3450   25.5050 H   0  0  0  0  0  0  0  0  0  0  0  0
   12.0260   -5.2790   27.6570 H   0  0  0  0  0  0  0  0  0  0  0  0
    4.7470    2.0970   18.7180 H   0  0  0  0  0  0  0  0  0  0  0  0
    9.2020   -0.6410   24.4200 H   0  0  0  0  0  0  0  0  0  0  0  0
   10.1280   -3.2650   21.1180 H   0  0  0  0  0  0  0  0  0  0  0  0
   13.1660   -1.0660   23.1610 H   0  0  0  0  0  0  0  0  0  0  0  0
    5.0300    0.9370   16.6920 H   0  0  0  0  0  0  0  0  0  0  0  0
    7.4760   -1.8510   18.4770 H   0  0  0  0  0  0  0  0  0  0  0  0
    6.4610    1.5050   21.8210 H   0  0  0  0  0  0  0  0  0  0  0  0
    5.1100    2.4260   21.0560 H   0  0  0  0  0  0  0  0  0  0  0  0
    4.8450    0.8130   21.8790 H   0  0  0  0  0  0  0  0  0  0  0  0
    9.1970   -1.4350   27.8390 H   0  0  0  0  0  0  0  0  0  0  0  0
   10.2100   -0.4990   28.7210 H   0  0  0  0  0  0  0  0  0  0  0  0
   10.2350   -0.1730   26.9870 H   0  0  0  0  0  0  0  0  0  0  0  0
    9.8170   -5.5440   27.4630 H   0  0  0  0  0  0  0  0  0  0  0  0
   10.2620   -5.6660   29.1270 H   0  0  0  0  0  0  0  0  0  0  0  0
    8.5710   -5.2510   28.7110 H   0  0  0  0  0  0  0  0  0  0  0  0
    8.1800   -3.6250   22.7970 H   0  0  0  0  0  0  0  0  0  0  0  0
    7.5080   -2.2150   23.6660 H   0  0  0  0  0  0  0  0  0  0  0  0
   12.4380    0.4870   26.7620 H   0  0  0  0  0  0  0  0  0  0  0  0
   13.4920   -0.0700   25.4350 H   0  0  0  0  0  0  0  0  0  0  0  0
    7.9580   -0.2760   21.5670 H   0  0  0  0  0  0  0  0  0  0  0  0
  8 37  1  0  0  0  0
  8 24  2  0  0  0  0
  9 24  1  0  0  0  0
  4  8  1  0  0  0  0
  9 38  1  0  0  0  0
  9 14  2  0  0  0  0
  4 33  1  0  0  0  0
  4 11  2  0  0  0  0
 11 14  1  0  0  0  0
 14 25  1  0  0  0  0
 11 19  1  0  0  0  0
 18 26  2  0  0  0  0
 18 25  1  0  0  0  0
 25 52  1  0  0  0  0
 19 40  1  0  0  0  0
  6 35  1  0  0  0  0
 17 29  1  0  0  0  0
 19 39  1  0  0  0  0
 19 41  1  0  0  0  0
 18 22  1  0  0  0  0
  6 17  2  0  0  0  0
  6 12  1  0  0  0  0
  7 17  1  0  0  0  0
 12 22  1  0  0  0  0
  5 12  2  0  0  0  0
 22 48  1  0  0  0  0
 22 49  1  0  0  0  0
  7 36  1  0  0  0  0
  7 16  2  0  0  0  0
  5 16  1  0  0  0  0
  5 34  1  0  0  0  0
 16 28  1  0  0  0  0
 23 28  1  0  0  0  0
 23 51  1  0  0  0  0
  2 31  1  0  0  0  0
 10 23  1  0  0  0  0
 23 50  1  0  0  0  0
  2 10  2  0  0  0  0
  1  2  1  0  0  0  0
 10 13  1  0  0  0  0
  1 30  1  0  0  0  0
  1  3  2  0  0  0  0
 20 44  1  0  0  0  0
 13 15  2  0  0  0  0
 13 20  1  0  0  0  0
  3 32  1  0  0  0  0
  3 15  1  0  0  0  0
 21 45  1  0  0  0  0
 15 27  1  0  0  0  0
 20 42  1  0  0  0  0
 20 43  1  0  0  0  0
 21 27  1  0  0  0  0
 21 47  1  0  0  0  0
 21 46  1  0  0  0  0
M  END
> <CID>
EN300-310116

> <SMILES>
Cc1ccncc1NC(=O)Cc2cc(cc(c2)Cl)OCc3cccc(c3C)OC

> <RUN>
RUN2457

> <DDG (kcal/mol)>
-0.08

> <dDDG (kcal/mol)>
0.13

$$$$
EN300-1274639
  -OEChem-08252008263D

 59 62  0     1  0  0  0  0  0999 V2000
   10.3260    3.6480   27.7500 C   0  0  0  0  0  0  0  0  0  0  0  0
   10.0570    3.0740   28.9770 C   0  0  0  0  0  0  0  0  0  0  0  0
   11.4460    3.2690   27.0750 C   0  0  0  0  0  0  0  0  0  0  0  0
    5.4690    1.1210   19.2030 C   0  0  0  0  0  0  0  0  0  0  0  0
   11.1700    0.5730   25.3860 C   0  0  0  0  0  0  0  0  0  0  0  0
   11.7080   -0.7320   23.5380 C   0  0  0  0  0  0  0  0  0  0  0  0
   11.7670    1.5110   28.7280 C   0  0  0  0  0  0  0  0  0  0  0  0
   13.5050    0.0610   24.8860 C   0  0  0  0  0  0  0  0  0  0  0  0
    6.1820    0.4520   18.2370 C   0  0  0  0  0  0  0  0  0  0  0  0
    7.7190   -0.1740   19.7540 C   0  0  0  0  0  0  0  0  0  0  0  0
    5.9220    1.1390   20.5370 C   0  0  0  0  0  0  0  0  0  0  0  0
   10.7020   -0.1090   24.2960 C   0  0  0  0  0  0  0  0  0  0  0  0
   10.7380    1.9790   29.4820 C   0  0  0  0  0  0  0  0  0  0  0  0
    7.0900    0.4690   20.8440 C   0  0  0  0  0  0  0  0  0  0  0  0
   12.1180    2.1270   27.4890 C   0  0  0  0  0  0  0  0  0  0  0  0
   12.5780    0.6930   25.7270 C   0  0  0  0  0  0  0  0  0  0  0  0
   13.0840   -0.6840   23.8580 C   0  0  0  0  0  0  0  0  0  0  0  0
    9.4670    1.4630   31.6150 C   0  0  3  0  0  0  0  0  0  0  0  0
    8.9040    0.1740   22.5150 C   0  0  0  0  0  0  0  0  0  0  0  0
    7.7950    2.4250   32.8990 C   0  0  1  0  0  0  0  0  0  0  0  0
    7.5960    0.9030   33.1030 C   0  0  2  0  0  0  0  0  0  0  0  0
    5.1170    1.7030   21.6500 C   0  0  0  0  0  0  0  0  0  0  0  0
    8.0570    3.2180   34.1900 C   0  0  0  0  0  0  0  0  0  0  0  0
    9.1970   -0.2170   23.9930 C   0  0  0  0  0  0  0  0  0  0  0  0
    7.5410    0.4120   34.5810 C   0  0  0  0  0  0  0  0  0  0  0  0
    7.3120   -0.2180   18.5280 N   0  0  0  0  0  0  0  0  0  0  0  0
    8.8210    2.5100   31.8530 N   0  0  0  0  0  0  0  0  0  0  0  0
   10.4360    1.1840   30.6280 N   0  0  0  0  0  0  0  0  0  0  0  0
    7.6750    0.6150   22.0950 N   0  0  0  0  0  0  0  0  0  0  0  0
    9.8190    0.3430   21.7110 O   0  0  0  0  0  0  0  0  0  0  0  0
   13.0880    1.4650   26.7690 O   0  0  0  0  0  0  0  0  0  0  0  0
    9.1430    0.0310   32.4950 S   0  0  0  0  0  0  0  0  0  0  0  0
   14.2120   -1.6000   22.9320 Cl  0  0  0  0  0  0  0  0  0  0  0  0
    7.2230   -1.5420   34.8180 Br  0  0  0  0  0  0  0  0  0  0  0  0
    9.6240    4.4210   27.4300 H   0  0  0  0  0  0  0  0  0  0  0  0
    9.1280    3.2780   29.4990 H   0  0  0  0  0  0  0  0  0  0  0  0
   11.7210    3.7450   26.1370 H   0  0  0  0  0  0  0  0  0  0  0  0
    4.5100    1.5750   18.9790 H   0  0  0  0  0  0  0  0  0  0  0  0
   10.4580    0.9340   26.1280 H   0  0  0  0  0  0  0  0  0  0  0  0
   11.5040   -1.3910   22.7010 H   0  0  0  0  0  0  0  0  0  0  0  0
   12.3310    0.6140   28.9590 H   0  0  0  0  0  0  0  0  0  0  0  0
   14.5680    0.0970   25.1170 H   0  0  0  0  0  0  0  0  0  0  0  0
    5.7900    0.3920   17.2260 H   0  0  0  0  0  0  0  0  0  0  0  0
    8.6430   -0.7080   19.9530 H   0  0  0  0  0  0  0  0  0  0  0  0
    6.8770    2.8110   32.4400 H   0  0  0  0  0  0  0  0  0  0  0  0
    6.7300    0.6040   32.5060 H   0  0  0  0  0  0  0  0  0  0  0  0
    4.4790    0.9700   22.1420 H   0  0  0  0  0  0  0  0  0  0  0  0
    5.7760    2.2560   22.3260 H   0  0  0  0  0  0  0  0  0  0  0  0
    4.4400    2.5140   21.3280 H   0  0  0  0  0  0  0  0  0  0  0  0
    8.2830    4.2680   33.9980 H   0  0  0  0  0  0  0  0  0  0  0  0
    8.8870    2.8220   34.7970 H   0  0  0  0  0  0  0  0  0  0  0  0
    7.1810    3.2270   34.8410 H   0  0  0  0  0  0  0  0  0  0  0  0
    8.9550   -1.2690   24.1800 H   0  0  0  0  0  0  0  0  0  0  0  0
    8.6400    0.3160   24.7590 H   0  0  0  0  0  0  0  0  0  0  0  0
    6.7760    0.9790   35.0970 H   0  0  0  0  0  0  0  0  0  0  0  0
    8.5260    0.5690   35.0460 H   0  0  0  0  0  0  0  0  0  0  0  0
    9.0800    3.4060   31.4360 H   0  0  0  0  0  0  0  0  0  0  0  0
   10.9330    0.2900   30.5980 H   0  0  0  0  0  0  0  0  0  0  0  0
    6.9980    0.7280   22.8470 H   0  0  0  0  0  0  0  0  0  0  0  0
  9 43  1  0  0  0  0
  9 26  2  0  0  0  0
  4  9  1  0  0  0  0
 10 26  1  0  0  0  0
  4 38  1  0  0  0  0
  4 11  2  0  0  0  0
 10 44  1  0  0  0  0
 10 14  2  0  0  0  0
 11 14  1  0  0  0  0
 11 22  1  0  0  0  0
 14 29  1  0  0  0  0
 22 49  1  0  0  0  0
 22 47  1  0  0  0  0
 22 48  1  0  0  0  0
 19 30  2  0  0  0  0
 19 29  1  0  0  0  0
 29 59  1  0  0  0  0
 19 24  1  0  0  0  0
  6 40  1  0  0  0  0
 17 33  1  0  0  0  0
  6 17  2  0  0  0  0
  6 12  1  0  0  0  0
  8 17  1  0  0  0  0
 24 53  1  0  0  0  0
 12 24  1  0  0  0  0
 24 54  1  0  0  0  0
  5 12  2  0  0  0  0
  8 42  1  0  0  0  0
  8 16  2  0  0  0  0
  5 16  1  0  0  0  0
  5 39  1  0  0  0  0
 16 31  1  0  0  0  0
  3 37  1  0  0  0  0
 15 31  1  0  0  0  0
  3 15  2  0  0  0  0
  1  3  1  0  0  0  0
  1 35  1  0  0  0  0
  7 15  1  0  0  0  0
  1  2  2  0  0  0  0
  7 41  1  0  0  0  0
  7 13  2  0  0  0  0
  2 13  1  0  0  0  0
  2 36  1  0  0  0  0
 13 28  1  0  0  0  0
 28 58  1  0  0  0  0
 18 28  1  0  0  0  0
 27 57  1  0  0  0  0
 18 27  1  0  0  0  0
 18 32  1  0  0  0  0
 20 27  1  0  0  0  0
 20 45  1  0  0  0  0
 21 32  1  0  0  0  0
 21 46  1  0  0  0  0
 20 21  1  0  0  0  0
 20 23  1  0  0  0  0
 21 25  1  0  0  0  0
 23 50  1  0  0  0  0
 23 51  1  0  0  0  0
 23 52  1  0  0  0  0
 25 34  1  0  0  0  0
 25 56  1  0  0  0  0
 25 55  1  0  0  0  0
M  END
> <CID>
EN300-1274639

> <SMILES>
Cc1ccncc1NC(=O)Cc2cc(cc(c2)Cl)Oc3cccc(c3)NC4=[NH+][C@@H]([C@@H](S4)CBr)C

> <RUN>
RUN1646

> <DDG (kcal/mol)>
-0.07

> <dDDG (kcal/mol)>
0.17

$$$$
EN300-87706
  -OEChem-08252008263D

 56 58  0     1  0  0  0  0  0999 V2000
    9.8050    6.5300   23.6350 C   0  0  0  0  0  0  0  0  0  0  0  0
   10.9970    7.0630   25.6780 C   0  0  0  0  0  0  0  0  0  0  0  0
    8.7980    7.4230   24.0420 C   0  0  0  0  0  0  0  0  0  0  0  0
    9.9730    7.9830   26.0740 C   0  0  0  0  0  0  0  0  0  0  0  0
    4.9610    1.9450   19.9490 C   0  0  0  0  0  0  0  0  0  0  0  0
   11.1820    1.1110   23.7570 C   0  0  0  0  0  0  0  0  0  0  0  0
   11.9870   -0.9140   22.8580 C   0  0  0  0  0  0  0  0  0  0  0  0
   13.5420    0.9720   23.3080 C   0  0  0  0  0  0  0  0  0  0  0  0
    5.4890    1.6270   18.7150 C   0  0  0  0  0  0  0  0  0  0  0  0
    7.2390    0.4100   19.5900 C   0  0  0  0  0  0  0  0  0  0  0  0
   10.8820    6.2930   24.4790 C   0  0  0  0  0  0  0  0  0  0  0  0
    5.6280    1.5960   21.0910 C   0  0  0  0  0  0  0  0  0  0  0  0
   10.9240   -0.1320   23.3090 C   0  0  0  0  0  0  0  0  0  0  0  0
    6.7680    0.7190   20.9050 C   0  0  0  0  0  0  0  0  0  0  0  0
    8.8740    8.1890   25.2570 C   0  0  0  0  0  0  0  0  0  0  0  0
   12.4330    1.7890   23.7030 C   0  0  0  0  0  0  0  0  0  0  0  0
   13.2970   -0.3830   22.8310 C   0  0  0  0  0  0  0  0  0  0  0  0
    8.8890    0.2090   21.9760 C   0  0  0  0  0  0  0  0  0  0  0  0
    5.2180    2.2220   22.4220 C   0  0  0  0  0  0  0  0  0  0  0  0
    6.1670   10.7370   25.4190 C   0  0  0  0  0  0  0  0  0  0  0  0
    9.5550   -0.5700   23.1080 C   0  0  0  0  0  0  0  0  0  0  0  0
    6.9910    9.6650   24.6740 C   0  0  0  0  0  0  0  0  0  0  0  0
   11.6390    3.9510   24.2700 C   0  0  0  0  0  0  0  0  0  0  0  0
   12.0250    5.4350   24.0890 C   0  0  1  0  0  0  0  0  0  0  0  0
    6.5910    0.8240   18.4710 N   0  0  0  0  0  0  0  0  0  0  0  0
    7.4940    0.3260   22.0280 N   0  0  0  0  0  0  0  0  0  0  0  0
    9.5100    0.9160   21.2270 O   0  0  0  0  0  0  0  0  0  0  0  0
   12.5440    5.6940   22.7690 O   0  0  0  0  0  0  0  0  0  0  0  0
    8.0270    9.2260   25.5800 O   0  0  0  0  0  0  0  0  0  0  0  0
   12.7610    3.1020   23.9690 O   0  0  0  0  0  0  0  0  0  0  0  0
   14.6860   -1.3440   22.3250 Cl  0  0  0  0  0  0  0  0  0  0  0  0
    9.6480    6.0720   22.6630 H   0  0  0  0  0  0  0  0  0  0  0  0
   11.8540    6.9910   26.3470 H   0  0  0  0  0  0  0  0  0  0  0  0
    7.9390    7.5250   23.3800 H   0  0  0  0  0  0  0  0  0  0  0  0
   10.1920    8.5830   26.9450 H   0  0  0  0  0  0  0  0  0  0  0  0
    4.1040    2.5890   19.8340 H   0  0  0  0  0  0  0  0  0  0  0  0
   10.4350    1.7590   24.2100 H   0  0  0  0  0  0  0  0  0  0  0  0
   11.7680   -1.8560   22.3830 H   0  0  0  0  0  0  0  0  0  0  0  0
   14.5620    1.3550   23.3430 H   0  0  0  0  0  0  0  0  0  0  0  0
    4.9620    1.9540   17.8160 H   0  0  0  0  0  0  0  0  0  0  0  0
    8.1260   -0.1660   19.3820 H   0  0  0  0  0  0  0  0  0  0  0  0
    5.3360    1.4230   23.1560 H   0  0  0  0  0  0  0  0  0  0  0  0
    5.8930    3.0300   22.7190 H   0  0  0  0  0  0  0  0  0  0  0  0
    4.1820    2.5790   22.4950 H   0  0  0  0  0  0  0  0  0  0  0  0
    5.6670   11.4000   24.7010 H   0  0  0  0  0  0  0  0  0  0  0  0
    5.5560   10.3230   26.2170 H   0  0  0  0  0  0  0  0  0  0  0  0
    6.8770   11.4490   25.8330 H   0  0  0  0  0  0  0  0  0  0  0  0
    9.4320   -1.6490   22.9800 H   0  0  0  0  0  0  0  0  0  0  0  0
    9.0620   -0.2850   24.0460 H   0  0  0  0  0  0  0  0  0  0  0  0
    7.4760    9.8900   23.7250 H   0  0  0  0  0  0  0  0  0  0  0  0
    6.3630    8.8210   24.3920 H   0  0  0  0  0  0  0  0  0  0  0  0
   11.2530    3.7020   25.2700 H   0  0  0  0  0  0  0  0  0  0  0  0
   10.7860    3.7900   23.6060 H   0  0  0  0  0  0  0  0  0  0  0  0
   12.8090    5.6300   24.8350 H   0  0  0  0  0  0  0  0  0  0  0  0
    6.9690   -0.1860   22.7360 H   0  0  0  0  0  0  0  0  0  0  0  0
   11.8490    5.5440   22.1030 H   0  0  0  0  0  0  0  0  0  0  0  0
  9 40  1  0  0  0  0
  9 25  2  0  0  0  0
 10 25  1  0  0  0  0
  5  9  1  0  0  0  0
 10 41  1  0  0  0  0
 10 14  2  0  0  0  0
  5 36  1  0  0  0  0
  5 12  2  0  0  0  0
 12 14  1  0  0  0  0
 14 26  1  0  0  0  0
 12 19  1  0  0  0  0
 18 27  2  0  0  0  0
 18 26  1  0  0  0  0
 18 21  1  0  0  0  0
 26 55  1  0  0  0  0
 28 56  1  0  0  0  0
 17 31  1  0  0  0  0
  7 38  1  0  0  0  0
 19 44  1  0  0  0  0
 19 43  1  0  0  0  0
 19 42  1  0  0  0  0
  1 32  1  0  0  0  0
 24 28  1  0  0  0  0
  7 17  2  0  0  0  0
  8 17  1  0  0  0  0
  7 13  1  0  0  0  0
 21 48  1  0  0  0  0
 13 21  1  0  0  0  0
 21 49  1  0  0  0  0
  8 39  1  0  0  0  0
  8 16  2  0  0  0  0
  6 13  2  0  0  0  0
  3 34  1  0  0  0  0
 23 53  1  0  0  0  0
  1  3  2  0  0  0  0
  1 11  1  0  0  0  0
  6 16  1  0  0  0  0
 16 30  1  0  0  0  0
 22 50  1  0  0  0  0
  6 37  1  0  0  0  0
 23 30  1  0  0  0  0
  3 15  1  0  0  0  0
 23 24  1  0  0  0  0
 11 24  1  0  0  0  0
 24 54  1  0  0  0  0
 23 52  1  0  0  0  0
 22 51  1  0  0  0  0
  2 11  2  0  0  0  0
 20 22  1  0  0  0  0
 22 29  1  0  0  0  0
 20 45  1  0  0  0  0
 15 29  1  0  0  0  0
  4 15  2  0  0  0  0
 20 47  1  0  0  0  0
 20 46  1  0  0  0  0
  2  4  1  0  0  0  0
  2 33  1  0  0  0  0
  4 35  1  0  0  0  0
M  END
> <CID>
EN300-87706

> <SMILES>
CCOc1ccc(cc1)[C@@H](COc2cc(cc(c2)Cl)CC(=O)Nc3cnccc3C)O

> <RUN>
RUN2940

> <DDG (kcal/mol)>
-0.07

> <dDDG (kcal/mol)>
0.20

$$$$
EN300-1918363
  -OEChem-08252008263D

 53 56  0     1  0  0  0  0  0999 V2000
    7.0160    4.9140   24.4410 C   0  0  0  0  0  0  0  0  0  0  0  0
    6.4410    5.7700   23.4990 C   0  0  0  0  0  0  0  0  0  0  0  0
    8.3980    4.8830   24.6310 C   0  0  0  0  0  0  0  0  0  0  0  0
    7.2980    6.6050   22.7330 C   0  0  0  0  0  0  0  0  0  0  0  0
    4.2030    2.0950   18.7750 C   0  0  0  0  0  0  0  0  0  0  0  0
   10.6380    2.6920   22.5170 C   0  0  0  0  0  0  0  0  0  0  0  0
   10.8410    0.3250   23.0650 C   0  0  0  0  0  0  0  0  0  0  0  0
   12.7950    1.6110   22.5760 C   0  0  0  0  0  0  0  0  0  0  0  0
    4.6020    1.2110   17.7730 C   0  0  0  0  0  0  0  0  0  0  0  0
    6.0370    0.2560   19.2870 C   0  0  0  0  0  0  0  0  0  0  0  0
    9.2330    5.6710   23.8110 C   0  0  0  0  0  0  0  0  0  0  0  0
    4.8550    2.2120   20.0050 C   0  0  0  0  0  0  0  0  0  0  0  0
   10.0090    1.4670   22.8760 C   0  0  0  0  0  0  0  0  0  0  0  0
    8.7180    6.5490   22.8630 C   0  0  0  0  0  0  0  0  0  0  0  0
    5.7470    1.2060   20.3070 C   0  0  0  0  0  0  0  0  0  0  0  0
   12.0110    2.7940   22.3800 C   0  0  0  0  0  0  0  0  0  0  0  0
   12.2460    0.4270   22.9970 C   0  0  0  0  0  0  0  0  0  0  0  0
   10.6160    5.6630   24.0280 C   0  0  0  0  0  0  0  0  0  0  0  0
   11.4320    6.2520   23.0610 C   0  0  0  0  0  0  0  0  0  0  0  0
    7.7380    0.9060   21.8030 C   0  0  0  0  0  0  0  0  0  0  0  0
    4.4980    3.3080   21.0000 C   0  0  0  0  0  0  0  0  0  0  0  0
    8.4990    1.3340   23.0630 C   0  0  0  0  0  0  0  0  0  0  0  0
   13.4120    4.6020   22.9600 C   0  0  0  0  0  0  0  0  0  0  0  0
   12.8820    6.0840   23.0820 C   0  0  2  0  0  0  0  0  0  0  0  0
    5.5300    0.2730   18.0360 N   0  0  0  0  0  0  0  0  0  0  0  0
    9.6150    7.2770   22.0280 N   0  0  0  0  0  0  0  0  0  0  0  0
   10.8700    7.1150   22.1770 N   0  0  0  0  0  0  0  0  0  0  0  0
    6.3950    1.2200   21.5990 N   0  0  0  0  0  0  0  0  0  0  0  0
    8.2650    0.2240   20.9240 O   0  0  0  0  0  0  0  0  0  0  0  0
   13.6060    6.6120   24.2610 O   0  0  0  0  0  0  0  0  0  0  0  0
   12.5990    3.9690   21.9480 O   0  0  0  0  0  0  0  0  0  0  0  0
   13.3130   -0.9650   23.2960 Cl  0  0  0  0  0  0  0  0  0  0  0  0
   11.3160    5.0360   25.5130 Cl  0  0  0  0  0  0  0  0  0  0  0  0
    6.3840    4.2350   24.9880 H   0  0  0  0  0  0  0  0  0  0  0  0
    5.3670    5.6570   23.3530 H   0  0  0  0  0  0  0  0  0  0  0  0
    8.7870    4.1430   25.3250 H   0  0  0  0  0  0  0  0  0  0  0  0
    6.8800    7.3930   22.1140 H   0  0  0  0  0  0  0  0  0  0  0  0
    3.4020    2.7230   18.4020 H   0  0  0  0  0  0  0  0  0  0  0  0
   10.0290    3.5900   22.4070 H   0  0  0  0  0  0  0  0  0  0  0  0
   10.5180   -0.6800   23.2950 H   0  0  0  0  0  0  0  0  0  0  0  0
   13.8550    1.7160   22.4000 H   0  0  0  0  0  0  0  0  0  0  0  0
    4.0950    1.3220   16.8130 H   0  0  0  0  0  0  0  0  0  0  0  0
    6.8040   -0.4990   19.4540 H   0  0  0  0  0  0  0  0  0  0  0  0
    4.5610    4.3050   20.5400 H   0  0  0  0  0  0  0  0  0  0  0  0
    3.5000    3.1600   21.4000 H   0  0  0  0  0  0  0  0  0  0  0  0
    5.2050    3.3320   21.8360 H   0  0  0  0  0  0  0  0  0  0  0  0
    8.3810    0.5140   23.7770 H   0  0  0  0  0  0  0  0  0  0  0  0
    8.1150    2.2560   23.5150 H   0  0  0  0  0  0  0  0  0  0  0  0
   14.4860    4.5740   22.7590 H   0  0  0  0  0  0  0  0  0  0  0  0
   13.2940    4.0810   23.9120 H   0  0  0  0  0  0  0  0  0  0  0  0
   13.2240    6.5570   22.1570 H   0  0  0  0  0  0  0  0  0  0  0  0
    6.0350    1.8230   22.3400 H   0  0  0  0  0  0  0  0  0  0  0  0
   13.2150    7.4610   24.5210 H   0  0  0  0  0  0  0  0  0  0  0  0
  9 42  1  0  0  0  0
  9 25  2  0  0  0  0
  5  9  1  0  0  0  0
 10 25  1  0  0  0  0
  5 38  1  0  0  0  0
  5 12  2  0  0  0  0
 10 43  1  0  0  0  0
 10 15  2  0  0  0  0
 12 15  1  0  0  0  0
 12 21  1  0  0  0  0
 15 28  1  0  0  0  0
 21 44  1  0  0  0  0
 20 29  2  0  0  0  0
 21 45  1  0  0  0  0
 21 46  1  0  0  0  0
 20 28  1  0  0  0  0
 28 52  1  0  0  0  0
 20 22  1  0  0  0  0
 16 31  1  0  0  0  0
 23 31  1  0  0  0  0
 26 27  2  0  0  0  0
 14 26  1  0  0  0  0
  4 37  1  0  0  0  0
 24 51  1  0  0  0  0
 19 27  1  0  0  0  0
  6 16  2  0  0  0  0
  8 16  1  0  0  0  0
  8 41  1  0  0  0  0
  6 39  1  0  0  0  0
  6 13  1  0  0  0  0
  8 17  2  0  0  0  0
  4 14  2  0  0  0  0
  2  4  1  0  0  0  0
 23 49  1  0  0  0  0
 11 14  1  0  0  0  0
 13 22  1  0  0  0  0
  7 13  2  0  0  0  0
 23 24  1  0  0  0  0
 23 50  1  0  0  0  0
  7 17  1  0  0  0  0
 17 32  1  0  0  0  0
 19 24  1  0  0  0  0
 18 19  2  0  0  0  0
 22 48  1  0  0  0  0
 22 47  1  0  0  0  0
  7 40  1  0  0  0  0
 24 30  1  0  0  0  0
  2 35  1  0  0  0  0
  1  2  2  0  0  0  0
 11 18  1  0  0  0  0
  3 11  2  0  0  0  0
 18 33  1  0  0  0  0
 30 53  1  0  0  0  0
  1  3  1  0  0  0  0
  1 34  1  0  0  0  0
  3 36  1  0  0  0  0
M  END
> <CID>
EN300-1918363

> <SMILES>
Cc1ccncc1NC(=O)Cc2cc(cc(c2)Cl)OC[C@@H](c3c(c4ccccc4nn3)Cl)O

> <RUN>
RUN4539

> <DDG (kcal/mol)>
-0.07

> <dDDG (kcal/mol)>
0.33

$$$$
EN300-1918995
  -OEChem-08252008263D

 54 57  0     1  0  0  0  0  0999 V2000
    6.5760    9.9380   23.4690 C   0  0  0  0  0  0  0  0  0  0  0  0
    7.5950    9.6860   24.3610 C   0  0  0  0  0  0  0  0  0  0  0  0
    9.6790    8.6330   24.8350 C   0  0  0  0  0  0  0  0  0  0  0  0
   10.8270    7.9530   24.4140 C   0  0  0  0  0  0  0  0  0  0  0  0
    4.6400    1.9770   18.2780 C   0  0  0  0  0  0  0  0  0  0  0  0
    9.7960    7.6510   22.2360 C   0  0  0  0  0  0  0  0  0  0  0  0
   10.6290    2.2190   22.5180 C   0  0  0  0  0  0  0  0  0  0  0  0
   11.1300    0.0130   21.6880 C   0  0  0  0  0  0  0  0  0  0  0  0
   12.8400    1.6860   21.7520 C   0  0  0  0  0  0  0  0  0  0  0  0
    6.6710    9.4350   22.2200 C   0  0  0  0  0  0  0  0  0  0  0  0
    5.3460    1.3960   17.1540 C   0  0  0  0  0  0  0  0  0  0  0  0
    7.0870    0.8330   18.4140 C   0  0  0  0  0  0  0  0  0  0  0  0
    8.6810    8.9460   23.9380 C   0  0  0  0  0  0  0  0  0  0  0  0
   10.8460    7.3880   23.1430 C   0  0  0  0  0  0  0  0  0  0  0  0
    5.3070    2.0640   19.4900 C   0  0  0  0  0  0  0  0  0  0  0  0
   10.1950    0.8910   22.2540 C   0  0  0  0  0  0  0  0  0  0  0  0
    8.7050    8.4430   22.6330 C   0  0  0  0  0  0  0  0  0  0  0  0
    6.6170    1.4300   19.5930 C   0  0  0  0  0  0  0  0  0  0  0  0
   11.9440    2.6670   22.1890 C   0  0  0  0  0  0  0  0  0  0  0  0
   12.4570    0.3720   21.4770 C   0  0  0  0  0  0  0  0  0  0  0  0
    8.0200    0.3800   21.2930 C   0  0  0  0  0  0  0  0  0  0  0  0
    4.6190    2.5800   20.6760 C   0  0  0  0  0  0  0  0  0  0  0  0
    8.8320    0.3640   22.5640 C   0  0  0  0  0  0  0  0  0  0  0  0
   11.4190    4.9020   22.6400 C   0  0  0  0  0  0  0  0  0  0  0  0
   11.9240    6.3850   22.7130 C   0  0  1  0  0  0  0  0  0  0  0  0
    6.4830    0.7860   17.2400 N   0  0  0  0  0  0  0  0  0  0  0  0
    7.6960    8.6290   21.8140 N   0  0  0  0  0  0  0  0  0  0  0  0
    7.4120    1.5030   20.7140 N   0  0  0  0  0  0  0  0  0  0  0  0
    8.1090   -0.6790   20.6510 O   0  0  0  0  0  0  0  0  0  0  0  0
   12.3400    6.7770   21.4360 O   0  0  0  0  0  0  0  0  0  0  0  0
   12.4440    3.9310   22.2890 O   0  0  0  0  0  0  0  0  0  0  0  0
   13.6540   -0.7310   20.9310 Cl  0  0  0  0  0  0  0  0  0  0  0  0
    5.7950   10.6550   23.6960 H   0  0  0  0  0  0  0  0  0  0  0  0
    7.4060   10.0430   25.3750 H   0  0  0  0  0  0  0  0  0  0  0  0
    9.6840    8.8940   25.8840 H   0  0  0  0  0  0  0  0  0  0  0  0
   11.6060    7.9130   25.1650 H   0  0  0  0  0  0  0  0  0  0  0  0
    3.6250    2.3630   18.2470 H   0  0  0  0  0  0  0  0  0  0  0  0
    9.8250    7.3490   21.1930 H   0  0  0  0  0  0  0  0  0  0  0  0
    9.9320    2.8820   23.0140 H   0  0  0  0  0  0  0  0  0  0  0  0
   10.8280   -0.9710   21.3500 H   0  0  0  0  0  0  0  0  0  0  0  0
   13.8470    1.8330   21.3810 H   0  0  0  0  0  0  0  0  0  0  0  0
    5.8150    9.7170   21.6140 H   0  0  0  0  0  0  0  0  0  0  0  0
    4.8530    1.4990   16.1830 H   0  0  0  0  0  0  0  0  0  0  0  0
    8.0380    0.3050   18.4700 H   0  0  0  0  0  0  0  0  0  0  0  0
    4.1970    3.5680   20.4570 H   0  0  0  0  0  0  0  0  0  0  0  0
    3.8640    1.8250   20.9280 H   0  0  0  0  0  0  0  0  0  0  0  0
    5.2010    2.6070   21.6050 H   0  0  0  0  0  0  0  0  0  0  0  0
    8.8200   -0.5980   23.0660 H   0  0  0  0  0  0  0  0  0  0  0  0
    8.3900    0.9930   23.3500 H   0  0  0  0  0  0  0  0  0  0  0  0
   10.8710    4.7040   23.5700 H   0  0  0  0  0  0  0  0  0  0  0  0
   10.6180    4.9240   21.8960 H   0  0  0  0  0  0  0  0  0  0  0  0
   12.7880    6.4360   23.3790 H   0  0  0  0  0  0  0  0  0  0  0  0
    7.3030    2.3110   21.3230 H   0  0  0  0  0  0  0  0  0  0  0  0
   11.6870    6.4490   20.7900 H   0  0  0  0  0  0  0  0  0  0  0  0
 11 43  1  0  0  0  0
 11 26  2  0  0  0  0
  5 11  1  0  0  0  0
 12 26  1  0  0  0  0
  5 37  1  0  0  0  0
  5 15  2  0  0  0  0
 12 44  1  0  0  0  0
 12 18  2  0  0  0  0
 15 18  1  0  0  0  0
 15 22  1  0  0  0  0
 18 28  1  0  0  0  0
 22 45  1  0  0  0  0
 21 29  2  0  0  0  0
 22 46  1  0  0  0  0
 22 47  1  0  0  0  0
 21 28  1  0  0  0  0
 28 53  1  0  0  0  0
 30 54  1  0  0  0  0
 20 32  1  0  0  0  0
  6 38  1  0  0  0  0
 21 23  1  0  0  0  0
  8 40  1  0  0  0  0
  9 41  1  0  0  0  0
 25 30  1  0  0  0  0
  8 20  2  0  0  0  0
  9 20  1  0  0  0  0
 10 42  1  0  0  0  0
  8 16  1  0  0  0  0
  9 19  2  0  0  0  0
 10 27  2  0  0  0  0
 17 27  1  0  0  0  0
 24 51  1  0  0  0  0
 19 31  1  0  0  0  0
  7 19  1  0  0  0  0
  1 10  1  0  0  0  0
  6 17  2  0  0  0  0
  6 14  1  0  0  0  0
  7 16  2  0  0  0  0
 16 23  1  0  0  0  0
 24 31  1  0  0  0  0
  7 39  1  0  0  0  0
 23 48  1  0  0  0  0
 23 49  1  0  0  0  0
 13 17  1  0  0  0  0
 24 25  1  0  0  0  0
 24 50  1  0  0  0  0
 14 25  1  0  0  0  0
 25 52  1  0  0  0  0
  4 14  2  0  0  0  0
  1 33  1  0  0  0  0
  1  2  2  0  0  0  0
  2 13  1  0  0  0  0
  3 13  2  0  0  0  0
  2 34  1  0  0  0  0
  3  4  1  0  0  0  0
  4 36  1  0  0  0  0
  3 35  1  0  0  0  0
M  END
> <CID>
EN300-1918995

> <SMILES>
Cc1ccncc1NC(=O)Cc2cc(cc(c2)Cl)OC[C@H](c3ccc4cccnc4c3)O

> <RUN>
RUN2919

> <DDG (kcal/mol)>
-0.07

> <dDDG (kcal/mol)>
0.18

$$$$
EN300-703234
  -OEChem-08252008263D

 61 64  0     0  0  0  0  0  0999 V2000
    5.6310    2.7800   19.1200 C   0  0  0  0  0  0  0  0  0  0  0  0
    9.1060   -0.9290   22.9880 C   0  0  0  0  0  0  0  0  0  0  0  0
   10.1750   -2.3210   21.3500 C   0  0  0  0  0  0  0  0  0  0  0  0
   11.4520   -0.9480   22.8330 C   0  0  0  0  0  0  0  0  0  0  0  0
    5.6340    2.5020   17.7940 C   0  0  0  0  0  0  0  0  0  0  0  0
    6.7120    0.4630   18.1770 C   0  0  0  0  0  0  0  0  0  0  0  0
    9.8000    4.0010   27.3070 C   0  0  0  0  0  0  0  0  0  0  0  0
   10.9700    3.3840   25.4080 C   0  0  0  0  0  0  0  0  0  0  0  0
   10.8990    4.3880   26.5960 C   0  0  0  0  0  0  0  0  0  0  0  0
    6.2960    1.9550   19.9830 C   0  0  0  0  0  0  0  0  0  0  0  0
    9.0000   -1.9280   21.9700 C   0  0  0  0  0  0  0  0  0  0  0  0
    6.7470    0.7120   19.5690 C   0  0  0  0  0  0  0  0  0  0  0  0
   10.3330   -0.4320   23.4410 C   0  0  0  0  0  0  0  0  0  0  0  0
   11.3890   -1.8750   21.8130 C   0  0  0  0  0  0  0  0  0  0  0  0
    9.9170    2.5940   25.6800 C   0  0  0  0  0  0  0  0  0  0  0  0
   11.9380    3.2880   24.3230 C   0  0  0  0  0  0  0  0  0  0  0  0
    7.1840   -1.5380   20.4320 C   0  0  0  0  0  0  0  0  0  0  0  0
   13.3820    6.5620   25.8620 C   0  0  0  0  0  0  0  0  0  0  0  0
   13.0720    5.6990   27.1090 C   0  0  0  0  0  0  0  0  0  0  0  0
   11.8920    6.4530   25.4410 C   0  0  0  0  0  0  0  0  0  0  0  0
   11.6450    5.7200   26.6990 C   0  0  0  0  0  0  0  0  0  0  0  0
    6.2760    2.4500   21.4190 C   0  0  0  0  0  0  0  0  0  0  0  0
   14.7490    2.2010   23.0920 C   0  0  0  0  0  0  0  0  0  0  0  0
    7.6750   -2.4790   21.5410 C   0  0  0  0  0  0  0  0  0  0  0  0
    9.5080    1.3750   24.9300 C   0  0  0  0  0  0  0  0  0  0  0  0
   14.2530    3.5930   23.4450 C   0  0  0  0  0  0  0  0  0  0  0  0
    6.1570    1.3630   17.2860 N   0  0  0  0  0  0  0  0  0  0  0  0
    7.2390   -0.1740   20.5740 N   0  0  0  0  0  0  0  0  0  0  0  0
   11.5080    2.8800   23.2620 O   0  0  0  0  0  0  0  0  0  0  0  0
    6.6860   -2.0450   19.4970 O   0  0  0  0  0  0  0  0  0  0  0  0
    9.2560    2.8830   26.8330 O   0  0  0  0  0  0  0  0  0  0  0  0
   10.5670    0.4470   24.5190 O   0  0  0  0  0  0  0  0  0  0  0  0
   13.2680    3.6260   24.5480 O   0  0  0  0  0  0  0  0  0  0  0  0
   12.7940   -2.5110   21.1330 Cl  0  0  0  0  0  0  0  0  0  0  0  0
    5.1650    3.7160   19.4150 H   0  0  0  0  0  0  0  0  0  0  0  0
    8.2250   -0.5160   23.4650 H   0  0  0  0  0  0  0  0  0  0  0  0
   10.1480   -3.0340   20.5330 H   0  0  0  0  0  0  0  0  0  0  0  0
   12.4170   -0.6120   23.2000 H   0  0  0  0  0  0  0  0  0  0  0  0
    5.2690    3.2630   17.1060 H   0  0  0  0  0  0  0  0  0  0  0  0
    7.0700   -0.4760   17.7570 H   0  0  0  0  0  0  0  0  0  0  0  0
    9.3160    4.6090   28.0680 H   0  0  0  0  0  0  0  0  0  0  0  0
   13.6560    7.6150   25.9940 H   0  0  0  0  0  0  0  0  0  0  0  0
   14.0460    6.1480   25.0930 H   0  0  0  0  0  0  0  0  0  0  0  0
   13.5550    4.7300   26.9770 H   0  0  0  0  0  0  0  0  0  0  0  0
   13.3960    6.1550   28.0430 H   0  0  0  0  0  0  0  0  0  0  0  0
   11.4430    7.4430   25.3560 H   0  0  0  0  0  0  0  0  0  0  0  0
   11.6110    5.9890   24.4950 H   0  0  0  0  0  0  0  0  0  0  0  0
   11.1840    6.4170   27.4040 H   0  0  0  0  0  0  0  0  0  0  0  0
    6.1220    3.5350   21.4480 H   0  0  0  0  0  0  0  0  0  0  0  0
    5.5010    1.9240   21.9700 H   0  0  0  0  0  0  0  0  0  0  0  0
    7.2960    2.3670   21.8200 H   0  0  0  0  0  0  0  0  0  0  0  0
   15.4480    2.2220   22.2470 H   0  0  0  0  0  0  0  0  0  0  0  0
   15.3620    1.8060   23.9120 H   0  0  0  0  0  0  0  0  0  0  0  0
   13.9310    1.5290   22.8200 H   0  0  0  0  0  0  0  0  0  0  0  0
    7.6070   -3.5120   21.1960 H   0  0  0  0  0  0  0  0  0  0  0  0
    6.9910   -2.3380   22.3810 H   0  0  0  0  0  0  0  0  0  0  0  0
    8.8960    0.7560   25.5740 H   0  0  0  0  0  0  0  0  0  0  0  0
    8.9150    1.8190   24.1210 H   0  0  0  0  0  0  0  0  0  0  0  0
   15.0970    4.2050   23.7850 H   0  0  0  0  0  0  0  0  0  0  0  0
   13.8340    4.1250   22.5910 H   0  0  0  0  0  0  0  0  0  0  0  0
    7.6740    0.1290   21.4460 H   0  0  0  0  0  0  0  0  0  0  0  0
  5 39  1  0  0  0  0
  5 27  2  0  0  0  0
  6 27  1  0  0  0  0
  6 40  1  0  0  0  0
  1  5  1  0  0  0  0
  6 12  2  0  0  0  0
  1 35  1  0  0  0  0
  1 10  2  0  0  0  0
 17 30  2  0  0  0  0
 10 12  1  0  0  0  0
 12 28  1  0  0  0  0
 10 22  1  0  0  0  0
 17 28  1  0  0  0  0
 17 24  1  0  0  0  0
  3 37  1  0  0  0  0
 28 61  1  0  0  0  0
 14 34  1  0  0  0  0
 24 55  1  0  0  0  0
  3 14  2  0  0  0  0
  3 11  1  0  0  0  0
 22 49  1  0  0  0  0
 22 51  1  0  0  0  0
 22 50  1  0  0  0  0
 11 24  1  0  0  0  0
 24 56  1  0  0  0  0
  4 14  1  0  0  0  0
  2 11  2  0  0  0  0
 23 52  1  0  0  0  0
 26 60  1  0  0  0  0
 23 54  1  0  0  0  0
  4 38  1  0  0  0  0
  4 13  2  0  0  0  0
  2 13  1  0  0  0  0
  2 36  1  0  0  0  0
 23 26  1  0  0  0  0
 23 53  1  0  0  0  0
 16 29  2  0  0  0  0
 13 32  1  0  0  0  0
 26 59  1  0  0  0  0
 26 33  1  0  0  0  0
 25 58  1  0  0  0  0
 16 33  1  0  0  0  0
  8 16  1  0  0  0  0
 20 47  1  0  0  0  0
 25 32  1  0  0  0  0
 25 57  1  0  0  0  0
 15 25  1  0  0  0  0
 18 43  1  0  0  0  0
 20 46  1  0  0  0  0
  8 15  2  0  0  0  0
  8  9  1  0  0  0  0
 18 20  1  0  0  0  0
 20 21  1  0  0  0  0
 15 31  1  0  0  0  0
 18 42  1  0  0  0  0
 18 19  1  0  0  0  0
  9 21  1  0  0  0  0
  7  9  2  0  0  0  0
 19 21  1  0  0  0  0
 21 48  1  0  0  0  0
  7 31  1  0  0  0  0
 19 44  1  0  0  0  0
 19 45  1  0  0  0  0
  7 41  1  0  0  0  0
M  END
> <CID>
EN300-703234

> <SMILES>
CCOC(=O)c1c(coc1COc2cc(cc(c2)Cl)CC(=O)Nc3cnccc3C)C4CCC4

> <RUN>
RUN1813

> <DDG (kcal/mol)>
-0.07

> <dDDG (kcal/mol)>
0.17

$$$$
EN300-59530
  -OEChem-08252008263D

 59 62  0     0  0  0  0  0  0999 V2000
   13.3830    6.0790   21.2290 C   0  0  0  0  0  0  0  0  0  0  0  0
   14.3080    5.0570   20.8270 C   0  0  0  0  0  0  0  0  0  0  0  0
   12.6920    5.9050   22.3660 C   0  0  0  0  0  0  0  0  0  0  0  0
   15.6120   -1.4180   23.5590 C   0  0  0  0  0  0  0  0  0  0  0  0
   14.4560    3.8900   21.6060 C   0  0  0  0  0  0  0  0  0  0  0  0
   12.8730    4.7280   23.1240 C   0  0  0  0  0  0  0  0  0  0  0  0
   15.2200   -2.2290   22.5790 C   0  0  0  0  0  0  0  0  0  0  0  0
   14.9690   -0.2050   23.7660 C   0  0  0  0  0  0  0  0  0  0  0  0
    5.8800    2.7180   18.4360 C   0  0  0  0  0  0  0  0  0  0  0  0
   13.5520   -0.7600   21.9860 C   0  0  0  0  0  0  0  0  0  0  0  0
   10.1530   -2.3220   21.1070 C   0  0  0  0  0  0  0  0  0  0  0  0
    9.1230   -4.0730   22.4270 C   0  0  0  0  0  0  0  0  0  0  0  0
   11.4520   -4.2570   21.9120 C   0  0  0  0  0  0  0  0  0  0  0  0
    6.1810    2.2910   17.1580 C   0  0  0  0  0  0  0  0  0  0  0  0
    7.1980    0.3570   17.9600 C   0  0  0  0  0  0  0  0  0  0  0  0
   13.6610    3.6380   22.7520 C   0  0  0  0  0  0  0  0  0  0  0  0
   14.1390   -1.9870   21.8130 C   0  0  0  0  0  0  0  0  0  0  0  0
    6.2330    1.9730   19.5640 C   0  0  0  0  0  0  0  0  0  0  0  0
    9.0390   -2.8690   21.7140 C   0  0  0  0  0  0  0  0  0  0  0  0
    6.9050    0.7740   19.2770 C   0  0  0  0  0  0  0  0  0  0  0  0
   13.9340    0.1500   22.9390 C   0  0  0  0  0  0  0  0  0  0  0  0
   11.3280   -3.1140   21.0880 C   0  0  0  0  0  0  0  0  0  0  0  0
   10.3210   -4.7770   22.5380 C   0  0  0  0  0  0  0  0  0  0  0  0
    7.4160   -1.3340   20.4150 C   0  0  0  0  0  0  0  0  0  0  0  0
    6.1330    2.5510   20.9320 C   0  0  0  0  0  0  0  0  0  0  0  0
    7.7780   -2.0520   21.7390 C   0  0  0  0  0  0  0  0  0  0  0  0
   13.7900    2.4300   23.6180 C   0  0  0  0  0  0  0  0  0  0  0  0
   13.7400   -2.9080   20.6620 C   0  0  0  0  0  0  0  0  0  0  0  0
    6.8360    1.1340   16.9200 N   0  0  0  0  0  0  0  0  0  0  0  0
    7.3120   -0.0030   20.3900 N   0  0  0  0  0  0  0  0  0  0  0  0
    6.9030   -2.0100   19.5240 O   0  0  0  0  0  0  0  0  0  0  0  0
   13.1640    1.2960   23.0170 O   0  0  0  0  0  0  0  0  0  0  0  0
   12.3870   -2.7240   20.1970 O   0  0  0  0  0  0  0  0  0  0  0  0
   10.3170   -6.2880   23.3850 Cl  0  0  0  0  0  0  0  0  0  0  0  0
   13.2540    6.8850   20.5100 H   0  0  0  0  0  0  0  0  0  0  0  0
   14.8900    5.1820   19.9140 H   0  0  0  0  0  0  0  0  0  0  0  0
   12.0350    6.6040   22.8740 H   0  0  0  0  0  0  0  0  0  0  0  0
   16.4820   -1.6930   24.1560 H   0  0  0  0  0  0  0  0  0  0  0  0
   15.2320    3.1890   21.3100 H   0  0  0  0  0  0  0  0  0  0  0  0
   12.2610    4.6960   24.0190 H   0  0  0  0  0  0  0  0  0  0  0  0
   15.8610   -3.0810   22.3980 H   0  0  0  0  0  0  0  0  0  0  0  0
   15.3140    0.4640   24.5470 H   0  0  0  0  0  0  0  0  0  0  0  0
    5.4370    3.6900   18.6380 H   0  0  0  0  0  0  0  0  0  0  0  0
   12.8400   -0.4260   21.2390 H   0  0  0  0  0  0  0  0  0  0  0  0
   10.0840   -1.3480   20.6520 H   0  0  0  0  0  0  0  0  0  0  0  0
    8.2580   -4.4190   22.9790 H   0  0  0  0  0  0  0  0  0  0  0  0
   12.3780   -4.8080   22.0160 H   0  0  0  0  0  0  0  0  0  0  0  0
    5.8620    2.8020   16.2640 H   0  0  0  0  0  0  0  0  0  0  0  0
    7.7340   -0.5600   17.7820 H   0  0  0  0  0  0  0  0  0  0  0  0
    7.0500    2.3300   21.4800 H   0  0  0  0  0  0  0  0  0  0  0  0
    6.0670    3.6430   20.9120 H   0  0  0  0  0  0  0  0  0  0  0  0
    5.2650    2.1420   21.4720 H   0  0  0  0  0  0  0  0  0  0  0  0
    6.9970   -2.8020   21.8880 H   0  0  0  0  0  0  0  0  0  0  0  0
    7.7630   -1.3470   22.5700 H   0  0  0  0  0  0  0  0  0  0  0  0
   14.8520    2.2070   23.7740 H   0  0  0  0  0  0  0  0  0  0  0  0
   13.1960    2.4980   24.5310 H   0  0  0  0  0  0  0  0  0  0  0  0
   14.3900   -2.6910   19.8110 H   0  0  0  0  0  0  0  0  0  0  0  0
   14.0020   -3.9590   20.8380 H   0  0  0  0  0  0  0  0  0  0  0  0
    7.4820    0.4800   21.2790 H   0  0  0  0  0  0  0  0  0  0  0  0
 14 48  1  0  0  0  0
 14 29  2  0  0  0  0
 15 29  1  0  0  0  0
  9 14  1  0  0  0  0
 15 49  1  0  0  0  0
 15 20  2  0  0  0  0
  9 43  1  0  0  0  0
  9 18  2  0  0  0  0
 18 20  1  0  0  0  0
 20 30  1  0  0  0  0
 24 31  2  0  0  0  0
 18 25  1  0  0  0  0
 28 57  1  0  0  0  0
  2 36  1  0  0  0  0
 28 33  1  0  0  0  0
 22 33  1  0  0  0  0
 24 30  1  0  0  0  0
 30 59  1  0  0  0  0
 24 26  1  0  0  0  0
  1 35  1  0  0  0  0
 11 45  1  0  0  0  0
 28 58  1  0  0  0  0
 17 28  1  0  0  0  0
  1  2  2  0  0  0  0
  2  5  1  0  0  0  0
 25 51  1  0  0  0  0
 25 52  1  0  0  0  0
 25 50  1  0  0  0  0
 11 22  2  0  0  0  0
 13 22  1  0  0  0  0
 11 19  1  0  0  0  0
  1  3  1  0  0  0  0
 10 44  1  0  0  0  0
  5 39  1  0  0  0  0
  5 16  2  0  0  0  0
 19 26  1  0  0  0  0
 12 19  2  0  0  0  0
 26 53  1  0  0  0  0
 26 54  1  0  0  0  0
 10 17  2  0  0  0  0
  7 17  1  0  0  0  0
 13 47  1  0  0  0  0
 13 23  2  0  0  0  0
 10 21  1  0  0  0  0
  3 37  1  0  0  0  0
  3  6  2  0  0  0  0
  7 41  1  0  0  0  0
 12 23  1  0  0  0  0
 12 46  1  0  0  0  0
 23 34  1  0  0  0  0
  4  7  2  0  0  0  0
  6 16  1  0  0  0  0
 16 27  1  0  0  0  0
 21 32  1  0  0  0  0
  8 21  2  0  0  0  0
 27 32  1  0  0  0  0
  6 40  1  0  0  0  0
  4  8  1  0  0  0  0
  4 38  1  0  0  0  0
 27 55  1  0  0  0  0
 27 56  1  0  0  0  0
  8 42  1  0  0  0  0
M  END
> <CID>
EN300-59530

> <SMILES>
Cc1ccncc1NC(=O)Cc2cc(cc(c2)Cl)OCc3cccc(c3)OCc4ccccc4

> <RUN>
RUN1147

> <DDG (kcal/mol)>
-0.07

> <dDDG (kcal/mol)>
0.15

$$$$
EN300-766154
  -OEChem-08252008263D

 63 66  0     0  0  0  0  0  0999 V2000
    4.3770    1.3830   18.9420 C   0  0  0  0  0  0  0  0  0  0  0  0
   11.3980    2.1800   22.6020 C   0  0  0  0  0  0  0  0  0  0  0  0
   11.4810   -0.1840   22.4250 C   0  0  0  0  0  0  0  0  0  0  0  0
   13.4360    1.1020   22.0910 C   0  0  0  0  0  0  0  0  0  0  0  0
    5.0210    1.1110   17.6880 C   0  0  0  0  0  0  0  0  0  0  0  0
    8.2860    9.5760   23.8120 C   0  0  0  0  0  0  0  0  0  0  0  0
    6.9380    0.5100   18.8130 C   0  0  0  0  0  0  0  0  0  0  0  0
   10.8780    5.5050   23.2990 C   0  0  0  0  0  0  0  0  0  0  0  0
    5.0810    1.2340   20.1470 C   0  0  0  0  0  0  0  0  0  0  0  0
   10.7200    0.9390   22.5010 C   0  0  0  0  0  0  0  0  0  0  0  0
    8.7410   10.6000   24.6550 C   0  0  0  0  0  0  0  0  0  0  0  0
    9.5610    8.8450   26.1010 C   0  0  0  0  0  0  0  0  0  0  0  0
    6.4410    0.7940   20.0970 C   0  0  0  0  0  0  0  0  0  0  0  0
   12.7850    2.2850   22.3800 C   0  0  0  0  0  0  0  0  0  0  0  0
    9.3210   10.2080   25.8360 C   0  0  0  0  0  0  0  0  0  0  0  0
   12.8790   -0.1190   22.2000 C   0  0  0  0  0  0  0  0  0  0  0  0
   12.2170    5.3400   23.1260 C   0  0  0  0  0  0  0  0  0  0  0  0
    9.1710    7.8790   25.1250 C   0  0  0  0  0  0  0  0  0  0  0  0
    8.4450    0.9990   21.4130 C   0  0  0  0  0  0  0  0  0  0  0  0
    4.4770    1.5050   21.5110 C   0  0  0  0  0  0  0  0  0  0  0  0
    8.6680   12.0110   24.2120 C   0  0  0  0  0  0  0  0  0  0  0  0
   10.2390    8.4580   27.3530 C   0  0  0  0  0  0  0  0  0  0  0  0
   10.9280   11.6230   26.8670 C   0  0  0  0  0  0  0  0  0  0  0  0
    9.1840    0.9330   22.6960 C   0  0  0  0  0  0  0  0  0  0  0  0
    9.4560    6.4370   25.2140 C   0  0  0  0  0  0  0  0  0  0  0  0
   12.9980    4.6670   21.9810 C   0  0  0  0  0  0  0  0  0  0  0  0
    6.2570    0.6520   17.5920 N   0  0  0  0  0  0  0  0  0  0  0  0
    8.4550    8.2620   24.0700 N   0  0  0  0  0  0  0  0  0  0  0  0
   12.8650    5.8480   24.2180 N   0  0  0  0  0  0  0  0  0  0  0  0
   11.9840    6.2450   25.1130 N   0  0  0  0  0  0  0  0  0  0  0  0
   10.7520    6.0480   24.5430 N   0  0  0  0  0  0  0  0  0  0  0  0
    7.1450    0.6100   21.2570 N   0  0  0  0  0  0  0  0  0  0  0  0
    9.0480    1.3580   20.4350 O   0  0  0  0  0  0  0  0  0  0  0  0
    9.5500   11.1730   26.8530 O   0  0  0  0  0  0  0  0  0  0  0  0
   13.6170    3.4210   22.3860 O   0  0  0  0  0  0  0  0  0  0  0  0
   13.9170   -1.5940   22.0300 Cl  0  0  0  0  0  0  0  0  0  0  0  0
    3.3460    1.7320   18.9300 H   0  0  0  0  0  0  0  0  0  0  0  0
   10.7960    3.0440   22.8720 H   0  0  0  0  0  0  0  0  0  0  0  0
   11.0230   -1.1620   22.3780 H   0  0  0  0  0  0  0  0  0  0  0  0
   14.4890    1.1660   21.8610 H   0  0  0  0  0  0  0  0  0  0  0  0
    4.3390    1.2080   16.8400 H   0  0  0  0  0  0  0  0  0  0  0  0
    7.8130    9.9580   22.9170 H   0  0  0  0  0  0  0  0  0  0  0  0
    7.9380    0.0910   18.7280 H   0  0  0  0  0  0  0  0  0  0  0  0
   10.1030    5.1330   22.6410 H   0  0  0  0  0  0  0  0  0  0  0  0
    3.4740    1.9400   21.4540 H   0  0  0  0  0  0  0  0  0  0  0  0
    4.3920    0.5260   22.0080 H   0  0  0  0  0  0  0  0  0  0  0  0
    5.0620    2.1400   22.1860 H   0  0  0  0  0  0  0  0  0  0  0  0
    7.8360   12.1050   23.5090 H   0  0  0  0  0  0  0  0  0  0  0  0
    8.4090   12.6800   25.0360 H   0  0  0  0  0  0  0  0  0  0  0  0
    9.5870   12.3240   23.7100 H   0  0  0  0  0  0  0  0  0  0  0  0
    9.6660    7.6800   27.8840 H   0  0  0  0  0  0  0  0  0  0  0  0
   11.2370    8.2020   27.0000 H   0  0  0  0  0  0  0  0  0  0  0  0
   10.3100    9.2590   28.0930 H   0  0  0  0  0  0  0  0  0  0  0  0
   10.8550   12.5380   27.4500 H   0  0  0  0  0  0  0  0  0  0  0  0
   11.2120   11.9230   25.8610 H   0  0  0  0  0  0  0  0  0  0  0  0
   11.5930   10.8530   27.2680 H   0  0  0  0  0  0  0  0  0  0  0  0
    8.8390    0.1020   23.3150 H   0  0  0  0  0  0  0  0  0  0  0  0
    8.9220    1.7620   23.3650 H   0  0  0  0  0  0  0  0  0  0  0  0
    9.6290    6.0810   26.2290 H   0  0  0  0  0  0  0  0  0  0  0  0
    8.6920    5.8240   24.7230 H   0  0  0  0  0  0  0  0  0  0  0  0
   12.2990    4.3640   21.1930 H   0  0  0  0  0  0  0  0  0  0  0  0
   13.8140    5.3020   21.6230 H   0  0  0  0  0  0  0  0  0  0  0  0
    6.7260    0.3970   22.1650 H   0  0  0  0  0  0  0  0  0  0  0  0
  5 41  1  0  0  0  0
  5 27  2  0  0  0  0
  7 27  1  0  0  0  0
  1  5  1  0  0  0  0
  7 43  1  0  0  0  0
  7 13  2  0  0  0  0
  1 37  1  0  0  0  0
  1  9  2  0  0  0  0
  9 13  1  0  0  0  0
 13 32  1  0  0  0  0
  9 20  1  0  0  0  0
 19 33  2  0  0  0  0
 26 61  1  0  0  0  0
 19 32  1  0  0  0  0
 32 63  1  0  0  0  0
 19 24  1  0  0  0  0
 20 45  1  0  0  0  0
 20 46  1  0  0  0  0
 20 47  1  0  0  0  0
 26 62  1  0  0  0  0
  4 40  1  0  0  0  0
 26 35  1  0  0  0  0
 17 26  1  0  0  0  0
 16 36  1  0  0  0  0
  4 16  2  0  0  0  0
  4 14  1  0  0  0  0
  3 16  1  0  0  0  0
  3 39  1  0  0  0  0
 14 35  1  0  0  0  0
  2 14  2  0  0  0  0
  3 10  2  0  0  0  0
  2 10  1  0  0  0  0
 10 24  1  0  0  0  0
  2 38  1  0  0  0  0
  8 44  1  0  0  0  0
 24 57  1  0  0  0  0
 24 58  1  0  0  0  0
  6 42  1  0  0  0  0
  8 17  2  0  0  0  0
 17 29  1  0  0  0  0
  8 31  1  0  0  0  0
 21 48  1  0  0  0  0
 21 50  1  0  0  0  0
  6 28  2  0  0  0  0
  6 11  1  0  0  0  0
 18 28  1  0  0  0  0
 11 21  1  0  0  0  0
 21 49  1  0  0  0  0
 29 30  2  0  0  0  0
 30 31  1  0  0  0  0
 25 31  1  0  0  0  0
 11 15  2  0  0  0  0
 25 60  1  0  0  0  0
 18 25  1  0  0  0  0
 12 18  2  0  0  0  0
 25 59  1  0  0  0  0
 12 15  1  0  0  0  0
 15 34  1  0  0  0  0
 23 55  1  0  0  0  0
 12 22  1  0  0  0  0
 23 34  1  0  0  0  0
 23 56  1  0  0  0  0
 23 54  1  0  0  0  0
 22 52  1  0  0  0  0
 22 51  1  0  0  0  0
 22 53  1  0  0  0  0
M  END
> <CID>
EN300-766154

> <SMILES>
Cc1ccncc1NC(=O)Cc2cc(cc(c2)Cl)OCc3cn(nn3)Cc4c(c(c(cn4)C)OC)C

> <RUN>
RUN2176

> <DDG (kcal/mol)>
-0.07

> <dDDG (kcal/mol)>
0.18

$$$$
EN300-1898328
  -OEChem-08252008263D

 45 47  0     0  0  0  0  0  0999 V2000
    5.4720    1.3290   19.6330 C   0  0  0  0  0  0  0  0  0  0  0  0
   11.9880    2.0210   23.5960 C   0  0  0  0  0  0  0  0  0  0  0  0
   16.0530    6.0750   24.9160 C   0  0  0  0  0  0  0  0  0  0  0  0
   12.6090   -0.2540   23.8190 C   0  0  0  0  0  0  0  0  0  0  0  0
   13.7860    4.7160   25.5740 C   0  0  0  0  0  0  0  0  0  0  0  0
   14.2820    1.5470   23.7160 C   0  0  0  0  0  0  0  0  0  0  0  0
    5.9180    0.4780   18.5820 C   0  0  0  0  0  0  0  0  0  0  0  0
    7.8160   -0.0810   19.8020 C   0  0  0  0  0  0  0  0  0  0  0  0
    6.2140    1.4550   20.7790 C   0  0  0  0  0  0  0  0  0  0  0  0
   11.5950    0.7420   23.6880 C   0  0  0  0  0  0  0  0  0  0  0  0
   15.4440    5.2530   23.9510 C   0  0  0  0  0  0  0  0  0  0  0  0
    7.4210    0.6900   20.8750 C   0  0  0  0  0  0  0  0  0  0  0  0
   13.2500    2.5270   23.6020 C   0  0  0  0  0  0  0  0  0  0  0  0
   14.2880    4.5170   24.2360 C   0  0  0  0  0  0  0  0  0  0  0  0
   15.5330    6.2800   26.1640 C   0  0  0  0  0  0  0  0  0  0  0  0
   14.3590    5.6130   26.4950 C   0  0  0  0  0  0  0  0  0  0  0  0
   13.9520    0.1520   23.8540 C   0  0  0  0  0  0  0  0  0  0  0  0
    9.5520    0.6470   22.2670 C   0  0  0  0  0  0  0  0  0  0  0  0
    5.6220    2.2660   21.9290 C   0  0  0  0  0  0  0  0  0  0  0  0
   10.1470    0.4240   23.6110 C   0  0  0  0  0  0  0  0  0  0  0  0
   16.0590    5.2890   22.5840 C   0  0  0  0  0  0  0  0  0  0  0  0
    7.1080   -0.1310   18.6990 N   0  0  0  0  0  0  0  0  0  0  0  0
    8.1530    0.7380   22.0970 N   0  0  0  0  0  0  0  0  0  0  0  0
   10.2370    0.8180   21.2580 O   0  0  0  0  0  0  0  0  0  0  0  0
   13.4820    3.8300   23.3130 O   0  0  0  0  0  0  0  0  0  0  0  0
   16.2140    7.0180   27.0640 F   0  0  0  0  0  0  0  0  0  0  0  0
   13.7250    5.7750   27.7010 F   0  0  0  0  0  0  0  0  0  0  0  0
   15.1810   -1.0060   23.8390 Cl  0  0  0  0  0  0  0  0  0  0  0  0
   15.8040    7.2290   21.8580 Br  0  0  0  0  0  0  0  0  0  0  0  0
    4.5130    1.8540   19.6750 H   0  0  0  0  0  0  0  0  0  0  0  0
   11.1590    2.7000   23.4220 H   0  0  0  0  0  0  0  0  0  0  0  0
   16.9980    6.4990   24.5980 H   0  0  0  0  0  0  0  0  0  0  0  0
   12.2980   -1.2820   23.9790 H   0  0  0  0  0  0  0  0  0  0  0  0
   12.8220    4.3330   25.8900 H   0  0  0  0  0  0  0  0  0  0  0  0
   15.3120    1.8870   23.5900 H   0  0  0  0  0  0  0  0  0  0  0  0
    5.4330    0.4520   17.6140 H   0  0  0  0  0  0  0  0  0  0  0  0
    8.6670   -0.7450   19.8240 H   0  0  0  0  0  0  0  0  0  0  0  0
    5.0520    1.5760   22.5690 H   0  0  0  0  0  0  0  0  0  0  0  0
    6.3540    2.7050   22.6160 H   0  0  0  0  0  0  0  0  0  0  0  0
    4.9740    3.0760   21.5930 H   0  0  0  0  0  0  0  0  0  0  0  0
    9.8380   -0.5610   23.9710 H   0  0  0  0  0  0  0  0  0  0  0  0
    9.6860    1.1630   24.2690 H   0  0  0  0  0  0  0  0  0  0  0  0
   15.6000    4.6210   21.8530 H   0  0  0  0  0  0  0  0  0  0  0  0
   17.1270    5.0650   22.6800 H   0  0  0  0  0  0  0  0  0  0  0  0
    7.5720    0.6780   22.9330 H   0  0  0  0  0  0  0  0  0  0  0  0
  7 36  1  0  0  0  0
  7 22  2  0  0  0  0
  1  7  1  0  0  0  0
  8 22  1  0  0  0  0
  1 30  1  0  0  0  0
  1  9  2  0  0  0  0
  8 37  1  0  0  0  0
  8 12  2  0  0  0  0
  9 12  1  0  0  0  0
  9 19  1  0  0  0  0
 12 23  1  0  0  0  0
 18 24  2  0  0  0  0
 19 40  1  0  0  0  0
 21 43  1  0  0  0  0
 21 29  1  0  0  0  0
 19 38  1  0  0  0  0
 19 39  1  0  0  0  0
 18 23  1  0  0  0  0
 23 45  1  0  0  0  0
 18 20  1  0  0  0  0
 21 44  1  0  0  0  0
 11 21  1  0  0  0  0
 13 25  1  0  0  0  0
 14 25  1  0  0  0  0
  2 31  1  0  0  0  0
  6 35  1  0  0  0  0
  2 13  2  0  0  0  0
  2 10  1  0  0  0  0
  6 13  1  0  0  0  0
 10 20  1  0  0  0  0
 20 41  1  0  0  0  0
 20 42  1  0  0  0  0
  4 10  2  0  0  0  0
  6 17  2  0  0  0  0
  4 17  1  0  0  0  0
  4 33  1  0  0  0  0
 17 28  1  0  0  0  0
 11 14  2  0  0  0  0
  3 11  1  0  0  0  0
  5 14  1  0  0  0  0
  3 32  1  0  0  0  0
  3 15  2  0  0  0  0
  5 34  1  0  0  0  0
  5 16  2  0  0  0  0
 15 16  1  0  0  0  0
 15 26  1  0  0  0  0
 16 27  1  0  0  0  0
M  END
> <CID>
EN300-1898328

> <SMILES>
Cc1ccncc1NC(=O)Cc2cc(cc(c2)Cl)Oc3cc(c(cc3CBr)F)F

> <RUN>
RUN1288

> <DDG (kcal/mol)>
-0.06

> <dDDG (kcal/mol)>
0.13

$$$$
EN300-1912781
  -OEChem-08252008263D

 45 47  0     0  0  0  0  0  0999 V2000
   15.9980    6.1660   21.5460 C   0  0  0  0  0  0  0  0  0  0  0  0
   16.4370    7.4090   21.0980 C   0  0  0  0  0  0  0  0  0  0  0  0
    5.7790    0.9820   19.8190 C   0  0  0  0  0  0  0  0  0  0  0  0
   13.0360    2.3830   22.7740 C   0  0  0  0  0  0  0  0  0  0  0  0
   13.1730    0.1010   23.4130 C   0  0  0  0  0  0  0  0  0  0  0  0
   15.1340    1.1870   22.5890 C   0  0  0  0  0  0  0  0  0  0  0  0
    6.2930    0.3950   18.6770 C   0  0  0  0  0  0  0  0  0  0  0  0
    8.3180    0.1620   19.6940 C   0  0  0  0  0  0  0  0  0  0  0  0
   16.7940    5.0620   21.3520 C   0  0  0  0  0  0  0  0  0  0  0  0
    6.5850    1.1680   20.9480 C   0  0  0  0  0  0  0  0  0  0  0  0
   12.4110    1.2420   23.1800 C   0  0  0  0  0  0  0  0  0  0  0  0
    7.9000    0.7570   20.8840 C   0  0  0  0  0  0  0  0  0  0  0  0
   14.3870    2.4160   22.4280 C   0  0  0  0  0  0  0  0  0  0  0  0
   17.6650    7.4570   20.5320 C   0  0  0  0  0  0  0  0  0  0  0  0
   18.0260    5.1000   20.7460 C   0  0  0  0  0  0  0  0  0  0  0  0
   14.5490    0.0130   23.1280 C   0  0  0  0  0  0  0  0  0  0  0  0
   18.4560    6.3440   20.2760 C   0  0  0  0  0  0  0  0  0  0  0  0
   10.1620    0.9990   22.0170 C   0  0  0  0  0  0  0  0  0  0  0  0
    5.9890    1.7750   22.1140 C   0  0  0  0  0  0  0  0  0  0  0  0
   10.8820    1.1230   23.3390 C   0  0  0  0  0  0  0  0  0  0  0  0
   16.2130    3.6440   21.5460 C   0  0  0  0  0  0  0  0  0  0  0  0
    7.5380   -0.0150   18.6070 N   0  0  0  0  0  0  0  0  0  0  0  0
    8.8110    1.0320   21.9730 N   0  0  0  0  0  0  0  0  0  0  0  0
   10.8020    0.9200   20.9930 O   0  0  0  0  0  0  0  0  0  0  0  0
   14.9110    3.6480   22.0360 O   0  0  0  0  0  0  0  0  0  0  0  0
   18.2390    8.6460   20.2640 F   0  0  0  0  0  0  0  0  0  0  0  0
   18.7870    3.9170   20.4770 F   0  0  0  0  0  0  0  0  0  0  0  0
   15.4250   -1.4590   23.4150 Cl  0  0  0  0  0  0  0  0  0  0  0  0
   20.1410    6.4530   19.3870 Br  0  0  0  0  0  0  0  0  0  0  0  0
   14.9850    6.0190   21.9170 H   0  0  0  0  0  0  0  0  0  0  0  0
   15.9680    8.3600   21.3160 H   0  0  0  0  0  0  0  0  0  0  0  0
    4.7190    1.2220   19.8100 H   0  0  0  0  0  0  0  0  0  0  0  0
   12.4260    3.2710   22.5990 H   0  0  0  0  0  0  0  0  0  0  0  0
   12.6850   -0.8000   23.7730 H   0  0  0  0  0  0  0  0  0  0  0  0
   16.2050    1.0590   22.4800 H   0  0  0  0  0  0  0  0  0  0  0  0
    5.6060    0.4140   17.8410 H   0  0  0  0  0  0  0  0  0  0  0  0
    9.2740   -0.3350   19.5910 H   0  0  0  0  0  0  0  0  0  0  0  0
    6.1490    1.0710   22.9290 H   0  0  0  0  0  0  0  0  0  0  0  0
    6.5700    2.6660   22.3630 H   0  0  0  0  0  0  0  0  0  0  0  0
    4.9060    1.8960   22.0010 H   0  0  0  0  0  0  0  0  0  0  0  0
   10.6530    0.2750   23.9810 H   0  0  0  0  0  0  0  0  0  0  0  0
   10.4560    2.0400   23.7810 H   0  0  0  0  0  0  0  0  0  0  0  0
   16.2620    3.1080   20.5990 H   0  0  0  0  0  0  0  0  0  0  0  0
   16.8440    3.0970   22.2590 H   0  0  0  0  0  0  0  0  0  0  0  0
    8.3760    1.3630   22.8360 H   0  0  0  0  0  0  0  0  0  0  0  0
  7 36  1  0  0  0  0
  7 22  2  0  0  0  0
  8 22  1  0  0  0  0
  3  7  1  0  0  0  0
 17 29  1  0  0  0  0
  8 37  1  0  0  0  0
  8 12  2  0  0  0  0
  3 32  1  0  0  0  0
  3 10  2  0  0  0  0
 14 26  1  0  0  0  0
 14 17  2  0  0  0  0
 15 17  1  0  0  0  0
 15 27  1  0  0  0  0
  2 14  1  0  0  0  0
 21 43  1  0  0  0  0
  9 15  2  0  0  0  0
 10 12  1  0  0  0  0
 12 23  1  0  0  0  0
 10 19  1  0  0  0  0
 18 24  2  0  0  0  0
  2 31  1  0  0  0  0
  1  2  2  0  0  0  0
  1  9  1  0  0  0  0
  9 21  1  0  0  0  0
  1 30  1  0  0  0  0
 21 25  1  0  0  0  0
 21 44  1  0  0  0  0
 18 23  1  0  0  0  0
 23 45  1  0  0  0  0
 19 40  1  0  0  0  0
 18 20  1  0  0  0  0
 13 25  1  0  0  0  0
 19 39  1  0  0  0  0
 19 38  1  0  0  0  0
  6 13  2  0  0  0  0
  4 13  1  0  0  0  0
  6 35  1  0  0  0  0
  6 16  1  0  0  0  0
  4 33  1  0  0  0  0
  4 11  2  0  0  0  0
  5 16  2  0  0  0  0
 16 28  1  0  0  0  0
 11 20  1  0  0  0  0
  5 11  1  0  0  0  0
 20 42  1  0  0  0  0
 20 41  1  0  0  0  0
  5 34  1  0  0  0  0
M  END
> <CID>
EN300-1912781

> <SMILES>
Cc1ccncc1NC(=O)Cc2cc(cc(c2)Cl)OCc3ccc(c(c3F)Br)F

> <RUN>
RUN1244

> <DDG (kcal/mol)>
-0.06

> <dDDG (kcal/mol)>
0.15

$$$$
EN300-2010197
  -OEChem-08252008263D

 44 46  0     0  0  0  0  0  0999 V2000
    5.2290    2.2820   17.8790 C   0  0  0  0  0  0  0  0  0  0  0  0
   10.8640    1.4340   23.2370 C   0  0  0  0  0  0  0  0  0  0  0  0
   11.0930    3.6990   22.5960 C   0  0  0  0  0  0  0  0  0  0  0  0
   13.0640    2.3960   23.0820 C   0  0  0  0  0  0  0  0  0  0  0  0
    6.1480    1.7260   16.9450 C   0  0  0  0  0  0  0  0  0  0  0  0
    7.4320    1.0270   18.7030 C   0  0  0  0  0  0  0  0  0  0  0  0
   14.9260   -2.0400   22.3470 C   0  0  0  0  0  0  0  0  0  0  0  0
   13.6790   -3.1270   20.6240 C   0  0  0  0  0  0  0  0  0  0  0  0
    5.4980    2.4240   19.2060 C   0  0  0  0  0  0  0  0  0  0  0  0
   10.2870    2.6510   22.8900 C   0  0  0  0  0  0  0  0  0  0  0  0
    6.7000    1.8200   19.6230 C   0  0  0  0  0  0  0  0  0  0  0  0
   12.2760    1.2780   23.3280 C   0  0  0  0  0  0  0  0  0  0  0  0
   12.4840    3.5710   22.6310 C   0  0  0  0  0  0  0  0  0  0  0  0
   13.6590   -2.4480   22.6950 C   0  0  0  0  0  0  0  0  0  0  0  0
    8.4450    2.0700   21.3790 C   0  0  0  0  0  0  0  0  0  0  0  0
    4.4660    3.0310   20.0590 C   0  0  0  0  0  0  0  0  0  0  0  0
    8.7910    2.7720   22.6930 C   0  0  0  0  0  0  0  0  0  0  0  0
   13.1870   -2.1720   24.0780 C   0  0  0  0  0  0  0  0  0  0  0  0
   12.2370   -1.0710   24.0360 C   0  0  0  0  0  0  0  0  0  0  0  0
    7.2910    1.0870   17.3490 N   0  0  0  0  0  0  0  0  0  0  0  0
   12.9680   -3.1300   21.7230 N   0  0  0  0  0  0  0  0  0  0  0  0
    7.1460    2.1000   20.9650 N   0  0  0  0  0  0  0  0  0  0  0  0
    9.3390    1.6120   20.6810 O   0  0  0  0  0  0  0  0  0  0  0  0
   12.9190    0.0700   23.5010 O   0  0  0  0  0  0  0  0  0  0  0  0
   15.2580   -2.2780   20.6420 S   0  0  0  0  0  0  0  0  0  0  0  0
   13.4560    4.9390   22.1550 Cl  0  0  0  0  0  0  0  0  0  0  0  0
    4.3670    2.8520   17.5700 H   0  0  0  0  0  0  0  0  0  0  0  0
   10.1970    0.5900   23.4230 H   0  0  0  0  0  0  0  0  0  0  0  0
   10.5750    4.5970   22.2870 H   0  0  0  0  0  0  0  0  0  0  0  0
   14.1420    2.3060   23.2010 H   0  0  0  0  0  0  0  0  0  0  0  0
    5.8670    1.6200   15.9070 H   0  0  0  0  0  0  0  0  0  0  0  0
    8.1560    0.3180   19.0780 H   0  0  0  0  0  0  0  0  0  0  0  0
   15.6310   -1.4320   22.9060 H   0  0  0  0  0  0  0  0  0  0  0  0
   13.3610   -3.6380   19.7220 H   0  0  0  0  0  0  0  0  0  0  0  0
    4.7110    4.0850   20.2100 H   0  0  0  0  0  0  0  0  0  0  0  0
    3.4660    2.9950   19.6170 H   0  0  0  0  0  0  0  0  0  0  0  0
    4.3080    2.4860   20.9930 H   0  0  0  0  0  0  0  0  0  0  0  0
    8.3160    2.1180   23.4340 H   0  0  0  0  0  0  0  0  0  0  0  0
    8.3870    3.7840   22.7610 H   0  0  0  0  0  0  0  0  0  0  0  0
   12.7720   -3.1090   24.4540 H   0  0  0  0  0  0  0  0  0  0  0  0
   14.0670   -1.9250   24.6740 H   0  0  0  0  0  0  0  0  0  0  0  0
   11.2320   -1.2680   23.6350 H   0  0  0  0  0  0  0  0  0  0  0  0
   11.9810   -0.8590   25.0850 H   0  0  0  0  0  0  0  0  0  0  0  0
    6.4920    2.6700   21.5100 H   0  0  0  0  0  0  0  0  0  0  0  0
  5 31  1  0  0  0  0
  5 20  2  0  0  0  0
  1  5  1  0  0  0  0
  6 20  1  0  0  0  0
  1 27  1  0  0  0  0
  1  9  2  0  0  0  0
  6 32  1  0  0  0  0
  6 11  2  0  0  0  0
  9 11  1  0  0  0  0
  9 16  1  0  0  0  0
 16 36  1  0  0  0  0
 11 22  1  0  0  0  0
  8 34  1  0  0  0  0
 16 35  1  0  0  0  0
 16 37  1  0  0  0  0
  8 25  1  0  0  0  0
  8 21  2  0  0  0  0
  7 25  1  0  0  0  0
 15 23  2  0  0  0  0
 15 22  1  0  0  0  0
 22 44  1  0  0  0  0
 15 17  1  0  0  0  0
 14 21  1  0  0  0  0
 13 26  1  0  0  0  0
  3 29  1  0  0  0  0
  7 14  2  0  0  0  0
  7 33  1  0  0  0  0
  3 13  2  0  0  0  0
  3 10  1  0  0  0  0
  4 13  1  0  0  0  0
 17 39  1  0  0  0  0
 10 17  1  0  0  0  0
 17 38  1  0  0  0  0
 14 18  1  0  0  0  0
  2 10  2  0  0  0  0
  4 30  1  0  0  0  0
  4 12  2  0  0  0  0
  2 12  1  0  0  0  0
  2 28  1  0  0  0  0
 12 24  1  0  0  0  0
 19 24  1  0  0  0  0
 19 42  1  0  0  0  0
 18 19  1  0  0  0  0
 19 43  1  0  0  0  0
 18 40  1  0  0  0  0
 18 41  1  0  0  0  0
M  END
> <CID>
EN300-2010197

> <SMILES>
Cc1ccncc1NC(=O)Cc2cc(cc(c2)Cl)OCCc3cscn3

> <RUN>
RUN3276

> <DDG (kcal/mol)>
-0.05

> <dDDG (kcal/mol)>
0.13

$$$$
EN300-1897247
  -OEChem-08252008263D

 54 56  0     0  0  0  0  0  0999 V2000
    5.8840    1.6620   19.4720 C   0  0  0  0  0  0  0  0  0  0  0  0
   12.7850   -1.0620   22.3210 C   0  0  0  0  0  0  0  0  0  0  0  0
   11.5210   -2.7120   21.0250 C   0  0  0  0  0  0  0  0  0  0  0  0
   13.9370   -2.6990   20.9460 C   0  0  0  0  0  0  0  0  0  0  0  0
    6.2170    1.6080   18.1170 C   0  0  0  0  0  0  0  0  0  0  0  0
   15.9710    1.1310   25.2380 C   0  0  0  0  0  0  0  0  0  0  0  0
    7.8540    0.0810   18.5360 C   0  0  0  0  0  0  0  0  0  0  0  0
   15.3470    1.4570   23.0370 C   0  0  0  0  0  0  0  0  0  0  0  0
    6.5680    0.9010   20.4430 C   0  0  0  0  0  0  0  0  0  0  0  0
   11.5370   -1.5920   21.8910 C   0  0  0  0  0  0  0  0  0  0  0  0
   15.5200    0.4710   24.0260 C   0  0  0  0  0  0  0  0  0  0  0  0
    7.6020    0.1110   19.9380 C   0  0  0  0  0  0  0  0  0  0  0  0
   14.0030   -1.7230   21.9210 C   0  0  0  0  0  0  0  0  0  0  0  0
   12.6970   -3.1940   20.5620 C   0  0  0  0  0  0  0  0  0  0  0  0
    9.5850   -0.1290   21.4300 C   0  0  0  0  0  0  0  0  0  0  0  0
    6.2860    1.1980   21.9550 C   0  0  0  0  0  0  0  0  0  0  0  0
   16.3550    4.3640   21.9850 C   0  0  0  0  0  0  0  0  0  0  0  0
   15.3240    5.2590   24.2080 C   0  0  0  0  0  0  0  0  0  0  0  0
   14.0010    4.0500   22.5100 C   0  0  0  0  0  0  0  0  0  0  0  0
   10.2490   -0.9970   22.4760 C   0  0  0  0  0  0  0  0  0  0  0  0
   15.3500   -0.9930   23.8090 C   0  0  0  0  0  0  0  0  0  0  0  0
   15.3750    4.0720   23.1320 C   0  0  0  0  0  0  0  0  0  0  0  0
    7.1990    0.8600   17.6390 N   0  0  0  0  0  0  0  0  0  0  0  0
   16.1520    2.4060   25.0020 N   0  0  0  0  0  0  0  0  0  0  0  0
   15.6440    2.6830   23.7130 N   0  0  0  0  0  0  0  0  0  0  0  0
    8.4230   -0.6350   20.8070 N   0  0  0  0  0  0  0  0  0  0  0  0
   10.1000    0.9390   21.0480 O   0  0  0  0  0  0  0  0  0  0  0  0
   15.2230   -1.4420   22.4430 O   0  0  0  0  0  0  0  0  0  0  0  0
   12.5280   -4.6180   19.4610 Cl  0  0  0  0  0  0  0  0  0  0  0  0
    5.1420    2.3880   19.7870 H   0  0  0  0  0  0  0  0  0  0  0  0
   12.7660   -0.1700   22.9400 H   0  0  0  0  0  0  0  0  0  0  0  0
   10.5440   -3.1600   20.8850 H   0  0  0  0  0  0  0  0  0  0  0  0
   14.9040   -2.9670   20.5440 H   0  0  0  0  0  0  0  0  0  0  0  0
    5.5940    2.1700   17.4260 H   0  0  0  0  0  0  0  0  0  0  0  0
   16.0550    0.6700   26.2160 H   0  0  0  0  0  0  0  0  0  0  0  0
    8.6570   -0.5840   18.2420 H   0  0  0  0  0  0  0  0  0  0  0  0
   14.9490    1.3080   22.0400 H   0  0  0  0  0  0  0  0  0  0  0  0
    6.2840    0.2670   22.5290 H   0  0  0  0  0  0  0  0  0  0  0  0
    6.9930    1.9430   22.3480 H   0  0  0  0  0  0  0  0  0  0  0  0
    5.3030    1.6410   22.1440 H   0  0  0  0  0  0  0  0  0  0  0  0
   16.2420    3.7920   21.0640 H   0  0  0  0  0  0  0  0  0  0  0  0
   16.5630    5.4120   21.7860 H   0  0  0  0  0  0  0  0  0  0  0  0
   17.2850    3.8970   22.3150 H   0  0  0  0  0  0  0  0  0  0  0  0
   14.4780    5.2080   24.8970 H   0  0  0  0  0  0  0  0  0  0  0  0
   16.2990    5.3320   24.6880 H   0  0  0  0  0  0  0  0  0  0  0  0
   15.2860    6.1980   23.6420 H   0  0  0  0  0  0  0  0  0  0  0  0
   13.1950    3.9620   23.2330 H   0  0  0  0  0  0  0  0  0  0  0  0
   13.8320    4.9640   21.9330 H   0  0  0  0  0  0  0  0  0  0  0  0
   13.8260    3.2330   21.8070 H   0  0  0  0  0  0  0  0  0  0  0  0
    9.5540   -1.7720   22.8140 H   0  0  0  0  0  0  0  0  0  0  0  0
   10.4910   -0.3760   23.3460 H   0  0  0  0  0  0  0  0  0  0  0  0
   16.2900   -1.3700   24.2280 H   0  0  0  0  0  0  0  0  0  0  0  0
   14.5670   -1.4190   24.4390 H   0  0  0  0  0  0  0  0  0  0  0  0
    7.9170   -1.4070   21.2280 H   0  0  0  0  0  0  0  0  0  0  0  0
  5 34  1  0  0  0  0
  5 23  2  0  0  0  0
  7 23  1  0  0  0  0
  1  5  1  0  0  0  0
  7 36  1  0  0  0  0
  7 12  2  0  0  0  0
 14 29  1  0  0  0  0
  1 30  1  0  0  0  0
  1  9  2  0  0  0  0
  9 12  1  0  0  0  0
 12 26  1  0  0  0  0
  9 16  1  0  0  0  0
  4 33  1  0  0  0  0
  4 14  2  0  0  0  0
  3 14  1  0  0  0  0
 26 54  1  0  0  0  0
 15 26  1  0  0  0  0
  3 32  1  0  0  0  0
  4 13  1  0  0  0  0
  3 10  2  0  0  0  0
 15 27  2  0  0  0  0
 17 41  1  0  0  0  0
 15 20  1  0  0  0  0
 17 42  1  0  0  0  0
 19 49  1  0  0  0  0
  2 10  1  0  0  0  0
 10 20  1  0  0  0  0
  2 13  2  0  0  0  0
 13 28  1  0  0  0  0
 19 48  1  0  0  0  0
 16 40  1  0  0  0  0
 16 39  1  0  0  0  0
 16 38  1  0  0  0  0
 17 43  1  0  0  0  0
 17 22  1  0  0  0  0
  8 37  1  0  0  0  0
  2 31  1  0  0  0  0
 21 28  1  0  0  0  0
 20 50  1  0  0  0  0
 20 51  1  0  0  0  0
 19 22  1  0  0  0  0
 19 47  1  0  0  0  0
  8 25  1  0  0  0  0
  8 11  2  0  0  0  0
 22 25  1  0  0  0  0
 18 22  1  0  0  0  0
 18 46  1  0  0  0  0
 24 25  1  0  0  0  0
 11 21  1  0  0  0  0
 21 52  1  0  0  0  0
 21 53  1  0  0  0  0
  6 11  1  0  0  0  0
 18 45  1  0  0  0  0
 18 44  1  0  0  0  0
  6 24  2  0  0  0  0
  6 35  1  0  0  0  0
M  END
> <CID>
EN300-1897247

> <SMILES>
Cc1ccncc1NC(=O)Cc2cc(cc(c2)Cl)OCc3cnn(c3)C(C)(C)C

> <RUN>
RUN889

> <DDG (kcal/mol)>
-0.05

> <dDDG (kcal/mol)>
0.13

$$$$
EN300-695755
  -OEChem-08252008263D

 60 63  0     1  0  0  0  0  0999 V2000
    5.1840    1.8880   19.1270 C   0  0  0  0  0  0  0  0  0  0  0  0
   10.9450    0.5680   22.4940 C   0  0  0  0  0  0  0  0  0  0  0  0
   11.9670   -1.5610   21.8670 C   0  0  0  0  0  0  0  0  0  0  0  0
   13.3800    0.3370   22.3020 C   0  0  0  0  0  0  0  0  0  0  0  0
    5.3500    1.3570   17.8110 C   0  0  0  0  0  0  0  0  0  0  0  0
    7.0790   -0.0100   18.5680 C   0  0  0  0  0  0  0  0  0  0  0  0
   11.5530    5.2130   24.7430 C   0  0  0  0  0  0  0  0  0  0  0  0
    6.0910    1.4910   20.1420 C   0  0  0  0  0  0  0  0  0  0  0  0
   10.8040   -0.8280   22.1860 C   0  0  0  0  0  0  0  0  0  0  0  0
    7.0450    0.4700   19.8820 C   0  0  0  0  0  0  0  0  0  0  0  0
   12.2110    1.1850   22.5450 C   0  0  0  0  0  0  0  0  0  0  0  0
   13.2220   -0.9360   21.8050 C   0  0  0  0  0  0  0  0  0  0  0  0
   12.7100    5.0890   24.0420 C   0  0  0  0  0  0  0  0  0  0  0  0
    8.4820   -1.2710   21.0470 C   0  0  0  0  0  0  0  0  0  0  0  0
    9.8420    6.2230   27.4010 C   0  0  0  0  0  0  0  0  0  0  0  0
    9.1940    5.4690   28.5370 C   0  0  0  0  0  0  0  0  0  0  0  0
   11.2160    4.3280   28.0760 C   0  0  0  0  0  0  0  0  0  0  0  0
   11.2890    5.6530   27.3450 C   0  0  1  0  0  0  0  0  0  0  0  0
   10.1980    4.5550   29.1310 C   0  0  2  0  0  0  0  0  0  0  0  0
    5.8150    2.0970   21.4760 C   0  0  0  0  0  0  0  0  0  0  0  0
    9.4350   -1.5710   22.1920 C   0  0  0  0  0  0  0  0  0  0  0  0
   12.8830    4.7770   22.6460 C   0  0  0  0  0  0  0  0  0  0  0  0
   13.1860    3.3220   22.3380 C   0  0  0  0  0  0  0  0  0  0  0  0
    6.2400    0.4450   17.5850 N   0  0  0  0  0  0  0  0  0  0  0  0
   13.7880    5.4310   24.8380 N   0  0  0  0  0  0  0  0  0  0  0  0
   13.3290    5.7990   25.9700 N   0  0  0  0  0  0  0  0  0  0  0  0
   11.9650    5.6650   26.0270 N   0  0  0  0  0  0  0  0  0  0  0  0
    7.7390   -0.0550   20.9650 N   0  0  0  0  0  0  0  0  0  0  0  0
    9.6890    3.2280   29.5700 N   0  3  0  0  0  0  0  0  0  0  0  0
    8.2220   -2.1180   20.1690 O   0  0  0  0  0  0  0  0  0  0  0  0
   12.2950    2.4610   23.0300 O   0  0  0  0  0  0  0  0  0  0  0  0
   14.6100   -1.8180   21.3610 Cl  0  0  0  0  0  0  0  0  0  0  0  0
    4.4190    2.6400   19.2400 H   0  0  0  0  0  0  0  0  0  0  0  0
   10.0740    1.1720   22.7230 H   0  0  0  0  0  0  0  0  0  0  0  0
   11.7530   -2.5930   21.6190 H   0  0  0  0  0  0  0  0  0  0  0  0
   14.3540    0.8000   22.4900 H   0  0  0  0  0  0  0  0  0  0  0  0
    4.6780    1.6780   17.0260 H   0  0  0  0  0  0  0  0  0  0  0  0
    7.7260   -0.8300   18.2690 H   0  0  0  0  0  0  0  0  0  0  0  0
   10.5710    5.0000   24.3340 H   0  0  0  0  0  0  0  0  0  0  0  0
    9.3110    6.0300   26.4590 H   0  0  0  0  0  0  0  0  0  0  0  0
    9.8570    7.3090   27.5000 H   0  0  0  0  0  0  0  0  0  0  0  0
    8.8820    6.1260   29.3580 H   0  0  0  0  0  0  0  0  0  0  0  0
    8.3890    4.8250   28.1790 H   0  0  0  0  0  0  0  0  0  0  0  0
   10.8730    3.5690   27.3610 H   0  0  0  0  0  0  0  0  0  0  0  0
   12.1520    4.0710   28.5720 H   0  0  0  0  0  0  0  0  0  0  0  0
   11.7940    6.3430   28.0210 H   0  0  0  0  0  0  0  0  0  0  0  0
   10.6280    5.0770   29.9940 H   0  0  0  0  0  0  0  0  0  0  0  0
    6.4550    2.9690   21.6110 H   0  0  0  0  0  0  0  0  0  0  0  0
    4.7790    2.4370   21.5690 H   0  0  0  0  0  0  0  0  0  0  0  0
    5.9330    1.4820   22.3710 H   0  0  0  0  0  0  0  0  0  0  0  0
    9.5790   -2.6510   22.2600 H   0  0  0  0  0  0  0  0  0  0  0  0
    8.8330   -1.2470   23.0510 H   0  0  0  0  0  0  0  0  0  0  0  0
   11.9340    5.0080   22.1640 H   0  0  0  0  0  0  0  0  0  0  0  0
   13.5690    5.5100   22.2130 H   0  0  0  0  0  0  0  0  0  0  0  0
   13.0020    3.1170   21.2780 H   0  0  0  0  0  0  0  0  0  0  0  0
   14.2070    3.1160   22.6700 H   0  0  0  0  0  0  0  0  0  0  0  0
    7.9950    0.5650   21.7350 H   0  0  0  0  0  0  0  0  0  0  0  0
   10.4410    2.5990   29.8400 H   0  0  0  0  0  0  0  0  0  0  0  0
    9.3500    2.7340   28.7400 H   0  0  0  0  0  0  0  0  0  0  0  0
    8.9980    3.3260   30.3160 H   0  0  0  0  0  0  0  0  0  0  0  0
  5 37  1  0  0  0  0
  5 24  2  0  0  0  0
  6 24  1  0  0  0  0
  1  5  1  0  0  0  0
  6 38  1  0  0  0  0
  6 10  2  0  0  0  0
  1 33  1  0  0  0  0
  1  8  2  0  0  0  0
  8 10  1  0  0  0  0
 10 28  1  0  0  0  0
  8 20  1  0  0  0  0
 14 30  2  0  0  0  0
 14 28  1  0  0  0  0
 28 57  1  0  0  0  0
 14 21  1  0  0  0  0
 23 55  1  0  0  0  0
 12 32  1  0  0  0  0
 20 49  1  0  0  0  0
 20 48  1  0  0  0  0
 20 50  1  0  0  0  0
  3 35  1  0  0  0  0
  3 12  2  0  0  0  0
  4 12  1  0  0  0  0
  3  9  1  0  0  0  0
 22 53  1  0  0  0  0
  9 21  1  0  0  0  0
  2  9  2  0  0  0  0
 21 51  1  0  0  0  0
 21 52  1  0  0  0  0
 22 54  1  0  0  0  0
  4 36  1  0  0  0  0
  4 11  2  0  0  0  0
 22 23  1  0  0  0  0
 23 56  1  0  0  0  0
 23 31  1  0  0  0  0
  2 11  1  0  0  0  0
  2 34  1  0  0  0  0
 11 31  1  0  0  0  0
 13 22  1  0  0  0  0
  7 13  2  0  0  0  0
 13 25  1  0  0  0  0
  7 39  1  0  0  0  0
  7 27  1  0  0  0  0
 25 26  2  0  0  0  0
 26 27  1  0  0  0  0
 18 27  1  0  0  0  0
 15 40  1  0  0  0  0
 15 18  1  0  0  0  0
 18 46  1  0  0  0  0
 17 18  1  0  0  0  0
 17 44  1  0  0  0  0
 15 41  1  0  0  0  0
 15 16  1  0  0  0  0
 17 45  1  0  0  0  0
 17 19  1  0  0  0  0
 16 43  1  0  0  0  0
 16 19  1  0  0  0  0
 16 42  1  0  0  0  0
 29 59  1  0  0  0  0
 19 29  1  0  0  0  0
 19 47  1  0  0  0  0
 29 58  1  0  0  0  0
 29 60  1  0  0  0  0
M  CHG  1  29   1
M  END
> <CID>
EN300-695755

> <SMILES>
Cc1ccncc1NC(=O)Cc2cc(cc(c2)Cl)OCCc3cn(nn3)[C@H]4CC[C@H](C4)[NH3+]

> <RUN>
RUN4348

> <DDG (kcal/mol)>
-0.05

> <dDDG (kcal/mol)>
0.27

$$$$
EN300-1938792
  -OEChem-08252008263D

 50 52  0     0  0  0  0  0  0999 V2000
   13.5380    5.8150   22.5530 C   0  0  0  0  0  0  0  0  0  0  0  0
   12.4550    6.6790   22.4530 C   0  0  0  0  0  0  0  0  0  0  0  0
    4.9690    1.8070   18.8420 C   0  0  0  0  0  0  0  0  0  0  0  0
   11.6270    1.0420   23.2810 C   0  0  0  0  0  0  0  0  0  0  0  0
   11.8920   -0.9870   22.0020 C   0  0  0  0  0  0  0  0  0  0  0  0
   12.0440    6.2820   24.7800 C   0  0  0  0  0  0  0  0  0  0  0  0
   13.8480    0.2690   22.7190 C   0  0  0  0  0  0  0  0  0  0  0  0
    5.6230    1.5590   17.6750 C   0  0  0  0  0  0  0  0  0  0  0  0
    7.4970    0.8310   18.6850 C   0  0  0  0  0  0  0  0  0  0  0  0
   13.8410    5.2360   23.7600 C   0  0  0  0  0  0  0  0  0  0  0  0
    5.6470    1.5790   20.0590 C   0  0  0  0  0  0  0  0  0  0  0  0
   11.0100   -0.0460   22.5800 C   0  0  0  0  0  0  0  0  0  0  0  0
    6.9630    1.0350   19.9960 C   0  0  0  0  0  0  0  0  0  0  0  0
   11.7020    6.9100   23.5620 C   0  0  0  0  0  0  0  0  0  0  0  0
   12.9900    1.2030   23.3660 C   0  0  0  0  0  0  0  0  0  0  0  0
   13.1040    5.5080   24.9230 C   0  0  0  0  0  0  0  0  0  0  0  0
   13.2910   -0.7770   22.0180 C   0  0  0  0  0  0  0  0  0  0  0  0
    8.9450    0.8080   21.4140 C   0  0  0  0  0  0  0  0  0  0  0  0
    4.8140    1.7810   21.2810 C   0  0  0  0  0  0  0  0  0  0  0  0
    9.5100   -0.1170   22.4790 C   0  0  0  0  0  0  0  0  0  0  0  0
   15.0480    4.3060   23.8340 C   0  0  0  0  0  0  0  0  0  0  0  0
   14.4880    2.9210   23.2920 C   0  0  0  0  0  0  0  0  0  0  0  0
    6.8410    1.0450   17.5890 N   0  0  0  0  0  0  0  0  0  0  0  0
    7.5820    0.7090   21.1700 N   0  0  0  0  0  0  0  0  0  0  0  0
    9.6140    1.5630   20.7090 O   0  0  0  0  0  0  0  0  0  0  0  0
   10.6590    7.7710   23.5190 O   0  0  0  0  0  0  0  0  0  0  0  0
   13.4870    5.0790   26.2150 O   0  0  0  0  0  0  0  0  0  0  0  0
   13.4790    2.3260   23.9960 O   0  0  0  0  0  0  0  0  0  0  0  0
   14.3100   -1.7670   21.0260 Cl  0  0  0  0  0  0  0  0  0  0  0  0
   14.2200    5.6650   21.7260 H   0  0  0  0  0  0  0  0  0  0  0  0
   12.2590    7.2650   21.5580 H   0  0  0  0  0  0  0  0  0  0  0  0
    3.9430    2.1550   18.7830 H   0  0  0  0  0  0  0  0  0  0  0  0
   10.9920    1.7560   23.8060 H   0  0  0  0  0  0  0  0  0  0  0  0
   11.4610   -1.8740   21.5730 H   0  0  0  0  0  0  0  0  0  0  0  0
   11.4760    6.5070   25.6870 H   0  0  0  0  0  0  0  0  0  0  0  0
   14.9100    0.4460   22.6740 H   0  0  0  0  0  0  0  0  0  0  0  0
    5.1200    1.7300   16.7280 H   0  0  0  0  0  0  0  0  0  0  0  0
    8.5340    0.5080   18.5880 H   0  0  0  0  0  0  0  0  0  0  0  0
    4.4220    0.7890   21.5370 H   0  0  0  0  0  0  0  0  0  0  0  0
    5.4750    2.0780   22.1070 H   0  0  0  0  0  0  0  0  0  0  0  0
    3.8960    2.3620   21.1740 H   0  0  0  0  0  0  0  0  0  0  0  0
    9.1490   -1.1480   22.3510 H   0  0  0  0  0  0  0  0  0  0  0  0
    9.0230    0.1080   23.4280 H   0  0  0  0  0  0  0  0  0  0  0  0
   15.8140    4.7280   23.1860 H   0  0  0  0  0  0  0  0  0  0  0  0
   15.5240    4.2660   24.8190 H   0  0  0  0  0  0  0  0  0  0  0  0
   14.2720    2.9680   22.2170 H   0  0  0  0  0  0  0  0  0  0  0  0
   15.3320    2.2290   23.3790 H   0  0  0  0  0  0  0  0  0  0  0  0
    7.0340    0.4040   21.9730 H   0  0  0  0  0  0  0  0  0  0  0  0
   10.3840    7.9480   24.4300 H   0  0  0  0  0  0  0  0  0  0  0  0
   12.8250    5.3810   26.8710 H   0  0  0  0  0  0  0  0  0  0  0  0
  8 37  1  0  0  0  0
  8 23  2  0  0  0  0
  9 23  1  0  0  0  0
  3  8  1  0  0  0  0
  9 38  1  0  0  0  0
  9 13  2  0  0  0  0
  3 32  1  0  0  0  0
  3 11  2  0  0  0  0
 11 13  1  0  0  0  0
 13 24  1  0  0  0  0
 11 19  1  0  0  0  0
 18 25  2  0  0  0  0
 17 29  1  0  0  0  0
 18 24  1  0  0  0  0
 24 48  1  0  0  0  0
 19 41  1  0  0  0  0
 19 39  1  0  0  0  0
 19 40  1  0  0  0  0
 18 20  1  0  0  0  0
  2 31  1  0  0  0  0
  5 34  1  0  0  0  0
  1 30  1  0  0  0  0
  5 17  2  0  0  0  0
  5 12  1  0  0  0  0
  7 17  1  0  0  0  0
 22 46  1  0  0  0  0
 20 42  1  0  0  0  0
  1  2  2  0  0  0  0
  2 14  1  0  0  0  0
 12 20  1  0  0  0  0
 20 43  1  0  0  0  0
  1 10  1  0  0  0  0
  4 12  2  0  0  0  0
  7 36  1  0  0  0  0
  7 15  2  0  0  0  0
 21 44  1  0  0  0  0
  4 15  1  0  0  0  0
  4 33  1  0  0  0  0
 22 47  1  0  0  0  0
 21 22  1  0  0  0  0
 22 28  1  0  0  0  0
 15 28  1  0  0  0  0
 14 26  1  0  0  0  0
 26 49  1  0  0  0  0
  6 14  2  0  0  0  0
 10 21  1  0  0  0  0
 10 16  2  0  0  0  0
 21 45  1  0  0  0  0
  6 16  1  0  0  0  0
  6 35  1  0  0  0  0
 16 27  1  0  0  0  0
 27 50  1  0  0  0  0
M  END
> <CID>
EN300-1938792

> <SMILES>
Cc1ccncc1NC(=O)Cc2cc(cc(c2)Cl)OCCc3ccc(cc3O)O

> <RUN>
RUN3037

> <DDG (kcal/mol)>
-0.05

> <dDDG (kcal/mol)>
0.14

$$$$
EN300-175288
  -OEChem-08252008263D

 59 61  0     1  0  0  0  0  0999 V2000
   15.2040    8.6360   19.1730 C   0  0  0  0  0  0  0  0  0  0  0  0
   15.0990    7.2300   19.1400 C   0  0  0  0  0  0  0  0  0  0  0  0
   14.4190    9.3380   20.1130 C   0  0  0  0  0  0  0  0  0  0  0  0
   14.3380    6.5400   20.0510 C   0  0  0  0  0  0  0  0  0  0  0  0
   13.6000    8.6440   21.0070 C   0  0  0  0  0  0  0  0  0  0  0  0
    4.2950    0.3900   19.9790 C   0  0  0  0  0  0  0  0  0  0  0  0
   11.3460    1.7130   23.3500 C   0  0  0  0  0  0  0  0  0  0  0  0
   11.6030   -0.6160   22.6870 C   0  0  0  0  0  0  0  0  0  0  0  0
   13.4540    0.8620   22.5870 C   0  0  0  0  0  0  0  0  0  0  0  0
    4.9190    0.3110   18.7050 C   0  0  0  0  0  0  0  0  0  0  0  0
    6.9750   -0.0490   19.6520 C   0  0  0  0  0  0  0  0  0  0  0  0
   13.4510    7.2710   20.9950 C   0  0  0  0  0  0  0  0  0  0  0  0
    5.0530    0.1850   21.1280 C   0  0  0  0  0  0  0  0  0  0  0  0
   10.7670    0.4270   23.1960 C   0  0  0  0  0  0  0  0  0  0  0  0
    6.4590   -0.0930   20.9740 C   0  0  0  0  0  0  0  0  0  0  0  0
   12.6760    1.9090   23.1220 C   0  0  0  0  0  0  0  0  0  0  0  0
   12.9260   -0.4240   22.3470 C   0  0  0  0  0  0  0  0  0  0  0  0
    8.4770    0.4050   22.2850 C   0  0  0  0  0  0  0  0  0  0  0  0
    4.5140    0.0740   22.4950 C   0  0  0  0  0  0  0  0  0  0  0  0
   13.1410    6.8550   25.9940 C   0  0  0  0  0  0  0  0  0  0  0  0
    9.3220    0.2240   23.5520 C   0  0  0  0  0  0  0  0  0  0  0  0
   12.5520    6.5460   21.9750 C   0  0  0  0  0  0  0  0  0  0  0  0
   14.3880    5.2120   23.1500 C   0  0  0  0  0  0  0  0  0  0  0  0
   14.1100    3.8050   22.6100 C   0  0  0  0  0  0  0  0  0  0  0  0
    6.2690    0.0680   18.5910 N   0  0  0  0  0  0  0  0  0  0  0  0
    7.3020   -0.3410   22.0980 N   0  0  0  0  0  0  0  0  0  0  0  0
   13.2440    6.1880   23.2140 N   0  0  1  0  0  0  0  0  0  0  0  0
    8.8020    1.2870   21.4310 O   0  0  0  0  0  0  0  0  0  0  0  0
   14.9550    7.8790   24.2590 O   0  0  0  0  0  0  0  0  0  0  0  0
   12.7760    8.7090   23.9930 O   0  0  0  0  0  0  0  0  0  0  0  0
   13.0930    3.2220   23.4470 O   0  0  0  0  0  0  0  0  0  0  0  0
   13.5530    7.4980   24.3780 S   0  0  0  0  0  0  0  0  0  0  0  0
   13.8460   -1.7030   21.6110 Cl  0  0  0  0  0  0  0  0  0  0  0  0
   15.8200    9.1420   18.4280 H   0  0  0  0  0  0  0  0  0  0  0  0
   15.5500    6.6230   18.3620 H   0  0  0  0  0  0  0  0  0  0  0  0
   14.4240   10.4190   20.0600 H   0  0  0  0  0  0  0  0  0  0  0  0
   14.2360    5.4640   19.9900 H   0  0  0  0  0  0  0  0  0  0  0  0
   13.1710    9.3080   21.7510 H   0  0  0  0  0  0  0  0  0  0  0  0
    3.2320    0.4870   20.1750 H   0  0  0  0  0  0  0  0  0  0  0  0
   10.6890    2.4980   23.6880 H   0  0  0  0  0  0  0  0  0  0  0  0
   11.2240   -1.6330   22.6570 H   0  0  0  0  0  0  0  0  0  0  0  0
   14.5030    1.0820   22.4340 H   0  0  0  0  0  0  0  0  0  0  0  0
    4.2090    0.2850   17.8930 H   0  0  0  0  0  0  0  0  0  0  0  0
    8.0320   -0.2270   19.4450 H   0  0  0  0  0  0  0  0  0  0  0  0
    5.1430    0.6570   23.1730 H   0  0  0  0  0  0  0  0  0  0  0  0
    3.4940    0.4530   22.5120 H   0  0  0  0  0  0  0  0  0  0  0  0
    4.4060   -0.9870   22.7370 H   0  0  0  0  0  0  0  0  0  0  0  0
   12.7800    7.6700   26.6370 H   0  0  0  0  0  0  0  0  0  0  0  0
   12.2520    6.2180   26.0110 H   0  0  0  0  0  0  0  0  0  0  0  0
   13.9660    6.4000   26.5510 H   0  0  0  0  0  0  0  0  0  0  0  0
    9.2350   -0.8280   23.8660 H   0  0  0  0  0  0  0  0  0  0  0  0
    8.9650    0.8500   24.3800 H   0  0  0  0  0  0  0  0  0  0  0  0
   11.6930    7.1510   22.2780 H   0  0  0  0  0  0  0  0  0  0  0  0
   12.1780    5.6110   21.5310 H   0  0  0  0  0  0  0  0  0  0  0  0
   14.9110    5.2020   24.1060 H   0  0  0  0  0  0  0  0  0  0  0  0
   15.1820    5.6460   22.5360 H   0  0  0  0  0  0  0  0  0  0  0  0
   14.9900    3.1790   22.7370 H   0  0  0  0  0  0  0  0  0  0  0  0
   13.8610    3.8270   21.5430 H   0  0  0  0  0  0  0  0  0  0  0  0
    7.0650   -0.9160   22.8960 H   0  0  0  0  0  0  0  0  0  0  0  0
 10 43  1  0  0  0  0
  2 35  1  0  0  0  0
  1 34  1  0  0  0  0
 10 25  2  0  0  0  0
 11 25  1  0  0  0  0
  6 10  1  0  0  0  0
  1  2  2  0  0  0  0
  2  4  1  0  0  0  0
  1  3  1  0  0  0  0
 11 44  1  0  0  0  0
 11 15  2  0  0  0  0
  6 39  1  0  0  0  0
  6 13  2  0  0  0  0
  4 37  1  0  0  0  0
  4 12  2  0  0  0  0
  3 36  1  0  0  0  0
  3  5  2  0  0  0  0
 13 15  1  0  0  0  0
 15 26  1  0  0  0  0
  5 12  1  0  0  0  0
 12 22  1  0  0  0  0
  5 38  1  0  0  0  0
 13 19  1  0  0  0  0
 18 28  2  0  0  0  0
 22 54  1  0  0  0  0
 24 58  1  0  0  0  0
 17 33  1  0  0  0  0
 22 53  1  0  0  0  0
 22 27  1  0  0  0  0
 18 26  1  0  0  0  0
 26 59  1  0  0  0  0
 18 21  1  0  0  0  0
  9 17  2  0  0  0  0
  8 17  1  0  0  0  0
  9 42  1  0  0  0  0
 19 46  1  0  0  0  0
 19 47  1  0  0  0  0
 19 45  1  0  0  0  0
 23 56  1  0  0  0  0
  9 16  1  0  0  0  0
 24 57  1  0  0  0  0
 23 24  1  0  0  0  0
 24 31  1  0  0  0  0
  8 41  1  0  0  0  0
  8 14  2  0  0  0  0
  7 16  2  0  0  0  0
 16 31  1  0  0  0  0
 23 27  1  0  0  0  0
 23 55  1  0  0  0  0
  7 14  1  0  0  0  0
 14 21  1  0  0  0  0
 27 32  1  0  0  0  0
  7 40  1  0  0  0  0
 21 51  1  0  0  0  0
 21 52  1  0  0  0  0
 30 32  2  0  0  0  0
 29 32  2  0  0  0  0
 20 32  1  0  0  0  0
 20 49  1  0  0  0  0
 20 50  1  0  0  0  0
 20 48  1  0  0  0  0
M  END
> <CID>
EN300-175288

> <SMILES>
Cc1ccncc1NC(=O)Cc2cc(cc(c2)Cl)OCC[N@](Cc3ccccc3)S(=O)(=O)C

> <RUN>
RUN4600

> <DDG (kcal/mol)>
-0.04

> <dDDG (kcal/mol)>
0.64

$$$$
EN300-7464360
  -OEChem-08252008263D

 47 49  0     0  0  0  0  0  0999 V2000
    5.9060    1.6040   19.1750 C   0  0  0  0  0  0  0  0  0  0  0  0
   11.8450    1.0370   23.2150 C   0  0  0  0  0  0  0  0  0  0  0  0
   12.4520   -0.9580   22.0870 C   0  0  0  0  0  0  0  0  0  0  0  0
   13.8940    1.0400   22.0040 C   0  0  0  0  0  0  0  0  0  0  0  0
    6.1320    0.7210   18.1270 C   0  0  0  0  0  0  0  0  0  0  0  0
    7.8320   -0.3540   19.1900 C   0  0  0  0  0  0  0  0  0  0  0  0
    6.7140    1.4760   20.3160 C   0  0  0  0  0  0  0  0  0  0  0  0
   11.4550   -0.2720   22.8180 C   0  0  0  0  0  0  0  0  0  0  0  0
    7.6940    0.4510   20.3800 C   0  0  0  0  0  0  0  0  0  0  0  0
   13.0040    1.7480   22.8660 C   0  0  0  0  0  0  0  0  0  0  0  0
   13.6650   -0.3090   21.6920 C   0  0  0  0  0  0  0  0  0  0  0  0
   11.9020    6.0220   22.8630 C   0  0  0  0  0  0  0  0  0  0  0  0
   10.9600    7.0160   22.9780 C   0  0  0  0  0  0  0  0  0  0  0  0
   13.1980    7.1890   24.5670 C   0  0  0  0  0  0  0  0  0  0  0  0
   13.0970    6.0860   23.7110 C   0  0  0  0  0  0  0  0  0  0  0  0
   11.0910    8.1780   23.8640 C   0  0  0  0  0  0  0  0  0  0  0  0
   14.2420    5.1370   23.5740 C   0  0  0  0  0  0  0  0  0  0  0  0
    9.1900   -0.8630   21.9090 C   0  0  0  0  0  0  0  0  0  0  0  0
    6.4180    2.3760   21.5700 C   0  0  0  0  0  0  0  0  0  0  0  0
   10.1160   -0.9650   23.0970 C   0  0  0  0  0  0  0  0  0  0  0  0
   14.1810    3.8510   22.8370 C   0  0  0  0  0  0  0  0  0  0  0  0
    7.0820   -0.2170   18.1180 N   0  0  0  0  0  0  0  0  0  0  0  0
   12.2340    8.2200   24.6530 N   0  0  0  0  0  0  0  0  0  0  0  0
    8.6650    0.3450   21.4480 N   0  0  0  0  0  0  0  0  0  0  0  0
   10.2590    9.0810   23.8830 O   0  0  0  0  0  0  0  0  0  0  0  0
   15.3160    5.3500   24.0870 O   0  0  0  0  0  0  0  0  0  0  0  0
    8.9280   -1.9030   21.2530 O   0  0  0  0  0  0  0  0  0  0  0  0
   13.2050    3.0000   23.3950 O   0  0  0  0  0  0  0  0  0  0  0  0
   14.7540   -1.3250   20.6920 Cl  0  0  0  0  0  0  0  0  0  0  0  0
    5.0310    2.2360   19.1620 H   0  0  0  0  0  0  0  0  0  0  0  0
   11.1530    1.6060   23.8350 H   0  0  0  0  0  0  0  0  0  0  0  0
   12.3280   -2.0040   21.8330 H   0  0  0  0  0  0  0  0  0  0  0  0
   14.8390    1.4630   21.6980 H   0  0  0  0  0  0  0  0  0  0  0  0
    5.4360    0.7640   17.2970 H   0  0  0  0  0  0  0  0  0  0  0  0
    8.6050   -1.1200   19.1310 H   0  0  0  0  0  0  0  0  0  0  0  0
   11.7560    5.2280   22.1350 H   0  0  0  0  0  0  0  0  0  0  0  0
   10.0960    6.9900   22.3180 H   0  0  0  0  0  0  0  0  0  0  0  0
   14.1330    7.2680   25.1170 H   0  0  0  0  0  0  0  0  0  0  0  0
    6.2940    3.4120   21.2590 H   0  0  0  0  0  0  0  0  0  0  0  0
    5.5030    2.0480   22.0770 H   0  0  0  0  0  0  0  0  0  0  0  0
    7.2640    2.3720   22.2660 H   0  0  0  0  0  0  0  0  0  0  0  0
   10.3370   -2.0070   23.3390 H   0  0  0  0  0  0  0  0  0  0  0  0
    9.6450   -0.4200   23.9220 H   0  0  0  0  0  0  0  0  0  0  0  0
   13.8860    4.0610   21.8050 H   0  0  0  0  0  0  0  0  0  0  0  0
   15.1330    3.3190   22.8580 H   0  0  0  0  0  0  0  0  0  0  0  0
   12.3530    9.0100   25.2840 H   0  0  0  0  0  0  0  0  0  0  0  0
    9.0870    1.2000   21.8120 H   0  0  0  0  0  0  0  0  0  0  0  0
  5 34  1  0  0  0  0
  5 22  2  0  0  0  0
  6 22  1  0  0  0  0
  1  5  1  0  0  0  0
  6 35  1  0  0  0  0
  1 30  1  0  0  0  0
  1  7  2  0  0  0  0
  6  9  2  0  0  0  0
  7  9  1  0  0  0  0
  7 19  1  0  0  0  0
  9 24  1  0  0  0  0
 11 29  1  0  0  0  0
 18 27  2  0  0  0  0
 19 39  1  0  0  0  0
 24 47  1  0  0  0  0
 18 24  1  0  0  0  0
 19 40  1  0  0  0  0
 19 41  1  0  0  0  0
  4 11  2  0  0  0  0
  3 11  1  0  0  0  0
  4 33  1  0  0  0  0
 21 44  1  0  0  0  0
  3 32  1  0  0  0  0
 18 20  1  0  0  0  0
  4 10  1  0  0  0  0
  3  8  2  0  0  0  0
 12 36  1  0  0  0  0
 13 37  1  0  0  0  0
  8 20  1  0  0  0  0
  2  8  1  0  0  0  0
 21 45  1  0  0  0  0
 21 28  1  0  0  0  0
 17 21  1  0  0  0  0
 12 13  2  0  0  0  0
 12 15  1  0  0  0  0
  2 10  2  0  0  0  0
 10 28  1  0  0  0  0
 13 16  1  0  0  0  0
 20 42  1  0  0  0  0
 20 43  1  0  0  0  0
  2 31  1  0  0  0  0
 15 17  1  0  0  0  0
 17 26  2  0  0  0  0
 14 15  2  0  0  0  0
 16 25  2  0  0  0  0
 16 23  1  0  0  0  0
 14 23  1  0  0  0  0
 14 38  1  0  0  0  0
 23 46  1  0  0  0  0
M  END
> <CID>
EN300-7464360

> <SMILES>
Cc1ccncc1NC(=O)Cc2cc(cc(c2)Cl)OCC(=O)c3ccc(=O)[nH]c3

> <RUN>
RUN4552

> <DDG (kcal/mol)>
-0.03

> <dDDG (kcal/mol)>
0.29

$$$$
EN300-1917759
  -OEChem-08252008263D

 51 53  0     1  0  0  0  0  0999 V2000
   12.4640    4.1710   28.4030 C   0  0  0  0  0  0  0  0  0  0  0  0
   12.4750    4.5000   29.7450 C   0  0  0  0  0  0  0  0  0  0  0  0
    5.6130    0.4320   20.1280 C   0  0  0  0  0  0  0  0  0  0  0  0
   12.1780    0.5290   24.0820 C   0  0  0  0  0  0  0  0  0  0  0  0
   12.8190   -1.7080   23.8290 C   0  0  0  0  0  0  0  0  0  0  0  0
   11.8690    2.2110   30.3570 C   0  0  0  0  0  0  0  0  0  0  0  0
   14.4610   -0.1120   24.2720 C   0  0  0  0  0  0  0  0  0  0  0  0
    6.1610   -0.0540   18.9150 C   0  0  0  0  0  0  0  0  0  0  0  0
    8.0900   -0.7050   19.9180 C   0  0  0  0  0  0  0  0  0  0  0  0
   12.2060    2.8070   28.0420 C   0  0  0  0  0  0  0  0  0  0  0  0
    6.3780    0.2720   21.3200 C   0  0  0  0  0  0  0  0  0  0  0  0
   11.8170   -0.7920   23.8470 C   0  0  0  0  0  0  0  0  0  0  0  0
   12.2160    3.5420   30.7790 C   0  0  0  0  0  0  0  0  0  0  0  0
    7.6930   -0.2900   21.1950 C   0  0  0  0  0  0  0  0  0  0  0  0
   13.5020    0.8890   24.3640 C   0  0  0  0  0  0  0  0  0  0  0  0
   12.0270    1.8080   29.0100 C   0  0  0  0  0  0  0  0  0  0  0  0
   14.1610   -1.3590   23.9110 C   0  0  0  0  0  0  0  0  0  0  0  0
    9.8140   -0.6910   22.3890 C   0  0  0  0  0  0  0  0  0  0  0  0
    5.8050    0.7930   22.6280 C   0  0  0  0  0  0  0  0  0  0  0  0
   10.4270   -1.2930   23.6240 C   0  0  0  0  0  0  0  0  0  0  0  0
   13.6380    2.5110   26.1720 C   0  0  0  0  0  0  0  0  0  0  0  0
   12.1930    2.3870   26.6140 C   0  0  2  0  0  0  0  0  0  0  0  0
    7.2780   -0.6540   18.8340 N   0  0  0  0  0  0  0  0  0  0  0  0
    8.4650   -0.4290   22.3660 N   0  0  0  0  0  0  0  0  0  0  0  0
   12.4070    3.8710   32.1090 N   0  0  0  0  0  0  0  0  0  0  0  0
   10.4860   -0.5180   21.3920 O   0  0  0  0  0  0  0  0  0  0  0  0
   12.7250    4.9920   32.3380 O   0  0  0  0  0  0  0  0  0  0  0  0
   12.3910    2.9730   32.8840 O   0  0  0  0  0  0  0  0  0  0  0  0
   11.3850    3.2790   25.7610 O   0  0  0  0  0  0  0  0  0  0  0  0
   13.7480    2.2280   24.7010 O   0  0  0  0  0  0  0  0  0  0  0  0
   11.7480    0.5380   28.6780 F   0  0  0  0  0  0  0  0  0  0  0  0
   15.3530   -2.6700   23.7040 Cl  0  0  0  0  0  0  0  0  0  0  0  0
   12.7520    4.8430   27.6020 H   0  0  0  0  0  0  0  0  0  0  0  0
   12.6000    5.5470   30.0260 H   0  0  0  0  0  0  0  0  0  0  0  0
    4.6610    0.9470   20.2260 H   0  0  0  0  0  0  0  0  0  0  0  0
   11.3680    1.2500   24.1250 H   0  0  0  0  0  0  0  0  0  0  0  0
   12.7120   -2.7690   23.6040 H   0  0  0  0  0  0  0  0  0  0  0  0
   11.6960    1.4790   31.1390 H   0  0  0  0  0  0  0  0  0  0  0  0
   15.4770    0.1190   24.5560 H   0  0  0  0  0  0  0  0  0  0  0  0
    5.5430    0.0130   18.0270 H   0  0  0  0  0  0  0  0  0  0  0  0
    8.9620   -1.3050   19.7070 H   0  0  0  0  0  0  0  0  0  0  0  0
    6.0070    0.0310   23.3920 H   0  0  0  0  0  0  0  0  0  0  0  0
    6.1820    1.7890   22.8680 H   0  0  0  0  0  0  0  0  0  0  0  0
    4.7190    0.8350   22.5610 H   0  0  0  0  0  0  0  0  0  0  0  0
   10.4520   -2.3900   23.6460 H   0  0  0  0  0  0  0  0  0  0  0  0
    9.8460   -0.9900   24.5030 H   0  0  0  0  0  0  0  0  0  0  0  0
   14.0000    3.5310   26.3340 H   0  0  0  0  0  0  0  0  0  0  0  0
   14.3640    1.8530   26.6620 H   0  0  0  0  0  0  0  0  0  0  0  0
   11.7580    1.3940   26.4990 H   0  0  0  0  0  0  0  0  0  0  0  0
    7.9930   -0.6990   23.2270 H   0  0  0  0  0  0  0  0  0  0  0  0
   11.8790    3.4900   24.9510 H   0  0  0  0  0  0  0  0  0  0  0  0
  8 40  1  0  0  0  0
  8 23  2  0  0  0  0
  9 23  1  0  0  0  0
  3  8  1  0  0  0  0
  9 41  1  0  0  0  0
  9 14  2  0  0  0  0
  3 35  1  0  0  0  0
  3 11  2  0  0  0  0
 11 14  1  0  0  0  0
 14 24  1  0  0  0  0
 11 19  1  0  0  0  0
 18 26  2  0  0  0  0
 18 24  1  0  0  0  0
 24 50  1  0  0  0  0
 18 20  1  0  0  0  0
 19 44  1  0  0  0  0
 19 43  1  0  0  0  0
 19 42  1  0  0  0  0
  5 37  1  0  0  0  0
 20 45  1  0  0  0  0
 12 20  1  0  0  0  0
 20 46  1  0  0  0  0
 17 32  1  0  0  0  0
  5 12  2  0  0  0  0
  5 17  1  0  0  0  0
  4 12  1  0  0  0  0
  7 17  2  0  0  0  0
  4 36  1  0  0  0  0
  4 15  2  0  0  0  0
  7 15  1  0  0  0  0
  7 39  1  0  0  0  0
 15 30  1  0  0  0  0
 21 30  1  0  0  0  0
 29 51  1  0  0  0  0
 22 29  1  0  0  0  0
 21 47  1  0  0  0  0
 21 22  1  0  0  0  0
 21 48  1  0  0  0  0
 22 49  1  0  0  0  0
 10 22  1  0  0  0  0
  1 33  1  0  0  0  0
  1 10  2  0  0  0  0
 10 16  1  0  0  0  0
  1  2  1  0  0  0  0
 16 31  1  0  0  0  0
  6 16  2  0  0  0  0
  2 34  1  0  0  0  0
  2 13  2  0  0  0  0
  6 13  1  0  0  0  0
  6 38  1  0  0  0  0
 13 25  1  0  0  0  0
 25 27  2  0  0  0  0
 25 28  2  0  0  0  0
M  END
> <CID>
EN300-1917759

> <SMILES>
Cc1ccncc1NC(=O)Cc2cc(cc(c2)Cl)OC[C@@H](c3ccc(cc3F)N(=O)=O)O

> <RUN>
RUN1698

> <DDG (kcal/mol)>
-0.03

> <dDDG (kcal/mol)>
0.19

$$$$
EN300-222255
  -OEChem-08252008263D

 51 53  0     0  0  0  0  0  0999 V2000
   12.0800    3.7940   27.6380 C   0  0  0  0  0  0  0  0  0  0  0  0
   12.3680    5.1300   27.2960 C   0  0  0  0  0  0  0  0  0  0  0  0
   12.7030    2.7570   26.9530 C   0  0  0  0  0  0  0  0  0  0  0  0
    5.1760    1.2950   19.5090 C   0  0  0  0  0  0  0  0  0  0  0  0
   11.8480    1.1620   24.3560 C   0  0  0  0  0  0  0  0  0  0  0  0
   11.9390   -0.4140   22.4960 C   0  0  0  0  0  0  0  0  0  0  0  0
   13.9930    0.5190   23.3820 C   0  0  0  0  0  0  0  0  0  0  0  0
    5.8830    0.9000   18.3720 C   0  0  0  0  0  0  0  0  0  0  0  0
    7.7350    0.4380   19.5610 C   0  0  0  0  0  0  0  0  0  0  0  0
   13.2740    5.4880   26.2840 C   0  0  0  0  0  0  0  0  0  0  0  0
    5.7160    1.0160   20.8190 C   0  0  0  0  0  0  0  0  0  0  0  0
   11.1780    0.2850   23.4780 C   0  0  0  0  0  0  0  0  0  0  0  0
   13.8110    4.3930   25.5660 C   0  0  0  0  0  0  0  0  0  0  0  0
    7.0620    0.5720   20.8420 C   0  0  0  0  0  0  0  0  0  0  0  0
   13.5060    3.0610   25.8870 C   0  0  0  0  0  0  0  0  0  0  0  0
   13.3030    1.2370   24.3430 C   0  0  0  0  0  0  0  0  0  0  0  0
   13.2900   -0.1940   22.3770 C   0  0  0  0  0  0  0  0  0  0  0  0
   13.6750    6.9160   26.0980 C   0  0  0  0  0  0  0  0  0  0  0  0
    8.9680    0.6060   22.2850 C   0  0  0  0  0  0  0  0  0  0  0  0
    4.8790    1.3180   21.9730 C   0  0  0  0  0  0  0  0  0  0  0  0
   14.2820    8.6530   24.7880 C   0  0  0  0  0  0  0  0  0  0  0  0
    9.6960   -0.0140   23.5150 C   0  0  0  0  0  0  0  0  0  0  0  0
   14.8950    4.5670   24.5430 C   0  0  0  0  0  0  0  0  0  0  0  0
    7.1770    0.6260   18.3610 N   0  0  0  0  0  0  0  0  0  0  0  0
    7.6500    0.3070   22.0660 N   0  0  0  0  0  0  0  0  0  0  0  0
   13.9740    7.6010   27.1350 O   0  0  0  0  0  0  0  0  0  0  0  0
    9.5330    1.3360   21.4930 O   0  0  0  0  0  0  0  0  0  0  0  0
   14.0920    2.0320   25.1590 O   0  0  0  0  0  0  0  0  0  0  0  0
   13.6520    7.4210   24.8890 O   0  0  0  0  0  0  0  0  0  0  0  0
   14.2860   -0.9450   21.1540 Cl  0  0  0  0  0  0  0  0  0  0  0  0
   13.9440    4.5790   22.8510 Br  0  0  0  0  0  0  0  0  0  0  0  0
   11.4420    3.6490   28.5100 H   0  0  0  0  0  0  0  0  0  0  0  0
   11.7720    5.9130   27.7640 H   0  0  0  0  0  0  0  0  0  0  0  0
   12.4920    1.7080   27.1460 H   0  0  0  0  0  0  0  0  0  0  0  0
    4.1910    1.6230   19.1970 H   0  0  0  0  0  0  0  0  0  0  0  0
   11.2830    1.7010   25.1070 H   0  0  0  0  0  0  0  0  0  0  0  0
   11.4610   -1.0480   21.7580 H   0  0  0  0  0  0  0  0  0  0  0  0
   15.0780    0.5330   23.3740 H   0  0  0  0  0  0  0  0  0  0  0  0
    5.4780    1.0240   17.3760 H   0  0  0  0  0  0  0  0  0  0  0  0
    8.7390    0.0400   19.5770 H   0  0  0  0  0  0  0  0  0  0  0  0
    5.0110    2.3820   22.2010 H   0  0  0  0  0  0  0  0  0  0  0  0
    3.8720    1.0850   21.6320 H   0  0  0  0  0  0  0  0  0  0  0  0
    5.1320    0.7650   22.8790 H   0  0  0  0  0  0  0  0  0  0  0  0
   14.5090    8.6930   23.7200 H   0  0  0  0  0  0  0  0  0  0  0  0
   15.2580    8.7090   25.2990 H   0  0  0  0  0  0  0  0  0  0  0  0
   13.6580    9.4940   25.1030 H   0  0  0  0  0  0  0  0  0  0  0  0
    9.5070   -1.0940   23.5880 H   0  0  0  0  0  0  0  0  0  0  0  0
    9.3260    0.3460   24.4850 H   0  0  0  0  0  0  0  0  0  0  0  0
   15.3360    5.5610   24.6970 H   0  0  0  0  0  0  0  0  0  0  0  0
   15.6200    3.7490   24.5320 H   0  0  0  0  0  0  0  0  0  0  0  0
    7.0740    0.1950   22.9000 H   0  0  0  0  0  0  0  0  0  0  0  0
  8 39  1  0  0  0  0
  8 24  2  0  0  0  0
  9 24  1  0  0  0  0
  4  8  1  0  0  0  0
  4 35  1  0  0  0  0
  4 11  2  0  0  0  0
  9 40  1  0  0  0  0
  9 14  2  0  0  0  0
 11 14  1  0  0  0  0
 11 20  1  0  0  0  0
 14 25  1  0  0  0  0
 17 30  1  0  0  0  0
 19 27  2  0  0  0  0
 20 42  1  0  0  0  0
  6 37  1  0  0  0  0
 20 41  1  0  0  0  0
 20 43  1  0  0  0  0
 19 25  1  0  0  0  0
 25 51  1  0  0  0  0
 19 22  1  0  0  0  0
  6 17  2  0  0  0  0
  7 17  1  0  0  0  0
  6 12  1  0  0  0  0
 23 31  1  0  0  0  0
  7 38  1  0  0  0  0
  7 16  2  0  0  0  0
 12 22  1  0  0  0  0
  5 12  2  0  0  0  0
 22 47  1  0  0  0  0
 22 48  1  0  0  0  0
 21 44  1  0  0  0  0
  5 16  1  0  0  0  0
 16 28  1  0  0  0  0
  5 36  1  0  0  0  0
 23 50  1  0  0  0  0
 23 49  1  0  0  0  0
 13 23  1  0  0  0  0
 21 29  1  0  0  0  0
 21 46  1  0  0  0  0
 21 45  1  0  0  0  0
 18 29  1  0  0  0  0
 15 28  1  0  0  0  0
 13 15  2  0  0  0  0
 10 13  1  0  0  0  0
  3 15  1  0  0  0  0
 10 18  1  0  0  0  0
 18 26  2  0  0  0  0
  2 10  2  0  0  0  0
  3 34  1  0  0  0  0
  1  3  2  0  0  0  0
  1  2  1  0  0  0  0
  2 33  1  0  0  0  0
  1 32  1  0  0  0  0
M  END
> <CID>
EN300-222255

> <SMILES>
Cc1ccncc1NC(=O)Cc2cc(cc(c2)Cl)Oc3cccc(c3CBr)C(=O)OC

> <RUN>
RUN3088

> <DDG (kcal/mol)>
-0.03

> <dDDG (kcal/mol)>
0.16

$$$$
EN300-1865390
  -OEChem-08252008263D

 54 57  0     0  0  0  0  0  0999 V2000
    9.1400    8.9880   25.8820 C   0  0  0  0  0  0  0  0  0  0  0  0
    8.9020    8.1470   24.7990 C   0  0  0  0  0  0  0  0  0  0  0  0
   10.4730    9.3580   26.2190 C   0  0  0  0  0  0  0  0  0  0  0  0
   10.0490    7.6700   24.0860 C   0  0  0  0  0  0  0  0  0  0  0  0
   11.5640    8.7720   25.6600 C   0  0  0  0  0  0  0  0  0  0  0  0
    5.7000    2.1310   19.9780 C   0  0  0  0  0  0  0  0  0  0  0  0
   12.6010    1.9630   24.0840 C   0  0  0  0  0  0  0  0  0  0  0  0
   12.6280   -0.1730   23.0650 C   0  0  0  0  0  0  0  0  0  0  0  0
   14.6910    0.9950   23.2620 C   0  0  0  0  0  0  0  0  0  0  0  0
    6.2270    1.5250   18.8790 C   0  0  0  0  0  0  0  0  0  0  0  0
    8.0820    0.6260   20.0390 C   0  0  0  0  0  0  0  0  0  0  0  0
   12.4390    6.2020   23.2830 C   0  0  0  0  0  0  0  0  0  0  0  0
    6.2490    1.8840   21.2150 C   0  0  0  0  0  0  0  0  0  0  0  0
   11.9000    0.8600   23.7510 C   0  0  0  0  0  0  0  0  0  0  0  0
   11.3430    7.8640   24.6020 C   0  0  0  0  0  0  0  0  0  0  0  0
    7.4850    1.0570   21.2760 C   0  0  0  0  0  0  0  0  0  0  0  0
   13.9530    2.0680   23.9660 C   0  0  0  0  0  0  0  0  0  0  0  0
   13.9560   -0.1190   22.7480 C   0  0  0  0  0  0  0  0  0  0  0  0
   13.7190    5.8540   23.0280 C   0  0  0  0  0  0  0  0  0  0  0  0
    9.6500    0.9980   22.5700 C   0  0  0  0  0  0  0  0  0  0  0  0
    5.6940    2.5440   22.4400 C   0  0  0  0  0  0  0  0  0  0  0  0
   10.3740    0.7490   23.8530 C   0  0  0  0  0  0  0  0  0  0  0  0
   14.1090    4.6990   22.1970 C   0  0  0  0  0  0  0  0  0  0  0  0
   15.1440    3.9110   23.0210 C   0  0  0  0  0  0  0  0  0  0  0  0
    7.3700    0.7830   18.8720 N   0  0  0  0  0  0  0  0  0  0  0  0
   14.5250    6.9060   23.4380 N   0  0  0  0  0  0  0  0  0  0  0  0
   13.7840    7.7710   23.9830 N   0  0  0  0  0  0  0  0  0  0  0  0
   12.4490    7.3420   24.0000 N   0  0  0  0  0  0  0  0  0  0  0  0
    8.2720    0.8920   22.4770 N   0  0  0  0  0  0  0  0  0  0  0  0
   10.1490    1.7080   21.7250 O   0  0  0  0  0  0  0  0  0  0  0  0
   14.5130    3.3140   24.2250 O   0  0  0  0  0  0  0  0  0  0  0  0
   14.8010   -1.2970   21.7540 Cl  0  0  0  0  0  0  0  0  0  0  0  0
    8.3380    9.5420   26.3630 H   0  0  0  0  0  0  0  0  0  0  0  0
    7.8650    8.0160   24.5190 H   0  0  0  0  0  0  0  0  0  0  0  0
   10.6990   10.0330   27.0300 H   0  0  0  0  0  0  0  0  0  0  0  0
    9.8670    6.9460   23.2990 H   0  0  0  0  0  0  0  0  0  0  0  0
   12.5960    9.0010   25.8750 H   0  0  0  0  0  0  0  0  0  0  0  0
    4.8220    2.7760   19.9400 H   0  0  0  0  0  0  0  0  0  0  0  0
   12.1160    2.8540   24.4560 H   0  0  0  0  0  0  0  0  0  0  0  0
   12.0490   -1.0360   22.7230 H   0  0  0  0  0  0  0  0  0  0  0  0
   15.7490    1.0460   23.0460 H   0  0  0  0  0  0  0  0  0  0  0  0
    5.6970    1.7150   17.9570 H   0  0  0  0  0  0  0  0  0  0  0  0
    9.0510    0.1470   20.0010 H   0  0  0  0  0  0  0  0  0  0  0  0
   11.5820    5.6460   22.8940 H   0  0  0  0  0  0  0  0  0  0  0  0
    4.6430    2.8310   22.4060 H   0  0  0  0  0  0  0  0  0  0  0  0
    5.8000    1.8180   23.2570 H   0  0  0  0  0  0  0  0  0  0  0  0
    6.2630    3.4560   22.6280 H   0  0  0  0  0  0  0  0  0  0  0  0
   10.0860   -0.2130   24.2790 H   0  0  0  0  0  0  0  0  0  0  0  0
   10.0240    1.5400   24.5170 H   0  0  0  0  0  0  0  0  0  0  0  0
   13.2750    3.9930   22.1170 H   0  0  0  0  0  0  0  0  0  0  0  0
   14.6510    5.0230   21.3050 H   0  0  0  0  0  0  0  0  0  0  0  0
   15.6430    3.1820   22.3690 H   0  0  0  0  0  0  0  0  0  0  0  0
   15.9110    4.6600   23.2360 H   0  0  0  0  0  0  0  0  0  0  0  0
    7.7040    0.5540   23.2570 H   0  0  0  0  0  0  0  0  0  0  0  0
 10 42  1  0  0  0  0
 10 25  2  0  0  0  0
 11 25  1  0  0  0  0
  6 10  1  0  0  0  0
  6 38  1  0  0  0  0
  6 13  2  0  0  0  0
 11 43  1  0  0  0  0
 11 16  2  0  0  0  0
 13 16  1  0  0  0  0
 13 21  1  0  0  0  0
 16 29  1  0  0  0  0
 23 51  1  0  0  0  0
 20 30  2  0  0  0  0
 18 32  1  0  0  0  0
 23 50  1  0  0  0  0
 23 24  1  0  0  0  0
 19 23  1  0  0  0  0
 24 52  1  0  0  0  0
 21 45  1  0  0  0  0
 21 47  1  0  0  0  0
 21 46  1  0  0  0  0
 20 29  1  0  0  0  0
 29 54  1  0  0  0  0
 20 22  1  0  0  0  0
  8 40  1  0  0  0  0
  8 18  2  0  0  0  0
  9 18  1  0  0  0  0
 12 44  1  0  0  0  0
 24 53  1  0  0  0  0
 24 31  1  0  0  0  0
 12 19  2  0  0  0  0
 19 26  1  0  0  0  0
  9 41  1  0  0  0  0
  8 14  1  0  0  0  0
  9 17  2  0  0  0  0
 12 28  1  0  0  0  0
  4 36  1  0  0  0  0
 26 27  2  0  0  0  0
 14 22  1  0  0  0  0
  7 14  2  0  0  0  0
 22 48  1  0  0  0  0
 22 49  1  0  0  0  0
  7 17  1  0  0  0  0
 17 31  1  0  0  0  0
 27 28  1  0  0  0  0
 15 28  1  0  0  0  0
  7 39  1  0  0  0  0
  4 15  2  0  0  0  0
  2  4  1  0  0  0  0
  2 34  1  0  0  0  0
  5 15  1  0  0  0  0
  1  2  2  0  0  0  0
  5 37  1  0  0  0  0
  3  5  2  0  0  0  0
  1  3  1  0  0  0  0
  1 33  1  0  0  0  0
  3 35  1  0  0  0  0
M  END
> <CID>
EN300-1865390

> <SMILES>
Cc1ccncc1NC(=O)Cc2cc(cc(c2)Cl)OCCc3cn(nn3)c4ccccc4

> <RUN>
RUN4613

> <DDG (kcal/mol)>
-0.03

> <dDDG (kcal/mol)>
0.40

$$$$
EN300-1926794
  -OEChem-08252008263D

 48 50  0     0  0  0  0  0  0999 V2000
   13.8050    5.5090   25.2340 C   0  0  0  0  0  0  0  0  0  0  0  0
   14.5440    6.3590   26.0600 C   0  0  0  0  0  0  0  0  0  0  0  0
    5.4710    1.8500   17.3010 C   0  0  0  0  0  0  0  0  0  0  0  0
   11.2980    1.6420   22.9820 C   0  0  0  0  0  0  0  0  0  0  0  0
   12.0420   -0.2430   21.5660 C   0  0  0  0  0  0  0  0  0  0  0  0
   13.6090    0.9900   22.9190 C   0  0  0  0  0  0  0  0  0  0  0  0
    6.1790    1.3470   16.2690 C   0  0  0  0  0  0  0  0  0  0  0  0
    7.9970    0.8960   17.5890 C   0  0  0  0  0  0  0  0  0  0  0  0
   12.7570    4.7040   25.7390 C   0  0  0  0  0  0  0  0  0  0  0  0
    6.0550    1.9510   18.5360 C   0  0  0  0  0  0  0  0  0  0  0  0
   11.0040    0.5980   22.0120 C   0  0  0  0  0  0  0  0  0  0  0  0
    7.3200    1.4390   18.6910 C   0  0  0  0  0  0  0  0  0  0  0  0
   14.2180    6.4310   27.4200 C   0  0  0  0  0  0  0  0  0  0  0  0
   12.6450    1.8720   23.3860 C   0  0  0  0  0  0  0  0  0  0  0  0
   12.4380    4.7700   27.1100 C   0  0  0  0  0  0  0  0  0  0  0  0
   13.1320    5.6580   27.9130 C   0  0  0  0  0  0  0  0  0  0  0  0
   13.3320   -0.0300   22.0490 C   0  0  0  0  0  0  0  0  0  0  0  0
    9.1770    1.0190   20.3320 C   0  0  0  0  0  0  0  0  0  0  0  0
    5.2340    2.4980   19.7140 C   0  0  0  0  0  0  0  0  0  0  0  0
    9.5950    0.3540   21.5670 C   0  0  0  0  0  0  0  0  0  0  0  0
   12.0700    3.6790   24.8280 C   0  0  0  0  0  0  0  0  0  0  0  0
    7.3530    0.7420   16.3930 N   0  0  0  0  0  0  0  0  0  0  0  0
    7.8710    1.1330   19.9630 N   0  0  0  0  0  0  0  0  0  0  0  0
   10.0730    1.4300   19.5490 O   0  0  0  0  0  0  0  0  0  0  0  0
   14.8690    7.3440   28.1820 O   0  0  0  0  0  0  0  0  0  0  0  0
   11.3520    4.1160   27.5310 O   0  0  0  0  0  0  0  0  0  0  0  0
   12.9200    5.6470   29.2480 O   0  0  0  0  0  0  0  0  0  0  0  0
   13.0730    2.8820   24.2400 O   0  0  0  0  0  0  0  0  0  0  0  0
   14.5590   -1.1370   21.7140 Cl  0  0  0  0  0  0  0  0  0  0  0  0
   13.9560    5.4920   24.1580 H   0  0  0  0  0  0  0  0  0  0  0  0
   15.3340    6.9890   25.6500 H   0  0  0  0  0  0  0  0  0  0  0  0
    4.4590    2.0960   16.9980 H   0  0  0  0  0  0  0  0  0  0  0  0
   10.4460    2.3000   23.1360 H   0  0  0  0  0  0  0  0  0  0  0  0
   11.9270   -1.0200   20.8170 H   0  0  0  0  0  0  0  0  0  0  0  0
   14.6350    1.0870   23.2660 H   0  0  0  0  0  0  0  0  0  0  0  0
    5.6700    1.2860   15.3150 H   0  0  0  0  0  0  0  0  0  0  0  0
    8.9900    0.4590   17.5950 H   0  0  0  0  0  0  0  0  0  0  0  0
    5.7650    3.1580   20.4170 H   0  0  0  0  0  0  0  0  0  0  0  0
    4.3410    3.0220   19.3790 H   0  0  0  0  0  0  0  0  0  0  0  0
    4.9150    1.7280   20.4290 H   0  0  0  0  0  0  0  0  0  0  0  0
    9.4730   -0.7220   21.4530 H   0  0  0  0  0  0  0  0  0  0  0  0
    8.9440    0.6670   22.3930 H   0  0  0  0  0  0  0  0  0  0  0  0
   11.4070    3.1360   25.5090 H   0  0  0  0  0  0  0  0  0  0  0  0
   11.4820    4.2480   24.0900 H   0  0  0  0  0  0  0  0  0  0  0  0
    7.1670    0.8490   20.6390 H   0  0  0  0  0  0  0  0  0  0  0  0
   15.2430    8.0000   27.5800 H   0  0  0  0  0  0  0  0  0  0  0  0
   11.2380    4.2330   28.4960 H   0  0  0  0  0  0  0  0  0  0  0  0
   13.5780    6.2270   29.6770 H   0  0  0  0  0  0  0  0  0  0  0  0
  7 36  1  0  0  0  0
  7 22  2  0  0  0  0
  3  7  1  0  0  0  0
  8 22  1  0  0  0  0
  3 32  1  0  0  0  0
  3 10  2  0  0  0  0
  8 37  1  0  0  0  0
  8 12  2  0  0  0  0
 10 12  1  0  0  0  0
 10 19  1  0  0  0  0
 12 23  1  0  0  0  0
 19 39  1  0  0  0  0
 18 24  2  0  0  0  0
 19 38  1  0  0  0  0
 19 40  1  0  0  0  0
 18 23  1  0  0  0  0
 23 45  1  0  0  0  0
 18 20  1  0  0  0  0
  5 34  1  0  0  0  0
 20 41  1  0  0  0  0
  5 11  2  0  0  0  0
  5 17  1  0  0  0  0
 11 20  1  0  0  0  0
 20 42  1  0  0  0  0
 17 29  1  0  0  0  0
  4 11  1  0  0  0  0
  6 17  2  0  0  0  0
  6 35  1  0  0  0  0
  6 14  1  0  0  0  0
  4 33  1  0  0  0  0
  4 14  2  0  0  0  0
 14 28  1  0  0  0  0
 21 44  1  0  0  0  0
  1 30  1  0  0  0  0
 21 28  1  0  0  0  0
 21 43  1  0  0  0  0
  9 21  1  0  0  0  0
  1  9  2  0  0  0  0
  1  2  1  0  0  0  0
  2 31  1  0  0  0  0
  9 15  1  0  0  0  0
  2 13  2  0  0  0  0
 15 26  1  0  0  0  0
 15 16  2  0  0  0  0
 13 16  1  0  0  0  0
 13 25  1  0  0  0  0
 26 47  1  0  0  0  0
 25 46  1  0  0  0  0
 16 27  1  0  0  0  0
 27 48  1  0  0  0  0
M  END
> <CID>
EN300-1926794

> <SMILES>
Cc1ccncc1NC(=O)Cc2cc(cc(c2)Cl)OCc3ccc(c(c3O)O)O

> <RUN>
RUN2116

> <DDG (kcal/mol)>
-0.03

> <dDDG (kcal/mol)>
0.17

$$$$
EN300-45396
  -OEChem-08252008263D

 51 53  0     0  0  0  0  0  0999 V2000
   14.4490    9.0520   25.5780 C   0  0  0  0  0  0  0  0  0  0  0  0
   15.2810    8.8760   24.4810 C   0  0  0  0  0  0  0  0  0  0  0  0
   13.4960    8.2550   25.8500 C   0  0  0  0  0  0  0  0  0  0  0  0
   15.0280    7.8500   23.6070 C   0  0  0  0  0  0  0  0  0  0  0  0
    4.8780    2.0400   20.1140 C   0  0  0  0  0  0  0  0  0  0  0  0
   11.7280    1.6760   23.4380 C   0  0  0  0  0  0  0  0  0  0  0  0
   11.8910   -0.6280   22.7090 C   0  0  0  0  0  0  0  0  0  0  0  0
   13.8070    0.8530   22.4330 C   0  0  0  0  0  0  0  0  0  0  0  0
    5.2120    1.8450   18.8380 C   0  0  0  0  0  0  0  0  0  0  0  0
    7.0960    0.5690   19.3820 C   0  0  0  0  0  0  0  0  0  0  0  0
    5.6720    1.3750   21.1390 C   0  0  0  0  0  0  0  0  0  0  0  0
   11.1010    0.4220   23.2330 C   0  0  0  0  0  0  0  0  0  0  0  0
   13.1200    7.1430   24.9920 C   0  0  0  0  0  0  0  0  0  0  0  0
    6.8190    0.6710   20.7780 C   0  0  0  0  0  0  0  0  0  0  0  0
   13.8890    7.0060   23.8080 C   0  0  0  0  0  0  0  0  0  0  0  0
   13.0980    1.8770   22.9610 C   0  0  0  0  0  0  0  0  0  0  0  0
   13.2000   -0.4320   22.2930 C   0  0  0  0  0  0  0  0  0  0  0  0
    8.9170    0.6220   22.0300 C   0  0  0  0  0  0  0  0  0  0  0  0
    5.3070    1.5660   22.6560 C   0  0  0  0  0  0  0  0  0  0  0  0
    9.6390    0.3290   23.3730 C   0  0  0  0  0  0  0  0  0  0  0  0
   14.5230    5.1900   22.3230 C   0  0  0  0  0  0  0  0  0  0  0  0
   14.0180    3.7870   21.9720 C   0  0  0  0  0  0  0  0  0  0  0  0
    6.3030    1.1820   18.4410 N   0  0  0  0  0  0  0  0  0  0  0  0
    7.6650    0.1380   21.7750 N   0  0  0  0  0  0  0  0  0  0  0  0
   12.1020    6.2740   25.3750 N   0  0  0  0  0  0  0  0  0  0  0  0
    9.3910    1.3920   21.2160 O   0  0  0  0  0  0  0  0  0  0  0  0
   11.2520    6.5180   26.2910 O   0  0  0  0  0  0  0  0  0  0  0  0
   12.1360    5.1560   24.8390 O   0  0  0  0  0  0  0  0  0  0  0  0
   13.5670    6.1480   22.7880 O   0  0  0  0  0  0  0  0  0  0  0  0
   13.7640    3.1080   23.1650 O   0  0  0  0  0  0  0  0  0  0  0  0
   14.0810   -1.7460   21.5980 Cl  0  0  0  0  0  0  0  0  0  0  0  0
   14.6420    9.8560   26.2730 H   0  0  0  0  0  0  0  0  0  0  0  0
   16.1980    9.4520   24.4160 H   0  0  0  0  0  0  0  0  0  0  0  0
   13.0240    8.3230   26.8200 H   0  0  0  0  0  0  0  0  0  0  0  0
   15.7160    7.6400   22.8040 H   0  0  0  0  0  0  0  0  0  0  0  0
    3.9650    2.5860   20.3400 H   0  0  0  0  0  0  0  0  0  0  0  0
   11.1800    2.4860   23.8940 H   0  0  0  0  0  0  0  0  0  0  0  0
   11.3820   -1.5870   22.6460 H   0  0  0  0  0  0  0  0  0  0  0  0
   14.8640    0.9300   22.1820 H   0  0  0  0  0  0  0  0  0  0  0  0
    4.5890    2.4430   18.1850 H   0  0  0  0  0  0  0  0  0  0  0  0
    7.9790    0.0030   19.1060 H   0  0  0  0  0  0  0  0  0  0  0  0
    6.1740    1.9960   23.1700 H   0  0  0  0  0  0  0  0  0  0  0  0
    4.6640    2.3760   23.0250 H   0  0  0  0  0  0  0  0  0  0  0  0
    4.8470    0.6350   22.9900 H   0  0  0  0  0  0  0  0  0  0  0  0
    9.4140   -0.6960   23.6840 H   0  0  0  0  0  0  0  0  0  0  0  0
    9.2440    1.0470   24.0980 H   0  0  0  0  0  0  0  0  0  0  0  0
   15.0180    5.6600   21.4680 H   0  0  0  0  0  0  0  0  0  0  0  0
   15.2210    5.1050   23.1710 H   0  0  0  0  0  0  0  0  0  0  0  0
   14.9080    3.2640   21.6100 H   0  0  0  0  0  0  0  0  0  0  0  0
   13.2270    3.6600   21.2290 H   0  0  0  0  0  0  0  0  0  0  0  0
    7.3430   -0.4520   22.5420 H   0  0  0  0  0  0  0  0  0  0  0  0
  9 40  1  0  0  0  0
  9 23  2  0  0  0  0
 10 23  1  0  0  0  0
  5  9  1  0  0  0  0
 10 41  1  0  0  0  0
 10 14  2  0  0  0  0
  5 36  1  0  0  0  0
  5 11  2  0  0  0  0
 11 14  1  0  0  0  0
 14 24  1  0  0  0  0
 11 19  1  0  0  0  0
 18 26  2  0  0  0  0
 22 50  1  0  0  0  0
 21 47  1  0  0  0  0
 17 31  1  0  0  0  0
 22 49  1  0  0  0  0
 18 24  1  0  0  0  0
 24 51  1  0  0  0  0
 21 22  1  0  0  0  0
 22 30  1  0  0  0  0
 18 20  1  0  0  0  0
  8 39  1  0  0  0  0
  8 17  2  0  0  0  0
  7 17  1  0  0  0  0
 21 29  1  0  0  0  0
 21 48  1  0  0  0  0
  8 16  1  0  0  0  0
  7 38  1  0  0  0  0
 19 44  1  0  0  0  0
 19 43  1  0  0  0  0
 19 42  1  0  0  0  0
  7 12  2  0  0  0  0
 15 29  1  0  0  0  0
  4 35  1  0  0  0  0
 16 30  1  0  0  0  0
  6 16  2  0  0  0  0
 12 20  1  0  0  0  0
  6 12  1  0  0  0  0
 20 45  1  0  0  0  0
 20 46  1  0  0  0  0
  6 37  1  0  0  0  0
  4 15  2  0  0  0  0
  2  4  1  0  0  0  0
 13 15  1  0  0  0  0
  2 33  1  0  0  0  0
  1  2  2  0  0  0  0
 25 28  2  0  0  0  0
 13 25  1  0  0  0  0
  3 13  2  0  0  0  0
 25 27  2  0  0  0  0
  1  3  1  0  0  0  0
  1 32  1  0  0  0  0
  3 34  1  0  0  0  0
M  END
> <CID>
EN300-45396

> <SMILES>
Cc1ccncc1NC(=O)Cc2cc(cc(c2)Cl)OCCOc3ccccc3N(=O)=O

> <RUN>
RUN3014

> <DDG (kcal/mol)>
-0.02

> <dDDG (kcal/mol)>
0.20

$$$$
EN300-1926690
  -OEChem-08252008263D

 49 51  0     1  0  0  0  0  0999 V2000
    4.8830    1.7580   19.9950 C   0  0  0  0  0  0  0  0  0  0  0  0
   11.7180    1.3180   23.6540 C   0  0  0  0  0  0  0  0  0  0  0  0
   12.6380    6.0220   23.7040 C   0  0  0  0  0  0  0  0  0  0  0  0
   11.8080   -0.9150   22.7620 C   0  0  0  0  0  0  0  0  0  0  0  0
   14.2140    5.7920   25.5090 C   0  0  0  0  0  0  0  0  0  0  0  0
   13.8370    0.3490   23.1510 C   0  0  0  0  0  0  0  0  0  0  0  0
   12.0990    6.9980   25.8020 C   0  0  0  0  0  0  0  0  0  0  0  0
    5.2370    1.5010   18.6820 C   0  0  0  0  0  0  0  0  0  0  0  0
    7.0390    0.2810   19.3530 C   0  0  0  0  0  0  0  0  0  0  0  0
    5.4810    1.1300   20.9950 C   0  0  0  0  0  0  0  0  0  0  0  0
   11.0020    0.1730   23.2740 C   0  0  0  0  0  0  0  0  0  0  0  0
   13.8870    5.5720   24.2080 C   0  0  0  0  0  0  0  0  0  0  0  0
    6.6670    0.3690   20.7520 C   0  0  0  0  0  0  0  0  0  0  0  0
   13.0830    1.4290   23.5330 C   0  0  0  0  0  0  0  0  0  0  0  0
   11.7510    6.7230   24.5270 C   0  0  0  0  0  0  0  0  0  0  0  0
   13.2290   -0.8020   22.7050 C   0  0  0  0  0  0  0  0  0  0  0  0
   13.3340    6.5400   26.3750 C   0  0  0  0  0  0  0  0  0  0  0  0
    8.7160    0.3040   21.9590 C   0  0  0  0  0  0  0  0  0  0  0  0
    4.9300    1.2130   22.4180 C   0  0  0  0  0  0  0  0  0  0  0  0
    9.4900   -0.0320   23.2240 C   0  0  0  0  0  0  0  0  0  0  0  0
   14.2090    3.4460   22.8140 C   0  0  0  0  0  0  0  0  0  0  0  0
   14.8040    4.7710   23.2640 C   0  0  2  0  0  0  0  0  0  0  0  0
    6.2760    0.7420   18.3460 N   0  0  0  0  0  0  0  0  0  0  0  0
    7.4270   -0.1220   21.8260 N   0  0  0  0  0  0  0  0  0  0  0  0
    9.1710    1.1120   21.1480 O   0  0  0  0  0  0  0  0  0  0  0  0
   16.0880    4.4720   23.7480 O   0  0  0  0  0  0  0  0  0  0  0  0
   13.6930    2.6540   23.8870 O   0  0  0  0  0  0  0  0  0  0  0  0
   10.5450    7.1320   24.0600 F   0  0  0  0  0  0  0  0  0  0  0  0
   14.2080   -2.0190   21.9270 Cl  0  0  0  0  0  0  0  0  0  0  0  0
   13.7230    6.8500   27.9600 Cl  0  0  0  0  0  0  0  0  0  0  0  0
    4.0640    2.4000   20.3090 H   0  0  0  0  0  0  0  0  0  0  0  0
   11.1910    2.1750   24.0530 H   0  0  0  0  0  0  0  0  0  0  0  0
   12.3680    5.7120   22.6970 H   0  0  0  0  0  0  0  0  0  0  0  0
   11.3730   -1.8590   22.4530 H   0  0  0  0  0  0  0  0  0  0  0  0
   15.1540    5.4120   25.9050 H   0  0  0  0  0  0  0  0  0  0  0  0
   14.9160    0.3540   23.1390 H   0  0  0  0  0  0  0  0  0  0  0  0
   11.5370    7.6620   26.4630 H   0  0  0  0  0  0  0  0  0  0  0  0
    4.6730    2.0220   17.9200 H   0  0  0  0  0  0  0  0  0  0  0  0
    7.8880   -0.3220   19.0490 H   0  0  0  0  0  0  0  0  0  0  0  0
    5.5300    1.8360   23.0920 H   0  0  0  0  0  0  0  0  0  0  0  0
    3.9230    1.6240   22.4750 H   0  0  0  0  0  0  0  0  0  0  0  0
    4.9750    0.2350   22.8900 H   0  0  0  0  0  0  0  0  0  0  0  0
    9.2980   -1.0520   23.5610 H   0  0  0  0  0  0  0  0  0  0  0  0
    9.0530    0.6680   23.9460 H   0  0  0  0  0  0  0  0  0  0  0  0
   13.3660    3.7600   22.1920 H   0  0  0  0  0  0  0  0  0  0  0  0
   14.8810    2.9060   22.1340 H   0  0  0  0  0  0  0  0  0  0  0  0
   15.0260    5.3550   22.3580 H   0  0  0  0  0  0  0  0  0  0  0  0
    6.9560   -0.4720   22.6690 H   0  0  0  0  0  0  0  0  0  0  0  0
   16.4730    5.2870   24.1030 H   0  0  0  0  0  0  0  0  0  0  0  0
  8 38  1  0  0  0  0
  8 23  2  0  0  0  0
  9 23  1  0  0  0  0
  1  8  1  0  0  0  0
  9 39  1  0  0  0  0
  9 13  2  0  0  0  0
  1 31  1  0  0  0  0
  1 10  2  0  0  0  0
 10 13  1  0  0  0  0
 13 24  1  0  0  0  0
 10 19  1  0  0  0  0
 18 25  2  0  0  0  0
 18 24  1  0  0  0  0
 24 48  1  0  0  0  0
 16 29  1  0  0  0  0
 18 20  1  0  0  0  0
 21 46  1  0  0  0  0
 21 45  1  0  0  0  0
 22 47  1  0  0  0  0
 19 41  1  0  0  0  0
 19 42  1  0  0  0  0
 19 40  1  0  0  0  0
  4 34  1  0  0  0  0
  3 33  1  0  0  0  0
  4 16  2  0  0  0  0
  6 16  1  0  0  0  0
  4 11  1  0  0  0  0
 21 22  1  0  0  0  0
 21 27  1  0  0  0  0
  6 36  1  0  0  0  0
  6 14  2  0  0  0  0
 11 20  1  0  0  0  0
 20 43  1  0  0  0  0
 20 44  1  0  0  0  0
 22 26  1  0  0  0  0
 12 22  1  0  0  0  0
  2 11  2  0  0  0  0
  2 14  1  0  0  0  0
 14 27  1  0  0  0  0
  2 32  1  0  0  0  0
  3 12  2  0  0  0  0
  3 15  1  0  0  0  0
 26 49  1  0  0  0  0
 15 28  1  0  0  0  0
  5 12  1  0  0  0  0
  7 15  2  0  0  0  0
  5 35  1  0  0  0  0
  5 17  2  0  0  0  0
  7 17  1  0  0  0  0
  7 37  1  0  0  0  0
 17 30  1  0  0  0  0
M  END
> <CID>
EN300-1926690

> <SMILES>
Cc1ccncc1NC(=O)Cc2cc(cc(c2)Cl)OC[C@@H](c3cc(cc(c3)Cl)F)O

> <RUN>
RUN2350

> <DDG (kcal/mol)>
-0.02

> <dDDG (kcal/mol)>
0.21

$$$$
EN300-50577
  -OEChem-08252008263D

 48 51  0     0  0  0  0  0  0999 V2000
   10.0560    1.0990   29.6490 C   0  0  0  0  0  0  0  0  0  0  0  0
    9.8130    2.4310   30.1490 C   0  0  0  0  0  0  0  0  0  0  0  0
    9.5820    0.8460   28.3400 C   0  0  0  0  0  0  0  0  0  0  0  0
    9.0300    3.3000   29.3960 C   0  0  0  0  0  0  0  0  0  0  0  0
    6.6890    2.7880   18.9740 C   0  0  0  0  0  0  0  0  0  0  0  0
    9.3590   -1.1050   23.0190 C   0  0  0  0  0  0  0  0  0  0  0  0
   11.1750   -1.7110   21.5470 C   0  0  0  0  0  0  0  0  0  0  0  0
   11.5490   -0.2960   23.4190 C   0  0  0  0  0  0  0  0  0  0  0  0
    6.3520    2.5320   17.6370 C   0  0  0  0  0  0  0  0  0  0  0  0
    7.5250    0.6080   17.7730 C   0  0  0  0  0  0  0  0  0  0  0  0
    7.5660    2.7580   25.9650 C   0  0  0  0  0  0  0  0  0  0  0  0
    8.8750    1.7780   27.6240 C   0  0  0  0  0  0  0  0  0  0  0  0
    7.2120    1.8530   19.7800 C   0  0  0  0  0  0  0  0  0  0  0  0
    9.8620   -1.7230   21.8710 C   0  0  0  0  0  0  0  0  0  0  0  0
    8.3310    1.6650   26.2830 C   0  0  0  0  0  0  0  0  0  0  0  0
    7.6330    0.6730   19.1890 C   0  0  0  0  0  0  0  0  0  0  0  0
   10.2770   -0.3250   23.8200 C   0  0  0  0  0  0  0  0  0  0  0  0
    8.4970    2.9250   28.1700 C   0  0  0  0  0  0  0  0  0  0  0  0
   12.0880   -1.0100   22.3320 C   0  0  0  0  0  0  0  0  0  0  0  0
    8.2420   -1.6920   19.8070 C   0  0  0  0  0  0  0  0  0  0  0  0
    7.4750    2.2080   21.1820 C   0  0  0  0  0  0  0  0  0  0  0  0
    8.8540   -2.5230   20.9820 C   0  0  0  0  0  0  0  0  0  0  0  0
    8.4620    0.5020   25.3490 C   0  0  0  0  0  0  0  0  0  0  0  0
    6.8910    1.4350   16.9600 N   0  0  0  0  0  0  0  0  0  0  0  0
    8.2970   -0.3390   19.9020 N   0  0  0  0  0  0  0  0  0  0  0  0
    7.5580   -2.2990   18.9970 O   0  0  0  0  0  0  0  0  0  0  0  0
    9.8460    0.4350   24.9900 O   0  0  0  0  0  0  0  0  0  0  0  0
    7.5360    3.9990   27.2270 S   0  0  0  0  0  0  0  0  0  0  0  0
   13.7630   -1.0120   21.8760 Cl  0  0  0  0  0  0  0  0  0  0  0  0
   10.7070    0.4490   30.2330 H   0  0  0  0  0  0  0  0  0  0  0  0
   10.1280    2.8330   31.1060 H   0  0  0  0  0  0  0  0  0  0  0  0
    9.8710   -0.0440   27.7880 H   0  0  0  0  0  0  0  0  0  0  0  0
    8.8040    4.2870   29.7830 H   0  0  0  0  0  0  0  0  0  0  0  0
    6.4630    3.7740   19.3610 H   0  0  0  0  0  0  0  0  0  0  0  0
    8.3030   -1.2240   23.2370 H   0  0  0  0  0  0  0  0  0  0  0  0
   11.4240   -2.1820   20.6110 H   0  0  0  0  0  0  0  0  0  0  0  0
   12.2740    0.3610   23.8840 H   0  0  0  0  0  0  0  0  0  0  0  0
    5.8230    3.2910   17.0720 H   0  0  0  0  0  0  0  0  0  0  0  0
    8.0500   -0.2270   17.3150 H   0  0  0  0  0  0  0  0  0  0  0  0
    6.9890    2.9170   25.0540 H   0  0  0  0  0  0  0  0  0  0  0  0
    6.5820    2.1610   21.7990 H   0  0  0  0  0  0  0  0  0  0  0  0
    8.2120    1.5560   21.6590 H   0  0  0  0  0  0  0  0  0  0  0  0
    7.9670    3.1910   21.2030 H   0  0  0  0  0  0  0  0  0  0  0  0
    9.1950   -3.4880   20.5850 H   0  0  0  0  0  0  0  0  0  0  0  0
    8.0060   -2.7640   21.6230 H   0  0  0  0  0  0  0  0  0  0  0  0
    8.1020   -0.4190   25.8220 H   0  0  0  0  0  0  0  0  0  0  0  0
    7.8860    0.7890   24.4670 H   0  0  0  0  0  0  0  0  0  0  0  0
    8.4110   -0.0610   20.8770 H   0  0  0  0  0  0  0  0  0  0  0  0
  9 24  2  0  0  0  0
 10 24  1  0  0  0  0
  9 38  1  0  0  0  0
 10 39  1  0  0  0  0
  5  9  1  0  0  0  0
 10 16  2  0  0  0  0
  5 34  1  0  0  0  0
  5 13  2  0  0  0  0
 20 26  2  0  0  0  0
 13 16  1  0  0  0  0
 16 25  1  0  0  0  0
 13 21  1  0  0  0  0
 20 25  1  0  0  0  0
 20 22  1  0  0  0  0
 25 48  1  0  0  0  0
 22 44  1  0  0  0  0
  7 36  1  0  0  0  0
 22 45  1  0  0  0  0
 14 22  1  0  0  0  0
 21 43  1  0  0  0  0
 21 42  1  0  0  0  0
 21 41  1  0  0  0  0
  7 14  2  0  0  0  0
  7 19  1  0  0  0  0
  6 14  1  0  0  0  0
 19 29  1  0  0  0  0
  8 19  2  0  0  0  0
  6 35  1  0  0  0  0
  6 17  2  0  0  0  0
  8 17  1  0  0  0  0
  8 37  1  0  0  0  0
 17 27  1  0  0  0  0
 23 47  1  0  0  0  0
 23 27  1  0  0  0  0
 11 40  1  0  0  0  0
 23 46  1  0  0  0  0
 15 23  1  0  0  0  0
 11 15  2  0  0  0  0
 11 28  1  0  0  0  0
 12 15  1  0  0  0  0
 18 28  1  0  0  0  0
 12 18  2  0  0  0  0
  3 12  1  0  0  0  0
  3 32  1  0  0  0  0
  4 18  1  0  0  0  0
  1  3  2  0  0  0  0
  4 33  1  0  0  0  0
  2  4  2  0  0  0  0
  1  2  1  0  0  0  0
  1 30  1  0  0  0  0
  2 31  1  0  0  0  0
M  END
> <CID>
EN300-50577

> <SMILES>
Cc1ccncc1NC(=O)Cc2cc(cc(c2)Cl)OCc3csc4c3cccc4

> <RUN>
RUN55

> <DDG (kcal/mol)>
-0.01

> <dDDG (kcal/mol)>
0.11

$$$$
EN300-1613316
  -OEChem-08252008263D

 48 51  0     0  0  0  0  0  0999 V2000
    4.4860    1.6570   20.2060 C   0  0  0  0  0  0  0  0  0  0  0  0
   11.8950    1.7630   23.1510 C   0  0  0  0  0  0  0  0  0  0  0  0
   11.9450   -0.4450   22.3340 C   0  0  0  0  0  0  0  0  0  0  0  0
   13.9460    0.9290   22.2270 C   0  0  0  0  0  0  0  0  0  0  0  0
    4.7930    1.5950   18.8580 C   0  0  0  0  0  0  0  0  0  0  0  0
    6.9560    0.9510   19.4650 C   0  0  0  0  0  0  0  0  0  0  0  0
    5.3540    1.2120   21.2120 C   0  0  0  0  0  0  0  0  0  0  0  0
   11.2110    0.5900   22.8230 C   0  0  0  0  0  0  0  0  0  0  0  0
    6.6270    0.8050   20.8490 C   0  0  0  0  0  0  0  0  0  0  0  0
   13.2690    1.9860   22.8350 C   0  0  0  0  0  0  0  0  0  0  0  0
   13.3350   -0.2990   22.0440 C   0  0  0  0  0  0  0  0  0  0  0  0
   13.1030    7.0160   25.3360 C   0  0  0  0  0  0  0  0  0  0  0  0
   13.4300    5.5740   23.7430 C   0  0  0  0  0  0  0  0  0  0  0  0
    8.8360    0.9480   21.9010 C   0  0  0  0  0  0  0  0  0  0  0  0
   12.2980    7.6440   26.4280 C   0  0  0  0  0  0  0  0  0  0  0  0
   10.9500    6.8890   26.1120 C   0  0  0  0  0  0  0  0  0  0  0  0
   11.0840    5.9420   24.9020 C   0  0  0  0  0  0  0  0  0  0  0  0
    4.9150    1.0140   22.6050 C   0  0  0  0  0  0  0  0  0  0  0  0
    9.7070    0.5170   23.0600 C   0  0  0  0  0  0  0  0  0  0  0  0
   13.1920    4.4480   22.7470 C   0  0  0  0  0  0  0  0  0  0  0  0
    6.0520    1.2470   18.4820 N   0  0  0  0  0  0  0  0  0  0  0  0
   14.2600    7.2860   24.8270 N   0  0  0  0  0  0  0  0  0  0  0  0
   14.4780    6.3790   23.8110 N   0  0  0  0  0  0  0  0  0  0  0  0
   12.5390    5.9890   24.7210 N   0  0  0  0  0  0  0  0  0  0  0  0
    7.5930    0.3610   21.7410 N   0  0  0  0  0  0  0  0  0  0  0  0
    9.2760    1.8220   21.1700 O   0  0  0  0  0  0  0  0  0  0  0  0
   13.8180    3.2250   23.1550 O   0  0  0  0  0  0  0  0  0  0  0  0
   14.3520   -1.6130   21.3040 Cl  0  0  0  0  0  0  0  0  0  0  0  0
    3.5100    1.9800   20.5630 H   0  0  0  0  0  0  0  0  0  0  0  0
   11.3550    2.6220   23.5430 H   0  0  0  0  0  0  0  0  0  0  0  0
   11.4940   -1.4250   22.1830 H   0  0  0  0  0  0  0  0  0  0  0  0
   14.9920    1.1170   22.0490 H   0  0  0  0  0  0  0  0  0  0  0  0
    4.0600    1.9510   18.1400 H   0  0  0  0  0  0  0  0  0  0  0  0
    7.8940    0.6190   19.0240 H   0  0  0  0  0  0  0  0  0  0  0  0
   12.6310    7.3260   27.4260 H   0  0  0  0  0  0  0  0  0  0  0  0
   12.1580    8.7020   26.1760 H   0  0  0  0  0  0  0  0  0  0  0  0
   10.6000    6.4060   27.0300 H   0  0  0  0  0  0  0  0  0  0  0  0
   10.1610    7.6270   25.9330 H   0  0  0  0  0  0  0  0  0  0  0  0
   10.5290    5.0100   25.0680 H   0  0  0  0  0  0  0  0  0  0  0  0
   10.5660    6.2650   23.9960 H   0  0  0  0  0  0  0  0  0  0  0  0
    5.6570    1.4480   23.2820 H   0  0  0  0  0  0  0  0  0  0  0  0
    3.9710    1.5630   22.6960 H   0  0  0  0  0  0  0  0  0  0  0  0
    4.7580   -0.0120   22.9490 H   0  0  0  0  0  0  0  0  0  0  0  0
    9.4220   -0.5130   23.2890 H   0  0  0  0  0  0  0  0  0  0  0  0
    9.3350    0.9790   23.9800 H   0  0  0  0  0  0  0  0  0  0  0  0
   12.1230    4.2310   22.6340 H   0  0  0  0  0  0  0  0  0  0  0  0
   13.6330    4.7170   21.7780 H   0  0  0  0  0  0  0  0  0  0  0  0
    7.3160   -0.2340   22.5210 H   0  0  0  0  0  0  0  0  0  0  0  0
  5 33  1  0  0  0  0
  5 21  2  0  0  0  0
  6 21  1  0  0  0  0
  1  5  1  0  0  0  0
  6 34  1  0  0  0  0
  6  9  2  0  0  0  0
  1 29  1  0  0  0  0
  1  7  2  0  0  0  0
  7  9  1  0  0  0  0
  9 25  1  0  0  0  0
 14 26  2  0  0  0  0
  7 18  1  0  0  0  0
 11 28  1  0  0  0  0
 14 25  1  0  0  0  0
 25 48  1  0  0  0  0
 20 47  1  0  0  0  0
 14 19  1  0  0  0  0
  4 11  2  0  0  0  0
  3 11  1  0  0  0  0
  4 32  1  0  0  0  0
  3 31  1  0  0  0  0
  4 10  1  0  0  0  0
  3  8  2  0  0  0  0
 18 42  1  0  0  0  0
 18 43  1  0  0  0  0
 18 41  1  0  0  0  0
 20 46  1  0  0  0  0
 20 27  1  0  0  0  0
 13 20  1  0  0  0  0
  8 19  1  0  0  0  0
  2  8  1  0  0  0  0
  2 10  2  0  0  0  0
 10 27  1  0  0  0  0
 19 44  1  0  0  0  0
 19 45  1  0  0  0  0
  2 30  1  0  0  0  0
 13 23  2  0  0  0  0
 13 24  1  0  0  0  0
 22 23  1  0  0  0  0
 17 40  1  0  0  0  0
 17 24  1  0  0  0  0
 12 24  1  0  0  0  0
 12 22  2  0  0  0  0
 17 39  1  0  0  0  0
 16 17  1  0  0  0  0
 12 15  1  0  0  0  0
 16 38  1  0  0  0  0
 15 16  1  0  0  0  0
 16 37  1  0  0  0  0
 15 36  1  0  0  0  0
 15 35  1  0  0  0  0
M  END
> <CID>
EN300-1613316

> <SMILES>
Cc1ccncc1NC(=O)Cc2cc(cc(c2)Cl)OCc3nnc4n3CCC4

> <RUN>
RUN357

> <DDG (kcal/mol)>
-0.00

> <dDDG (kcal/mol)>
0.13

$$$$
