CHR-SOS-e96-1
 OpenBabel03242009303D

 49 51  0  0  0  0  0  0  0  0999 V2000
    7.4590    0.3038   24.5899 C   0  0  0  0  0  0  0  0  0  0  0  0
    5.3076   -4.3675   27.8076 C   0  0  0  0  0  0  0  0  0  0  0  0
    8.7896   -0.0483   24.8159 C   0  0  0  0  0  0  0  0  0  0  0  0
    6.3632   -3.5047   27.5346 C   0  0  0  0  0  0  0  0  0  0  0  0
    6.5694   -0.6330   24.0638 C   0  0  0  0  0  0  0  0  0  0  0  0
    8.3411   -2.2738   23.9896 C   0  0  0  0  0  0  0  0  0  0  0  0
    5.5203   -5.7262   27.6388 C   0  0  0  0  0  0  0  0  0  0  0  0
    7.6930   -5.3939   26.9699 C   0  0  0  0  0  0  0  0  0  0  0  0
    9.2307   -1.3370   24.5157 C   0  0  0  0  0  0  0  0  0  0  0  0
    7.5820   -4.0196   27.1072 C   0  0  0  0  0  0  0  0  0  0  0  0
    7.0104   -1.9218   23.7637 C   0  0  0  0  0  0  0  0  0  0  0  0
    9.9457   -3.5322   26.3879 C   0  0  0  0  0  0  0  0  0  0  0  0
   12.2970   -1.0706   22.2773 C   0  0  0  0  0  0  0  0  0  0  0  0
   11.4247   -2.3181   22.3515 C   0  0  0  0  0  0  0  0  0  0  0  0
   11.8090    0.0179   23.2257 C   0  0  0  0  0  0  0  0  0  0  0  0
   11.2616   -2.8131   23.7919 C   0  0  0  0  0  0  0  0  0  0  0  0
   11.6776   -0.5088   24.6557 C   0  0  0  0  0  0  0  0  0  0  0  0
   10.7165   -1.7293   24.7683 C   0  0  0  0  0  0  0  0  0  0  0  0
   10.8066   -2.2980   26.2044 C   0  0  0  0  0  0  0  0  0  0  0  0
    6.6900   -6.2636   27.2256 N   0  0  0  0  0  0  0  0  0  0  0  0
    6.0854   -2.8147   21.4287 N   0  0  0  0  0  0  0  0  0  0  0  0
    8.6745   -3.1666   26.8214 N   0  0  0  0  0  0  0  0  0  0  0  0
   10.3621   -4.6652   26.1702 O   0  0  0  0  0  0  0  0  0  0  0  0
    6.3929   -4.4262   23.4173 O   0  0  0  0  0  0  0  0  0  0  0  0
    4.5446   -2.7155   23.4910 O   0  0  0  0  0  0  0  0  0  0  0  0
    5.8968   -3.0933   23.1040 S   0  0  0  0  0  0  0  0  0  0  0  0
    7.1153    1.3071   24.8243 H   0  0  0  0  0  0  0  0  0  0  0  0
    4.3487   -3.9884   28.1420 H   0  0  0  0  0  0  0  0  0  0  0  0
    9.4754    0.6879   25.2270 H   0  0  0  0  0  0  0  0  0  0  0  0
    6.2253   -2.4337   27.6582 H   0  0  0  0  0  0  0  0  0  0  0  0
    5.5351   -0.3475   23.8914 H   0  0  0  0  0  0  0  0  0  0  0  0
    8.6862   -3.2783   23.7563 H   0  0  0  0  0  0  0  0  0  0  0  0
    4.7285   -6.4408   27.8378 H   0  0  0  0  0  0  0  0  0  0  0  0
    8.6191   -5.8553   26.6402 H   0  0  0  0  0  0  0  0  0  0  0  0
   13.3307   -1.3360   22.5314 H   0  0  0  0  0  0  0  0  0  0  0  0
   12.3106   -0.6888   21.2502 H   0  0  0  0  0  0  0  0  0  0  0  0
   10.4407   -2.1041   21.9174 H   0  0  0  0  0  0  0  0  0  0  0  0
   11.8704   -3.1123   21.7415 H   0  0  0  0  0  0  0  0  0  0  0  0
   12.5148    0.8564   23.2102 H   0  0  0  0  0  0  0  0  0  0  0  0
   10.8476    0.4115   22.8756 H   0  0  0  0  0  0  0  0  0  0  0  0
   10.5930   -3.6840   23.7894 H   0  0  0  0  0  0  0  0  0  0  0  0
   12.2362   -3.1710   24.1505 H   0  0  0  0  0  0  0  0  0  0  0  0
   12.6733   -0.7862   25.0267 H   0  0  0  0  0  0  0  0  0  0  0  0
   11.3206    0.3067   25.2982 H   0  0  0  0  0  0  0  0  0  0  0  0
   10.4833   -1.5285   26.9076 H   0  0  0  0  0  0  0  0  0  0  0  0
   11.8465   -2.5523   26.4168 H   0  0  0  0  0  0  0  0  0  0  0  0
    5.7000   -1.9462   21.0382 H   0  0  0  0  0  0  0  0  0  0  0  0
    6.9619   -3.1161   20.9856 H   0  0  0  0  0  0  0  0  0  0  0  0
    8.4961   -2.1729   26.9519 H   0  0  0  0  0  0  0  0  0  0  0  0
  1  3  1  0  0  0  0
  1  5  2  0  0  0  0
  1 27  1  0  0  0  0
  2  4  2  0  0  0  0
  2  7  1  0  0  0  0
  2 28  1  0  0  0  0
  3  9  2  0  0  0  0
  3 29  1  0  0  0  0
  4 10  1  0  0  0  0
  4 30  1  0  0  0  0
  5 11  1  0  0  0  0
  5 31  1  0  0  0  0
  6  9  1  0  0  0  0
  6 11  2  0  0  0  0
  6 32  1  0  0  0  0
  7 20  2  0  0  0  0
  7 33  1  0  0  0  0
  8 10  2  0  0  0  0
  8 20  1  0  0  0  0
  8 34  1  0  0  0  0
  9 18  1  0  0  0  0
 10 22  1  0  0  0  0
 11 26  1  0  0  0  0
 12 19  1  0  0  0  0
 12 22  1  0  0  0  0
 12 23  2  0  0  0  0
 13 14  1  0  0  0  0
 13 15  1  0  0  0  0
 13 35  1  0  0  0  0
 13 36  1  0  0  0  0
 14 16  1  0  0  0  0
 14 37  1  0  0  0  0
 14 38  1  0  0  0  0
 15 17  1  0  0  0  0
 15 39  1  0  0  0  0
 15 40  1  0  0  0  0
 16 18  1  0  0  0  0
 16 41  1  0  0  0  0
 16 42  1  0  0  0  0
 17 18  1  0  0  0  0
 17 43  1  0  0  0  0
 17 44  1  0  0  0  0
 18 19  1  0  0  0  0
 19 45  1  0  0  0  0
 19 46  1  0  0  0  0
 21 26  1  0  0  0  0
 21 47  1  0  0  0  0
 21 48  1  0  0  0  0
 22 49  1  0  0  0  0
 24 26  2  0  0  0  0
 25 26  2  0  0  0  0
M  END
>  <Chemgauss4 Score>
-5.38767290115356

>  <Number of Confs>
200

$$$$
