SAL-INS-1ea-4
 OpenBabel03242009303D

 51 53  0  0  1  0  0  0  0  0999 V2000
    6.9714   -5.8446   22.6367 C   0  0  0  0  0  0  0  0  0  0  0  0
    5.8751   -5.8270   23.4989 C   0  0  0  0  0  0  0  0  0  0  0  0
    8.2658   -5.8831   23.1550 C   0  0  0  0  0  0  0  0  0  0  0  0
    6.0732   -5.8478   24.8794 C   0  0  0  0  0  0  0  0  0  0  0  0
    9.0995    0.5964   23.0469 C   0  0  0  0  0  0  0  0  0  0  0  0
    7.8225   -1.3521   23.6870 C   0  0  0  0  0  0  0  0  0  0  0  0
    8.0077    1.4107   23.3475 C   0  0  0  0  0  0  0  0  0  0  0  0
    6.7307   -0.5378   23.9876 C   0  0  0  0  0  0  0  0  0  0  0  0
    8.4639   -5.9039   24.5356 C   0  0  0  0  0  0  0  0  0  0  0  0
    7.3676   -5.8862   25.3978 C   0  0  0  0  0  0  0  0  0  0  0  0
    9.0069   -0.7851   23.2165 C   0  0  0  0  0  0  0  0  0  0  0  0
    6.8233    0.8437   23.8179 C   0  0  0  0  0  0  0  0  0  0  0  0
    8.5921   -1.9423   28.0305 C   0  0  0  0  0  0  0  0  0  0  0  0
   10.0354   -0.8635   26.2668 C   0  0  0  0  0  0  0  0  0  0  0  0
   11.2068   -1.2179   25.3640 C   0  0  0  0  0  0  0  0  0  0  0  0
    9.9974   -3.3359   26.5437 C   0  0  0  0  0  0  0  0  0  0  0  0
   10.0480   -3.4327   25.0160 C   0  0  2  0  0  0  0  0  0  0  0  0
    9.8702   -5.9451   25.0779 C   0  0  0  0  0  0  0  0  0  0  0  0
    8.1621   -0.5493   28.4223 C   0  0  0  0  0  0  0  0  0  0  0  0
   10.6878   -4.7507   24.5895 C   0  0  0  0  0  0  0  0  0  0  0  0
    9.5059   -2.0290   26.9791 N   0  0  0  0  0  0  0  0  0  0  0  0
   10.8315   -2.3022   24.4161 N   0  0  0  0  0  0  0  0  0  0  0  0
    8.1383   -2.9141   28.6387 O   0  0  0  0  0  0  0  0  0  0  0  0
    9.8996   -2.9673   22.1146 O   0  0  0  0  0  0  0  0  0  0  0  0
   11.4368   -0.9796   22.2987 O   0  0  0  0  0  0  0  0  0  0  0  0
    7.5436   -5.9053   26.7488 O   0  0  0  0  0  0  0  0  0  0  0  0
   10.3877   -1.8149   22.8363 S   0  0  0  0  0  0  0  0  0  0  0  0
    5.4763    1.8484   24.1889 Cl  0  0  0  0  0  0  0  0  0  0  0  0
    9.2715   -0.0146   29.6797 Cl  0  0  0  0  0  0  0  0  0  0  0  0
    6.8176   -5.8279   21.5615 H   0  0  0  0  0  0  0  0  0  0  0  0
    4.8675   -5.7961   23.0949 H   0  0  0  0  0  0  0  0  0  0  0  0
    9.1134   -5.8951   22.4748 H   0  0  0  0  0  0  0  0  0  0  0  0
    5.2152   -5.8338   25.5461 H   0  0  0  0  0  0  0  0  0  0  0  0
   10.0175    1.0485   22.6810 H   0  0  0  0  0  0  0  0  0  0  0  0
    7.7396   -2.4271   23.8228 H   0  0  0  0  0  0  0  0  0  0  0  0
    8.0942    2.4856   23.2104 H   0  0  0  0  0  0  0  0  0  0  0  0
    5.8141   -0.9935   24.3534 H   0  0  0  0  0  0  0  0  0  0  0  0
   10.3522   -0.1393   27.0382 H   0  0  0  0  0  0  0  0  0  0  0  0
    9.2590   -0.3589   25.6733 H   0  0  0  0  0  0  0  0  0  0  0  0
   11.5421   -0.3333   24.8034 H   0  0  0  0  0  0  0  0  0  0  0  0
   12.0422   -1.5560   25.9927 H   0  0  0  0  0  0  0  0  0  0  0  0
    9.3710   -4.1358   26.9531 H   0  0  0  0  0  0  0  0  0  0  0  0
   10.9995   -3.4543   26.9761 H   0  0  0  0  0  0  0  0  0  0  0  0
    9.0226   -3.3988   24.6025 H   0  0  0  0  0  0  0  0  0  0  0  0
    9.8441   -5.9570   26.1753 H   0  0  0  0  0  0  0  0  0  0  0  0
   10.3574   -6.8809   24.7749 H   0  0  0  0  0  0  0  0  0  0  0  0
    7.1509   -0.5898   28.8109 H   0  0  0  0  0  0  0  0  0  0  0  0
    8.2397    0.0988   27.5570 H   0  0  0  0  0  0  0  0  0  0  0  0
   11.7052   -4.7939   24.9907 H   0  0  0  0  0  0  0  0  0  0  0  0
   10.7710   -4.7644   23.4983 H   0  0  0  0  0  0  0  0  0  0  0  0
    6.6845   -5.8883   27.1987 H   0  0  0  0  0  0  0  0  0  0  0  0
  1  2  1  0  0  0  0
  1  3  2  0  0  0  0
  1 30  1  0  0  0  0
  2  4  2  0  0  0  0
  2 31  1  0  0  0  0
  3  9  1  0  0  0  0
  3 32  1  0  0  0  0
  4 10  1  0  0  0  0
  4 33  1  0  0  0  0
  5  7  2  0  0  0  0
  5 11  1  0  0  0  0
  5 34  1  0  0  0  0
  6  8  1  0  0  0  0
  6 11  2  0  0  0  0
  6 35  1  0  0  0  0
  7 12  1  0  0  0  0
  7 36  1  0  0  0  0
  8 12  2  0  0  0  0
  8 37  1  0  0  0  0
  9 10  2  0  0  0  0
  9 18  1  0  0  0  0
 10 26  1  0  0  0  0
 11 27  1  0  0  0  0
 12 28  1  0  0  0  0
 13 19  1  0  0  0  0
 13 21  1  0  0  0  0
 13 23  2  0  0  0  0
 14 15  1  0  0  0  0
 14 21  1  0  0  0  0
 14 38  1  0  0  0  0
 14 39  1  0  0  0  0
 15 22  1  0  0  0  0
 15 40  1  0  0  0  0
 15 41  1  0  0  0  0
 16 17  1  0  0  0  0
 16 21  1  0  0  0  0
 16 42  1  0  0  0  0
 16 43  1  0  0  0  0
 17 20  1  0  0  0  0
 17 22  1  0  0  0  0
 17 44  1  6  0  0  0
 18 20  1  0  0  0  0
 18 45  1  0  0  0  0
 18 46  1  0  0  0  0
 19 29  1  0  0  0  0
 19 47  1  0  0  0  0
 19 48  1  0  0  0  0
 20 49  1  0  0  0  0
 20 50  1  0  0  0  0
 22 27  1  0  0  0  0
 24 27  2  0  0  0  0
 25 27  2  0  0  0  0
 26 51  1  0  0  0  0
M  END
>  <Chemgauss4 Score>
-4.56927394866943

>  <Number of Confs>
200

$$$$
