ver_1.2
  -OEChem-05172015543D

 17 17  0     0  0  0  0  0  0999 V2000
   10.0507   -1.9715   22.6987 C   0  0  0  0  0  0  0  0  0  0  0  0
    9.2890   -3.1077   22.9716 C   0  0  0  0  0  0  0  0  0  0  0  0
   11.2155   -1.7218   23.4245 C   0  0  0  0  0  0  0  0  0  0  0  0
   10.8566   -3.7444   24.6962 C   0  0  0  0  0  0  0  0  0  0  0  0
    9.6919   -3.9941   23.9703 C   0  0  0  0  0  0  0  0  0  0  0  0
   11.6184   -2.6082   24.4232 C   0  0  0  0  0  0  0  0  0  0  0  0
    6.6383   -4.8994   23.2567 C   0  0  0  0  0  0  0  0  0  0  0  0
    8.3765   -6.3899   22.1524 C   0  0  0  0  0  0  0  0  0  0  0  0
    8.8723   -5.2176   24.2625 C   0  0  0  0  0  0  0  0  0  0  0  0
    6.3826   -4.0032   24.4519 C   0  0  0  0  0  0  0  0  0  0  0  0
   12.8635   -2.3407   25.1998 C   0  0  0  0  0  0  0  0  0  0  0  0
    7.9065   -5.4925   23.2055 N   0  0  0  0  0  0  0  0  0  0  0  0
    5.7747   -5.0829   22.3952 O   0  0  0  0  0  0  0  0  0  0  0  0
   13.5060   -1.1947   24.8261 F   0  0  0  0  0  0  0  0  0  0  0  0
   12.6524   -2.2089   26.5427 F   0  0  0  0  0  0  0  0  0  0  0  0
   13.7871   -3.3371   25.0703 F   0  0  0  0  0  0  0  0  0  0  0  0
    4.7331   -3.3495   24.4081 Cl  0  0  0  0  0  0  0  0  0  0  0  0
  1  2  2  0  0  0  0
  1  3  1  0  0  0  0
  2  5  1  0  0  0  0
  3  6  2  0  0  0  0
  4  5  2  0  0  0  0
  4  6  1  0  0  0  0
  5  9  1  0  0  0  0
  6 11  1  0  0  0  0
  7 10  1  0  0  0  0
  7 12  1  0  0  0  0
  7 13  2  0  0  0  0
  8 12  1  0  0  0  0
  9 12  1  0  0  0  0
 10 17  1  0  0  0  0
 11 14  1  0  0  0  0
 11 15  1  0  0  0  0
 11 16  1  0  0  0  0
M  END
> <ref_mols>
a comma separated list of the fragments that inspired the design of the new molecule (codes as they appear in fragalysis - e.g. x0104_0,x0692_0)

> <original SMILES>
the original SMILES of the compound before any computation was carried out

> <Chemgauss4>
The [Chemgauss4 docking score](https://docs.eyesopen.com/toolkits/cpp/dockingtk/scoring.html#section-scoring-chemgauss4) of the best scoring pose and protonation/tautomeric state to any Mpro structure; more negative is better, and fragments score ~ -10

> <ref_pdb>
The name of the fragment (and corresponding Mpro fragment structure) with the best scoring hybrid docking pose

> <ref_url>
https://discuss.postera.ai/t/ensemble-oedocking-ensemble-hybrid-docking-to-fragment-bound-mpro-structures/1291

> <submitter_name>
John D. Chodera

> <submitter_email>
john.chodera@choderalab.org

> <submitter_institution>
MSKCC

> <generation_date>
2020-05-17

> <method>
ensemble-hybrid-oedocking

$$$$
x0500
  -OEChem-05172015543D

 16 17  0     0  0  0  0  0  0999 V2000
   13.9446   -1.8336   22.6818 C   0  0  0  0  0  0  0  0  0  0  0  0
   13.7286   -1.5103   24.0214 C   0  0  0  0  0  0  0  0  0  0  0  0
   12.9869   -1.5060   21.7221 C   0  0  0  0  0  0  0  0  0  0  0  0
   12.5548   -0.8596   24.4012 C   0  0  0  0  0  0  0  0  0  0  0  0
    7.4080    0.5739   20.0685 C   0  0  0  0  0  0  0  0  0  0  0  0
    7.1940    0.5595   18.6772 C   0  0  0  0  0  0  0  0  0  0  0  0
   11.8130   -0.8553   22.1019 C   0  0  0  0  0  0  0  0  0  0  0  0
   11.5969   -0.5321   23.4415 C   0  0  0  0  0  0  0  0  0  0  0  0
    8.6564    0.0243   20.2295 C   0  0  0  0  0  0  0  0  0  0  0  0
    9.4804   -0.2515   21.4539 C   0  0  0  0  0  0  0  0  0  0  0  0
    8.2239    0.0420   18.0023 N   0  0  0  0  0  0  0  0  0  0  0  0
    9.0972   -0.2739   18.9737 N   0  0  0  0  0  0  0  0  0  0  0  0
   10.8460   -0.5253   21.1295 N   0  0  0  0  0  0  0  0  0  0  0  0
   10.4723    0.0930   23.8176 F   0  0  0  0  0  0  0  0  0  0  0  0
    9.9798   -0.6917   18.7060 H   0  0  0  0  0  0  0  0  0  0  0  0
   11.1544   -0.4888   20.1763 H   0  0  0  0  0  0  0  0  0  0  0  0
  1  2  1  0  0  0  0
  1  3  2  0  0  0  0
  2  4  2  0  0  0  0
  3  7  1  0  0  0  0
  4  8  1  0  0  0  0
  5  6  1  0  0  0  0
  5  9  2  0  0  0  0
  6 11  2  0  0  0  0
  7  8  2  0  0  0  0
  7 13  1  0  0  0  0
  8 14  1  0  0  0  0
  9 10  1  0  0  0  0
  9 12  1  0  0  0  0
 10 13  1  0  0  0  0
 11 12  1  0  0  0  0
 12 15  1  0  0  0  0
 13 16  1  0  0  0  0
M  END
> <ref_mols>
x0500_0

> <original SMILES>
FC=1C=CC=CC1NCC=2C=CNN2

> <Chemgauss4>
-11.881923

> <ref_pdb>
x0678_0

$$$$
x2849
  -OEChem-05172015543D

 22 24  0     0  0  0  0  0  0999 V2000
   14.1326   -1.7377   23.0101 C   0  0  0  0  0  0  0  0  0  0  0  0
   13.0980   -2.1701   22.1805 C   0  0  0  0  0  0  0  0  0  0  0  0
   13.8606   -0.8762   24.0729 C   0  0  0  0  0  0  0  0  0  0  0  0
    5.4859    0.1035   18.8514 C   0  0  0  0  0  0  0  0  0  0  0  0
   11.7914   -1.7410   22.4135 C   0  0  0  0  0  0  0  0  0  0  0  0
   12.5540   -0.4470   24.3060 C   0  0  0  0  0  0  0  0  0  0  0  0
    6.1263    0.2900   20.0714 C   0  0  0  0  0  0  0  0  0  0  0  0
    6.2687    0.0507   17.7094 C   0  0  0  0  0  0  0  0  0  0  0  0
    8.2026    0.3494   18.9132 C   0  0  0  0  0  0  0  0  0  0  0  0
   11.5194   -0.8794   23.4763 C   0  0  0  0  0  0  0  0  0  0  0  0
    7.5104    0.4164   20.1116 C   0  0  0  0  0  0  0  0  0  0  0  0
    9.5608    0.7496   21.5351 C   0  0  0  0  0  0  0  0  0  0  0  0
    9.0031   -2.4764   24.4275 C   0  0  0  0  0  0  0  0  0  0  0  0
    9.3615   -1.6912   25.6876 C   0  0  0  0  0  0  0  0  0  0  0  0
    9.0473   -1.4654   23.2826 C   0  0  0  0  0  0  0  0  0  0  0  0
    9.6657   -0.2691   25.2178 C   0  0  0  0  0  0  0  0  0  0  0  0
   10.0802   -0.4060   23.7335 C   0  0  0  0  0  0  0  0  0  0  0  0
    9.8592    0.9335   23.0109 C   0  0  0  0  0  0  0  0  0  0  0  0
    7.6154    0.1693   17.7088 N   0  0  0  0  0  0  0  0  0  0  0  0
    8.1903    0.6074   21.3379 N   0  0  0  0  0  0  0  0  0  0  0  0
   10.4421    0.7369   20.6821 O   0  0  0  0  0  0  0  0  0  0  0  0
    7.5960    0.6432   22.1636 H   0  0  0  0  0  0  0  0  0  0  0  0
  1  2  1  0  0  0  0
  1  3  2  0  0  0  0
  2  5  2  0  0  0  0
  3  6  1  0  0  0  0
  4  7  2  0  0  0  0
  4  8  1  0  0  0  0
  5 10  1  0  0  0  0
  6 10  2  0  0  0  0
  7 11  1  0  0  0  0
  8 19  2  0  0  0  0
  9 11  2  0  0  0  0
  9 19  1  0  0  0  0
 10 17  1  0  0  0  0
 11 20  1  0  0  0  0
 12 18  1  0  0  0  0
 12 20  1  0  0  0  0
 12 21  2  0  0  0  0
 13 14  1  0  0  0  0
 13 15  1  0  0  0  0
 14 16  1  0  0  0  0
 15 17  1  0  0  0  0
 16 17  1  0  0  0  0
 17 18  1  0  0  0  0
 20 22  1  0  0  0  0
M  END
> <ref_mols>
x2849_0

> <original SMILES>
O=C(CC1(CCCC1)C=2C=CC=CC2)NC=3C=CC=NC3

> <Chemgauss4>
-11.737092

> <ref_pdb>
x0678_0

$$$$
x0415
  -OEChem-05172015543D

 19 20  0     0  0  0  0  0  0999 V2000
   14.3903   -1.6150   24.1237 C   0  0  0  0  0  0  0  0  0  0  0  0
   14.3817   -2.2654   22.8898 C   0  0  0  0  0  0  0  0  0  0  0  0
   13.5924   -0.4885   24.3238 C   0  0  0  0  0  0  0  0  0  0  0  0
   13.5754   -1.7893   21.8560 C   0  0  0  0  0  0  0  0  0  0  0  0
    5.3049    1.2947   18.7718 C   0  0  0  0  0  0  0  0  0  0  0  0
    5.8321    1.1820   20.0421 C   0  0  0  0  0  0  0  0  0  0  0  0
    6.1069    0.8305   17.7493 C   0  0  0  0  0  0  0  0  0  0  0  0
   12.7861   -0.0123   23.2900 C   0  0  0  0  0  0  0  0  0  0  0  0
   12.7776   -0.6627   22.0561 C   0  0  0  0  0  0  0  0  0  0  0  0
    7.7327    0.2407   19.2244 C   0  0  0  0  0  0  0  0  0  0  0  0
    9.6466   -0.4822   20.6870 C   0  0  0  0  0  0  0  0  0  0  0  0
   11.9390    1.1949   23.5220 C   0  0  0  0  0  0  0  0  0  0  0  0
   11.0144   -1.1088   20.5238 C   0  0  0  0  0  0  0  0  0  0  0  0
    7.0472    0.6582   20.3057 N   0  0  0  0  0  0  0  0  0  0  0  0
    7.3307    0.2956   17.9402 N   0  0  0  0  0  0  0  0  0  0  0  0
    9.0119   -0.3155   19.4628 N   0  0  0  0  0  0  0  0  0  0  0  0
    9.2279   -0.1824   21.8011 O   0  0  0  0  0  0  0  0  0  0  0  0
   11.9964   -0.2102   21.0357 O   0  0  0  0  0  0  0  0  0  0  0  0
    9.5262   -0.6296   18.6426 H   0  0  0  0  0  0  0  0  0  0  0  0
  1  2  1  0  0  0  0
  1  3  2  0  0  0  0
  2  4  2  0  0  0  0
  3  8  1  0  0  0  0
  4  9  1  0  0  0  0
  5  6  1  0  0  0  0
  5  7  2  0  0  0  0
  6 14  2  0  0  0  0
  7 15  1  0  0  0  0
  8  9  2  0  0  0  0
  8 12  1  0  0  0  0
  9 18  1  0  0  0  0
 10 14  1  0  0  0  0
 10 15  2  0  0  0  0
 10 16  1  0  0  0  0
 11 13  1  0  0  0  0
 11 16  1  0  0  0  0
 11 17  2  0  0  0  0
 13 18  1  0  0  0  0
 16 19  1  0  0  0  0
M  END
> <ref_mols>
x0415_0

> <original SMILES>
CC=1C=CC=CC1OCC(=O)NC=2N=CC=CN2

> <Chemgauss4>
-11.622278

> <ref_pdb>
x0678_0

$$$$
x0356
  -OEChem-05172015543D

 17 18  0     0  0  0  0  0  0999 V2000
    7.2559    0.7701   19.9864 C   0  0  0  0  0  0  0  0  0  0  0  0
    7.1404    0.9361   18.5933 C   0  0  0  0  0  0  0  0  0  0  0  0
   13.8417   -0.0841   23.2182 C   0  0  0  0  0  0  0  0  0  0  0  0
    8.3158   -0.0893   20.1432 C   0  0  0  0  0  0  0  0  0  0  0  0
   12.8821    0.0960   24.1924 C   0  0  0  0  0  0  0  0  0  0  0  0
   11.7672   -1.2602   22.8780 C   0  0  0  0  0  0  0  0  0  0  0  0
    8.8895   -0.6133   21.3390 C   0  0  0  0  0  0  0  0  0  0  0  0
   13.0253    0.9344   25.3990 C   0  0  0  0  0  0  0  0  0  0  0  0
   10.6642   -2.1195   22.3310 C   0  0  0  0  0  0  0  0  0  0  0  0
    8.0541    0.2383   17.9134 N   0  0  0  0  0  0  0  0  0  0  0  0
   11.6918   -0.5774   23.9988 N   0  0  0  0  0  0  0  0  0  0  0  0
    8.7539   -0.3744   18.8834 N   0  0  0  0  0  0  0  0  0  0  0  0
    9.9901   -1.4907   21.2179 N   0  0  0  0  0  0  0  0  0  0  0  0
    8.4259   -0.3272   22.4733 O   0  0  0  0  0  0  0  0  0  0  0  0
   13.2407   -1.1388   22.0068 S   0  0  0  0  0  0  0  0  0  0  0  0
    9.5211   -0.9770   18.6122 H   0  0  0  0  0  0  0  0  0  0  0  0
   10.2978   -1.7495   20.2861 H   0  0  0  0  0  0  0  0  0  0  0  0
  1  2  1  0  0  0  0
  1  4  2  0  0  0  0
  2 10  2  0  0  0  0
  3  5  2  0  0  0  0
  3 15  1  0  0  0  0
  4  7  1  0  0  0  0
  4 12  1  0  0  0  0
  5  8  1  0  0  0  0
  5 11  1  0  0  0  0
  6  9  1  0  0  0  0
  6 11  2  0  0  0  0
  6 15  1  0  0  0  0
  7 13  1  0  0  0  0
  7 14  2  0  0  0  0
  9 13  1  0  0  0  0
 10 12  1  0  0  0  0
 12 16  1  0  0  0  0
 13 17  1  0  0  0  0
M  END
> <ref_mols>
x0356_0

> <original SMILES>
CC1=CSC(CNC(=O)C=2C=CNN2)=N1

> <Chemgauss4>
-11.435024

> <ref_pdb>
x0678_0

$$$$
x1113
  -OEChem-05172015543D

 17 18  0     0  0  0  0  0  0999 V2000
    7.2559    0.7701   19.9864 C   0  0  0  0  0  0  0  0  0  0  0  0
    7.1404    0.9361   18.5933 C   0  0  0  0  0  0  0  0  0  0  0  0
   13.8417   -0.0841   23.2182 C   0  0  0  0  0  0  0  0  0  0  0  0
    8.3158   -0.0893   20.1432 C   0  0  0  0  0  0  0  0  0  0  0  0
   12.8821    0.0960   24.1924 C   0  0  0  0  0  0  0  0  0  0  0  0
   11.7672   -1.2602   22.8780 C   0  0  0  0  0  0  0  0  0  0  0  0
    8.8895   -0.6133   21.3390 C   0  0  0  0  0  0  0  0  0  0  0  0
   13.0253    0.9344   25.3990 C   0  0  0  0  0  0  0  0  0  0  0  0
   10.6642   -2.1195   22.3310 C   0  0  0  0  0  0  0  0  0  0  0  0
    8.0541    0.2383   17.9134 N   0  0  0  0  0  0  0  0  0  0  0  0
   11.6918   -0.5774   23.9988 N   0  0  0  0  0  0  0  0  0  0  0  0
    8.7539   -0.3744   18.8834 N   0  0  0  0  0  0  0  0  0  0  0  0
    9.9901   -1.4907   21.2179 N   0  0  0  0  0  0  0  0  0  0  0  0
    8.4259   -0.3272   22.4733 O   0  0  0  0  0  0  0  0  0  0  0  0
   13.2407   -1.1388   22.0068 S   0  0  0  0  0  0  0  0  0  0  0  0
    9.5211   -0.9770   18.6122 H   0  0  0  0  0  0  0  0  0  0  0  0
   10.2978   -1.7495   20.2861 H   0  0  0  0  0  0  0  0  0  0  0  0
  1  2  1  0  0  0  0
  1  4  2  0  0  0  0
  2 10  2  0  0  0  0
  3  5  2  0  0  0  0
  3 15  1  0  0  0  0
  4  7  1  0  0  0  0
  4 12  1  0  0  0  0
  5  8  1  0  0  0  0
  5 11  1  0  0  0  0
  6  9  1  0  0  0  0
  6 11  2  0  0  0  0
  6 15  1  0  0  0  0
  7 13  1  0  0  0  0
  7 14  2  0  0  0  0
  9 13  1  0  0  0  0
 10 12  1  0  0  0  0
 12 16  1  0  0  0  0
 13 17  1  0  0  0  0
M  END
> <ref_mols>
x1113_0

> <original SMILES>
CC1=CSC(CNC(=O)C=2C=CNN2)=N1

> <Chemgauss4>
-11.435024

> <ref_pdb>
x0678_0

$$$$
x0678
  -OEChem-05172015543D

 17 18  0     0  0  0  0  0  0999 V2000
    5.6330    0.6922   19.0569 C   0  0  0  0  0  0  0  0  0  0  0  0
    6.3749    0.7023   20.2328 C   0  0  0  0  0  0  0  0  0  0  0  0
    6.2967    0.4106   17.8737 C   0  0  0  0  0  0  0  0  0  0  0  0
    8.3080    0.1640   18.9563 C   0  0  0  0  0  0  0  0  0  0  0  0
    7.7386    0.4343   20.1902 C   0  0  0  0  0  0  0  0  0  0  0  0
    9.8682    0.7610   21.4940 C   0  0  0  0  0  0  0  0  0  0  0  0
   13.7792   -0.8257   23.2428 C   0  0  0  0  0  0  0  0  0  0  0  0
   12.9803   -0.7832   21.9439 C   0  0  0  0  0  0  0  0  0  0  0  0
   13.0199   -0.1813   24.3984 C   0  0  0  0  0  0  0  0  0  0  0  0
   11.5909   -1.3947   22.1157 C   0  0  0  0  0  0  0  0  0  0  0  0
   11.6307   -0.7929   24.5712 C   0  0  0  0  0  0  0  0  0  0  0  0
   10.8009   -0.7771   23.2789 C   0  0  0  0  0  0  0  0  0  0  0  0
   10.3074    0.6325   22.9413 C   0  0  0  0  0  0  0  0  0  0  0  0
    7.6198    0.1453   17.7928 N   0  0  0  0  0  0  0  0  0  0  0  0
    8.5200    0.4376   21.3701 N   0  0  0  0  0  0  0  0  0  0  0  0
   10.6373    1.1057   20.6029 O   0  0  0  0  0  0  0  0  0  0  0  0
    8.0264    0.1708   22.2194 H   0  0  0  0  0  0  0  0  0  0  0  0
  1  2  2  0  0  0  0
  1  3  1  0  0  0  0
  2  5  1  0  0  0  0
  3 14  2  0  0  0  0
  4  5  2  0  0  0  0
  4 14  1  0  0  0  0
  5 15  1  0  0  0  0
  6 13  1  0  0  0  0
  6 15  1  0  0  0  0
  6 16  2  0  0  0  0
  7  8  1  0  0  0  0
  7  9  1  0  0  0  0
  8 10  1  0  0  0  0
  9 11  1  0  0  0  0
 10 12  1  0  0  0  0
 11 12  1  0  0  0  0
 12 13  1  0  0  0  0
 15 17  1  0  0  0  0
M  END
> <ref_mols>
x0678_0

> <original SMILES>
O=C(CC1CCCCC1)NC=2C=CC=NC2

> <Chemgauss4>
-11.355046

> <ref_pdb>
x0678_0

$$$$
x2475
  -OEChem-05172015543D

 17 18  0     0  0  0  0  0  0999 V2000
    5.7065    1.1906   18.9682 C   0  0  0  0  0  0  0  0  0  0  0  0
    6.3896    0.9267   20.1502 C   0  0  0  0  0  0  0  0  0  0  0  0
   12.1924   -1.5808   22.1343 C   0  0  0  0  0  0  0  0  0  0  0  0
   13.4705   -1.9739   22.6263 C   0  0  0  0  0  0  0  0  0  0  0  0
    6.3537    0.9258   17.7721 C   0  0  0  0  0  0  0  0  0  0  0  0
    8.2396    0.1830   18.8537 C   0  0  0  0  0  0  0  0  0  0  0  0
    7.6808    0.4132   20.1005 C   0  0  0  0  0  0  0  0  0  0  0  0
   11.5063   -0.8021   23.0401 C   0  0  0  0  0  0  0  0  0  0  0  0
   13.7126   -1.4804   23.8896 C   0  0  0  0  0  0  0  0  0  0  0  0
    9.7806    0.1817   21.4725 C   0  0  0  0  0  0  0  0  0  0  0  0
   10.1363   -0.1911   22.9031 C   0  0  0  0  0  0  0  0  0  0  0  0
    7.6071    0.4270   17.6840 N   0  0  0  0  0  0  0  0  0  0  0  0
    8.3899    0.1391   21.2675 N   0  0  0  0  0  0  0  0  0  0  0  0
   10.6331    0.4729   20.6396 O   0  0  0  0  0  0  0  0  0  0  0  0
   12.4023   -0.5477   24.4771 S   0  0  0  0  0  0  0  0  0  0  0  0
   15.1114   -1.7037   24.8543 Cl  0  0  0  0  0  0  0  0  0  0  0  0
    7.8246   -0.1285   22.0830 H   0  0  0  0  0  0  0  0  0  0  0  0
  1  2  2  0  0  0  0
  1  5  1  0  0  0  0
  2  7  1  0  0  0  0
  3  4  1  0  0  0  0
  3  8  2  0  0  0  0
  4  9  2  0  0  0  0
  5 12  2  0  0  0  0
  6  7  2  0  0  0  0
  6 12  1  0  0  0  0
  7 13  1  0  0  0  0
  8 11  1  0  0  0  0
  8 15  1  0  0  0  0
  9 15  1  0  0  0  0
  9 16  1  0  0  0  0
 10 11  1  0  0  0  0
 10 13  1  0  0  0  0
 10 14  2  0  0  0  0
 13 17  1  0  0  0  0
M  END
> <ref_mols>
x2475_0

> <original SMILES>
ClC1=CC=C(CC(=O)NC=2C=CC=NC2)S1

> <Chemgauss4>
-11.181113

> <ref_pdb>
x0678_0

$$$$
x2643
  -OEChem-05172015543D

 17 18  0     0  0  0  0  0  0999 V2000
    5.7065    1.1906   18.9682 C   0  0  0  0  0  0  0  0  0  0  0  0
    6.3896    0.9267   20.1502 C   0  0  0  0  0  0  0  0  0  0  0  0
   12.1924   -1.5808   22.1343 C   0  0  0  0  0  0  0  0  0  0  0  0
   13.4705   -1.9739   22.6263 C   0  0  0  0  0  0  0  0  0  0  0  0
    6.3537    0.9258   17.7721 C   0  0  0  0  0  0  0  0  0  0  0  0
    8.2396    0.1830   18.8537 C   0  0  0  0  0  0  0  0  0  0  0  0
    7.6808    0.4132   20.1005 C   0  0  0  0  0  0  0  0  0  0  0  0
   11.5063   -0.8021   23.0401 C   0  0  0  0  0  0  0  0  0  0  0  0
   13.7126   -1.4804   23.8896 C   0  0  0  0  0  0  0  0  0  0  0  0
    9.7806    0.1817   21.4725 C   0  0  0  0  0  0  0  0  0  0  0  0
   10.1363   -0.1911   22.9031 C   0  0  0  0  0  0  0  0  0  0  0  0
    7.6071    0.4270   17.6840 N   0  0  0  0  0  0  0  0  0  0  0  0
    8.3899    0.1391   21.2675 N   0  0  0  0  0  0  0  0  0  0  0  0
   10.6331    0.4729   20.6396 O   0  0  0  0  0  0  0  0  0  0  0  0
   12.4023   -0.5477   24.4771 S   0  0  0  0  0  0  0  0  0  0  0  0
   15.1114   -1.7037   24.8543 Cl  0  0  0  0  0  0  0  0  0  0  0  0
    7.8246   -0.1285   22.0830 H   0  0  0  0  0  0  0  0  0  0  0  0
  1  2  2  0  0  0  0
  1  5  1  0  0  0  0
  2  7  1  0  0  0  0
  3  4  1  0  0  0  0
  3  8  2  0  0  0  0
  4  9  2  0  0  0  0
  5 12  2  0  0  0  0
  6  7  2  0  0  0  0
  6 12  1  0  0  0  0
  7 13  1  0  0  0  0
  8 11  1  0  0  0  0
  8 15  1  0  0  0  0
  9 15  1  0  0  0  0
  9 16  1  0  0  0  0
 10 11  1  0  0  0  0
 10 13  1  0  0  0  0
 10 14  2  0  0  0  0
 13 17  1  0  0  0  0
M  END
> <ref_mols>
x2643_0

> <original SMILES>
ClC1=CC=C(CC(=O)NC=2C=CC=NC2)S1

> <Chemgauss4>
-11.181113

> <ref_pdb>
x0678_0

$$$$
x0528
  -OEChem-05172015543D

 17 18  0     0  0  0  0  0  0999 V2000
   12.4741    0.2374   24.1465 C   0  0  0  0  0  0  0  0  0  0  0  0
   11.4254    0.4088   23.2429 C   0  0  0  0  0  0  0  0  0  0  0  0
   13.4883   -0.6800   23.8720 C   0  0  0  0  0  0  0  0  0  0  0  0
   12.4052   -1.2546   21.7903 C   0  0  0  0  0  0  0  0  0  0  0  0
    6.5201    0.4589   18.1371 C   0  0  0  0  0  0  0  0  0  0  0  0
    6.1181    0.8085   19.4074 C   0  0  0  0  0  0  0  0  0  0  0  0
    8.6765    0.2645   18.8729 C   0  0  0  0  0  0  0  0  0  0  0  0
   11.3910   -0.3372   22.0648 C   0  0  0  0  0  0  0  0  0  0  0  0
   13.4539   -1.4260   22.6939 C   0  0  0  0  0  0  0  0  0  0  0  0
    8.2748    0.6149   20.1431 C   0  0  0  0  0  0  0  0  0  0  0  0
    9.2359    0.7029   21.2558 C   0  0  0  0  0  0  0  0  0  0  0  0
    7.8065    0.1806   17.8470 N   0  0  0  0  0  0  0  0  0  0  0  0
    6.9883    0.8928   20.4332 N   0  0  0  0  0  0  0  0  0  0  0  0
   10.3423   -0.1653   21.1606 N   0  0  0  0  0  0  0  0  0  0  0  0
    9.0410    1.4637   22.2014 O   0  0  0  0  0  0  0  0  0  0  0  0
   14.4284   -2.3068   22.4310 F   0  0  0  0  0  0  0  0  0  0  0  0
   10.3817   -0.7469   20.3158 H   0  0  0  0  0  0  0  0  0  0  0  0
  1  2  1  0  0  0  0
  1  3  2  0  0  0  0
  2  8  2  0  0  0  0
  3  9  1  0  0  0  0
  4  8  1  0  0  0  0
  4  9  2  0  0  0  0
  5  6  2  0  0  0  0
  5 12  1  0  0  0  0
  6 13  1  0  0  0  0
  7 10  1  0  0  0  0
  7 12  2  0  0  0  0
  8 14  1  0  0  0  0
  9 16  1  0  0  0  0
 10 11  1  0  0  0  0
 10 13  2  0  0  0  0
 11 14  1  0  0  0  0
 11 15  2  0  0  0  0
 14 17  1  0  0  0  0
M  END
> <ref_mols>
x0528_0

> <original SMILES>
FC=1C=CC=C(NC(=O)C=2C=NC=CN2)C1

> <Chemgauss4>
-11.158923

> <ref_pdb>
x0678_0

$$$$
x2834
  -OEChem-05172015543D

 24 26  0     1  0  0  0  0  0999 V2000
   14.8326   -1.7066   24.4137 C   0  0  0  0  0  0  0  0  0  0  0  0
   14.2686   -0.6055   25.0578 C   0  0  0  0  0  0  0  0  0  0  0  0
   14.1512   -2.3264   23.3662 C   0  0  0  0  0  0  0  0  0  0  0  0
    5.7734    1.2138   19.2773 C   0  0  0  0  0  0  0  0  0  0  0  0
   13.0230   -0.1242   24.6546 C   0  0  0  0  0  0  0  0  0  0  0  0
   12.9057   -1.8451   22.9630 C   0  0  0  0  0  0  0  0  0  0  0  0
    6.3828    0.4451   20.2628 C   0  0  0  0  0  0  0  0  0  0  0  0
    6.2538    1.1070   17.9820 C   0  0  0  0  0  0  0  0  0  0  0  0
    7.8445   -0.4298   18.6032 C   0  0  0  0  0  0  0  0  0  0  0  0
   12.3416   -0.7440   23.6071 C   0  0  0  0  0  0  0  0  0  0  0  0
    7.4389   -0.3949   19.9276 C   0  0  0  0  0  0  0  0  0  0  0  0
   10.9317    2.2393   22.6410 C   0  0  0  0  0  0  0  0  0  0  0  0
   10.0380   -1.2756   22.5923 C   0  0  0  0  0  0  0  0  0  0  0  0
    9.8108    0.6192   21.1578 C   0  0  0  0  0  0  0  0  0  0  0  0
   10.9838   -0.2200   23.1672 C   0  0  2  0  0  0  0  0  0  0  0  0
   11.0223    0.8595   22.0598 C   0  0  2  0  0  0  0  0  0  0  0  0
    8.1166   -1.2372   20.9679 C   0  0  0  0  0  0  0  0  0  0  0  0
    7.2773    0.3022   17.6183 N   0  0  0  0  0  0  0  0  0  0  0  0
   12.1537    2.8275   22.8663 N   0  0  0  0  0  0  0  0  0  0  0  0
    9.0202   -0.4511   21.8596 N   0  3  1  0  0  0  0  0  0  0  0  0
    9.8533    2.7813   22.8707 O   0  0  0  0  0  0  0  0  0  0  0  0
   12.9942    2.3089   22.6334 H   0  0  0  0  0  0  0  0  0  0  0  0
   12.2490    3.7597   23.2561 H   0  0  0  0  0  0  0  0  0  0  0  0
    8.4431    0.0104   22.5629 H   0  0  0  0  0  0  0  0  0  0  0  0
  1  2  1  0  0  0  0
  1  3  2  0  0  0  0
  2  5  2  0  0  0  0
  3  6  1  0  0  0  0
  4  7  2  0  0  0  0
  4  8  1  0  0  0  0
  5 10  1  0  0  0  0
  6 10  2  0  0  0  0
  7 11  1  0  0  0  0
  8 18  2  0  0  0  0
  9 11  2  0  0  0  0
  9 18  1  0  0  0  0
 10 15  1  0  0  0  0
 11 17  1  0  0  0  0
 12 16  1  0  0  0  0
 12 19  1  0  0  0  0
 12 21  2  0  0  0  0
 13 15  1  0  0  0  0
 13 20  1  0  0  0  0
 14 16  1  0  0  0  0
 14 20  1  0  0  0  0
 15 16  1  0  0  0  0
 17 20  1  0  0  0  0
 19 22  1  0  0  0  0
 19 23  1  0  0  0  0
 20 24  1  0  0  0  0
M  CHG  1  20   1
M  END
> <ref_mols>
x2834_0

> <original SMILES>
NC(=O)[C@@H]1CN(CC=2C=CC=NC2)C[C@H]1C=3C=CC=CC3

> <Chemgauss4>
-11.157682

> <ref_pdb>
x0678_0

$$$$
x2481
  -OEChem-05172015543D

 20 21  0     1  0  0  0  0  0999 V2000
   11.6178    0.0964   24.6585 C   0  0  0  0  0  0  0  0  0  0  0  0
   10.4125   -0.5524   24.3904 C   0  0  0  0  0  0  0  0  0  0  0  0
   12.7695   -0.2519   23.9528 C   0  0  0  0  0  0  0  0  0  0  0  0
    5.4234    0.8687   19.3288 C   0  0  0  0  0  0  0  0  0  0  0  0
   11.5106   -1.8980   22.7108 C   0  0  0  0  0  0  0  0  0  0  0  0
    6.0834    0.6341   18.1333 C   0  0  0  0  0  0  0  0  0  0  0  0
    7.7644   -0.5255   19.1856 C   0  0  0  0  0  0  0  0  0  0  0  0
   10.3589   -1.5496   23.4165 C   0  0  0  0  0  0  0  0  0  0  0  0
    5.9905    0.3664   20.4947 C   0  0  0  0  0  0  0  0  0  0  0  0
    7.1833   -0.3451   20.4304 C   0  0  0  0  0  0  0  0  0  0  0  0
   12.7159   -1.2491   22.9790 C   0  0  0  0  0  0  0  0  0  0  0  0
    8.5960   -2.0151   21.6806 C   0  0  0  0  0  0  0  0  0  0  0  0
    5.3005    0.6051   21.7976 C   0  0  0  0  0  0  0  0  0  0  0  0
    9.1476   -3.7515   23.4388 C   0  0  0  0  0  0  0  0  0  0  0  0
    9.0701   -2.2438   23.1312 C   0  0  1  0  0  0  0  0  0  0  0  0
    7.2434   -0.0525   18.0313 N   0  0  0  0  0  0  0  0  0  0  0  0
    7.7994   -0.8763   21.5883 N   0  0  0  0  0  0  0  0  0  0  0  0
    8.9307   -2.7606   20.7644 O   0  0  0  0  0  0  0  0  0  0  0  0
   14.1374   -1.6792   22.1094 Cl  0  0  0  0  0  0  0  0  0  0  0  0
    7.6348   -0.3525   22.4453 H   0  0  0  0  0  0  0  0  0  0  0  0
  1  2  2  0  0  0  0
  1  3  1  0  0  0  0
  2  8  1  0  0  0  0
  3 11  2  0  0  0  0
  4  6  2  0  0  0  0
  4  9  1  0  0  0  0
  5  8  2  0  0  0  0
  5 11  1  0  0  0  0
  6 16  1  0  0  0  0
  7 10  1  0  0  0  0
  7 16  2  0  0  0  0
  8 15  1  0  0  0  0
  9 10  2  0  0  0  0
  9 13  1  0  0  0  0
 10 17  1  0  0  0  0
 11 19  1  0  0  0  0
 12 15  1  0  0  0  0
 12 17  1  0  0  0  0
 12 18  2  0  0  0  0
 14 15  1  0  0  0  0
 17 20  1  0  0  0  0
M  END
> <ref_mols>
x2481_0

> <original SMILES>
CC(C(=O)NC=1C=NC=CC1C)C=2C=CC=C(Cl)C2

> <Chemgauss4>
-11.149205

> <ref_pdb>
x0678_0

$$$$
x2649
  -OEChem-05172015543D

 20 21  0     1  0  0  0  0  0999 V2000
   11.6178    0.0964   24.6585 C   0  0  0  0  0  0  0  0  0  0  0  0
   10.4125   -0.5524   24.3904 C   0  0  0  0  0  0  0  0  0  0  0  0
   12.7695   -0.2519   23.9528 C   0  0  0  0  0  0  0  0  0  0  0  0
    5.4234    0.8687   19.3288 C   0  0  0  0  0  0  0  0  0  0  0  0
   11.5106   -1.8980   22.7108 C   0  0  0  0  0  0  0  0  0  0  0  0
    6.0834    0.6341   18.1333 C   0  0  0  0  0  0  0  0  0  0  0  0
    7.7644   -0.5255   19.1856 C   0  0  0  0  0  0  0  0  0  0  0  0
   10.3589   -1.5496   23.4165 C   0  0  0  0  0  0  0  0  0  0  0  0
    5.9905    0.3664   20.4947 C   0  0  0  0  0  0  0  0  0  0  0  0
    7.1833   -0.3451   20.4304 C   0  0  0  0  0  0  0  0  0  0  0  0
   12.7159   -1.2491   22.9790 C   0  0  0  0  0  0  0  0  0  0  0  0
    8.5960   -2.0151   21.6806 C   0  0  0  0  0  0  0  0  0  0  0  0
    5.3005    0.6051   21.7976 C   0  0  0  0  0  0  0  0  0  0  0  0
    9.1476   -3.7515   23.4388 C   0  0  0  0  0  0  0  0  0  0  0  0
    9.0701   -2.2438   23.1312 C   0  0  1  0  0  0  0  0  0  0  0  0
    7.2434   -0.0525   18.0313 N   0  0  0  0  0  0  0  0  0  0  0  0
    7.7994   -0.8763   21.5883 N   0  0  0  0  0  0  0  0  0  0  0  0
    8.9307   -2.7606   20.7644 O   0  0  0  0  0  0  0  0  0  0  0  0
   14.1374   -1.6792   22.1094 Cl  0  0  0  0  0  0  0  0  0  0  0  0
    7.6348   -0.3525   22.4453 H   0  0  0  0  0  0  0  0  0  0  0  0
  1  2  2  0  0  0  0
  1  3  1  0  0  0  0
  2  8  1  0  0  0  0
  3 11  2  0  0  0  0
  4  6  2  0  0  0  0
  4  9  1  0  0  0  0
  5  8  2  0  0  0  0
  5 11  1  0  0  0  0
  6 16  1  0  0  0  0
  7 10  1  0  0  0  0
  7 16  2  0  0  0  0
  8 15  1  0  0  0  0
  9 10  2  0  0  0  0
  9 13  1  0  0  0  0
 10 17  1  0  0  0  0
 11 19  1  0  0  0  0
 12 15  1  0  0  0  0
 12 17  1  0  0  0  0
 12 18  2  0  0  0  0
 14 15  1  0  0  0  0
 17 20  1  0  0  0  0
M  END
> <ref_mols>
x2649_0

> <original SMILES>
CC(C(=O)NC=1C=NC=CC1C)C=2C=CC=C(Cl)C2

> <Chemgauss4>
-11.149205

> <ref_pdb>
x0678_0

$$$$
x2812
  -OEChem-05172015543D

 23 25  0     1  0  0  0  0  0999 V2000
   13.9600   -2.3423   23.2437 C   0  0  0  0  0  0  0  0  0  0  0  0
   14.2157   -1.2912   24.1243 C   0  0  0  0  0  0  0  0  0  0  0  0
   12.7060   -2.4608   22.6446 C   0  0  0  0  0  0  0  0  0  0  0  0
   13.2173   -0.3587   24.4059 C   0  0  0  0  0  0  0  0  0  0  0  0
    6.6411    0.6273   19.9724 C   0  0  0  0  0  0  0  0  0  0  0  0
   11.7076   -1.5283   22.9262 C   0  0  0  0  0  0  0  0  0  0  0  0
   11.9632   -0.4772   23.8068 C   0  0  0  0  0  0  0  0  0  0  0  0
    7.5828    0.2738   18.9959 C   0  0  0  0  0  0  0  0  0  0  0  0
   10.3579   -1.2396   20.8231 C   0  0  0  0  0  0  0  0  0  0  0  0
   10.0738    2.6511   24.0666 C   0  0  0  0  0  0  0  0  0  0  0  0
    9.2195    2.4174   22.8366 C   0  0  0  0  0  0  0  0  0  0  0  0
   11.4383    1.9599   22.2767 C   0  0  0  0  0  0  0  0  0  0  0  0
   11.2867    1.8025   23.7761 C   0  0  2  0  0  0  0  0  0  0  0  0
   10.3712   -1.6711   22.2761 C   0  0  0  0  0  0  0  0  0  0  0  0
    8.9716   -0.2670   19.1698 C   0  0  0  0  0  0  0  0  0  0  0  0
    5.5240    1.0671   19.3864 N   0  0  0  0  0  0  0  0  0  0  0  0
    7.0737    0.4839   17.7787 N   0  0  0  0  0  0  0  0  0  0  0  0
    5.8548    0.9530   18.0900 N   0  0  0  0  0  0  0  0  0  0  0  0
   11.3014   -1.3466   20.0515 O   0  0  0  0  0  0  0  0  0  0  0  0
   10.1178    2.1691   21.7471 O   0  0  0  0  0  0  0  0  0  0  0  0
   10.9938    0.4464   24.0948 O   0  0  0  0  0  0  0  0  0  0  0  0
    9.1318   -0.7181   20.5187 O   0  0  0  0  0  0  0  0  0  0  0  0
    5.1993    1.2158   17.3629 H   0  0  0  0  0  0  0  0  0  0  0  0
  1  2  1  0  0  0  0
  1  3  2  0  0  0  0
  2  4  2  0  0  0  0
  3  6  1  0  0  0  0
  4  7  1  0  0  0  0
  5  8  1  0  0  0  0
  5 16  2  0  0  0  0
  6  7  2  0  0  0  0
  6 14  1  0  0  0  0
  7 21  1  0  0  0  0
  8 15  1  0  0  0  0
  8 17  2  0  0  0  0
  9 14  1  0  0  0  0
  9 19  2  0  0  0  0
  9 22  1  0  0  0  0
 10 11  1  0  0  0  0
 10 13  1  0  0  0  0
 11 20  1  0  0  0  0
 12 13  1  0  0  0  0
 12 20  1  0  0  0  0
 13 21  1  0  0  0  0
 15 22  1  0  0  0  0
 16 18  1  0  0  0  0
 17 18  1  0  0  0  0
 18 23  1  0  0  0  0
M  END
> <ref_mols>
x2812_0

> <original SMILES>
O=C(CC=1C=CC=CC1OC2CCOC2)OCC3=CNN=N3

> <Chemgauss4>
-11.107311

> <ref_pdb>
x0678_0

$$$$
x0522
  -OEChem-05172015543D

 17 18  0     0  0  0  0  0  0999 V2000
    5.6564    1.1862   18.8169 C   0  0  0  0  0  0  0  0  0  0  0  0
    6.2189    0.7842   20.0232 C   0  0  0  0  0  0  0  0  0  0  0  0
   12.1465   -1.9425   22.0680 C   0  0  0  0  0  0  0  0  0  0  0  0
   10.9360   -0.7879   23.8112 C   0  0  0  0  0  0  0  0  0  0  0  0
   13.3532   -1.5874   22.6707 C   0  0  0  0  0  0  0  0  0  0  0  0
   12.1427   -0.4329   24.4140 C   0  0  0  0  0  0  0  0  0  0  0  0
    6.3580    0.9176   17.6527 C   0  0  0  0  0  0  0  0  0  0  0  0
    8.0698   -0.0867   18.8100 C   0  0  0  0  0  0  0  0  0  0  0  0
    7.4485    0.1350   20.0285 C   0  0  0  0  0  0  0  0  0  0  0  0
   10.9379   -1.5427   22.6382 C   0  0  0  0  0  0  0  0  0  0  0  0
   13.3514   -0.8326   23.8437 C   0  0  0  0  0  0  0  0  0  0  0  0
    8.0738   -0.3055   21.3010 C   0  0  0  0  0  0  0  0  0  0  0  0
    9.6473   -1.9236   21.9949 C   0  0  0  0  0  0  0  0  0  0  0  0
    7.5545    0.2892   17.6180 N   0  0  0  0  0  0  0  0  0  0  0  0
    7.5609   -0.1299   22.3953 O   0  0  0  0  0  0  0  0  0  0  0  0
    9.2675   -0.9162   21.0654 O   0  0  0  0  0  0  0  0  0  0  0  0
   14.8401   -0.3949   24.5872 Cl  0  0  0  0  0  0  0  0  0  0  0  0
  1  2  2  0  0  0  0
  1  7  1  0  0  0  0
  2  9  1  0  0  0  0
  3  5  2  0  0  0  0
  3 10  1  0  0  0  0
  4  6  1  0  0  0  0
  4 10  2  0  0  0  0
  5 11  1  0  0  0  0
  6 11  2  0  0  0  0
  7 14  2  0  0  0  0
  8  9  2  0  0  0  0
  8 14  1  0  0  0  0
  9 12  1  0  0  0  0
 10 13  1  0  0  0  0
 11 17  1  0  0  0  0
 12 15  2  0  0  0  0
 12 16  1  0  0  0  0
 13 16  1  0  0  0  0
M  END
> <ref_mols>
x0522_0

> <original SMILES>
ClC=1C=CC(COC(=O)C=2C=CC=NC2)=CC1

> <Chemgauss4>
-11.040628

> <ref_pdb>
x0678_0

$$$$
x0749
  -OEChem-05172015543D

 19 21  0     1  0  0  0  0  0999 V2000
   13.4908   -0.5109   24.9764 C   0  0  0  0  0  0  0  0  0  0  0  0
   13.9293   -1.4936   25.8571 C   0  0  0  0  0  0  0  0  0  0  0  0
   12.3443   -0.7114   24.2021 C   0  0  0  0  0  0  0  0  0  0  0  0
   13.2366   -2.6998   25.9878 C   0  0  0  0  0  0  0  0  0  0  0  0
   11.6256   -1.9212   24.3147 C   0  0  0  0  0  0  0  0  0  0  0  0
   12.0859   -2.8945   25.2069 C   0  0  0  0  0  0  0  0  0  0  0  0
   10.0813   -3.4586   23.9706 C   0  0  0  0  0  0  0  0  0  0  0  0
    6.1797   -3.7793   20.9912 C   0  0  0  0  0  0  0  0  0  0  0  0
    7.7563   -6.3708   22.8714 C   0  0  0  0  0  0  0  0  0  0  0  0
    8.9960   -5.6923   23.4568 C   0  0  0  0  0  0  0  0  0  0  0  0
    7.4496   -5.8483   21.4708 C   0  0  0  0  0  0  0  0  0  0  0  0
    8.5208   -3.6831   21.9852 C   0  0  0  0  0  0  0  0  0  0  0  0
    8.8545   -4.1594   23.4097 C   0  0  2  0  0  0  0  0  0  0  0  0
    5.8042   -2.4572   21.6114 C   0  0  0  0  0  0  0  0  0  0  0  0
   10.4769   -2.2591   23.6141 N   0  0  0  0  0  0  0  0  0  0  0  0
    7.3380   -4.3885   21.4721 N   0  0  0  0  0  0  0  0  0  0  0  0
    5.4625   -4.2559   20.1077 O   0  0  0  0  0  0  0  0  0  0  0  0
   11.0328   -4.2583   25.1459 S   0  0  0  0  0  0  0  0  0  0  0  0
    5.5341   -2.7625   23.3236 Cl  0  0  0  0  0  0  0  0  0  0  0  0
  1  2  1  0  0  0  0
  1  3  2  0  0  0  0
  2  4  2  0  0  0  0
  3  5  1  0  0  0  0
  4  6  1  0  0  0  0
  5  6  2  0  0  0  0
  5 15  1  0  0  0  0
  6 18  1  0  0  0  0
  7 13  1  0  0  0  0
  7 15  2  0  0  0  0
  7 18  1  0  0  0  0
  8 14  1  0  0  0  0
  8 16  1  0  0  0  0
  8 17  2  0  0  0  0
  9 10  1  0  0  0  0
  9 11  1  0  0  0  0
 10 13  1  0  0  0  0
 11 16  1  0  0  0  0
 12 13  1  0  0  0  0
 12 16  1  0  0  0  0
 14 19  1  0  0  0  0
M  END
> <ref_mols>
x0749_0

> <original SMILES>
ClCC(=O)N1CCCC(C1)c2nc3ccccc3s2

> <Chemgauss4>
-10.828880

> <ref_pdb>
x0749_0

> <CYS145-warhead dist minimum (A)>
3.434527

> <CYS145-warhead dist mean (A)>
9.445639

> <CYS145-warhead dist stddev (A)>
1.0254843

$$$$
x0823
  -OEChem-05172015543D

 19 21  0     1  0  0  0  0  0999 V2000
   13.4908   -0.5109   24.9764 C   0  0  0  0  0  0  0  0  0  0  0  0
   13.9293   -1.4936   25.8571 C   0  0  0  0  0  0  0  0  0  0  0  0
   12.3443   -0.7114   24.2021 C   0  0  0  0  0  0  0  0  0  0  0  0
   13.2366   -2.6998   25.9878 C   0  0  0  0  0  0  0  0  0  0  0  0
   11.6256   -1.9212   24.3147 C   0  0  0  0  0  0  0  0  0  0  0  0
   12.0859   -2.8945   25.2069 C   0  0  0  0  0  0  0  0  0  0  0  0
   10.0813   -3.4586   23.9706 C   0  0  0  0  0  0  0  0  0  0  0  0
    6.1797   -3.7793   20.9912 C   0  0  0  0  0  0  0  0  0  0  0  0
    7.7563   -6.3708   22.8714 C   0  0  0  0  0  0  0  0  0  0  0  0
    8.9960   -5.6923   23.4568 C   0  0  0  0  0  0  0  0  0  0  0  0
    7.4496   -5.8483   21.4708 C   0  0  0  0  0  0  0  0  0  0  0  0
    8.5208   -3.6831   21.9852 C   0  0  0  0  0  0  0  0  0  0  0  0
    8.8545   -4.1594   23.4097 C   0  0  2  0  0  0  0  0  0  0  0  0
    5.8042   -2.4572   21.6114 C   0  0  0  0  0  0  0  0  0  0  0  0
   10.4769   -2.2591   23.6141 N   0  0  0  0  0  0  0  0  0  0  0  0
    7.3380   -4.3885   21.4721 N   0  0  0  0  0  0  0  0  0  0  0  0
    5.4625   -4.2559   20.1077 O   0  0  0  0  0  0  0  0  0  0  0  0
   11.0328   -4.2583   25.1459 S   0  0  0  0  0  0  0  0  0  0  0  0
    5.5341   -2.7625   23.3236 Cl  0  0  0  0  0  0  0  0  0  0  0  0
  1  2  1  0  0  0  0
  1  3  2  0  0  0  0
  2  4  2  0  0  0  0
  3  5  1  0  0  0  0
  4  6  1  0  0  0  0
  5  6  2  0  0  0  0
  5 15  1  0  0  0  0
  6 18  1  0  0  0  0
  7 13  1  0  0  0  0
  7 15  2  0  0  0  0
  7 18  1  0  0  0  0
  8 14  1  0  0  0  0
  8 16  1  0  0  0  0
  8 17  2  0  0  0  0
  9 10  1  0  0  0  0
  9 11  1  0  0  0  0
 10 13  1  0  0  0  0
 11 16  1  0  0  0  0
 12 13  1  0  0  0  0
 12 16  1  0  0  0  0
 14 19  1  0  0  0  0
M  END
> <ref_mols>
x0823_0

> <original SMILES>
ClCC(=O)N1CCCC(C1)c2nc3ccccc3s2

> <Chemgauss4>
-10.828880

> <ref_pdb>
x0749_0

$$$$
x1093
  -OEChem-05172015543D

 21 23  0     0  0  0  0  0  0999 V2000
    7.5691   -1.2455   20.7408 C   0  0  0  0  0  0  0  0  0  0  0  0
    8.4894   -1.8140   21.6196 C   0  0  0  0  0  0  0  0  0  0  0  0
    6.3627   -1.8975   20.5235 C   0  0  0  0  0  0  0  0  0  0  0  0
    7.8868   -4.9507   23.3910 C   0  0  0  0  0  0  0  0  0  0  0  0
    8.1417   -3.0244   22.2407 C   0  0  0  0  0  0  0  0  0  0  0  0
    8.7589   -3.9076   23.1656 C   0  0  0  0  0  0  0  0  0  0  0  0
    6.8986   -3.5689   21.9315 C   0  0  0  0  0  0  0  0  0  0  0  0
   10.2280   -2.4608   24.5714 C   0  0  0  0  0  0  0  0  0  0  0  0
   11.9000   -0.8086   25.3397 C   0  0  0  0  0  0  0  0  0  0  0  0
   12.3808   -3.2026   25.7023 C   0  0  0  0  0  0  0  0  0  0  0  0
   13.3003   -0.5918   24.7850 C   0  0  0  0  0  0  0  0  0  0  0  0
   13.7898   -3.0178   25.1546 C   0  0  0  0  0  0  0  0  0  0  0  0
   14.6750   -1.3008   26.7833 C   0  0  0  0  0  0  0  0  0  0  0  0
   10.1131   -3.7450   23.7894 C   0  0  0  0  0  0  0  0  0  0  0  0
    5.9752   -3.0626   21.0926 N   0  0  0  0  0  0  0  0  0  0  0  0
    6.7622   -4.7353   22.6373 N   0  0  0  0  0  0  0  0  0  0  0  0
   11.4654   -2.1939   25.1570 N   0  0  0  0  0  0  0  0  0  0  0  0
   14.2642   -1.5992   25.3674 N   0  3  0  0  0  0  0  0  0  0  0  0
    9.2471   -1.7173   24.6559 O   0  0  0  0  0  0  0  0  0  0  0  0
    5.9561   -5.3439   22.6054 H   0  0  0  0  0  0  0  0  0  0  0  0
   15.1530   -1.5076   24.7956 H   0  0  0  0  0  0  0  0  0  0  0  0
  1  2  2  0  0  0  0
  1  3  1  0  0  0  0
  2  5  1  0  0  0  0
  3 15  2  0  0  0  0
  4  6  2  0  0  0  0
  4 16  1  0  0  0  0
  5  6  1  0  0  0  0
  5  7  2  0  0  0  0
  6 14  1  0  0  0  0
  7 15  1  0  0  0  0
  7 16  1  0  0  0  0
  8 14  1  0  0  0  0
  8 17  1  0  0  0  0
  8 19  2  0  0  0  0
  9 11  1  0  0  0  0
  9 17  1  0  0  0  0
 10 12  1  0  0  0  0
 10 17  1  0  0  0  0
 11 18  1  0  0  0  0
 12 18  1  0  0  0  0
 13 18  1  0  0  0  0
 16 20  1  0  0  0  0
 18 21  1  0  0  0  0
M  CHG  1  18   1
M  END
> <ref_mols>
x1093_0

> <original SMILES>
CN1CCN(CC1)C(=O)CC1=CNC2=NC=CC=C12

> <Chemgauss4>
-10.785702

> <ref_pdb>
x0749_0

$$$$
x2796
  -OEChem-05172015543D

 26 29  0     0  0  0  0  0  0999 V2000
    7.6779   -4.7348   26.9593 C   0  0  0  0  0  0  0  0  0  0  0  0
    4.1379    1.3702   22.5359 C   0  0  0  0  0  0  0  0  0  0  0  0
    6.6961   -4.0213   26.2719 C   0  0  0  0  0  0  0  0  0  0  0  0
    8.9200   -4.9607   26.3661 C   0  0  0  0  0  0  0  0  0  0  0  0
    3.1236    1.6334   21.6185 C   0  0  0  0  0  0  0  0  0  0  0  0
    5.4240    1.0455   22.0929 C   0  0  0  0  0  0  0  0  0  0  0  0
    6.9563   -3.5338   24.9912 C   0  0  0  0  0  0  0  0  0  0  0  0
    9.1802   -4.4732   25.0854 C   0  0  0  0  0  0  0  0  0  0  0  0
    3.3912    1.5733   20.2539 C   0  0  0  0  0  0  0  0  0  0  0  0
    5.7127    0.9792   20.7235 C   0  0  0  0  0  0  0  0  0  0  0  0
    8.1984   -3.7597   24.3979 C   0  0  0  0  0  0  0  0  0  0  0  0
    4.6781    1.2480   19.8133 C   0  0  0  0  0  0  0  0  0  0  0  0
    7.2509    0.5964   18.8644 C   0  0  0  0  0  0  0  0  0  0  0  0
    7.0412    0.6429   20.1886 C   0  0  0  0  0  0  0  0  0  0  0  0
    6.1594    0.8798   17.8943 C   0  0  0  0  0  0  0  0  0  0  0  0
    8.2270    0.3340   21.0128 C   0  0  0  0  0  0  0  0  0  0  0  0
    7.4071   -3.1101   22.1153 C   0  0  0  0  0  0  0  0  0  0  0  0
    9.6577   -2.4744   22.8526 C   0  0  0  0  0  0  0  0  0  0  0  0
    6.9820   -1.6420   22.0477 C   0  0  0  0  0  0  0  0  0  0  0  0
    9.2596   -0.9979   22.8115 C   0  0  0  0  0  0  0  0  0  0  0  0
    4.9294    1.1913   18.4312 N   0  0  0  0  0  0  0  0  0  0  0  0
    8.4581   -3.2738   23.1213 N   0  0  0  0  0  0  0  0  0  0  0  0
    8.1488   -0.7545   21.8797 N   0  0  0  0  0  0  0  0  0  0  0  0
    6.3828    0.8272   16.6867 O   0  0  0  0  0  0  0  0  0  0  0  0
    9.2130    1.0626   20.8886 O   0  0  0  0  0  0  0  0  0  0  0  0
    4.1598    1.3893   17.7979 H   0  0  0  0  0  0  0  0  0  0  0  0
  1  3  1  0  0  0  0
  1  4  2  0  0  0  0
  2  5  1  0  0  0  0
  2  6  2  0  0  0  0
  3  7  2  0  0  0  0
  4  8  1  0  0  0  0
  5  9  2  0  0  0  0
  6 10  1  0  0  0  0
  7 11  1  0  0  0  0
  8 11  2  0  0  0  0
  9 12  1  0  0  0  0
 10 12  2  0  0  0  0
 10 14  1  0  0  0  0
 11 22  1  0  0  0  0
 12 21  1  0  0  0  0
 13 14  2  0  0  0  0
 13 15  1  0  0  0  0
 14 16  1  0  0  0  0
 15 21  1  0  0  0  0
 15 24  2  0  0  0  0
 16 23  1  0  0  0  0
 16 25  2  0  0  0  0
 17 19  1  0  0  0  0
 17 22  1  0  0  0  0
 18 20  1  0  0  0  0
 18 22  1  0  0  0  0
 19 23  1  0  0  0  0
 20 23  1  0  0  0  0
 21 26  1  0  0  0  0
M  END
> <ref_mols>
x2796_0

> <original SMILES>
OC=1C=C(C(=O)N2CCN(CC2)C=3C=CC=CC3)C=4C=CC=CC4N1

> <Chemgauss4>
-10.749320

> <ref_pdb>
x0107_0

$$$$
x2602
  -OEChem-05172015543D

 29 32  0     0  0  0  0  0  0999 V2000
    9.0990    6.3133   24.2473 C   0  0  0  0  0  0  0  0  0  0  0  0
   10.1466    5.8985   23.4251 C   0  0  0  0  0  0  0  0  0  0  0  0
    8.3189    5.3680   24.9134 C   0  0  0  0  0  0  0  0  0  0  0  0
   14.2972   -2.1358   23.8598 C   0  0  0  0  0  0  0  0  0  0  0  0
   10.4141    4.5385   23.2687 C   0  0  0  0  0  0  0  0  0  0  0  0
    8.5864    4.0080   24.7570 C   0  0  0  0  0  0  0  0  0  0  0  0
   14.4991   -0.7782   24.0637 C   0  0  0  0  0  0  0  0  0  0  0  0
   13.0891   -2.6054   23.3411 C   0  0  0  0  0  0  0  0  0  0  0  0
    6.6615    1.4047   17.4044 C   0  0  0  0  0  0  0  0  0  0  0  0
    5.9670    1.8442   18.5098 C   0  0  0  0  0  0  0  0  0  0  0  0
    7.3081   -0.4637   18.5535 C   0  0  0  0  0  0  0  0  0  0  0  0
   12.2563   -0.3049   23.2236 C   0  0  0  0  0  0  0  0  0  0  0  0
   11.0893    0.4330   22.8315 C   0  0  0  0  0  0  0  0  0  0  0  0
    9.6339    3.5932   23.9347 C   0  0  0  0  0  0  0  0  0  0  0  0
   13.4927    0.1395   23.7512 C   0  0  0  0  0  0  0  0  0  0  0  0
   12.0765   -1.6776   23.0273 C   0  0  0  0  0  0  0  0  0  0  0  0
   10.0801   -0.3726   22.3603 C   0  0  0  0  0  0  0  0  0  0  0  0
    6.6143   -0.0239   19.6592 C   0  0  0  0  0  0  0  0  0  0  0  0
    8.7838   -0.0104   21.8825 C   0  0  0  0  0  0  0  0  0  0  0  0
   10.9789    1.9125   22.9237 C   0  0  0  0  0  0  0  0  0  0  0  0
    6.5964   -0.8376   20.9209 C   0  0  0  0  0  0  0  0  0  0  0  0
    7.3445    0.2428   17.4064 N   0  0  0  0  0  0  0  0  0  0  0  0
    5.9310    1.1378   19.6571 N   0  0  0  0  0  0  0  0  0  0  0  0
    7.9254   -1.0444   21.4499 N   0  0  0  0  0  0  0  0  0  0  0  0
    8.4162    1.1906   21.8251 O   0  0  0  0  0  0  0  0  0  0  0  0
    9.8950    2.2578   23.7803 O   0  0  0  0  0  0  0  0  0  0  0  0
   13.7166    1.4454   23.9585 F   0  0  0  0  0  0  0  0  0  0  0  0
   10.5150   -2.0205   22.3811 S   0  0  0  0  0  0  0  0  0  0  0  0
    8.2788   -1.9956   21.4512 H   0  0  0  0  0  0  0  0  0  0  0  0
  1  2  1  0  0  0  0
  1  3  2  0  0  0  0
  2  5  2  0  0  0  0
  3  6  1  0  0  0  0
  4  7  2  0  0  0  0
  4  8  1  0  0  0  0
  5 14  1  0  0  0  0
  6 14  2  0  0  0  0
  7 15  1  0  0  0  0
  8 16  2  0  0  0  0
  9 10  2  0  0  0  0
  9 22  1  0  0  0  0
 10 23  1  0  0  0  0
 11 18  1  0  0  0  0
 11 22  2  0  0  0  0
 12 13  1  0  0  0  0
 12 15  2  0  0  0  0
 12 16  1  0  0  0  0
 13 17  2  0  0  0  0
 13 20  1  0  0  0  0
 14 26  1  0  0  0  0
 15 27  1  0  0  0  0
 16 28  1  0  0  0  0
 17 19  1  0  0  0  0
 17 28  1  0  0  0  0
 18 21  1  0  0  0  0
 18 23  2  0  0  0  0
 19 24  1  0  0  0  0
 19 25  2  0  0  0  0
 20 26  1  0  0  0  0
 21 24  1  0  0  0  0
 24 29  1  0  0  0  0
M  END
> <ref_mols>
x2602_0

> <original SMILES>
FC=1C=CC=C2SC(C(=O)NCC=3C=NC=CN3)=C(COC=4C=CC=CC4)C12

> <Chemgauss4>
-10.726959

> <ref_pdb>
x0678_0

$$$$
x0540
  -OEChem-05172015543D

 20 21  0     0  0  0  0  0  0999 V2000
    5.3010    1.3546   19.2816 C   0  0  0  0  0  0  0  0  0  0  0  0
    7.3142    0.1840   19.8827 C   0  0  0  0  0  0  0  0  0  0  0  0
    5.5706    1.0300   17.9618 C   0  0  0  0  0  0  0  0  0  0  0  0
    7.4935   -0.0883   18.5361 C   0  0  0  0  0  0  0  0  0  0  0  0
    6.1944    0.9197   20.2543 C   0  0  0  0  0  0  0  0  0  0  0  0
    8.8746    1.6716   22.5595 C   0  0  0  0  0  0  0  0  0  0  0  0
   12.3469   -1.1178   24.3572 C   0  0  0  0  0  0  0  0  0  0  0  0
   12.5073    0.3353   24.7950 C   0  0  0  0  0  0  0  0  0  0  0  0
   12.2533   -1.2416   22.8390 C   0  0  0  0  0  0  0  0  0  0  0  0
   11.3991    1.2205   24.2272 C   0  0  0  0  0  0  0  0  0  0  0  0
   11.1443   -0.3587   22.2693 C   0  0  0  0  0  0  0  0  0  0  0  0
   11.3161    1.1016   22.7014 C   0  0  0  0  0  0  0  0  0  0  0  0
    5.9500    1.2455   21.7073 C   0  0  0  0  0  0  0  0  0  0  0  0
    6.5879    2.5643   22.1373 C   0  0  0  0  0  0  0  0  0  0  0  0
    6.6477    0.3173   17.5626 N   0  0  0  0  0  0  0  0  0  0  0  0
   10.2004    1.9024   22.2009 N   0  0  0  0  0  0  0  0  0  0  0  0
    8.0182    2.5783   21.9398 N   0  0  0  0  0  0  0  0  0  0  0  0
    8.5059    0.7823   23.3256 O   0  0  0  0  0  0  0  0  0  0  0  0
   10.4019    2.6643   21.5602 H   0  0  0  0  0  0  0  0  0  0  0  0
    8.4172    3.3089   21.3588 H   0  0  0  0  0  0  0  0  0  0  0  0
  1  3  2  0  0  0  0
  1  5  1  0  0  0  0
  2  4  1  0  0  0  0
  2  5  2  0  0  0  0
  3 15  1  0  0  0  0
  4 15  2  0  0  0  0
  5 13  1  0  0  0  0
  6 16  1  0  0  0  0
  6 17  1  0  0  0  0
  6 18  2  0  0  0  0
  7  8  1  0  0  0  0
  7  9  1  0  0  0  0
  8 10  1  0  0  0  0
  9 11  1  0  0  0  0
 10 12  1  0  0  0  0
 11 12  1  0  0  0  0
 12 16  1  0  0  0  0
 13 14  1  0  0  0  0
 14 17  1  0  0  0  0
 16 19  1  0  0  0  0
 17 20  1  0  0  0  0
M  END
> <ref_mols>
x0540_0

> <original SMILES>
O=C(NCCC=1C=CN=CC1)NC2CCCCC2

> <Chemgauss4>
-10.720702

> <ref_pdb>
x0967_0

$$$$
x2878
  -OEChem-05172015543D

 20 21  0     1  0  0  0  0  0999 V2000
   12.7700   -0.9608   25.4895 C   0  0  0  0  0  0  0  0  0  0  0  0
   13.2016   -2.2291   25.8777 C   0  0  0  0  0  0  0  0  0  0  0  0
   11.5468   -0.8100   24.8362 C   0  0  0  0  0  0  0  0  0  0  0  0
   12.4101   -3.3467   25.6124 C   0  0  0  0  0  0  0  0  0  0  0  0
   10.7553   -1.9275   24.5710 C   0  0  0  0  0  0  0  0  0  0  0  0
   11.1869   -3.1958   24.9591 C   0  0  0  0  0  0  0  0  0  0  0  0
    6.3021   -0.4111   19.3199 C   0  0  0  0  0  0  0  0  0  0  0  0
    6.7624   -1.0249   20.4143 C   0  0  0  0  0  0  0  0  0  0  0  0
    6.3721   -2.4293   20.7101 C   0  0  0  0  0  0  0  0  0  0  0  0
    7.8477   -5.2212   22.0162 C   0  0  0  0  0  0  0  0  0  0  0  0
    6.7221   -4.2316   22.3848 C   0  0  1  0  0  0  0  0  0  0  0  0
    8.4443   -5.0420   23.4296 C   0  0  2  0  0  0  0  0  0  0  0  0
    7.0680   -4.4587   23.8927 C   0  0  0  0  0  0  0  0  0  0  0  0
    6.1668   -5.5196   24.5420 C   0  0  0  0  0  0  0  0  0  0  0  0
    7.1403   -3.2186   24.7831 C   0  0  0  0  0  0  0  0  0  0  0  0
   10.3351   -4.3976   24.6733 C   0  0  0  0  0  0  0  0  0  0  0  0
    6.9494   -2.8782   21.8787 N   0  0  0  0  0  0  0  0  0  0  0  0
    5.6289   -3.0759   19.9790 O   0  0  0  0  0  0  0  0  0  0  0  0
    9.5857   -4.1631   23.4962 O   0  0  0  0  0  0  0  0  0  0  0  0
    7.5778   -2.2900   22.4089 H   0  0  0  0  0  0  0  0  0  0  0  0
  1  2  1  0  0  0  0
  1  3  2  0  0  0  0
  2  4  2  0  0  0  0
  3  5  1  0  0  0  0
  4  6  1  0  0  0  0
  5  6  2  0  0  0  0
  6 16  1  0  0  0  0
  7  8  2  0  0  0  0
  8  9  1  0  0  0  0
  9 17  1  0  0  0  0
  9 18  2  0  0  0  0
 10 11  1  0  0  0  0
 10 12  1  0  0  0  0
 11 13  1  0  0  0  0
 11 17  1  0  0  0  0
 12 13  1  0  0  0  0
 12 19  1  0  0  0  0
 13 14  1  0  0  0  0
 13 15  1  0  0  0  0
 16 19  1  0  0  0  0
 17 20  1  0  0  0  0
M  END
> <ref_mols>
x2878_0

> <original SMILES>
CC(C)(C(C1)NC(C=C)=O)C1OCc1ccccc1

> <Chemgauss4>
-10.708556

> <ref_pdb>
x0749_0

$$$$
x2482
  -OEChem-05172015543D

 23 25  0     0  0  0  0  0  0999 V2000
   12.6106    1.3741   23.8416 C   0  0  0  0  0  0  0  0  0  0  0  0
    5.3883    1.4273   18.6001 C   0  0  0  0  0  0  0  0  0  0  0  0
    5.6248    0.9296   19.8802 C   0  0  0  0  0  0  0  0  0  0  0  0
   11.4116    0.9738   24.4311 C   0  0  0  0  0  0  0  0  0  0  0  0
   13.4245    0.4345   23.2087 C   0  0  0  0  0  0  0  0  0  0  0  0
   11.8402   -1.3057   23.7550 C   0  0  0  0  0  0  0  0  0  0  0  0
    6.2782    1.1063   17.5839 C   0  0  0  0  0  0  0  0  0  0  0  0
    8.4836   -1.1891   20.7040 C   0  0  0  0  0  0  0  0  0  0  0  0
    6.7595    0.1248   20.0716 C   0  0  0  0  0  0  0  0  0  0  0  0
   11.0264   -0.3661   24.3879 C   0  0  0  0  0  0  0  0  0  0  0  0
    7.3492   -0.5586   21.1678 C   0  0  0  0  0  0  0  0  0  0  0  0
   13.0393   -0.9054   23.1654 C   0  0  0  0  0  0  0  0  0  0  0  0
    7.5671   -0.1173   18.9642 C   0  0  0  0  0  0  0  0  0  0  0  0
    7.8366   -0.0707   23.5972 C   0  0  0  0  0  0  0  0  0  0  0  0
    6.8472   -0.5935   22.5560 C   0  0  0  0  0  0  0  0  0  0  0  0
    9.7362   -0.7965   25.0237 C   0  0  0  0  0  0  0  0  0  0  0  0
    7.3849    0.3376   17.7100 N   0  0  0  0  0  0  0  0  0  0  0  0
    8.6062   -0.9144   19.3666 N   0  0  0  0  0  0  0  0  0  0  0  0
    8.7091   -1.0540   24.0417 N   0  0  0  0  0  0  0  0  0  0  0  0
    7.8386    1.0972   23.9777 O   0  0  0  0  0  0  0  0  0  0  0  0
   14.0443   -2.0643   22.3854 Cl  0  0  0  0  0  0  0  0  0  0  0  0
    9.3498   -1.2472   18.7686 H   0  0  0  0  0  0  0  0  0  0  0  0
    8.6220   -1.9918   23.6612 H   0  0  0  0  0  0  0  0  0  0  0  0
  1  4  1  0  0  0  0
  1  5  2  0  0  0  0
  2  3  2  0  0  0  0
  2  7  1  0  0  0  0
  3  9  1  0  0  0  0
  4 10  2  0  0  0  0
  5 12  1  0  0  0  0
  6 10  1  0  0  0  0
  6 12  2  0  0  0  0
  7 17  2  0  0  0  0
  8 11  2  0  0  0  0
  8 18  1  0  0  0  0
  9 11  1  0  0  0  0
  9 13  2  0  0  0  0
 10 16  1  0  0  0  0
 11 15  1  0  0  0  0
 12 21  1  0  0  0  0
 13 17  1  0  0  0  0
 13 18  1  0  0  0  0
 14 15  1  0  0  0  0
 14 19  1  0  0  0  0
 14 20  2  0  0  0  0
 16 19  1  0  0  0  0
 18 22  1  0  0  0  0
 19 23  1  0  0  0  0
M  END
> <ref_mols>
x2482_0

> <original SMILES>
ClC=1C=CC=C(CNC(=O)CC2=CNC=3N=CC=CC23)C1

> <Chemgauss4>
-10.682974

> <ref_pdb>
x0678_0

$$$$
x2650
  -OEChem-05172015543D

 23 25  0     0  0  0  0  0  0999 V2000
   12.6106    1.3741   23.8416 C   0  0  0  0  0  0  0  0  0  0  0  0
    5.3883    1.4273   18.6001 C   0  0  0  0  0  0  0  0  0  0  0  0
    5.6248    0.9296   19.8802 C   0  0  0  0  0  0  0  0  0  0  0  0
   11.4116    0.9738   24.4311 C   0  0  0  0  0  0  0  0  0  0  0  0
   13.4245    0.4345   23.2087 C   0  0  0  0  0  0  0  0  0  0  0  0
   11.8402   -1.3057   23.7550 C   0  0  0  0  0  0  0  0  0  0  0  0
    6.2782    1.1063   17.5839 C   0  0  0  0  0  0  0  0  0  0  0  0
    8.4836   -1.1891   20.7040 C   0  0  0  0  0  0  0  0  0  0  0  0
    6.7595    0.1248   20.0716 C   0  0  0  0  0  0  0  0  0  0  0  0
   11.0264   -0.3661   24.3879 C   0  0  0  0  0  0  0  0  0  0  0  0
    7.3492   -0.5586   21.1678 C   0  0  0  0  0  0  0  0  0  0  0  0
   13.0393   -0.9054   23.1654 C   0  0  0  0  0  0  0  0  0  0  0  0
    7.5671   -0.1173   18.9642 C   0  0  0  0  0  0  0  0  0  0  0  0
    7.8366   -0.0707   23.5972 C   0  0  0  0  0  0  0  0  0  0  0  0
    6.8472   -0.5935   22.5560 C   0  0  0  0  0  0  0  0  0  0  0  0
    9.7362   -0.7965   25.0237 C   0  0  0  0  0  0  0  0  0  0  0  0
    7.3849    0.3376   17.7100 N   0  0  0  0  0  0  0  0  0  0  0  0
    8.6062   -0.9144   19.3666 N   0  0  0  0  0  0  0  0  0  0  0  0
    8.7091   -1.0540   24.0417 N   0  0  0  0  0  0  0  0  0  0  0  0
    7.8386    1.0972   23.9777 O   0  0  0  0  0  0  0  0  0  0  0  0
   14.0443   -2.0643   22.3854 Cl  0  0  0  0  0  0  0  0  0  0  0  0
    9.3498   -1.2472   18.7686 H   0  0  0  0  0  0  0  0  0  0  0  0
    8.6220   -1.9918   23.6612 H   0  0  0  0  0  0  0  0  0  0  0  0
  1  4  1  0  0  0  0
  1  5  2  0  0  0  0
  2  3  2  0  0  0  0
  2  7  1  0  0  0  0
  3  9  1  0  0  0  0
  4 10  2  0  0  0  0
  5 12  1  0  0  0  0
  6 10  1  0  0  0  0
  6 12  2  0  0  0  0
  7 17  2  0  0  0  0
  8 11  2  0  0  0  0
  8 18  1  0  0  0  0
  9 11  1  0  0  0  0
  9 13  2  0  0  0  0
 10 16  1  0  0  0  0
 11 15  1  0  0  0  0
 12 21  1  0  0  0  0
 13 17  1  0  0  0  0
 13 18  1  0  0  0  0
 14 15  1  0  0  0  0
 14 19  1  0  0  0  0
 14 20  2  0  0  0  0
 16 19  1  0  0  0  0
 18 22  1  0  0  0  0
 19 23  1  0  0  0  0
M  END
> <ref_mols>
x2650_0

> <original SMILES>
ClC=1C=CC=C(CNC(=O)CC2=CNC=3N=CC=CC23)C1

> <Chemgauss4>
-10.682974

> <ref_pdb>
x0678_0

$$$$
x0511
  -OEChem-05172015543D

 21 22  0     0  0  0  0  0  0999 V2000
    6.0869    0.6109   20.6276 C   0  0  0  0  0  0  0  0  0  0  0  0
    7.4055    0.2555   20.9112 C   0  0  0  0  0  0  0  0  0  0  0  0
   13.8590   -1.4492   21.8949 C   0  0  0  0  0  0  0  0  0  0  0  0
   12.1611   -1.1766   23.5919 C   0  0  0  0  0  0  0  0  0  0  0  0
    5.6913    0.8272   19.3076 C   0  0  0  0  0  0  0  0  0  0  0  0
   14.7922   -1.7711   22.8803 C   0  0  0  0  0  0  0  0  0  0  0  0
   13.0943   -1.4985   24.5773 C   0  0  0  0  0  0  0  0  0  0  0  0
    7.9332    0.3330   18.5548 C   0  0  0  0  0  0  0  0  0  0  0  0
   12.5434   -1.1519   22.2507 C   0  0  0  0  0  0  0  0  0  0  0  0
    8.3287    0.1166   19.8749 C   0  0  0  0  0  0  0  0  0  0  0  0
    6.6145    0.6882   18.2712 C   0  0  0  0  0  0  0  0  0  0  0  0
   14.4099   -1.7958   24.2215 C   0  0  0  0  0  0  0  0  0  0  0  0
   10.2409   -0.5007   21.4182 C   0  0  0  0  0  0  0  0  0  0  0  0
   11.6099   -0.8297   21.2652 N   0  0  0  0  0  0  0  0  0  0  0  0
    9.6662   -0.2441   20.1630 N   0  0  0  0  0  0  0  0  0  0  0  0
    9.6507   -0.4495   22.4926 O   0  0  0  0  0  0  0  0  0  0  0  0
    6.2287    0.8995   16.9831 O   0  0  0  0  0  0  0  0  0  0  0  0
   15.3057   -2.1060   25.1679 F   0  0  0  0  0  0  0  0  0  0  0  0
   11.9618   -0.8312   20.3019 H   0  0  0  0  0  0  0  0  0  0  0  0
   10.2815   -0.3264   19.3576 H   0  0  0  0  0  0  0  0  0  0  0  0
    5.2886    1.1380   16.9484 H   0  0  0  0  0  0  0  0  0  0  0  0
  1  2  1  0  0  0  0
  1  5  2  0  0  0  0
  2 10  2  0  0  0  0
  3  6  2  0  0  0  0
  3  9  1  0  0  0  0
  4  7  1  0  0  0  0
  4  9  2  0  0  0  0
  5 11  1  0  0  0  0
  6 12  1  0  0  0  0
  7 12  2  0  0  0  0
  8 10  1  0  0  0  0
  8 11  2  0  0  0  0
  9 14  1  0  0  0  0
 10 15  1  0  0  0  0
 11 17  1  0  0  0  0
 12 18  1  0  0  0  0
 13 14  1  0  0  0  0
 13 15  1  0  0  0  0
 13 16  2  0  0  0  0
 14 19  1  0  0  0  0
 15 20  1  0  0  0  0
 17 21  1  0  0  0  0
M  END
> <ref_mols>
x0511_0

> <original SMILES>
OC=1C=CC=C(NC(=O)NC=2C=CC(F)=CC2)C1

> <Chemgauss4>
-10.646367

> <ref_pdb>
x0678_0

$$$$
x2811
  -OEChem-05172015543D

 17 18  0     0  0  0  0  0  0999 V2000
    5.6607    1.0211   18.9004 C   0  0  0  0  0  0  0  0  0  0  0  0
    6.2679    0.8679   20.1418 C   0  0  0  0  0  0  0  0  0  0  0  0
    6.4404    0.8374   17.7699 C   0  0  0  0  0  0  0  0  0  0  0  0
    8.3094    0.3778   19.0245 C   0  0  0  0  0  0  0  0  0  0  0  0
   13.2266   -0.4742   24.2557 C   0  0  0  0  0  0  0  0  0  0  0  0
    7.6173    0.5402   20.2138 C   0  0  0  0  0  0  0  0  0  0  0  0
   13.1712   -1.0083   22.9922 C   0  0  0  0  0  0  0  0  0  0  0  0
   11.3028   -0.0957   23.4947 C   0  0  0  0  0  0  0  0  0  0  0  0
    9.6009    0.6199   21.7642 C   0  0  0  0  0  0  0  0  0  0  0  0
   14.1126   -1.7345   22.1342 C   0  0  0  0  0  0  0  0  0  0  0  0
    9.8785    0.3155   23.2279 C   0  0  0  0  0  0  0  0  0  0  0  0
    7.7538    0.5185   17.8000 N   0  0  0  0  0  0  0  0  0  0  0  0
   12.0265    0.1095   24.5719 N   0  0  0  0  0  0  0  0  0  0  0  0
    8.2528    0.3804   21.4427 N   0  0  0  0  0  0  0  0  0  0  0  0
   10.4741    1.0192   21.0006 O   0  0  0  0  0  0  0  0  0  0  0  0
   11.9280   -0.7684   22.4899 O   0  0  0  0  0  0  0  0  0  0  0  0
    7.6611    0.0446   22.2130 H   0  0  0  0  0  0  0  0  0  0  0  0
  1  2  2  0  0  0  0
  1  3  1  0  0  0  0
  2  6  1  0  0  0  0
  3 12  2  0  0  0  0
  4  6  2  0  0  0  0
  4 12  1  0  0  0  0
  5  7  2  0  0  0  0
  5 13  1  0  0  0  0
  6 14  1  0  0  0  0
  7 10  1  0  0  0  0
  7 16  1  0  0  0  0
  8 11  1  0  0  0  0
  8 13  2  0  0  0  0
  8 16  1  0  0  0  0
  9 11  1  0  0  0  0
  9 14  1  0  0  0  0
  9 15  2  0  0  0  0
 14 17  1  0  0  0  0
M  END
> <ref_mols>
x2811_0

> <original SMILES>
CC1=CN=C(CC(=O)NC=2C=CC=NC2)O1

> <Chemgauss4>
-10.643672

> <ref_pdb>
x0678_0

$$$$
x0391
  -OEChem-05172015543D

 19 21  0     1  0  0  0  0  0999 V2000
   13.4930   -1.2769   24.4978 C   0  0  0  0  0  0  0  0  0  0  0  0
   14.2355   -1.1519   23.3265 C   0  0  0  0  0  0  0  0  0  0  0  0
   12.4458   -0.3933   24.7572 C   0  0  0  0  0  0  0  0  0  0  0  0
   13.9341   -0.1408   22.4148 C   0  0  0  0  0  0  0  0  0  0  0  0
    9.8647    6.5937   23.2356 C   0  0  0  0  0  0  0  0  0  0  0  0
   12.1267    0.6211   23.8431 C   0  0  0  0  0  0  0  0  0  0  0  0
   12.8897    0.7584   22.6701 C   0  0  0  0  0  0  0  0  0  0  0  0
   11.6063    6.0591   24.3364 C   0  0  0  0  0  0  0  0  0  0  0  0
   11.5441    5.1677   23.2914 C   0  0  0  0  0  0  0  0  0  0  0  0
   11.0149    1.5871   24.1668 C   0  0  0  0  0  0  0  0  0  0  0  0
   12.5618    1.8188   21.6553 C   0  0  0  0  0  0  0  0  0  0  0  0
   10.5127    2.3697   22.9580 C   0  0  0  0  0  0  0  0  0  0  0  0
   12.6123    6.1453   25.4069 C   0  0  0  0  0  0  0  0  0  0  0  0
   12.4218    4.0237   22.8769 C   0  0  0  0  0  0  0  0  0  0  0  0
   10.5579    6.9439   24.2962 N   0  0  0  0  0  0  0  0  0  0  0  0
   10.4230    5.5224   22.5952 N   0  0  0  0  0  0  0  0  0  0  0  0
   11.6693    2.9295   22.1693 N   0  3  1  0  0  0  0  0  0  0  0  0
   10.0698    5.0774   21.7585 H   0  0  0  0  0  0  0  0  0  0  0  0
   11.2482    3.3807   21.3176 H   0  0  0  0  0  0  0  0  0  0  0  0
  1  2  1  0  0  0  0
  1  3  2  0  0  0  0
  2  4  2  0  0  0  0
  3  6  1  0  0  0  0
  4  7  1  0  0  0  0
  5 15  2  0  0  0  0
  5 16  1  0  0  0  0
  6  7  2  0  0  0  0
  6 10  1  0  0  0  0
  7 11  1  0  0  0  0
  8  9  2  0  0  0  0
  8 13  1  0  0  0  0
  8 15  1  0  0  0  0
  9 14  1  0  0  0  0
  9 16  1  0  0  0  0
 10 12  1  0  0  0  0
 11 17  1  0  0  0  0
 12 17  1  0  0  0  0
 14 17  1  0  0  0  0
 16 18  1  0  0  0  0
 17 19  1  0  0  0  0
M  CHG  1  17   1
M  END
> <ref_mols>
x0391_0

> <original SMILES>
CC=1NC=NC1CN2CCC=3C=CC=CC3C2

> <Chemgauss4>
-10.638167

> <ref_pdb>
x0161_0

$$$$
x2585
  -OEChem-05172015543D

 26 28  0     1  0  0  0  0  0999 V2000
   14.3287   -2.2505   24.0454 C   0  0  0  0  0  0  0  0  0  0  0  0
   13.4118   -3.0628   23.3935 C   0  0  0  0  0  0  0  0  0  0  0  0
   14.2362   -0.8700   23.9117 C   0  0  0  0  0  0  0  0  0  0  0  0
   12.4079   -2.4945   22.6030 C   0  0  0  0  0  0  0  0  0  0  0  0
    5.2958    1.3582   18.0560 C   0  0  0  0  0  0  0  0  0  0  0  0
    6.2409    0.8873   17.1714 C   0  0  0  0  0  0  0  0  0  0  0  0
    6.5819    0.6477   19.8083 C   0  0  0  0  0  0  0  0  0  0  0  0
   13.2219   -0.2911   23.1277 C   0  0  0  0  0  0  0  0  0  0  0  0
   12.2892   -1.1000   22.4370 C   0  0  0  0  0  0  0  0  0  0  0  0
    7.5267    0.1761   18.9238 C   0  0  0  0  0  0  0  0  0  0  0  0
   10.8056    1.7792   23.5586 C   0  0  0  0  0  0  0  0  0  0  0  0
    9.0181   -0.6403   20.7822 C   0  0  0  0  0  0  0  0  0  0  0  0
   13.1841    1.2158   23.0198 C   0  0  0  0  0  0  0  0  0  0  0  0
   11.3788    0.8926   21.3055 C   0  0  0  0  0  0  0  0  0  0  0  0
   11.8548    1.7349   22.4828 C   0  0  1  0  0  0  0  0  0  0  0  0
   10.3531   -1.3499   20.9004 C   0  0  0  0  0  0  0  0  0  0  0  0
    5.4494    1.2469   19.3903 N   0  0  0  0  0  0  0  0  0  0  0  0
    7.3733    0.2877   17.5894 N   0  0  0  0  0  0  0  0  0  0  0  0
   11.2878   -0.5258   21.6538 N   0  0  1  0  0  0  0  0  0  0  0  0
    9.8799    2.7815   23.3895 N   0  0  0  0  0  0  0  0  0  0  0  0
    8.6906   -0.4385   19.4440 N   0  0  0  0  0  0  0  0  0  0  0  0
   10.7864    0.9728   24.4854 O   0  0  0  0  0  0  0  0  0  0  0  0
    8.3573   -0.3223   21.7658 O   0  0  0  0  0  0  0  0  0  0  0  0
    9.9667    3.3940   22.5852 H   0  0  0  0  0  0  0  0  0  0  0  0
    9.1131    2.9334   24.0368 H   0  0  0  0  0  0  0  0  0  0  0  0
    9.3566   -0.7666   18.7478 H   0  0  0  0  0  0  0  0  0  0  0  0
  1  2  1  0  0  0  0
  1  3  2  0  0  0  0
  2  4  2  0  0  0  0
  3  8  1  0  0  0  0
  4  9  1  0  0  0  0
  5  6  2  0  0  0  0
  5 17  1  0  0  0  0
  6 18  1  0  0  0  0
  7 10  1  0  0  0  0
  7 17  2  0  0  0  0
  8  9  2  0  0  0  0
  8 13  1  0  0  0  0
  9 19  1  0  0  0  0
 10 18  2  0  0  0  0
 10 21  1  0  0  0  0
 11 15  1  0  0  0  0
 11 20  1  0  0  0  0
 11 22  2  0  0  0  0
 12 16  1  0  0  0  0
 12 21  1  0  0  0  0
 12 23  2  0  0  0  0
 13 15  1  0  0  0  0
 14 15  1  0  0  0  0
 14 19  1  0  0  0  0
 16 19  1  0  0  0  0
 20 24  1  0  0  0  0
 20 25  1  0  0  0  0
 21 26  1  0  0  0  0
M  END
> <ref_mols>
x2585_0

> <original SMILES>
NC(=O)C1CN(CC(=O)NC=2C=NC=CN2)C=3C=CC=CC3C1

> <Chemgauss4>
-10.617538

> <ref_pdb>
x0678_0

$$$$
x1245
  -OEChem-05172015543D

 19 20  0     0  0  0  0  0  0999 V2000
   14.2294   -1.3208   22.8176 C   0  0  0  0  0  0  0  0  0  0  0  0
   13.8225   -0.8992   24.0834 C   0  0  0  0  0  0  0  0  0  0  0  0
   13.3570   -1.2172   21.7341 C   0  0  0  0  0  0  0  0  0  0  0  0
   11.6708   -0.2704   23.1823 C   0  0  0  0  0  0  0  0  0  0  0  0
    5.8289    1.0835   19.0445 C   0  0  0  0  0  0  0  0  0  0  0  0
   12.5432   -0.3740   24.2658 C   0  0  0  0  0  0  0  0  0  0  0  0
   12.0777   -0.6920   21.9165 C   0  0  0  0  0  0  0  0  0  0  0  0
    6.3099    0.6443   17.8288 C   0  0  0  0  0  0  0  0  0  0  0  0
    8.0806    0.2278   19.0539 C   0  0  0  0  0  0  0  0  0  0  0  0
    9.8806   -0.0886   20.8087 C   0  0  0  0  0  0  0  0  0  0  0  0
   12.1087    0.0766   25.6192 C   0  0  0  0  0  0  0  0  0  0  0  0
    5.5683    0.6581   16.5523 C   0  0  0  0  0  0  0  0  0  0  0  0
    7.6010    0.1536   17.8322 N   0  0  0  0  0  0  0  0  0  0  0  0
   11.2057   -0.5879   20.8324 N   0  0  0  0  0  0  0  0  0  0  0  0
    9.3625   -0.1651   19.5059 N   0  0  0  0  0  0  0  0  0  0  0  0
    9.2801    0.3454   21.7866 O   0  0  0  0  0  0  0  0  0  0  0  0
    7.0330    0.8768   20.2482 S   0  0  0  0  0  0  0  0  0  0  0  0
   11.5730   -0.9166   19.9331 H   0  0  0  0  0  0  0  0  0  0  0  0
    9.9793   -0.5500   18.7949 H   0  0  0  0  0  0  0  0  0  0  0  0
  1  2  1  0  0  0  0
  1  3  2  0  0  0  0
  2  6  2  0  0  0  0
  3  7  1  0  0  0  0
  4  6  1  0  0  0  0
  4  7  2  0  0  0  0
  5  8  2  0  0  0  0
  5 17  1  0  0  0  0
  6 11  1  0  0  0  0
  7 14  1  0  0  0  0
  8 12  1  0  0  0  0
  8 13  1  0  0  0  0
  9 13  2  0  0  0  0
  9 15  1  0  0  0  0
  9 17  1  0  0  0  0
 10 14  1  0  0  0  0
 10 15  1  0  0  0  0
 10 16  2  0  0  0  0
 14 18  1  0  0  0  0
 15 19  1  0  0  0  0
M  END
> <ref_mols>
x1245_0

> <original SMILES>
CC1=CSC(NC(=O)NC=2C=CC=C(C)C2)=N1

> <Chemgauss4>
-10.544705

> <ref_pdb>
x0678_0

$$$$
x0367
  -OEChem-05172015543D

 19 20  0     0  0  0  0  0  0999 V2000
   14.2294   -1.3208   22.8176 C   0  0  0  0  0  0  0  0  0  0  0  0
   13.8225   -0.8992   24.0834 C   0  0  0  0  0  0  0  0  0  0  0  0
   13.3570   -1.2172   21.7341 C   0  0  0  0  0  0  0  0  0  0  0  0
   11.6708   -0.2704   23.1823 C   0  0  0  0  0  0  0  0  0  0  0  0
    5.8289    1.0835   19.0445 C   0  0  0  0  0  0  0  0  0  0  0  0
   12.5432   -0.3740   24.2658 C   0  0  0  0  0  0  0  0  0  0  0  0
   12.0777   -0.6920   21.9165 C   0  0  0  0  0  0  0  0  0  0  0  0
    6.3099    0.6443   17.8288 C   0  0  0  0  0  0  0  0  0  0  0  0
    8.0806    0.2278   19.0539 C   0  0  0  0  0  0  0  0  0  0  0  0
    9.8806   -0.0886   20.8087 C   0  0  0  0  0  0  0  0  0  0  0  0
   12.1087    0.0766   25.6192 C   0  0  0  0  0  0  0  0  0  0  0  0
    5.5683    0.6581   16.5523 C   0  0  0  0  0  0  0  0  0  0  0  0
    7.6010    0.1536   17.8322 N   0  0  0  0  0  0  0  0  0  0  0  0
   11.2057   -0.5879   20.8324 N   0  0  0  0  0  0  0  0  0  0  0  0
    9.3625   -0.1651   19.5059 N   0  0  0  0  0  0  0  0  0  0  0  0
    9.2801    0.3454   21.7866 O   0  0  0  0  0  0  0  0  0  0  0  0
    7.0330    0.8768   20.2482 S   0  0  0  0  0  0  0  0  0  0  0  0
   11.5730   -0.9166   19.9331 H   0  0  0  0  0  0  0  0  0  0  0  0
    9.9793   -0.5500   18.7949 H   0  0  0  0  0  0  0  0  0  0  0  0
  1  2  1  0  0  0  0
  1  3  2  0  0  0  0
  2  6  2  0  0  0  0
  3  7  1  0  0  0  0
  4  6  1  0  0  0  0
  4  7  2  0  0  0  0
  5  8  2  0  0  0  0
  5 17  1  0  0  0  0
  6 11  1  0  0  0  0
  7 14  1  0  0  0  0
  8 12  1  0  0  0  0
  8 13  1  0  0  0  0
  9 13  2  0  0  0  0
  9 15  1  0  0  0  0
  9 17  1  0  0  0  0
 10 14  1  0  0  0  0
 10 15  1  0  0  0  0
 10 16  2  0  0  0  0
 14 18  1  0  0  0  0
 15 19  1  0  0  0  0
M  END
> <ref_mols>
x0367_0

> <original SMILES>
CC1=CSC(NC(=O)NC=2C=CC=C(C)C2)=N1

> <Chemgauss4>
-10.544705

> <ref_pdb>
x0678_0

$$$$
x2601
  -OEChem-05172015543D

 17 18  0     0  0  0  0  0  0999 V2000
    5.5752    1.2562   18.9232 C   0  0  0  0  0  0  0  0  0  0  0  0
    6.1850    1.1022   20.1632 C   0  0  0  0  0  0  0  0  0  0  0  0
    6.3104    0.9325   17.7942 C   0  0  0  0  0  0  0  0  0  0  0  0
    8.1422    0.3397   19.0477 C   0  0  0  0  0  0  0  0  0  0  0  0
    7.4929    0.6358   20.2354 C   0  0  0  0  0  0  0  0  0  0  0  0
   13.2390   -1.3151   23.4231 C   0  0  0  0  0  0  0  0  0  0  0  0
   11.1486   -0.2236   23.4988 C   0  0  0  0  0  0  0  0  0  0  0  0
    9.5015    0.5812   21.7545 C   0  0  0  0  0  0  0  0  0  0  0  0
   14.4336   -2.1065   23.0655 C   0  0  0  0  0  0  0  0  0  0  0  0
    9.7715    0.3238   23.2286 C   0  0  0  0  0  0  0  0  0  0  0  0
    7.5827    0.4767   17.8246 N   0  0  0  0  0  0  0  0  0  0  0  0
   13.0823   -0.6384   24.5409 N   0  0  0  0  0  0  0  0  0  0  0  0
   11.8557    0.0009   24.5857 N   0  0  0  0  0  0  0  0  0  0  0  0
    8.1299    0.4716   21.4629 N   0  0  0  0  0  0  0  0  0  0  0  0
   10.3983    0.8452   20.9601 O   0  0  0  0  0  0  0  0  0  0  0  0
   11.9137   -1.2276   22.3378 S   0  0  0  0  0  0  0  0  0  0  0  0
    7.5199    0.2409   22.2572 H   0  0  0  0  0  0  0  0  0  0  0  0
  1  2  2  0  0  0  0
  1  3  1  0  0  0  0
  2  5  1  0  0  0  0
  3 11  2  0  0  0  0
  4  5  2  0  0  0  0
  4 11  1  0  0  0  0
  5 14  1  0  0  0  0
  6  9  1  0  0  0  0
  6 12  2  0  0  0  0
  6 16  1  0  0  0  0
  7 10  1  0  0  0  0
  7 13  2  0  0  0  0
  7 16  1  0  0  0  0
  8 10  1  0  0  0  0
  8 14  1  0  0  0  0
  8 15  2  0  0  0  0
 12 13  1  0  0  0  0
 14 17  1  0  0  0  0
M  END
> <ref_mols>
x2601_0

> <original SMILES>
CC1=NN=C(CC(=O)NC=2C=CC=NC2)S1

> <Chemgauss4>
-10.544547

> <ref_pdb>
x0678_0

$$$$
x2563
  -OEChem-05172015543D

 21 23  0     0  0  0  0  0  0999 V2000
   14.5035   -1.6332   23.3349 C   0  0  0  0  0  0  0  0  0  0  0  0
    3.8281    1.7710   20.0987 C   0  0  0  0  0  0  0  0  0  0  0  0
    4.4980    1.8697   21.3160 C   0  0  0  0  0  0  0  0  0  0  0  0
   13.9424   -0.7470   24.2544 C   0  0  0  0  0  0  0  0  0  0  0  0
   13.8698   -1.8655   22.1141 C   0  0  0  0  0  0  0  0  0  0  0  0
    4.5140    1.3625   18.9552 C   0  0  0  0  0  0  0  0  0  0  0  0
    5.8570    1.5604   21.3952 C   0  0  0  0  0  0  0  0  0  0  0  0
   12.7476   -0.0933   23.9532 C   0  0  0  0  0  0  0  0  0  0  0  0
   12.6750   -1.2117   21.8130 C   0  0  0  0  0  0  0  0  0  0  0  0
    6.6167    0.6349   17.9106 C   0  0  0  0  0  0  0  0  0  0  0  0
    8.5522    0.4302   19.1300 C   0  0  0  0  0  0  0  0  0  0  0  0
    5.8816    1.0486   19.0233 C   0  0  0  0  0  0  0  0  0  0  0  0
    6.5634    1.1473   20.2537 C   0  0  0  0  0  0  0  0  0  0  0  0
    7.9259    0.8302   20.3006 C   0  0  0  0  0  0  0  0  0  0  0  0
   12.1139   -0.3256   22.7325 C   0  0  0  0  0  0  0  0  0  0  0  0
    9.8614   -0.1219   21.6237 C   0  0  0  0  0  0  0  0  0  0  0  0
    8.7333    0.9035   21.5541 C   0  0  0  0  0  0  0  0  0  0  0  0
    7.9325    0.3243   17.9353 N   0  0  0  0  0  0  0  0  0  0  0  0
   10.9017    0.3379   22.4271 N   0  0  0  0  0  0  0  0  0  0  0  0
    9.8011   -1.1918   21.0264 O   0  0  0  0  0  0  0  0  0  0  0  0
   10.7756    1.2583   22.8432 H   0  0  0  0  0  0  0  0  0  0  0  0
  1  4  1  0  0  0  0
  1  5  2  0  0  0  0
  2  3  1  0  0  0  0
  2  6  2  0  0  0  0
  3  7  2  0  0  0  0
  4  8  2  0  0  0  0
  5  9  1  0  0  0  0
  6 12  1  0  0  0  0
  7 13  1  0  0  0  0
  8 15  1  0  0  0  0
  9 15  2  0  0  0  0
 10 12  2  0  0  0  0
 10 18  1  0  0  0  0
 11 14  1  0  0  0  0
 11 18  2  0  0  0  0
 12 13  1  0  0  0  0
 13 14  2  0  0  0  0
 14 17  1  0  0  0  0
 15 19  1  0  0  0  0
 16 17  1  0  0  0  0
 16 19  1  0  0  0  0
 16 20  2  0  0  0  0
 19 21  1  0  0  0  0
M  END
> <ref_mols>
x2563_0

> <original SMILES>
O=C(CC=1C=NC=C2C=CC=CC12)NC=3C=CC=CC3

> <Chemgauss4>
-10.520862

> <ref_pdb>
x0678_0

$$$$
x0508
  -OEChem-05172015543D

 14 14  0     0  0  0  0  0  0999 V2000
    4.7501    1.3774   19.2136 C   0  0  0  0  0  0  0  0  0  0  0  0
    5.1303    2.1005   18.0886 C   0  0  0  0  0  0  0  0  0  0  0  0
    5.3566    0.1562   19.4860 C   0  0  0  0  0  0  0  0  0  0  0  0
    6.1139    1.5631   17.2741 C   0  0  0  0  0  0  0  0  0  0  0  0
    6.3300   -0.2943   18.6088 C   0  0  0  0  0  0  0  0  0  0  0  0
    7.0052   -1.5799   18.8467 C   0  0  0  0  0  0  0  0  0  0  0  0
    6.4997   -3.4902   21.0950 C   0  0  0  0  0  0  0  0  0  0  0  0
    8.3542   -0.5858   20.6539 C   0  0  0  0  0  0  0  0  0  0  0  0
    7.8977   -3.0113   20.7413 C   0  0  0  0  0  0  0  0  0  0  0  0
    6.7258    0.3801   17.5060 N   0  0  0  0  0  0  0  0  0  0  0  0
    7.7216   -1.7431   20.0369 N   0  0  0  0  0  0  0  0  0  0  0  0
    5.7307   -3.6771   20.1100 O   0  5  0  0  0  0  0  0  0  0  0  0
    6.8749   -2.4336   17.9702 O   0  0  0  0  0  0  0  0  0  0  0  0
    6.2839   -3.6534   22.3292 O   0  0  0  0  0  0  0  0  0  0  0  0
  1  2  1  0  0  0  0
  1  3  2  0  0  0  0
  2  4  2  0  0  0  0
  3  5  1  0  0  0  0
  4 10  1  0  0  0  0
  5  6  1  0  0  0  0
  5 10  2  0  0  0  0
  6 11  1  0  0  0  0
  6 13  2  0  0  0  0
  7  9  1  0  0  0  0
  7 12  1  0  0  0  0
  7 14  2  0  0  0  0
  8 11  1  0  0  0  0
  9 11  1  0  0  0  0
M  CHG  1  12  -1
M  END
> <ref_mols>
x0508_0

> <original SMILES>
CN(CC(=O)O)C(=O)C=1C=CC=CN1

> <Chemgauss4>
-10.517735

> <ref_pdb>
x0397_0

$$$$
x2800
  -OEChem-05172015543D

 28 31  0     1  0  0  0  0  0999 V2000
   10.6972    5.7091   22.9328 C   0  0  0  0  0  0  0  0  0  0  0  0
   11.2420    4.6675   22.1821 C   0  0  0  0  0  0  0  0  0  0  0  0
    9.8366    5.4281   23.9940 C   0  0  0  0  0  0  0  0  0  0  0  0
   13.9017   -2.5122   22.8584 C   0  0  0  0  0  0  0  0  0  0  0  0
   14.6219   -1.8044   23.8235 C   0  0  0  0  0  0  0  0  0  0  0  0
   10.9263    3.3447   22.4925 C   0  0  0  0  0  0  0  0  0  0  0  0
    9.5208    4.1054   24.3044 C   0  0  0  0  0  0  0  0  0  0  0  0
   12.6154   -2.1088   22.4784 C   0  0  0  0  0  0  0  0  0  0  0  0
   14.0855   -0.6706   24.4428 C   0  0  0  0  0  0  0  0  0  0  0  0
    8.1052    0.1462   18.8335 C   0  0  0  0  0  0  0  0  0  0  0  0
   10.0657    3.0637   23.5537 C   0  0  0  0  0  0  0  0  0  0  0  0
   12.0610   -0.9720   23.0905 C   0  0  0  0  0  0  0  0  0  0  0  0
   12.8032   -0.2874   24.0487 C   0  0  0  0  0  0  0  0  0  0  0  0
    7.1494    0.5208   19.7441 C   0  0  0  0  0  0  0  0  0  0  0  0
   10.8269    0.6520   23.7222 C   0  0  0  0  0  0  0  0  0  0  0  0
    8.5432    1.1234   21.7619 C   0  0  0  0  0  0  0  0  0  0  0  0
   12.3093    1.7544   25.4209 C   0  0  0  0  0  0  0  0  0  0  0  0
    4.7264    1.1312   19.4060 C   0  0  0  0  0  0  0  0  0  0  0  0
    7.1843    0.6993   21.2388 C   0  0  0  0  0  0  0  0  0  0  0  0
    9.7189    1.6140   23.8943 C   0  0  2  0  0  0  0  0  0  0  0  0
    7.5638    0.1333   17.5781 N   0  0  0  0  0  0  0  0  0  0  0  0
   10.8364   -0.3738   22.9009 N   0  0  0  0  0  0  0  0  0  0  0  0
    6.2888    0.4927   17.6797 N   0  0  0  0  0  0  0  0  0  0  0  0
   11.9894    0.7465   24.4355 N   0  0  0  0  0  0  0  0  0  0  0  0
    6.0424    0.7247   18.9791 N   0  0  0  0  0  0  0  0  0  0  0  0
    8.5161    1.2201   23.1268 N   0  0  0  0  0  0  0  0  0  0  0  0
    9.5118    1.3380   21.0375 O   0  0  0  0  0  0  0  0  0  0  0  0
    7.6671    1.0208   23.6150 H   0  0  0  0  0  0  0  0  0  0  0  0
  1  2  1  0  0  0  0
  1  3  2  0  0  0  0
  2  6  2  0  0  0  0
  3  7  1  0  0  0  0
  4  5  1  0  0  0  0
  4  8  2  0  0  0  0
  5  9  2  0  0  0  0
  6 11  1  0  0  0  0
  7 11  2  0  0  0  0
  8 12  1  0  0  0  0
  9 13  1  0  0  0  0
 10 14  2  0  0  0  0
 10 21  1  0  0  0  0
 11 20  1  0  0  0  0
 12 13  2  0  0  0  0
 12 22  1  0  0  0  0
 13 24  1  0  0  0  0
 14 19  1  0  0  0  0
 14 25  1  0  0  0  0
 15 20  1  0  0  0  0
 15 22  2  0  0  0  0
 15 24  1  0  0  0  0
 16 19  1  0  0  0  0
 16 26  1  0  0  0  0
 16 27  2  0  0  0  0
 17 24  1  0  0  0  0
 18 25  1  0  0  0  0
 20 26  1  0  0  0  0
 21 23  2  0  0  0  0
 23 25  1  0  0  0  0
 26 28  1  0  0  0  0
M  END
> <ref_mols>
x2800_0

> <original SMILES>
CN1N=NC=C1CC(=O)NC(C2=NC=3C=CC=CC3N2C)C=4C=CC=CC4

> <Chemgauss4>
-10.500115

> <ref_pdb>
x0678_0

$$$$
x2820
  -OEChem-05172015543D

 19 20  0     0  0  0  0  0  0999 V2000
   14.2238   -0.9928   23.9289 C   0  0  0  0  0  0  0  0  0  0  0  0
   13.2682   -0.4429   24.7832 C   0  0  0  0  0  0  0  0  0  0  0  0
   13.9351   -1.1595   22.5745 C   0  0  0  0  0  0  0  0  0  0  0  0
   12.0237   -0.0598   24.2832 C   0  0  0  0  0  0  0  0  0  0  0  0
   12.6905   -0.7765   22.0744 C   0  0  0  0  0  0  0  0  0  0  0  0
    5.7813    1.2555   18.8360 C   0  0  0  0  0  0  0  0  0  0  0  0
    6.3228    0.7972   17.6459 C   0  0  0  0  0  0  0  0  0  0  0  0
    8.3046    0.2321   18.6615 C   0  0  0  0  0  0  0  0  0  0  0  0
    6.5689    1.1841   19.9796 C   0  0  0  0  0  0  0  0  0  0  0  0
   11.7348   -0.2266   22.9288 C   0  0  0  0  0  0  0  0  0  0  0  0
    7.8559    0.6641   19.8992 C   0  0  0  0  0  0  0  0  0  0  0  0
   10.0066    0.0714   21.1003 C   0  0  0  0  0  0  0  0  0  0  0  0
    6.0104    1.6717   21.2761 C   0  0  0  0  0  0  0  0  0  0  0  0
    7.5686    0.2855   17.5287 N   0  0  0  0  0  0  0  0  0  0  0  0
   10.4900    0.1568   22.4288 N   0  0  0  0  0  0  0  0  0  0  0  0
    8.6957    0.5701   21.0340 N   0  0  0  0  0  0  0  0  0  0  0  0
   10.6450   -0.3740   20.1520 O   0  0  0  0  0  0  0  0  0  0  0  0
    9.8384    0.5530   23.1143 H   0  0  0  0  0  0  0  0  0  0  0  0
    8.2947    0.9076   21.9055 H   0  0  0  0  0  0  0  0  0  0  0  0
  1  2  1  0  0  0  0
  1  3  2  0  0  0  0
  2  4  2  0  0  0  0
  3  5  1  0  0  0  0
  4 10  1  0  0  0  0
  5 10  2  0  0  0  0
  6  7  2  0  0  0  0
  6  9  1  0  0  0  0
  7 14  1  0  0  0  0
  8 11  1  0  0  0  0
  8 14  2  0  0  0  0
  9 11  2  0  0  0  0
  9 13  1  0  0  0  0
 10 15  1  0  0  0  0
 11 16  1  0  0  0  0
 12 15  1  0  0  0  0
 12 16  1  0  0  0  0
 12 17  2  0  0  0  0
 15 18  1  0  0  0  0
 16 19  1  0  0  0  0
M  END
> <ref_mols>
x2820_0

> <original SMILES>
CC=1C=CN=CC1NC(=O)NC=2C=CC=CC2

> <Chemgauss4>
-10.495522

> <ref_pdb>
x0678_0

$$$$
x0558
  -OEChem-05172015543D

 18 19  0     0  0  0  0  0  0999 V2000
    6.4052    0.6061   17.7852 C   0  0  0  0  0  0  0  0  0  0  0  0
    5.9962    0.8884   19.0699 C   0  0  0  0  0  0  0  0  0  0  0  0
    8.4140   -0.1358   18.5877 C   0  0  0  0  0  0  0  0  0  0  0  0
    8.0053    0.1471   19.8724 C   0  0  0  0  0  0  0  0  0  0  0  0
   12.9825   -0.5649   24.1218 C   0  0  0  0  0  0  0  0  0  0  0  0
   12.9468   -1.2004   22.9376 C   0  0  0  0  0  0  0  0  0  0  0  0
    8.8887   -0.1055   21.0398 C   0  0  0  0  0  0  0  0  0  0  0  0
   13.9327   -0.9191   25.2276 C   0  0  0  0  0  0  0  0  0  0  0  0
   13.8532   -2.3669   22.6310 C   0  0  0  0  0  0  0  0  0  0  0  0
   15.0674   -1.8392   24.7767 C   0  0  0  0  0  0  0  0  0  0  0  0
   14.5464   -2.9457   23.8673 C   0  0  0  0  0  0  0  0  0  0  0  0
   12.0051   -0.7897   21.8446 C   0  0  0  0  0  0  0  0  0  0  0  0
   10.6900   -1.5413   21.9616 C   0  0  0  0  0  0  0  0  0  0  0  0
    7.6215    0.0889   17.5210 N   0  0  0  0  0  0  0  0  0  0  0  0
    6.7889    0.6640   20.1365 N   0  0  0  0  0  0  0  0  0  0  0  0
    9.7825   -1.1563   20.9053 N   0  0  0  0  0  0  0  0  0  0  0  0
    8.7727    0.5941   22.0425 O   0  0  0  0  0  0  0  0  0  0  0  0
    9.7773   -1.7307   20.0685 H   0  0  0  0  0  0  0  0  0  0  0  0
  1  2  2  0  0  0  0
  1 14  1  0  0  0  0
  2 15  1  0  0  0  0
  3  4  1  0  0  0  0
  3 14  2  0  0  0  0
  4  7  1  0  0  0  0
  4 15  2  0  0  0  0
  5  6  2  0  0  0  0
  5  8  1  0  0  0  0
  6  9  1  0  0  0  0
  6 12  1  0  0  0  0
  7 16  1  0  0  0  0
  7 17  2  0  0  0  0
  8 10  1  0  0  0  0
  9 11  1  0  0  0  0
 10 11  1  0  0  0  0
 12 13  1  0  0  0  0
 13 16  1  0  0  0  0
 16 18  1  0  0  0  0
M  END
> <ref_mols>
x0558_0

> <original SMILES>
O=C(NCCC1=CCCCC1)C=2C=NC=CN2

> <Chemgauss4>
-10.487701

> <ref_pdb>
x0678_0

$$$$
x2579
  -OEChem-05172015543D

 24 25  0     0  0  0  0  0  0999 V2000
    9.3048   -1.5087   24.8874 C   0  0  0  0  0  0  0  0  0  0  0  0
    8.6549   -2.6702   22.8711 C   0  0  0  0  0  0  0  0  0  0  0  0
    8.6438   -2.4688   25.6535 C   0  0  0  0  0  0  0  0  0  0  0  0
    7.9940   -3.6303   23.6372 C   0  0  0  0  0  0  0  0  0  0  0  0
    5.0326    1.0821   19.5384 C   0  0  0  0  0  0  0  0  0  0  0  0
    5.5367    0.9436   18.2553 C   0  0  0  0  0  0  0  0  0  0  0  0
    7.5883    0.2680   19.0379 C   0  0  0  0  0  0  0  0  0  0  0  0
    9.3103   -1.6093   23.4962 C   0  0  0  0  0  0  0  0  0  0  0  0
    5.8766    0.7905   20.6042 C   0  0  0  0  0  0  0  0  0  0  0  0
    7.1805    0.3751   20.3577 C   0  0  0  0  0  0  0  0  0  0  0  0
    7.9885   -3.5296   25.0284 C   0  0  0  0  0  0  0  0  0  0  0  0
    9.3991   -0.3579   21.2986 C   0  0  0  0  0  0  0  0  0  0  0  0
    5.3595    0.9319   21.9982 C   0  0  0  0  0  0  0  0  0  0  0  0
   10.0162   -0.5825   22.6767 C   0  0  0  0  0  0  0  0  0  0  0  0
    6.7973    0.5426   17.9765 N   0  0  0  0  0  0  0  0  0  0  0  0
    8.4162   -5.8673   26.2355 N   0  0  0  0  0  0  0  0  0  0  0  0
    8.0773    0.0664   21.4081 N   0  0  0  0  0  0  0  0  0  0  0  0
   10.0359   -0.5459   20.2670 O   0  0  0  0  0  0  0  0  0  0  0  0
    6.8090   -4.1362   27.2677 O   0  0  0  0  0  0  0  0  0  0  0  0
    6.1301   -5.3495   25.1665 O   0  0  0  0  0  0  0  0  0  0  0  0
    7.1630   -4.7327   25.9872 S   0  0  0  0  0  0  0  0  0  0  0  0
    8.8229   -5.9381   27.1762 H   0  0  0  0  0  0  0  0  0  0  0  0
    8.3589   -6.7650   25.7393 H   0  0  0  0  0  0  0  0  0  0  0  0
    7.7138    0.1661   22.3537 H   0  0  0  0  0  0  0  0  0  0  0  0
  1  3  2  0  0  0  0
  1  8  1  0  0  0  0
  2  4  1  0  0  0  0
  2  8  2  0  0  0  0
  3 11  1  0  0  0  0
  4 11  2  0  0  0  0
  5  6  2  0  0  0  0
  5  9  1  0  0  0  0
  6 15  1  0  0  0  0
  7 10  1  0  0  0  0
  7 15  2  0  0  0  0
  8 14  1  0  0  0  0
  9 10  2  0  0  0  0
  9 13  1  0  0  0  0
 10 17  1  0  0  0  0
 11 21  1  0  0  0  0
 12 14  1  0  0  0  0
 12 17  1  0  0  0  0
 12 18  2  0  0  0  0
 16 21  1  0  0  0  0
 19 21  2  0  0  0  0
 20 21  2  0  0  0  0
 16 22  1  0  0  0  0
 16 23  1  0  0  0  0
 17 24  1  0  0  0  0
M  END
> <ref_mols>
x2579_0

> <original SMILES>
CC=1C=CN=CC1NC(=O)CC=2C=CC(=CC2)S(=O)(=O)N

> <Chemgauss4>
-10.478170

> <ref_pdb>
x0107_0

$$$$
x1287
  -OEChem-05172015543D

 19 21  0     0  0  0  0  0  0999 V2000
   10.9502    7.0169   27.2733 C   0  0  0  0  0  0  0  0  0  0  0  0
    9.7601    6.5520   26.7137 C   0  0  0  0  0  0  0  0  0  0  0  0
   12.0833    7.1703   26.4744 C   0  0  0  0  0  0  0  0  0  0  0  0
   11.9821   -1.5730   22.2203 C   0  0  0  0  0  0  0  0  0  0  0  0
   13.3445   -1.2103   22.0810 C   0  0  0  0  0  0  0  0  0  0  0  0
    9.7030    6.2405   25.3553 C   0  0  0  0  0  0  0  0  0  0  0  0
   12.0263    6.8588   25.1159 C   0  0  0  0  0  0  0  0  0  0  0  0
   11.3096   -0.4700   22.6981 C   0  0  0  0  0  0  0  0  0  0  0  0
   13.4630    0.1034   22.4780 C   0  0  0  0  0  0  0  0  0  0  0  0
   10.8361    6.3939   24.5564 C   0  0  0  0  0  0  0  0  0  0  0  0
   12.9002    2.8975   22.7507 C   0  0  0  0  0  0  0  0  0  0  0  0
   10.4628    2.2479   23.0016 C   0  0  0  0  0  0  0  0  0  0  0  0
   12.5542    4.3145   23.1891 C   0  0  0  0  0  0  0  0  0  0  0  0
   10.1414    3.6717   23.4366 C   0  0  0  0  0  0  0  0  0  0  0  0
   11.9150    1.8738   23.3351 C   0  0  0  0  0  0  0  0  0  0  0  0
   10.7755    6.0588   23.0952 C   0  0  0  0  0  0  0  0  0  0  0  0
   12.2198    0.5430   22.8513 N   0  0  0  0  0  0  0  0  0  0  0  0
   11.1272    4.6255   22.8042 N   0  3  0  0  0  0  0  0  0  0  0  0
   11.0533    4.5099   21.7840 H   0  0  0  0  0  0  0  0  0  0  0  0
  1  2  1  0  0  0  0
  1  3  2  0  0  0  0
  2  6  2  0  0  0  0
  3  7  1  0  0  0  0
  4  5  1  0  0  0  0
  4  8  2  0  0  0  0
  5  9  2  0  0  0  0
  6 10  1  0  0  0  0
  7 10  2  0  0  0  0
  8 17  1  0  0  0  0
  9 17  1  0  0  0  0
 10 16  1  0  0  0  0
 11 13  1  0  0  0  0
 11 15  1  0  0  0  0
 12 14  1  0  0  0  0
 12 15  1  0  0  0  0
 13 18  1  0  0  0  0
 14 18  1  0  0  0  0
 15 17  1  0  0  0  0
 16 18  1  0  0  0  0
 18 19  1  0  0  0  0
M  CHG  1  18   1
M  END
> <ref_mols>
x1287_0

> <original SMILES>
C(N1CCC(CC1)N2C=CC=C2)C=3C=CC=CC3

> <Chemgauss4>
-10.477966

> <ref_pdb>
x0104_0

$$$$
x0430
  -OEChem-05172015543D

 19 21  0     0  0  0  0  0  0999 V2000
   10.9502    7.0169   27.2733 C   0  0  0  0  0  0  0  0  0  0  0  0
    9.7601    6.5520   26.7137 C   0  0  0  0  0  0  0  0  0  0  0  0
   12.0833    7.1703   26.4744 C   0  0  0  0  0  0  0  0  0  0  0  0
   11.9821   -1.5730   22.2203 C   0  0  0  0  0  0  0  0  0  0  0  0
   13.3445   -1.2103   22.0810 C   0  0  0  0  0  0  0  0  0  0  0  0
    9.7030    6.2405   25.3553 C   0  0  0  0  0  0  0  0  0  0  0  0
   12.0263    6.8588   25.1159 C   0  0  0  0  0  0  0  0  0  0  0  0
   11.3096   -0.4700   22.6981 C   0  0  0  0  0  0  0  0  0  0  0  0
   13.4630    0.1034   22.4780 C   0  0  0  0  0  0  0  0  0  0  0  0
   10.8361    6.3939   24.5564 C   0  0  0  0  0  0  0  0  0  0  0  0
   12.9002    2.8975   22.7507 C   0  0  0  0  0  0  0  0  0  0  0  0
   10.4628    2.2479   23.0016 C   0  0  0  0  0  0  0  0  0  0  0  0
   12.5542    4.3145   23.1891 C   0  0  0  0  0  0  0  0  0  0  0  0
   10.1414    3.6717   23.4366 C   0  0  0  0  0  0  0  0  0  0  0  0
   11.9150    1.8738   23.3351 C   0  0  0  0  0  0  0  0  0  0  0  0
   10.7755    6.0588   23.0952 C   0  0  0  0  0  0  0  0  0  0  0  0
   12.2198    0.5430   22.8513 N   0  0  0  0  0  0  0  0  0  0  0  0
   11.1272    4.6255   22.8042 N   0  3  0  0  0  0  0  0  0  0  0  0
   11.0533    4.5099   21.7840 H   0  0  0  0  0  0  0  0  0  0  0  0
  1  2  1  0  0  0  0
  1  3  2  0  0  0  0
  2  6  2  0  0  0  0
  3  7  1  0  0  0  0
  4  5  1  0  0  0  0
  4  8  2  0  0  0  0
  5  9  2  0  0  0  0
  6 10  1  0  0  0  0
  7 10  2  0  0  0  0
  8 17  1  0  0  0  0
  9 17  1  0  0  0  0
 10 16  1  0  0  0  0
 11 13  1  0  0  0  0
 11 15  1  0  0  0  0
 12 14  1  0  0  0  0
 12 15  1  0  0  0  0
 13 18  1  0  0  0  0
 14 18  1  0  0  0  0
 15 17  1  0  0  0  0
 16 18  1  0  0  0  0
 18 19  1  0  0  0  0
M  CHG  1  18   1
M  END
> <ref_mols>
x0430_0

> <original SMILES>
C(N1CCC(CC1)N2C=CC=C2)C=3C=CC=CC3

> <Chemgauss4>
-10.477966

> <ref_pdb>
x0104_0

$$$$
x2629
  -OEChem-05172015543D

 18 19  0     0  0  0  0  0  0999 V2000
   14.4414   -2.1141   23.0676 C   0  0  0  0  0  0  0  0  0  0  0  0
   13.9030   -1.3728   24.1193 C   0  0  0  0  0  0  0  0  0  0  0  0
   14.0714   -1.8301   21.7530 C   0  0  0  0  0  0  0  0  0  0  0  0
   12.9945   -0.3476   23.8565 C   0  0  0  0  0  0  0  0  0  0  0  0
   13.1629   -0.8049   21.4902 C   0  0  0  0  0  0  0  0  0  0  0  0
    6.0123    0.3635   19.9815 C   0  0  0  0  0  0  0  0  0  0  0  0
    6.3437    0.1960   18.6466 C   0  0  0  0  0  0  0  0  0  0  0  0
    8.5897    0.3967   19.0865 C   0  0  0  0  0  0  0  0  0  0  0  0
   12.6244   -0.0636   22.5419 C   0  0  0  0  0  0  0  0  0  0  0  0
    7.0473    0.5555   20.8899 C   0  0  0  0  0  0  0  0  0  0  0  0
    8.3635    0.5739   20.4420 C   0  0  0  0  0  0  0  0  0  0  0  0
   10.8066    0.8042   21.0103 C   0  0  0  0  0  0  0  0  0  0  0  0
    6.7185    0.7394   22.3352 C   0  0  0  0  0  0  0  0  0  0  0  0
   11.6527    1.0324   22.2602 C   0  0  0  0  0  0  0  0  0  0  0  0
    7.6103    0.2077   18.1740 N   0  0  0  0  0  0  0  0  0  0  0  0
    9.4511    0.7655   21.3270 N   0  0  0  0  0  0  0  0  0  0  0  0
   11.3141    0.6774   19.9005 O   0  0  0  0  0  0  0  0  0  0  0  0
    9.2151    0.8894   22.3094 H   0  0  0  0  0  0  0  0  0  0  0  0
  1  2  1  0  0  0  0
  1  3  2  0  0  0  0
  2  4  2  0  0  0  0
  3  5  1  0  0  0  0
  4  9  1  0  0  0  0
  5  9  2  0  0  0  0
  6  7  2  0  0  0  0
  6 10  1  0  0  0  0
  7 15  1  0  0  0  0
  8 11  1  0  0  0  0
  8 15  2  0  0  0  0
  9 14  1  0  0  0  0
 10 11  2  0  0  0  0
 10 13  1  0  0  0  0
 11 16  1  0  0  0  0
 12 14  1  0  0  0  0
 12 16  1  0  0  0  0
 12 17  2  0  0  0  0
 16 18  1  0  0  0  0
M  END
> <ref_mols>
x2629_0

> <original SMILES>
CC=1C=CN=CC1NC(=O)CC=2C=CC=CC2

> <Chemgauss4>
-10.434412

> <ref_pdb>
x0678_0

$$$$
x1204
  -OEChem-05172015543D

 18 19  0     1  0  0  0  0  0999 V2000
   14.2947   -0.9614   23.7352 C   0  0  0  0  0  0  0  0  0  0  0  0
   13.8747   -1.7764   22.6841 C   0  0  0  0  0  0  0  0  0  0  0  0
   13.4484    0.0314   24.2291 C   0  0  0  0  0  0  0  0  0  0  0  0
   12.6084   -1.5986   22.1267 C   0  0  0  0  0  0  0  0  0  0  0  0
   12.1822    0.2092   23.6717 C   0  0  0  0  0  0  0  0  0  0  0  0
    9.8603    0.8429   22.0357 C   0  0  0  0  0  0  0  0  0  0  0  0
    9.7708   -1.5094   21.4915 C   0  0  0  0  0  0  0  0  0  0  0  0
    8.5941    1.0200   21.4782 C   0  0  0  0  0  0  0  0  0  0  0  0
    8.5045   -1.3322   20.9341 C   0  0  0  0  0  0  0  0  0  0  0  0
   11.7621   -0.6058   22.6205 C   0  0  0  0  0  0  0  0  0  0  0  0
   10.4487   -0.4218   22.0423 C   0  0  0  0  0  0  0  0  0  0  0  0
    7.9161   -0.0675   20.9274 C   0  0  0  0  0  0  0  0  0  0  0  0
    6.8681    0.2274   18.0075 C   0  0  0  0  0  0  0  0  0  0  0  0
    5.2031    1.6636   19.3526 C   0  0  0  0  0  0  0  0  0  0  0  0
    6.5734    1.0155   19.2903 C   0  0  1  0  0  0  0  0  0  0  0  0
    6.0611   -0.6990   17.7193 O   0  5  0  0  0  0  0  0  0  0  0  0
    7.8970    0.6150   17.3810 O   0  0  0  0  0  0  0  0  0  0  0  0
    6.6804    0.1055   20.3842 O   0  0  0  0  0  0  0  0  0  0  0  0
  1  2  1  0  0  0  0
  1  3  2  0  0  0  0
  2  4  2  0  0  0  0
  3  5  1  0  0  0  0
  4 10  1  0  0  0  0
  5 10  2  0  0  0  0
  6  8  2  0  0  0  0
  6 11  1  0  0  0  0
  7  9  1  0  0  0  0
  7 11  2  0  0  0  0
  8 12  1  0  0  0  0
  9 12  2  0  0  0  0
 10 11  1  0  0  0  0
 12 18  1  0  0  0  0
 13 15  1  0  0  0  0
 13 16  1  0  0  0  0
 13 17  2  0  0  0  0
 14 15  1  0  0  0  0
 15 18  1  0  0  0  0
M  CHG  1  16  -1
M  END
> <ref_mols>
x1204_0

> <original SMILES>
CC(OC=1C=CC(=CC1)C=2C=CC=CC2)C(=O)O

> <Chemgauss4>
-10.414139

> <ref_pdb>
x0678_0

$$$$
x0301
  -OEChem-05172015543D

 18 19  0     1  0  0  0  0  0999 V2000
   14.2947   -0.9614   23.7352 C   0  0  0  0  0  0  0  0  0  0  0  0
   13.8747   -1.7764   22.6841 C   0  0  0  0  0  0  0  0  0  0  0  0
   13.4484    0.0314   24.2291 C   0  0  0  0  0  0  0  0  0  0  0  0
   12.6084   -1.5986   22.1267 C   0  0  0  0  0  0  0  0  0  0  0  0
   12.1822    0.2092   23.6717 C   0  0  0  0  0  0  0  0  0  0  0  0
    9.8603    0.8429   22.0357 C   0  0  0  0  0  0  0  0  0  0  0  0
    9.7708   -1.5094   21.4915 C   0  0  0  0  0  0  0  0  0  0  0  0
    8.5941    1.0200   21.4782 C   0  0  0  0  0  0  0  0  0  0  0  0
    8.5045   -1.3322   20.9341 C   0  0  0  0  0  0  0  0  0  0  0  0
   11.7621   -0.6058   22.6205 C   0  0  0  0  0  0  0  0  0  0  0  0
   10.4487   -0.4218   22.0423 C   0  0  0  0  0  0  0  0  0  0  0  0
    7.9161   -0.0675   20.9274 C   0  0  0  0  0  0  0  0  0  0  0  0
    6.8681    0.2274   18.0075 C   0  0  0  0  0  0  0  0  0  0  0  0
    5.2031    1.6636   19.3526 C   0  0  0  0  0  0  0  0  0  0  0  0
    6.5734    1.0155   19.2903 C   0  0  1  0  0  0  0  0  0  0  0  0
    6.0611   -0.6990   17.7193 O   0  5  0  0  0  0  0  0  0  0  0  0
    7.8970    0.6150   17.3810 O   0  0  0  0  0  0  0  0  0  0  0  0
    6.6804    0.1055   20.3842 O   0  0  0  0  0  0  0  0  0  0  0  0
  1  2  1  0  0  0  0
  1  3  2  0  0  0  0
  2  4  2  0  0  0  0
  3  5  1  0  0  0  0
  4 10  1  0  0  0  0
  5 10  2  0  0  0  0
  6  8  2  0  0  0  0
  6 11  1  0  0  0  0
  7  9  1  0  0  0  0
  7 11  2  0  0  0  0
  8 12  1  0  0  0  0
  9 12  2  0  0  0  0
 10 11  1  0  0  0  0
 12 18  1  0  0  0  0
 13 15  1  0  0  0  0
 13 16  1  0  0  0  0
 13 17  2  0  0  0  0
 14 15  1  0  0  0  0
 15 18  1  0  0  0  0
M  CHG  1  16  -1
M  END
> <ref_mols>
x0301_0

> <original SMILES>
CC(OC=1C=CC(=CC1)C=2C=CC=CC2)C(=O)O

> <Chemgauss4>
-10.414139

> <ref_pdb>
x0678_0

$$$$
x0632
  -OEChem-05172015543D

 20 21  0     0  0  0  0  0  0999 V2000
   13.5639   -1.3589   21.5890 C   0  0  0  0  0  0  0  0  0  0  0  0
   12.0027   -0.8434   23.3593 C   0  0  0  0  0  0  0  0  0  0  0  0
    7.5022    0.3973   18.4879 C   0  0  0  0  0  0  0  0  0  0  0  0
    7.1377    0.5676   20.8702 C   0  0  0  0  0  0  0  0  0  0  0  0
   14.5490   -1.6333   22.5376 C   0  0  0  0  0  0  0  0  0  0  0  0
   12.9878   -1.1179   24.3079 C   0  0  0  0  0  0  0  0  0  0  0  0
    6.1837    0.7901   18.2581 C   0  0  0  0  0  0  0  0  0  0  0  0
    5.8192    0.9604   20.6404 C   0  0  0  0  0  0  0  0  0  0  0  0
   12.2907   -0.9639   21.9998 C   0  0  0  0  0  0  0  0  0  0  0  0
    7.9792    0.2860   19.7940 C   0  0  0  0  0  0  0  0  0  0  0  0
   14.2610   -1.5128   23.8970 C   0  0  0  0  0  0  0  0  0  0  0  0
    5.3422    1.0717   19.3343 C   0  0  0  0  0  0  0  0  0  0  0  0
    9.9661   -0.2790   21.2611 C   0  0  0  0  0  0  0  0  0  0  0  0
   11.3054   -0.6891   21.0512 N   0  0  0  0  0  0  0  0  0  0  0  0
    9.3166   -0.1127   20.0274 N   0  0  0  0  0  0  0  0  0  0  0  0
    9.4555   -0.0977   22.3618 O   0  0  0  0  0  0  0  0  0  0  0  0
   15.2065   -1.7774   24.8082 F   0  0  0  0  0  0  0  0  0  0  0  0
    4.0763    1.4500   19.1137 F   0  0  0  0  0  0  0  0  0  0  0  0
   11.5884   -0.7986   20.0716 H   0  0  0  0  0  0  0  0  0  0  0  0
    9.8696   -0.3011   19.1951 H   0  0  0  0  0  0  0  0  0  0  0  0
  1  5  2  0  0  0  0
  1  9  1  0  0  0  0
  2  6  1  0  0  0  0
  2  9  2  0  0  0  0
  3  7  2  0  0  0  0
  3 10  1  0  0  0  0
  4  8  1  0  0  0  0
  4 10  2  0  0  0  0
  5 11  1  0  0  0  0
  6 11  2  0  0  0  0
  7 12  1  0  0  0  0
  8 12  2  0  0  0  0
  9 14  1  0  0  0  0
 10 15  1  0  0  0  0
 11 17  1  0  0  0  0
 12 18  1  0  0  0  0
 13 14  1  0  0  0  0
 13 15  1  0  0  0  0
 13 16  2  0  0  0  0
 14 19  1  0  0  0  0
 15 20  1  0  0  0  0
M  END
> <ref_mols>
x0632_0

> <original SMILES>
FC=1C=CC(NC(=O)NC=2C=CC(F)=CC2)=CC1

> <Chemgauss4>
-10.410782

> <ref_pdb>
x0678_0

$$$$
x2568
  -OEChem-05172015543D

 24 26  0     0  0  0  0  0  0999 V2000
   11.6264    1.2515   23.4209 C   0  0  0  0  0  0  0  0  0  0  0  0
   13.7490    0.5646   22.4936 C   0  0  0  0  0  0  0  0  0  0  0  0
   11.9481    2.5852   23.1693 C   0  0  0  0  0  0  0  0  0  0  0  0
   14.0707    1.8984   22.2420 C   0  0  0  0  0  0  0  0  0  0  0  0
    8.0119   -4.3424   22.3359 C   0  0  0  0  0  0  0  0  0  0  0  0
    7.8630   -2.0527   21.6152 C   0  0  0  0  0  0  0  0  0  0  0  0
    6.7451   -4.5343   21.8085 C   0  0  0  0  0  0  0  0  0  0  0  0
    6.6029   -2.3471   21.1199 C   0  0  0  0  0  0  0  0  0  0  0  0
    8.5744   -3.0750   22.2333 C   0  0  0  0  0  0  0  0  0  0  0  0
   12.5269    0.2411   23.0831 C   0  0  0  0  0  0  0  0  0  0  0  0
   13.1702    2.9087   22.5799 C   0  0  0  0  0  0  0  0  0  0  0  0
    9.9299   -1.7624   23.9286 C   0  0  0  0  0  0  0  0  0  0  0  0
   10.9592   -2.3993   21.6932 C   0  0  0  0  0  0  0  0  0  0  0  0
   11.3422   -1.4866   24.4485 C   0  0  0  0  0  0  0  0  0  0  0  0
   12.3435   -2.1029   22.2817 C   0  0  0  0  0  0  0  0  0  0  0  0
    9.9585   -2.8084   22.7942 C   0  0  0  0  0  0  0  0  0  0  0  0
    6.0235   -3.5659   21.2009 N   0  0  0  0  0  0  0  0  0  0  0  0
   12.2065   -1.0894   23.3337 N   0  0  0  0  0  0  0  0  0  0  0  0
   12.1760    5.3669   22.8506 N   0  0  0  0  0  0  0  0  0  0  0  0
   14.7060    4.9430   23.1054 O   0  0  0  0  0  0  0  0  0  0  0  0
   13.6509    4.7715   20.8240 O   0  0  0  0  0  0  0  0  0  0  0  0
   13.5740    4.5778   22.2653 S   0  0  0  0  0  0  0  0  0  0  0  0
   12.2549    5.9027   23.7236 H   0  0  0  0  0  0  0  0  0  0  0  0
   11.5346    5.7832   22.1646 H   0  0  0  0  0  0  0  0  0  0  0  0
  1  3  2  0  0  0  0
  1 10  1  0  0  0  0
  2  4  1  0  0  0  0
  2 10  2  0  0  0  0
  3 11  1  0  0  0  0
  4 11  2  0  0  0  0
  5  7  2  0  0  0  0
  5  9  1  0  0  0  0
  6  8  1  0  0  0  0
  6  9  2  0  0  0  0
  7 17  1  0  0  0  0
  8 17  2  0  0  0  0
  9 16  1  0  0  0  0
 10 18  1  0  0  0  0
 11 22  1  0  0  0  0
 12 14  1  0  0  0  0
 12 16  1  0  0  0  0
 13 15  1  0  0  0  0
 13 16  1  0  0  0  0
 14 18  1  0  0  0  0
 15 18  1  0  0  0  0
 19 22  1  0  0  0  0
 20 22  2  0  0  0  0
 21 22  2  0  0  0  0
 19 23  1  0  0  0  0
 19 24  1  0  0  0  0
M  END
> <ref_mols>
x2568_0

> <original SMILES>
NS(=O)(=O)C=1C=CC(=CC1)N2CCC(CC2)C=3C=CN=CC3

> <Chemgauss4>
-10.408019

> <ref_pdb>
x0195_0

$$$$
x2478
  -OEChem-05172015543D

 19 20  0     0  0  0  0  0  0999 V2000
   11.9931    0.6923   24.2939 C   0  0  0  0  0  0  0  0  0  0  0  0
   10.7591    0.2220   23.8450 C   0  0  0  0  0  0  0  0  0  0  0  0
   13.1375   -0.0889   24.1334 C   0  0  0  0  0  0  0  0  0  0  0  0
    5.5073    1.3894   18.9945 C   0  0  0  0  0  0  0  0  0  0  0  0
   11.8137   -1.8109   23.0754 C   0  0  0  0  0  0  0  0  0  0  0  0
    6.1456    1.1224   17.7940 C   0  0  0  0  0  0  0  0  0  0  0  0
    7.8068   -0.0712   18.8400 C   0  0  0  0  0  0  0  0  0  0  0  0
   10.6693   -1.0296   23.2358 C   0  0  0  0  0  0  0  0  0  0  0  0
    6.0747    0.8853   20.1595 C   0  0  0  0  0  0  0  0  0  0  0  0
    7.2465    0.1401   20.0894 C   0  0  0  0  0  0  0  0  0  0  0  0
   13.0478   -1.3405   23.5242 C   0  0  0  0  0  0  0  0  0  0  0  0
    9.0280   -1.1530   21.3138 C   0  0  0  0  0  0  0  0  0  0  0  0
    5.4079    1.1586   21.4677 C   0  0  0  0  0  0  0  0  0  0  0  0
    9.3493   -1.5323   22.7572 C   0  0  0  0  0  0  0  0  0  0  0  0
    7.2848    0.4025   17.6863 N   0  0  0  0  0  0  0  0  0  0  0  0
    7.8621   -0.3944   21.2462 N   0  0  0  0  0  0  0  0  0  0  0  0
    9.7419   -1.5027   20.3794 O   0  0  0  0  0  0  0  0  0  0  0  0
   14.4599   -2.3044   23.3276 Cl  0  0  0  0  0  0  0  0  0  0  0  0
    7.3987   -0.2020   22.1319 H   0  0  0  0  0  0  0  0  0  0  0  0
  1  2  2  0  0  0  0
  1  3  1  0  0  0  0
  2  8  1  0  0  0  0
  3 11  2  0  0  0  0
  4  6  2  0  0  0  0
  4  9  1  0  0  0  0
  5  8  2  0  0  0  0
  5 11  1  0  0  0  0
  6 15  1  0  0  0  0
  7 10  1  0  0  0  0
  7 15  2  0  0  0  0
  8 14  1  0  0  0  0
  9 10  2  0  0  0  0
  9 13  1  0  0  0  0
 10 16  1  0  0  0  0
 11 18  1  0  0  0  0
 12 14  1  0  0  0  0
 12 16  1  0  0  0  0
 12 17  2  0  0  0  0
 16 19  1  0  0  0  0
M  END
> <ref_mols>
x2478_0

> <original SMILES>
CC=1C=CN=CC1NC(=O)CC=2C=CC=C(Cl)C2

> <Chemgauss4>
-10.387289

> <ref_pdb>
x0678_0

$$$$
x2646
  -OEChem-05172015543D

 19 20  0     0  0  0  0  0  0999 V2000
   11.9931    0.6923   24.2939 C   0  0  0  0  0  0  0  0  0  0  0  0
   10.7591    0.2220   23.8450 C   0  0  0  0  0  0  0  0  0  0  0  0
   13.1375   -0.0889   24.1334 C   0  0  0  0  0  0  0  0  0  0  0  0
    5.5073    1.3894   18.9945 C   0  0  0  0  0  0  0  0  0  0  0  0
   11.8137   -1.8109   23.0754 C   0  0  0  0  0  0  0  0  0  0  0  0
    6.1456    1.1224   17.7940 C   0  0  0  0  0  0  0  0  0  0  0  0
    7.8068   -0.0712   18.8400 C   0  0  0  0  0  0  0  0  0  0  0  0
   10.6693   -1.0296   23.2358 C   0  0  0  0  0  0  0  0  0  0  0  0
    6.0747    0.8853   20.1595 C   0  0  0  0  0  0  0  0  0  0  0  0
    7.2465    0.1401   20.0894 C   0  0  0  0  0  0  0  0  0  0  0  0
   13.0478   -1.3405   23.5242 C   0  0  0  0  0  0  0  0  0  0  0  0
    9.0280   -1.1530   21.3138 C   0  0  0  0  0  0  0  0  0  0  0  0
    5.4079    1.1586   21.4677 C   0  0  0  0  0  0  0  0  0  0  0  0
    9.3493   -1.5323   22.7572 C   0  0  0  0  0  0  0  0  0  0  0  0
    7.2848    0.4025   17.6863 N   0  0  0  0  0  0  0  0  0  0  0  0
    7.8621   -0.3944   21.2462 N   0  0  0  0  0  0  0  0  0  0  0  0
    9.7419   -1.5027   20.3794 O   0  0  0  0  0  0  0  0  0  0  0  0
   14.4599   -2.3044   23.3276 Cl  0  0  0  0  0  0  0  0  0  0  0  0
    7.3987   -0.2020   22.1319 H   0  0  0  0  0  0  0  0  0  0  0  0
  1  2  2  0  0  0  0
  1  3  1  0  0  0  0
  2  8  1  0  0  0  0
  3 11  2  0  0  0  0
  4  6  2  0  0  0  0
  4  9  1  0  0  0  0
  5  8  2  0  0  0  0
  5 11  1  0  0  0  0
  6 15  1  0  0  0  0
  7 10  1  0  0  0  0
  7 15  2  0  0  0  0
  8 14  1  0  0  0  0
  9 10  2  0  0  0  0
  9 13  1  0  0  0  0
 10 16  1  0  0  0  0
 11 18  1  0  0  0  0
 12 14  1  0  0  0  0
 12 16  1  0  0  0  0
 12 17  2  0  0  0  0
 16 19  1  0  0  0  0
M  END
> <ref_mols>
x2646_0

> <original SMILES>
CC=1C=CN=CC1NC(=O)CC=2C=CC=C(Cl)C2

> <Chemgauss4>
-10.387289

> <ref_pdb>
x0678_0

$$$$
x2848
  -OEChem-05172015543D

 26 28  0     0  0  0  0  0  0999 V2000
   13.4187   -0.6772   24.5369 C   0  0  0  0  0  0  0  0  0  0  0  0
   12.3655    0.2373   24.5294 C   0  0  0  0  0  0  0  0  0  0  0  0
   13.3924   -1.7784   23.6811 C   0  0  0  0  0  0  0  0  0  0  0  0
    6.9911   -3.8885   26.4973 C   0  0  0  0  0  0  0  0  0  0  0  0
    6.1769   -5.4659   24.8584 C   0  0  0  0  0  0  0  0  0  0  0  0
   11.2859    0.0506   23.6661 C   0  0  0  0  0  0  0  0  0  0  0  0
   12.3128   -1.9651   22.8178 C   0  0  0  0  0  0  0  0  0  0  0  0
    6.4027   -4.6409   27.5138 C   0  0  0  0  0  0  0  0  0  0  0  0
    5.5886   -6.2184   25.8749 C   0  0  0  0  0  0  0  0  0  0  0  0
    6.8781   -4.3009   25.1696 C   0  0  0  0  0  0  0  0  0  0  0  0
   11.2595   -1.0506   22.8103 C   0  0  0  0  0  0  0  0  0  0  0  0
    5.7015   -5.8058   27.2026 C   0  0  0  0  0  0  0  0  0  0  0  0
    8.2982   -1.3477   23.4995 C   0  0  0  0  0  0  0  0  0  0  0  0
    9.3637   -3.4427   22.6201 C   0  0  0  0  0  0  0  0  0  0  0  0
    7.0784   -2.1616   23.9330 C   0  0  0  0  0  0  0  0  0  0  0  0
    8.1259   -4.2295   23.0433 C   0  0  0  0  0  0  0  0  0  0  0  0
    9.0107   -1.9872   22.3069 C   0  0  0  0  0  0  0  0  0  0  0  0
    7.4587   -3.5585   24.1658 N   0  0  0  0  0  0  0  0  0  0  0  0
    6.2385   -7.8156   28.8692 N   0  0  0  0  0  0  0  0  0  0  0  0
   10.1902   -1.2359   21.9548 N   0  0  0  0  0  0  0  0  0  0  0  0
    4.7162   -5.8717   29.6106 O   0  0  0  0  0  0  0  0  0  0  0  0
    3.8688   -7.5190   27.9030 O   0  0  0  0  0  0  0  0  0  0  0  0
    4.9642   -6.7480   28.4743 S   0  0  0  0  0  0  0  0  0  0  0  0
    6.7228   -7.6776   29.7646 H   0  0  0  0  0  0  0  0  0  0  0  0
    6.1435   -8.8014   28.5962 H   0  0  0  0  0  0  0  0  0  0  0  0
   10.2295   -0.8273   21.0312 H   0  0  0  0  0  0  0  0  0  0  0  0
  1  2  1  0  0  0  0
  1  3  2  0  0  0  0
  2  6  2  0  0  0  0
  3  7  1  0  0  0  0
  4  8  2  0  0  0  0
  4 10  1  0  0  0  0
  5  9  1  0  0  0  0
  5 10  2  0  0  0  0
  6 11  1  0  0  0  0
  7 11  2  0  0  0  0
  8 12  1  0  0  0  0
  9 12  2  0  0  0  0
 10 18  1  0  0  0  0
 11 20  1  0  0  0  0
 12 23  1  0  0  0  0
 13 15  1  0  0  0  0
 13 17  1  0  0  0  0
 14 16  1  0  0  0  0
 14 17  1  0  0  0  0
 15 18  1  0  0  0  0
 16 18  1  0  0  0  0
 17 20  1  0  0  0  0
 19 23  1  0  0  0  0
 21 23  2  0  0  0  0
 22 23  2  0  0  0  0
 19 24  1  0  0  0  0
 19 25  1  0  0  0  0
 20 26  1  0  0  0  0
M  END
> <ref_mols>
x2848_0

> <original SMILES>
NS(=O)(=O)C=1C=CC(=CC1)N2CCC(CC2)NC=3C=CC=CC3

> <Chemgauss4>
-10.363422

> <ref_pdb>
x0072_0

$$$$
x0626
  -OEChem-05172015543D

 16 16  0     1  0  0  0  0  0999 V2000
    8.5935    0.0418   19.8551 C   0  0  0  0  0  0  0  0  0  0  0  0
   13.9202   -0.6484   24.3870 C   0  0  0  0  0  0  0  0  0  0  0  0
   14.2703   -1.7813   23.4273 C   0  0  0  0  0  0  0  0  0  0  0  0
   12.7994    0.2991   23.9708 C   0  0  0  0  0  0  0  0  0  0  0  0
   14.2127   -1.4198   21.9466 C   0  0  0  0  0  0  0  0  0  0  0  0
   11.6044   -0.3630   23.2898 C   0  0  0  0  0  0  0  0  0  0  0  0
   12.8130   -1.5842   21.3545 C   0  0  0  0  0  0  0  0  0  0  0  0
   11.8058   -0.5180   21.7809 C   0  0  0  0  0  0  0  0  0  0  0  0
    6.2884   -0.8220   19.5762 C   0  0  0  0  0  0  0  0  0  0  0  0
    9.7624   -1.9252   21.9938 C   0  0  0  0  0  0  0  0  0  0  0  0
    9.6228    0.3181   20.9220 C   0  0  0  0  0  0  0  0  0  0  0  0
    7.4258   -0.4761   20.3950 N   0  0  0  0  0  0  0  0  0  0  0  0
   10.4852   -0.8868   21.1804 N   0  3  1  0  0  0  0  0  0  0  0  0
    8.7854    0.2573   18.6613 O   0  0  0  0  0  0  0  0  0  0  0  0
    7.3663   -0.6432   21.3954 H   0  0  0  0  0  0  0  0  0  0  0  0
   10.6780   -1.3134   20.2624 H   0  0  0  0  0  0  0  0  0  0  0  0
  1 11  1  0  0  0  0
  1 12  1  0  0  0  0
  1 14  2  0  0  0  0
  2  3  1  0  0  0  0
  2  4  1  0  0  0  0
  3  5  1  0  0  0  0
  4  6  1  0  0  0  0
  5  7  1  0  0  0  0
  6  8  1  0  0  0  0
  7  8  1  0  0  0  0
  8 13  1  0  0  0  0
  9 12  1  0  0  0  0
 10 13  1  0  0  0  0
 11 13  1  0  0  0  0
 12 15  1  0  0  0  0
 13 16  1  0  0  0  0
M  CHG  1  13   1
M  END
> <ref_mols>
x0626_0

> <original SMILES>
CNC(=O)CN(C)C1CCCCCC1

> <Chemgauss4>
-10.361785

> <ref_pdb>
x0678_0

$$$$
x0404
  -OEChem-05172015543D

 16 17  0     0  0  0  0  0  0999 V2000
    7.4473    0.2290   20.6479 C   0  0  0  0  0  0  0  0  0  0  0  0
    9.0151    0.0359   18.8699 C   0  0  0  0  0  0  0  0  0  0  0  0
    6.7784    0.1834   18.3660 C   0  0  0  0  0  0  0  0  0  0  0  0
   12.5153    0.8863   22.8311 C   0  0  0  0  0  0  0  0  0  0  0  0
    8.7686    0.1119   20.2312 C   0  0  0  0  0  0  0  0  0  0  0  0
    6.4271    0.2661   19.7038 C   0  0  0  0  0  0  0  0  0  0  0  0
   12.1050   -0.1147   21.9757 C   0  0  0  0  0  0  0  0  0  0  0  0
   13.5860   -0.7924   23.7505 C   0  0  0  0  0  0  0  0  0  0  0  0
   14.4496   -1.5664   24.6691 C   0  0  0  0  0  0  0  0  0  0  0  0
   11.1969   -0.0478   20.7819 C   0  0  0  0  0  0  0  0  0  0  0  0
    8.0506    0.0687   17.9232 N   0  0  0  0  0  0  0  0  0  0  0  0
   13.3642    0.4996   23.8496 N   0  0  0  0  0  0  0  0  0  0  0  0
    9.8198    0.0720   21.1616 N   0  0  0  0  0  0  0  0  0  0  0  0
    5.1471    0.3782   20.0758 F   0  0  0  0  0  0  0  0  0  0  0  0
   12.8060   -1.6046   22.4556 S   0  0  0  0  0  0  0  0  0  0  0  0
    9.5757    0.1303   22.1350 H   0  0  0  0  0  0  0  0  0  0  0  0
  1  5  2  0  0  0  0
  1  6  1  0  0  0  0
  2  5  1  0  0  0  0
  2 11  2  0  0  0  0
  3  6  2  0  0  0  0
  3 11  1  0  0  0  0
  4  7  2  0  0  0  0
  4 12  1  0  0  0  0
  5 13  1  0  0  0  0
  6 14  1  0  0  0  0
  7 10  1  0  0  0  0
  7 15  1  0  0  0  0
  8  9  1  0  0  0  0
  8 12  2  0  0  0  0
  8 15  1  0  0  0  0
 10 13  1  0  0  0  0
 13 16  1  0  0  0  0
M  END
> <ref_mols>
x0404_0

> <original SMILES>
CC1=NC=C(CNC=2C=NC=C(F)C2)S1

> <Chemgauss4>
-10.347001

> <ref_pdb>
x0678_0

$$$$
x1272
  -OEChem-05172015543D

 16 17  0     0  0  0  0  0  0999 V2000
    7.4473    0.2290   20.6479 C   0  0  0  0  0  0  0  0  0  0  0  0
    9.0151    0.0359   18.8699 C   0  0  0  0  0  0  0  0  0  0  0  0
    6.7784    0.1834   18.3660 C   0  0  0  0  0  0  0  0  0  0  0  0
   12.5153    0.8863   22.8311 C   0  0  0  0  0  0  0  0  0  0  0  0
    8.7686    0.1119   20.2312 C   0  0  0  0  0  0  0  0  0  0  0  0
    6.4271    0.2661   19.7038 C   0  0  0  0  0  0  0  0  0  0  0  0
   12.1050   -0.1147   21.9757 C   0  0  0  0  0  0  0  0  0  0  0  0
   13.5860   -0.7924   23.7505 C   0  0  0  0  0  0  0  0  0  0  0  0
   14.4496   -1.5664   24.6691 C   0  0  0  0  0  0  0  0  0  0  0  0
   11.1969   -0.0478   20.7819 C   0  0  0  0  0  0  0  0  0  0  0  0
    8.0506    0.0687   17.9232 N   0  0  0  0  0  0  0  0  0  0  0  0
   13.3642    0.4996   23.8496 N   0  0  0  0  0  0  0  0  0  0  0  0
    9.8198    0.0720   21.1616 N   0  0  0  0  0  0  0  0  0  0  0  0
    5.1471    0.3782   20.0758 F   0  0  0  0  0  0  0  0  0  0  0  0
   12.8060   -1.6046   22.4556 S   0  0  0  0  0  0  0  0  0  0  0  0
    9.5757    0.1303   22.1350 H   0  0  0  0  0  0  0  0  0  0  0  0
  1  5  2  0  0  0  0
  1  6  1  0  0  0  0
  2  5  1  0  0  0  0
  2 11  2  0  0  0  0
  3  6  2  0  0  0  0
  3 11  1  0  0  0  0
  4  7  2  0  0  0  0
  4 12  1  0  0  0  0
  5 13  1  0  0  0  0
  6 14  1  0  0  0  0
  7 10  1  0  0  0  0
  7 15  1  0  0  0  0
  8  9  1  0  0  0  0
  8 12  2  0  0  0  0
  8 15  1  0  0  0  0
 10 13  1  0  0  0  0
 13 16  1  0  0  0  0
M  END
> <ref_mols>
x1272_0

> <original SMILES>
CC1=NC=C(CNC=2C=NC=C(F)C2)S1

> <Chemgauss4>
-10.347001

> <ref_pdb>
x0678_0

$$$$
x2659
  -OEChem-05172015543D

 20 22  0     1  0  0  0  0  0999 V2000
   10.0672   -4.9175   24.7169 C   0  0  0  0  0  0  0  0  0  0  0  0
    8.9483   -5.5044   24.1152 C   0  0  0  0  0  0  0  0  0  0  0  0
   12.3834   -0.5697   23.9630 C   0  0  0  0  0  0  0  0  0  0  0  0
   13.4008   -0.6688   24.9159 C   0  0  0  0  0  0  0  0  0  0  0  0
   12.6062   -2.8527   25.6158 C   0  0  0  0  0  0  0  0  0  0  0  0
    8.6706   -3.5893   22.6485 C   0  0  0  0  0  0  0  0  0  0  0  0
   10.4993   -3.6468   24.2824 C   0  0  0  0  0  0  0  0  0  0  0  0
   11.5700   -2.7761   24.6615 C   0  0  0  0  0  0  0  0  0  0  0  0
    8.2618   -4.8482   23.0964 C   0  0  0  0  0  0  0  0  0  0  0  0
   11.4846   -1.6376   23.8597 C   0  0  0  0  0  0  0  0  0  0  0  0
    9.7910   -3.0151   23.2600 C   0  0  0  0  0  0  0  0  0  0  0  0
   13.5125   -1.7926   25.7311 C   0  0  0  0  0  0  0  0  0  0  0  0
    5.8100   -4.6561   22.7813 C   0  0  0  0  0  0  0  0  0  0  0  0
    7.2717   -5.7741   20.9745 C   0  0  0  0  0  0  0  0  0  0  0  0
    7.0713   -5.4976   22.4713 C   0  0  1  0  0  0  0  0  0  0  0  0
   10.4052   -1.8076   23.0251 N   0  0  0  0  0  0  0  0  0  0  0  0
    4.8962   -4.7428   21.9096 O   0  5  0  0  0  0  0  0  0  0  0  0
    5.8259   -3.9875   23.8524 O   0  0  0  0  0  0  0  0  0  0  0  0
   14.7788   -1.8819   26.8958 Cl  0  0  0  0  0  0  0  0  0  0  0  0
   10.1036   -1.1352   22.3337 H   0  0  0  0  0  0  0  0  0  0  0  0
  1  2  2  0  0  0  0
  1  7  1  0  0  0  0
  2  9  1  0  0  0  0
  3  4  2  0  0  0  0
  3 10  1  0  0  0  0
  4 12  1  0  0  0  0
  5  8  1  0  0  0  0
  5 12  2  0  0  0  0
  6  9  2  0  0  0  0
  6 11  1  0  0  0  0
  7  8  1  0  0  0  0
  7 11  2  0  0  0  0
  8 10  2  0  0  0  0
  9 15  1  0  0  0  0
 10 16  1  0  0  0  0
 11 16  1  0  0  0  0
 12 19  1  0  0  0  0
 13 15  1  0  0  0  0
 13 17  1  0  0  0  0
 13 18  2  0  0  0  0
 14 15  1  0  0  0  0
 16 20  1  0  0  0  0
M  CHG  1  17  -1
M  END
> <ref_mols>
x2659_0

> <original SMILES>
CC(C(=O)O)C=1C=CC2=C(C1)NC=3C=CC(Cl)=CC32

> <Chemgauss4>
-10.343470

> <ref_pdb>
x0749_0

$$$$
x2491
  -OEChem-05172015543D

 20 22  0     1  0  0  0  0  0999 V2000
   10.0672   -4.9175   24.7169 C   0  0  0  0  0  0  0  0  0  0  0  0
    8.9483   -5.5044   24.1152 C   0  0  0  0  0  0  0  0  0  0  0  0
   12.3834   -0.5697   23.9630 C   0  0  0  0  0  0  0  0  0  0  0  0
   13.4008   -0.6688   24.9159 C   0  0  0  0  0  0  0  0  0  0  0  0
   12.6062   -2.8527   25.6158 C   0  0  0  0  0  0  0  0  0  0  0  0
    8.6706   -3.5893   22.6485 C   0  0  0  0  0  0  0  0  0  0  0  0
   10.4993   -3.6468   24.2824 C   0  0  0  0  0  0  0  0  0  0  0  0
   11.5700   -2.7761   24.6615 C   0  0  0  0  0  0  0  0  0  0  0  0
    8.2618   -4.8482   23.0964 C   0  0  0  0  0  0  0  0  0  0  0  0
   11.4846   -1.6376   23.8597 C   0  0  0  0  0  0  0  0  0  0  0  0
    9.7910   -3.0151   23.2600 C   0  0  0  0  0  0  0  0  0  0  0  0
   13.5125   -1.7926   25.7311 C   0  0  0  0  0  0  0  0  0  0  0  0
    5.8100   -4.6561   22.7813 C   0  0  0  0  0  0  0  0  0  0  0  0
    7.2717   -5.7741   20.9745 C   0  0  0  0  0  0  0  0  0  0  0  0
    7.0713   -5.4976   22.4713 C   0  0  1  0  0  0  0  0  0  0  0  0
   10.4052   -1.8076   23.0251 N   0  0  0  0  0  0  0  0  0  0  0  0
    4.8962   -4.7428   21.9096 O   0  5  0  0  0  0  0  0  0  0  0  0
    5.8259   -3.9875   23.8524 O   0  0  0  0  0  0  0  0  0  0  0  0
   14.7788   -1.8819   26.8958 Cl  0  0  0  0  0  0  0  0  0  0  0  0
   10.1036   -1.1352   22.3337 H   0  0  0  0  0  0  0  0  0  0  0  0
  1  2  2  0  0  0  0
  1  7  1  0  0  0  0
  2  9  1  0  0  0  0
  3  4  2  0  0  0  0
  3 10  1  0  0  0  0
  4 12  1  0  0  0  0
  5  8  1  0  0  0  0
  5 12  2  0  0  0  0
  6  9  2  0  0  0  0
  6 11  1  0  0  0  0
  7  8  1  0  0  0  0
  7 11  2  0  0  0  0
  8 10  2  0  0  0  0
  9 15  1  0  0  0  0
 10 16  1  0  0  0  0
 11 16  1  0  0  0  0
 12 19  1  0  0  0  0
 13 15  1  0  0  0  0
 13 17  1  0  0  0  0
 13 18  2  0  0  0  0
 14 15  1  0  0  0  0
 16 20  1  0  0  0  0
M  CHG  1  17  -1
M  END
> <ref_mols>
x2491_0

> <original SMILES>
CC(C(=O)O)C=1C=CC2=C(C1)NC=3C=CC(Cl)=CC32

> <Chemgauss4>
-10.343470

> <ref_pdb>
x0749_0

$$$$
x0531
  -OEChem-05172015543D

 21 22  0     0  0  0  0  0  0999 V2000
   12.4787    0.3367   23.9255 C   0  0  0  0  0  0  0  0  0  0  0  0
   13.1967   -1.5689   22.6254 C   0  0  0  0  0  0  0  0  0  0  0  0
   11.4233    0.5449   23.0375 C   0  0  0  0  0  0  0  0  0  0  0  0
   12.1413   -1.3607   21.7374 C   0  0  0  0  0  0  0  0  0  0  0  0
    6.3597    0.6913   18.0919 C   0  0  0  0  0  0  0  0  0  0  0  0
    6.0530    1.2101   19.3305 C   0  0  0  0  0  0  0  0  0  0  0  0
    8.5055    0.3085   18.7835 C   0  0  0  0  0  0  0  0  0  0  0  0
   13.3654   -0.7202   23.7194 C   0  0  0  0  0  0  0  0  0  0  0  0
   11.2546   -0.3038   21.9435 C   0  0  0  0  0  0  0  0  0  0  0  0
    8.1991    0.8280   20.0219 C   0  0  0  0  0  0  0  0  0  0  0  0
   14.4658   -0.9371   24.6451 C   0  0  0  0  0  0  0  0  0  0  0  0
    9.2074    0.9069   21.0927 C   0  0  0  0  0  0  0  0  0  0  0  0
    7.5914    0.2311   17.7962 N   0  0  0  0  0  0  0  0  0  0  0  0
    6.9672    1.2879   20.3178 N   0  0  0  0  0  0  0  0  0  0  0  0
   14.5898   -0.0620   25.7203 N   0  0  0  0  0  0  0  0  0  0  0  0
   10.1986   -0.0948   21.0561 N   0  0  0  0  0  0  0  0  0  0  0  0
   15.2814   -1.8609   24.4776 O   0  0  0  0  0  0  0  0  0  0  0  0
    9.1420    1.7748   21.9607 O   0  0  0  0  0  0  0  0  0  0  0  0
   13.9191    0.6913   25.8264 H   0  0  0  0  0  0  0  0  0  0  0  0
   15.3365   -0.1610   26.4005 H   0  0  0  0  0  0  0  0  0  0  0  0
   10.1351   -0.7570   20.2743 H   0  0  0  0  0  0  0  0  0  0  0  0
  1  3  2  0  0  0  0
  1  8  1  0  0  0  0
  2  4  1  0  0  0  0
  2  8  2  0  0  0  0
  3  9  1  0  0  0  0
  4  9  2  0  0  0  0
  5  6  2  0  0  0  0
  5 13  1  0  0  0  0
  6 14  1  0  0  0  0
  7 10  1  0  0  0  0
  7 13  2  0  0  0  0
  8 11  1  0  0  0  0
  9 16  1  0  0  0  0
 10 12  1  0  0  0  0
 10 14  2  0  0  0  0
 11 15  1  0  0  0  0
 11 17  2  0  0  0  0
 12 16  1  0  0  0  0
 12 18  2  0  0  0  0
 15 19  1  0  0  0  0
 15 20  1  0  0  0  0
 16 21  1  0  0  0  0
M  END
> <ref_mols>
x0531_0

> <original SMILES>
NC(=O)C=1C=CC(NC(=O)C=2C=NC=CN2)=CC1

> <Chemgauss4>
-10.329702

> <ref_pdb>
x0678_0

$$$$
x1255
  -OEChem-05172015543D

 21 22  0     0  0  0  0  0  0999 V2000
   12.4787    0.3367   23.9255 C   0  0  0  0  0  0  0  0  0  0  0  0
   13.1967   -1.5689   22.6254 C   0  0  0  0  0  0  0  0  0  0  0  0
   11.4233    0.5449   23.0375 C   0  0  0  0  0  0  0  0  0  0  0  0
   12.1413   -1.3607   21.7374 C   0  0  0  0  0  0  0  0  0  0  0  0
    6.3597    0.6913   18.0919 C   0  0  0  0  0  0  0  0  0  0  0  0
    6.0530    1.2101   19.3305 C   0  0  0  0  0  0  0  0  0  0  0  0
    8.5055    0.3085   18.7835 C   0  0  0  0  0  0  0  0  0  0  0  0
   13.3654   -0.7202   23.7194 C   0  0  0  0  0  0  0  0  0  0  0  0
   11.2546   -0.3038   21.9435 C   0  0  0  0  0  0  0  0  0  0  0  0
    8.1991    0.8280   20.0219 C   0  0  0  0  0  0  0  0  0  0  0  0
   14.4658   -0.9371   24.6451 C   0  0  0  0  0  0  0  0  0  0  0  0
    9.2074    0.9069   21.0927 C   0  0  0  0  0  0  0  0  0  0  0  0
    7.5914    0.2311   17.7962 N   0  0  0  0  0  0  0  0  0  0  0  0
    6.9672    1.2879   20.3178 N   0  0  0  0  0  0  0  0  0  0  0  0
   14.5898   -0.0620   25.7203 N   0  0  0  0  0  0  0  0  0  0  0  0
   10.1986   -0.0948   21.0561 N   0  0  0  0  0  0  0  0  0  0  0  0
   15.2814   -1.8609   24.4776 O   0  0  0  0  0  0  0  0  0  0  0  0
    9.1420    1.7748   21.9607 O   0  0  0  0  0  0  0  0  0  0  0  0
   13.9191    0.6913   25.8264 H   0  0  0  0  0  0  0  0  0  0  0  0
   15.3365   -0.1610   26.4005 H   0  0  0  0  0  0  0  0  0  0  0  0
   10.1351   -0.7570   20.2743 H   0  0  0  0  0  0  0  0  0  0  0  0
  1  3  2  0  0  0  0
  1  8  1  0  0  0  0
  2  4  1  0  0  0  0
  2  8  2  0  0  0  0
  3  9  1  0  0  0  0
  4  9  2  0  0  0  0
  5  6  2  0  0  0  0
  5 13  1  0  0  0  0
  6 14  1  0  0  0  0
  7 10  1  0  0  0  0
  7 13  2  0  0  0  0
  8 11  1  0  0  0  0
  9 16  1  0  0  0  0
 10 12  1  0  0  0  0
 10 14  2  0  0  0  0
 11 15  1  0  0  0  0
 11 17  2  0  0  0  0
 12 16  1  0  0  0  0
 12 18  2  0  0  0  0
 15 19  1  0  0  0  0
 15 20  1  0  0  0  0
 16 21  1  0  0  0  0
M  END
> <ref_mols>
x1255_0

> <original SMILES>
NC(=O)C=1C=CC(NC(=O)C=2C=NC=CN2)=CC1

> <Chemgauss4>
-10.329702

> <ref_pdb>
x0678_0

$$$$
x2596
  -OEChem-05172015543D

 25 27  0     1  0  0  0  0  0999 V2000
   13.9716   -0.3598   23.5587 C   0  0  0  0  0  0  0  0  0  0  0  0
   13.8238   -1.7239   23.3077 C   0  0  0  0  0  0  0  0  0  0  0  0
   12.8634    0.4850   23.4964 C   0  0  0  0  0  0  0  0  0  0  0  0
   12.5677   -2.2432   22.9942 C   0  0  0  0  0  0  0  0  0  0  0  0
    6.4923    0.8893   17.7245 C   0  0  0  0  0  0  0  0  0  0  0  0
    6.0102    0.8028   19.0064 C   0  0  0  0  0  0  0  0  0  0  0  0
   11.6073   -0.0344   23.1829 C   0  0  0  0  0  0  0  0  0  0  0  0
   11.4595   -1.3985   22.9318 C   0  0  0  0  0  0  0  0  0  0  0  0
   10.4405    0.8832   23.1218 C   0  0  0  0  0  0  0  0  0  0  0  0
    8.1136   -3.4271   24.8243 C   0  0  0  0  0  0  0  0  0  0  0  0
    9.2998   -2.4488   24.9152 C   0  0  0  0  0  0  0  0  0  0  0  0
    8.2482   -3.3417   23.2924 C   0  0  0  0  0  0  0  0  0  0  0  0
    9.7249   -2.9346   23.5096 C   0  0  0  0  0  0  0  0  0  0  0  0
    7.0761   -0.1127   21.1173 C   0  0  0  0  0  0  0  0  0  0  0  0
    8.6504    1.8130   21.6773 C   0  0  0  0  0  0  0  0  0  0  0  0
    7.3234    1.1173   21.9997 C   0  0  2  0  0  0  0  0  0  0  0  0
    7.7585    0.3759   17.6743 N   0  0  0  0  0  0  0  0  0  0  0  0
    8.0823   -0.0323   18.8964 N   0  0  0  0  0  0  0  0  0  0  0  0
    7.0326    0.2244   19.6936 N   0  0  0  0  0  0  0  0  0  0  0  0
    9.7957    0.9418   21.9035 N   0  0  0  0  0  0  0  0  0  0  0  0
   10.1357    1.5334   24.1182 O   0  0  0  0  0  0  0  0  0  0  0  0
    7.3708    0.6873   23.3622 O   0  0  0  0  0  0  0  0  0  0  0  0
   10.2401   -1.9251   22.6259 O   0  0  0  0  0  0  0  0  0  0  0  0
   10.1352    0.4279   21.1035 H   0  0  0  0  0  0  0  0  0  0  0  0
    7.5275    1.4823   23.8929 H   0  0  0  0  0  0  0  0  0  0  0  0
  1  2  1  0  0  0  0
  1  3  2  0  0  0  0
  2  4  2  0  0  0  0
  3  7  1  0  0  0  0
  4  8  1  0  0  0  0
  5  6  2  0  0  0  0
  5 17  1  0  0  0  0
  6 19  1  0  0  0  0
  7  8  2  0  0  0  0
  7  9  1  0  0  0  0
  8 23  1  0  0  0  0
  9 20  1  0  0  0  0
  9 21  2  0  0  0  0
 10 11  1  0  0  0  0
 10 12  1  0  0  0  0
 11 13  1  0  0  0  0
 12 13  1  0  0  0  0
 13 23  1  0  0  0  0
 14 16  1  0  0  0  0
 14 19  1  0  0  0  0
 15 16  1  0  0  0  0
 15 20  1  0  0  0  0
 16 22  1  0  0  0  0
 17 18  2  0  0  0  0
 18 19  1  0  0  0  0
 20 24  1  0  0  0  0
 22 25  1  0  0  0  0
M  END
> <ref_mols>
x2596_0

> <original SMILES>
OC(CNC(=O)C=1C=CC=CC1OC2CCC2)CN3C=CN=N3

> <Chemgauss4>
-10.300408

> <ref_pdb>
x0678_0

$$$$
x0655
  -OEChem-05172015543D

 19 20  0     0  0  0  0  0  0999 V2000
   14.0501   -1.9296   22.6387 C   0  0  0  0  0  0  0  0  0  0  0  0
   13.5466   -0.3391   24.3862 C   0  0  0  0  0  0  0  0  0  0  0  0
   13.2582   -1.2032   21.7494 C   0  0  0  0  0  0  0  0  0  0  0  0
   12.7547    0.3873   23.4969 C   0  0  0  0  0  0  0  0  0  0  0  0
    6.7043    0.4347   19.8487 C   0  0  0  0  0  0  0  0  0  0  0  0
   14.1942   -1.4976   23.9572 C   0  0  0  0  0  0  0  0  0  0  0  0
   12.6105   -0.0447   22.1785 C   0  0  0  0  0  0  0  0  0  0  0  0
    5.5426    0.4951   19.1256 C   0  0  0  0  0  0  0  0  0  0  0  0
    7.6915    0.1996   18.8761 C   0  0  0  0  0  0  0  0  0  0  0  0
    9.6984    0.1254   20.3900 C   0  0  0  0  0  0  0  0  0  0  0  0
   15.0413   -2.2738   24.9079 C   0  0  0  0  0  0  0  0  0  0  0  0
    4.1343    0.7110   19.4806 C   0  0  0  0  0  0  0  0  0  0  0  0
   11.1945   -0.0662   20.2679 C   0  0  0  0  0  0  0  0  0  0  0  0
    7.1810    0.1203   17.6440 N   0  0  0  0  0  0  0  0  0  0  0  0
    9.0724    0.0597   19.1518 N   0  0  0  0  0  0  0  0  0  0  0  0
    9.1825    0.3167   21.4871 O   0  0  0  0  0  0  0  0  0  0  0  0
    5.8140    0.3089   17.8085 O   0  0  0  0  0  0  0  0  0  0  0  0
   11.8389    0.6646   21.3102 O   0  0  0  0  0  0  0  0  0  0  0  0
    9.6767   -0.1084   18.3502 H   0  0  0  0  0  0  0  0  0  0  0  0
  1  3  2  0  0  0  0
  1  6  1  0  0  0  0
  2  4  1  0  0  0  0
  2  6  2  0  0  0  0
  3  7  1  0  0  0  0
  4  7  2  0  0  0  0
  5  8  2  0  0  0  0
  5  9  1  0  0  0  0
  6 11  1  0  0  0  0
  7 18  1  0  0  0  0
  8 12  1  0  0  0  0
  8 17  1  0  0  0  0
  9 14  2  0  0  0  0
  9 15  1  0  0  0  0
 10 13  1  0  0  0  0
 10 15  1  0  0  0  0
 10 16  2  0  0  0  0
 13 18  1  0  0  0  0
 14 17  1  0  0  0  0
 15 19  1  0  0  0  0
M  END
> <ref_mols>
x0655_0

> <original SMILES>
CC1=CC(NC(=O)COC=2C=CC(C)=CC2)=NO1

> <Chemgauss4>
-10.299666

> <ref_pdb>
x0678_0

$$$$
x0389
  -OEChem-05172015543D

 18 19  0     0  0  0  0  0  0999 V2000
    5.2828    1.1940   19.2816 C   0  0  0  0  0  0  0  0  0  0  0  0
    6.1613    1.0271   20.3463 C   0  0  0  0  0  0  0  0  0  0  0  0
    5.7363    0.8781   18.0110 C   0  0  0  0  0  0  0  0  0  0  0  0
    7.8047    0.2685   18.8036 C   0  0  0  0  0  0  0  0  0  0  0  0
    9.7557   -2.3441   23.0058 C   0  0  0  0  0  0  0  0  0  0  0  0
    8.7314   -2.3010   24.9511 C   0  0  0  0  0  0  0  0  0  0  0  0
    7.4482    0.5561   20.1113 C   0  0  0  0  0  0  0  0  0  0  0  0
    9.0245   -1.5068   23.8695 C   0  0  0  0  0  0  0  0  0  0  0  0
    8.3873    0.3723   21.2038 C   0  0  0  0  0  0  0  0  0  0  0  0
    7.8160   -5.1098   25.8476 C   0  0  0  0  0  0  0  0  0  0  0  0
    8.6504   -0.0680   23.6594 C   0  0  0  0  0  0  0  0  0  0  0  0
    9.2391   -4.6862   25.5269 C   0  0  0  0  0  0  0  0  0  0  0  0
    6.9790    0.4180   17.7436 N   0  0  0  0  0  0  0  0  0  0  0  0
    9.9174   -3.5759   23.4965 N   0  0  0  0  0  0  0  0  0  0  0  0
    9.2837   -3.5183   24.6802 N   0  0  0  0  0  0  0  0  0  0  0  0
    7.8487    0.1143   22.4708 N   0  0  0  0  0  0  0  0  0  0  0  0
    9.6131    0.4645   21.0076 O   0  0  0  0  0  0  0  0  0  0  0  0
    6.8408    0.1119   22.5889 H   0  0  0  0  0  0  0  0  0  0  0  0
  1  2  2  0  0  0  0
  1  3  1  0  0  0  0
  2  7  1  0  0  0  0
  3 13  2  0  0  0  0
  4  7  2  0  0  0  0
  4 13  1  0  0  0  0
  5  8  1  0  0  0  0
  5 14  2  0  0  0  0
  6  8  2  0  0  0  0
  6 15  1  0  0  0  0
  7  9  1  0  0  0  0
  8 11  1  0  0  0  0
  9 16  1  0  0  0  0
  9 17  2  0  0  0  0
 10 12  1  0  0  0  0
 11 16  1  0  0  0  0
 12 15  1  0  0  0  0
 14 15  1  0  0  0  0
 16 18  1  0  0  0  0
M  END
> <ref_mols>
x0389_0

> <original SMILES>
CCN1C=C(CNC(=O)C=2C=CC=NC2)C=N1

> <Chemgauss4>
-10.282750

> <ref_pdb>
x0107_0

$$$$
x2618
  -OEChem-05172015543D

 19 20  0     0  0  0  0  0  0999 V2000
   14.5562   -1.7224   23.7409 C   0  0  0  0  0  0  0  0  0  0  0  0
   13.6506   -1.2381   24.6847 C   0  0  0  0  0  0  0  0  0  0  0  0
   14.2068   -1.7535   22.3909 C   0  0  0  0  0  0  0  0  0  0  0  0
   12.3954   -0.7850   24.2786 C   0  0  0  0  0  0  0  0  0  0  0  0
   12.9516   -1.3005   21.9847 C   0  0  0  0  0  0  0  0  0  0  0  0
    8.4266    0.1232   18.8760 C   0  0  0  0  0  0  0  0  0  0  0  0
    6.4151    0.8327   18.0901 C   0  0  0  0  0  0  0  0  0  0  0  0
   12.0459   -0.8162   22.9285 C   0  0  0  0  0  0  0  0  0  0  0  0
    8.0649    0.4344   20.1709 C   0  0  0  0  0  0  0  0  0  0  0  0
    6.8001    0.9639   20.3266 C   0  0  0  0  0  0  0  0  0  0  0  0
   10.2497   -0.3117   21.2145 C   0  0  0  0  0  0  0  0  0  0  0  0
    6.2966    1.3396   21.6822 C   0  0  0  0  0  0  0  0  0  0  0  0
    7.6237    0.3099   17.8080 N   0  0  0  0  0  0  0  0  0  0  0  0
    5.9458    1.1774   19.3044 N   0  0  0  0  0  0  0  0  0  0  0  0
   10.7905   -0.3628   22.5224 N   0  0  0  0  0  0  0  0  0  0  0  0
    8.9493    0.2164   21.2536 N   0  0  0  0  0  0  0  0  0  0  0  0
   10.8370   -0.6769   20.2011 O   0  0  0  0  0  0  0  0  0  0  0  0
   10.1778   -0.0211   23.2705 H   0  0  0  0  0  0  0  0  0  0  0  0
    8.5934    0.4770   22.1699 H   0  0  0  0  0  0  0  0  0  0  0  0
  1  2  1  0  0  0  0
  1  3  2  0  0  0  0
  2  4  2  0  0  0  0
  3  5  1  0  0  0  0
  4  8  1  0  0  0  0
  5  8  2  0  0  0  0
  6  9  1  0  0  0  0
  6 13  2  0  0  0  0
  7 13  1  0  0  0  0
  7 14  2  0  0  0  0
  8 15  1  0  0  0  0
  9 10  2  0  0  0  0
  9 16  1  0  0  0  0
 10 12  1  0  0  0  0
 10 14  1  0  0  0  0
 11 15  1  0  0  0  0
 11 16  1  0  0  0  0
 11 17  2  0  0  0  0
 15 18  1  0  0  0  0
 16 19  1  0  0  0  0
M  END
> <ref_mols>
x2618_0

> <original SMILES>
CC=1N=CN=CC1NC(=O)NC=2C=CC=CC2

> <Chemgauss4>
-10.278812

> <ref_pdb>
x0678_0

$$$$
x0434
  -OEChem-05172015543D

 18 19  0     0  0  0  0  0  0999 V2000
   14.6030   -1.2265   23.4044 C   0  0  0  0  0  0  0  0  0  0  0  0
   13.7295   -0.7034   24.3577 C   0  0  0  0  0  0  0  0  0  0  0  0
   14.1922   -1.3537   22.0774 C   0  0  0  0  0  0  0  0  0  0  0  0
    5.7271    1.1708   19.1988 C   0  0  0  0  0  0  0  0  0  0  0  0
   12.4453   -0.3074   23.9842 C   0  0  0  0  0  0  0  0  0  0  0  0
   12.9080   -0.9577   21.7039 C   0  0  0  0  0  0  0  0  0  0  0  0
    6.6287    1.0586   20.2513 C   0  0  0  0  0  0  0  0  0  0  0  0
    6.1400    0.7536   17.9438 C   0  0  0  0  0  0  0  0  0  0  0  0
    8.2136    0.1507   18.7281 C   0  0  0  0  0  0  0  0  0  0  0  0
   12.0345   -0.4345   22.6573 C   0  0  0  0  0  0  0  0  0  0  0  0
    7.8978    0.5399   20.0198 C   0  0  0  0  0  0  0  0  0  0  0  0
   10.1478   -0.0851   21.0028 C   0  0  0  0  0  0  0  0  0  0  0  0
    7.3644    0.2446   17.6803 N   0  0  0  0  0  0  0  0  0  0  0  0
   10.7499   -0.0382   22.2838 N   0  0  0  0  0  0  0  0  0  0  0  0
    8.8370    0.4137   21.0705 N   0  0  0  0  0  0  0  0  0  0  0  0
   10.6969   -0.5014   19.9877 O   0  0  0  0  0  0  0  0  0  0  0  0
   10.1637    0.3368   23.0371 H   0  0  0  0  0  0  0  0  0  0  0  0
    8.5172    0.7248   21.9843 H   0  0  0  0  0  0  0  0  0  0  0  0
  1  2  1  0  0  0  0
  1  3  2  0  0  0  0
  2  5  2  0  0  0  0
  3  6  1  0  0  0  0
  4  7  2  0  0  0  0
  4  8  1  0  0  0  0
  5 10  1  0  0  0  0
  6 10  2  0  0  0  0
  7 11  1  0  0  0  0
  8 13  2  0  0  0  0
  9 11  2  0  0  0  0
  9 13  1  0  0  0  0
 10 14  1  0  0  0  0
 11 15  1  0  0  0  0
 12 14  1  0  0  0  0
 12 15  1  0  0  0  0
 12 16  2  0  0  0  0
 14 17  1  0  0  0  0
 15 18  1  0  0  0  0
M  END
> <ref_mols>
x0434_0

> <original SMILES>
O=C(NC=1C=CC=CC1)NC=2C=CC=NC2

> <Chemgauss4>
-10.248122

> <ref_pdb>
x0678_0

$$$$
x2626
  -OEChem-05172015543D

 24 26  0     0  0  0  0  0  0999 V2000
    6.1260   -6.5802   22.4702 C   0  0  0  0  0  0  0  0  0  0  0  0
    5.1817    1.8232   19.3084 C   0  0  0  0  0  0  0  0  0  0  0  0
    6.2204   -6.3921   23.8490 C   0  0  0  0  0  0  0  0  0  0  0  0
    6.4324   -5.5332   21.6008 C   0  0  0  0  0  0  0  0  0  0  0  0
    5.6385    0.5170   19.2951 C   0  0  0  0  0  0  0  0  0  0  0  0
    6.9275   -4.1100   23.4893 C   0  0  0  0  0  0  0  0  0  0  0  0
    5.4260    2.6044   18.1969 C   0  0  0  0  0  0  0  0  0  0  0  0
    6.6212   -5.1570   24.3586 C   0  0  0  0  0  0  0  0  0  0  0  0
    6.8331   -4.2981   22.1104 C   0  0  0  0  0  0  0  0  0  0  0  0
    6.3092    0.0785   18.1711 C   0  0  0  0  0  0  0  0  0  0  0  0
    7.0699   -3.9023   26.4741 C   0  0  0  0  0  0  0  0  0  0  0  0
    6.6093   -2.9910   19.9606 C   0  0  0  0  0  0  0  0  0  0  0  0
    6.8565   -4.7183   27.7631 C   0  0  0  0  0  0  0  0  0  0  0  0
    6.4672   -5.8818   26.8293 C   0  0  0  0  0  0  0  0  0  0  0  0
    6.8241   -1.3302   18.1046 C   0  0  0  0  0  0  0  0  0  0  0  0
    6.0852    2.1489   17.1105 N   0  0  0  0  0  0  0  0  0  0  0  0
    6.5338    0.8651   17.0974 N   0  0  0  0  0  0  0  0  0  0  0  0
    6.7159   -4.9698   25.7380 N   0  0  0  0  0  0  0  0  0  0  0  0
    7.1395   -3.2513   21.2404 N   0  0  0  0  0  0  0  0  0  0  0  0
    7.1787   -1.8385   19.4097 N   0  0  0  0  0  0  0  0  0  0  0  0
    7.4127   -2.7743   26.2035 O   0  0  0  0  0  0  0  0  0  0  0  0
    5.7614   -3.6644   19.3798 O   0  0  0  0  0  0  0  0  0  0  0  0
    7.8401   -2.5752   21.5618 H   0  0  0  0  0  0  0  0  0  0  0  0
    7.8738   -1.3354   19.9523 H   0  0  0  0  0  0  0  0  0  0  0  0
  1  3  1  0  0  0  0
  1  4  2  0  0  0  0
  2  5  2  0  0  0  0
  2  7  1  0  0  0  0
  3  8  2  0  0  0  0
  4  9  1  0  0  0  0
  5 10  1  0  0  0  0
  6  8  1  0  0  0  0
  6  9  2  0  0  0  0
  7 16  2  0  0  0  0
  8 18  1  0  0  0  0
  9 19  1  0  0  0  0
 10 15  1  0  0  0  0
 10 17  2  0  0  0  0
 11 13  1  0  0  0  0
 11 18  1  0  0  0  0
 11 21  2  0  0  0  0
 12 19  1  0  0  0  0
 12 20  1  0  0  0  0
 12 22  2  0  0  0  0
 13 14  1  0  0  0  0
 14 18  1  0  0  0  0
 15 20  1  0  0  0  0
 16 17  1  0  0  0  0
 19 23  1  0  0  0  0
 20 24  1  0  0  0  0
M  END
> <ref_mols>
x2626_0

> <original SMILES>
O=C(NCC=1C=CC=NN1)NC=2C=CC=C(C2)N3CCC3=O

> <Chemgauss4>
-10.245558

> <ref_pdb>
x0397_0

$$$$
x0127
  -OEChem-05172015543D

 18 19  0     0  0  0  0  0  0999 V2000
    5.2937   -5.3121   23.7601 C   0  0  0  0  0  0  0  0  0  0  0  0
   13.5399   -0.9872   25.1459 C   0  0  0  0  0  0  0  0  0  0  0  0
   13.7128   -2.3704   25.1946 C   0  0  0  0  0  0  0  0  0  0  0  0
   12.2552   -0.4440   25.1575 C   0  0  0  0  0  0  0  0  0  0  0  0
   12.6009   -3.2105   25.2546 C   0  0  0  0  0  0  0  0  0  0  0  0
   11.1433   -1.2841   25.2175 C   0  0  0  0  0  0  0  0  0  0  0  0
   11.3161   -2.6674   25.2660 C   0  0  0  0  0  0  0  0  0  0  0  0
    6.1913   -4.6738   21.6038 C   0  0  0  0  0  0  0  0  0  0  0  0
    8.8173   -2.8296   23.3007 C   0  0  0  0  0  0  0  0  0  0  0  0
    8.7954   -5.2527   23.9917 C   0  0  0  0  0  0  0  0  0  0  0  0
    8.2647   -3.2390   21.9364 C   0  0  0  0  0  0  0  0  0  0  0  0
    8.2456   -5.6127   22.6135 C   0  0  0  0  0  0  0  0  0  0  0  0
    9.6324   -3.9658   23.9370 C   0  0  0  0  0  0  0  0  0  0  0  0
    5.3676   -5.6894   22.3547 C   0  0  0  0  0  0  0  0  0  0  0  0
   10.1167   -3.5727   25.3305 C   0  0  0  0  0  0  0  0  0  0  0  0
    5.2251   -5.0257   24.8825 N   0  0  0  0  0  0  0  0  0  0  0  0
    7.5038   -4.4899   22.0374 N   0  0  0  0  0  0  0  0  0  0  0  0
    5.6826   -4.0651   20.6590 O   0  0  0  0  0  0  0  0  0  0  0  0
  1 14  1  0  0  0  0
  1 16  3  0  0  0  0
  2  3  1  0  0  0  0
  2  4  2  0  0  0  0
  3  5  2  0  0  0  0
  4  6  1  0  0  0  0
  5  7  1  0  0  0  0
  6  7  2  0  0  0  0
  7 15  1  0  0  0  0
  8 14  1  0  0  0  0
  8 17  1  0  0  0  0
  8 18  2  0  0  0  0
  9 11  1  0  0  0  0
  9 13  1  0  0  0  0
 10 12  1  0  0  0  0
 10 13  1  0  0  0  0
 11 17  1  0  0  0  0
 12 17  1  0  0  0  0
 13 15  1  0  0  0  0
M  END
> <ref_mols>
x0127_0

> <original SMILES>
O=C(CC#N)N1CCC(CC=2C=CC=CC2)CC1

> <Chemgauss4>
-10.243844

> <ref_pdb>
x0749_0

$$$$
x0390
  -OEChem-05172015543D

 21 23  0     0  0  0  0  0  0999 V2000
   11.0408    1.0398   24.7941 C   0  0  0  0  0  0  0  0  0  0  0  0
    6.1664    0.8682   17.8185 C   0  0  0  0  0  0  0  0  0  0  0  0
    4.9691    0.9596   18.5320 C   0  0  0  0  0  0  0  0  0  0  0  0
   12.1265    1.3333   23.9691 C   0  0  0  0  0  0  0  0  0  0  0  0
   10.1866   -0.0154   24.4738 C   0  0  0  0  0  0  0  0  0  0  0  0
    7.3180    0.3311   18.4075 C   0  0  0  0  0  0  0  0  0  0  0  0
    4.8780    0.5190   19.8565 C   0  0  0  0  0  0  0  0  0  0  0  0
   12.3579    0.5717   22.8236 C   0  0  0  0  0  0  0  0  0  0  0  0
   10.4181   -0.7770   23.3284 C   0  0  0  0  0  0  0  0  0  0  0  0
    7.2445   -0.1162   19.7375 C   0  0  0  0  0  0  0  0  0  0  0  0
    6.0373   -0.0121   20.4226 C   0  0  0  0  0  0  0  0  0  0  0  0
   11.5037   -0.4835   22.5033 C   0  0  0  0  0  0  0  0  0  0  0  0
    7.6175   -0.9091   21.6847 C   0  0  0  0  0  0  0  0  0  0  0  0
    9.4880   -1.9087   22.9991 C   0  0  0  0  0  0  0  0  0  0  0  0
    8.2144   -0.6758   20.5374 N   0  0  0  0  0  0  0  0  0  0  0  0
    6.3051   -0.5267   21.6652 N   0  0  0  0  0  0  0  0  0  0  0  0
    8.1099   -1.4507   22.8206 N   0  0  0  0  0  0  0  0  0  0  0  0
   11.7435   -1.2170   21.3804 O   0  0  0  0  0  0  0  0  0  0  0  0
    5.6497   -0.6095   22.4308 H   0  0  0  0  0  0  0  0  0  0  0  0
    7.4979   -1.5661   23.6418 H   0  0  0  0  0  0  0  0  0  0  0  0
   12.5312   -0.8825   20.9237 H   0  0  0  0  0  0  0  0  0  0  0  0
  1  4  1  0  0  0  0
  1  5  2  0  0  0  0
  2  3  1  0  0  0  0
  2  6  2  0  0  0  0
  3  7  2  0  0  0  0
  4  8  2  0  0  0  0
  5  9  1  0  0  0  0
  6 10  1  0  0  0  0
  7 11  1  0  0  0  0
  8 12  1  0  0  0  0
  9 12  2  0  0  0  0
  9 14  1  0  0  0  0
 10 11  2  0  0  0  0
 10 15  1  0  0  0  0
 11 16  1  0  0  0  0
 12 18  1  0  0  0  0
 13 15  2  0  0  0  0
 13 16  1  0  0  0  0
 13 17  1  0  0  0  0
 14 17  1  0  0  0  0
 16 19  1  0  0  0  0
 17 20  1  0  0  0  0
 18 21  1  0  0  0  0
M  END
> <ref_mols>
x0390_0

> <original SMILES>
OC=1C=CC=CC1CNC2=NC=3C=CC=CC3N2

> <Chemgauss4>
-10.243726

> <ref_pdb>
x0434_0

$$$$
x0219
  -OEChem-05172015543D

 19 20  0     0  0  0  0  0  0999 V2000
   11.3428   -3.5204   25.0878 C   0  0  0  0  0  0  0  0  0  0  0  0
   10.2547   -4.1871   24.5246 C   0  0  0  0  0  0  0  0  0  0  0  0
   11.2069   -1.8382   23.3590 C   0  0  0  0  0  0  0  0  0  0  0  0
   11.8189   -2.3459   24.5050 C   0  0  0  0  0  0  0  0  0  0  0  0
    9.6427   -3.6793   23.3786 C   0  0  0  0  0  0  0  0  0  0  0  0
   10.1188   -2.5049   22.7957 C   0  0  0  0  0  0  0  0  0  0  0  0
    6.2786   -5.8363   21.8324 C   0  0  0  0  0  0  0  0  0  0  0  0
    6.4020   -4.3314   21.6288 C   0  0  0  0  0  0  0  0  0  0  0  0
    7.6617   -6.4709   21.9147 C   0  0  0  0  0  0  0  0  0  0  0  0
    7.2558   -3.6837   22.7179 C   0  0  0  0  0  0  0  0  0  0  0  0
    8.5092   -5.8227   23.0073 C   0  0  0  0  0  0  0  0  0  0  0  0
   12.9820   -1.6329   25.1074 C   0  0  0  0  0  0  0  0  0  0  0  0
    8.5511   -4.3641   22.8309 N   0  0  0  0  0  0  0  0  0  0  0  0
    9.5130   -1.9729   21.6357 N   0  0  0  0  0  0  0  0  0  0  0  0
   13.4793   -2.2425   26.2242 F   0  0  0  0  0  0  0  0  0  0  0  0
   14.0483   -1.5143   24.2620 F   0  0  0  0  0  0  0  0  0  0  0  0
   12.6759   -0.3594   25.4913 F   0  0  0  0  0  0  0  0  0  0  0  0
    9.8451   -1.1053   21.2688 H   0  0  0  0  0  0  0  0  0  0  0  0
    8.7050   -2.4241   21.2598 H   0  0  0  0  0  0  0  0  0  0  0  0
  1  2  2  0  0  0  0
  1  4  1  0  0  0  0
  2  5  1  0  0  0  0
  3  4  2  0  0  0  0
  3  6  1  0  0  0  0
  4 12  1  0  0  0  0
  5  6  2  0  0  0  0
  5 13  1  0  0  0  0
  6 14  1  0  0  0  0
  7  8  1  0  0  0  0
  7  9  1  0  0  0  0
  8 10  1  0  0  0  0
  9 11  1  0  0  0  0
 10 13  1  0  0  0  0
 11 13  1  0  0  0  0
 12 15  1  0  0  0  0
 12 16  1  0  0  0  0
 12 17  1  0  0  0  0
 14 18  1  0  0  0  0
 14 19  1  0  0  0  0
M  END
> <ref_mols>
x0219_0

> <original SMILES>
NC=1C=C(C=CC1N2CCCCC2)C(F)(F)F

> <Chemgauss4>
-10.238253

> <ref_pdb>
x0749_0

$$$$
x1440
  -OEChem-05172015543D

 20 22  0     1  0  0  0  0  0999 V2000
   13.5922   -0.3114   22.5812 C   0  0  0  0  0  0  0  0  0  0  0  0
   12.8421   -1.2967   21.9392 C   0  0  0  0  0  0  0  0  0  0  0  0
   13.0217    0.4419   23.6072 C   0  0  0  0  0  0  0  0  0  0  0  0
    8.3908   -5.2007   23.6733 C   0  0  0  0  0  0  0  0  0  0  0  0
    9.2147   -4.7193   24.6865 C   0  0  0  0  0  0  0  0  0  0  0  0
   11.5213   -1.5286   22.3232 C   0  0  0  0  0  0  0  0  0  0  0  0
   11.7009    0.2100   23.9912 C   0  0  0  0  0  0  0  0  0  0  0  0
    7.9248   -4.3357   22.6835 C   0  0  0  0  0  0  0  0  0  0  0  0
    9.5711   -3.3718   24.7131 C   0  0  0  0  0  0  0  0  0  0  0  0
   10.9507   -0.7753   23.3492 C   0  0  0  0  0  0  0  0  0  0  0  0
    8.2803   -2.9783   22.6943 C   0  0  0  0  0  0  0  0  0  0  0  0
    9.1057   -2.4902   23.7241 C   0  0  0  0  0  0  0  0  0  0  0  0
    8.4212    0.1097   20.5141 C   0  0  0  0  0  0  0  0  0  0  0  0
    7.7546   -2.0805   21.6003 C   0  0  0  0  0  0  0  0  0  0  0  0
    8.5260   -0.1579   22.9682 C   0  0  0  0  0  0  0  0  0  0  0  0
    9.5083   -1.0278   23.7689 C   0  0  2  0  0  0  0  0  0  0  0  0
    7.4435   -0.1206   19.3885 C   0  0  0  0  0  0  0  0  0  0  0  0
    8.2801   -0.7096   21.6365 N   0  0  0  0  0  0  0  0  0  0  0  0
    9.2850    0.9821   20.3959 O   0  0  0  0  0  0  0  0  0  0  0  0
    5.8358    0.1235   20.0613 Cl  0  0  0  0  0  0  0  0  0  0  0  0
  1  2  1  0  0  0  0
  1  3  2  0  0  0  0
  2  6  2  0  0  0  0
  3  7  1  0  0  0  0
  4  5  1  0  0  0  0
  4  8  2  0  0  0  0
  5  9  2  0  0  0  0
  6 10  1  0  0  0  0
  7 10  2  0  0  0  0
  8 11  1  0  0  0  0
  9 12  1  0  0  0  0
 10 16  1  0  0  0  0
 11 12  2  0  0  0  0
 11 14  1  0  0  0  0
 12 16  1  0  0  0  0
 13 17  1  0  0  0  0
 13 18  1  0  0  0  0
 13 19  2  0  0  0  0
 14 18  1  0  0  0  0
 15 16  1  0  0  0  0
 15 18  1  0  0  0  0
 17 20  1  0  0  0  0
M  END
> <ref_mols>
x1440_0

> <original SMILES>
ClCC(=O)N1CC(c2ccccc2)c3ccccc3C1

> <Chemgauss4>
-10.232087

> <ref_pdb>
x0831_0

> <CYS145-warhead dist minimum (A)>
4.384425

> <CYS145-warhead dist mean (A)>
10.229186

> <CYS145-warhead dist stddev (A)>
2.017807

$$$$
x1337
  -OEChem-05172015543D

 20 22  0     1  0  0  0  0  0999 V2000
   13.5922   -0.3114   22.5812 C   0  0  0  0  0  0  0  0  0  0  0  0
   12.8421   -1.2967   21.9392 C   0  0  0  0  0  0  0  0  0  0  0  0
   13.0217    0.4419   23.6072 C   0  0  0  0  0  0  0  0  0  0  0  0
    8.3908   -5.2007   23.6733 C   0  0  0  0  0  0  0  0  0  0  0  0
    9.2147   -4.7193   24.6865 C   0  0  0  0  0  0  0  0  0  0  0  0
   11.5213   -1.5286   22.3232 C   0  0  0  0  0  0  0  0  0  0  0  0
   11.7009    0.2100   23.9912 C   0  0  0  0  0  0  0  0  0  0  0  0
    7.9248   -4.3357   22.6835 C   0  0  0  0  0  0  0  0  0  0  0  0
    9.5711   -3.3718   24.7131 C   0  0  0  0  0  0  0  0  0  0  0  0
   10.9507   -0.7753   23.3492 C   0  0  0  0  0  0  0  0  0  0  0  0
    8.2803   -2.9783   22.6943 C   0  0  0  0  0  0  0  0  0  0  0  0
    9.1057   -2.4902   23.7241 C   0  0  0  0  0  0  0  0  0  0  0  0
    8.4212    0.1097   20.5141 C   0  0  0  0  0  0  0  0  0  0  0  0
    7.7546   -2.0805   21.6003 C   0  0  0  0  0  0  0  0  0  0  0  0
    8.5260   -0.1579   22.9682 C   0  0  0  0  0  0  0  0  0  0  0  0
    9.5083   -1.0278   23.7689 C   0  0  2  0  0  0  0  0  0  0  0  0
    7.4435   -0.1206   19.3885 C   0  0  0  0  0  0  0  0  0  0  0  0
    8.2801   -0.7096   21.6365 N   0  0  0  0  0  0  0  0  0  0  0  0
    9.2850    0.9821   20.3959 O   0  0  0  0  0  0  0  0  0  0  0  0
    5.8358    0.1235   20.0613 Cl  0  0  0  0  0  0  0  0  0  0  0  0
  1  2  1  0  0  0  0
  1  3  2  0  0  0  0
  2  6  2  0  0  0  0
  3  7  1  0  0  0  0
  4  5  1  0  0  0  0
  4  8  2  0  0  0  0
  5  9  2  0  0  0  0
  6 10  1  0  0  0  0
  7 10  2  0  0  0  0
  8 11  1  0  0  0  0
  9 12  1  0  0  0  0
 10 16  1  0  0  0  0
 11 12  2  0  0  0  0
 11 14  1  0  0  0  0
 12 16  1  0  0  0  0
 13 17  1  0  0  0  0
 13 18  1  0  0  0  0
 13 19  2  0  0  0  0
 14 18  1  0  0  0  0
 15 16  1  0  0  0  0
 15 18  1  0  0  0  0
 17 20  1  0  0  0  0
M  END
> <ref_mols>
x1337_0

> <original SMILES>
ClCC(=O)N1CC(c2ccccc2)c3ccccc3C1

> <Chemgauss4>
-10.232087

> <ref_pdb>
x0831_0

> <CYS145-warhead dist minimum (A)>
6.596903

> <CYS145-warhead dist mean (A)>
8.082369

> <CYS145-warhead dist stddev (A)>
0.58168817

$$$$
x1373
  -OEChem-05172015543D

 20 22  0     1  0  0  0  0  0999 V2000
   13.5922   -0.3114   22.5812 C   0  0  0  0  0  0  0  0  0  0  0  0
   12.8421   -1.2967   21.9392 C   0  0  0  0  0  0  0  0  0  0  0  0
   13.0217    0.4419   23.6072 C   0  0  0  0  0  0  0  0  0  0  0  0
    8.3908   -5.2007   23.6733 C   0  0  0  0  0  0  0  0  0  0  0  0
    9.2147   -4.7193   24.6865 C   0  0  0  0  0  0  0  0  0  0  0  0
   11.5213   -1.5286   22.3232 C   0  0  0  0  0  0  0  0  0  0  0  0
   11.7009    0.2100   23.9912 C   0  0  0  0  0  0  0  0  0  0  0  0
    7.9248   -4.3357   22.6835 C   0  0  0  0  0  0  0  0  0  0  0  0
    9.5711   -3.3718   24.7131 C   0  0  0  0  0  0  0  0  0  0  0  0
   10.9507   -0.7753   23.3492 C   0  0  0  0  0  0  0  0  0  0  0  0
    8.2803   -2.9783   22.6943 C   0  0  0  0  0  0  0  0  0  0  0  0
    9.1057   -2.4902   23.7241 C   0  0  0  0  0  0  0  0  0  0  0  0
    8.4212    0.1097   20.5141 C   0  0  0  0  0  0  0  0  0  0  0  0
    7.7546   -2.0805   21.6003 C   0  0  0  0  0  0  0  0  0  0  0  0
    8.5260   -0.1579   22.9682 C   0  0  0  0  0  0  0  0  0  0  0  0
    9.5083   -1.0278   23.7689 C   0  0  2  0  0  0  0  0  0  0  0  0
    7.4435   -0.1206   19.3885 C   0  0  0  0  0  0  0  0  0  0  0  0
    8.2801   -0.7096   21.6365 N   0  0  0  0  0  0  0  0  0  0  0  0
    9.2850    0.9821   20.3959 O   0  0  0  0  0  0  0  0  0  0  0  0
    5.8358    0.1235   20.0613 Cl  0  0  0  0  0  0  0  0  0  0  0  0
  1  2  1  0  0  0  0
  1  3  2  0  0  0  0
  2  6  2  0  0  0  0
  3  7  1  0  0  0  0
  4  5  1  0  0  0  0
  4  8  2  0  0  0  0
  5  9  2  0  0  0  0
  6 10  1  0  0  0  0
  7 10  2  0  0  0  0
  8 11  1  0  0  0  0
  9 12  1  0  0  0  0
 10 16  1  0  0  0  0
 11 12  2  0  0  0  0
 11 14  1  0  0  0  0
 12 16  1  0  0  0  0
 13 17  1  0  0  0  0
 13 18  1  0  0  0  0
 13 19  2  0  0  0  0
 14 18  1  0  0  0  0
 15 16  1  0  0  0  0
 15 18  1  0  0  0  0
 17 20  1  0  0  0  0
M  END
> <ref_mols>
x1373_0

> <original SMILES>
ClCC(=O)N1CC(c2ccccc2)c3ccccc3C1

> <Chemgauss4>
-10.232087

> <ref_pdb>
x0831_0

$$$$
x1492
  -OEChem-05172015543D

 20 22  0     1  0  0  0  0  0999 V2000
   13.5922   -0.3114   22.5812 C   0  0  0  0  0  0  0  0  0  0  0  0
   12.8421   -1.2967   21.9392 C   0  0  0  0  0  0  0  0  0  0  0  0
   13.0217    0.4419   23.6072 C   0  0  0  0  0  0  0  0  0  0  0  0
    8.3908   -5.2007   23.6733 C   0  0  0  0  0  0  0  0  0  0  0  0
    9.2147   -4.7193   24.6865 C   0  0  0  0  0  0  0  0  0  0  0  0
   11.5213   -1.5286   22.3232 C   0  0  0  0  0  0  0  0  0  0  0  0
   11.7009    0.2100   23.9912 C   0  0  0  0  0  0  0  0  0  0  0  0
    7.9248   -4.3357   22.6835 C   0  0  0  0  0  0  0  0  0  0  0  0
    9.5711   -3.3718   24.7131 C   0  0  0  0  0  0  0  0  0  0  0  0
   10.9507   -0.7753   23.3492 C   0  0  0  0  0  0  0  0  0  0  0  0
    8.2803   -2.9783   22.6943 C   0  0  0  0  0  0  0  0  0  0  0  0
    9.1057   -2.4902   23.7241 C   0  0  0  0  0  0  0  0  0  0  0  0
    8.4212    0.1097   20.5141 C   0  0  0  0  0  0  0  0  0  0  0  0
    7.7546   -2.0805   21.6003 C   0  0  0  0  0  0  0  0  0  0  0  0
    8.5260   -0.1579   22.9682 C   0  0  0  0  0  0  0  0  0  0  0  0
    9.5083   -1.0278   23.7689 C   0  0  2  0  0  0  0  0  0  0  0  0
    7.4435   -0.1206   19.3885 C   0  0  0  0  0  0  0  0  0  0  0  0
    8.2801   -0.7096   21.6365 N   0  0  0  0  0  0  0  0  0  0  0  0
    9.2850    0.9821   20.3959 O   0  0  0  0  0  0  0  0  0  0  0  0
    5.8358    0.1235   20.0613 Cl  0  0  0  0  0  0  0  0  0  0  0  0
  1  2  1  0  0  0  0
  1  3  2  0  0  0  0
  2  6  2  0  0  0  0
  3  7  1  0  0  0  0
  4  5  1  0  0  0  0
  4  8  2  0  0  0  0
  5  9  2  0  0  0  0
  6 10  1  0  0  0  0
  7 10  2  0  0  0  0
  8 11  1  0  0  0  0
  9 12  1  0  0  0  0
 10 16  1  0  0  0  0
 11 12  2  0  0  0  0
 11 14  1  0  0  0  0
 12 16  1  0  0  0  0
 13 17  1  0  0  0  0
 13 18  1  0  0  0  0
 13 19  2  0  0  0  0
 14 18  1  0  0  0  0
 15 16  1  0  0  0  0
 15 18  1  0  0  0  0
 17 20  1  0  0  0  0
M  END
> <ref_mols>
x1492_0

> <original SMILES>
ClCC(=O)N1CC(c2ccccc2)c3ccccc3C1

> <Chemgauss4>
-10.232087

> <ref_pdb>
x0831_0

$$$$
x0702
  -OEChem-05172015543D

 20 22  0     1  0  0  0  0  0999 V2000
   13.5922   -0.3114   22.5812 C   0  0  0  0  0  0  0  0  0  0  0  0
   12.8421   -1.2967   21.9392 C   0  0  0  0  0  0  0  0  0  0  0  0
   13.0217    0.4419   23.6072 C   0  0  0  0  0  0  0  0  0  0  0  0
    8.3908   -5.2007   23.6733 C   0  0  0  0  0  0  0  0  0  0  0  0
    9.2147   -4.7193   24.6865 C   0  0  0  0  0  0  0  0  0  0  0  0
   11.5213   -1.5286   22.3232 C   0  0  0  0  0  0  0  0  0  0  0  0
   11.7009    0.2100   23.9912 C   0  0  0  0  0  0  0  0  0  0  0  0
    7.9248   -4.3357   22.6835 C   0  0  0  0  0  0  0  0  0  0  0  0
    9.5711   -3.3718   24.7131 C   0  0  0  0  0  0  0  0  0  0  0  0
   10.9507   -0.7753   23.3492 C   0  0  0  0  0  0  0  0  0  0  0  0
    8.2803   -2.9783   22.6943 C   0  0  0  0  0  0  0  0  0  0  0  0
    9.1057   -2.4902   23.7241 C   0  0  0  0  0  0  0  0  0  0  0  0
    8.4212    0.1097   20.5141 C   0  0  0  0  0  0  0  0  0  0  0  0
    7.7546   -2.0805   21.6003 C   0  0  0  0  0  0  0  0  0  0  0  0
    8.5260   -0.1579   22.9682 C   0  0  0  0  0  0  0  0  0  0  0  0
    9.5083   -1.0278   23.7689 C   0  0  2  0  0  0  0  0  0  0  0  0
    7.4435   -0.1206   19.3885 C   0  0  0  0  0  0  0  0  0  0  0  0
    8.2801   -0.7096   21.6365 N   0  0  0  0  0  0  0  0  0  0  0  0
    9.2850    0.9821   20.3959 O   0  0  0  0  0  0  0  0  0  0  0  0
    5.8358    0.1235   20.0613 Cl  0  0  0  0  0  0  0  0  0  0  0  0
  1  2  1  0  0  0  0
  1  3  2  0  0  0  0
  2  6  2  0  0  0  0
  3  7  1  0  0  0  0
  4  5  1  0  0  0  0
  4  8  2  0  0  0  0
  5  9  2  0  0  0  0
  6 10  1  0  0  0  0
  7 10  2  0  0  0  0
  8 11  1  0  0  0  0
  9 12  1  0  0  0  0
 10 16  1  0  0  0  0
 11 12  2  0  0  0  0
 11 14  1  0  0  0  0
 12 16  1  0  0  0  0
 13 17  1  0  0  0  0
 13 18  1  0  0  0  0
 13 19  2  0  0  0  0
 14 18  1  0  0  0  0
 15 16  1  0  0  0  0
 15 18  1  0  0  0  0
 17 20  1  0  0  0  0
M  END
> <ref_mols>
x0702_0

> <original SMILES>
ClCC(=O)N1CC(c2ccccc2)c3ccccc3C1

> <Chemgauss4>
-10.232087

> <ref_pdb>
x0831_0

$$$$
x1470
  -OEChem-05172015543D

 20 22  0     1  0  0  0  0  0999 V2000
   13.5922   -0.3114   22.5812 C   0  0  0  0  0  0  0  0  0  0  0  0
   12.8421   -1.2967   21.9392 C   0  0  0  0  0  0  0  0  0  0  0  0
   13.0217    0.4419   23.6072 C   0  0  0  0  0  0  0  0  0  0  0  0
    8.3908   -5.2007   23.6733 C   0  0  0  0  0  0  0  0  0  0  0  0
    9.2147   -4.7193   24.6865 C   0  0  0  0  0  0  0  0  0  0  0  0
   11.5213   -1.5286   22.3232 C   0  0  0  0  0  0  0  0  0  0  0  0
   11.7009    0.2100   23.9912 C   0  0  0  0  0  0  0  0  0  0  0  0
    7.9248   -4.3357   22.6835 C   0  0  0  0  0  0  0  0  0  0  0  0
    9.5711   -3.3718   24.7131 C   0  0  0  0  0  0  0  0  0  0  0  0
   10.9507   -0.7753   23.3492 C   0  0  0  0  0  0  0  0  0  0  0  0
    8.2803   -2.9783   22.6943 C   0  0  0  0  0  0  0  0  0  0  0  0
    9.1057   -2.4902   23.7241 C   0  0  0  0  0  0  0  0  0  0  0  0
    8.4212    0.1097   20.5141 C   0  0  0  0  0  0  0  0  0  0  0  0
    7.7546   -2.0805   21.6003 C   0  0  0  0  0  0  0  0  0  0  0  0
    8.5260   -0.1579   22.9682 C   0  0  0  0  0  0  0  0  0  0  0  0
    9.5083   -1.0278   23.7689 C   0  0  2  0  0  0  0  0  0  0  0  0
    7.4435   -0.1206   19.3885 C   0  0  0  0  0  0  0  0  0  0  0  0
    8.2801   -0.7096   21.6365 N   0  0  0  0  0  0  0  0  0  0  0  0
    9.2850    0.9821   20.3959 O   0  0  0  0  0  0  0  0  0  0  0  0
    5.8358    0.1235   20.0613 Cl  0  0  0  0  0  0  0  0  0  0  0  0
  1  2  1  0  0  0  0
  1  3  2  0  0  0  0
  2  6  2  0  0  0  0
  3  7  1  0  0  0  0
  4  5  1  0  0  0  0
  4  8  2  0  0  0  0
  5  9  2  0  0  0  0
  6 10  1  0  0  0  0
  7 10  2  0  0  0  0
  8 11  1  0  0  0  0
  9 12  1  0  0  0  0
 10 16  1  0  0  0  0
 11 12  2  0  0  0  0
 11 14  1  0  0  0  0
 12 16  1  0  0  0  0
 13 17  1  0  0  0  0
 13 18  1  0  0  0  0
 13 19  2  0  0  0  0
 14 18  1  0  0  0  0
 15 16  1  0  0  0  0
 15 18  1  0  0  0  0
 17 20  1  0  0  0  0
M  END
> <ref_mols>
x1470_0

> <original SMILES>
ClCC(=O)N1CC(c2ccccc2)c3ccccc3C1

> <Chemgauss4>
-10.232087

> <ref_pdb>
x0831_0

> <CYS145-warhead dist minimum (A)>
4.556984

> <CYS145-warhead dist mean (A)>
6.3534427

> <CYS145-warhead dist stddev (A)>
0.33129996

$$$$
x0776
  -OEChem-05172015543D

 20 22  0     1  0  0  0  0  0999 V2000
   13.5922   -0.3114   22.5812 C   0  0  0  0  0  0  0  0  0  0  0  0
   12.8421   -1.2967   21.9392 C   0  0  0  0  0  0  0  0  0  0  0  0
   13.0217    0.4419   23.6072 C   0  0  0  0  0  0  0  0  0  0  0  0
    8.3908   -5.2007   23.6733 C   0  0  0  0  0  0  0  0  0  0  0  0
    9.2147   -4.7193   24.6865 C   0  0  0  0  0  0  0  0  0  0  0  0
   11.5213   -1.5286   22.3232 C   0  0  0  0  0  0  0  0  0  0  0  0
   11.7009    0.2100   23.9912 C   0  0  0  0  0  0  0  0  0  0  0  0
    7.9248   -4.3357   22.6835 C   0  0  0  0  0  0  0  0  0  0  0  0
    9.5711   -3.3718   24.7131 C   0  0  0  0  0  0  0  0  0  0  0  0
   10.9507   -0.7753   23.3492 C   0  0  0  0  0  0  0  0  0  0  0  0
    8.2803   -2.9783   22.6943 C   0  0  0  0  0  0  0  0  0  0  0  0
    9.1057   -2.4902   23.7241 C   0  0  0  0  0  0  0  0  0  0  0  0
    8.4212    0.1097   20.5141 C   0  0  0  0  0  0  0  0  0  0  0  0
    7.7546   -2.0805   21.6003 C   0  0  0  0  0  0  0  0  0  0  0  0
    8.5260   -0.1579   22.9682 C   0  0  0  0  0  0  0  0  0  0  0  0
    9.5083   -1.0278   23.7689 C   0  0  2  0  0  0  0  0  0  0  0  0
    7.4435   -0.1206   19.3885 C   0  0  0  0  0  0  0  0  0  0  0  0
    8.2801   -0.7096   21.6365 N   0  0  0  0  0  0  0  0  0  0  0  0
    9.2850    0.9821   20.3959 O   0  0  0  0  0  0  0  0  0  0  0  0
    5.8358    0.1235   20.0613 Cl  0  0  0  0  0  0  0  0  0  0  0  0
  1  2  1  0  0  0  0
  1  3  2  0  0  0  0
  2  6  2  0  0  0  0
  3  7  1  0  0  0  0
  4  5  1  0  0  0  0
  4  8  2  0  0  0  0
  5  9  2  0  0  0  0
  6 10  1  0  0  0  0
  7 10  2  0  0  0  0
  8 11  1  0  0  0  0
  9 12  1  0  0  0  0
 10 16  1  0  0  0  0
 11 12  2  0  0  0  0
 11 14  1  0  0  0  0
 12 16  1  0  0  0  0
 13 17  1  0  0  0  0
 13 18  1  0  0  0  0
 13 19  2  0  0  0  0
 14 18  1  0  0  0  0
 15 16  1  0  0  0  0
 15 18  1  0  0  0  0
 17 20  1  0  0  0  0
M  END
> <ref_mols>
x0776_0

> <original SMILES>
ClCC(=O)N1CC(c2ccccc2)c3ccccc3C1

> <Chemgauss4>
-10.232087

> <ref_pdb>
x0831_0

$$$$
x1392
  -OEChem-05172015543D

 20 22  0     1  0  0  0  0  0999 V2000
   13.5922   -0.3114   22.5812 C   0  0  0  0  0  0  0  0  0  0  0  0
   12.8421   -1.2967   21.9392 C   0  0  0  0  0  0  0  0  0  0  0  0
   13.0217    0.4419   23.6072 C   0  0  0  0  0  0  0  0  0  0  0  0
    8.3908   -5.2007   23.6733 C   0  0  0  0  0  0  0  0  0  0  0  0
    9.2147   -4.7193   24.6865 C   0  0  0  0  0  0  0  0  0  0  0  0
   11.5213   -1.5286   22.3232 C   0  0  0  0  0  0  0  0  0  0  0  0
   11.7009    0.2100   23.9912 C   0  0  0  0  0  0  0  0  0  0  0  0
    7.9248   -4.3357   22.6835 C   0  0  0  0  0  0  0  0  0  0  0  0
    9.5711   -3.3718   24.7131 C   0  0  0  0  0  0  0  0  0  0  0  0
   10.9507   -0.7753   23.3492 C   0  0  0  0  0  0  0  0  0  0  0  0
    8.2803   -2.9783   22.6943 C   0  0  0  0  0  0  0  0  0  0  0  0
    9.1057   -2.4902   23.7241 C   0  0  0  0  0  0  0  0  0  0  0  0
    8.4212    0.1097   20.5141 C   0  0  0  0  0  0  0  0  0  0  0  0
    7.7546   -2.0805   21.6003 C   0  0  0  0  0  0  0  0  0  0  0  0
    8.5260   -0.1579   22.9682 C   0  0  0  0  0  0  0  0  0  0  0  0
    9.5083   -1.0278   23.7689 C   0  0  2  0  0  0  0  0  0  0  0  0
    7.4435   -0.1206   19.3885 C   0  0  0  0  0  0  0  0  0  0  0  0
    8.2801   -0.7096   21.6365 N   0  0  0  0  0  0  0  0  0  0  0  0
    9.2850    0.9821   20.3959 O   0  0  0  0  0  0  0  0  0  0  0  0
    5.8358    0.1235   20.0613 Cl  0  0  0  0  0  0  0  0  0  0  0  0
  1  2  1  0  0  0  0
  1  3  2  0  0  0  0
  2  6  2  0  0  0  0
  3  7  1  0  0  0  0
  4  5  1  0  0  0  0
  4  8  2  0  0  0  0
  5  9  2  0  0  0  0
  6 10  1  0  0  0  0
  7 10  2  0  0  0  0
  8 11  1  0  0  0  0
  9 12  1  0  0  0  0
 10 16  1  0  0  0  0
 11 12  2  0  0  0  0
 11 14  1  0  0  0  0
 12 16  1  0  0  0  0
 13 17  1  0  0  0  0
 13 18  1  0  0  0  0
 13 19  2  0  0  0  0
 14 18  1  0  0  0  0
 15 16  1  0  0  0  0
 15 18  1  0  0  0  0
 17 20  1  0  0  0  0
M  END
> <ref_mols>
x1392_0

> <original SMILES>
ClCC(=O)N1CC(c2ccccc2)c3ccccc3C1

> <Chemgauss4>
-10.232087

> <ref_pdb>
x0831_0

$$$$
x1420
  -OEChem-05172015543D

 20 22  0     1  0  0  0  0  0999 V2000
   13.5922   -0.3114   22.5812 C   0  0  0  0  0  0  0  0  0  0  0  0
   12.8421   -1.2967   21.9392 C   0  0  0  0  0  0  0  0  0  0  0  0
   13.0217    0.4419   23.6072 C   0  0  0  0  0  0  0  0  0  0  0  0
    8.3908   -5.2007   23.6733 C   0  0  0  0  0  0  0  0  0  0  0  0
    9.2147   -4.7193   24.6865 C   0  0  0  0  0  0  0  0  0  0  0  0
   11.5213   -1.5286   22.3232 C   0  0  0  0  0  0  0  0  0  0  0  0
   11.7009    0.2100   23.9912 C   0  0  0  0  0  0  0  0  0  0  0  0
    7.9248   -4.3357   22.6835 C   0  0  0  0  0  0  0  0  0  0  0  0
    9.5711   -3.3718   24.7131 C   0  0  0  0  0  0  0  0  0  0  0  0
   10.9507   -0.7753   23.3492 C   0  0  0  0  0  0  0  0  0  0  0  0
    8.2803   -2.9783   22.6943 C   0  0  0  0  0  0  0  0  0  0  0  0
    9.1057   -2.4902   23.7241 C   0  0  0  0  0  0  0  0  0  0  0  0
    8.4212    0.1097   20.5141 C   0  0  0  0  0  0  0  0  0  0  0  0
    7.7546   -2.0805   21.6003 C   0  0  0  0  0  0  0  0  0  0  0  0
    8.5260   -0.1579   22.9682 C   0  0  0  0  0  0  0  0  0  0  0  0
    9.5083   -1.0278   23.7689 C   0  0  2  0  0  0  0  0  0  0  0  0
    7.4435   -0.1206   19.3885 C   0  0  0  0  0  0  0  0  0  0  0  0
    8.2801   -0.7096   21.6365 N   0  0  0  0  0  0  0  0  0  0  0  0
    9.2850    0.9821   20.3959 O   0  0  0  0  0  0  0  0  0  0  0  0
    5.8358    0.1235   20.0613 Cl  0  0  0  0  0  0  0  0  0  0  0  0
  1  2  1  0  0  0  0
  1  3  2  0  0  0  0
  2  6  2  0  0  0  0
  3  7  1  0  0  0  0
  4  5  1  0  0  0  0
  4  8  2  0  0  0  0
  5  9  2  0  0  0  0
  6 10  1  0  0  0  0
  7 10  2  0  0  0  0
  8 11  1  0  0  0  0
  9 12  1  0  0  0  0
 10 16  1  0  0  0  0
 11 12  2  0  0  0  0
 11 14  1  0  0  0  0
 12 16  1  0  0  0  0
 13 17  1  0  0  0  0
 13 18  1  0  0  0  0
 13 19  2  0  0  0  0
 14 18  1  0  0  0  0
 15 16  1  0  0  0  0
 15 18  1  0  0  0  0
 17 20  1  0  0  0  0
M  END
> <ref_mols>
x1420_0

> <original SMILES>
ClCC(=O)N1CC(c2ccccc2)c3ccccc3C1

> <Chemgauss4>
-10.232087

> <ref_pdb>
x0831_0

$$$$
x2825
  -OEChem-05172015543D

 27 29  0     0  0  0  0  0  0999 V2000
   10.1320    6.4931   23.3470 C   0  0  0  0  0  0  0  0  0  0  0  0
   11.2802    5.7017   23.3192 C   0  0  0  0  0  0  0  0  0  0  0  0
    8.8720    5.8958   23.3070 C   0  0  0  0  0  0  0  0  0  0  0  0
    5.6864    1.3776   19.3339 C   0  0  0  0  0  0  0  0  0  0  0  0
   11.1686    4.3130   23.2514 C   0  0  0  0  0  0  0  0  0  0  0  0
    8.7604    4.5071   23.2391 C   0  0  0  0  0  0  0  0  0  0  0  0
    6.3445    0.9574   20.4844 C   0  0  0  0  0  0  0  0  0  0  0  0
    6.2279    1.0199   18.1097 C   0  0  0  0  0  0  0  0  0  0  0  0
    7.9674   -0.1023   19.1063 C   0  0  0  0  0  0  0  0  0  0  0  0
   14.8851   -1.5425   23.4336 C   0  0  0  0  0  0  0  0  0  0  0  0
    9.9087    3.7156   23.2113 C   0  0  0  0  0  0  0  0  0  0  0  0
    7.5075    0.2030   20.3771 C   0  0  0  0  0  0  0  0  0  0  0  0
   13.6550   -1.0974   23.0190 C   0  0  0  0  0  0  0  0  0  0  0  0
   10.7204   -0.6250   21.6258 C   0  0  0  0  0  0  0  0  0  0  0  0
   15.6985   -2.2037   25.7197 C   0  0  0  0  0  0  0  0  0  0  0  0
    9.7872    2.2133   23.1376 C   0  0  0  0  0  0  0  0  0  0  0  0
    8.2407   -0.2662   21.6004 C   0  0  0  0  0  0  0  0  0  0  0  0
   13.2041   -0.7142   21.6392 C   0  0  0  0  0  0  0  0  0  0  0  0
    9.7520    1.6883   21.7045 C   0  0  0  0  0  0  0  0  0  0  0  0
    7.3555    0.2882   17.9657 N   0  0  0  0  0  0  0  0  0  0  0  0
   12.8042   -1.0366   24.0877 N   0  0  0  0  0  0  0  0  0  0  0  0
   13.4732   -1.4329   25.1650 N   0  0  0  0  0  0  0  0  0  0  0  0
   14.7206   -1.7356   24.7707 N   0  0  0  0  0  0  0  0  0  0  0  0
   11.9562    0.0150   21.6608 N   0  0  0  0  0  0  0  0  0  0  0  0
    9.6077    0.2360   21.6429 N   0  0  0  0  0  0  0  0  0  0  0  0
   10.6204   -1.8546   21.5740 O   0  0  0  0  0  0  0  0  0  0  0  0
   11.9818    1.0268   21.7030 H   0  0  0  0  0  0  0  0  0  0  0  0
  1  2  1  0  0  0  0
  1  3  2  0  0  0  0
  2  5  2  0  0  0  0
  3  6  1  0  0  0  0
  4  7  2  0  0  0  0
  4  8  1  0  0  0  0
  5 11  1  0  0  0  0
  6 11  2  0  0  0  0
  7 12  1  0  0  0  0
  8 20  2  0  0  0  0
  9 12  2  0  0  0  0
  9 20  1  0  0  0  0
 10 13  2  0  0  0  0
 10 23  1  0  0  0  0
 11 16  1  0  0  0  0
 12 17  1  0  0  0  0
 13 18  1  0  0  0  0
 13 21  1  0  0  0  0
 14 24  1  0  0  0  0
 14 25  1  0  0  0  0
 14 26  2  0  0  0  0
 15 23  1  0  0  0  0
 16 19  1  0  0  0  0
 17 25  1  0  0  0  0
 18 24  1  0  0  0  0
 19 25  1  0  0  0  0
 21 22  2  0  0  0  0
 22 23  1  0  0  0  0
 24 27  1  0  0  0  0
M  END
> <ref_mols>
x2825_0

> <original SMILES>
CN1C=C(CNC(=O)N(CCC=2C=CC=CC2)CC=3C=CC=NC3)N=N1

> <Chemgauss4>
-10.219568

> <ref_pdb>
x0678_0

$$$$
x0967
  -OEChem-05172015543D

 23 23  0     1  0  0  0  0  0999 V2000
    5.9763    0.4902   20.2323 C   0  0  0  0  0  0  0  0  0  0  0  0
    5.2424    1.2666   20.7800 C   0  0  0  0  0  0  0  0  0  0  0  0
   12.5524   -0.1383   23.6888 C   0  0  0  0  0  0  0  0  0  0  0  0
   13.4116   -1.5361   21.9153 C   0  0  0  0  0  0  0  0  0  0  0  0
   13.4967   -0.6711   24.5662 C   0  0  0  0  0  0  0  0  0  0  0  0
   14.3560   -2.0689   22.7928 C   0  0  0  0  0  0  0  0  0  0  0  0
   12.5098   -0.5709   22.3633 C   0  0  0  0  0  0  0  0  0  0  0  0
   14.3985   -1.6364   24.1183 C   0  0  0  0  0  0  0  0  0  0  0  0
    9.1958    0.2961   23.4140 C   0  0  0  0  0  0  0  0  0  0  0  0
    9.1757   -0.1401   20.4499 C   0  0  0  0  0  0  0  0  0  0  0  0
    8.5683    0.0102   24.7379 C   0  0  0  0  0  0  0  0  0  0  0  0
    6.8672   -0.4556   19.5614 C   0  0  0  0  0  0  0  0  0  0  0  0
   11.4885    0.0059   21.4136 C   0  0  0  0  0  0  0  0  0  0  0  0
   10.1761   -0.7864   21.4016 C   0  0  1  0  0  0  0  0  0  0  0  0
    7.9706   -0.8280   20.4173 N   0  0  0  0  0  0  0  0  0  0  0  0
    9.5572   -0.8346   22.7023 N   0  0  0  0  0  0  0  0  0  0  0  0
    9.3446    1.4580   23.0542 O   0  0  0  0  0  0  0  0  0  0  0  0
    9.4423    0.8475   19.7684 O   0  0  0  0  0  0  0  0  0  0  0  0
   15.3207   -2.1552   24.9744 O   0  0  0  0  0  0  0  0  0  0  0  0
    4.0807    2.4953   21.6470 Br  0  0  0  0  0  0  0  0  0  0  0  0
    7.8585   -1.6336   21.0257 H   0  0  0  0  0  0  0  0  0  0  0  0
    9.3769   -1.7455   23.1182 H   0  0  0  0  0  0  0  0  0  0  0  0
   15.8722   -2.8105   24.5179 H   0  0  0  0  0  0  0  0  0  0  0  0
  1  2  3  0  0  0  0
  1 12  1  0  0  0  0
  2 20  1  0  0  0  0
  3  5  2  0  0  0  0
  3  7  1  0  0  0  0
  4  6  1  0  0  0  0
  4  7  2  0  0  0  0
  5  8  1  0  0  0  0
  6  8  2  0  0  0  0
  7 13  1  0  0  0  0
  8 19  1  0  0  0  0
  9 11  1  0  0  0  0
  9 16  1  0  0  0  0
  9 17  2  0  0  0  0
 10 14  1  0  0  0  0
 10 15  1  0  0  0  0
 10 18  2  0  0  0  0
 12 15  1  0  0  0  0
 13 14  1  0  0  0  0
 14 16  1  0  0  0  0
 15 21  1  0  0  0  0
 16 22  1  0  0  0  0
 19 23  1  0  0  0  0
M  END
> <ref_mols>
x0967_0

> <original SMILES>
CC(=O)NC(Cc1ccc(cc1)O)C(=O)NCC#CBr

> <Chemgauss4>
-10.207242

> <ref_pdb>
x0678_0

$$$$
x2835
  -OEChem-05172015543D

 25 27  0     1  0  0  0  0  0999 V2000
   14.3396   -0.7922   21.9038 C   0  0  0  0  0  0  0  0  0  0  0  0
    9.6024    6.8528   23.6227 C   0  0  0  0  0  0  0  0  0  0  0  0
   13.2229   -1.4797   22.3791 C   0  0  0  0  0  0  0  0  0  0  0  0
   10.5622    5.9800   23.1223 C   0  0  0  0  0  0  0  0  0  0  0  0
   14.3999    0.5974   22.0086 C   0  0  0  0  0  0  0  0  0  0  0  0
   10.1852   -1.1044   24.5176 C   0  0  0  0  0  0  0  0  0  0  0  0
   12.2266    0.6121   23.0639 C   0  0  0  0  0  0  0  0  0  0  0  0
    9.9607    7.6740   24.6796 C   0  0  0  0  0  0  0  0  0  0  0  0
   12.0915    6.8171   24.7400 C   0  0  0  0  0  0  0  0  0  0  0  0
    9.2401   -2.0984   24.5897 C   0  0  0  0  0  0  0  0  0  0  0  0
   12.1664   -0.7776   22.9591 C   0  0  0  0  0  0  0  0  0  0  0  0
   11.8330    5.9556   23.6861 C   0  0  0  0  0  0  0  0  0  0  0  0
   13.3433    1.2996   22.5886 C   0  0  0  0  0  0  0  0  0  0  0  0
   11.0169   -1.4864   23.4479 C   0  0  0  0  0  0  0  0  0  0  0  0
   12.4511    3.5612   23.2432 C   0  0  0  0  0  0  0  0  0  0  0  0
   12.8982    5.0192   23.1645 C   0  0  1  0  0  0  0  0  0  0  0  0
   11.1848    7.6787   25.2532 N   0  0  0  0  0  0  0  0  0  0  0  0
   10.6339   -2.6337   22.8813 N   0  0  0  0  0  0  0  0  0  0  0  0
    9.5513   -2.9812   23.5977 N   0  0  0  0  0  0  0  0  0  0  0  0
   13.4038    2.6897   22.6928 N   0  0  0  0  0  0  0  0  0  0  0  0
   11.3669    3.2519   23.7291 O   0  0  0  0  0  0  0  0  0  0  0  0
   13.1825    5.3570   21.8149 O   0  0  0  0  0  0  0  0  0  0  0  0
    9.0701   -3.8378   23.3536 H   0  0  0  0  0  0  0  0  0  0  0  0
   14.2516    3.1353   22.3243 H   0  0  0  0  0  0  0  0  0  0  0  0
   12.3538    5.2549   21.3187 H   0  0  0  0  0  0  0  0  0  0  0  0
  1  3  1  0  0  0  0
  1  5  2  0  0  0  0
  2  4  2  0  0  0  0
  2  8  1  0  0  0  0
  3 11  2  0  0  0  0
  4 12  1  0  0  0  0
  5 13  1  0  0  0  0
  6 10  2  0  0  0  0
  6 14  1  0  0  0  0
  7 11  1  0  0  0  0
  7 13  2  0  0  0  0
  8 17  2  0  0  0  0
  9 12  2  0  0  0  0
  9 17  1  0  0  0  0
 10 19  1  0  0  0  0
 11 14  1  0  0  0  0
 12 16  1  0  0  0  0
 13 20  1  0  0  0  0
 14 18  2  0  0  0  0
 15 16  1  0  0  0  0
 15 20  1  0  0  0  0
 15 21  2  0  0  0  0
 16 22  1  0  0  0  0
 18 19  1  0  0  0  0
 19 23  1  0  0  0  0
 20 24  1  0  0  0  0
 22 25  1  0  0  0  0
M  END
> <ref_mols>
x2835_0

> <original SMILES>
OC(C(=O)NC=1C=CC=C(C1)C2=CC=NN2)C=3C=CC=NC3

> <Chemgauss4>
-10.195171

> <ref_pdb>
x0195_0

$$$$
x0453
  -OEChem-05172015543D

 19 20  0     0  0  0  0  0  0999 V2000
   13.4975    0.1658   23.4902 C   0  0  0  0  0  0  0  0  0  0  0  0
    6.5777    0.2129   18.7717 C   0  0  0  0  0  0  0  0  0  0  0  0
    6.2475    0.6402   21.1265 C   0  0  0  0  0  0  0  0  0  0  0  0
    5.4232    0.9385   18.4781 C   0  0  0  0  0  0  0  0  0  0  0  0
    5.0930    1.3659   20.8330 C   0  0  0  0  0  0  0  0  0  0  0  0
   13.0898   -1.1264   23.0812 C   0  0  0  0  0  0  0  0  0  0  0  0
   12.3442    0.8999   23.6421 C   0  0  0  0  0  0  0  0  0  0  0  0
    6.9898    0.0637   20.0959 C   0  0  0  0  0  0  0  0  0  0  0  0
    4.6808    1.5150   19.5087 C   0  0  0  0  0  0  0  0  0  0  0  0
   11.7165   -1.0899   23.0126 C   0  0  0  0  0  0  0  0  0  0  0  0
    8.7189   -0.9240   21.6501 C   0  0  0  0  0  0  0  0  0  0  0  0
   10.6792   -2.1120   22.6474 C   0  0  0  0  0  0  0  0  0  0  0  0
    8.1444   -0.6623   20.3898 N   0  0  0  0  0  0  0  0  0  0  0  0
    9.8802   -1.6922   21.5192 N   0  0  0  0  0  0  0  0  0  0  0  0
    8.2838   -0.5441   22.7346 O   0  0  0  0  0  0  0  0  0  0  0  0
   11.2542    0.1417   23.3530 O   0  0  0  0  0  0  0  0  0  0  0  0
    3.5726    2.2128   19.2269 F   0  0  0  0  0  0  0  0  0  0  0  0
    8.6511   -1.0642   19.5940 H   0  0  0  0  0  0  0  0  0  0  0  0
   10.1756   -1.9678   20.5879 H   0  0  0  0  0  0  0  0  0  0  0  0
  1  6  1  0  0  0  0
  1  7  2  0  0  0  0
  2  4  2  0  0  0  0
  2  8  1  0  0  0  0
  3  5  1  0  0  0  0
  3  8  2  0  0  0  0
  4  9  1  0  0  0  0
  5  9  2  0  0  0  0
  6 10  2  0  0  0  0
  7 16  1  0  0  0  0
  8 13  1  0  0  0  0
  9 17  1  0  0  0  0
 10 12  1  0  0  0  0
 10 16  1  0  0  0  0
 11 13  1  0  0  0  0
 11 14  1  0  0  0  0
 11 15  2  0  0  0  0
 12 14  1  0  0  0  0
 13 18  1  0  0  0  0
 14 19  1  0  0  0  0
M  END
> <ref_mols>
x0453_0

> <original SMILES>
FC=1C=CC(NC(=O)NCC2=CC=CO2)=CC1

> <Chemgauss4>
-10.193295

> <ref_pdb>
x1093_0

$$$$
x0042
  -OEChem-05172015543D

 17 19  0     0  0  0  0  0  0999 V2000
    6.3130   -5.8654   22.0073 C   0  0  0  0  0  0  0  0  0  0  0  0
    7.0689   -4.9609   21.2615 C   0  0  0  0  0  0  0  0  0  0  0  0
    6.6438   -6.1199   23.3383 C   0  0  0  0  0  0  0  0  0  0  0  0
    8.1555   -4.3110   21.8467 C   0  0  0  0  0  0  0  0  0  0  0  0
    7.7304   -5.4700   23.9235 C   0  0  0  0  0  0  0  0  0  0  0  0
   10.3361   -4.5170   24.8000 C   0  0  0  0  0  0  0  0  0  0  0  0
    9.9775   -2.6152   23.3537 C   0  0  0  0  0  0  0  0  0  0  0  0
   11.4228   -3.8672   25.3851 C   0  0  0  0  0  0  0  0  0  0  0  0
   11.0643   -1.9654   23.9388 C   0  0  0  0  0  0  0  0  0  0  0  0
   13.9788   -2.5078   26.0730 C   0  0  0  0  0  0  0  0  0  0  0  0
    8.4863   -4.5655   23.1777 C   0  0  0  0  0  0  0  0  0  0  0  0
    9.6134   -3.8910   23.7843 C   0  0  0  0  0  0  0  0  0  0  0  0
   11.7869   -2.5914   24.9545 C   0  0  0  0  0  0  0  0  0  0  0  0
   14.7567   -1.5468   26.5153 N   0  0  0  0  0  0  0  0  0  0  0  0
   14.0928   -0.3736   26.2360 N   0  0  0  0  0  0  0  0  0  0  0  0
   12.9338   -0.6129   25.6347 N   0  0  0  0  0  0  0  0  0  0  0  0
   12.8648   -1.9476   25.5341 N   0  0  0  0  0  0  0  0  0  0  0  0
  1  2  1  0  0  0  0
  1  3  2  0  0  0  0
  2  4  2  0  0  0  0
  3  5  1  0  0  0  0
  4 11  1  0  0  0  0
  5 11  2  0  0  0  0
  6  8  2  0  0  0  0
  6 12  1  0  0  0  0
  7  9  1  0  0  0  0
  7 12  2  0  0  0  0
  8 13  1  0  0  0  0
  9 13  2  0  0  0  0
 10 14  2  0  0  0  0
 10 17  1  0  0  0  0
 11 12  1  0  0  0  0
 13 17  1  0  0  0  0
 14 15  1  0  0  0  0
 15 16  2  0  0  0  0
 16 17  1  0  0  0  0
M  END
> <ref_mols>
x0042_0

> <original SMILES>
C1=NN=NN1C=2C=CC(=CC2)C=3C=CC=CC3

> <Chemgauss4>
-10.162877

> <ref_pdb>
x0749_0

$$$$
x1055
  -OEChem-05172015543D

 17 19  0     0  0  0  0  0  0999 V2000
    6.3130   -5.8654   22.0073 C   0  0  0  0  0  0  0  0  0  0  0  0
    7.0689   -4.9609   21.2615 C   0  0  0  0  0  0  0  0  0  0  0  0
    6.6438   -6.1199   23.3383 C   0  0  0  0  0  0  0  0  0  0  0  0
    8.1555   -4.3110   21.8467 C   0  0  0  0  0  0  0  0  0  0  0  0
    7.7304   -5.4700   23.9235 C   0  0  0  0  0  0  0  0  0  0  0  0
   10.3361   -4.5170   24.8000 C   0  0  0  0  0  0  0  0  0  0  0  0
    9.9775   -2.6152   23.3537 C   0  0  0  0  0  0  0  0  0  0  0  0
   11.4228   -3.8672   25.3851 C   0  0  0  0  0  0  0  0  0  0  0  0
   11.0643   -1.9654   23.9388 C   0  0  0  0  0  0  0  0  0  0  0  0
   13.9788   -2.5078   26.0730 C   0  0  0  0  0  0  0  0  0  0  0  0
    8.4863   -4.5655   23.1777 C   0  0  0  0  0  0  0  0  0  0  0  0
    9.6134   -3.8910   23.7843 C   0  0  0  0  0  0  0  0  0  0  0  0
   11.7869   -2.5914   24.9545 C   0  0  0  0  0  0  0  0  0  0  0  0
   14.7567   -1.5468   26.5153 N   0  0  0  0  0  0  0  0  0  0  0  0
   14.0928   -0.3736   26.2360 N   0  0  0  0  0  0  0  0  0  0  0  0
   12.9338   -0.6129   25.6347 N   0  0  0  0  0  0  0  0  0  0  0  0
   12.8648   -1.9476   25.5341 N   0  0  0  0  0  0  0  0  0  0  0  0
  1  2  1  0  0  0  0
  1  3  2  0  0  0  0
  2  4  2  0  0  0  0
  3  5  1  0  0  0  0
  4 11  1  0  0  0  0
  5 11  2  0  0  0  0
  6  8  2  0  0  0  0
  6 12  1  0  0  0  0
  7  9  1  0  0  0  0
  7 12  2  0  0  0  0
  8 13  1  0  0  0  0
  9 13  2  0  0  0  0
 10 14  2  0  0  0  0
 10 17  1  0  0  0  0
 11 12  1  0  0  0  0
 13 17  1  0  0  0  0
 14 15  1  0  0  0  0
 15 16  2  0  0  0  0
 16 17  1  0  0  0  0
M  END
> <ref_mols>
x1055_0

> <original SMILES>
C1=NN=NN1C=2C=CC(=CC2)C=3C=CC=CC3

> <Chemgauss4>
-10.162877

> <ref_pdb>
x0749_0

$$$$
x0104
  -OEChem-05172015543D

 18 19  0     0  0  0  0  0  0999 V2000
   11.5692   -1.3450   23.6707 C   0  0  0  0  0  0  0  0  0  0  0  0
   12.5703   -2.2584   23.3283 C   0  0  0  0  0  0  0  0  0  0  0  0
   13.9548   -0.4860   22.4124 C   0  0  0  0  0  0  0  0  0  0  0  0
   11.6201    2.2348   23.1243 C   0  0  0  0  0  0  0  0  0  0  0  0
   12.9596    0.4533   22.7482 C   0  0  0  0  0  0  0  0  0  0  0  0
   12.8370    1.8634   22.6008 C   0  0  0  0  0  0  0  0  0  0  0  0
   11.7921    0.0030   23.3683 C   0  0  0  0  0  0  0  0  0  0  0  0
   13.7455   -1.8378   22.7088 C   0  0  0  0  0  0  0  0  0  0  0  0
   12.0873    5.7780   23.3757 C   0  0  0  0  0  0  0  0  0  0  0  0
   10.7417    6.3286   23.0375 C   0  0  0  0  0  0  0  0  0  0  0  0
   13.8313    2.7741   21.9975 C   0  0  0  0  0  0  0  0  0  0  0  0
   13.8374    4.1881   22.6062 C   0  0  0  0  0  0  0  0  0  0  0  0
   10.9973    1.1060   23.5850 N   0  0  0  0  0  0  0  0  0  0  0  0
   12.5631    4.8417   22.4718 N   0  0  0  0  0  0  0  0  0  0  0  0
   12.6643    6.1691   24.3836 O   0  0  0  0  0  0  0  0  0  0  0  0
   14.6876   -2.7371   22.3938 F   0  0  0  0  0  0  0  0  0  0  0  0
   10.0855    1.0847   24.0204 H   0  0  0  0  0  0  0  0  0  0  0  0
   11.9804    4.6040   21.6707 H   0  0  0  0  0  0  0  0  0  0  0  0
  1  2  2  0  0  0  0
  1  7  1  0  0  0  0
  2  8  1  0  0  0  0
  3  5  1  0  0  0  0
  3  8  2  0  0  0  0
  4  6  2  0  0  0  0
  4 13  1  0  0  0  0
  5  6  1  0  0  0  0
  5  7  2  0  0  0  0
  6 11  1  0  0  0  0
  7 13  1  0  0  0  0
  8 16  1  0  0  0  0
  9 10  1  0  0  0  0
  9 14  1  0  0  0  0
  9 15  2  0  0  0  0
 11 12  1  0  0  0  0
 12 14  1  0  0  0  0
 13 17  1  0  0  0  0
 14 18  1  0  0  0  0
M  END
> <ref_mols>
x0104_0

> <original SMILES>
CC(=O)NCCC1=CNC=2C=CC(F)=CC12

> <Chemgauss4>
-10.150834

> <ref_pdb>
x0195_0

$$$$
x2821
  -OEChem-05172015543D

 29 31  0     1  0  0  0  0  0999 V2000
   14.6913   -0.2740   21.8973 C   0  0  0  0  0  0  0  0  0  0  0  0
   13.8437   -1.3168   22.2711 C   0  0  0  0  0  0  0  0  0  0  0  0
   14.3045    1.0493   22.1093 C   0  0  0  0  0  0  0  0  0  0  0  0
    7.9336    4.4047   23.8602 C   0  0  0  0  0  0  0  0  0  0  0  0
   12.2224    0.2871   23.0689 C   0  0  0  0  0  0  0  0  0  0  0  0
    7.0602    4.3450   22.8018 C   0  0  0  0  0  0  0  0  0  0  0  0
   12.6092   -1.0363   22.8569 C   0  0  0  0  0  0  0  0  0  0  0  0
   13.0701    1.3298   22.6951 C   0  0  0  0  0  0  0  0  0  0  0  0
    9.0940    4.9963   23.3260 C   0  0  0  0  0  0  0  0  0  0  0  0
   11.4902    3.1378   23.4799 C   0  0  0  0  0  0  0  0  0  0  0  0
    7.4430   -4.2176   22.1469 C   0  0  0  0  0  0  0  0  0  0  0  0
    6.8002   -3.9177   23.4995 C   0  0  0  0  0  0  0  0  0  0  0  0
    8.5152   -3.1926   21.7963 C   0  0  0  0  0  0  0  0  0  0  0  0
    8.9227   -2.7729   24.2522 C   0  0  0  0  0  0  0  0  0  0  0  0
    7.8489   -3.8058   24.6150 C   0  0  1  0  0  0  0  0  0  0  0  0
    9.5648   -3.0768   22.8986 C   0  0  2  0  0  0  0  0  0  0  0  0
    7.1859   -3.4510   25.9445 C   0  0  0  0  0  0  0  0  0  0  0  0
   10.7196    6.7977   24.0361 C   0  0  0  0  0  0  0  0  0  0  0  0
   11.6977   -2.1584   23.2588 C   0  0  0  0  0  0  0  0  0  0  0  0
   10.3865    5.3072   24.0494 C   0  0  2  0  0  0  0  0  0  0  0  0
    8.9721    5.2913   22.0290 N   0  0  0  0  0  0  0  0  0  0  0  0
    7.7248    4.8833   21.7393 N   0  0  0  0  0  0  0  0  0  0  0  0
   12.6839    2.6536   22.9076 N   0  0  0  0  0  0  0  0  0  0  0  0
   11.4851    4.5359   23.5150 N   0  0  0  0  0  0  0  0  0  0  0  0
   10.5615    2.4522   23.9007 O   0  0  0  0  0  0  0  0  0  0  0  0
   10.4707   -2.0340   22.5543 O   0  0  0  0  0  0  0  0  0  0  0  0
    7.3887    5.0031   20.7920 H   0  0  0  0  0  0  0  0  0  0  0  0
   13.3460    3.3795   22.6141 H   0  0  0  0  0  0  0  0  0  0  0  0
   12.2911    5.0320   23.1478 H   0  0  0  0  0  0  0  0  0  0  0  0
  1  2  1  0  0  0  0
  1  3  2  0  0  0  0
  2  7  2  0  0  0  0
  3  8  1  0  0  0  0
  4  6  2  0  0  0  0
  4  9  1  0  0  0  0
  5  7  1  0  0  0  0
  5  8  2  0  0  0  0
  6 22  1  0  0  0  0
  7 19  1  0  0  0  0
  8 23  1  0  0  0  0
  9 20  1  0  0  0  0
  9 21  2  0  0  0  0
 10 23  1  0  0  0  0
 10 24  1  0  0  0  0
 10 25  2  0  0  0  0
 11 12  1  0  0  0  0
 11 13  1  0  0  0  0
 12 15  1  0  0  0  0
 13 16  1  0  0  0  0
 14 15  1  0  0  0  0
 14 16  1  0  0  0  0
 15 17  1  0  0  0  0
 16 26  1  0  0  0  0
 18 20  1  0  0  0  0
 19 26  1  0  0  0  0
 20 24  1  0  0  0  0
 21 22  1  0  0  0  0
 22 27  1  0  0  0  0
 23 28  1  0  0  0  0
 24 29  1  0  0  0  0
M  END
> <ref_mols>
x2821_0

> <original SMILES>
CC(NC(=O)NC=1C=CC=C(COC2CCCC(C)C2)C1)C3=CC=NN3

> <Chemgauss4>
-10.126563

> <ref_pdb>
x0195_0

$$$$
x1233
  -OEChem-05172015543D

 19 21  0     0  0  0  0  0  0999 V2000
    8.0839   -3.2593   25.9046 C   0  0  0  0  0  0  0  0  0  0  0  0
    6.6458   -2.9245   23.9922 C   0  0  0  0  0  0  0  0  0  0  0  0
    9.2032   -3.0450   25.1004 C   0  0  0  0  0  0  0  0  0  0  0  0
    7.7652   -2.7102   23.1880 C   0  0  0  0  0  0  0  0  0  0  0  0
   10.8418   -0.4748   25.0089 C   0  0  0  0  0  0  0  0  0  0  0  0
   13.7664   -1.8512   22.8036 C   0  0  0  0  0  0  0  0  0  0  0  0
   11.7239   -1.0673   24.1520 C   0  0  0  0  0  0  0  0  0  0  0  0
    6.8052   -3.1991   25.3505 C   0  0  0  0  0  0  0  0  0  0  0  0
    9.0439   -2.7704   23.7421 C   0  0  0  0  0  0  0  0  0  0  0  0
   13.0023   -0.5116   24.4397 C   0  0  0  0  0  0  0  0  0  0  0  0
   11.4511   -2.0225   23.1857 C   0  0  0  0  0  0  0  0  0  0  0  0
    5.6078   -3.4285   26.2094 C   0  0  0  0  0  0  0  0  0  0  0  0
   14.1037   -0.9075   23.7416 N   0  0  0  0  0  0  0  0  0  0  0  0
   12.5512   -2.4204   22.4857 N   0  0  0  0  0  0  0  0  0  0  0  0
   12.9221    0.3850   25.4291 N   0  0  0  0  0  0  0  0  0  0  0  0
   11.6092    0.3839   25.7498 N   0  0  0  0  0  0  0  0  0  0  0  0
   10.1781   -2.5513   22.9271 N   0  0  0  0  0  0  0  0  0  0  0  0
   11.3009    0.9990   26.4921 H   0  0  0  0  0  0  0  0  0  0  0  0
   10.0360   -2.8359   21.9590 H   0  0  0  0  0  0  0  0  0  0  0  0
  1  3  2  0  0  0  0
  1  8  1  0  0  0  0
  2  4  1  0  0  0  0
  2  8  2  0  0  0  0
  3  9  1  0  0  0  0
  4  9  2  0  0  0  0
  5  7  2  0  0  0  0
  5 16  1  0  0  0  0
  6 13  2  0  0  0  0
  6 14  1  0  0  0  0
  7 10  1  0  0  0  0
  7 11  1  0  0  0  0
  8 12  1  0  0  0  0
  9 17  1  0  0  0  0
 10 13  1  0  0  0  0
 10 15  2  0  0  0  0
 11 14  2  0  0  0  0
 11 17  1  0  0  0  0
 15 16  1  0  0  0  0
 16 18  1  0  0  0  0
 17 19  1  0  0  0  0
M  END
> <ref_mols>
x1233_0

> <original SMILES>
CC=1C=CC(NC=2N=CN=C3NN=CC23)=CC1

> <Chemgauss4>
-10.091614

> <ref_pdb>
x0072_0

$$$$
x2647
  -OEChem-05172015543D

 23 25  0     0  0  0  0  0  0999 V2000
    5.7179    1.0113   18.7480 C   0  0  0  0  0  0  0  0  0  0  0  0
    6.2970    1.0661   20.0145 C   0  0  0  0  0  0  0  0  0  0  0  0
   12.6030   -2.1929   23.7758 C   0  0  0  0  0  0  0  0  0  0  0  0
   13.1490    0.1499   23.5520 C   0  0  0  0  0  0  0  0  0  0  0  0
   13.7317   -2.5275   23.0277 C   0  0  0  0  0  0  0  0  0  0  0  0
   14.2778   -0.1847   22.8039 C   0  0  0  0  0  0  0  0  0  0  0  0
    6.4680    0.5119   17.6918 C   0  0  0  0  0  0  0  0  0  0  0  0
    9.7081   -0.0437   20.7019 C   0  0  0  0  0  0  0  0  0  0  0  0
    7.6177    0.6092   20.1520 C   0  0  0  0  0  0  0  0  0  0  0  0
   12.3116   -0.8542   24.0380 C   0  0  0  0  0  0  0  0  0  0  0  0
    8.5482    0.4924   21.2182 C   0  0  0  0  0  0  0  0  0  0  0  0
   14.5691   -1.5234   22.5418 C   0  0  0  0  0  0  0  0  0  0  0  0
    8.2531    0.1337   19.0086 C   0  0  0  0  0  0  0  0  0  0  0  0
    9.5959    0.9327   23.4734 C   0  0  0  0  0  0  0  0  0  0  0  0
    8.3245    0.8735   22.6272 C   0  0  0  0  0  0  0  0  0  0  0  0
   11.0977   -0.4938   24.8446 C   0  0  0  0  0  0  0  0  0  0  0  0
    7.7412    0.0592   17.7654 N   0  0  0  0  0  0  0  0  0  0  0  0
    9.5181   -0.2569   19.3611 N   0  0  0  0  0  0  0  0  0  0  0  0
    9.9334   -0.3008   24.0121 N   0  0  0  0  0  0  0  0  0  0  0  0
   10.2309    1.9711   23.6388 O   0  0  0  0  0  0  0  0  0  0  0  0
   15.9615   -1.9363   21.6191 Cl  0  0  0  0  0  0  0  0  0  0  0  0
   10.2058   -0.6418   18.7286 H   0  0  0  0  0  0  0  0  0  0  0  0
    9.3382   -1.0995   23.8131 H   0  0  0  0  0  0  0  0  0  0  0  0
  1  2  2  0  0  0  0
  1  7  1  0  0  0  0
  2  9  1  0  0  0  0
  3  5  2  0  0  0  0
  3 10  1  0  0  0  0
  4  6  1  0  0  0  0
  4 10  2  0  0  0  0
  5 12  1  0  0  0  0
  6 12  2  0  0  0  0
  7 17  2  0  0  0  0
  8 11  2  0  0  0  0
  8 18  1  0  0  0  0
  9 11  1  0  0  0  0
  9 13  2  0  0  0  0
 10 16  1  0  0  0  0
 11 15  1  0  0  0  0
 12 21  1  0  0  0  0
 13 17  1  0  0  0  0
 13 18  1  0  0  0  0
 14 15  1  0  0  0  0
 14 19  1  0  0  0  0
 14 20  2  0  0  0  0
 16 19  1  0  0  0  0
 18 22  1  0  0  0  0
 19 23  1  0  0  0  0
M  END
> <ref_mols>
x2647_0

> <original SMILES>
ClC=1C=CC(CNC(=O)CC2=CNC=3N=CC=CC23)=CC1

> <Chemgauss4>
-10.089762

> <ref_pdb>
x0678_0

$$$$
x2479
  -OEChem-05172015543D

 23 25  0     0  0  0  0  0  0999 V2000
    5.7179    1.0113   18.7480 C   0  0  0  0  0  0  0  0  0  0  0  0
    6.2970    1.0661   20.0145 C   0  0  0  0  0  0  0  0  0  0  0  0
   12.6030   -2.1929   23.7758 C   0  0  0  0  0  0  0  0  0  0  0  0
   13.1490    0.1499   23.5520 C   0  0  0  0  0  0  0  0  0  0  0  0
   13.7317   -2.5275   23.0277 C   0  0  0  0  0  0  0  0  0  0  0  0
   14.2778   -0.1847   22.8039 C   0  0  0  0  0  0  0  0  0  0  0  0
    6.4680    0.5119   17.6918 C   0  0  0  0  0  0  0  0  0  0  0  0
    9.7081   -0.0437   20.7019 C   0  0  0  0  0  0  0  0  0  0  0  0
    7.6177    0.6092   20.1520 C   0  0  0  0  0  0  0  0  0  0  0  0
   12.3116   -0.8542   24.0380 C   0  0  0  0  0  0  0  0  0  0  0  0
    8.5482    0.4924   21.2182 C   0  0  0  0  0  0  0  0  0  0  0  0
   14.5691   -1.5234   22.5418 C   0  0  0  0  0  0  0  0  0  0  0  0
    8.2531    0.1337   19.0086 C   0  0  0  0  0  0  0  0  0  0  0  0
    9.5959    0.9327   23.4734 C   0  0  0  0  0  0  0  0  0  0  0  0
    8.3245    0.8735   22.6272 C   0  0  0  0  0  0  0  0  0  0  0  0
   11.0977   -0.4938   24.8446 C   0  0  0  0  0  0  0  0  0  0  0  0
    7.7412    0.0592   17.7654 N   0  0  0  0  0  0  0  0  0  0  0  0
    9.5181   -0.2569   19.3611 N   0  0  0  0  0  0  0  0  0  0  0  0
    9.9334   -0.3008   24.0121 N   0  0  0  0  0  0  0  0  0  0  0  0
   10.2309    1.9711   23.6388 O   0  0  0  0  0  0  0  0  0  0  0  0
   15.9615   -1.9363   21.6191 Cl  0  0  0  0  0  0  0  0  0  0  0  0
   10.2058   -0.6418   18.7286 H   0  0  0  0  0  0  0  0  0  0  0  0
    9.3382   -1.0995   23.8131 H   0  0  0  0  0  0  0  0  0  0  0  0
  1  2  2  0  0  0  0
  1  7  1  0  0  0  0
  2  9  1  0  0  0  0
  3  5  2  0  0  0  0
  3 10  1  0  0  0  0
  4  6  1  0  0  0  0
  4 10  2  0  0  0  0
  5 12  1  0  0  0  0
  6 12  2  0  0  0  0
  7 17  2  0  0  0  0
  8 11  2  0  0  0  0
  8 18  1  0  0  0  0
  9 11  1  0  0  0  0
  9 13  2  0  0  0  0
 10 16  1  0  0  0  0
 11 15  1  0  0  0  0
 12 21  1  0  0  0  0
 13 17  1  0  0  0  0
 13 18  1  0  0  0  0
 14 15  1  0  0  0  0
 14 19  1  0  0  0  0
 14 20  2  0  0  0  0
 16 19  1  0  0  0  0
 18 22  1  0  0  0  0
 19 23  1  0  0  0  0
M  END
> <ref_mols>
x2479_0

> <original SMILES>
ClC=1C=CC(CNC(=O)CC2=CNC=3N=CC=CC23)=CC1

> <Chemgauss4>
-10.089762

> <ref_pdb>
x0678_0

$$$$
x0459
  -OEChem-05172015543D

 20 22  0     0  0  0  0  0  0999 V2000
   12.3999    0.3293   23.9532 C   0  0  0  0  0  0  0  0  0  0  0  0
   11.4686    0.4469   22.9175 C   0  0  0  0  0  0  0  0  0  0  0  0
   14.3575   -2.5872   23.1122 C   0  0  0  0  0  0  0  0  0  0  0  0
   12.3622   -1.5223   21.8126 C   0  0  0  0  0  0  0  0  0  0  0  0
    7.2186   -0.4391   19.4127 C   0  0  0  0  0  0  0  0  0  0  0  0
   14.9588   -2.2112   24.2912 C   0  0  0  0  0  0  0  0  0  0  0  0
   13.3105   -1.6611   22.8455 C   0  0  0  0  0  0  0  0  0  0  0  0
   13.3074   -0.7340   23.8899 C   0  0  0  0  0  0  0  0  0  0  0  0
   11.4482   -0.4635   21.8627 C   0  0  0  0  0  0  0  0  0  0  0  0
    8.4470    0.1989   19.6574 C   0  0  0  0  0  0  0  0  0  0  0  0
    6.9607   -0.1555   18.0977 C   0  0  0  0  0  0  0  0  0  0  0  0
    9.2114    0.2301   20.9161 C   0  0  0  0  0  0  0  0  0  0  0  0
    5.8649   -0.4943   17.1812 C   0  0  0  0  0  0  0  0  0  0  0  0
    8.9150    0.8299   18.5769 N   0  0  0  0  0  0  0  0  0  0  0  0
   14.3183   -1.0926   24.7528 N   0  0  0  0  0  0  0  0  0  0  0  0
   10.5071   -0.3188   20.8418 N   0  0  0  0  0  0  0  0  0  0  0  0
    8.7142    0.6776   21.9473 O   0  0  0  0  0  0  0  0  0  0  0  0
    7.9659    0.6013   17.5878 O   0  0  0  0  0  0  0  0  0  0  0  0
   14.5528   -0.6010   25.6041 H   0  0  0  0  0  0  0  0  0  0  0  0
   10.7966   -0.6561   19.9169 H   0  0  0  0  0  0  0  0  0  0  0  0
  1  2  2  0  0  0  0
  1  8  1  0  0  0  0
  2  9  1  0  0  0  0
  3  6  2  0  0  0  0
  3  7  1  0  0  0  0
  4  7  1  0  0  0  0
  4  9  2  0  0  0  0
  5 10  1  0  0  0  0
  5 11  2  0  0  0  0
  6 15  1  0  0  0  0
  7  8  2  0  0  0  0
  8 15  1  0  0  0  0
  9 16  1  0  0  0  0
 10 12  1  0  0  0  0
 10 14  2  0  0  0  0
 11 13  1  0  0  0  0
 11 18  1  0  0  0  0
 12 16  1  0  0  0  0
 12 17  2  0  0  0  0
 14 18  1  0  0  0  0
 15 19  1  0  0  0  0
 16 20  1  0  0  0  0
M  END
> <ref_mols>
x0459_0

> <original SMILES>
CC1=CC(=NO1)C(=O)NC=2C=CC=3NC=CC3C2

> <Chemgauss4>
-10.088093

> <ref_pdb>
x0678_0

$$$$
x2853
  -OEChem-05172015543D

 27 28  0     0  0  0  0  0  0999 V2000
    9.2540   -1.8969   25.0676 C   0  0  0  0  0  0  0  0  0  0  0  0
    9.1509   -3.6080   23.3651 C   0  0  0  0  0  0  0  0  0  0  0  0
    8.2818   -2.5723   25.8053 C   0  0  0  0  0  0  0  0  0  0  0  0
    8.1788   -4.2835   24.1028 C   0  0  0  0  0  0  0  0  0  0  0  0
    5.0169    0.8488   19.1812 C   0  0  0  0  0  0  0  0  0  0  0  0
    5.6691    0.5053   18.0080 C   0  0  0  0  0  0  0  0  0  0  0  0
    7.6857    0.2887   19.0873 C   0  0  0  0  0  0  0  0  0  0  0  0
    5.7674    0.9062   20.3503 C   0  0  0  0  0  0  0  0  0  0  0  0
    9.6886   -2.4147   23.8474 C   0  0  0  0  0  0  0  0  0  0  0  0
    7.1280    0.6223   20.3110 C   0  0  0  0  0  0  0  0  0  0  0  0
    7.7442   -3.7656   25.3229 C   0  0  0  0  0  0  0  0  0  0  0  0
    9.2887    0.3989   21.5199 C   0  0  0  0  0  0  0  0  0  0  0  0
    5.0899    1.2745   21.6294 C   0  0  0  0  0  0  0  0  0  0  0  0
    9.7919    0.5535   22.9516 C   0  0  0  0  0  0  0  0  0  0  0  0
   10.9715   -0.3498   23.2853 C   0  0  0  0  0  0  0  0  0  0  0  0
    6.9889    0.2228   17.9306 N   0  0  0  0  0  0  0  0  0  0  0  0
    7.5001   -5.6309   27.2113 N   0  0  0  0  0  0  0  0  0  0  0  0
    7.9240    0.6662   21.4585 N   0  0  0  0  0  0  0  0  0  0  0  0
   10.6565   -1.7426   23.1126 N   0  0  0  0  0  0  0  0  0  0  0  0
   10.0341    0.0729   20.6025 O   0  0  0  0  0  0  0  0  0  0  0  0
    5.8532   -3.6503   27.1073 O   0  0  0  0  0  0  0  0  0  0  0  0
    5.7464   -5.4369   25.3341 O   0  0  0  0  0  0  0  0  0  0  0  0
    6.5268   -4.6115   26.2453 S   0  0  0  0  0  0  0  0  0  0  0  0
    7.5756   -5.4171   28.2133 H   0  0  0  0  0  0  0  0  0  0  0  0
    7.5031   -6.6362   26.9999 H   0  0  0  0  0  0  0  0  0  0  0  0
    7.4631    0.9168   22.3304 H   0  0  0  0  0  0  0  0  0  0  0  0
   11.1692   -2.2702   22.4112 H   0  0  0  0  0  0  0  0  0  0  0  0
  1  3  2  0  0  0  0
  1  9  1  0  0  0  0
  2  4  1  0  0  0  0
  2  9  2  0  0  0  0
  3 11  1  0  0  0  0
  4 11  2  0  0  0  0
  5  6  2  0  0  0  0
  5  8  1  0  0  0  0
  6 16  1  0  0  0  0
  7 10  1  0  0  0  0
  7 16  2  0  0  0  0
  8 10  2  0  0  0  0
  8 13  1  0  0  0  0
  9 19  1  0  0  0  0
 10 18  1  0  0  0  0
 11 23  1  0  0  0  0
 12 14  1  0  0  0  0
 12 18  1  0  0  0  0
 12 20  2  0  0  0  0
 14 15  1  0  0  0  0
 15 19  1  0  0  0  0
 17 23  1  0  0  0  0
 21 23  2  0  0  0  0
 22 23  2  0  0  0  0
 17 24  1  0  0  0  0
 17 25  1  0  0  0  0
 18 26  1  0  0  0  0
 19 27  1  0  0  0  0
M  END
> <ref_mols>
x2853_0

> <original SMILES>
CC=1C=CN=CC1NC(=O)CCNC=2C=CC(=CC2)S(=O)(=O)N

> <Chemgauss4>
-10.081774

> <ref_pdb>
x0107_0

$$$$
x0607
  -OEChem-05172015543D

 17 18  0     0  0  0  0  0  0999 V2000
   12.7408   -1.4623   24.1414 C   0  0  0  0  0  0  0  0  0  0  0  0
   11.5947   -1.1499   23.4104 C   0  0  0  0  0  0  0  0  0  0  0  0
    7.8431   -5.2801   21.8922 C   0  0  0  0  0  0  0  0  0  0  0  0
    6.7712   -3.9567   23.5904 C   0  0  0  0  0  0  0  0  0  0  0  0
   11.5307   -3.2082   25.2924 C   0  0  0  0  0  0  0  0  0  0  0  0
    6.6774   -5.1750   21.1506 C   0  0  0  0  0  0  0  0  0  0  0  0
    5.6536   -3.9107   22.7728 C   0  0  0  0  0  0  0  0  0  0  0  0
    7.8828   -4.6565   23.1343 C   0  0  0  0  0  0  0  0  0  0  0  0
   12.7088   -2.4916   25.0824 C   0  0  0  0  0  0  0  0  0  0  0  0
   10.4166   -1.8665   23.6204 C   0  0  0  0  0  0  0  0  0  0  0  0
   10.3845   -2.8957   24.5614 C   0  0  0  0  0  0  0  0  0  0  0  0
    9.1078   -4.7373   23.9702 C   0  0  0  0  0  0  0  0  0  0  0  0
   13.9348   -2.8258   25.8633 C   0  0  0  0  0  0  0  0  0  0  0  0
    9.1992   -1.5172   22.8299 C   0  0  0  0  0  0  0  0  0  0  0  0
    5.5777   -4.5040   21.5604 N   0  0  0  0  0  0  0  0  0  0  0  0
    9.8762   -5.6870   23.9408 O   0  0  0  0  0  0  0  0  0  0  0  0
    9.2425   -3.6063   24.7781 O   0  0  0  0  0  0  0  0  0  0  0  0
  1  2  2  0  0  0  0
  1  9  1  0  0  0  0
  2 10  1  0  0  0  0
  3  6  2  0  0  0  0
  3  8  1  0  0  0  0
  4  7  1  0  0  0  0
  4  8  2  0  0  0  0
  5  9  2  0  0  0  0
  5 11  1  0  0  0  0
  6 15  1  0  0  0  0
  7 15  2  0  0  0  0
  8 12  1  0  0  0  0
  9 13  1  0  0  0  0
 10 11  2  0  0  0  0
 10 14  1  0  0  0  0
 11 17  1  0  0  0  0
 12 16  2  0  0  0  0
 12 17  1  0  0  0  0
M  END
> <ref_mols>
x0607_0

> <original SMILES>
CC=1C=CC(C)=C(OC(=O)C=2C=CN=CC2)C1

> <Chemgauss4>
-10.074556

> <ref_pdb>
x0749_0

$$$$
x2613
  -OEChem-05172015543D

 18 19  0     0  0  0  0  0  0999 V2000
   13.8831   -0.9374   23.0785 C   0  0  0  0  0  0  0  0  0  0  0  0
   13.0624   -0.8921   21.9571 C   0  0  0  0  0  0  0  0  0  0  0  0
   13.3526   -0.5176   24.2878 C   0  0  0  0  0  0  0  0  0  0  0  0
   11.3196   -0.0378   23.3314 C   0  0  0  0  0  0  0  0  0  0  0  0
   11.7548   -0.4348   22.0774 C   0  0  0  0  0  0  0  0  0  0  0  0
    5.5546    0.9985   18.9491 C   0  0  0  0  0  0  0  0  0  0  0  0
    7.7955    0.2769   19.1050 C   0  0  0  0  0  0  0  0  0  0  0  0
    9.5612    0.0559   20.9086 C   0  0  0  0  0  0  0  0  0  0  0  0
    4.1888    1.5040   19.1921 C   0  0  0  0  0  0  0  0  0  0  0  0
   12.0875   -0.0674   24.4437 N   0  0  0  0  0  0  0  0  0  0  0  0
    6.0225    0.6051   17.7837 N   0  0  0  0  0  0  0  0  0  0  0  0
    7.3367    0.1809   17.8753 N   0  0  0  0  0  0  0  0  0  0  0  0
   10.9095   -0.3778   20.9719 N   0  0  0  0  0  0  0  0  0  0  0  0
    9.0826   -0.0510   19.5929 N   0  0  0  0  0  0  0  0  0  0  0  0
    8.9142    0.4636   21.8680 O   0  0  0  0  0  0  0  0  0  0  0  0
    6.6708    0.8877   20.2466 S   0  0  0  0  0  0  0  0  0  0  0  0
   11.3175   -0.6920   20.0838 H   0  0  0  0  0  0  0  0  0  0  0  0
    9.7363   -0.4078   18.9005 H   0  0  0  0  0  0  0  0  0  0  0  0
  1  2  2  0  0  0  0
  1  3  1  0  0  0  0
  2  5  1  0  0  0  0
  3 10  2  0  0  0  0
  4  5  2  0  0  0  0
  4 10  1  0  0  0  0
  5 13  1  0  0  0  0
  6  9  1  0  0  0  0
  6 11  2  0  0  0  0
  6 16  1  0  0  0  0
  7 12  2  0  0  0  0
  7 14  1  0  0  0  0
  7 16  1  0  0  0  0
  8 13  1  0  0  0  0
  8 14  1  0  0  0  0
  8 15  2  0  0  0  0
 11 12  1  0  0  0  0
 13 17  1  0  0  0  0
 14 18  1  0  0  0  0
M  END
> <ref_mols>
x2613_0

> <original SMILES>
CC1=NN=C(NC(=O)NC=2C=CC=NC2)S1

> <Chemgauss4>
-10.058550

> <ref_pdb>
x0678_0

$$$$
x2608
  -OEChem-05172015543D

 18 19  0     0  0  0  0  0  0999 V2000
    5.9856    1.2247   19.3553 C   0  0  0  0  0  0  0  0  0  0  0  0
    6.8945    0.9737   20.3772 C   0  0  0  0  0  0  0  0  0  0  0  0
   14.3589   -1.9717   22.4937 C   0  0  0  0  0  0  0  0  0  0  0  0
   13.2120   -1.5776   21.7456 C   0  0  0  0  0  0  0  0  0  0  0  0
    6.3518    0.8833   18.0634 C   0  0  0  0  0  0  0  0  0  0  0  0
    8.3948    0.0928   18.7557 C   0  0  0  0  0  0  0  0  0  0  0  0
    8.1244    0.3973   20.0801 C   0  0  0  0  0  0  0  0  0  0  0  0
   14.2107   -1.7187   23.8397 C   0  0  0  0  0  0  0  0  0  0  0  0
   12.2308   -1.0386   22.5485 C   0  0  0  0  0  0  0  0  0  0  0  0
   10.3448   -0.4427   20.9652 C   0  0  0  0  0  0  0  0  0  0  0  0
   15.1680   -1.9799   24.9365 C   0  0  0  0  0  0  0  0  0  0  0  0
    7.5372    0.3218   17.7361 N   0  0  0  0  0  0  0  0  0  0  0  0
    9.0550    0.1344   21.0824 N   0  0  0  0  0  0  0  0  0  0  0  0
   10.9507   -0.5275   22.2290 N   0  0  0  0  0  0  0  0  0  0  0  0
   10.8502   -0.8113   19.9098 O   0  0  0  0  0  0  0  0  0  0  0  0
   12.6937   -1.0091   24.1969 S   0  0  0  0  0  0  0  0  0  0  0  0
    8.7687    0.3932   22.0337 H   0  0  0  0  0  0  0  0  0  0  0  0
   10.4078   -0.1812   23.0160 H   0  0  0  0  0  0  0  0  0  0  0  0
  1  2  2  0  0  0  0
  1  5  1  0  0  0  0
  2  7  1  0  0  0  0
  3  4  1  0  0  0  0
  3  8  2  0  0  0  0
  4  9  2  0  0  0  0
  5 12  2  0  0  0  0
  6  7  2  0  0  0  0
  6 12  1  0  0  0  0
  7 13  1  0  0  0  0
  8 11  1  0  0  0  0
  8 16  1  0  0  0  0
  9 14  1  0  0  0  0
  9 16  1  0  0  0  0
 10 13  1  0  0  0  0
 10 14  1  0  0  0  0
 10 15  2  0  0  0  0
 13 17  1  0  0  0  0
 14 18  1  0  0  0  0
M  END
> <ref_mols>
x2608_0

> <original SMILES>
CC1=CC=C(NC(=O)NC=2C=CC=NC2)S1

> <Chemgauss4>
-10.044557

> <ref_pdb>
x0678_0

$$$$
x1251
  -OEChem-05172015543D

 18 20  0     0  0  0  0  0  0999 V2000
   12.1773   -1.1780   24.3565 C   0  0  0  0  0  0  0  0  0  0  0  0
   12.3819   -3.3375   25.4203 C   0  0  0  0  0  0  0  0  0  0  0  0
   13.3105   -0.7348   25.0383 C   0  0  0  0  0  0  0  0  0  0  0  0
   13.5152   -2.8943   26.1021 C   0  0  0  0  0  0  0  0  0  0  0  0
   11.7129   -2.4794   24.5476 C   0  0  0  0  0  0  0  0  0  0  0  0
   13.9795   -1.5929   25.9110 C   0  0  0  0  0  0  0  0  0  0  0  0
    6.9799   -4.2498   21.9586 C   0  0  0  0  0  0  0  0  0  0  0  0
    5.8598   -5.9363   23.5535 C   0  0  0  0  0  0  0  0  0  0  0  0
    5.1394   -6.0301   22.2422 C   0  0  0  0  0  0  0  0  0  0  0  0
   10.2362   -2.3898   22.5462 C   0  0  0  0  0  0  0  0  0  0  0  0
    9.7241   -3.9642   24.4387 C   0  0  0  0  0  0  0  0  0  0  0  0
    8.7273   -2.4596   22.3105 C   0  0  0  0  0  0  0  0  0  0  0  0
    8.9740   -4.7102   23.3375 C   0  0  0  0  0  0  0  0  0  0  0  0
    6.5860   -5.6709   22.2787 C   0  0  0  0  0  0  0  0  0  0  0  0
   10.5813   -2.9220   23.8668 N   0  0  0  0  0  0  0  0  0  0  0  0
    8.1844   -3.8058   22.5056 N   0  0  0  0  0  0  0  0  0  0  0  0
    6.2433   -3.5571   21.2525 O   0  0  0  0  0  0  0  0  0  0  0  0
   15.0678   -1.1673   26.5658 F   0  0  0  0  0  0  0  0  0  0  0  0
  1  3  2  0  0  0  0
  1  5  1  0  0  0  0
  2  4  1  0  0  0  0
  2  5  2  0  0  0  0
  3  6  1  0  0  0  0
  4  6  2  0  0  0  0
  5 15  1  0  0  0  0
  6 18  1  0  0  0  0
  7 14  1  0  0  0  0
  7 16  1  0  0  0  0
  7 17  2  0  0  0  0
  8  9  1  0  0  0  0
  8 14  1  0  0  0  0
  9 14  1  0  0  0  0
 10 12  1  0  0  0  0
 10 15  1  0  0  0  0
 11 13  1  0  0  0  0
 11 15  1  0  0  0  0
 12 16  1  0  0  0  0
 13 16  1  0  0  0  0
M  END
> <ref_mols>
x1251_0

> <original SMILES>
FC=1C=CC(=CC1)N2CCN(CC2)C(=O)C3CC3

> <Chemgauss4>
-10.040556

> <ref_pdb>
x0749_0

$$$$
x0490
  -OEChem-05172015543D

 18 20  0     0  0  0  0  0  0999 V2000
   12.1773   -1.1780   24.3565 C   0  0  0  0  0  0  0  0  0  0  0  0
   12.3819   -3.3375   25.4203 C   0  0  0  0  0  0  0  0  0  0  0  0
   13.3105   -0.7348   25.0383 C   0  0  0  0  0  0  0  0  0  0  0  0
   13.5152   -2.8943   26.1021 C   0  0  0  0  0  0  0  0  0  0  0  0
   11.7129   -2.4794   24.5476 C   0  0  0  0  0  0  0  0  0  0  0  0
   13.9795   -1.5929   25.9110 C   0  0  0  0  0  0  0  0  0  0  0  0
    6.9799   -4.2498   21.9586 C   0  0  0  0  0  0  0  0  0  0  0  0
    5.8598   -5.9363   23.5535 C   0  0  0  0  0  0  0  0  0  0  0  0
    5.1394   -6.0301   22.2422 C   0  0  0  0  0  0  0  0  0  0  0  0
   10.2362   -2.3898   22.5462 C   0  0  0  0  0  0  0  0  0  0  0  0
    9.7241   -3.9642   24.4387 C   0  0  0  0  0  0  0  0  0  0  0  0
    8.7273   -2.4596   22.3105 C   0  0  0  0  0  0  0  0  0  0  0  0
    8.9740   -4.7102   23.3375 C   0  0  0  0  0  0  0  0  0  0  0  0
    6.5860   -5.6709   22.2787 C   0  0  0  0  0  0  0  0  0  0  0  0
   10.5813   -2.9220   23.8668 N   0  0  0  0  0  0  0  0  0  0  0  0
    8.1844   -3.8058   22.5056 N   0  0  0  0  0  0  0  0  0  0  0  0
    6.2433   -3.5571   21.2525 O   0  0  0  0  0  0  0  0  0  0  0  0
   15.0678   -1.1673   26.5658 F   0  0  0  0  0  0  0  0  0  0  0  0
  1  3  2  0  0  0  0
  1  5  1  0  0  0  0
  2  4  1  0  0  0  0
  2  5  2  0  0  0  0
  3  6  1  0  0  0  0
  4  6  2  0  0  0  0
  5 15  1  0  0  0  0
  6 18  1  0  0  0  0
  7 14  1  0  0  0  0
  7 16  1  0  0  0  0
  7 17  2  0  0  0  0
  8  9  1  0  0  0  0
  8 14  1  0  0  0  0
  9 14  1  0  0  0  0
 10 12  1  0  0  0  0
 10 15  1  0  0  0  0
 11 13  1  0  0  0  0
 11 15  1  0  0  0  0
 12 16  1  0  0  0  0
 13 16  1  0  0  0  0
M  END
> <ref_mols>
x0490_0

> <original SMILES>
FC=1C=CC(=CC1)N2CCN(CC2)C(=O)C3CC3

> <Chemgauss4>
-10.040556

> <ref_pdb>
x0749_0

$$$$
x0095
  -OEChem-05172015543D

 17 18  0     0  0  0  0  0  0999 V2000
   13.2916   -0.0588   23.9218 C   0  0  0  0  0  0  0  0  0  0  0  0
   13.5949   -1.6252   22.1075 C   0  0  0  0  0  0  0  0  0  0  0  0
   12.5209    0.7543   23.0909 C   0  0  0  0  0  0  0  0  0  0  0  0
   12.8241   -0.8121   21.2766 C   0  0  0  0  0  0  0  0  0  0  0  0
    6.4090   -0.4144   18.1631 C   0  0  0  0  0  0  0  0  0  0  0  0
    5.8396   -0.2844   19.4125 C   0  0  0  0  0  0  0  0  0  0  0  0
   13.8287   -1.2486   23.4300 C   0  0  0  0  0  0  0  0  0  0  0  0
   12.2871    0.3777   21.7684 C   0  0  0  0  0  0  0  0  0  0  0  0
    8.1946    0.2034   19.2766 C   0  0  0  0  0  0  0  0  0  0  0  0
    9.9696    0.9245   20.9119 C   0  0  0  0  0  0  0  0  0  0  0  0
   14.6528   -2.1186   24.3176 C   0  0  0  0  0  0  0  0  0  0  0  0
   11.4615    1.2469   20.8811 C   0  0  0  0  0  0  0  0  0  0  0  0
    7.7592   -0.1347   18.0832 N   0  0  0  0  0  0  0  0  0  0  0  0
    9.5115    0.5667   19.6464 N   0  0  0  0  0  0  0  0  0  0  0  0
    9.3150    0.9921   21.9473 O   0  0  0  0  0  0  0  0  0  0  0  0
    7.0344    0.2057   20.5411 S   0  0  0  0  0  0  0  0  0  0  0  0
   10.2043    0.5665   18.9007 H   0  0  0  0  0  0  0  0  0  0  0  0
  1  3  2  0  0  0  0
  1  7  1  0  0  0  0
  2  4  1  0  0  0  0
  2  7  2  0  0  0  0
  3  8  1  0  0  0  0
  4  8  2  0  0  0  0
  5  6  2  0  0  0  0
  5 13  1  0  0  0  0
  6 16  1  0  0  0  0
  7 11  1  0  0  0  0
  8 12  1  0  0  0  0
  9 13  2  0  0  0  0
  9 14  1  0  0  0  0
  9 16  1  0  0  0  0
 10 12  1  0  0  0  0
 10 14  1  0  0  0  0
 10 15  2  0  0  0  0
 14 17  1  0  0  0  0
M  END
> <ref_mols>
x0095_0

> <original SMILES>
CC=1C=CC(CC(=O)NC2=NC=CS2)=CC1

> <Chemgauss4>
-10.034944

> <ref_pdb>
x0678_0

$$$$
x0408
  -OEChem-05172015543D

 16 17  0     0  0  0  0  0  0999 V2000
    9.4230   -0.1614   18.9105 C   0  0  0  0  0  0  0  0  0  0  0  0
    8.9468   -0.1325   20.2350 C   0  0  0  0  0  0  0  0  0  0  0  0
    7.6359    0.2609   20.1200 C   0  0  0  0  0  0  0  0  0  0  0  0
    9.6638   -0.4478   21.4973 C   0  0  0  0  0  0  0  0  0  0  0  0
   14.4643   -2.0954   22.9469 C   0  0  0  0  0  0  0  0  0  0  0  0
   13.8800   -1.2544   21.7952 C   0  0  0  0  0  0  0  0  0  0  0  0
   13.5940   -1.2688   23.9135 C   0  0  0  0  0  0  0  0  0  0  0  0
   12.6742   -0.9321   22.7130 C   0  0  0  0  0  0  0  0  0  0  0  0
    6.5910    0.4853   21.1378 C   0  0  0  0  0  0  0  0  0  0  0  0
    6.1836    0.8546   18.1567 C   0  0  0  0  0  0  0  0  0  0  0  0
   11.4496   -1.8178   22.5413 C   0  0  0  0  0  0  0  0  0  0  0  0
    8.4904    0.1858   18.0196 N   0  0  0  0  0  0  0  0  0  0  0  0
    7.4151    0.4365   18.7856 N   0  0  0  0  0  0  0  0  0  0  0  0
   10.6861   -1.3928   21.4113 N   0  0  0  0  0  0  0  0  0  0  0  0
    9.3200    0.1077   22.5374 O   0  0  0  0  0  0  0  0  0  0  0  0
   10.8630   -1.8514   20.5147 H   0  0  0  0  0  0  0  0  0  0  0  0
  1  2  1  0  0  0  0
  1 12  2  0  0  0  0
  2  3  2  0  0  0  0
  2  4  1  0  0  0  0
  3  9  1  0  0  0  0
  3 13  1  0  0  0  0
  4 14  1  0  0  0  0
  4 15  2  0  0  0  0
  5  6  1  0  0  0  0
  5  7  1  0  0  0  0
  6  8  1  0  0  0  0
  7  8  1  0  0  0  0
  8 11  1  0  0  0  0
 10 13  1  0  0  0  0
 11 14  1  0  0  0  0
 12 13  1  0  0  0  0
 14 16  1  0  0  0  0
M  END
> <ref_mols>
x0408_0

> <original SMILES>
CC1=C(C=NN1C)C(=O)NCC2CCC2

> <Chemgauss4>
-10.012135

> <ref_pdb>
x0678_0

$$$$
x1079
  -OEChem-05172015543D

 16 17  0     0  0  0  0  0  0999 V2000
    9.4230   -0.1614   18.9105 C   0  0  0  0  0  0  0  0  0  0  0  0
    8.9468   -0.1325   20.2350 C   0  0  0  0  0  0  0  0  0  0  0  0
    7.6359    0.2609   20.1200 C   0  0  0  0  0  0  0  0  0  0  0  0
    9.6638   -0.4478   21.4973 C   0  0  0  0  0  0  0  0  0  0  0  0
   14.4643   -2.0954   22.9469 C   0  0  0  0  0  0  0  0  0  0  0  0
   13.8800   -1.2544   21.7952 C   0  0  0  0  0  0  0  0  0  0  0  0
   13.5940   -1.2688   23.9135 C   0  0  0  0  0  0  0  0  0  0  0  0
   12.6742   -0.9321   22.7130 C   0  0  0  0  0  0  0  0  0  0  0  0
    6.5910    0.4853   21.1378 C   0  0  0  0  0  0  0  0  0  0  0  0
    6.1836    0.8546   18.1567 C   0  0  0  0  0  0  0  0  0  0  0  0
   11.4496   -1.8178   22.5413 C   0  0  0  0  0  0  0  0  0  0  0  0
    8.4904    0.1858   18.0196 N   0  0  0  0  0  0  0  0  0  0  0  0
    7.4151    0.4365   18.7856 N   0  0  0  0  0  0  0  0  0  0  0  0
   10.6861   -1.3928   21.4113 N   0  0  0  0  0  0  0  0  0  0  0  0
    9.3200    0.1077   22.5374 O   0  0  0  0  0  0  0  0  0  0  0  0
   10.8630   -1.8514   20.5147 H   0  0  0  0  0  0  0  0  0  0  0  0
  1  2  1  0  0  0  0
  1 12  2  0  0  0  0
  2  3  2  0  0  0  0
  2  4  1  0  0  0  0
  3  9  1  0  0  0  0
  3 13  1  0  0  0  0
  4 14  1  0  0  0  0
  4 15  2  0  0  0  0
  5  6  1  0  0  0  0
  5  7  1  0  0  0  0
  6  8  1  0  0  0  0
  7  8  1  0  0  0  0
  8 11  1  0  0  0  0
 10 13  1  0  0  0  0
 11 14  1  0  0  0  0
 12 13  1  0  0  0  0
 14 16  1  0  0  0  0
M  END
> <ref_mols>
x1079_0

> <original SMILES>
CC1=C(C=NN1C)C(=O)NCC2CCC2

> <Chemgauss4>
-10.012135

> <ref_pdb>
x0678_0

$$$$
x0210
  -OEChem-05172015543D

 17 18  0     0  0  0  0  0  0999 V2000
   14.2996   -1.1595   23.6543 C   0  0  0  0  0  0  0  0  0  0  0  0
   13.8335   -1.8512   22.5363 C   0  0  0  0  0  0  0  0  0  0  0  0
   13.4399   -0.3213   24.3643 C   0  0  0  0  0  0  0  0  0  0  0  0
   12.5077   -1.7045   22.1282 C   0  0  0  0  0  0  0  0  0  0  0  0
   12.1142   -0.1747   23.9562 C   0  0  0  0  0  0  0  0  0  0  0  0
   11.6481   -0.8663   22.8381 C   0  0  0  0  0  0  0  0  0  0  0  0
    6.7669    0.4673   18.5346 C   0  0  0  0  0  0  0  0  0  0  0  0
   10.1040    0.4535   21.4024 C   0  0  0  0  0  0  0  0  0  0  0  0
    9.7152   -2.0156   21.7751 C   0  0  0  0  0  0  0  0  0  0  0  0
    8.6816    0.5879   20.8742 C   0  0  0  0  0  0  0  0  0  0  0  0
    8.2956   -1.8623   21.2444 C   0  0  0  0  0  0  0  0  0  0  0  0
   10.2274   -0.7085   22.4012 C   0  0  0  0  0  0  0  0  0  0  0  0
    6.8978   -0.6061   19.6064 C   0  0  0  0  0  0  0  0  0  0  0  0
    8.2488   -0.7205   20.2574 N   0  3  0  0  0  0  0  0  0  0  0  0
    7.5323    0.3571   17.5374 O   0  5  0  0  0  0  0  0  0  0  0  0
    5.8947    1.3478   18.7851 O   0  0  0  0  0  0  0  0  0  0  0  0
    8.9158   -0.9395   19.5046 H   0  0  0  0  0  0  0  0  0  0  0  0
  1  2  1  0  0  0  0
  1  3  2  0  0  0  0
  2  4  2  0  0  0  0
  3  5  1  0  0  0  0
  4  6  1  0  0  0  0
  5  6  2  0  0  0  0
  6 12  1  0  0  0  0
  7 13  1  0  0  0  0
  7 15  1  0  0  0  0
  7 16  2  0  0  0  0
  8 10  1  0  0  0  0
  8 12  1  0  0  0  0
  9 11  1  0  0  0  0
  9 12  1  0  0  0  0
 10 14  1  0  0  0  0
 11 14  1  0  0  0  0
 13 14  1  0  0  0  0
 14 17  1  0  0  0  0
M  CHG  2  14   1  15  -1
M  END
> <ref_mols>
x0210_0

> <original SMILES>
OC(=O)CN1CCC(CC1)C=2C=CC=CC2

> <Chemgauss4>
-10.005326

> <ref_pdb>
x0678_0

$$$$
x2605
  -OEChem-05172015543D

 26 28  0     1  0  0  0  0  0999 V2000
    6.7780   -5.5486   23.6497 C   0  0  0  0  0  0  0  0  0  0  0  0
    7.0056   -5.1643   22.3283 C   0  0  0  0  0  0  0  0  0  0  0  0
    7.3398   -4.8164   24.6956 C   0  0  0  0  0  0  0  0  0  0  0  0
    7.7949   -4.0478   22.0527 C   0  0  0  0  0  0  0  0  0  0  0  0
    8.1291   -3.6998   24.4201 C   0  0  0  0  0  0  0  0  0  0  0  0
    6.3318   -0.2744   18.0365 C   0  0  0  0  0  0  0  0  0  0  0  0
    6.1612    0.3286   19.2573 C   0  0  0  0  0  0  0  0  0  0  0  0
    8.3567   -3.3155   23.0987 C   0  0  0  0  0  0  0  0  0  0  0  0
    8.7404    0.1266   21.8018 C   0  0  0  0  0  0  0  0  0  0  0  0
   12.3099   -1.7344   22.4299 C   0  0  0  0  0  0  0  0  0  0  0  0
   12.1228   -0.3082   24.4579 C   0  0  0  0  0  0  0  0  0  0  0  0
   13.3339   -0.7422   21.9053 C   0  0  0  0  0  0  0  0  0  0  0  0
   13.1569    0.6100   23.8287 C   0  0  0  0  0  0  0  0  0  0  0  0
    7.6924    1.2244   21.8223 C   0  0  0  0  0  0  0  0  0  0  0  0
    7.6206    1.9813   20.4999 C   0  0  0  0  0  0  0  0  0  0  0  0
   10.2799   -1.8934   23.8784 C   0  0  0  0  0  0  0  0  0  0  0  0
    9.2143   -2.1030   22.8002 C   0  0  2  0  0  0  0  0  0  0  0  0
    7.5053    0.1473   17.4757 N   0  0  0  0  0  0  0  0  0  0  0  0
    8.0764    1.0014   18.3180 N   0  0  0  0  0  0  0  0  0  0  0  0
    7.2690    1.1086   19.3856 N   0  0  0  0  0  0  0  0  0  0  0  0
    8.3899   -0.9263   22.6327 N   0  0  0  0  0  0  0  0  0  0  0  0
   11.3636   -0.9986   23.3491 N   0  3  0  0  0  0  0  0  0  0  0  0
    9.7639    0.1873   21.1259 O   0  0  0  0  0  0  0  0  0  0  0  0
   14.0401   -0.1323   22.9866 O   0  0  0  0  0  0  0  0  0  0  0  0
    7.5163   -0.8689   23.1462 H   0  0  0  0  0  0  0  0  0  0  0  0
   10.8972   -0.2685   22.7930 H   0  0  0  0  0  0  0  0  0  0  0  0
  1  2  1  0  0  0  0
  1  3  2  0  0  0  0
  2  4  2  0  0  0  0
  3  5  1  0  0  0  0
  4  8  1  0  0  0  0
  5  8  2  0  0  0  0
  6  7  2  0  0  0  0
  6 18  1  0  0  0  0
  7 20  1  0  0  0  0
  8 17  1  0  0  0  0
  9 14  1  0  0  0  0
  9 21  1  0  0  0  0
  9 23  2  0  0  0  0
 10 12  1  0  0  0  0
 10 22  1  0  0  0  0
 11 13  1  0  0  0  0
 11 22  1  0  0  0  0
 12 24  1  0  0  0  0
 13 24  1  0  0  0  0
 14 15  1  0  0  0  0
 15 20  1  0  0  0  0
 16 17  1  0  0  0  0
 16 22  1  0  0  0  0
 17 21  1  0  0  0  0
 18 19  2  0  0  0  0
 19 20  1  0  0  0  0
 21 25  1  0  0  0  0
 22 26  1  0  0  0  0
M  CHG  1  22   1
M  END
> <ref_mols>
x2605_0

> <original SMILES>
O=C(CCN1C=CN=N1)NC(CN2CCOCC2)C=3C=CC=CC3

> <Chemgauss4>
-10.001107

> <ref_pdb>
x0678_0

$$$$
x2724
  -OEChem-05172015543D

 25 27  0     0  0  0  0  0  0999 V2000
    7.2819    0.6514   19.7249 C   0  0  0  0  0  0  0  0  0  0  0  0
    6.1266    0.1329   19.1534 C   0  0  0  0  0  0  0  0  0  0  0  0
    7.9686   -0.0915   20.6809 C   0  0  0  0  0  0  0  0  0  0  0  0
    5.6607   -1.1265   19.5389 C   0  0  0  0  0  0  0  0  0  0  0  0
    7.6830   -3.3748   22.3895 C   0  0  0  0  0  0  0  0  0  0  0  0
    7.4998   -1.3583   21.0685 C   0  0  0  0  0  0  0  0  0  0  0  0
    6.3276   -1.8910   20.4923 C   0  0  0  0  0  0  0  0  0  0  0  0
    8.1714   -2.1274   22.0284 C   0  0  0  0  0  0  0  0  0  0  0  0
    6.5291   -3.8117   21.7712 C   0  0  0  0  0  0  0  0  0  0  0  0
   10.1086   -2.3349   23.6184 C   0  0  0  0  0  0  0  0  0  0  0  0
   13.2233    2.1358   23.2361 C   0  0  0  0  0  0  0  0  0  0  0  0
   12.1908   -1.2671   22.8217 C   0  0  0  0  0  0  0  0  0  0  0  0
   10.8232   -0.1920   24.6466 C   0  0  0  0  0  0  0  0  0  0  0  0
   13.3463   -0.3347   23.1759 C   0  0  0  0  0  0  0  0  0  0  0  0
   12.0074    0.7190   24.9637 C   0  0  0  0  0  0  0  0  0  0  0  0
   11.2908   -1.5155   24.0352 C   0  0  0  0  0  0  0  0  0  0  0  0
   12.2322    3.2631   23.3776 C   0  0  0  0  0  0  0  0  0  0  0  0
    5.8512   -3.1012   20.8408 N   0  0  0  0  0  0  0  0  0  0  0  0
   12.8517    0.9055   23.7771 N   0  0  0  0  0  0  0  0  0  0  0  0
    9.3539   -1.6725   22.6587 N   0  0  0  0  0  0  0  0  0  0  0  0
    9.9071   -3.4413   24.1086 O   0  0  0  0  0  0  0  0  0  0  0  0
   14.2943    2.3438   22.6601 O   0  0  0  0  0  0  0  0  0  0  0  0
    5.8435   -5.3392   22.1466 Cl  0  0  0  0  0  0  0  0  0  0  0  0
   10.7752    2.7626   22.5265 Cl  0  0  0  0  0  0  0  0  0  0  0  0
    9.6782   -0.7533   22.3655 H   0  0  0  0  0  0  0  0  0  0  0  0
  1  2  2  0  0  0  0
  1  3  1  0  0  0  0
  2  4  1  0  0  0  0
  3  6  2  0  0  0  0
  4  7  2  0  0  0  0
  5  8  2  0  0  0  0
  5  9  1  0  0  0  0
  6  7  1  0  0  0  0
  6  8  1  0  0  0  0
  7 18  1  0  0  0  0
  8 20  1  0  0  0  0
  9 18  2  0  0  0  0
  9 23  1  0  0  0  0
 10 16  1  0  0  0  0
 10 20  1  0  0  0  0
 10 21  2  0  0  0  0
 11 17  1  0  0  0  0
 11 19  1  0  0  0  0
 11 22  2  0  0  0  0
 12 14  1  0  0  0  0
 12 16  1  0  0  0  0
 13 15  1  0  0  0  0
 13 16  1  0  0  0  0
 14 19  1  0  0  0  0
 15 19  1  0  0  0  0
 17 24  1  0  0  0  0
 20 25  1  0  0  0  0
M  END
> <ref_mols>
x2724_0

> <original SMILES>
O=C(C1CCN(C(CCl)=O)CC1)NC2=C(C=CC=C3)C3=NC(Cl)=C2

> <Chemgauss4>
-9.996580

> <ref_pdb>
x0831_0

> <CYS145-warhead dist minimum (A)>
7.0439286

> <CYS145-warhead dist mean (A)>
11.09561

> <CYS145-warhead dist stddev (A)>
0.795056

$$$$
x2048
  -OEChem-05172015543D

 25 27  0     0  0  0  0  0  0999 V2000
    7.2819    0.6514   19.7249 C   0  0  0  0  0  0  0  0  0  0  0  0
    6.1266    0.1329   19.1534 C   0  0  0  0  0  0  0  0  0  0  0  0
    7.9686   -0.0915   20.6809 C   0  0  0  0  0  0  0  0  0  0  0  0
    5.6607   -1.1265   19.5389 C   0  0  0  0  0  0  0  0  0  0  0  0
    7.6830   -3.3748   22.3895 C   0  0  0  0  0  0  0  0  0  0  0  0
    7.4998   -1.3583   21.0685 C   0  0  0  0  0  0  0  0  0  0  0  0
    6.3276   -1.8910   20.4923 C   0  0  0  0  0  0  0  0  0  0  0  0
    8.1714   -2.1274   22.0284 C   0  0  0  0  0  0  0  0  0  0  0  0
    6.5291   -3.8117   21.7712 C   0  0  0  0  0  0  0  0  0  0  0  0
   10.1086   -2.3349   23.6184 C   0  0  0  0  0  0  0  0  0  0  0  0
   13.2233    2.1358   23.2361 C   0  0  0  0  0  0  0  0  0  0  0  0
   12.1908   -1.2671   22.8217 C   0  0  0  0  0  0  0  0  0  0  0  0
   10.8232   -0.1920   24.6466 C   0  0  0  0  0  0  0  0  0  0  0  0
   13.3463   -0.3347   23.1759 C   0  0  0  0  0  0  0  0  0  0  0  0
   12.0074    0.7190   24.9637 C   0  0  0  0  0  0  0  0  0  0  0  0
   11.2908   -1.5155   24.0352 C   0  0  0  0  0  0  0  0  0  0  0  0
   12.2322    3.2631   23.3776 C   0  0  0  0  0  0  0  0  0  0  0  0
    5.8512   -3.1012   20.8408 N   0  0  0  0  0  0  0  0  0  0  0  0
   12.8517    0.9055   23.7771 N   0  0  0  0  0  0  0  0  0  0  0  0
    9.3539   -1.6725   22.6587 N   0  0  0  0  0  0  0  0  0  0  0  0
    9.9071   -3.4413   24.1086 O   0  0  0  0  0  0  0  0  0  0  0  0
   14.2943    2.3438   22.6601 O   0  0  0  0  0  0  0  0  0  0  0  0
    5.8435   -5.3392   22.1466 Cl  0  0  0  0  0  0  0  0  0  0  0  0
   10.7752    2.7626   22.5265 Cl  0  0  0  0  0  0  0  0  0  0  0  0
    9.6782   -0.7533   22.3655 H   0  0  0  0  0  0  0  0  0  0  0  0
  1  2  2  0  0  0  0
  1  3  1  0  0  0  0
  2  4  1  0  0  0  0
  3  6  2  0  0  0  0
  4  7  2  0  0  0  0
  5  8  2  0  0  0  0
  5  9  1  0  0  0  0
  6  7  1  0  0  0  0
  6  8  1  0  0  0  0
  7 18  1  0  0  0  0
  8 20  1  0  0  0  0
  9 18  2  0  0  0  0
  9 23  1  0  0  0  0
 10 16  1  0  0  0  0
 10 20  1  0  0  0  0
 10 21  2  0  0  0  0
 11 17  1  0  0  0  0
 11 19  1  0  0  0  0
 11 22  2  0  0  0  0
 12 14  1  0  0  0  0
 12 16  1  0  0  0  0
 13 15  1  0  0  0  0
 13 16  1  0  0  0  0
 14 19  1  0  0  0  0
 15 19  1  0  0  0  0
 17 24  1  0  0  0  0
 20 25  1  0  0  0  0
M  END
> <ref_mols>
x2048_0

> <original SMILES>
O=C(C1CCN(C(CCl)=O)CC1)NC2=C(C=CC=C3)C3=NC(Cl)=C2

> <Chemgauss4>
-9.996580

> <ref_pdb>
x0831_0

> <CYS145-warhead dist minimum (A)>
10.137572

> <CYS145-warhead dist mean (A)>
13.182871

> <CYS145-warhead dist stddev (A)>
0.7600363

$$$$
x0494
  -OEChem-05172015543D

 20 21  0     0  0  0  0  0  0999 V2000
   13.9775   -2.3721   23.3199 C   0  0  0  0  0  0  0  0  0  0  0  0
   12.6741   -2.3957   22.8239 C   0  0  0  0  0  0  0  0  0  0  0  0
   14.4237   -1.2748   24.0566 C   0  0  0  0  0  0  0  0  0  0  0  0
   11.8168   -1.3220   23.0644 C   0  0  0  0  0  0  0  0  0  0  0  0
   13.5663   -0.2011   24.2971 C   0  0  0  0  0  0  0  0  0  0  0  0
   12.2629   -0.2247   23.8010 C   0  0  0  0  0  0  0  0  0  0  0  0
    6.4335    0.5412   18.9894 C   0  0  0  0  0  0  0  0  0  0  0  0
    9.6884   -0.0859   20.3406 C   0  0  0  0  0  0  0  0  0  0  0  0
    8.6827    1.9328   21.4751 C   0  0  0  0  0  0  0  0  0  0  0  0
    8.2794   -0.6401   20.1389 C   0  0  0  0  0  0  0  0  0  0  0  0
    7.2934    1.3375   21.2477 C   0  0  0  0  0  0  0  0  0  0  0  0
    9.7349    0.8276   21.5651 C   0  0  0  0  0  0  0  0  0  0  0  0
    5.0785    1.1494   19.2498 C   0  0  0  0  0  0  0  0  0  0  0  0
   11.3407    0.9314   24.0601 C   0  0  0  0  0  0  0  0  0  0  0  0
   11.3983    2.0177   22.9909 C   0  0  0  0  0  0  0  0  0  0  0  0
    7.2950    0.4438   20.0816 N   0  0  0  0  0  0  0  0  0  0  0  0
   11.0824    1.4474   21.6565 N   0  3  0  0  0  0  0  0  0  0  0  0
    6.7166    0.1665   17.8486 O   0  0  0  0  0  0  0  0  0  0  0  0
   11.7898    0.7433   21.4113 H   0  0  0  0  0  0  0  0  0  0  0  0
   11.1582    2.1849   20.9445 H   0  0  0  0  0  0  0  0  0  0  0  0
  1  2  1  0  0  0  0
  1  3  2  0  0  0  0
  2  4  2  0  0  0  0
  3  5  1  0  0  0  0
  4  6  1  0  0  0  0
  5  6  2  0  0  0  0
  6 14  1  0  0  0  0
  7 13  1  0  0  0  0
  7 16  1  0  0  0  0
  7 18  2  0  0  0  0
  8 10  1  0  0  0  0
  8 12  1  0  0  0  0
  9 11  1  0  0  0  0
  9 12  1  0  0  0  0
 10 16  1  0  0  0  0
 11 16  1  0  0  0  0
 12 17  1  0  0  0  0
 14 15  1  0  0  0  0
 15 17  1  0  0  0  0
 17 19  1  0  0  0  0
 17 20  1  0  0  0  0
M  CHG  1  17   1
M  END
> <ref_mols>
x0494_0

> <original SMILES>
CC(=O)N1CCC(CC1)NCCC=2C=CC=CC2

> <Chemgauss4>
-9.992181

> <ref_pdb>
x0678_0

$$$$
x2881
  -OEChem-05172015543D

 19 20  0     0  0  0  0  0  0999 V2000
   13.1395    0.0425   24.3111 C   0  0  0  0  0  0  0  0  0  0  0  0
   11.8038   -0.0746   24.6955 C   0  0  0  0  0  0  0  0  0  0  0  0
   13.9813   -1.0684   24.3668 C   0  0  0  0  0  0  0  0  0  0  0  0
    7.4765   -6.1084   22.3350 C   0  0  0  0  0  0  0  0  0  0  0  0
   11.3098   -1.3026   25.1356 C   0  0  0  0  0  0  0  0  0  0  0  0
   13.4873   -2.2963   24.8070 C   0  0  0  0  0  0  0  0  0  0  0  0
    8.5381   -5.6030   23.0855 C   0  0  0  0  0  0  0  0  0  0  0  0
    6.7138   -5.2520   21.5409 C   0  0  0  0  0  0  0  0  0  0  0  0
    8.0741   -3.3848   22.2479 C   0  0  0  0  0  0  0  0  0  0  0  0
   12.1516   -2.4135   25.1914 C   0  0  0  0  0  0  0  0  0  0  0  0
    8.8369   -4.2412   23.0420 C   0  0  0  0  0  0  0  0  0  0  0  0
    7.0126   -3.8902   21.4974 C   0  0  0  0  0  0  0  0  0  0  0  0
    9.9585   -3.7081   23.8352 C   0  0  0  0  0  0  0  0  0  0  0  0
   10.5018   -4.3260   24.8943 C   0  0  0  0  0  0  0  0  0  0  0  0
   11.6365   -3.6937   25.6504 C   0  0  0  0  0  0  0  0  0  0  0  0
    6.2356   -3.0190   20.6888 N   0  0  0  0  0  0  0  0  0  0  0  0
   12.1377   -4.2672   26.6294 O   0  0  0  0  0  0  0  0  0  0  0  0
    5.2852   -3.4947   20.0218 O   0  0  0  0  0  0  0  0  0  0  0  0
    6.5204   -1.7972   20.6638 O   0  0  0  0  0  0  0  0  0  0  0  0
  1  2  1  0  0  0  0
  1  3  2  0  0  0  0
  2  5  2  0  0  0  0
  3  6  1  0  0  0  0
  4  7  2  0  0  0  0
  4  8  1  0  0  0  0
  5 10  1  0  0  0  0
  6 10  2  0  0  0  0
  7 11  1  0  0  0  0
  8 12  2  0  0  0  0
  9 11  2  0  0  0  0
  9 12  1  0  0  0  0
 10 15  1  0  0  0  0
 11 13  1  0  0  0  0
 12 16  1  0  0  0  0
 13 14  2  0  0  0  0
 14 15  1  0  0  0  0
 15 17  2  0  0  0  0
 16 18  2  0  0  0  0
 16 19  2  0  0  0  0
M  END
> <ref_mols>
x2881_0

> <original SMILES>
O=C(/C=C/c1cccc(N(=O)=O)c1)c2ccccc2

> <Chemgauss4>
-9.984150

> <ref_pdb>
x0749_0

$$$$
x2877
  -OEChem-05172015543D

 18 19  0     0  0  0  0  0  0999 V2000
    9.4838   -2.0776   22.6291 C   0  0  0  0  0  0  0  0  0  0  0  0
    9.3566   -4.1120   23.9259 C   0  0  0  0  0  0  0  0  0  0  0  0
    7.6452   -3.6093   22.2964 C   0  0  0  0  0  0  0  0  0  0  0  0
   10.0118   -2.9233   23.6046 C   0  0  0  0  0  0  0  0  0  0  0  0
    8.3004   -2.4206   21.9750 C   0  0  0  0  0  0  0  0  0  0  0  0
    8.1733   -4.4550   23.2719 C   0  0  0  0  0  0  0  0  0  0  0  0
    7.4203    0.0597   18.7950 C   0  0  0  0  0  0  0  0  0  0  0  0
    6.3839   -0.6168   19.3002 C   0  0  0  0  0  0  0  0  0  0  0  0
    6.6052   -1.7512   20.2432 C   0  0  0  0  0  0  0  0  0  0  0  0
   12.9787   -1.2926   25.1695 C   0  0  0  0  0  0  0  0  0  0  0  0
   13.2370   -2.7548   25.4712 C   0  0  0  0  0  0  0  0  0  0  0  0
   11.9844   -1.3575   24.0159 C   0  0  0  0  0  0  0  0  0  0  0  0
   11.8571   -3.3814   25.3068 C   0  0  0  0  0  0  0  0  0  0  0  0
   11.2060   -2.5771   24.2652 N   0  0  0  0  0  0  0  0  0  0  0  0
    7.7723   -1.5746   20.9990 N   0  0  0  0  0  0  0  0  0  0  0  0
    5.8228   -2.6926   20.2995 O   0  0  0  0  0  0  0  0  0  0  0  0
    7.5445   -5.5971   23.5793 F   0  0  0  0  0  0  0  0  0  0  0  0
    8.3045   -0.7165   20.8112 H   0  0  0  0  0  0  0  0  0  0  0  0
  1  4  1  0  0  0  0
  1  5  2  0  0  0  0
  2  4  2  0  0  0  0
  2  6  1  0  0  0  0
  3  5  1  0  0  0  0
  3  6  2  0  0  0  0
  4 14  1  0  0  0  0
  5 15  1  0  0  0  0
  6 17  1  0  0  0  0
  7  8  2  0  0  0  0
  8  9  1  0  0  0  0
  9 15  1  0  0  0  0
  9 16  2  0  0  0  0
 10 11  1  0  0  0  0
 10 12  1  0  0  0  0
 11 13  1  0  0  0  0
 12 14  1  0  0  0  0
 13 14  1  0  0  0  0
 15 18  1  0  0  0  0
M  END
> <ref_mols>
x2877_0

> <original SMILES>
C=CC(Nc1cc(F)cc(N2CCCC2)c1)=O

> <Chemgauss4>
-9.966409

> <ref_pdb>
x0749_0

$$$$
x0149
  -OEChem-05172015543D

 18 19  0     0  0  0  0  0  0999 V2000
   10.5448   -4.2655   24.4870 C   0  0  0  0  0  0  0  0  0  0  0  0
   10.8448   -1.9886   23.7367 C   0  0  0  0  0  0  0  0  0  0  0  0
   11.6577   -4.1383   25.3182 C   0  0  0  0  0  0  0  0  0  0  0  0
   11.9577   -1.8614   24.5680 C   0  0  0  0  0  0  0  0  0  0  0  0
   10.1383   -3.1907   23.6962 C   0  0  0  0  0  0  0  0  0  0  0  0
   12.3641   -2.9362   25.3587 C   0  0  0  0  0  0  0  0  0  0  0  0
    8.9692   -3.3241   22.8232 C   0  0  0  0  0  0  0  0  0  0  0  0
    7.1753   -4.6045   23.9125 C   0  0  0  0  0  0  0  0  0  0  0  0
    7.6425   -4.8681   21.4459 C   0  0  0  0  0  0  0  0  0  0  0  0
    6.2823   -5.8355   23.8653 C   0  0  0  0  0  0  0  0  0  0  0  0
    6.7461   -6.0973   21.4171 C   0  0  0  0  0  0  0  0  0  0  0  0
    8.2493   -4.6589   22.8300 C   0  0  0  0  0  0  0  0  0  0  0  0
   14.1258   -1.5551   26.1618 C   0  0  0  0  0  0  0  0  0  0  0  0
    5.7140   -5.9780   22.4908 N   0  3  0  0  0  0  0  0  0  0  0  0
    8.5427   -2.4369   22.0914 O   0  0  0  0  0  0  0  0  0  0  0  0
   13.4501   -2.8118   26.1695 O   0  0  0  0  0  0  0  0  0  0  0  0
    5.0889   -6.7964   22.4597 H   0  0  0  0  0  0  0  0  0  0  0  0
    5.1141   -5.1655   22.2900 H   0  0  0  0  0  0  0  0  0  0  0  0
  1  3  2  0  0  0  0
  1  5  1  0  0  0  0
  2  4  1  0  0  0  0
  2  5  2  0  0  0  0
  3  6  1  0  0  0  0
  4  6  2  0  0  0  0
  5  7  1  0  0  0  0
  6 16  1  0  0  0  0
  7 12  1  0  0  0  0
  7 15  2  0  0  0  0
  8 10  1  0  0  0  0
  8 12  1  0  0  0  0
  9 11  1  0  0  0  0
  9 12  1  0  0  0  0
 10 14  1  0  0  0  0
 11 14  1  0  0  0  0
 13 16  1  0  0  0  0
 14 17  1  0  0  0  0
 14 18  1  0  0  0  0
M  CHG  1  14   1
M  END
> <ref_mols>
x0149_0

> <original SMILES>
COC=1C=CC(=CC1)C(=O)C2CCNCC2

> <Chemgauss4>
-9.966073

> <ref_pdb>
x0749_0

$$$$
x2597
  -OEChem-05172015543D

 29 31  0     1  0  0  0  0  0999 V2000
   14.3219   -2.0217   22.5867 C   0  0  0  0  0  0  0  0  0  0  0  0
   14.3629   -1.8628   23.9718 C   0  0  0  0  0  0  0  0  0  0  0  0
    7.5746    3.3635   25.7215 C   0  0  0  0  0  0  0  0  0  0  0  0
    8.8436    3.3386   26.2998 C   0  0  0  0  0  0  0  0  0  0  0  0
    4.9793    1.4022   18.1941 C   0  0  0  0  0  0  0  0  0  0  0  0
   13.4952   -1.2050   21.8151 C   0  0  0  0  0  0  0  0  0  0  0  0
   13.5772   -0.8873   24.5855 C   0  0  0  0  0  0  0  0  0  0  0  0
    5.3388    0.9951   19.4741 C   0  0  0  0  0  0  0  0  0  0  0  0
    7.2804    2.5218   24.6487 C   0  0  0  0  0  0  0  0  0  0  0  0
    9.8185    2.4722   25.8054 C   0  0  0  0  0  0  0  0  0  0  0  0
    5.8614    1.1395   17.1584 C   0  0  0  0  0  0  0  0  0  0  0  0
    7.3637    0.1313   18.5743 C   0  0  0  0  0  0  0  0  0  0  0  0
    6.5521    0.3469   19.6764 C   0  0  0  0  0  0  0  0  0  0  0  0
   12.7094   -0.2295   22.4288 C   0  0  0  0  0  0  0  0  0  0  0  0
   12.7504   -0.0706   23.8140 C   0  0  0  0  0  0  0  0  0  0  0  0
    8.2553    1.6554   24.1543 C   0  0  0  0  0  0  0  0  0  0  0  0
    9.5244    1.6305   24.7326 C   0  0  0  0  0  0  0  0  0  0  0  0
    7.0283    1.0587   22.0382 C   0  0  0  0  0  0  0  0  0  0  0  0
   11.8327    0.6343   21.5826 C   0  0  0  0  0  0  0  0  0  0  0  0
   11.9176    0.9665   24.4935 C   0  0  0  0  0  0  0  0  0  0  0  0
    6.9712   -0.1083   21.0550 C   0  0  1  0  0  0  0  0  0  0  0  0
    7.0486    0.5123   17.3160 N   0  0  0  0  0  0  0  0  0  0  0  0
    7.9376    0.8211   23.0785 N   0  0  0  0  0  0  0  0  0  0  0  0
   10.5099    0.7777   24.2558 N   0  0  0  0  0  0  0  0  0  0  0  0
    6.3250    2.0537   21.8885 O   0  0  0  0  0  0  0  0  0  0  0  0
    6.0409   -1.0757   21.5191 O   0  0  0  0  0  0  0  0  0  0  0  0
    8.4326   -0.0759   23.0425 H   0  0  0  0  0  0  0  0  0  0  0  0
   10.2182   -0.0252   23.7063 H   0  0  0  0  0  0  0  0  0  0  0  0
    5.1723   -0.6419   21.5432 H   0  0  0  0  0  0  0  0  0  0  0  0
  1  2  1  0  0  0  0
  1  6  2  0  0  0  0
  2  7  2  0  0  0  0
  3  4  1  0  0  0  0
  3  9  2  0  0  0  0
  4 10  2  0  0  0  0
  5  8  2  0  0  0  0
  5 11  1  0  0  0  0
  6 14  1  0  0  0  0
  7 15  1  0  0  0  0
  8 13  1  0  0  0  0
  9 16  1  0  0  0  0
 10 17  1  0  0  0  0
 11 22  2  0  0  0  0
 12 13  2  0  0  0  0
 12 22  1  0  0  0  0
 13 21  1  0  0  0  0
 14 15  2  0  0  0  0
 14 19  1  0  0  0  0
 15 20  1  0  0  0  0
 16 17  2  0  0  0  0
 16 23  1  0  0  0  0
 17 24  1  0  0  0  0
 18 21  1  0  0  0  0
 18 23  1  0  0  0  0
 18 25  2  0  0  0  0
 20 24  1  0  0  0  0
 21 26  1  0  0  0  0
 23 27  1  0  0  0  0
 24 28  1  0  0  0  0
 26 29  1  0  0  0  0
M  END
> <ref_mols>
x2597_0

> <original SMILES>
CC=1C=CC=CC1CNC=2C=CC=CC2NC(=O)C(O)C=3C=CC=NC3

> <Chemgauss4>
-9.960861

> <ref_pdb>
x0678_0

$$$$
x0288
  -OEChem-05172015543D

 18 19  0     1  0  0  0  0  0999 V2000
   14.1237   -1.2098   23.7079 C   0  0  0  0  0  0  0  0  0  0  0  0
   13.1416   -0.3874   24.2598 C   0  0  0  0  0  0  0  0  0  0  0  0
   14.0938   -1.5155   22.3473 C   0  0  0  0  0  0  0  0  0  0  0  0
   12.1294    0.1293   23.4511 C   0  0  0  0  0  0  0  0  0  0  0  0
   13.0816   -0.9987   21.5385 C   0  0  0  0  0  0  0  0  0  0  0  0
   12.0993   -0.1763   22.0904 C   0  0  0  0  0  0  0  0  0  0  0  0
    7.4260    0.5468   18.6476 C   0  0  0  0  0  0  0  0  0  0  0  0
    8.8619   -0.1393   19.9693 C   0  0  0  0  0  0  0  0  0  0  0  0
    6.2234    1.2119   18.1338 C   0  0  0  0  0  0  0  0  0  0  0  0
    9.7567   -0.5203   21.1257 C   0  0  0  0  0  0  0  0  0  0  0  0
   11.0172    0.3757   21.2251 C   0  0  1  0  0  0  0  0  0  0  0  0
    7.7490    0.5499   19.9734 N   0  0  0  0  0  0  0  0  0  0  0  0
    8.2745   -0.1018   17.8444 N   0  0  0  0  0  0  0  0  0  0  0  0
   10.5466    1.7371   21.6720 N   0  3  0  0  0  0  0  0  0  0  0  0
    9.2473   -0.5667   18.7383 O   0  0  0  0  0  0  0  0  0  0  0  0
    9.5393    1.8078   21.5511 H   0  0  0  0  0  0  0  0  0  0  0  0
   11.0031    2.4560   21.1157 H   0  0  0  0  0  0  0  0  0  0  0  0
   10.7778    1.8741   22.6530 H   0  0  0  0  0  0  0  0  0  0  0  0
  1  2  1  0  0  0  0
  1  3  2  0  0  0  0
  2  4  2  0  0  0  0
  3  5  1  0  0  0  0
  4  6  1  0  0  0  0
  5  6  2  0  0  0  0
  6 11  1  0  0  0  0
  7  9  1  0  0  0  0
  7 12  1  0  0  0  0
  7 13  2  0  0  0  0
  8 10  1  0  0  0  0
  8 12  2  0  0  0  0
  8 15  1  0  0  0  0
 10 11  1  0  0  0  0
 11 14  1  0  0  0  0
 13 15  1  0  0  0  0
 14 16  1  0  0  0  0
 14 17  1  0  0  0  0
 14 18  1  0  0  0  0
M  CHG  1  14   1
M  END
> <ref_mols>
x0288_0

> <original SMILES>
CC1=NOC(CC(N)C=2C=CC=CC2)=N1

> <Chemgauss4>
-9.955351

> <ref_pdb>
x0678_0

$$$$
x1140
  -OEChem-05172015543D

 18 19  0     1  0  0  0  0  0999 V2000
   14.1237   -1.2098   23.7079 C   0  0  0  0  0  0  0  0  0  0  0  0
   13.1416   -0.3874   24.2598 C   0  0  0  0  0  0  0  0  0  0  0  0
   14.0938   -1.5155   22.3473 C   0  0  0  0  0  0  0  0  0  0  0  0
   12.1294    0.1293   23.4511 C   0  0  0  0  0  0  0  0  0  0  0  0
   13.0816   -0.9987   21.5385 C   0  0  0  0  0  0  0  0  0  0  0  0
   12.0993   -0.1763   22.0904 C   0  0  0  0  0  0  0  0  0  0  0  0
    7.4260    0.5468   18.6476 C   0  0  0  0  0  0  0  0  0  0  0  0
    8.8619   -0.1393   19.9693 C   0  0  0  0  0  0  0  0  0  0  0  0
    6.2234    1.2119   18.1338 C   0  0  0  0  0  0  0  0  0  0  0  0
    9.7567   -0.5203   21.1257 C   0  0  0  0  0  0  0  0  0  0  0  0
   11.0172    0.3757   21.2251 C   0  0  1  0  0  0  0  0  0  0  0  0
    7.7490    0.5499   19.9734 N   0  0  0  0  0  0  0  0  0  0  0  0
    8.2745   -0.1018   17.8444 N   0  0  0  0  0  0  0  0  0  0  0  0
   10.5466    1.7371   21.6720 N   0  3  0  0  0  0  0  0  0  0  0  0
    9.2473   -0.5667   18.7383 O   0  0  0  0  0  0  0  0  0  0  0  0
    9.5393    1.8078   21.5511 H   0  0  0  0  0  0  0  0  0  0  0  0
   11.0031    2.4560   21.1157 H   0  0  0  0  0  0  0  0  0  0  0  0
   10.7778    1.8741   22.6530 H   0  0  0  0  0  0  0  0  0  0  0  0
  1  2  1  0  0  0  0
  1  3  2  0  0  0  0
  2  4  2  0  0  0  0
  3  5  1  0  0  0  0
  4  6  1  0  0  0  0
  5  6  2  0  0  0  0
  6 11  1  0  0  0  0
  7  9  1  0  0  0  0
  7 12  1  0  0  0  0
  7 13  2  0  0  0  0
  8 10  1  0  0  0  0
  8 12  2  0  0  0  0
  8 15  1  0  0  0  0
 10 11  1  0  0  0  0
 11 14  1  0  0  0  0
 13 15  1  0  0  0  0
 14 16  1  0  0  0  0
 14 17  1  0  0  0  0
 14 18  1  0  0  0  0
M  CHG  1  14   1
M  END
> <ref_mols>
x1140_0

> <original SMILES>
CC1=NOC(CC(N)C=2C=CC=CC2)=N1

> <Chemgauss4>
-9.955351

> <ref_pdb>
x0678_0

$$$$
x0461
  -OEChem-05172015543D

 19 20  0     0  0  0  0  0  0999 V2000
    8.4664   -0.4894   21.8724 C   0  0  0  0  0  0  0  0  0  0  0  0
    9.4779    0.2037   21.2411 C   0  0  0  0  0  0  0  0  0  0  0  0
    7.9923    0.2469   19.6284 C   0  0  0  0  0  0  0  0  0  0  0  0
   13.5297    0.2990   23.4535 C   0  0  0  0  0  0  0  0  0  0  0  0
   12.9064   -1.8215   22.2324 C   0  0  0  0  0  0  0  0  0  0  0  0
   12.1092    0.3962   23.9956 C   0  0  0  0  0  0  0  0  0  0  0  0
   11.4893   -1.7128   22.7815 C   0  0  0  0  0  0  0  0  0  0  0  0
   13.9533   -1.1382   23.1223 C   0  0  0  0  0  0  0  0  0  0  0  0
    7.3518    0.5200   18.3234 C   0  0  0  0  0  0  0  0  0  0  0  0
   10.8193    0.5265   21.8307 C   0  0  0  0  0  0  0  0  0  0  0  0
   14.2324   -1.9502   24.3905 C   0  0  0  0  0  0  0  0  0  0  0  0
    9.2080    0.6263   19.9542 N   0  0  0  0  0  0  0  0  0  0  0  0
   11.1291   -0.2758   23.0662 N   0  3  0  0  0  0  0  0  0  0  0  0
   15.5986   -1.6419   24.8594 N   0  3  0  0  0  0  0  0  0  0  0  0
    7.1171   -0.6216   20.8220 S   0  0  0  0  0  0  0  0  0  0  0  0
   10.2127   -0.3154   23.6028 H   0  0  0  0  0  0  0  0  0  0  0  0
   15.7035   -0.6418   25.0725 H   0  0  0  0  0  0  0  0  0  0  0  0
   16.3004   -1.8831   24.1479 H   0  0  0  0  0  0  0  0  0  0  0  0
   15.8279   -2.1672   25.7128 H   0  0  0  0  0  0  0  0  0  0  0  0
  1  2  2  0  0  0  0
  1 15  1  0  0  0  0
  2 10  1  0  0  0  0
  2 12  1  0  0  0  0
  3  9  1  0  0  0  0
  3 12  2  0  0  0  0
  3 15  1  0  0  0  0
  4  6  1  0  0  0  0
  4  8  1  0  0  0  0
  5  7  1  0  0  0  0
  5  8  1  0  0  0  0
  6 13  1  0  0  0  0
  7 13  1  0  0  0  0
  8 11  1  0  0  0  0
 10 13  1  0  0  0  0
 11 14  1  0  0  0  0
 13 16  1  0  0  0  0
 14 17  1  0  0  0  0
 14 18  1  0  0  0  0
 14 19  1  0  0  0  0
M  CHG  2  13   1  14   1
M  END
> <ref_mols>
x0461_0

> <original SMILES>
CC1=NC(CN2CCC(CN)CC2)=CS1

> <Chemgauss4>
-9.916791

> <ref_pdb>
x0678_0

$$$$
x0442
  -OEChem-05172015543D

 17 18  0     0  0  0  0  0  0999 V2000
   10.1204   -1.4797   24.7387 C   0  0  0  0  0  0  0  0  0  0  0  0
   10.8617   -0.2708   24.5999 C   0  0  0  0  0  0  0  0  0  0  0  0
   10.3852   -2.3688   23.7205 C   0  0  0  0  0  0  0  0  0  0  0  0
   11.6650   -0.2821   23.4807 C   0  0  0  0  0  0  0  0  0  0  0  0
   12.5679    0.7536   22.9928 C   0  0  0  0  0  0  0  0  0  0  0  0
   10.5847    2.3564   22.7917 C   0  0  0  0  0  0  0  0  0  0  0  0
   12.8430    3.0527   22.1058 C   0  0  0  0  0  0  0  0  0  0  0  0
   10.4150    3.6269   23.6118 C   0  0  0  0  0  0  0  0  0  0  0  0
   12.7114    4.3412   22.9062 C   0  0  0  0  0  0  0  0  0  0  0  0
   11.9283    6.0442   24.9464 C   0  0  0  0  0  0  0  0  0  0  0  0
    9.5835    6.2010   24.0236 C   0  0  0  0  0  0  0  0  0  0  0  0
   11.0597    6.0386   23.6987 C   0  0  0  0  0  0  0  0  0  0  0  0
   12.0048    1.9999   22.6789 N   0  0  0  0  0  0  0  0  0  0  0  0
   11.2505    4.7265   22.9912 N   0  3  0  0  0  0  0  0  0  0  0  0
   13.7672    0.5011   22.8817 O   0  0  0  0  0  0  0  0  0  0  0  0
   11.5235   -1.7457   22.6032 S   0  0  0  0  0  0  0  0  0  0  0  0
   10.9135    4.8610   22.0280 H   0  0  0  0  0  0  0  0  0  0  0  0
  1  2  1  0  0  0  0
  1  3  2  0  0  0  0
  2  4  2  0  0  0  0
  3 16  1  0  0  0  0
  4  5  1  0  0  0  0
  4 16  1  0  0  0  0
  5 13  1  0  0  0  0
  5 15  2  0  0  0  0
  6  8  1  0  0  0  0
  6 13  1  0  0  0  0
  7  9  1  0  0  0  0
  7 13  1  0  0  0  0
  8 14  1  0  0  0  0
  9 14  1  0  0  0  0
 10 12  1  0  0  0  0
 11 12  1  0  0  0  0
 12 14  1  0  0  0  0
 14 17  1  0  0  0  0
M  CHG  1  14   1
M  END
> <ref_mols>
x0442_0

> <original SMILES>
CC(C)N1CCN(CC1)C(=O)C2=CC=CS2

> <Chemgauss4>
-9.915393

> <ref_pdb>
x0104_0

$$$$
x2829
  -OEChem-05172015543D

 25 27  0     1  0  0  0  0  0999 V2000
   13.9624   -1.7675   22.6262 C   0  0  0  0  0  0  0  0  0  0  0  0
   14.2295   -0.3995   22.6794 C   0  0  0  0  0  0  0  0  0  0  0  0
   12.6468   -2.2173   22.5137 C   0  0  0  0  0  0  0  0  0  0  0  0
   11.8656    0.0688   22.5077 C   0  0  0  0  0  0  0  0  0  0  0  0
   10.8070    7.1472   24.6127 C   0  0  0  0  0  0  0  0  0  0  0  0
   12.0200    6.7823   25.1538 C   0  0  0  0  0  0  0  0  0  0  0  0
   11.1506    5.7062   22.8705 C   0  0  0  0  0  0  0  0  0  0  0  0
   13.1811    0.5187   22.6201 C   0  0  0  0  0  0  0  0  0  0  0  0
   11.5984   -1.2992   22.4544 C   0  0  0  0  0  0  0  0  0  0  0  0
   12.3640    5.3418   23.4112 C   0  0  0  0  0  0  0  0  0  0  0  0
    8.1009   -2.3136   24.5565 C   0  0  0  0  0  0  0  0  0  0  0  0
   12.5358    2.9540   22.6322 C   0  0  0  0  0  0  0  0  0  0  0  0
    9.5641   -1.8833   24.7478 C   0  0  0  0  0  0  0  0  0  0  0  0
    9.8229   -2.5745   23.3909 C   0  0  1  0  0  0  0  0  0  0  0  0
   13.6734    4.8064   21.3340 C   0  0  0  0  0  0  0  0  0  0  0  0
   13.2392    4.3137   22.7169 C   0  0  1  0  0  0  0  0  0  0  0  0
   10.3504    6.6157   23.4613 N   0  0  0  0  0  0  0  0  0  0  0  0
   12.8203    5.8731   24.5628 N   0  0  0  0  0  0  0  0  0  0  0  0
    8.3985   -2.8833   23.3597 N   0  0  0  0  0  0  0  0  0  0  0  0
   13.4489    1.8870   22.6731 N   0  0  0  0  0  0  0  0  0  0  0  0
    7.0692   -2.2123   25.1792 O   0  0  0  0  0  0  0  0  0  0  0  0
   11.3143    2.8657   22.5467 O   0  0  0  0  0  0  0  0  0  0  0  0
   10.3146   -1.7381   22.3448 O   0  0  0  0  0  0  0  0  0  0  0  0
    7.8065   -3.3726   22.7027 H   0  0  0  0  0  0  0  0  0  0  0  0
   14.4369    2.1521   22.7557 H   0  0  0  0  0  0  0  0  0  0  0  0
  1  2  2  0  0  0  0
  1  3  1  0  0  0  0
  2  8  1  0  0  0  0
  3  9  2  0  0  0  0
  4  8  2  0  0  0  0
  4  9  1  0  0  0  0
  5  6  2  0  0  0  0
  5 17  1  0  0  0  0
  6 18  1  0  0  0  0
  7 10  1  0  0  0  0
  7 17  2  0  0  0  0
  8 20  1  0  0  0  0
  9 23  1  0  0  0  0
 10 16  1  0  0  0  0
 10 18  2  0  0  0  0
 11 13  1  0  0  0  0
 11 19  1  0  0  0  0
 11 21  2  0  0  0  0
 12 16  1  0  0  0  0
 12 20  1  0  0  0  0
 12 22  2  0  0  0  0
 13 14  1  0  0  0  0
 14 19  1  0  0  0  0
 14 23  1  0  0  0  0
 15 16  1  0  0  0  0
 19 24  1  0  0  0  0
 20 25  1  0  0  0  0
M  END
> <ref_mols>
x2829_0

> <original SMILES>
CC(C(=O)NC=1C=CC=C(OC2CC(=O)N2)C1)C=3C=NC=CN3

> <Chemgauss4>
-9.905735

> <ref_pdb>
x0195_0

$$$$
x2858
  -OEChem-05172015543D

 27 29  0     0  0  0  0  0  0999 V2000
   13.4852    4.7785   22.0382 C   0  0  0  0  0  0  0  0  0  0  0  0
   13.8889   -2.4702   24.2324 C   0  0  0  0  0  0  0  0  0  0  0  0
   13.3802    3.4826   22.5433 C   0  0  0  0  0  0  0  0  0  0  0  0
   12.6574   -3.1185   24.3262 C   0  0  0  0  0  0  0  0  0  0  0  0
   12.4453    5.6882   22.2300 C   0  0  0  0  0  0  0  0  0  0  0  0
   13.9501   -1.1505   23.7847 C   0  0  0  0  0  0  0  0  0  0  0  0
   11.1952    4.0059   23.4317 C   0  0  0  0  0  0  0  0  0  0  0  0
   11.5483   -1.1274   23.5246 C   0  0  0  0  0  0  0  0  0  0  0  0
   12.2352    3.0963   23.2400 C   0  0  0  0  0  0  0  0  0  0  0  0
   11.4871   -2.4471   23.9723 C   0  0  0  0  0  0  0  0  0  0  0  0
   11.3003    5.3019   22.9267 C   0  0  0  0  0  0  0  0  0  0  0  0
   12.7798   -0.4791   23.4308 C   0  0  0  0  0  0  0  0  0  0  0  0
    8.9669   -2.5696   23.7502 C   0  0  0  0  0  0  0  0  0  0  0  0
   12.1231    1.7163   23.7777 C   0  0  0  0  0  0  0  0  0  0  0  0
    7.9300   -3.6092   24.1106 C   0  0  0  0  0  0  0  0  0  0  0  0
    8.7258   -4.8983   24.1522 C   0  0  0  0  0  0  0  0  0  0  0  0
   10.0979   -4.4494   24.6097 C   0  0  0  0  0  0  0  0  0  0  0  0
   11.2531    8.0752   24.7926 C   0  0  0  0  0  0  0  0  0  0  0  0
   10.2280   -3.1103   24.0686 N   0  0  0  0  0  0  0  0  0  0  0  0
   10.2366    6.2341   23.1223 N   0  0  0  0  0  0  0  0  0  0  0  0
    8.6686   -1.4640   23.3226 O   0  0  0  0  0  0  0  0  0  0  0  0
   11.4866    1.4400   24.7835 O   0  0  0  0  0  0  0  0  0  0  0  0
    8.7054    7.5535   24.7240 O   0  0  0  0  0  0  0  0  0  0  0  0
   10.2605    5.8341   25.7090 O   0  0  0  0  0  0  0  0  0  0  0  0
   12.8395    0.8086   22.9937 O   0  0  0  0  0  0  0  0  0  0  0  0
    9.9713    6.8444   24.7107 S   0  0  0  0  0  0  0  0  0  0  0  0
   10.1456    6.9375   22.3707 H   0  0  0  0  0  0  0  0  0  0  0  0
  1  3  1  0  0  0  0
  1  5  2  0  0  0  0
  2  4  1  0  0  0  0
  2  6  2  0  0  0  0
  3  9  2  0  0  0  0
  4 10  2  0  0  0  0
  5 11  1  0  0  0  0
  6 12  1  0  0  0  0
  7  9  1  0  0  0  0
  7 11  2  0  0  0  0
  8 10  1  0  0  0  0
  8 12  2  0  0  0  0
  9 14  1  0  0  0  0
 10 19  1  0  0  0  0
 11 20  1  0  0  0  0
 12 25  1  0  0  0  0
 13 15  1  0  0  0  0
 13 19  1  0  0  0  0
 13 21  2  0  0  0  0
 14 22  2  0  0  0  0
 14 25  1  0  0  0  0
 15 16  1  0  0  0  0
 16 17  1  0  0  0  0
 17 19  1  0  0  0  0
 18 26  1  0  0  0  0
 20 26  1  0  0  0  0
 23 26  2  0  0  0  0
 24 26  2  0  0  0  0
 20 27  1  0  0  0  0
M  END
> <ref_mols>
x2858_0

> <original SMILES>
CS(=O)(=O)NC=1C=CC=C(C1)C(=O)OC=2C=CC=C(C2)N3CCCC3=O

> <Chemgauss4>
-9.903871

> <ref_pdb>
x0161_0

$$$$
x0505
  -OEChem-05172015543D

 17 19  0     0  0  0  0  0  0999 V2000
   13.4376   -1.2048   25.8096 C   0  0  0  0  0  0  0  0  0  0  0  0
   13.3320   -2.4681   26.3959 C   0  0  0  0  0  0  0  0  0  0  0  0
    7.4753   -4.5867   24.4418 C   0  0  0  0  0  0  0  0  0  0  0  0
    8.5635   -5.9186   22.7451 C   0  0  0  0  0  0  0  0  0  0  0  0
   12.5689   -0.8104   24.7842 C   0  0  0  0  0  0  0  0  0  0  0  0
   12.3574   -3.3817   25.9810 C   0  0  0  0  0  0  0  0  0  0  0  0
    6.2451   -4.7991   23.8196 C   0  0  0  0  0  0  0  0  0  0  0  0
    7.3333   -6.1311   22.1229 C   0  0  0  0  0  0  0  0  0  0  0  0
    9.9659   -2.7184   23.3871 C   0  0  0  0  0  0  0  0  0  0  0  0
    8.6345   -5.1464   23.9045 C   0  0  0  0  0  0  0  0  0  0  0  0
   11.5839   -1.7158   24.3548 C   0  0  0  0  0  0  0  0  0  0  0  0
   11.5033   -2.9675   24.9584 C   0  0  0  0  0  0  0  0  0  0  0  0
    6.1741   -5.5713   22.6602 C   0  0  0  0  0  0  0  0  0  0  0  0
    9.9619   -4.9183   24.5757 C   0  0  0  0  0  0  0  0  0  0  0  0
   10.6209   -1.5791   23.3814 N   0  0  0  0  0  0  0  0  0  0  0  0
   10.4599   -3.5873   24.3199 N   0  0  0  0  0  0  0  0  0  0  0  0
    4.9924   -5.7776   22.0641 F   0  0  0  0  0  0  0  0  0  0  0  0
  1  2  1  0  0  0  0
  1  5  2  0  0  0  0
  2  6  2  0  0  0  0
  3  7  2  0  0  0  0
  3 10  1  0  0  0  0
  4  8  1  0  0  0  0
  4 10  2  0  0  0  0
  5 11  1  0  0  0  0
  6 12  1  0  0  0  0
  7 13  1  0  0  0  0
  8 13  2  0  0  0  0
  9 15  2  0  0  0  0
  9 16  1  0  0  0  0
 10 14  1  0  0  0  0
 11 12  2  0  0  0  0
 11 15  1  0  0  0  0
 12 16  1  0  0  0  0
 13 17  1  0  0  0  0
 14 16  1  0  0  0  0
M  END
> <ref_mols>
x0505_0

> <original SMILES>
FC=1C=CC(CN2C=NC=3C=CC=CC23)=CC1

> <Chemgauss4>
-9.898929

> <ref_pdb>
x0749_0

$$$$
x0414
  -OEChem-05172015543D

 18 19  0     0  0  0  0  0  0999 V2000
   13.8481   -1.8930   22.3923 C   0  0  0  0  0  0  0  0  0  0  0  0
   12.8156   -1.7720   21.4625 C   0  0  0  0  0  0  0  0  0  0  0  0
   13.7759   -1.2116   23.6074 C   0  0  0  0  0  0  0  0  0  0  0  0
   11.7108   -0.9695   21.7475 C   0  0  0  0  0  0  0  0  0  0  0  0
   12.6712   -0.4092   23.8924 C   0  0  0  0  0  0  0  0  0  0  0  0
   11.6386   -0.2881   22.9625 C   0  0  0  0  0  0  0  0  0  0  0  0
    6.8618   -0.0597   18.4343 C   0  0  0  0  0  0  0  0  0  0  0  0
    9.1663    0.8063   21.3260 C   0  0  0  0  0  0  0  0  0  0  0  0
    8.0323    0.5758   19.1630 C   0  0  0  0  0  0  0  0  0  0  0  0
    5.5319    0.5760   20.4066 C   0  0  0  0  0  0  0  0  0  0  0  0
    6.7157    0.1994   21.2726 C   0  0  0  0  0  0  0  0  0  0  0  0
    9.3165    0.1317   22.6674 C   0  0  0  0  0  0  0  0  0  0  0  0
    5.6605   -0.0340   19.1064 N   0  0  0  0  0  0  0  0  0  0  0  0
    7.9853    0.5437   20.6251 N   0  0  0  0  0  0  0  0  0  0  0  0
    6.9704   -0.4537   17.2731 O   0  0  0  0  0  0  0  0  0  0  0  0
   10.0632    1.5448   20.9113 O   0  0  0  0  0  0  0  0  0  0  0  0
   10.5508    0.5043   23.2432 O   0  0  0  0  0  0  0  0  0  0  0  0
    4.8555   -0.4504   18.6798 H   0  0  0  0  0  0  0  0  0  0  0  0
  1  2  1  0  0  0  0
  1  3  2  0  0  0  0
  2  4  2  0  0  0  0
  3  5  1  0  0  0  0
  4  6  1  0  0  0  0
  5  6  2  0  0  0  0
  6 17  1  0  0  0  0
  7  9  1  0  0  0  0
  7 13  1  0  0  0  0
  7 15  2  0  0  0  0
  8 12  1  0  0  0  0
  8 14  1  0  0  0  0
  8 16  2  0  0  0  0
  9 14  1  0  0  0  0
 10 11  1  0  0  0  0
 10 13  1  0  0  0  0
 11 14  1  0  0  0  0
 12 17  1  0  0  0  0
 13 18  1  0  0  0  0
M  END
> <ref_mols>
x0414_0

> <original SMILES>
O=C(COC=1C=CC=CC1)N2CCNC(=O)C2

> <Chemgauss4>
-9.892899

> <ref_pdb>
x0678_0

$$$$
x0362
  -OEChem-05172015543D

 18 20  0     1  0  0  0  0  0999 V2000
   14.6566   -0.9058   24.3993 C   0  0  0  0  0  0  0  0  0  0  0  0
   13.7193    0.1196   24.5232 C   0  0  0  0  0  0  0  0  0  0  0  0
   14.3317   -2.0666   23.6973 C   0  0  0  0  0  0  0  0  0  0  0  0
   12.4570   -0.0157   23.9452 C   0  0  0  0  0  0  0  0  0  0  0  0
   13.0695   -2.2019   23.1193 C   0  0  0  0  0  0  0  0  0  0  0  0
    6.1770    1.0566   17.6445 C   0  0  0  0  0  0  0  0  0  0  0  0
    5.5409    1.4574   18.8006 C   0  0  0  0  0  0  0  0  0  0  0  0
   12.1321   -1.1765   23.2433 C   0  0  0  0  0  0  0  0  0  0  0  0
    7.7158    0.4632   19.0902 C   0  0  0  0  0  0  0  0  0  0  0  0
    9.1945   -0.0567   21.0568 C   0  0  0  0  0  0  0  0  0  0  0  0
   10.6332   -2.1523   21.3795 C   0  0  0  0  0  0  0  0  0  0  0  0
   10.7837   -1.3220   22.6266 C   0  0  2  0  0  0  0  0  0  0  0  0
   10.5119   -0.6588   21.2939 C   0  0  2  0  0  0  0  0  0  0  0  0
    7.4244    0.4866   17.8085 N   0  0  0  0  0  0  0  0  0  0  0  0
    8.8912   -0.0342   19.7014 N   0  0  0  0  0  0  0  0  0  0  0  0
    8.5107    0.3467   21.9920 O   0  0  0  0  0  0  0  0  0  0  0  0
    6.5349    1.1097   20.1543 S   0  0  0  0  0  0  0  0  0  0  0  0
    9.5856   -0.4173   19.0634 H   0  0  0  0  0  0  0  0  0  0  0  0
  1  2  1  0  0  0  0
  1  3  2  0  0  0  0
  2  4  2  0  0  0  0
  3  5  1  0  0  0  0
  4  8  1  0  0  0  0
  5  8  2  0  0  0  0
  6  7  2  0  0  0  0
  6 14  1  0  0  0  0
  7 17  1  0  0  0  0
  8 12  1  0  0  0  0
  9 14  2  0  0  0  0
  9 15  1  0  0  0  0
  9 17  1  0  0  0  0
 10 13  1  0  0  0  0
 10 15  1  0  0  0  0
 10 16  2  0  0  0  0
 11 12  1  0  0  0  0
 11 13  1  0  0  0  0
 12 13  1  0  0  0  0
 15 18  1  0  0  0  0
M  END
> <ref_mols>
x0362_0

> <original SMILES>
O=C(NC1=NC=CS1)[C@@H]2C[C@H]2C=3C=CC=CC3

> <Chemgauss4>
-9.891851

> <ref_pdb>
x0678_0

$$$$
x0243
  -OEChem-05172015543D

 18 19  0     1  0  0  0  0  0999 V2000
    9.4739    0.9116   23.5843 C   0  0  0  0  0  0  0  0  0  0  0  0
    8.5553    1.7056   22.8980 C   0  0  0  0  0  0  0  0  0  0  0  0
   10.0554   -0.1875   22.9521 C   0  0  0  0  0  0  0  0  0  0  0  0
    8.2179    1.4006   21.5793 C   0  0  0  0  0  0  0  0  0  0  0  0
    9.7180   -0.4925   21.6334 C   0  0  0  0  0  0  0  0  0  0  0  0
    8.7993    0.3015   20.9470 C   0  0  0  0  0  0  0  0  0  0  0  0
    7.0069    0.3131   19.1745 C   0  0  0  0  0  0  0  0  0  0  0  0
    5.0204    0.8556   19.3722 C   0  0  0  0  0  0  0  0  0  0  0  0
    3.4986    1.4928   21.2882 C   0  0  0  0  0  0  0  0  0  0  0  0
    8.4388   -0.0254   19.5372 C   0  0  0  0  0  0  0  0  0  0  0  0
    3.6649    1.2571   19.7720 C   0  0  1  0  0  0  0  0  0  0  0  0
    6.0793    0.6545   20.1152 N   0  0  0  0  0  0  0  0  0  0  0  0
    6.5735    0.2962   17.9105 N   0  0  0  0  0  0  0  0  0  0  0  0
    3.1628    2.5089   19.0882 N   0  3  0  0  0  0  0  0  0  0  0  0
    5.2284    0.6633   18.0432 O   0  0  0  0  0  0  0  0  0  0  0  0
    2.5345    3.0064   19.7121 H   0  0  0  0  0  0  0  0  0  0  0  0
    2.6662    2.2539   18.2394 H   0  0  0  0  0  0  0  0  0  0  0  0
    3.9508    3.1055   18.8538 H   0  0  0  0  0  0  0  0  0  0  0  0
  1  2  1  0  0  0  0
  1  3  2  0  0  0  0
  2  4  2  0  0  0  0
  3  5  1  0  0  0  0
  4  6  1  0  0  0  0
  5  6  2  0  0  0  0
  6 10  1  0  0  0  0
  7 10  1  0  0  0  0
  7 12  1  0  0  0  0
  7 13  2  0  0  0  0
  8 11  1  0  0  0  0
  8 12  2  0  0  0  0
  8 15  1  0  0  0  0
  9 11  1  0  0  0  0
 11 14  1  0  0  0  0
 13 15  1  0  0  0  0
 14 16  1  0  0  0  0
 14 17  1  0  0  0  0
 14 18  1  0  0  0  0
M  CHG  1  14   1
M  END
> <ref_mols>
x0243_0

> <original SMILES>
CC(N)C1=NC(CC=2C=CC=CC2)=NO1

> <Chemgauss4>
-9.891538

> <ref_pdb>
x0107_0

$$$$
x1151
  -OEChem-05172015543D

 18 19  0     1  0  0  0  0  0999 V2000
    9.4739    0.9116   23.5843 C   0  0  0  0  0  0  0  0  0  0  0  0
    8.5553    1.7056   22.8980 C   0  0  0  0  0  0  0  0  0  0  0  0
   10.0554   -0.1875   22.9521 C   0  0  0  0  0  0  0  0  0  0  0  0
    8.2179    1.4006   21.5793 C   0  0  0  0  0  0  0  0  0  0  0  0
    9.7180   -0.4925   21.6334 C   0  0  0  0  0  0  0  0  0  0  0  0
    8.7993    0.3015   20.9470 C   0  0  0  0  0  0  0  0  0  0  0  0
    7.0069    0.3131   19.1745 C   0  0  0  0  0  0  0  0  0  0  0  0
    5.0204    0.8556   19.3722 C   0  0  0  0  0  0  0  0  0  0  0  0
    3.4986    1.4928   21.2882 C   0  0  0  0  0  0  0  0  0  0  0  0
    8.4388   -0.0254   19.5372 C   0  0  0  0  0  0  0  0  0  0  0  0
    3.6649    1.2571   19.7720 C   0  0  1  0  0  0  0  0  0  0  0  0
    6.0793    0.6545   20.1152 N   0  0  0  0  0  0  0  0  0  0  0  0
    6.5735    0.2962   17.9105 N   0  0  0  0  0  0  0  0  0  0  0  0
    3.1628    2.5089   19.0882 N   0  3  0  0  0  0  0  0  0  0  0  0
    5.2284    0.6633   18.0432 O   0  0  0  0  0  0  0  0  0  0  0  0
    2.5345    3.0064   19.7121 H   0  0  0  0  0  0  0  0  0  0  0  0
    2.6662    2.2539   18.2394 H   0  0  0  0  0  0  0  0  0  0  0  0
    3.9508    3.1055   18.8538 H   0  0  0  0  0  0  0  0  0  0  0  0
  1  2  1  0  0  0  0
  1  3  2  0  0  0  0
  2  4  2  0  0  0  0
  3  5  1  0  0  0  0
  4  6  1  0  0  0  0
  5  6  2  0  0  0  0
  6 10  1  0  0  0  0
  7 10  1  0  0  0  0
  7 12  1  0  0  0  0
  7 13  2  0  0  0  0
  8 11  1  0  0  0  0
  8 12  2  0  0  0  0
  8 15  1  0  0  0  0
  9 11  1  0  0  0  0
 11 14  1  0  0  0  0
 13 15  1  0  0  0  0
 14 16  1  0  0  0  0
 14 17  1  0  0  0  0
 14 18  1  0  0  0  0
M  CHG  1  14   1
M  END
> <ref_mols>
x1151_0

> <original SMILES>
CC(N)C1=NC(CC=2C=CC=CC2)=NO1

> <Chemgauss4>
-9.891538

> <ref_pdb>
x0107_0

$$$$
x2462
  -OEChem-05172015543D

 19 20  0     0  0  0  0  0  0999 V2000
   11.4498   -1.1368   23.4760 C   0  0  0  0  0  0  0  0  0  0  0  0
   12.4260   -2.0541   23.0767 C   0  0  0  0  0  0  0  0  0  0  0  0
   13.8727   -0.2647   22.3006 C   0  0  0  0  0  0  0  0  0  0  0  0
   11.6149    2.4696   23.1875 C   0  0  0  0  0  0  0  0  0  0  0  0
   12.9032    0.6787   22.6951 C   0  0  0  0  0  0  0  0  0  0  0  0
   12.8250    2.0988   22.6481 C   0  0  0  0  0  0  0  0  0  0  0  0
   11.7166    0.2218   23.2725 C   0  0  0  0  0  0  0  0  0  0  0  0
   13.6195   -1.6270   22.4979 C   0  0  0  0  0  0  0  0  0  0  0  0
   12.1863    5.9700   23.6946 C   0  0  0  0  0  0  0  0  0  0  0  0
   10.8613    6.5845   23.3862 C   0  0  0  0  0  0  0  0  0  0  0  0
   13.8518    3.0189   22.1192 C   0  0  0  0  0  0  0  0  0  0  0  0
   13.8949    4.3854   22.8272 C   0  0  0  0  0  0  0  0  0  0  0  0
   10.9535    1.3306   23.5615 N   0  0  0  0  0  0  0  0  0  0  0  0
   12.6424    5.0860   22.7300 N   0  0  0  0  0  0  0  0  0  0  0  0
   12.7649    6.2706   24.7321 O   0  0  0  0  0  0  0  0  0  0  0  0
   14.5530   -2.5453   22.1195 O   0  0  0  0  0  0  0  0  0  0  0  0
   10.0374    1.3063   23.9875 H   0  0  0  0  0  0  0  0  0  0  0  0
   12.0606    4.9238   21.9095 H   0  0  0  0  0  0  0  0  0  0  0  0
   15.3240   -2.0996   21.7355 H   0  0  0  0  0  0  0  0  0  0  0  0
  1  2  2  0  0  0  0
  1  7  1  0  0  0  0
  2  8  1  0  0  0  0
  3  5  1  0  0  0  0
  3  8  2  0  0  0  0
  4  6  2  0  0  0  0
  4 13  1  0  0  0  0
  5  6  1  0  0  0  0
  5  7  2  0  0  0  0
  6 11  1  0  0  0  0
  7 13  1  0  0  0  0
  8 16  1  0  0  0  0
  9 10  1  0  0  0  0
  9 14  1  0  0  0  0
  9 15  2  0  0  0  0
 11 12  1  0  0  0  0
 12 14  1  0  0  0  0
 13 17  1  0  0  0  0
 14 18  1  0  0  0  0
 16 19  1  0  0  0  0
M  END
> <ref_mols>
x2462_0

> <original SMILES>
CC(NCCC1=CNC2=CC=C(O)C=C21)=O

> <Chemgauss4>
-9.873528

> <ref_pdb>
x0195_0

$$$$
x2362
  -OEChem-05172015543D

 19 20  0     0  0  0  0  0  0999 V2000
   11.4498   -1.1368   23.4760 C   0  0  0  0  0  0  0  0  0  0  0  0
   12.4260   -2.0541   23.0767 C   0  0  0  0  0  0  0  0  0  0  0  0
   13.8727   -0.2647   22.3006 C   0  0  0  0  0  0  0  0  0  0  0  0
   11.6149    2.4696   23.1875 C   0  0  0  0  0  0  0  0  0  0  0  0
   12.9032    0.6787   22.6951 C   0  0  0  0  0  0  0  0  0  0  0  0
   12.8250    2.0988   22.6481 C   0  0  0  0  0  0  0  0  0  0  0  0
   11.7166    0.2218   23.2725 C   0  0  0  0  0  0  0  0  0  0  0  0
   13.6195   -1.6270   22.4979 C   0  0  0  0  0  0  0  0  0  0  0  0
   12.1863    5.9700   23.6946 C   0  0  0  0  0  0  0  0  0  0  0  0
   10.8613    6.5845   23.3862 C   0  0  0  0  0  0  0  0  0  0  0  0
   13.8518    3.0189   22.1192 C   0  0  0  0  0  0  0  0  0  0  0  0
   13.8949    4.3854   22.8272 C   0  0  0  0  0  0  0  0  0  0  0  0
   10.9535    1.3306   23.5615 N   0  0  0  0  0  0  0  0  0  0  0  0
   12.6424    5.0860   22.7300 N   0  0  0  0  0  0  0  0  0  0  0  0
   12.7649    6.2706   24.7321 O   0  0  0  0  0  0  0  0  0  0  0  0
   14.5530   -2.5453   22.1195 O   0  0  0  0  0  0  0  0  0  0  0  0
   10.0374    1.3063   23.9875 H   0  0  0  0  0  0  0  0  0  0  0  0
   12.0606    4.9238   21.9095 H   0  0  0  0  0  0  0  0  0  0  0  0
   15.3240   -2.0996   21.7355 H   0  0  0  0  0  0  0  0  0  0  0  0
  1  2  2  0  0  0  0
  1  7  1  0  0  0  0
  2  8  1  0  0  0  0
  3  5  1  0  0  0  0
  3  8  2  0  0  0  0
  4  6  2  0  0  0  0
  4 13  1  0  0  0  0
  5  6  1  0  0  0  0
  5  7  2  0  0  0  0
  6 11  1  0  0  0  0
  7 13  1  0  0  0  0
  8 16  1  0  0  0  0
  9 10  1  0  0  0  0
  9 14  1  0  0  0  0
  9 15  2  0  0  0  0
 11 12  1  0  0  0  0
 12 14  1  0  0  0  0
 13 17  1  0  0  0  0
 14 18  1  0  0  0  0
 16 19  1  0  0  0  0
M  END
> <ref_mols>
x2362_0

> <original SMILES>
CC(NCCC1=CNC2=CC=C(O)C=C21)=O

> <Chemgauss4>
-9.873528

> <ref_pdb>
x0195_0

$$$$
x2822
  -OEChem-05172015543D

 27 29  0     0  0  0  0  0  0999 V2000
    7.2326   -3.8033   26.3206 C   0  0  0  0  0  0  0  0  0  0  0  0
    6.2402   -5.1780   24.5994 C   0  0  0  0  0  0  0  0  0  0  0  0
   11.5445    0.1886   23.5914 C   0  0  0  0  0  0  0  0  0  0  0  0
   12.4132   -1.7815   22.4954 C   0  0  0  0  0  0  0  0  0  0  0  0
   12.6825    0.2427   24.3962 C   0  0  0  0  0  0  0  0  0  0  0  0
   13.5513   -1.7274   23.3001 C   0  0  0  0  0  0  0  0  0  0  0  0
    6.6690   -4.6219   27.2993 C   0  0  0  0  0  0  0  0  0  0  0  0
    5.6767   -5.9966   25.5782 C   0  0  0  0  0  0  0  0  0  0  0  0
    7.0181   -4.0813   24.9706 C   0  0  0  0  0  0  0  0  0  0  0  0
   11.4098   -0.8236   22.6410 C   0  0  0  0  0  0  0  0  0  0  0  0
   13.6859   -0.7153   24.2505 C   0  0  0  0  0  0  0  0  0  0  0  0
    5.8911   -5.7185   26.9281 C   0  0  0  0  0  0  0  0  0  0  0  0
    8.4845   -1.0498   23.4917 C   0  0  0  0  0  0  0  0  0  0  0  0
    9.3852   -3.0975   22.3546 C   0  0  0  0  0  0  0  0  0  0  0  0
    7.2529   -1.8450   23.9269 C   0  0  0  0  0  0  0  0  0  0  0  0
    8.1365   -3.8639   22.7831 C   0  0  0  0  0  0  0  0  0  0  0  0
    9.0893   -1.6042   22.2011 C   0  0  0  0  0  0  0  0  0  0  0  0
    7.5742   -3.2736   24.0040 N   0  0  0  0  0  0  0  0  0  0  0  0
    6.4240   -7.9008   28.3629 N   0  0  0  0  0  0  0  0  0  0  0  0
   10.2824   -0.8772   21.8438 N   0  0  0  0  0  0  0  0  0  0  0  0
    5.0518   -5.9693   29.3788 O   0  0  0  0  0  0  0  0  0  0  0  0
    4.0184   -7.4055   27.5852 O   0  0  0  0  0  0  0  0  0  0  0  0
   14.7787   -0.6633   25.0233 F   0  0  0  0  0  0  0  0  0  0  0  0
    5.1848   -6.7433   28.1525 S   0  0  0  0  0  0  0  0  0  0  0  0
    6.9683   -7.8713   29.2337 H   0  0  0  0  0  0  0  0  0  0  0  0
    6.2619   -8.8506   28.0067 H   0  0  0  0  0  0  0  0  0  0  0  0
   10.2865   -0.3845   20.9613 H   0  0  0  0  0  0  0  0  0  0  0  0
  1  7  2  0  0  0  0
  1  9  1  0  0  0  0
  2  8  1  0  0  0  0
  2  9  2  0  0  0  0
  3  5  2  0  0  0  0
  3 10  1  0  0  0  0
  4  6  1  0  0  0  0
  4 10  2  0  0  0  0
  5 11  1  0  0  0  0
  6 11  2  0  0  0  0
  7 12  1  0  0  0  0
  8 12  2  0  0  0  0
  9 18  1  0  0  0  0
 10 20  1  0  0  0  0
 11 23  1  0  0  0  0
 12 24  1  0  0  0  0
 13 15  1  0  0  0  0
 13 17  1  0  0  0  0
 14 16  1  0  0  0  0
 14 17  1  0  0  0  0
 15 18  1  0  0  0  0
 16 18  1  0  0  0  0
 17 20  1  0  0  0  0
 19 24  1  0  0  0  0
 21 24  2  0  0  0  0
 22 24  2  0  0  0  0
 19 25  1  0  0  0  0
 19 26  1  0  0  0  0
 20 27  1  0  0  0  0
M  END
> <ref_mols>
x2822_0

> <original SMILES>
NS(=O)(=O)C=1C=CC(=CC1)N2CCC(CC2)NC=3C=CC(F)=CC3

> <Chemgauss4>
-9.858924

> <ref_pdb>
x0072_0

$$$$
x0699
  -OEChem-05172015543D

 19 20  0     1  0  0  0  0  0999 V2000
   13.5395    0.3071   22.9027 C   0  0  0  0  0  0  0  0  0  0  0  0
   13.1811   -0.8043   22.1399 C   0  0  0  0  0  0  0  0  0  0  0  0
   12.6844    0.7726   23.9016 C   0  0  0  0  0  0  0  0  0  0  0  0
   11.9675   -1.4501   22.3759 C   0  0  0  0  0  0  0  0  0  0  0  0
   11.4708    0.1268   24.1376 C   0  0  0  0  0  0  0  0  0  0  0  0
   11.1123   -0.9846   23.3747 C   0  0  0  0  0  0  0  0  0  0  0  0
    6.1683   -1.5288   19.4476 C   0  0  0  0  0  0  0  0  0  0  0  0
    6.3892   -1.4860   21.9114 C   0  0  0  0  0  0  0  0  0  0  0  0
    8.0232   -0.2084   20.5807 C   0  0  0  0  0  0  0  0  0  0  0  0
    7.5118   -2.1166   22.7224 C   0  0  0  0  0  0  0  0  0  0  0  0
    9.1711   -0.8187   21.3735 C   0  0  0  0  0  0  0  0  0  0  0  0
    9.3503   -1.5817   25.0869 C   0  0  0  0  0  0  0  0  0  0  0  0
    6.2132   -0.6215   18.2440 C   0  0  0  0  0  0  0  0  0  0  0  0
    9.7971   -1.6838   23.6307 C   0  0  1  0  0  0  0  0  0  0  0  0
    6.8563   -1.0972   20.5807 N   0  0  0  0  0  0  0  0  0  0  0  0
    8.6854   -1.1636   22.7636 N   0  3  0  0  0  0  0  0  0  0  0  0
    5.5422   -2.5897   19.3798 O   0  0  0  0  0  0  0  0  0  0  0  0
    5.4710    0.8984   18.7309 Cl  0  0  0  0  0  0  0  0  0  0  0  0
    8.3580   -0.2905   23.1998 H   0  0  0  0  0  0  0  0  0  0  0  0
  1  2  1  0  0  0  0
  1  3  2  0  0  0  0
  2  4  2  0  0  0  0
  3  5  1  0  0  0  0
  4  6  1  0  0  0  0
  5  6  2  0  0  0  0
  6 14  1  0  0  0  0
  7 13  1  0  0  0  0
  7 15  1  0  0  0  0
  7 17  2  0  0  0  0
  8 10  1  0  0  0  0
  8 15  1  0  0  0  0
  9 11  1  0  0  0  0
  9 15  1  0  0  0  0
 10 16  1  0  0  0  0
 11 16  1  0  0  0  0
 12 14  1  0  0  0  0
 13 18  1  0  0  0  0
 14 16  1  0  0  0  0
 16 19  1  0  0  0  0
M  CHG  1  16   1
M  END
> <ref_mols>
x0699_0

> <original SMILES>
CC(N1CCN(CC1)C(=O)CCl)c2ccccc2

> <Chemgauss4>
-9.851532

> <ref_pdb>
x0831_0

> <CYS145-warhead dist minimum (A)>
3.8890467

> <CYS145-warhead dist mean (A)>
5.647389

> <CYS145-warhead dist stddev (A)>
0.36033762

$$$$
x1370
  -OEChem-05172015543D

 19 20  0     1  0  0  0  0  0999 V2000
   13.5395    0.3071   22.9027 C   0  0  0  0  0  0  0  0  0  0  0  0
   13.1811   -0.8043   22.1399 C   0  0  0  0  0  0  0  0  0  0  0  0
   12.6844    0.7726   23.9016 C   0  0  0  0  0  0  0  0  0  0  0  0
   11.9675   -1.4501   22.3759 C   0  0  0  0  0  0  0  0  0  0  0  0
   11.4708    0.1268   24.1376 C   0  0  0  0  0  0  0  0  0  0  0  0
   11.1123   -0.9846   23.3747 C   0  0  0  0  0  0  0  0  0  0  0  0
    6.1683   -1.5288   19.4476 C   0  0  0  0  0  0  0  0  0  0  0  0
    6.3892   -1.4860   21.9114 C   0  0  0  0  0  0  0  0  0  0  0  0
    8.0232   -0.2084   20.5807 C   0  0  0  0  0  0  0  0  0  0  0  0
    7.5118   -2.1166   22.7224 C   0  0  0  0  0  0  0  0  0  0  0  0
    9.1711   -0.8187   21.3735 C   0  0  0  0  0  0  0  0  0  0  0  0
    9.3503   -1.5817   25.0869 C   0  0  0  0  0  0  0  0  0  0  0  0
    6.2132   -0.6215   18.2440 C   0  0  0  0  0  0  0  0  0  0  0  0
    9.7971   -1.6838   23.6307 C   0  0  1  0  0  0  0  0  0  0  0  0
    6.8563   -1.0972   20.5807 N   0  0  0  0  0  0  0  0  0  0  0  0
    8.6854   -1.1636   22.7636 N   0  3  0  0  0  0  0  0  0  0  0  0
    5.5422   -2.5897   19.3798 O   0  0  0  0  0  0  0  0  0  0  0  0
    5.4710    0.8984   18.7309 Cl  0  0  0  0  0  0  0  0  0  0  0  0
    8.3580   -0.2905   23.1998 H   0  0  0  0  0  0  0  0  0  0  0  0
  1  2  1  0  0  0  0
  1  3  2  0  0  0  0
  2  4  2  0  0  0  0
  3  5  1  0  0  0  0
  4  6  1  0  0  0  0
  5  6  2  0  0  0  0
  6 14  1  0  0  0  0
  7 13  1  0  0  0  0
  7 15  1  0  0  0  0
  7 17  2  0  0  0  0
  8 10  1  0  0  0  0
  8 15  1  0  0  0  0
  9 11  1  0  0  0  0
  9 15  1  0  0  0  0
 10 16  1  0  0  0  0
 11 16  1  0  0  0  0
 12 14  1  0  0  0  0
 13 18  1  0  0  0  0
 14 16  1  0  0  0  0
 16 19  1  0  0  0  0
M  CHG  1  16   1
M  END
> <ref_mols>
x1370_0

> <original SMILES>
CC(N1CCN(CC1)C(=O)CCl)c2ccccc2

> <Chemgauss4>
-9.851532

> <ref_pdb>
x0831_0

$$$$
x0773
  -OEChem-05172015543D

 19 20  0     1  0  0  0  0  0999 V2000
   13.5395    0.3071   22.9027 C   0  0  0  0  0  0  0  0  0  0  0  0
   13.1811   -0.8043   22.1399 C   0  0  0  0  0  0  0  0  0  0  0  0
   12.6844    0.7726   23.9016 C   0  0  0  0  0  0  0  0  0  0  0  0
   11.9675   -1.4501   22.3759 C   0  0  0  0  0  0  0  0  0  0  0  0
   11.4708    0.1268   24.1376 C   0  0  0  0  0  0  0  0  0  0  0  0
   11.1123   -0.9846   23.3747 C   0  0  0  0  0  0  0  0  0  0  0  0
    6.1683   -1.5288   19.4476 C   0  0  0  0  0  0  0  0  0  0  0  0
    6.3892   -1.4860   21.9114 C   0  0  0  0  0  0  0  0  0  0  0  0
    8.0232   -0.2084   20.5807 C   0  0  0  0  0  0  0  0  0  0  0  0
    7.5118   -2.1166   22.7224 C   0  0  0  0  0  0  0  0  0  0  0  0
    9.1711   -0.8187   21.3735 C   0  0  0  0  0  0  0  0  0  0  0  0
    9.3503   -1.5817   25.0869 C   0  0  0  0  0  0  0  0  0  0  0  0
    6.2132   -0.6215   18.2440 C   0  0  0  0  0  0  0  0  0  0  0  0
    9.7971   -1.6838   23.6307 C   0  0  1  0  0  0  0  0  0  0  0  0
    6.8563   -1.0972   20.5807 N   0  0  0  0  0  0  0  0  0  0  0  0
    8.6854   -1.1636   22.7636 N   0  3  0  0  0  0  0  0  0  0  0  0
    5.5422   -2.5897   19.3798 O   0  0  0  0  0  0  0  0  0  0  0  0
    5.4710    0.8984   18.7309 Cl  0  0  0  0  0  0  0  0  0  0  0  0
    8.3580   -0.2905   23.1998 H   0  0  0  0  0  0  0  0  0  0  0  0
  1  2  1  0  0  0  0
  1  3  2  0  0  0  0
  2  4  2  0  0  0  0
  3  5  1  0  0  0  0
  4  6  1  0  0  0  0
  5  6  2  0  0  0  0
  6 14  1  0  0  0  0
  7 13  1  0  0  0  0
  7 15  1  0  0  0  0
  7 17  2  0  0  0  0
  8 10  1  0  0  0  0
  8 15  1  0  0  0  0
  9 11  1  0  0  0  0
  9 15  1  0  0  0  0
 10 16  1  0  0  0  0
 11 16  1  0  0  0  0
 12 14  1  0  0  0  0
 13 18  1  0  0  0  0
 14 16  1  0  0  0  0
 16 19  1  0  0  0  0
M  CHG  1  16   1
M  END
> <ref_mols>
x0773_0

> <original SMILES>
CC(N1CCN(CC1)C(=O)CCl)c2ccccc2

> <Chemgauss4>
-9.851532

> <ref_pdb>
x0831_0

$$$$
x0393
  -OEChem-05172015543D

 17 18  0     0  0  0  0  0  0999 V2000
    6.5013    0.6549   18.2738 C   0  0  0  0  0  0  0  0  0  0  0  0
    6.0349    0.9726   19.5304 C   0  0  0  0  0  0  0  0  0  0  0  0
    8.3697   -0.2801   19.2035 C   0  0  0  0  0  0  0  0  0  0  0  0
    7.9038    0.0382   20.4601 C   0  0  0  0  0  0  0  0  0  0  0  0
   11.7305   -1.2880   23.3895 C   0  0  0  0  0  0  0  0  0  0  0  0
    9.3235   -1.9635   23.2825 C   0  0  0  0  0  0  0  0  0  0  0  0
    9.9664    0.4633   23.5218 C   0  0  0  0  0  0  0  0  0  0  0  0
    9.0113   -1.7214   21.8042 C   0  0  0  0  0  0  0  0  0  0  0  0
    9.6724    0.6688   22.0360 C   0  0  0  0  0  0  0  0  0  0  0  0
   10.3390   -0.9791   23.8588 C   0  0  0  0  0  0  0  0  0  0  0  0
   14.6277   -1.5469   24.5742 C   0  0  0  0  0  0  0  0  0  0  0  0
   13.9800   -0.5935   23.5927 C   0  0  0  0  0  0  0  0  0  0  0  0
    7.6770    0.0227   18.0878 N   0  0  0  0  0  0  0  0  0  0  0  0
    6.7279    0.6700   20.6461 N   0  0  0  0  0  0  0  0  0  0  0  0
    8.6863   -0.3123   21.5667 N   0  0  0  0  0  0  0  0  0  0  0  0
   12.0072   -2.1948   22.6160 O   0  0  0  0  0  0  0  0  0  0  0  0
   12.6078   -0.4115   23.9561 O   0  0  0  0  0  0  0  0  0  0  0  0
  1  2  2  0  0  0  0
  1 13  1  0  0  0  0
  2 14  1  0  0  0  0
  3  4  1  0  0  0  0
  3 13  2  0  0  0  0
  4 14  2  0  0  0  0
  4 15  1  0  0  0  0
  5 10  1  0  0  0  0
  5 16  2  0  0  0  0
  5 17  1  0  0  0  0
  6  8  1  0  0  0  0
  6 10  1  0  0  0  0
  7  9  1  0  0  0  0
  7 10  1  0  0  0  0
  8 15  1  0  0  0  0
  9 15  1  0  0  0  0
 11 12  1  0  0  0  0
 12 17  1  0  0  0  0
M  END
> <ref_mols>
x0393_0

> <original SMILES>
CCOC(=O)C1CCN(CC1)C=2C=NC=CN2

> <Chemgauss4>
-9.851280

> <ref_pdb>
x0678_0

$$$$
x2850
  -OEChem-05172015543D

 19 20  0     0  0  0  0  0  0999 V2000
    4.6746    1.5485   18.7808 C   0  0  0  0  0  0  0  0  0  0  0  0
    4.7853    0.8463   19.9758 C   0  0  0  0  0  0  0  0  0  0  0  0
    7.0365   -3.6259   24.9516 C   0  0  0  0  0  0  0  0  0  0  0  0
    5.5877    1.2686   17.7770 C   0  0  0  0  0  0  0  0  0  0  0  0
    6.6545   -0.3074   19.0640 C   0  0  0  0  0  0  0  0  0  0  0  0
    8.4697   -3.9120   23.0753 C   0  0  0  0  0  0  0  0  0  0  0  0
    8.8342   -5.1830   24.9540 C   0  0  0  0  0  0  0  0  0  0  0  0
    5.7915   -0.1012   20.1282 C   0  0  0  0  0  0  0  0  0  0  0  0
    7.3871   -3.2696   23.6542 C   0  0  0  0  0  0  0  0  0  0  0  0
    7.7688   -4.6000   25.6211 C   0  0  0  0  0  0  0  0  0  0  0  0
    6.8834   -1.8137   21.6427 C   0  0  0  0  0  0  0  0  0  0  0  0
    6.5783    0.3554   17.8882 N   0  0  0  0  0  0  0  0  0  0  0  0
    9.2049   -4.8629   23.6940 N   0  0  0  0  0  0  0  0  0  0  0  0
    5.9273   -0.8199   21.3134 N   0  0  0  0  0  0  0  0  0  0  0  0
    6.6604   -2.2826   22.9473 N   0  0  0  0  0  0  0  0  0  0  0  0
    7.7726   -2.2016   20.8917 O   0  0  0  0  0  0  0  0  0  0  0  0
    7.3658   -5.0662   27.2214 Cl  0  0  0  0  0  0  0  0  0  0  0  0
    5.2435   -0.6007   22.0470 H   0  0  0  0  0  0  0  0  0  0  0  0
    5.8817   -1.8661   23.4515 H   0  0  0  0  0  0  0  0  0  0  0  0
  1  2  2  0  0  0  0
  1  4  1  0  0  0  0
  2  8  1  0  0  0  0
  3  9  1  0  0  0  0
  3 10  2  0  0  0  0
  4 12  2  0  0  0  0
  5  8  2  0  0  0  0
  5 12  1  0  0  0  0
  6  9  2  0  0  0  0
  6 13  1  0  0  0  0
  7 10  1  0  0  0  0
  7 13  2  0  0  0  0
  8 14  1  0  0  0  0
  9 15  1  0  0  0  0
 10 17  1  0  0  0  0
 11 14  1  0  0  0  0
 11 15  1  0  0  0  0
 11 16  2  0  0  0  0
 14 18  1  0  0  0  0
 15 19  1  0  0  0  0
M  END
> <ref_mols>
x2850_0

> <original SMILES>
ClC=1C=NC=C(NC(=O)NC=2C=CC=NC2)C1

> <Chemgauss4>
-9.845115

> <ref_pdb>
x0107_0

$$$$
x2642
  -OEChem-05172015543D

 20 21  0     0  0  0  0  0  0999 V2000
    4.7496    0.7223   19.0537 C   0  0  0  0  0  0  0  0  0  0  0  0
    5.4968    0.6232   20.2221 C   0  0  0  0  0  0  0  0  0  0  0  0
   10.5456    0.9016   23.5341 C   0  0  0  0  0  0  0  0  0  0  0  0
   10.6125    0.2213   24.7734 C   0  0  0  0  0  0  0  0  0  0  0  0
    5.4075    0.5495   17.8465 C   0  0  0  0  0  0  0  0  0  0  0  0
    7.4231    0.2013   18.8925 C   0  0  0  0  0  0  0  0  0  0  0  0
    6.8598    0.3580   20.1487 C   0  0  0  0  0  0  0  0  0  0  0  0
    9.5370    0.2972   22.8205 C   0  0  0  0  0  0  0  0  0  0  0  0
    9.6398   -0.7502   24.7288 C   0  0  0  0  0  0  0  0  0  0  0  0
    9.0008    0.5593   21.4739 C   0  0  0  0  0  0  0  0  0  0  0  0
    8.0724   -4.2917   26.0512 C   0  0  0  0  0  0  0  0  0  0  0  0
    9.2010   -1.7779   25.6836 C   0  0  0  0  0  0  0  0  0  0  0  0
    6.7297    0.2907   17.7355 N   0  0  0  0  0  0  0  0  0  0  0  0
    7.6340    0.2534   21.3016 N   0  0  0  0  0  0  0  0  0  0  0  0
    9.7255    0.9821   20.5756 O   0  0  0  0  0  0  0  0  0  0  0  0
    7.3462   -2.7143   24.0975 O   0  0  0  0  0  0  0  0  0  0  0  0
    9.6447   -3.7557   24.0331 O   0  0  0  0  0  0  0  0  0  0  0  0
    8.9796   -0.7106   23.5418 O   0  0  0  0  0  0  0  0  0  0  0  0
    8.5528   -3.1523   24.7749 S   0  0  0  0  0  0  0  0  0  0  0  0
    7.1455   -0.0922   22.1370 H   0  0  0  0  0  0  0  0  0  0  0  0
  1  2  2  0  0  0  0
  1  5  1  0  0  0  0
  2  7  1  0  0  0  0
  3  4  1  0  0  0  0
  3  8  2  0  0  0  0
  4  9  2  0  0  0  0
  5 13  2  0  0  0  0
  6  7  2  0  0  0  0
  6 13  1  0  0  0  0
  7 14  1  0  0  0  0
  8 10  1  0  0  0  0
  8 18  1  0  0  0  0
  9 12  1  0  0  0  0
  9 18  1  0  0  0  0
 10 14  1  0  0  0  0
 10 15  2  0  0  0  0
 11 19  1  0  0  0  0
 12 19  1  0  0  0  0
 16 19  2  0  0  0  0
 17 19  2  0  0  0  0
 14 20  1  0  0  0  0
M  END
> <ref_mols>
x2642_0

> <original SMILES>
CS(=O)(=O)CC1=CC=C(O1)C(=O)NC=2C=CC=NC2

> <Chemgauss4>
-9.845098

> <ref_pdb>
x0107_0

$$$$
x2474
  -OEChem-05172015543D

 20 21  0     0  0  0  0  0  0999 V2000
    4.7496    0.7223   19.0537 C   0  0  0  0  0  0  0  0  0  0  0  0
    5.4968    0.6232   20.2221 C   0  0  0  0  0  0  0  0  0  0  0  0
   10.5456    0.9016   23.5341 C   0  0  0  0  0  0  0  0  0  0  0  0
   10.6125    0.2213   24.7734 C   0  0  0  0  0  0  0  0  0  0  0  0
    5.4075    0.5495   17.8465 C   0  0  0  0  0  0  0  0  0  0  0  0
    7.4231    0.2013   18.8925 C   0  0  0  0  0  0  0  0  0  0  0  0
    6.8598    0.3580   20.1487 C   0  0  0  0  0  0  0  0  0  0  0  0
    9.5370    0.2972   22.8205 C   0  0  0  0  0  0  0  0  0  0  0  0
    9.6398   -0.7502   24.7288 C   0  0  0  0  0  0  0  0  0  0  0  0
    9.0008    0.5593   21.4739 C   0  0  0  0  0  0  0  0  0  0  0  0
    8.0724   -4.2917   26.0512 C   0  0  0  0  0  0  0  0  0  0  0  0
    9.2010   -1.7779   25.6836 C   0  0  0  0  0  0  0  0  0  0  0  0
    6.7297    0.2907   17.7355 N   0  0  0  0  0  0  0  0  0  0  0  0
    7.6340    0.2534   21.3016 N   0  0  0  0  0  0  0  0  0  0  0  0
    9.7255    0.9821   20.5756 O   0  0  0  0  0  0  0  0  0  0  0  0
    7.3462   -2.7143   24.0975 O   0  0  0  0  0  0  0  0  0  0  0  0
    9.6447   -3.7557   24.0331 O   0  0  0  0  0  0  0  0  0  0  0  0
    8.9796   -0.7106   23.5418 O   0  0  0  0  0  0  0  0  0  0  0  0
    8.5528   -3.1523   24.7749 S   0  0  0  0  0  0  0  0  0  0  0  0
    7.1455   -0.0922   22.1370 H   0  0  0  0  0  0  0  0  0  0  0  0
  1  2  2  0  0  0  0
  1  5  1  0  0  0  0
  2  7  1  0  0  0  0
  3  4  1  0  0  0  0
  3  8  2  0  0  0  0
  4  9  2  0  0  0  0
  5 13  2  0  0  0  0
  6  7  2  0  0  0  0
  6 13  1  0  0  0  0
  7 14  1  0  0  0  0
  8 10  1  0  0  0  0
  8 18  1  0  0  0  0
  9 12  1  0  0  0  0
  9 18  1  0  0  0  0
 10 14  1  0  0  0  0
 10 15  2  0  0  0  0
 11 19  1  0  0  0  0
 12 19  1  0  0  0  0
 16 19  2  0  0  0  0
 17 19  2  0  0  0  0
 14 20  1  0  0  0  0
M  END
> <ref_mols>
x2474_0

> <original SMILES>
CS(=O)(=O)CC1=CC=C(O1)C(=O)NC=2C=CC=NC2

> <Chemgauss4>
-9.845098

> <ref_pdb>
x0107_0

$$$$
x2480
  -OEChem-05172015543D

 22 24  0     0  0  0  0  0  0999 V2000
    6.5265   -5.8869   22.1428 C   0  0  0  0  0  0  0  0  0  0  0  0
    5.1698    1.2448   18.8547 C   0  0  0  0  0  0  0  0  0  0  0  0
    5.6322    1.0082   20.1479 C   0  0  0  0  0  0  0  0  0  0  0  0
    6.8415   -4.5535   21.8812 C   0  0  0  0  0  0  0  0  0  0  0  0
    6.0757   -6.2617   23.4085 C   0  0  0  0  0  0  0  0  0  0  0  0
    6.2550   -3.9697   24.1511 C   0  0  0  0  0  0  0  0  0  0  0  0
    5.9713    0.8793   17.7815 C   0  0  0  0  0  0  0  0  0  0  0  0
    8.8648   -0.5341   20.8633 C   0  0  0  0  0  0  0  0  0  0  0  0
    6.8934    0.4082   20.2938 C   0  0  0  0  0  0  0  0  0  0  0  0
    7.7092    0.0068   21.3845 C   0  0  0  0  0  0  0  0  0  0  0  0
    6.7058   -3.5949   22.8854 C   0  0  0  0  0  0  0  0  0  0  0  0
    5.9399   -5.3031   24.4126 C   0  0  0  0  0  0  0  0  0  0  0  0
    7.5910    0.0932   19.1313 C   0  0  0  0  0  0  0  0  0  0  0  0
    6.9510   -1.1635   23.4961 C   0  0  0  0  0  0  0  0  0  0  0  0
    7.3881    0.1405   22.8196 C   0  0  0  0  0  0  0  0  0  0  0  0
    7.1916    0.2998   17.8622 N   0  0  0  0  0  0  0  0  0  0  0  0
    8.7825   -0.4763   19.4962 N   0  0  0  0  0  0  0  0  0  0  0  0
    7.0267   -2.2425   22.6190 N   0  0  0  0  0  0  0  0  0  0  0  0
    6.5892   -1.1828   24.6682 O   0  0  0  0  0  0  0  0  0  0  0  0
    5.3837   -5.7654   25.9743 Cl  0  0  0  0  0  0  0  0  0  0  0  0
    9.4923   -0.8022   18.8549 H   0  0  0  0  0  0  0  0  0  0  0  0
    7.3505   -2.0343   21.6767 H   0  0  0  0  0  0  0  0  0  0  0  0
  1  4  1  0  0  0  0
  1  5  2  0  0  0  0
  2  3  2  0  0  0  0
  2  7  1  0  0  0  0
  3  9  1  0  0  0  0
  4 11  2  0  0  0  0
  5 12  1  0  0  0  0
  6 11  1  0  0  0  0
  6 12  2  0  0  0  0
  7 16  2  0  0  0  0
  8 10  2  0  0  0  0
  8 17  1  0  0  0  0
  9 10  1  0  0  0  0
  9 13  2  0  0  0  0
 10 15  1  0  0  0  0
 11 18  1  0  0  0  0
 12 20  1  0  0  0  0
 13 16  1  0  0  0  0
 13 17  1  0  0  0  0
 14 15  1  0  0  0  0
 14 18  1  0  0  0  0
 14 19  2  0  0  0  0
 17 21  1  0  0  0  0
 18 22  1  0  0  0  0
M  END
> <ref_mols>
x2480_0

> <original SMILES>
ClC=1C=CC=C(NC(=O)CC2=CNC=3N=CC=CC23)C1

> <Chemgauss4>
-9.791058

> <ref_pdb>
x0397_0

$$$$
x2648
  -OEChem-05172015543D

 22 24  0     0  0  0  0  0  0999 V2000
    6.5265   -5.8869   22.1428 C   0  0  0  0  0  0  0  0  0  0  0  0
    5.1698    1.2448   18.8547 C   0  0  0  0  0  0  0  0  0  0  0  0
    5.6322    1.0082   20.1479 C   0  0  0  0  0  0  0  0  0  0  0  0
    6.8415   -4.5535   21.8812 C   0  0  0  0  0  0  0  0  0  0  0  0
    6.0757   -6.2617   23.4085 C   0  0  0  0  0  0  0  0  0  0  0  0
    6.2550   -3.9697   24.1511 C   0  0  0  0  0  0  0  0  0  0  0  0
    5.9713    0.8793   17.7815 C   0  0  0  0  0  0  0  0  0  0  0  0
    8.8648   -0.5341   20.8633 C   0  0  0  0  0  0  0  0  0  0  0  0
    6.8934    0.4082   20.2938 C   0  0  0  0  0  0  0  0  0  0  0  0
    7.7092    0.0068   21.3845 C   0  0  0  0  0  0  0  0  0  0  0  0
    6.7058   -3.5949   22.8854 C   0  0  0  0  0  0  0  0  0  0  0  0
    5.9399   -5.3031   24.4126 C   0  0  0  0  0  0  0  0  0  0  0  0
    7.5910    0.0932   19.1313 C   0  0  0  0  0  0  0  0  0  0  0  0
    6.9510   -1.1635   23.4961 C   0  0  0  0  0  0  0  0  0  0  0  0
    7.3881    0.1405   22.8196 C   0  0  0  0  0  0  0  0  0  0  0  0
    7.1916    0.2998   17.8622 N   0  0  0  0  0  0  0  0  0  0  0  0
    8.7825   -0.4763   19.4962 N   0  0  0  0  0  0  0  0  0  0  0  0
    7.0267   -2.2425   22.6190 N   0  0  0  0  0  0  0  0  0  0  0  0
    6.5892   -1.1828   24.6682 O   0  0  0  0  0  0  0  0  0  0  0  0
    5.3837   -5.7654   25.9743 Cl  0  0  0  0  0  0  0  0  0  0  0  0
    9.4923   -0.8022   18.8549 H   0  0  0  0  0  0  0  0  0  0  0  0
    7.3505   -2.0343   21.6767 H   0  0  0  0  0  0  0  0  0  0  0  0
  1  4  1  0  0  0  0
  1  5  2  0  0  0  0
  2  3  2  0  0  0  0
  2  7  1  0  0  0  0
  3  9  1  0  0  0  0
  4 11  2  0  0  0  0
  5 12  1  0  0  0  0
  6 11  1  0  0  0  0
  6 12  2  0  0  0  0
  7 16  2  0  0  0  0
  8 10  2  0  0  0  0
  8 17  1  0  0  0  0
  9 10  1  0  0  0  0
  9 13  2  0  0  0  0
 10 15  1  0  0  0  0
 11 18  1  0  0  0  0
 12 20  1  0  0  0  0
 13 16  1  0  0  0  0
 13 17  1  0  0  0  0
 14 15  1  0  0  0  0
 14 18  1  0  0  0  0
 14 19  2  0  0  0  0
 17 21  1  0  0  0  0
 18 22  1  0  0  0  0
M  END
> <ref_mols>
x2648_0

> <original SMILES>
ClC=1C=CC=C(NC(=O)CC2=CNC=3N=CC=CC23)C1

> <Chemgauss4>
-9.791058

> <ref_pdb>
x0397_0

$$$$
x2599
  -OEChem-05172015543D

 26 28  0     0  0  0  0  0  0999 V2000
    9.5030    6.2494   22.5991 C   0  0  0  0  0  0  0  0  0  0  0  0
    9.1580    4.9383   22.2712 C   0  0  0  0  0  0  0  0  0  0  0  0
   10.7295    6.5165   23.2075 C   0  0  0  0  0  0  0  0  0  0  0  0
   13.9670   -1.7641   22.9554 C   0  0  0  0  0  0  0  0  0  0  0  0
   10.0394    3.8942   22.5517 C   0  0  0  0  0  0  0  0  0  0  0  0
   11.6109    5.4724   23.4880 C   0  0  0  0  0  0  0  0  0  0  0  0
   14.0520   -0.7020   23.8556 C   0  0  0  0  0  0  0  0  0  0  0  0
   12.7522   -2.0578   22.3359 C   0  0  0  0  0  0  0  0  0  0  0  0
   11.7074   -0.2274   23.5169 C   0  0  0  0  0  0  0  0  0  0  0  0
    6.3858    0.1371   20.5687 C   0  0  0  0  0  0  0  0  0  0  0  0
    8.0132   -0.4777   19.0099 C   0  0  0  0  0  0  0  0  0  0  0  0
    6.4154    1.0526   18.4882 C   0  0  0  0  0  0  0  0  0  0  0  0
   11.2659    4.1613   23.1601 C   0  0  0  0  0  0  0  0  0  0  0  0
   12.9222    0.0663   24.1364 C   0  0  0  0  0  0  0  0  0  0  0  0
    7.4951   -0.6311   20.2797 C   0  0  0  0  0  0  0  0  0  0  0  0
   11.6224   -1.2894   22.6167 C   0  0  0  0  0  0  0  0  0  0  0  0
    9.1734   -0.9298   22.1498 C   0  0  0  0  0  0  0  0  0  0  0  0
    8.1019   -1.5747   21.2848 C   0  0  0  0  0  0  0  0  0  0  0  0
   12.2087    3.0453   23.4606 C   0  0  0  0  0  0  0  0  0  0  0  0
   13.0146    1.2145   25.1097 C   0  0  0  0  0  0  0  0  0  0  0  0
   12.0504    2.3816   24.8456 C   0  0  0  0  0  0  0  0  0  0  0  0
    5.8177    0.9925   19.6935 N   0  0  0  0  0  0  0  0  0  0  0  0
    7.4966    0.3581   18.0853 N   0  0  0  0  0  0  0  0  0  0  0  0
   10.4076   -1.5831   21.9964 N   0  0  0  0  0  0  0  0  0  0  0  0
    8.9402    0.0335   22.8728 O   0  0  0  0  0  0  0  0  0  0  0  0
   10.4169   -2.3769   21.3455 H   0  0  0  0  0  0  0  0  0  0  0  0
  1  2  1  0  0  0  0
  1  3  2  0  0  0  0
  2  5  2  0  0  0  0
  3  6  1  0  0  0  0
  4  7  1  0  0  0  0
  4  8  2  0  0  0  0
  5 13  1  0  0  0  0
  6 13  2  0  0  0  0
  7 14  2  0  0  0  0
  8 16  1  0  0  0  0
  9 14  1  0  0  0  0
  9 16  2  0  0  0  0
 10 15  1  0  0  0  0
 10 22  2  0  0  0  0
 11 15  2  0  0  0  0
 11 23  1  0  0  0  0
 12 22  1  0  0  0  0
 12 23  2  0  0  0  0
 13 19  1  0  0  0  0
 14 20  1  0  0  0  0
 15 18  1  0  0  0  0
 16 24  1  0  0  0  0
 17 18  1  0  0  0  0
 17 24  1  0  0  0  0
 17 25  2  0  0  0  0
 19 21  1  0  0  0  0
 20 21  1  0  0  0  0
 24 26  1  0  0  0  0
M  END
> <ref_mols>
x2599_0

> <original SMILES>
O=C(CC=1C=NC=NC1)NC=2C=CC=C(CCCC=3C=CC=CC3)C2

> <Chemgauss4>
-9.786640

> <ref_pdb>
x0678_0

$$$$
x0350
  -OEChem-05172015543D

 17 18  0     0  0  0  0  0  0999 V2000
    4.8768    1.0760   20.4301 C   0  0  0  0  0  0  0  0  0  0  0  0
   13.1235    0.0978   23.3722 C   0  0  0  0  0  0  0  0  0  0  0  0
    5.6618    0.2262   21.2093 C   0  0  0  0  0  0  0  0  0  0  0  0
    5.2662    1.3856   19.1269 C   0  0  0  0  0  0  0  0  0  0  0  0
   11.7102    0.1506   23.4287 C   0  0  0  0  0  0  0  0  0  0  0  0
    7.2259   -0.0042   19.3824 C   0  0  0  0  0  0  0  0  0  0  0  0
   13.4372   -1.1003   22.7738 C   0  0  0  0  0  0  0  0  0  0  0  0
    6.8364   -0.3138   20.6855 C   0  0  0  0  0  0  0  0  0  0  0  0
    6.4407    0.8455   18.6031 C   0  0  0  0  0  0  0  0  0  0  0  0
   11.2612   -1.0188   22.8606 C   0  0  0  0  0  0  0  0  0  0  0  0
    7.6749   -1.2222   21.5196 C   0  0  0  0  0  0  0  0  0  0  0  0
    9.8917   -1.5797   22.6134 C   0  0  0  0  0  0  0  0  0  0  0  0
    9.0582   -0.7159   21.7373 N   0  3  0  0  0  0  0  0  0  0  0  0
   12.3076   -1.7869   22.4588 O   0  0  0  0  0  0  0  0  0  0  0  0
    6.8151    1.1431   17.3519 F   0  0  0  0  0  0  0  0  0  0  0  0
    9.5231   -0.6091   20.8261 H   0  0  0  0  0  0  0  0  0  0  0  0
    9.0093    0.2290   22.1409 H   0  0  0  0  0  0  0  0  0  0  0  0
  1  3  1  0  0  0  0
  1  4  2  0  0  0  0
  2  5  1  0  0  0  0
  2  7  2  0  0  0  0
  3  8  2  0  0  0  0
  4  9  1  0  0  0  0
  5 10  2  0  0  0  0
  6  8  1  0  0  0  0
  6  9  2  0  0  0  0
  7 14  1  0  0  0  0
  8 11  1  0  0  0  0
  9 15  1  0  0  0  0
 10 12  1  0  0  0  0
 10 14  1  0  0  0  0
 11 13  1  0  0  0  0
 12 13  1  0  0  0  0
 13 16  1  0  0  0  0
 13 17  1  0  0  0  0
M  CHG  1  13   1
M  END
> <ref_mols>
x0350_0

> <original SMILES>
FC=1C=CC=C(CNCC2=CC=CO2)C1

> <Chemgauss4>
-9.775595

> <ref_pdb>
x1093_0

$$$$
x0437
  -OEChem-05172015543D

 17 19  0     0  0  0  0  0  0999 V2000
    7.4644   -2.7276   22.4562 C   0  0  0  0  0  0  0  0  0  0  0  0
    7.6939   -5.1131   22.2530 C   0  0  0  0  0  0  0  0  0  0  0  0
    6.3242   -2.8249   21.6750 C   0  0  0  0  0  0  0  0  0  0  0  0
    6.5434   -5.1037   21.4811 C   0  0  0  0  0  0  0  0  0  0  0  0
    8.1566   -3.8981   22.7462 C   0  0  0  0  0  0  0  0  0  0  0  0
    9.3435   -3.8526   23.5507 C   0  0  0  0  0  0  0  0  0  0  0  0
   10.8845   -3.0888   24.7003 C   0  0  0  0  0  0  0  0  0  0  0  0
   13.5252   -0.1156   24.2485 C   0  0  0  0  0  0  0  0  0  0  0  0
   12.0435    0.1036   24.5259 C   0  0  0  0  0  0  0  0  0  0  0  0
   13.8347   -1.5760   23.9462 C   0  0  0  0  0  0  0  0  0  0  0  0
   11.5332   -0.7959   25.6490 C   0  0  0  0  0  0  0  0  0  0  0  0
   13.3554   -2.5036   25.0599 C   0  0  0  0  0  0  0  0  0  0  0  0
   11.8965   -2.2847   25.5005 C   0  0  0  0  0  0  0  0  0  0  0  0
    5.8441   -3.9870   21.1782 N   0  0  0  0  0  0  0  0  0  0  0  0
    9.8251   -2.6777   24.0504 N   0  0  0  0  0  0  0  0  0  0  0  0
   10.0461   -4.9466   23.8593 N   0  0  0  0  0  0  0  0  0  0  0  0
   11.0899   -4.4306   24.6376 O   0  0  0  0  0  0  0  0  0  0  0  0
  1  3  2  0  0  0  0
  1  5  1  0  0  0  0
  2  4  1  0  0  0  0
  2  5  2  0  0  0  0
  3 14  1  0  0  0  0
  4 14  2  0  0  0  0
  5  6  1  0  0  0  0
  6 15  1  0  0  0  0
  6 16  2  0  0  0  0
  7 13  1  0  0  0  0
  7 15  2  0  0  0  0
  7 17  1  0  0  0  0
  8  9  1  0  0  0  0
  8 10  1  0  0  0  0
  9 11  1  0  0  0  0
 10 12  1  0  0  0  0
 11 13  1  0  0  0  0
 12 13  1  0  0  0  0
 16 17  1  0  0  0  0
M  END
> <ref_mols>
x0437_0

> <original SMILES>
C1CCC(CC1)C2=NC(=NO2)C=3C=CN=CC3

> <Chemgauss4>
-9.766360

> <ref_pdb>
x0749_0

$$$$
x2617
  -OEChem-05172015543D

 18 19  0     0  0  0  0  0  0999 V2000
   12.7114   -1.0240   24.3197 C   0  0  0  0  0  0  0  0  0  0  0  0
   11.8038   -0.8060   23.2892 C   0  0  0  0  0  0  0  0  0  0  0  0
   13.9873   -1.4456   23.9818 C   0  0  0  0  0  0  0  0  0  0  0  0
   13.4934   -1.4352   21.7382 C   0  0  0  0  0  0  0  0  0  0  0  0
    6.1147    0.7420   19.6287 C   0  0  0  0  0  0  0  0  0  0  0  0
   12.1943   -1.0133   21.9709 C   0  0  0  0  0  0  0  0  0  0  0  0
    6.3395    0.5836   18.2837 C   0  0  0  0  0  0  0  0  0  0  0  0
    8.1222    0.0885   19.2837 C   0  0  0  0  0  0  0  0  0  0  0  0
    9.9560   -0.3771   20.9687 C   0  0  0  0  0  0  0  0  0  0  0  0
    5.4144    0.8016   17.1635 C   0  0  0  0  0  0  0  0  0  0  0  0
   14.4032   -1.6575   22.7131 N   0  0  0  0  0  0  0  0  0  0  0  0
    7.6277    0.1650   18.0688 N   0  0  0  0  0  0  0  0  0  0  0  0
   11.3073   -0.8035   20.9179 N   0  0  0  0  0  0  0  0  0  0  0  0
    9.4280   -0.2955   19.6702 N   0  0  0  0  0  0  0  0  0  0  0  0
    9.3448   -0.1191   22.0007 O   0  0  0  0  0  0  0  0  0  0  0  0
    7.2644    0.4235   20.2861 O   0  0  0  0  0  0  0  0  0  0  0  0
   11.6821   -0.9814   19.9788 H   0  0  0  0  0  0  0  0  0  0  0  0
   10.0559   -0.5420   18.9094 H   0  0  0  0  0  0  0  0  0  0  0  0
  1  2  2  0  0  0  0
  1  3  1  0  0  0  0
  2  6  1  0  0  0  0
  3 11  2  0  0  0  0
  4  6  2  0  0  0  0
  4 11  1  0  0  0  0
  5  7  2  0  0  0  0
  5 16  1  0  0  0  0
  6 13  1  0  0  0  0
  7 10  1  0  0  0  0
  7 12  1  0  0  0  0
  8 12  2  0  0  0  0
  8 14  1  0  0  0  0
  8 16  1  0  0  0  0
  9 13  1  0  0  0  0
  9 14  1  0  0  0  0
  9 15  2  0  0  0  0
 13 17  1  0  0  0  0
 14 18  1  0  0  0  0
M  END
> <ref_mols>
x2617_0

> <original SMILES>
CC1=COC(NC(=O)NC=2C=CC=NC2)=N1

> <Chemgauss4>
-9.765095

> <ref_pdb>
x0678_0

$$$$
x0076
  -OEChem-05172015543D

 17 18  0     0  0  0  0  0  0999 V2000
   13.0463   -1.8492   22.6287 C   0  0  0  0  0  0  0  0  0  0  0  0
   11.8683   -1.4091   23.2323 C   0  0  0  0  0  0  0  0  0  0  0  0
   14.1154   -0.9690   22.4615 C   0  0  0  0  0  0  0  0  0  0  0  0
   11.7594   -0.0887   23.6685 C   0  0  0  0  0  0  0  0  0  0  0  0
   14.0064    0.3514   22.8977 C   0  0  0  0  0  0  0  0  0  0  0  0
   12.8284    0.7916   23.5013 C   0  0  0  0  0  0  0  0  0  0  0  0
   14.1981    4.4835   22.3525 C   0  0  0  0  0  0  0  0  0  0  0  0
   12.5316    5.3661   23.9873 C   0  0  0  0  0  0  0  0  0  0  0  0
   13.1736    3.4994   21.8586 C   0  0  0  0  0  0  0  0  0  0  0  0
   11.5236    4.3739   23.4757 C   0  0  0  0  0  0  0  0  0  0  0  0
   12.7118    2.2120   23.9700 C   0  0  0  0  0  0  0  0  0  0  0  0
   13.7727    5.3366   23.3633 N   0  0  0  0  0  0  0  0  0  0  0  0
   12.1688    3.1384   22.9154 N   0  3  0  0  0  0  0  0  0  0  0  0
   15.3165    4.5532   21.8437 O   0  0  0  0  0  0  0  0  0  0  0  0
   12.2408    6.1814   24.8622 O   0  0  0  0  0  0  0  0  0  0  0  0
   14.4566    6.0093   23.6973 H   0  0  0  0  0  0  0  0  0  0  0  0
   11.4094    2.6072   22.4276 H   0  0  0  0  0  0  0  0  0  0  0  0
  1  2  1  0  0  0  0
  1  3  2  0  0  0  0
  2  4  2  0  0  0  0
  3  5  1  0  0  0  0
  4  6  1  0  0  0  0
  5  6  2  0  0  0  0
  6 11  1  0  0  0  0
  7  9  1  0  0  0  0
  7 12  1  0  0  0  0
  7 14  2  0  0  0  0
  8 10  1  0  0  0  0
  8 12  1  0  0  0  0
  8 15  2  0  0  0  0
  9 13  1  0  0  0  0
 10 13  1  0  0  0  0
 11 13  1  0  0  0  0
 12 16  1  0  0  0  0
 13 17  1  0  0  0  0
M  CHG  1  13   1
M  END
> <ref_mols>
x0076_0

> <original SMILES>
O=C1CN(CC=2C=CC=CC2)CC(=O)N1

> <Chemgauss4>
-9.763610

> <ref_pdb>
x0195_0

$$$$
x1073
  -OEChem-05172015543D

 17 18  0     0  0  0  0  0  0999 V2000
   13.0463   -1.8492   22.6287 C   0  0  0  0  0  0  0  0  0  0  0  0
   11.8683   -1.4091   23.2323 C   0  0  0  0  0  0  0  0  0  0  0  0
   14.1154   -0.9690   22.4615 C   0  0  0  0  0  0  0  0  0  0  0  0
   11.7594   -0.0887   23.6685 C   0  0  0  0  0  0  0  0  0  0  0  0
   14.0064    0.3514   22.8977 C   0  0  0  0  0  0  0  0  0  0  0  0
   12.8284    0.7916   23.5013 C   0  0  0  0  0  0  0  0  0  0  0  0
   14.1981    4.4835   22.3525 C   0  0  0  0  0  0  0  0  0  0  0  0
   12.5316    5.3661   23.9873 C   0  0  0  0  0  0  0  0  0  0  0  0
   13.1736    3.4994   21.8586 C   0  0  0  0  0  0  0  0  0  0  0  0
   11.5236    4.3739   23.4757 C   0  0  0  0  0  0  0  0  0  0  0  0
   12.7118    2.2120   23.9700 C   0  0  0  0  0  0  0  0  0  0  0  0
   13.7727    5.3366   23.3633 N   0  0  0  0  0  0  0  0  0  0  0  0
   12.1688    3.1384   22.9154 N   0  3  0  0  0  0  0  0  0  0  0  0
   15.3165    4.5532   21.8437 O   0  0  0  0  0  0  0  0  0  0  0  0
   12.2408    6.1814   24.8622 O   0  0  0  0  0  0  0  0  0  0  0  0
   14.4566    6.0093   23.6973 H   0  0  0  0  0  0  0  0  0  0  0  0
   11.4094    2.6072   22.4276 H   0  0  0  0  0  0  0  0  0  0  0  0
  1  2  1  0  0  0  0
  1  3  2  0  0  0  0
  2  4  2  0  0  0  0
  3  5  1  0  0  0  0
  4  6  1  0  0  0  0
  5  6  2  0  0  0  0
  6 11  1  0  0  0  0
  7  9  1  0  0  0  0
  7 12  1  0  0  0  0
  7 14  2  0  0  0  0
  8 10  1  0  0  0  0
  8 12  1  0  0  0  0
  8 15  2  0  0  0  0
  9 13  1  0  0  0  0
 10 13  1  0  0  0  0
 11 13  1  0  0  0  0
 12 16  1  0  0  0  0
 13 17  1  0  0  0  0
M  CHG  1  13   1
M  END
> <ref_mols>
x1073_0

> <original SMILES>
O=C1CN(CC=2C=CC=CC2)CC(=O)N1

> <Chemgauss4>
-9.763610

> <ref_pdb>
x0195_0

$$$$
x2615
  -OEChem-05172015543D

 20 21  0     0  0  0  0  0  0999 V2000
   13.2646   -0.4107   24.8127 C   0  0  0  0  0  0  0  0  0  0  0  0
   12.0197   -0.0182   24.3212 C   0  0  0  0  0  0  0  0  0  0  0  0
   14.1976   -0.9991   23.9588 C   0  0  0  0  0  0  0  0  0  0  0  0
    5.7154    1.2675   18.9399 C   0  0  0  0  0  0  0  0  0  0  0  0
   12.6405   -0.8026   22.1220 C   0  0  0  0  0  0  0  0  0  0  0  0
    6.2301    0.7705   17.7534 C   0  0  0  0  0  0  0  0  0  0  0  0
    8.2180    0.1969   18.7521 C   0  0  0  0  0  0  0  0  0  0  0  0
    6.5198    1.2112   20.0725 C   0  0  0  0  0  0  0  0  0  0  0  0
   11.7076   -0.2142   22.9759 C   0  0  0  0  0  0  0  0  0  0  0  0
    7.7965    0.6672   19.9853 C   0  0  0  0  0  0  0  0  0  0  0  0
   13.8855   -1.1951   22.6135 C   0  0  0  0  0  0  0  0  0  0  0  0
    9.9557    0.0678   21.1675 C   0  0  0  0  0  0  0  0  0  0  0  0
    5.9903    1.7405   21.3649 C   0  0  0  0  0  0  0  0  0  0  0  0
    7.4652    0.2347   17.6299 N   0  0  0  0  0  0  0  0  0  0  0  0
   10.4616    0.1780   22.4858 N   0  0  0  0  0  0  0  0  0  0  0  0
    8.6525    0.5872   21.1090 N   0  0  0  0  0  0  0  0  0  0  0  0
   10.5714   -0.4120   20.2210 O   0  0  0  0  0  0  0  0  0  0  0  0
   15.0366   -1.9210   21.5598 Cl  0  0  0  0  0  0  0  0  0  0  0  0
    9.8277    0.6024   23.1712 H   0  0  0  0  0  0  0  0  0  0  0  0
    8.2712    0.9532   21.9778 H   0  0  0  0  0  0  0  0  0  0  0  0
  1  2  2  0  0  0  0
  1  3  1  0  0  0  0
  2  9  1  0  0  0  0
  3 11  2  0  0  0  0
  4  6  2  0  0  0  0
  4  8  1  0  0  0  0
  5  9  2  0  0  0  0
  5 11  1  0  0  0  0
  6 14  1  0  0  0  0
  7 10  1  0  0  0  0
  7 14  2  0  0  0  0
  8 10  2  0  0  0  0
  8 13  1  0  0  0  0
  9 15  1  0  0  0  0
 10 16  1  0  0  0  0
 11 18  1  0  0  0  0
 12 15  1  0  0  0  0
 12 16  1  0  0  0  0
 12 17  2  0  0  0  0
 15 19  1  0  0  0  0
 16 20  1  0  0  0  0
M  END
> <ref_mols>
x2615_0

> <original SMILES>
CC=1C=CN=CC1NC(=O)NC=2C=CC=C(Cl)C2

> <Chemgauss4>
-9.759779

> <ref_pdb>
x0678_0

$$$$
x0221
  -OEChem-05172015543D

 13 13  0     0  0  0  0  0  0999 V2000
    7.6585    0.8673   20.2574 C   0  0  0  0  0  0  0  0  0  0  0  0
    7.2755    0.8371   18.9030 C   0  0  0  0  0  0  0  0  0  0  0  0
    8.8601    0.2027   20.2892 C   0  0  0  0  0  0  0  0  0  0  0  0
    9.7498   -0.0863   21.4433 C   0  0  0  0  0  0  0  0  0  0  0  0
   13.2578   -1.1901   21.5618 C   0  0  0  0  0  0  0  0  0  0  0  0
   11.4693   -2.5222   22.7335 C   0  0  0  0  0  0  0  0  0  0  0  0
   11.8630   -1.1647   22.1698 C   0  0  0  0  0  0  0  0  0  0  0  0
    8.1619    0.2037   18.1304 N   0  0  0  0  0  0  0  0  0  0  0  0
    9.1140   -0.1703   19.0021 N   0  0  0  0  0  0  0  0  0  0  0  0
   10.8845   -0.7766   21.1248 N   0  0  0  0  0  0  0  0  0  0  0  0
    9.4136    0.2797   22.5665 O   0  0  0  0  0  0  0  0  0  0  0  0
    9.9133   -0.6808   18.6476 H   0  0  0  0  0  0  0  0  0  0  0  0
   11.0900   -1.1109   20.2071 H   0  0  0  0  0  0  0  0  0  0  0  0
  1  2  1  0  0  0  0
  1  3  2  0  0  0  0
  2  8  2  0  0  0  0
  3  4  1  0  0  0  0
  3  9  1  0  0  0  0
  4 10  1  0  0  0  0
  4 11  2  0  0  0  0
  5  7  1  0  0  0  0
  6  7  1  0  0  0  0
  7 10  1  0  0  0  0
  8  9  1  0  0  0  0
  9 12  1  0  0  0  0
 10 13  1  0  0  0  0
M  END
> <ref_mols>
x0221_0

> <original SMILES>
CC(C)NC(=O)C=1C=CNN1

> <Chemgauss4>
-9.741217

> <ref_pdb>
x0678_0

$$$$
x1084
  -OEChem-05172015543D

 17 18  0     0  0  0  0  0  0999 V2000
   13.8709   -0.9959   23.9183 C   0  0  0  0  0  0  0  0  0  0  0  0
   12.9818   -0.0332   24.3960 C   0  0  0  0  0  0  0  0  0  0  0  0
   13.4008   -2.0557   23.1427 C   0  0  0  0  0  0  0  0  0  0  0  0
    8.3837   -3.3142   26.3269 C   0  0  0  0  0  0  0  0  0  0  0  0
    8.1153   -5.3395   25.0373 C   0  0  0  0  0  0  0  0  0  0  0  0
   11.6225   -0.1304   24.0984 C   0  0  0  0  0  0  0  0  0  0  0  0
   12.0415   -2.1529   22.8450 C   0  0  0  0  0  0  0  0  0  0  0  0
    8.8257   -2.6457   25.1853 C   0  0  0  0  0  0  0  0  0  0  0  0
    8.5573   -4.6710   23.8956 C   0  0  0  0  0  0  0  0  0  0  0  0
    8.0286   -4.6611   26.2530 C   0  0  0  0  0  0  0  0  0  0  0  0
   11.1524   -1.1902   23.3228 C   0  0  0  0  0  0  0  0  0  0  0  0
    8.9124   -3.3241   23.9696 C   0  0  0  0  0  0  0  0  0  0  0  0
    7.5622   -5.3664   27.4575 C   0  0  0  0  0  0  0  0  0  0  0  0
    9.6903   -1.2955   23.0025 C   0  0  0  0  0  0  0  0  0  0  0  0
    7.2401   -6.6098   27.3621 O   0  5  0  0  0  0  0  0  0  0  0  0
    7.4910   -4.7172   28.5676 O   0  0  0  0  0  0  0  0  0  0  0  0
    9.3436   -2.6717   22.8556 O   0  0  0  0  0  0  0  0  0  0  0  0
  1  2  1  0  0  0  0
  1  3  2  0  0  0  0
  2  6  2  0  0  0  0
  3  7  1  0  0  0  0
  4  8  2  0  0  0  0
  4 10  1  0  0  0  0
  5  9  1  0  0  0  0
  5 10  2  0  0  0  0
  6 11  1  0  0  0  0
  7 11  2  0  0  0  0
  8 12  1  0  0  0  0
  9 12  2  0  0  0  0
 10 13  1  0  0  0  0
 11 14  1  0  0  0  0
 12 17  1  0  0  0  0
 13 15  1  0  0  0  0
 13 16  2  0  0  0  0
 14 17  1  0  0  0  0
M  CHG  1  15  -1
M  END
> <ref_mols>
x1084_0

> <original SMILES>
OC(=O)C=1C=CC(OCC=2C=CC=CC2)=CC1

> <Chemgauss4>
-9.734284

> <ref_pdb>
x0072_0

$$$$
x0116
  -OEChem-05172015543D

 17 18  0     0  0  0  0  0  0999 V2000
   13.8709   -0.9959   23.9183 C   0  0  0  0  0  0  0  0  0  0  0  0
   12.9818   -0.0332   24.3960 C   0  0  0  0  0  0  0  0  0  0  0  0
   13.4008   -2.0557   23.1427 C   0  0  0  0  0  0  0  0  0  0  0  0
    8.3837   -3.3142   26.3269 C   0  0  0  0  0  0  0  0  0  0  0  0
    8.1153   -5.3395   25.0373 C   0  0  0  0  0  0  0  0  0  0  0  0
   11.6225   -0.1304   24.0984 C   0  0  0  0  0  0  0  0  0  0  0  0
   12.0415   -2.1529   22.8450 C   0  0  0  0  0  0  0  0  0  0  0  0
    8.8257   -2.6457   25.1853 C   0  0  0  0  0  0  0  0  0  0  0  0
    8.5573   -4.6710   23.8956 C   0  0  0  0  0  0  0  0  0  0  0  0
    8.0286   -4.6611   26.2530 C   0  0  0  0  0  0  0  0  0  0  0  0
   11.1524   -1.1902   23.3228 C   0  0  0  0  0  0  0  0  0  0  0  0
    8.9124   -3.3241   23.9696 C   0  0  0  0  0  0  0  0  0  0  0  0
    7.5622   -5.3664   27.4575 C   0  0  0  0  0  0  0  0  0  0  0  0
    9.6903   -1.2955   23.0025 C   0  0  0  0  0  0  0  0  0  0  0  0
    7.2401   -6.6098   27.3621 O   0  5  0  0  0  0  0  0  0  0  0  0
    7.4910   -4.7172   28.5676 O   0  0  0  0  0  0  0  0  0  0  0  0
    9.3436   -2.6717   22.8556 O   0  0  0  0  0  0  0  0  0  0  0  0
  1  2  1  0  0  0  0
  1  3  2  0  0  0  0
  2  6  2  0  0  0  0
  3  7  1  0  0  0  0
  4  8  2  0  0  0  0
  4 10  1  0  0  0  0
  5  9  1  0  0  0  0
  5 10  2  0  0  0  0
  6 11  1  0  0  0  0
  7 11  2  0  0  0  0
  8 12  1  0  0  0  0
  9 12  2  0  0  0  0
 10 13  1  0  0  0  0
 11 14  1  0  0  0  0
 12 17  1  0  0  0  0
 13 15  1  0  0  0  0
 13 16  2  0  0  0  0
 14 17  1  0  0  0  0
M  CHG  1  15  -1
M  END
> <ref_mols>
x0116_0

> <original SMILES>
OC(=O)C=1C=CC(OCC=2C=CC=CC2)=CC1

> <Chemgauss4>
-9.734284

> <ref_pdb>
x0072_0

$$$$
x2029
  -OEChem-05172015543D

 18 20  0     0  0  0  0  0  0999 V2000
    7.3214   -5.9920   21.9773 C   0  0  0  0  0  0  0  0  0  0  0  0
    8.2580   -5.7630   22.9894 C   0  0  0  0  0  0  0  0  0  0  0  0
    6.7431   -4.9337   21.2818 C   0  0  0  0  0  0  0  0  0  0  0  0
    8.5834   -2.1602   23.1442 C   0  0  0  0  0  0  0  0  0  0  0  0
    8.0274   -3.3534   22.5972 C   0  0  0  0  0  0  0  0  0  0  0  0
    8.5977   -4.4340   23.2820 C   0  0  0  0  0  0  0  0  0  0  0  0
    7.0854   -3.6110   21.5806 C   0  0  0  0  0  0  0  0  0  0  0  0
    9.4662   -2.5278   24.1340 C   0  0  0  0  0  0  0  0  0  0  0  0
   14.9201   -1.7121   26.5780 C   0  0  0  0  0  0  0  0  0  0  0  0
   14.0269   -2.2705   25.7584 C   0  0  0  0  0  0  0  0  0  0  0  0
   12.7267   -1.5978   25.5545 C   0  0  0  0  0  0  0  0  0  0  0  0
   10.3226   -1.7458   25.0600 C   0  0  0  0  0  0  0  0  0  0  0  0
   10.3265   -4.5819   25.1392 C   0  0  0  0  0  0  0  0  0  0  0  0
   11.6832   -3.8849   25.2303 C   0  0  0  0  0  0  0  0  0  0  0  0
    9.4654   -3.8963   24.1978 N   0  0  0  0  0  0  0  0  0  0  0  0
   11.6221   -2.4067   25.2704 N   0  0  0  0  0  0  0  0  0  0  0  0
   12.6928   -0.3696   25.6420 O   0  0  0  0  0  0  0  0  0  0  0  0
    6.4086   -2.2749   20.7659 Cl  0  0  0  0  0  0  0  0  0  0  0  0
  1  2  1  0  0  0  0
  1  3  2  0  0  0  0
  2  6  2  0  0  0  0
  3  7  1  0  0  0  0
  4  5  1  0  0  0  0
  4  8  2  0  0  0  0
  5  6  1  0  0  0  0
  5  7  2  0  0  0  0
  6 15  1  0  0  0  0
  7 18  1  0  0  0  0
  8 12  1  0  0  0  0
  8 15  1  0  0  0  0
  9 10  2  0  0  0  0
 10 11  1  0  0  0  0
 11 16  1  0  0  0  0
 11 17  2  0  0  0  0
 12 16  1  0  0  0  0
 13 14  1  0  0  0  0
 13 15  1  0  0  0  0
 14 16  1  0  0  0  0
M  END
> <ref_mols>
x2029_0

> <original SMILES>
Clc1cccc2c1cc3CN(CCn23)C(=O)C=C

> <Chemgauss4>
-9.699213

> <ref_pdb>
x0749_0

> <CYS145-warhead dist minimum (A)>
12.932681

> <CYS145-warhead dist mean (A)>
14.055853

> <CYS145-warhead dist stddev (A)>
0.37996718

$$$$
x2831
  -OEChem-05172015543D

 26 28  0     0  0  0  0  0  0999 V2000
    4.5449    1.8276   18.4776 C   0  0  0  0  0  0  0  0  0  0  0  0
    4.6672    1.6993   19.8645 C   0  0  0  0  0  0  0  0  0  0  0  0
    5.4842    1.2518   17.6121 C   0  0  0  0  0  0  0  0  0  0  0  0
    5.7296    0.9926   20.4390 C   0  0  0  0  0  0  0  0  0  0  0  0
   13.1737   -1.1459   21.9747 C   0  0  0  0  0  0  0  0  0  0  0  0
   14.2948   -1.8690   22.3182 C   0  0  0  0  0  0  0  0  0  0  0  0
   13.3739   -0.6277   24.2316 C   0  0  0  0  0  0  0  0  0  0  0  0
   12.6402   -0.4268   23.0830 C   0  0  0  0  0  0  0  0  0  0  0  0
    6.5539    0.5408   18.1753 C   0  0  0  0  0  0  0  0  0  0  0  0
    6.6487    0.4303   19.5558 C   0  0  0  0  0  0  0  0  0  0  0  0
    9.6083    0.0751   21.3722 C   0  0  0  0  0  0  0  0  0  0  0  0
    6.9050   -3.2880   23.8004 C   0  0  0  0  0  0  0  0  0  0  0  0
    7.0375   -1.4287   26.2075 C   0  0  0  0  0  0  0  0  0  0  0  0
    9.4030   -2.1013   26.6005 C   0  0  0  0  0  0  0  0  0  0  0  0
   11.4211    0.4461   23.0061 C   0  0  0  0  0  0  0  0  0  0  0  0
    8.3868   -0.7431   20.9927 C   0  0  0  0  0  0  0  0  0  0  0  0
    8.0086   -3.2977   24.8513 C   0  0  0  0  0  0  0  0  0  0  0  0
    8.8269   -0.8645   24.4991 C   0  0  0  0  0  0  0  0  0  0  0  0
    9.8162   -1.3702   23.4507 C   0  0  0  0  0  0  0  0  0  0  0  0
    8.3219   -1.9281   25.5123 C   0  0  0  0  0  0  0  0  0  0  0  0
    7.6049   -0.1174   17.5932 N   0  0  0  0  0  0  0  0  0  0  0  0
    8.3533   -0.6353   18.5611 N   0  0  0  0  0  0  0  0  0  0  0  0
    7.7828   -0.3083   19.7325 N   0  0  0  0  0  0  0  0  0  0  0  0
   10.2345   -0.3042   22.5798 N   0  0  0  0  0  0  0  0  0  0  0  0
    9.9967    0.9989   20.6523 O   0  0  0  0  0  0  0  0  0  0  0  0
   14.6999   -1.6795   23.9711 S   0  0  0  0  0  0  0  0  0  0  0  0
  1  2  1  0  0  0  0
  1  3  2  0  0  0  0
  2  4  2  0  0  0  0
  3  9  1  0  0  0  0
  4 10  1  0  0  0  0
  5  6  2  0  0  0  0
  5  8  1  0  0  0  0
  6 26  1  0  0  0  0
  7  8  2  0  0  0  0
  7 26  1  0  0  0  0
  8 15  1  0  0  0  0
  9 10  2  0  0  0  0
  9 21  1  0  0  0  0
 10 23  1  0  0  0  0
 11 16  1  0  0  0  0
 11 24  1  0  0  0  0
 11 25  2  0  0  0  0
 12 17  1  0  0  0  0
 13 20  1  0  0  0  0
 14 20  1  0  0  0  0
 15 24  1  0  0  0  0
 16 23  1  0  0  0  0
 17 20  1  0  0  0  0
 18 19  1  0  0  0  0
 18 20  1  0  0  0  0
 19 24  1  0  0  0  0
 21 22  2  0  0  0  0
 22 23  1  0  0  0  0
M  END
> <ref_mols>
x2831_0

> <original SMILES>
CCC(C)(C)CCN(CC=1C=CSC1)C(=O)CN2N=NC=3C=CC=CC23

> <Chemgauss4>
-9.695564

> <ref_pdb>
x0678_0

$$$$
x0830
  -OEChem-05172015543D

 22 24  0     0  0  0  0  0  0999 V2000
   10.7361    1.9921   25.8673 C   0  0  0  0  0  0  0  0  0  0  0  0
    9.8184    0.9541   25.7354 C   0  0  0  0  0  0  0  0  0  0  0  0
   13.5992   -0.1172   22.5468 C   0  0  0  0  0  0  0  0  0  0  0  0
   11.9073    1.9895   25.1093 C   0  0  0  0  0  0  0  0  0  0  0  0
   10.0684   -0.0904   24.8449 C   0  0  0  0  0  0  0  0  0  0  0  0
   13.3491    0.9274   23.4372 C   0  0  0  0  0  0  0  0  0  0  0  0
   12.6815   -1.1551   22.4149 C   0  0  0  0  0  0  0  0  0  0  0  0
   12.1754    0.9462   24.2082 C   0  0  0  0  0  0  0  0  0  0  0  0
   11.2421   -0.1093   24.0740 C   0  0  0  0  0  0  0  0  0  0  0  0
   11.5102   -1.1526   23.1728 C   0  0  0  0  0  0  0  0  0  0  0  0
    6.1031   -2.0158   19.7094 C   0  0  0  0  0  0  0  0  0  0  0  0
    6.8763   -2.5260   22.0036 C   0  0  0  0  0  0  0  0  0  0  0  0
    7.8880   -0.6022   20.8424 C   0  0  0  0  0  0  0  0  0  0  0  0
    8.2540   -3.0426   22.3918 C   0  0  0  0  0  0  0  0  0  0  0  0
    9.2819   -1.0891   21.2150 C   0  0  0  0  0  0  0  0  0  0  0  0
   10.5644   -2.3014   22.9816 C   0  0  0  0  0  0  0  0  0  0  0  0
    6.2358   -1.1398   18.4893 C   0  0  0  0  0  0  0  0  0  0  0  0
    6.9411   -1.7209   20.7838 N   0  0  0  0  0  0  0  0  0  0  0  0
    9.2048   -1.8721   22.5066 N   0  3  0  0  0  0  0  0  0  0  0  0
    5.2808   -2.9355   19.7048 O   0  0  0  0  0  0  0  0  0  0  0  0
    5.0869    0.1786   18.6884 Cl  0  0  0  0  0  0  0  0  0  0  0  0
    8.8293   -1.2398   23.2270 H   0  0  0  0  0  0  0  0  0  0  0  0
  1  2  1  0  0  0  0
  1  4  2  0  0  0  0
  2  5  2  0  0  0  0
  3  6  1  0  0  0  0
  3  7  2  0  0  0  0
  4  8  1  0  0  0  0
  5  9  1  0  0  0  0
  6  8  2  0  0  0  0
  7 10  1  0  0  0  0
  8  9  1  0  0  0  0
  9 10  2  0  0  0  0
 10 16  1  0  0  0  0
 11 17  1  0  0  0  0
 11 18  1  0  0  0  0
 11 20  2  0  0  0  0
 12 14  1  0  0  0  0
 12 18  1  0  0  0  0
 13 15  1  0  0  0  0
 13 18  1  0  0  0  0
 14 19  1  0  0  0  0
 15 19  1  0  0  0  0
 16 19  1  0  0  0  0
 17 21  1  0  0  0  0
 19 22  1  0  0  0  0
M  CHG  1  19   1
M  END
> <ref_mols>
x0830_0

> <original SMILES>
ClCC(=O)N1CCN(Cc2cccc3ccccc23)CC1

> <Chemgauss4>
-9.686901

> <ref_pdb>
x0830_0

> <CYS145-warhead dist minimum (A)>
7.0834618

> <CYS145-warhead dist mean (A)>
10.962802

> <CYS145-warhead dist stddev (A)>
1.3188595

$$$$
x1462
  -OEChem-05172015543D

 22 24  0     0  0  0  0  0  0999 V2000
   10.7361    1.9921   25.8673 C   0  0  0  0  0  0  0  0  0  0  0  0
    9.8184    0.9541   25.7354 C   0  0  0  0  0  0  0  0  0  0  0  0
   13.5992   -0.1172   22.5468 C   0  0  0  0  0  0  0  0  0  0  0  0
   11.9073    1.9895   25.1093 C   0  0  0  0  0  0  0  0  0  0  0  0
   10.0684   -0.0904   24.8449 C   0  0  0  0  0  0  0  0  0  0  0  0
   13.3491    0.9274   23.4372 C   0  0  0  0  0  0  0  0  0  0  0  0
   12.6815   -1.1551   22.4149 C   0  0  0  0  0  0  0  0  0  0  0  0
   12.1754    0.9462   24.2082 C   0  0  0  0  0  0  0  0  0  0  0  0
   11.2421   -0.1093   24.0740 C   0  0  0  0  0  0  0  0  0  0  0  0
   11.5102   -1.1526   23.1728 C   0  0  0  0  0  0  0  0  0  0  0  0
    6.1031   -2.0158   19.7094 C   0  0  0  0  0  0  0  0  0  0  0  0
    6.8763   -2.5260   22.0036 C   0  0  0  0  0  0  0  0  0  0  0  0
    7.8880   -0.6022   20.8424 C   0  0  0  0  0  0  0  0  0  0  0  0
    8.2540   -3.0426   22.3918 C   0  0  0  0  0  0  0  0  0  0  0  0
    9.2819   -1.0891   21.2150 C   0  0  0  0  0  0  0  0  0  0  0  0
   10.5644   -2.3014   22.9816 C   0  0  0  0  0  0  0  0  0  0  0  0
    6.2358   -1.1398   18.4893 C   0  0  0  0  0  0  0  0  0  0  0  0
    6.9411   -1.7209   20.7838 N   0  0  0  0  0  0  0  0  0  0  0  0
    9.2048   -1.8721   22.5066 N   0  3  0  0  0  0  0  0  0  0  0  0
    5.2808   -2.9355   19.7048 O   0  0  0  0  0  0  0  0  0  0  0  0
    5.0869    0.1786   18.6884 Cl  0  0  0  0  0  0  0  0  0  0  0  0
    8.8293   -1.2398   23.2270 H   0  0  0  0  0  0  0  0  0  0  0  0
  1  2  1  0  0  0  0
  1  4  2  0  0  0  0
  2  5  2  0  0  0  0
  3  6  1  0  0  0  0
  3  7  2  0  0  0  0
  4  8  1  0  0  0  0
  5  9  1  0  0  0  0
  6  8  2  0  0  0  0
  7 10  1  0  0  0  0
  8  9  1  0  0  0  0
  9 10  2  0  0  0  0
 10 16  1  0  0  0  0
 11 17  1  0  0  0  0
 11 18  1  0  0  0  0
 11 20  2  0  0  0  0
 12 14  1  0  0  0  0
 12 18  1  0  0  0  0
 13 15  1  0  0  0  0
 13 18  1  0  0  0  0
 14 19  1  0  0  0  0
 15 19  1  0  0  0  0
 16 19  1  0  0  0  0
 17 21  1  0  0  0  0
 19 22  1  0  0  0  0
M  CHG  1  19   1
M  END
> <ref_mols>
x1462_0

> <original SMILES>
ClCC(=O)N1CCN(Cc2cccc3ccccc23)CC1

> <Chemgauss4>
-9.686901

> <ref_pdb>
x0830_0

$$$$
x0756
  -OEChem-05172015543D

 22 24  0     0  0  0  0  0  0999 V2000
   10.7361    1.9921   25.8673 C   0  0  0  0  0  0  0  0  0  0  0  0
    9.8184    0.9541   25.7354 C   0  0  0  0  0  0  0  0  0  0  0  0
   13.5992   -0.1172   22.5468 C   0  0  0  0  0  0  0  0  0  0  0  0
   11.9073    1.9895   25.1093 C   0  0  0  0  0  0  0  0  0  0  0  0
   10.0684   -0.0904   24.8449 C   0  0  0  0  0  0  0  0  0  0  0  0
   13.3491    0.9274   23.4372 C   0  0  0  0  0  0  0  0  0  0  0  0
   12.6815   -1.1551   22.4149 C   0  0  0  0  0  0  0  0  0  0  0  0
   12.1754    0.9462   24.2082 C   0  0  0  0  0  0  0  0  0  0  0  0
   11.2421   -0.1093   24.0740 C   0  0  0  0  0  0  0  0  0  0  0  0
   11.5102   -1.1526   23.1728 C   0  0  0  0  0  0  0  0  0  0  0  0
    6.1031   -2.0158   19.7094 C   0  0  0  0  0  0  0  0  0  0  0  0
    6.8763   -2.5260   22.0036 C   0  0  0  0  0  0  0  0  0  0  0  0
    7.8880   -0.6022   20.8424 C   0  0  0  0  0  0  0  0  0  0  0  0
    8.2540   -3.0426   22.3918 C   0  0  0  0  0  0  0  0  0  0  0  0
    9.2819   -1.0891   21.2150 C   0  0  0  0  0  0  0  0  0  0  0  0
   10.5644   -2.3014   22.9816 C   0  0  0  0  0  0  0  0  0  0  0  0
    6.2358   -1.1398   18.4893 C   0  0  0  0  0  0  0  0  0  0  0  0
    6.9411   -1.7209   20.7838 N   0  0  0  0  0  0  0  0  0  0  0  0
    9.2048   -1.8721   22.5066 N   0  3  0  0  0  0  0  0  0  0  0  0
    5.2808   -2.9355   19.7048 O   0  0  0  0  0  0  0  0  0  0  0  0
    5.0869    0.1786   18.6884 Cl  0  0  0  0  0  0  0  0  0  0  0  0
    8.8293   -1.2398   23.2270 H   0  0  0  0  0  0  0  0  0  0  0  0
  1  2  1  0  0  0  0
  1  4  2  0  0  0  0
  2  5  2  0  0  0  0
  3  6  1  0  0  0  0
  3  7  2  0  0  0  0
  4  8  1  0  0  0  0
  5  9  1  0  0  0  0
  6  8  2  0  0  0  0
  7 10  1  0  0  0  0
  8  9  1  0  0  0  0
  9 10  2  0  0  0  0
 10 16  1  0  0  0  0
 11 17  1  0  0  0  0
 11 18  1  0  0  0  0
 11 20  2  0  0  0  0
 12 14  1  0  0  0  0
 12 18  1  0  0  0  0
 13 15  1  0  0  0  0
 13 18  1  0  0  0  0
 14 19  1  0  0  0  0
 15 19  1  0  0  0  0
 16 19  1  0  0  0  0
 17 21  1  0  0  0  0
 19 22  1  0  0  0  0
M  CHG  1  19   1
M  END
> <ref_mols>
x0756_0

> <original SMILES>
ClCC(=O)N1CCN(Cc2cccc3ccccc23)CC1

> <Chemgauss4>
-9.686901

> <ref_pdb>
x0830_0

> <CYS145-warhead dist minimum (A)>
5.2516074

> <CYS145-warhead dist mean (A)>
6.7452626

> <CYS145-warhead dist stddev (A)>
0.3276452

$$$$
x1103
  -OEChem-05172015543D

 18 20  0     0  0  0  0  0  0999 V2000
   14.3512   -1.8629   23.4042 C   0  0  0  0  0  0  0  0  0  0  0  0
   14.0775   -0.8507   24.3269 C   0  0  0  0  0  0  0  0  0  0  0  0
    5.7035    1.0365   19.0417 C   0  0  0  0  0  0  0  0  0  0  0  0
   13.5671   -2.0225   22.2546 C   0  0  0  0  0  0  0  0  0  0  0  0
   13.0136    0.0372   24.1361 C   0  0  0  0  0  0  0  0  0  0  0  0
    6.7636    0.6742   19.9066 C   0  0  0  0  0  0  0  0  0  0  0  0
    6.1951    0.9143   17.7629 C   0  0  0  0  0  0  0  0  0  0  0  0
   12.4940   -1.1395   22.0471 C   0  0  0  0  0  0  0  0  0  0  0  0
   12.2463   -0.1406   22.9845 C   0  0  0  0  0  0  0  0  0  0  0  0
    7.8273    0.3560   19.0947 C   0  0  0  0  0  0  0  0  0  0  0  0
   10.7976   -0.0698   21.3138 C   0  0  0  0  0  0  0  0  0  0  0  0
    9.2306   -0.0999   19.3724 C   0  0  0  0  0  0  0  0  0  0  0  0
   11.5842   -1.0797   21.0165 N   0  0  0  0  0  0  0  0  0  0  0  0
   11.1559    0.5281   22.4899 N   0  0  0  0  0  0  0  0  0  0  0  0
    9.7365    0.4265   20.6404 N   0  0  0  0  0  0  0  0  0  0  0  0
    7.4890    0.4997   17.7865 O   0  0  0  0  0  0  0  0  0  0  0  0
   10.6983    1.3221   22.9174 H   0  0  0  0  0  0  0  0  0  0  0  0
    9.2221    1.2362   21.0173 H   0  0  0  0  0  0  0  0  0  0  0  0
  1  2  1  0  0  0  0
  1  4  2  0  0  0  0
  2  5  2  0  0  0  0
  3  6  1  0  0  0  0
  3  7  2  0  0  0  0
  4  8  1  0  0  0  0
  5  9  1  0  0  0  0
  6 10  2  0  0  0  0
  7 16  1  0  0  0  0
  8  9  2  0  0  0  0
  8 13  1  0  0  0  0
  9 14  1  0  0  0  0
 10 12  1  0  0  0  0
 10 16  1  0  0  0  0
 11 13  2  0  0  0  0
 11 14  1  0  0  0  0
 11 15  1  0  0  0  0
 12 15  1  0  0  0  0
 14 17  1  0  0  0  0
 15 18  1  0  0  0  0
M  END
> <ref_mols>
x1103_0

> <original SMILES>
C(NC1=NC=2C=CC=CC2N1)C3=CC=CO3

> <Chemgauss4>
-9.681434

> <ref_pdb>
x0678_0

$$$$
x0358
  -OEChem-05172015543D

 18 20  0     0  0  0  0  0  0999 V2000
   14.3512   -1.8629   23.4042 C   0  0  0  0  0  0  0  0  0  0  0  0
   14.0775   -0.8507   24.3269 C   0  0  0  0  0  0  0  0  0  0  0  0
    5.7035    1.0365   19.0417 C   0  0  0  0  0  0  0  0  0  0  0  0
   13.5671   -2.0225   22.2546 C   0  0  0  0  0  0  0  0  0  0  0  0
   13.0136    0.0372   24.1361 C   0  0  0  0  0  0  0  0  0  0  0  0
    6.7636    0.6742   19.9066 C   0  0  0  0  0  0  0  0  0  0  0  0
    6.1951    0.9143   17.7629 C   0  0  0  0  0  0  0  0  0  0  0  0
   12.4940   -1.1395   22.0471 C   0  0  0  0  0  0  0  0  0  0  0  0
   12.2463   -0.1406   22.9845 C   0  0  0  0  0  0  0  0  0  0  0  0
    7.8273    0.3560   19.0947 C   0  0  0  0  0  0  0  0  0  0  0  0
   10.7976   -0.0698   21.3138 C   0  0  0  0  0  0  0  0  0  0  0  0
    9.2306   -0.0999   19.3724 C   0  0  0  0  0  0  0  0  0  0  0  0
   11.5842   -1.0797   21.0165 N   0  0  0  0  0  0  0  0  0  0  0  0
   11.1559    0.5281   22.4899 N   0  0  0  0  0  0  0  0  0  0  0  0
    9.7365    0.4265   20.6404 N   0  0  0  0  0  0  0  0  0  0  0  0
    7.4890    0.4997   17.7865 O   0  0  0  0  0  0  0  0  0  0  0  0
   10.6983    1.3221   22.9174 H   0  0  0  0  0  0  0  0  0  0  0  0
    9.2221    1.2362   21.0173 H   0  0  0  0  0  0  0  0  0  0  0  0
  1  2  1  0  0  0  0
  1  4  2  0  0  0  0
  2  5  2  0  0  0  0
  3  6  1  0  0  0  0
  3  7  2  0  0  0  0
  4  8  1  0  0  0  0
  5  9  1  0  0  0  0
  6 10  2  0  0  0  0
  7 16  1  0  0  0  0
  8  9  2  0  0  0  0
  8 13  1  0  0  0  0
  9 14  1  0  0  0  0
 10 12  1  0  0  0  0
 10 16  1  0  0  0  0
 11 13  2  0  0  0  0
 11 14  1  0  0  0  0
 11 15  1  0  0  0  0
 12 15  1  0  0  0  0
 14 17  1  0  0  0  0
 15 18  1  0  0  0  0
M  END
> <ref_mols>
x0358_0

> <original SMILES>
C(NC1=NC=2C=CC=CC2N1)C3=CC=CO3

> <Chemgauss4>
-9.681434

> <ref_pdb>
x0678_0

$$$$
x2866
  -OEChem-05172015543D

 22 23  0     0  0  0  0  0  0999 V2000
   14.1747   -0.2285   24.1266 C   0  0  0  0  0  0  0  0  0  0  0  0
   13.0207    0.3468   23.5948 C   0  0  0  0  0  0  0  0  0  0  0  0
   14.4194   -1.5906   23.9515 C   0  0  0  0  0  0  0  0  0  0  0  0
    6.8532    1.0060   20.2332 C   0  0  0  0  0  0  0  0  0  0  0  0
   12.3559   -1.8020   22.7128 C   0  0  0  0  0  0  0  0  0  0  0  0
    6.3327    0.4814   17.9726 C   0  0  0  0  0  0  0  0  0  0  0  0
    8.4691    0.1140   18.7334 C   0  0  0  0  0  0  0  0  0  0  0  0
   12.1113   -0.4400   22.8879 C   0  0  0  0  0  0  0  0  0  0  0  0
    5.9185    0.9608   19.2048 C   0  0  0  0  0  0  0  0  0  0  0  0
    8.1551    0.5764   20.0012 C   0  0  0  0  0  0  0  0  0  0  0  0
   13.5100   -2.3773   23.2447 C   0  0  0  0  0  0  0  0  0  0  0  0
   10.2319   -0.2408   21.2006 C   0  0  0  0  0  0  0  0  0  0  0  0
    7.5884    0.0553   17.7094 N   0  0  0  0  0  0  0  0  0  0  0  0
    4.5963    1.3882   19.4089 N   0  0  0  0  0  0  0  0  0  0  0  0
   10.9569    0.1365   22.3573 N   0  0  0  0  0  0  0  0  0  0  0  0
    9.1285    0.6102   21.0276 N   0  0  0  0  0  0  0  0  0  0  0  0
   10.5300   -1.1748   20.4632 O   0  0  0  0  0  0  0  0  0  0  0  0
   13.8117   -4.0579   23.0285 Cl  0  0  0  0  0  0  0  0  0  0  0  0
    4.3093    1.6869   20.3222 H   0  0  0  0  0  0  0  0  0  0  0  0
    3.9293    1.3016   18.6650 H   0  0  0  0  0  0  0  0  0  0  0  0
   10.5837    0.9402   22.8734 H   0  0  0  0  0  0  0  0  0  0  0  0
    9.0087    1.3437   21.7216 H   0  0  0  0  0  0  0  0  0  0  0  0
  1  2  2  0  0  0  0
  1  3  1  0  0  0  0
  2  8  1  0  0  0  0
  3 11  2  0  0  0  0
  4  9  2  0  0  0  0
  4 10  1  0  0  0  0
  5  8  2  0  0  0  0
  5 11  1  0  0  0  0
  6  9  1  0  0  0  0
  6 13  2  0  0  0  0
  7 10  2  0  0  0  0
  7 13  1  0  0  0  0
  8 15  1  0  0  0  0
  9 14  1  0  0  0  0
 10 16  1  0  0  0  0
 11 18  1  0  0  0  0
 12 15  1  0  0  0  0
 12 16  1  0  0  0  0
 12 17  2  0  0  0  0
 14 19  1  0  0  0  0
 14 20  1  0  0  0  0
 15 21  1  0  0  0  0
 16 22  1  0  0  0  0
M  END
> <ref_mols>
x2866_0

> <original SMILES>
NC=1C=NC=C(NC(=O)NC=2C=CC=C(Cl)C2)C1

> <Chemgauss4>
-9.678142

> <ref_pdb>
x0678_0

$$$$
x0606
  -OEChem-05172015543D

 17 18  0     0  0  0  0  0  0999 V2000
    6.4564    0.1915   18.0199 C   0  0  0  0  0  0  0  0  0  0  0  0
    6.1293    0.3656   19.3466 C   0  0  0  0  0  0  0  0  0  0  0  0
    8.6736    0.4020   18.5389 C   0  0  0  0  0  0  0  0  0  0  0  0
    8.3465    0.5769   19.8655 C   0  0  0  0  0  0  0  0  0  0  0  0
   13.2827   -1.1276   23.0882 C   0  0  0  0  0  0  0  0  0  0  0  0
   11.3860   -0.3598   21.9134 C   0  0  0  0  0  0  0  0  0  0  0  0
    9.3670    0.7863   20.8749 C   0  0  0  0  0  0  0  0  0  0  0  0
   14.9555   -1.3303   24.9448 C   0  0  0  0  0  0  0  0  0  0  0  0
   14.4402   -1.8806   23.6108 C   0  0  0  0  0  0  0  0  0  0  0  0
    7.7345    0.2065   17.5922 N   0  0  0  0  0  0  0  0  0  0  0  0
    7.0685    0.5615   20.2932 N   0  0  0  0  0  0  0  0  0  0  0  0
   12.8733    0.0412   23.5334 N   0  0  0  0  0  0  0  0  0  0  0  0
   11.7602    0.4911   22.8450 N   0  0  0  0  0  0  0  0  0  0  0  0
   10.3037   -0.2530   21.0039 N   0  0  0  0  0  0  0  0  0  0  0  0
    9.3811    1.7991   21.5918 O   0  0  0  0  0  0  0  0  0  0  0  0
   12.3527   -1.7719   21.7991 S   0  0  0  0  0  0  0  0  0  0  0  0
   10.1903   -1.0317   20.3596 H   0  0  0  0  0  0  0  0  0  0  0  0
  1  2  2  0  0  0  0
  1 10  1  0  0  0  0
  2 11  1  0  0  0  0
  3  4  1  0  0  0  0
  3 10  2  0  0  0  0
  4  7  1  0  0  0  0
  4 11  2  0  0  0  0
  5  9  1  0  0  0  0
  5 12  2  0  0  0  0
  5 16  1  0  0  0  0
  6 13  2  0  0  0  0
  6 14  1  0  0  0  0
  6 16  1  0  0  0  0
  7 14  1  0  0  0  0
  7 15  2  0  0  0  0
  8  9  1  0  0  0  0
 12 13  1  0  0  0  0
 14 17  1  0  0  0  0
M  END
> <ref_mols>
x0606_0

> <original SMILES>
CCC1=NN=C(NC(=O)C=2C=NC=CN2)S1

> <Chemgauss4>
-9.664877

> <ref_pdb>
x0678_0

$$$$
x1108
  -OEChem-05172015543D

 17 18  0     0  0  0  0  0  0999 V2000
    6.4564    0.1915   18.0199 C   0  0  0  0  0  0  0  0  0  0  0  0
    6.1293    0.3656   19.3466 C   0  0  0  0  0  0  0  0  0  0  0  0
    8.6736    0.4020   18.5389 C   0  0  0  0  0  0  0  0  0  0  0  0
    8.3465    0.5769   19.8655 C   0  0  0  0  0  0  0  0  0  0  0  0
   13.2827   -1.1276   23.0882 C   0  0  0  0  0  0  0  0  0  0  0  0
   11.3860   -0.3598   21.9134 C   0  0  0  0  0  0  0  0  0  0  0  0
    9.3670    0.7863   20.8749 C   0  0  0  0  0  0  0  0  0  0  0  0
   14.9555   -1.3303   24.9448 C   0  0  0  0  0  0  0  0  0  0  0  0
   14.4402   -1.8806   23.6108 C   0  0  0  0  0  0  0  0  0  0  0  0
    7.7345    0.2065   17.5922 N   0  0  0  0  0  0  0  0  0  0  0  0
    7.0685    0.5615   20.2932 N   0  0  0  0  0  0  0  0  0  0  0  0
   12.8733    0.0412   23.5334 N   0  0  0  0  0  0  0  0  0  0  0  0
   11.7602    0.4911   22.8450 N   0  0  0  0  0  0  0  0  0  0  0  0
   10.3037   -0.2530   21.0039 N   0  0  0  0  0  0  0  0  0  0  0  0
    9.3811    1.7991   21.5918 O   0  0  0  0  0  0  0  0  0  0  0  0
   12.3527   -1.7719   21.7991 S   0  0  0  0  0  0  0  0  0  0  0  0
   10.1903   -1.0317   20.3596 H   0  0  0  0  0  0  0  0  0  0  0  0
  1  2  2  0  0  0  0
  1 10  1  0  0  0  0
  2 11  1  0  0  0  0
  3  4  1  0  0  0  0
  3 10  2  0  0  0  0
  4  7  1  0  0  0  0
  4 11  2  0  0  0  0
  5  9  1  0  0  0  0
  5 12  2  0  0  0  0
  5 16  1  0  0  0  0
  6 13  2  0  0  0  0
  6 14  1  0  0  0  0
  6 16  1  0  0  0  0
  7 14  1  0  0  0  0
  7 15  2  0  0  0  0
  8  9  1  0  0  0  0
 12 13  1  0  0  0  0
 14 17  1  0  0  0  0
M  END
> <ref_mols>
x1108_0

> <original SMILES>
CCC1=NN=C(NC(=O)C=2C=NC=CN2)S1

> <Chemgauss4>
-9.664877

> <ref_pdb>
x0678_0

$$$$
x0128
  -OEChem-05172015543D

 18 19  0     0  0  0  0  0  0999 V2000
    7.8678   -6.1545   22.9470 C   0  0  0  0  0  0  0  0  0  0  0  0
    7.0206   -5.3395   22.1963 C   0  0  0  0  0  0  0  0  0  0  0  0
    8.9667   -5.6008   23.6039 C   0  0  0  0  0  0  0  0  0  0  0  0
   12.8075   -2.9084   25.6536 C   0  0  0  0  0  0  0  0  0  0  0  0
    8.3711   -3.4169   22.7594 C   0  0  0  0  0  0  0  0  0  0  0  0
   13.8022   -2.0454   26.1450 C   0  0  0  0  0  0  0  0  0  0  0  0
    7.2722   -3.9707   22.1025 C   0  0  0  0  0  0  0  0  0  0  0  0
    9.2183   -4.2320   23.5101 C   0  0  0  0  0  0  0  0  0  0  0  0
   11.9713   -2.0777   24.9558 C   0  0  0  0  0  0  0  0  0  0  0  0
    6.3782   -3.1116   21.3093 C   0  0  0  0  0  0  0  0  0  0  0  0
   10.7356   -2.3324   24.1957 C   0  0  0  0  0  0  0  0  0  0  0  0
   13.5984   -0.7765   25.7800 N   0  0  0  0  0  0  0  0  0  0  0  0
   10.3169   -3.6781   24.1683 N   0  0  0  0  0  0  0  0  0  0  0  0
    6.6320   -1.8509   21.2387 O   0  5  0  0  0  0  0  0  0  0  0  0
    5.3714   -3.6487   20.7123 O   0  0  0  0  0  0  0  0  0  0  0  0
   10.1540   -1.4215   23.6101 O   0  0  0  0  0  0  0  0  0  0  0  0
   12.4327   -0.8028   25.0238 O   0  0  0  0  0  0  0  0  0  0  0  0
   10.8957   -4.3365   24.7022 H   0  0  0  0  0  0  0  0  0  0  0  0
  1  2  2  0  0  0  0
  1  3  1  0  0  0  0
  2  7  1  0  0  0  0
  3  8  2  0  0  0  0
  4  6  1  0  0  0  0
  4  9  2  0  0  0  0
  5  7  2  0  0  0  0
  5  8  1  0  0  0  0
  6 12  2  0  0  0  0
  7 10  1  0  0  0  0
  8 13  1  0  0  0  0
  9 11  1  0  0  0  0
  9 17  1  0  0  0  0
 10 14  1  0  0  0  0
 10 15  2  0  0  0  0
 11 13  1  0  0  0  0
 11 16  2  0  0  0  0
 12 17  1  0  0  0  0
 13 18  1  0  0  0  0
M  CHG  1  14  -1
M  END
> <ref_mols>
x0128_0

> <original SMILES>
OC(=O)C=1C=CC=C(NC(=O)C2=CC=NO2)C1

> <Chemgauss4>
-9.649740

> <ref_pdb>
x0749_0

$$$$
x0435
  -OEChem-05172015543D

 18 19  0     0  0  0  0  0  0999 V2000
   13.7296   -0.1219   22.8763 C   0  0  0  0  0  0  0  0  0  0  0  0
   13.5883   -1.3063   22.1533 C   0  0  0  0  0  0  0  0  0  0  0  0
   12.6535    0.3816   23.6074 C   0  0  0  0  0  0  0  0  0  0  0  0
   12.3710   -1.9872   22.1612 C   0  0  0  0  0  0  0  0  0  0  0  0
   11.4362   -0.2994   23.6154 C   0  0  0  0  0  0  0  0  0  0  0  0
    6.7456    1.0325   21.0522 C   0  0  0  0  0  0  0  0  0  0  0  0
    7.7214   -0.6130   19.5767 C   0  0  0  0  0  0  0  0  0  0  0  0
    5.8419    1.3929   20.0528 C   0  0  0  0  0  0  0  0  0  0  0  0
    6.8176   -0.2526   18.5772 C   0  0  0  0  0  0  0  0  0  0  0  0
   11.2949   -1.4838   22.8923 C   0  0  0  0  0  0  0  0  0  0  0  0
    7.6854    0.0296   20.8142 C   0  0  0  0  0  0  0  0  0  0  0  0
    5.8779    0.7503   18.8152 C   0  0  0  0  0  0  0  0  0  0  0  0
    9.9929   -2.2113   22.9010 C   0  0  0  0  0  0  0  0  0  0  0  0
    8.6573   -0.3591   21.8890 C   0  0  0  0  0  0  0  0  0  0  0  0
    9.0703   -1.7847   21.8130 N   0  3  0  0  0  0  0  0  0  0  0  0
    5.0082    1.0944   17.8563 F   0  0  0  0  0  0  0  0  0  0  0  0
    9.5203   -1.9586   20.9046 H   0  0  0  0  0  0  0  0  0  0  0  0
    8.2326   -2.3813   21.8309 H   0  0  0  0  0  0  0  0  0  0  0  0
  1  2  1  0  0  0  0
  1  3  2  0  0  0  0
  2  4  2  0  0  0  0
  3  5  1  0  0  0  0
  4 10  1  0  0  0  0
  5 10  2  0  0  0  0
  6  8  2  0  0  0  0
  6 11  1  0  0  0  0
  7  9  1  0  0  0  0
  7 11  2  0  0  0  0
  8 12  1  0  0  0  0
  9 12  2  0  0  0  0
 10 13  1  0  0  0  0
 11 14  1  0  0  0  0
 12 16  1  0  0  0  0
 13 15  1  0  0  0  0
 14 15  1  0  0  0  0
 15 17  1  0  0  0  0
 15 18  1  0  0  0  0
M  CHG  1  15   1
M  END
> <ref_mols>
x0435_0

> <original SMILES>
FC=1C=CC(CNCC=2C=CC=CC2)=CC1

> <Chemgauss4>
-9.645031

> <ref_pdb>
x1093_0

$$$$
x0729
  -OEChem-05172015543D

 20 21  0     0  0  0  0  0  0999 V2000
   13.1765    1.6077   23.8209 C   0  0  0  0  0  0  0  0  0  0  0  0
   13.5432    0.6801   22.8460 C   0  0  0  0  0  0  0  0  0  0  0  0
   11.9629    1.4687   24.4945 C   0  0  0  0  0  0  0  0  0  0  0  0
   11.4828   -0.5255   23.2180 C   0  0  0  0  0  0  0  0  0  0  0  0
   12.6964   -0.3865   22.5445 C   0  0  0  0  0  0  0  0  0  0  0  0
   11.1161    0.4021   24.1930 C   0  0  0  0  0  0  0  0  0  0  0  0
    6.3697   -1.1391   19.3292 C   0  0  0  0  0  0  0  0  0  0  0  0
    8.4493   -0.0763   20.1459 C   0  0  0  0  0  0  0  0  0  0  0  0
    8.4509   -2.5181   19.8136 C   0  0  0  0  0  0  0  0  0  0  0  0
    9.0583   -0.2436   21.5303 C   0  0  0  0  0  0  0  0  0  0  0  0
    9.0622   -2.7222   21.1932 C   0  0  0  0  0  0  0  0  0  0  0  0
   10.5980   -1.6851   22.8669 C   0  0  0  0  0  0  0  0  0  0  0  0
    5.5796    0.0093   19.9043 C   0  0  0  0  0  0  0  0  0  0  0  0
    7.6901   -1.2653   19.7583 N   0  0  0  0  0  0  0  0  0  0  0  0
    9.8880   -1.5078   21.5542 N   0  3  0  0  0  0  0  0  0  0  0  0
    5.8286   -1.8984   18.5213 O   0  0  0  0  0  0  0  0  0  0  0  0
   13.0589   -1.2716   21.6053 F   0  0  0  0  0  0  0  0  0  0  0  0
    9.6222    0.2645   25.0470 Cl  0  0  0  0  0  0  0  0  0  0  0  0
    5.8518    1.3884   18.8452 Cl  0  0  0  0  0  0  0  0  0  0  0  0
   10.6196   -1.4097   20.8367 H   0  0  0  0  0  0  0  0  0  0  0  0
  1  2  2  0  0  0  0
  1  3  1  0  0  0  0
  2  5  1  0  0  0  0
  3  6  2  0  0  0  0
  4  5  2  0  0  0  0
  4  6  1  0  0  0  0
  4 12  1  0  0  0  0
  5 17  1  0  0  0  0
  6 18  1  0  0  0  0
  7 13  1  0  0  0  0
  7 14  1  0  0  0  0
  7 16  2  0  0  0  0
  8 10  1  0  0  0  0
  8 14  1  0  0  0  0
  9 11  1  0  0  0  0
  9 14  1  0  0  0  0
 10 15  1  0  0  0  0
 11 15  1  0  0  0  0
 12 15  1  0  0  0  0
 13 19  1  0  0  0  0
 15 20  1  0  0  0  0
M  CHG  1  15   1
M  END
> <ref_mols>
x0729_0

> <original SMILES>
Fc1cccc(Cl)c1CN2CCN(CC2)C(=O)CCl

> <Chemgauss4>
-9.636753

> <ref_pdb>
x0830_0

> <CYS145-warhead dist minimum (A)>
7.8702097

> <CYS145-warhead dist mean (A)>
10.455321

> <CYS145-warhead dist stddev (A)>
1.0784607

$$$$
x0803
  -OEChem-05172015543D

 20 21  0     0  0  0  0  0  0999 V2000
   13.1765    1.6077   23.8209 C   0  0  0  0  0  0  0  0  0  0  0  0
   13.5432    0.6801   22.8460 C   0  0  0  0  0  0  0  0  0  0  0  0
   11.9629    1.4687   24.4945 C   0  0  0  0  0  0  0  0  0  0  0  0
   11.4828   -0.5255   23.2180 C   0  0  0  0  0  0  0  0  0  0  0  0
   12.6964   -0.3865   22.5445 C   0  0  0  0  0  0  0  0  0  0  0  0
   11.1161    0.4021   24.1930 C   0  0  0  0  0  0  0  0  0  0  0  0
    6.3697   -1.1391   19.3292 C   0  0  0  0  0  0  0  0  0  0  0  0
    8.4493   -0.0763   20.1459 C   0  0  0  0  0  0  0  0  0  0  0  0
    8.4509   -2.5181   19.8136 C   0  0  0  0  0  0  0  0  0  0  0  0
    9.0583   -0.2436   21.5303 C   0  0  0  0  0  0  0  0  0  0  0  0
    9.0622   -2.7222   21.1932 C   0  0  0  0  0  0  0  0  0  0  0  0
   10.5980   -1.6851   22.8669 C   0  0  0  0  0  0  0  0  0  0  0  0
    5.5796    0.0093   19.9043 C   0  0  0  0  0  0  0  0  0  0  0  0
    7.6901   -1.2653   19.7583 N   0  0  0  0  0  0  0  0  0  0  0  0
    9.8880   -1.5078   21.5542 N   0  3  0  0  0  0  0  0  0  0  0  0
    5.8286   -1.8984   18.5213 O   0  0  0  0  0  0  0  0  0  0  0  0
   13.0589   -1.2716   21.6053 F   0  0  0  0  0  0  0  0  0  0  0  0
    9.6222    0.2645   25.0470 Cl  0  0  0  0  0  0  0  0  0  0  0  0
    5.8518    1.3884   18.8452 Cl  0  0  0  0  0  0  0  0  0  0  0  0
   10.6196   -1.4097   20.8367 H   0  0  0  0  0  0  0  0  0  0  0  0
  1  2  2  0  0  0  0
  1  3  1  0  0  0  0
  2  5  1  0  0  0  0
  3  6  2  0  0  0  0
  4  5  2  0  0  0  0
  4  6  1  0  0  0  0
  4 12  1  0  0  0  0
  5 17  1  0  0  0  0
  6 18  1  0  0  0  0
  7 13  1  0  0  0  0
  7 14  1  0  0  0  0
  7 16  2  0  0  0  0
  8 10  1  0  0  0  0
  8 14  1  0  0  0  0
  9 11  1  0  0  0  0
  9 14  1  0  0  0  0
 10 15  1  0  0  0  0
 11 15  1  0  0  0  0
 12 15  1  0  0  0  0
 13 19  1  0  0  0  0
 15 20  1  0  0  0  0
M  CHG  1  15   1
M  END
> <ref_mols>
x0803_0

> <original SMILES>
Fc1cccc(Cl)c1CN2CCN(CC2)C(=O)CCl

> <Chemgauss4>
-9.636753

> <ref_pdb>
x0830_0

$$$$
x0609
  -OEChem-05172015543D

 16 17  0     0  0  0  0  0  0999 V2000
   12.6553   -1.7887   25.3998 C   0  0  0  0  0  0  0  0  0  0  0  0
   11.4021   -3.8873   25.3239 C   0  0  0  0  0  0  0  0  0  0  0  0
   10.5888   -1.9668   24.1043 C   0  0  0  0  0  0  0  0  0  0  0  0
   10.3132   -4.6340   24.8742 C   0  0  0  0  0  0  0  0  0  0  0  0
    9.4999   -2.7135   23.6545 C   0  0  0  0  0  0  0  0  0  0  0  0
   11.5399   -2.5536   24.9390 C   0  0  0  0  0  0  0  0  0  0  0  0
    9.3621   -4.0472   24.0395 C   0  0  0  0  0  0  0  0  0  0  0  0
    7.0525   -4.7890   24.4115 C   0  0  0  0  0  0  0  0  0  0  0  0
    8.0783   -4.9991   22.1481 C   0  0  0  0  0  0  0  0  0  0  0  0
    6.2070   -6.0262   24.1392 C   0  0  0  0  0  0  0  0  0  0  0  0
    7.2287   -6.2355   21.8832 C   0  0  0  0  0  0  0  0  0  0  0  0
    4.9315   -5.2144   22.1160 C   0  0  0  0  0  0  0  0  0  0  0  0
   13.5613   -1.1673   25.7739 N   0  0  0  0  0  0  0  0  0  0  0  0
    8.2689   -4.7969   23.5880 N   0  0  0  0  0  0  0  0  0  0  0  0
    5.9428   -6.1824   22.6647 N   0  3  0  0  0  0  0  0  0  0  0  0
    5.4974   -7.1412   22.5514 H   0  0  0  0  0  0  0  0  0  0  0  0
  1  6  1  0  0  0  0
  1 13  3  0  0  0  0
  2  4  2  0  0  0  0
  2  6  1  0  0  0  0
  3  5  1  0  0  0  0
  3  6  2  0  0  0  0
  4  7  1  0  0  0  0
  5  7  2  0  0  0  0
  7 14  1  0  0  0  0
  8 10  1  0  0  0  0
  8 14  1  0  0  0  0
  9 11  1  0  0  0  0
  9 14  1  0  0  0  0
 10 15  1  0  0  0  0
 11 15  1  0  0  0  0
 12 15  1  0  0  0  0
 15 16  1  0  0  0  0
M  CHG  1  15   1
M  END
> <ref_mols>
x0609_0

> <original SMILES>
CN1CCN(CC1)C=2C=CC(C#N)=CC2

> <Chemgauss4>
-9.630262

> <ref_pdb>
x0749_0

> <CYS145-warhead dist minimum (A)>
9.229117

> <CYS145-warhead dist mean (A)>
10.1481905

> <CYS145-warhead dist stddev (A)>
0.40539247

$$$$
x1265
  -OEChem-05172015543D

 16 17  0     0  0  0  0  0  0999 V2000
   12.6553   -1.7887   25.3998 C   0  0  0  0  0  0  0  0  0  0  0  0
   11.4021   -3.8873   25.3239 C   0  0  0  0  0  0  0  0  0  0  0  0
   10.5888   -1.9668   24.1043 C   0  0  0  0  0  0  0  0  0  0  0  0
   10.3132   -4.6340   24.8742 C   0  0  0  0  0  0  0  0  0  0  0  0
    9.4999   -2.7135   23.6545 C   0  0  0  0  0  0  0  0  0  0  0  0
   11.5399   -2.5536   24.9390 C   0  0  0  0  0  0  0  0  0  0  0  0
    9.3621   -4.0472   24.0395 C   0  0  0  0  0  0  0  0  0  0  0  0
    7.0525   -4.7890   24.4115 C   0  0  0  0  0  0  0  0  0  0  0  0
    8.0783   -4.9991   22.1481 C   0  0  0  0  0  0  0  0  0  0  0  0
    6.2070   -6.0262   24.1392 C   0  0  0  0  0  0  0  0  0  0  0  0
    7.2287   -6.2355   21.8832 C   0  0  0  0  0  0  0  0  0  0  0  0
    4.9315   -5.2144   22.1160 C   0  0  0  0  0  0  0  0  0  0  0  0
   13.5613   -1.1673   25.7739 N   0  0  0  0  0  0  0  0  0  0  0  0
    8.2689   -4.7969   23.5880 N   0  0  0  0  0  0  0  0  0  0  0  0
    5.9428   -6.1824   22.6647 N   0  3  0  0  0  0  0  0  0  0  0  0
    5.4974   -7.1412   22.5514 H   0  0  0  0  0  0  0  0  0  0  0  0
  1  6  1  0  0  0  0
  1 13  3  0  0  0  0
  2  4  2  0  0  0  0
  2  6  1  0  0  0  0
  3  5  1  0  0  0  0
  3  6  2  0  0  0  0
  4  7  1  0  0  0  0
  5  7  2  0  0  0  0
  7 14  1  0  0  0  0
  8 10  1  0  0  0  0
  8 14  1  0  0  0  0
  9 11  1  0  0  0  0
  9 14  1  0  0  0  0
 10 15  1  0  0  0  0
 11 15  1  0  0  0  0
 12 15  1  0  0  0  0
 15 16  1  0  0  0  0
M  CHG  1  15   1
M  END
> <ref_mols>
x1265_0

> <original SMILES>
CN1CCN(CC1)C=2C=CC(C#N)=CC2

> <Chemgauss4>
-9.630262

> <ref_pdb>
x0749_0

> <CYS145-warhead dist minimum (A)>
23.328537

> <CYS145-warhead dist mean (A)>
33.997105

> <CYS145-warhead dist stddev (A)>
4.2556005

$$$$
x2804
  -OEChem-05172015543D

 25 26  0     1  0  0  0  0  0999 V2000
   10.8061   -2.0902   23.3343 C   0  0  0  0  0  0  0  0  0  0  0  0
    8.8646   -0.7295   23.7991 C   0  0  0  0  0  0  0  0  0  0  0  0
   10.0916   -3.2328   23.6944 C   0  0  0  0  0  0  0  0  0  0  0  0
    8.1500   -1.8721   24.1592 C   0  0  0  0  0  0  0  0  0  0  0  0
   10.1926   -0.8386   23.3867 C   0  0  0  0  0  0  0  0  0  0  0  0
    8.7636   -3.1237   24.1068 C   0  0  0  0  0  0  0  0  0  0  0  0
   13.0785    1.4795   22.9688 C   0  0  0  0  0  0  0  0  0  0  0  0
   11.1496    2.3107   21.6088 C   0  0  0  0  0  0  0  0  0  0  0  0
   12.1223    0.6191   23.7944 C   0  0  0  0  0  0  0  0  0  0  0  0
   10.1964    1.4465   22.4351 C   0  0  0  0  0  0  0  0  0  0  0  0
   12.4061    2.7258   22.3816 C   0  0  0  0  0  0  0  0  0  0  0  0
   11.5324    5.9290   25.0765 C   0  0  0  0  0  0  0  0  0  0  0  0
    9.6636    5.7529   23.3880 C   0  0  0  0  0  0  0  0  0  0  0  0
   13.2896    5.7014   22.4209 C   0  0  0  0  0  0  0  0  0  0  0  0
   12.0999    3.7732   23.4540 C   0  0  0  0  0  0  0  0  0  0  0  0
   11.1345    6.0629   23.6154 C   0  0  0  0  0  0  0  0  0  0  0  0
   10.9095    0.3089   23.0252 N   0  0  0  0  0  0  0  0  0  0  0  0
    6.3541   -3.8743   24.9647 N   0  0  0  0  0  0  0  0  0  0  0  0
   11.9602    5.0917   22.8029 N   0  3  1  0  0  0  0  0  0  0  0  0
    7.7075   -5.3872   23.3756 O   0  0  0  0  0  0  0  0  0  0  0  0
    8.4676   -5.1130   25.7620 O   0  0  0  0  0  0  0  0  0  0  0  0
    7.8686   -4.5532   24.5584 S   0  0  0  0  0  0  0  0  0  0  0  0
    5.5658   -4.0382   24.3266 H   0  0  0  0  0  0  0  0  0  0  0  0
    6.0873   -3.8499   25.9564 H   0  0  0  0  0  0  0  0  0  0  0  0
   11.4450    4.9598   21.9133 H   0  0  0  0  0  0  0  0  0  0  0  0
  1  3  2  0  0  0  0
  1  5  1  0  0  0  0
  2  4  1  0  0  0  0
  2  5  2  0  0  0  0
  3  6  1  0  0  0  0
  4  6  2  0  0  0  0
  5 17  1  0  0  0  0
  6 22  1  0  0  0  0
  7  9  1  0  0  0  0
  7 11  1  0  0  0  0
  8 10  1  0  0  0  0
  8 11  1  0  0  0  0
  9 17  1  0  0  0  0
 10 17  1  0  0  0  0
 11 15  1  0  0  0  0
 12 16  1  0  0  0  0
 13 16  1  0  0  0  0
 14 19  1  0  0  0  0
 15 19  1  0  0  0  0
 16 19  1  0  0  0  0
 18 22  1  0  0  0  0
 20 22  2  0  0  0  0
 21 22  2  0  0  0  0
 18 23  1  0  0  0  0
 18 24  1  0  0  0  0
 19 25  1  0  0  0  0
M  CHG  1  19   1
M  END
> <ref_mols>
x2804_0

> <original SMILES>
CC(C)N(C)CC1CCN(CC1)C=2C=CC(=CC2)S(=O)(=O)N

> <Chemgauss4>
-9.625897

> <ref_pdb>
x0104_0

$$$$
x2658
  -OEChem-05172015543D

 17 18  0     0  0  0  0  0  0999 V2000
   13.1452   -0.4387   24.2904 C   0  0  0  0  0  0  0  0  0  0  0  0
    6.4766    0.4467   19.7640 C   0  0  0  0  0  0  0  0  0  0  0  0
   11.8572   -0.1758   23.8242 C   0  0  0  0  0  0  0  0  0  0  0  0
    7.5976    0.1880   20.5448 C   0  0  0  0  0  0  0  0  0  0  0  0
   14.0265   -1.1937   23.5164 C   0  0  0  0  0  0  0  0  0  0  0  0
   12.3315   -1.4230   21.8101 C   0  0  0  0  0  0  0  0  0  0  0  0
    6.6179    0.3890   18.3869 C   0  0  0  0  0  0  0  0  0  0  0  0
    8.8456   -0.1490   18.5485 C   0  0  0  0  0  0  0  0  0  0  0  0
   11.4503   -0.6679   22.5841 C   0  0  0  0  0  0  0  0  0  0  0  0
    8.8087   -0.1163   19.9332 C   0  0  0  0  0  0  0  0  0  0  0  0
   13.6196   -1.6859   22.2763 C   0  0  0  0  0  0  0  0  0  0  0  0
   10.1070   -0.3939   22.0992 C   0  0  0  0  0  0  0  0  0  0  0  0
    7.7777    0.0968   17.7568 N   0  0  0  0  0  0  0  0  0  0  0  0
    9.9690   -0.3845   20.7025 N   0  0  0  0  0  0  0  0  0  0  0  0
    9.1709   -0.1535   22.8745 O   0  0  0  0  0  0  0  0  0  0  0  0
   14.7077   -2.6171   21.3215 Cl  0  0  0  0  0  0  0  0  0  0  0  0
   10.8109   -0.5978   20.1734 H   0  0  0  0  0  0  0  0  0  0  0  0
  1  3  1  0  0  0  0
  1  5  2  0  0  0  0
  2  4  2  0  0  0  0
  2  7  1  0  0  0  0
  3  9  2  0  0  0  0
  4 10  1  0  0  0  0
  5 11  1  0  0  0  0
  6  9  1  0  0  0  0
  6 11  2  0  0  0  0
  7 13  2  0  0  0  0
  8 10  2  0  0  0  0
  8 13  1  0  0  0  0
  9 12  1  0  0  0  0
 10 14  1  0  0  0  0
 11 16  1  0  0  0  0
 12 14  1  0  0  0  0
 12 15  2  0  0  0  0
 14 17  1  0  0  0  0
M  END
> <ref_mols>
x2658_0

> <original SMILES>
ClC=1C=CC=C(C1)C(=O)NC=2C=CC=NC2

> <Chemgauss4>
-9.620449

> <ref_pdb>
x0678_0

$$$$
x2490
  -OEChem-05172015543D

 17 18  0     0  0  0  0  0  0999 V2000
   13.1452   -0.4387   24.2904 C   0  0  0  0  0  0  0  0  0  0  0  0
    6.4766    0.4467   19.7640 C   0  0  0  0  0  0  0  0  0  0  0  0
   11.8572   -0.1758   23.8242 C   0  0  0  0  0  0  0  0  0  0  0  0
    7.5976    0.1880   20.5448 C   0  0  0  0  0  0  0  0  0  0  0  0
   14.0265   -1.1937   23.5164 C   0  0  0  0  0  0  0  0  0  0  0  0
   12.3315   -1.4230   21.8101 C   0  0  0  0  0  0  0  0  0  0  0  0
    6.6179    0.3890   18.3869 C   0  0  0  0  0  0  0  0  0  0  0  0
    8.8456   -0.1490   18.5485 C   0  0  0  0  0  0  0  0  0  0  0  0
   11.4503   -0.6679   22.5841 C   0  0  0  0  0  0  0  0  0  0  0  0
    8.8087   -0.1163   19.9332 C   0  0  0  0  0  0  0  0  0  0  0  0
   13.6196   -1.6859   22.2763 C   0  0  0  0  0  0  0  0  0  0  0  0
   10.1070   -0.3939   22.0992 C   0  0  0  0  0  0  0  0  0  0  0  0
    7.7777    0.0968   17.7568 N   0  0  0  0  0  0  0  0  0  0  0  0
    9.9690   -0.3845   20.7025 N   0  0  0  0  0  0  0  0  0  0  0  0
    9.1709   -0.1535   22.8745 O   0  0  0  0  0  0  0  0  0  0  0  0
   14.7077   -2.6171   21.3215 Cl  0  0  0  0  0  0  0  0  0  0  0  0
   10.8109   -0.5978   20.1734 H   0  0  0  0  0  0  0  0  0  0  0  0
  1  3  1  0  0  0  0
  1  5  2  0  0  0  0
  2  4  2  0  0  0  0
  2  7  1  0  0  0  0
  3  9  2  0  0  0  0
  4 10  1  0  0  0  0
  5 11  1  0  0  0  0
  6  9  1  0  0  0  0
  6 11  2  0  0  0  0
  7 13  2  0  0  0  0
  8 10  2  0  0  0  0
  8 13  1  0  0  0  0
  9 12  1  0  0  0  0
 10 14  1  0  0  0  0
 11 16  1  0  0  0  0
 12 14  1  0  0  0  0
 12 15  2  0  0  0  0
 14 17  1  0  0  0  0
M  END
> <ref_mols>
x2490_0

> <original SMILES>
ClC=1C=CC=C(C1)C(=O)NC=2C=CC=NC2

> <Chemgauss4>
-9.620449

> <ref_pdb>
x0678_0

$$$$
x0377
  -OEChem-05172015543D

 19 21  0     0  0  0  0  0  0999 V2000
    4.9246    1.4441   20.5320 C   0  0  0  0  0  0  0  0  0  0  0  0
    4.8344    1.6919   19.1637 C   0  0  0  0  0  0  0  0  0  0  0  0
    5.8822    0.5574   21.0378 C   0  0  0  0  0  0  0  0  0  0  0  0
    5.6953    1.0639   18.2592 C   0  0  0  0  0  0  0  0  0  0  0  0
    8.3252   -1.2972   19.0497 C   0  0  0  0  0  0  0  0  0  0  0  0
    6.7611   -0.0875   20.1450 C   0  0  0  0  0  0  0  0  0  0  0  0
    7.8237   -1.0211   20.3008 C   0  0  0  0  0  0  0  0  0  0  0  0
    6.6476    0.1801   18.7791 C   0  0  0  0  0  0  0  0  0  0  0  0
   11.8681   -2.0227   22.9459 C   0  0  0  0  0  0  0  0  0  0  0  0
   11.4356    0.4159   22.4863 C   0  0  0  0  0  0  0  0  0  0  0  0
   10.3791   -2.3070   22.8034 C   0  0  0  0  0  0  0  0  0  0  0  0
    9.9488    0.1191   22.3463 C   0  0  0  0  0  0  0  0  0  0  0  0
   12.1302   -0.5868   23.4151 C   0  0  0  0  0  0  0  0  0  0  0  0
   13.6295   -0.3067   23.4911 C   0  0  0  0  0  0  0  0  0  0  0  0
    8.3164   -1.6071   21.5911 C   0  0  0  0  0  0  0  0  0  0  0  0
    7.6096   -0.5679   18.1385 N   0  0  0  0  0  0  0  0  0  0  0  0
    9.7629   -1.2990   21.8639 N   0  3  0  0  0  0  0  0  0  0  0  0
    7.7644   -0.5768   17.1398 H   0  0  0  0  0  0  0  0  0  0  0  0
   10.2523   -1.3821   20.9621 H   0  0  0  0  0  0  0  0  0  0  0  0
  1  2  1  0  0  0  0
  1  3  2  0  0  0  0
  2  4  2  0  0  0  0
  3  6  1  0  0  0  0
  4  8  1  0  0  0  0
  5  7  2  0  0  0  0
  5 16  1  0  0  0  0
  6  7  1  0  0  0  0
  6  8  2  0  0  0  0
  7 15  1  0  0  0  0
  8 16  1  0  0  0  0
  9 11  1  0  0  0  0
  9 13  1  0  0  0  0
 10 12  1  0  0  0  0
 10 13  1  0  0  0  0
 11 17  1  0  0  0  0
 12 17  1  0  0  0  0
 13 14  1  0  0  0  0
 15 17  1  0  0  0  0
 16 18  1  0  0  0  0
 17 19  1  0  0  0  0
M  CHG  1  17   1
M  END
> <ref_mols>
x0377_0

> <original SMILES>
CC1CCN(CC2=CNC=3C=CC=CC23)CC1

> <Chemgauss4>
-9.612991

> <ref_pdb>
x1093_0

$$$$
x2630
  -OEChem-05172015543D

 27 29  0     0  0  0  0  0  0999 V2000
   12.7792   -0.0669   24.1447 C   0  0  0  0  0  0  0  0  0  0  0  0
   13.5919   -2.0878   23.0994 C   0  0  0  0  0  0  0  0  0  0  0  0
    7.4692   -4.0231   26.5749 C   0  0  0  0  0  0  0  0  0  0  0  0
    6.3863   -5.4830   24.9833 C   0  0  0  0  0  0  0  0  0  0  0  0
   11.5978   -0.1616   23.4093 C   0  0  0  0  0  0  0  0  0  0  0  0
   12.4104   -2.1825   22.3640 C   0  0  0  0  0  0  0  0  0  0  0  0
    6.9669   -4.7936   27.6234 C   0  0  0  0  0  0  0  0  0  0  0  0
    5.8840   -6.2536   26.0319 C   0  0  0  0  0  0  0  0  0  0  0  0
   13.7763   -1.0299   23.9897 C   0  0  0  0  0  0  0  0  0  0  0  0
    7.1788   -4.3677   25.2548 C   0  0  0  0  0  0  0  0  0  0  0  0
   11.4133   -1.2194   22.5190 C   0  0  0  0  0  0  0  0  0  0  0  0
    6.1743   -5.9089   27.3520 C   0  0  0  0  0  0  0  0  0  0  0  0
    8.5428   -1.4097   23.5469 C   0  0  0  0  0  0  0  0  0  0  0  0
    9.3868   -3.5089   22.4616 C   0  0  0  0  0  0  0  0  0  0  0  0
    7.3422   -2.1849   24.0908 C   0  0  0  0  0  0  0  0  0  0  0  0
    8.1686   -4.2559   22.9984 C   0  0  0  0  0  0  0  0  0  0  0  0
    9.0752   -2.0256   22.2523 C   0  0  0  0  0  0  0  0  0  0  0  0
   15.0400   -0.9293   24.7752 C   0  0  0  0  0  0  0  0  0  0  0  0
    7.6744   -3.6074   24.2193 N   0  0  0  0  0  0  0  0  0  0  0  0
    6.7995   -8.0167   28.8589 N   0  0  0  0  0  0  0  0  0  0  0  0
   10.2422   -1.3146   21.7916 N   0  0  0  0  0  0  0  0  0  0  0  0
    5.4785   -6.0405   29.8563 O   0  0  0  0  0  0  0  0  0  0  0  0
    4.3508   -7.5654   28.1978 O   0  0  0  0  0  0  0  0  0  0  0  0
    5.5446   -6.8736   28.6638 S   0  0  0  0  0  0  0  0  0  0  0  0
    7.3928   -7.9432   29.6944 H   0  0  0  0  0  0  0  0  0  0  0  0
    6.6219   -8.9833   28.5596 H   0  0  0  0  0  0  0  0  0  0  0  0
   10.1932   -0.8659   20.8873 H   0  0  0  0  0  0  0  0  0  0  0  0
  1  5  2  0  0  0  0
  1  9  1  0  0  0  0
  2  6  1  0  0  0  0
  2  9  2  0  0  0  0
  3  7  2  0  0  0  0
  3 10  1  0  0  0  0
  4  8  1  0  0  0  0
  4 10  2  0  0  0  0
  5 11  1  0  0  0  0
  6 11  2  0  0  0  0
  7 12  1  0  0  0  0
  8 12  2  0  0  0  0
  9 18  1  0  0  0  0
 10 19  1  0  0  0  0
 11 21  1  0  0  0  0
 12 24  1  0  0  0  0
 13 15  1  0  0  0  0
 13 17  1  0  0  0  0
 14 16  1  0  0  0  0
 14 17  1  0  0  0  0
 15 19  1  0  0  0  0
 16 19  1  0  0  0  0
 17 21  1  0  0  0  0
 20 24  1  0  0  0  0
 22 24  2  0  0  0  0
 23 24  2  0  0  0  0
 20 25  1  0  0  0  0
 20 26  1  0  0  0  0
 21 27  1  0  0  0  0
M  END
> <ref_mols>
x2630_0

> <original SMILES>
CC=1C=CC(NC2CCN(CC2)C=3C=CC(=CC3)S(=O)(=O)N)=CC1

> <Chemgauss4>
-9.584717

> <ref_pdb>
x0072_0

$$$$
x0383
  -OEChem-05172015543D

 20 22  0     1  0  0  0  0  0999 V2000
   13.8368   -0.7189   24.9275 C   0  0  0  0  0  0  0  0  0  0  0  0
   13.9853   -1.6104   25.9868 C   0  0  0  0  0  0  0  0  0  0  0  0
   12.8070   -0.8981   24.0041 C   0  0  0  0  0  0  0  0  0  0  0  0
   13.1014   -2.6799   26.1269 C   0  0  0  0  0  0  0  0  0  0  0  0
    6.9036   -4.5734   23.5039 C   0  0  0  0  0  0  0  0  0  0  0  0
    8.3124   -6.1867   22.3860 C   0  0  0  0  0  0  0  0  0  0  0  0
    5.9707   -4.6728   22.4717 C   0  0  0  0  0  0  0  0  0  0  0  0
    7.3795   -6.2862   21.3539 C   0  0  0  0  0  0  0  0  0  0  0  0
   11.9196   -1.9764   24.1283 C   0  0  0  0  0  0  0  0  0  0  0  0
   12.0577   -2.8640   25.2097 C   0  0  0  0  0  0  0  0  0  0  0  0
    8.0745   -5.3303   23.4610 C   0  0  0  0  0  0  0  0  0  0  0  0
    6.2086   -5.5292   21.3967 C   0  0  0  0  0  0  0  0  0  0  0  0
   10.7917   -2.1302   23.1399 C   0  0  0  0  0  0  0  0  0  0  0  0
   11.1339   -4.0409   25.3655 C   0  0  0  0  0  0  0  0  0  0  0  0
   10.2043   -3.5370   23.1099 C   0  0  0  0  0  0  0  0  0  0  0  0
    9.0778   -5.2239   24.5715 C   0  0  0  0  0  0  0  0  0  0  0  0
    9.8784   -3.9539   24.5217 N   0  3  1  0  0  0  0  0  0  0  0  0
    5.2975   -5.6270   20.3903 O   0  0  0  0  0  0  0  0  0  0  0  0
    9.2855   -3.2174   24.9291 H   0  0  0  0  0  0  0  0  0  0  0  0
    5.6033   -6.2588   19.7200 H   0  0  0  0  0  0  0  0  0  0  0  0
  1  2  1  0  0  0  0
  1  3  2  0  0  0  0
  2  4  2  0  0  0  0
  3  9  1  0  0  0  0
  4 10  1  0  0  0  0
  5  7  2  0  0  0  0
  5 11  1  0  0  0  0
  6  8  1  0  0  0  0
  6 11  2  0  0  0  0
  7 12  1  0  0  0  0
  8 12  2  0  0  0  0
  9 10  2  0  0  0  0
  9 13  1  0  0  0  0
 10 14  1  0  0  0  0
 11 16  1  0  0  0  0
 12 18  1  0  0  0  0
 13 15  1  0  0  0  0
 14 17  1  0  0  0  0
 15 17  1  0  0  0  0
 16 17  1  0  0  0  0
 17 19  1  0  0  0  0
 18 20  1  0  0  0  0
M  CHG  1  17   1
M  END
> <ref_mols>
x0383_0

> <original SMILES>
OC=1C=CC(CN2CCC=3C=CC=CC3C2)=CC1

> <Chemgauss4>
-9.579418

> <ref_pdb>
x0749_0

$$$$
x1121
  -OEChem-05172015543D

 18 19  0     0  0  0  0  0  0999 V2000
   12.1874   -1.7481   22.0230 C   0  0  0  0  0  0  0  0  0  0  0  0
   11.3084   -0.2541   23.7061 C   0  0  0  0  0  0  0  0  0  0  0  0
   13.4566   -1.6420   22.5918 C   0  0  0  0  0  0  0  0  0  0  0  0
   12.5776   -0.1481   24.2748 C   0  0  0  0  0  0  0  0  0  0  0  0
   11.1133   -1.0541   22.5802 C   0  0  0  0  0  0  0  0  0  0  0  0
   13.6517   -0.8421   23.7177 C   0  0  0  0  0  0  0  0  0  0  0  0
    6.0269    0.9178   18.7576 C   0  0  0  0  0  0  0  0  0  0  0  0
    5.9458    0.5497   20.2373 C   0  0  0  0  0  0  0  0  0  0  0  0
    6.9583   -0.0185   17.9910 C   0  0  0  0  0  0  0  0  0  0  0  0
    7.3305    0.4880   20.8790 C   0  0  0  0  0  0  0  0  0  0  0  0
    8.3444   -0.0812   18.6297 C   0  0  0  0  0  0  0  0  0  0  0  0
    8.2495   -0.4560   20.1070 C   0  0  0  0  0  0  0  0  0  0  0  0
    9.7479   -1.1685   21.9689 C   0  0  0  0  0  0  0  0  0  0  0  0
    9.6095   -0.3997   20.7059 N   0  3  0  0  0  0  0  0  0  0  0  0
   14.8900   -0.7398   24.2733 O   0  0  0  0  0  0  0  0  0  0  0  0
   10.2898   -0.7483   20.0190 H   0  0  0  0  0  0  0  0  0  0  0  0
    9.8571    0.5830   20.8764 H   0  0  0  0  0  0  0  0  0  0  0  0
   14.8650   -0.1512   25.0445 H   0  0  0  0  0  0  0  0  0  0  0  0
  1  3  2  0  0  0  0
  1  5  1  0  0  0  0
  2  4  1  0  0  0  0
  2  5  2  0  0  0  0
  3  6  1  0  0  0  0
  4  6  2  0  0  0  0
  5 13  1  0  0  0  0
  6 15  1  0  0  0  0
  7  8  1  0  0  0  0
  7  9  1  0  0  0  0
  8 10  1  0  0  0  0
  9 11  1  0  0  0  0
 10 12  1  0  0  0  0
 11 12  1  0  0  0  0
 12 14  1  0  0  0  0
 13 14  1  0  0  0  0
 14 16  1  0  0  0  0
 14 17  1  0  0  0  0
 15 18  1  0  0  0  0
M  CHG  1  14   1
M  END
> <ref_mols>
x1121_0

> <original SMILES>
OC=1C=CC(CNC2CCCCC2)=CC1

> <Chemgauss4>
-9.573311

> <ref_pdb>
x0678_0

$$$$
x0532
  -OEChem-05172015543D

 18 19  0     0  0  0  0  0  0999 V2000
   12.1874   -1.7481   22.0230 C   0  0  0  0  0  0  0  0  0  0  0  0
   11.3084   -0.2541   23.7061 C   0  0  0  0  0  0  0  0  0  0  0  0
   13.4566   -1.6420   22.5918 C   0  0  0  0  0  0  0  0  0  0  0  0
   12.5776   -0.1481   24.2748 C   0  0  0  0  0  0  0  0  0  0  0  0
   11.1133   -1.0541   22.5802 C   0  0  0  0  0  0  0  0  0  0  0  0
   13.6517   -0.8421   23.7177 C   0  0  0  0  0  0  0  0  0  0  0  0
    6.0269    0.9178   18.7576 C   0  0  0  0  0  0  0  0  0  0  0  0
    5.9458    0.5497   20.2373 C   0  0  0  0  0  0  0  0  0  0  0  0
    6.9583   -0.0185   17.9910 C   0  0  0  0  0  0  0  0  0  0  0  0
    7.3305    0.4880   20.8790 C   0  0  0  0  0  0  0  0  0  0  0  0
    8.3444   -0.0812   18.6297 C   0  0  0  0  0  0  0  0  0  0  0  0
    8.2495   -0.4560   20.1070 C   0  0  0  0  0  0  0  0  0  0  0  0
    9.7479   -1.1685   21.9689 C   0  0  0  0  0  0  0  0  0  0  0  0
    9.6095   -0.3997   20.7059 N   0  3  0  0  0  0  0  0  0  0  0  0
   14.8900   -0.7398   24.2733 O   0  0  0  0  0  0  0  0  0  0  0  0
   10.2898   -0.7483   20.0190 H   0  0  0  0  0  0  0  0  0  0  0  0
    9.8571    0.5830   20.8764 H   0  0  0  0  0  0  0  0  0  0  0  0
   14.8650   -0.1512   25.0445 H   0  0  0  0  0  0  0  0  0  0  0  0
  1  3  2  0  0  0  0
  1  5  1  0  0  0  0
  2  4  1  0  0  0  0
  2  5  2  0  0  0  0
  3  6  1  0  0  0  0
  4  6  2  0  0  0  0
  5 13  1  0  0  0  0
  6 15  1  0  0  0  0
  7  8  1  0  0  0  0
  7  9  1  0  0  0  0
  8 10  1  0  0  0  0
  9 11  1  0  0  0  0
 10 12  1  0  0  0  0
 11 12  1  0  0  0  0
 12 14  1  0  0  0  0
 13 14  1  0  0  0  0
 14 16  1  0  0  0  0
 14 17  1  0  0  0  0
 15 18  1  0  0  0  0
M  CHG  1  14   1
M  END
> <ref_mols>
x0532_0

> <original SMILES>
OC=1C=CC(CNC2CCCCC2)=CC1

> <Chemgauss4>
-9.573311

> <ref_pdb>
x0678_0

$$$$
x2486
  -OEChem-05172015543D

 19 20  0     0  0  0  0  0  0999 V2000
    6.5307    0.8273   19.5935 C   0  0  0  0  0  0  0  0  0  0  0  0
    7.6108    0.5415   20.4211 C   0  0  0  0  0  0  0  0  0  0  0  0
   12.9083   -0.6648   24.3896 C   0  0  0  0  0  0  0  0  0  0  0  0
   13.8819   -1.2111   23.5534 C   0  0  0  0  0  0  0  0  0  0  0  0
   12.4960   -0.7392   21.6314 C   0  0  0  0  0  0  0  0  0  0  0  0
    6.6606    0.5567   18.2408 C   0  0  0  0  0  0  0  0  0  0  0  0
    8.8010   -0.2324   18.5130 C   0  0  0  0  0  0  0  0  0  0  0  0
   11.5224   -0.1930   22.4677 C   0  0  0  0  0  0  0  0  0  0  0  0
    8.7715    0.0014   19.8784 C   0  0  0  0  0  0  0  0  0  0  0  0
   11.7285   -0.1558   23.8467 C   0  0  0  0  0  0  0  0  0  0  0  0
   13.6758   -1.2483   22.1743 C   0  0  0  0  0  0  0  0  0  0  0  0
   10.2967    0.3310   21.8811 C   0  0  0  0  0  0  0  0  0  0  0  0
    7.7719    0.0323   17.6772 N   0  0  0  0  0  0  0  0  0  0  0  0
    9.8892   -0.3003   20.6967 N   0  0  0  0  0  0  0  0  0  0  0  0
    9.6922    1.2861   22.3855 O   0  0  0  0  0  0  0  0  0  0  0  0
   10.7882    0.3718   24.6805 O   0  0  0  0  0  0  0  0  0  0  0  0
   14.8780   -1.9204   21.1424 Cl  0  0  0  0  0  0  0  0  0  0  0  0
   10.4706   -1.0742   20.3846 H   0  0  0  0  0  0  0  0  0  0  0  0
   10.0260    0.6853   24.1693 H   0  0  0  0  0  0  0  0  0  0  0  0
  1  2  2  0  0  0  0
  1  6  1  0  0  0  0
  2  9  1  0  0  0  0
  3  4  2  0  0  0  0
  3 10  1  0  0  0  0
  4 11  1  0  0  0  0
  5  8  1  0  0  0  0
  5 11  2  0  0  0  0
  6 13  2  0  0  0  0
  7  9  2  0  0  0  0
  7 13  1  0  0  0  0
  8 10  2  0  0  0  0
  8 12  1  0  0  0  0
  9 14  1  0  0  0  0
 10 16  1  0  0  0  0
 11 17  1  0  0  0  0
 12 14  1  0  0  0  0
 12 15  2  0  0  0  0
 14 18  1  0  0  0  0
 16 19  1  0  0  0  0
M  END
> <ref_mols>
x2486_0

> <original SMILES>
OC=1C=CC(Cl)=CC1C(=O)NC=2C=CC=NC2

> <Chemgauss4>
-9.563734

> <ref_pdb>
x0678_0

$$$$
x2654
  -OEChem-05172015543D

 19 20  0     0  0  0  0  0  0999 V2000
    6.5307    0.8273   19.5935 C   0  0  0  0  0  0  0  0  0  0  0  0
    7.6108    0.5415   20.4211 C   0  0  0  0  0  0  0  0  0  0  0  0
   12.9083   -0.6648   24.3896 C   0  0  0  0  0  0  0  0  0  0  0  0
   13.8819   -1.2111   23.5534 C   0  0  0  0  0  0  0  0  0  0  0  0
   12.4960   -0.7392   21.6314 C   0  0  0  0  0  0  0  0  0  0  0  0
    6.6606    0.5567   18.2408 C   0  0  0  0  0  0  0  0  0  0  0  0
    8.8010   -0.2324   18.5130 C   0  0  0  0  0  0  0  0  0  0  0  0
   11.5224   -0.1930   22.4677 C   0  0  0  0  0  0  0  0  0  0  0  0
    8.7715    0.0014   19.8784 C   0  0  0  0  0  0  0  0  0  0  0  0
   11.7285   -0.1558   23.8467 C   0  0  0  0  0  0  0  0  0  0  0  0
   13.6758   -1.2483   22.1743 C   0  0  0  0  0  0  0  0  0  0  0  0
   10.2967    0.3310   21.8811 C   0  0  0  0  0  0  0  0  0  0  0  0
    7.7719    0.0323   17.6772 N   0  0  0  0  0  0  0  0  0  0  0  0
    9.8892   -0.3003   20.6967 N   0  0  0  0  0  0  0  0  0  0  0  0
    9.6922    1.2861   22.3855 O   0  0  0  0  0  0  0  0  0  0  0  0
   10.7882    0.3718   24.6805 O   0  0  0  0  0  0  0  0  0  0  0  0
   14.8780   -1.9204   21.1424 Cl  0  0  0  0  0  0  0  0  0  0  0  0
   10.4706   -1.0742   20.3846 H   0  0  0  0  0  0  0  0  0  0  0  0
   10.0260    0.6853   24.1693 H   0  0  0  0  0  0  0  0  0  0  0  0
  1  2  2  0  0  0  0
  1  6  1  0  0  0  0
  2  9  1  0  0  0  0
  3  4  2  0  0  0  0
  3 10  1  0  0  0  0
  4 11  1  0  0  0  0
  5  8  1  0  0  0  0
  5 11  2  0  0  0  0
  6 13  2  0  0  0  0
  7  9  2  0  0  0  0
  7 13  1  0  0  0  0
  8 10  2  0  0  0  0
  8 12  1  0  0  0  0
  9 14  1  0  0  0  0
 10 16  1  0  0  0  0
 11 17  1  0  0  0  0
 12 14  1  0  0  0  0
 12 15  2  0  0  0  0
 14 18  1  0  0  0  0
 16 19  1  0  0  0  0
M  END
> <ref_mols>
x2654_0

> <original SMILES>
OC=1C=CC(Cl)=CC1C(=O)NC=2C=CC=NC2

> <Chemgauss4>
-9.563734

> <ref_pdb>
x0678_0

$$$$
x2590
  -OEChem-05172015543D

 24 26  0     0  0  0  0  0  0999 V2000
   13.8283   -1.7750   23.1899 C   0  0  0  0  0  0  0  0  0  0  0  0
   12.4719   -2.0989   23.1633 C   0  0  0  0  0  0  0  0  0  0  0  0
   14.2311   -0.4466   23.0523 C   0  0  0  0  0  0  0  0  0  0  0  0
   11.9208    0.2340   22.8613 C   0  0  0  0  0  0  0  0  0  0  0  0
   12.5467    6.0416   24.7827 C   0  0  0  0  0  0  0  0  0  0  0  0
   10.4295    6.6067   24.8717 C   0  0  0  0  0  0  0  0  0  0  0  0
   11.5181   -1.0944   22.9989 C   0  0  0  0  0  0  0  0  0  0  0  0
   13.2773    0.5578   22.8879 C   0  0  0  0  0  0  0  0  0  0  0  0
   12.2411    5.9122   23.4441 C   0  0  0  0  0  0  0  0  0  0  0  0
   12.8791    3.0326   22.5759 C   0  0  0  0  0  0  0  0  0  0  0  0
    9.6710   -2.7041   22.4807 C   0  0  0  0  0  0  0  0  0  0  0  0
    9.2096   -0.7079   23.8280 C   0  0  0  0  0  0  0  0  0  0  0  0
    9.2792   -3.5636   23.6778 C   0  0  0  0  0  0  0  0  0  0  0  0
    8.8200   -1.6370   24.9786 C   0  0  0  0  0  0  0  0  0  0  0  0
   13.1157    5.5052   22.2936 C   0  0  0  0  0  0  0  0  0  0  0  0
   11.5092    6.4402   25.6028 N   0  0  0  0  0  0  0  0  0  0  0  0
   10.1673   -1.4172   22.9731 N   0  0  0  0  0  0  0  0  0  0  0  0
   13.6807    1.8863   22.7491 N   0  0  0  0  0  0  0  0  0  0  0  0
   13.6685    4.1829   22.4761 N   0  0  0  0  0  0  0  0  0  0  0  0
   11.6520    3.0533   22.5168 O   0  0  0  0  0  0  0  0  0  0  0  0
    8.3078   -2.8761   24.4757 O   0  0  0  0  0  0  0  0  0  0  0  0
   10.5900    6.3009   23.1908 S   0  0  0  0  0  0  0  0  0  0  0  0
   14.6898    2.0664   22.7753 H   0  0  0  0  0  0  0  0  0  0  0  0
   14.6771    4.0840   22.5347 H   0  0  0  0  0  0  0  0  0  0  0  0
  1  2  1  0  0  0  0
  1  3  2  0  0  0  0
  2  7  2  0  0  0  0
  3  8  1  0  0  0  0
  4  7  1  0  0  0  0
  4  8  2  0  0  0  0
  5  9  2  0  0  0  0
  5 16  1  0  0  0  0
  6 16  2  0  0  0  0
  6 22  1  0  0  0  0
  7 17  1  0  0  0  0
  8 18  1  0  0  0  0
  9 15  1  0  0  0  0
  9 22  1  0  0  0  0
 10 18  1  0  0  0  0
 10 19  1  0  0  0  0
 10 20  2  0  0  0  0
 11 13  1  0  0  0  0
 11 17  1  0  0  0  0
 12 14  1  0  0  0  0
 12 17  1  0  0  0  0
 13 21  1  0  0  0  0
 14 21  1  0  0  0  0
 15 19  1  0  0  0  0
 18 23  1  0  0  0  0
 19 24  1  0  0  0  0
M  END
> <ref_mols>
x2590_0

> <original SMILES>
O=C(NCC1=CN=CS1)NC=2C=CC=C(C2)N3CCOCC3

> <Chemgauss4>
-9.563450

> <ref_pdb>
x0195_0

$$$$
x0854
  -OEChem-05172015543D

 17 18  0     1  0  0  0  0  0999 V2000
   12.3237    0.1772   23.6970 C   0  0  0  0  0  0  0  0  0  0  0  0
   12.9520   -1.5090   22.0849 C   0  0  0  0  0  0  0  0  0  0  0  0
   13.2915   -0.3047   24.5783 C   0  0  0  0  0  0  0  0  0  0  0  0
   13.9199   -1.9909   22.9661 C   0  0  0  0  0  0  0  0  0  0  0  0
   12.1539   -0.4249   22.4503 C   0  0  0  0  0  0  0  0  0  0  0  0
   14.0896   -1.3888   24.2129 C   0  0  0  0  0  0  0  0  0  0  0  0
    8.7698   -0.0411   20.7266 C   0  0  0  0  0  0  0  0  0  0  0  0
    9.9534   -2.5297   23.0586 C   0  0  0  0  0  0  0  0  0  0  0  0
    9.8557   -2.1163   21.6098 C   0  0  0  0  0  0  0  0  0  0  0  0
    9.0862   -1.4957   23.7370 C   0  0  0  0  0  0  0  0  0  0  0  0
    9.7684   -0.5963   21.6976 C   0  0  1  0  0  0  0  0  0  0  0  0
    6.4820   -0.1078   20.1392 C   0  0  0  0  0  0  0  0  0  0  0  0
   11.1099    0.0953   21.4982 C   0  0  0  0  0  0  0  0  0  0  0  0
    9.0468    0.7529   19.8378 O   0  0  0  0  0  0  0  0  0  0  0  0
    9.2762   -0.2768   23.0077 O   0  0  0  0  0  0  0  0  0  0  0  0
    7.5367   -0.5568   20.9959 O   0  0  0  0  0  0  0  0  0  0  0  0
   15.0209   -1.8499   25.0580 F   0  0  0  0  0  0  0  0  0  0  0  0
  1  3  1  0  0  0  0
  1  5  2  0  0  0  0
  2  4  2  0  0  0  0
  2  5  1  0  0  0  0
  3  6  2  0  0  0  0
  4  6  1  0  0  0  0
  5 13  1  0  0  0  0
  6 17  1  0  0  0  0
  7 11  1  0  0  0  0
  7 14  2  0  0  0  0
  7 16  1  0  0  0  0
  8  9  1  0  0  0  0
  8 10  1  0  0  0  0
  9 11  1  0  0  0  0
 10 15  1  0  0  0  0
 11 13  1  0  0  0  0
 11 15  1  0  0  0  0
 12 16  1  0  0  0  0
M  END
> <ref_mols>
x0854_0

> <original SMILES>
FC(C=C1)=CC=C1CC2(C(OC)=O)OCCC2

> <Chemgauss4>
-9.562133

> <ref_pdb>
x0678_0

$$$$
x1049
  -OEChem-05172015543D

 20 22  0     0  0  0  0  0  0999 V2000
   12.3882    2.2449   23.7149 C   0  0  0  0  0  0  0  0  0  0  0  0
   11.1140    2.5337   24.2035 C   0  0  0  0  0  0  0  0  0  0  0  0
   12.7322    0.9308   23.3978 C   0  0  0  0  0  0  0  0  0  0  0  0
    4.8189    0.9268   19.6883 C   0  0  0  0  0  0  0  0  0  0  0  0
    5.5794    0.9534   18.5170 C   0  0  0  0  0  0  0  0  0  0  0  0
   10.1839    1.5085   24.3750 C   0  0  0  0  0  0  0  0  0  0  0  0
   11.8021   -0.0944   23.5693 C   0  0  0  0  0  0  0  0  0  0  0  0
    5.3344    0.3818   20.8710 C   0  0  0  0  0  0  0  0  0  0  0  0
    6.8794    0.4382   18.4839 C   0  0  0  0  0  0  0  0  0  0  0  0
   10.5279    0.1944   24.0579 C   0  0  0  0  0  0  0  0  0  0  0  0
    6.6388   -0.1404   20.8558 C   0  0  0  0  0  0  0  0  0  0  0  0
    7.3722   -0.0995   19.6733 C   0  0  0  0  0  0  0  0  0  0  0  0
    8.5235   -1.0321   21.3163 C   0  0  0  0  0  0  0  0  0  0  0  0
    9.5222   -0.9152   24.2434 C   0  0  0  0  0  0  0  0  0  0  0  0
    9.7115   -2.0621   23.2537 C   0  0  0  0  0  0  0  0  0  0  0  0
    7.3703   -0.7230   21.8653 N   0  0  0  0  0  0  0  0  0  0  0  0
    8.5734   -0.6765   19.9972 N   0  0  0  0  0  0  0  0  0  0  0  0
    9.6088   -1.6248   21.8612 N   0  0  0  0  0  0  0  0  0  0  0  0
    9.3569   -0.8142   19.3729 H   0  0  0  0  0  0  0  0  0  0  0  0
   10.4447   -1.7963   21.2832 H   0  0  0  0  0  0  0  0  0  0  0  0
  1  2  1  0  0  0  0
  1  3  2  0  0  0  0
  2  6  2  0  0  0  0
  3  7  1  0  0  0  0
  4  5  1  0  0  0  0
  4  8  2  0  0  0  0
  5  9  2  0  0  0  0
  6 10  1  0  0  0  0
  7 10  2  0  0  0  0
  8 11  1  0  0  0  0
  9 12  1  0  0  0  0
 10 14  1  0  0  0  0
 11 12  2  0  0  0  0
 11 16  1  0  0  0  0
 12 17  1  0  0  0  0
 13 16  2  0  0  0  0
 13 17  1  0  0  0  0
 13 18  1  0  0  0  0
 14 15  1  0  0  0  0
 15 18  1  0  0  0  0
 17 19  1  0  0  0  0
 18 20  1  0  0  0  0
M  END
> <ref_mols>
x1049_0

> <original SMILES>
C(CC=1C=CC=CC1)NC2=NC=3C=CC=CC3N2

> <Chemgauss4>
-9.556696

> <ref_pdb>
x0434_0

$$$$
x0463
  -OEChem-05172015543D

 20 22  0     0  0  0  0  0  0999 V2000
   12.3882    2.2449   23.7149 C   0  0  0  0  0  0  0  0  0  0  0  0
   11.1140    2.5337   24.2035 C   0  0  0  0  0  0  0  0  0  0  0  0
   12.7322    0.9308   23.3978 C   0  0  0  0  0  0  0  0  0  0  0  0
    4.8189    0.9268   19.6883 C   0  0  0  0  0  0  0  0  0  0  0  0
    5.5794    0.9534   18.5170 C   0  0  0  0  0  0  0  0  0  0  0  0
   10.1839    1.5085   24.3750 C   0  0  0  0  0  0  0  0  0  0  0  0
   11.8021   -0.0944   23.5693 C   0  0  0  0  0  0  0  0  0  0  0  0
    5.3344    0.3818   20.8710 C   0  0  0  0  0  0  0  0  0  0  0  0
    6.8794    0.4382   18.4839 C   0  0  0  0  0  0  0  0  0  0  0  0
   10.5279    0.1944   24.0579 C   0  0  0  0  0  0  0  0  0  0  0  0
    6.6388   -0.1404   20.8558 C   0  0  0  0  0  0  0  0  0  0  0  0
    7.3722   -0.0995   19.6733 C   0  0  0  0  0  0  0  0  0  0  0  0
    8.5235   -1.0321   21.3163 C   0  0  0  0  0  0  0  0  0  0  0  0
    9.5222   -0.9152   24.2434 C   0  0  0  0  0  0  0  0  0  0  0  0
    9.7115   -2.0621   23.2537 C   0  0  0  0  0  0  0  0  0  0  0  0
    7.3703   -0.7230   21.8653 N   0  0  0  0  0  0  0  0  0  0  0  0
    8.5734   -0.6765   19.9972 N   0  0  0  0  0  0  0  0  0  0  0  0
    9.6088   -1.6248   21.8612 N   0  0  0  0  0  0  0  0  0  0  0  0
    9.3569   -0.8142   19.3729 H   0  0  0  0  0  0  0  0  0  0  0  0
   10.4447   -1.7963   21.2832 H   0  0  0  0  0  0  0  0  0  0  0  0
  1  2  1  0  0  0  0
  1  3  2  0  0  0  0
  2  6  2  0  0  0  0
  3  7  1  0  0  0  0
  4  5  1  0  0  0  0
  4  8  2  0  0  0  0
  5  9  2  0  0  0  0
  6 10  1  0  0  0  0
  7 10  2  0  0  0  0
  8 11  1  0  0  0  0
  9 12  1  0  0  0  0
 10 14  1  0  0  0  0
 11 12  2  0  0  0  0
 11 16  1  0  0  0  0
 12 17  1  0  0  0  0
 13 16  2  0  0  0  0
 13 17  1  0  0  0  0
 13 18  1  0  0  0  0
 14 15  1  0  0  0  0
 15 18  1  0  0  0  0
 17 19  1  0  0  0  0
 18 20  1  0  0  0  0
M  END
> <ref_mols>
x0463_0

> <original SMILES>
C(CC=1C=CC=CC1)NC2=NC=3C=CC=CC3N2

> <Chemgauss4>
-9.556696

> <ref_pdb>
x0434_0

$$$$
x2495
  -OEChem-05172015543D

 22 24  0     0  0  0  0  0  0999 V2000
    5.2413    1.4352   18.0517 C   0  0  0  0  0  0  0  0  0  0  0  0
    6.3229    0.5851   17.8408 C   0  0  0  0  0  0  0  0  0  0  0  0
    4.7277    1.6064   19.3374 C   0  0  0  0  0  0  0  0  0  0  0  0
    6.8949   -0.0971   18.9150 C   0  0  0  0  0  0  0  0  0  0  0  0
    4.7868    1.0881   21.7313 C   0  0  0  0  0  0  0  0  0  0  0  0
    5.3588    0.4059   22.8055 C   0  0  0  0  0  0  0  0  0  0  0  0
   13.3519    0.1243   22.9205 C   0  0  0  0  0  0  0  0  0  0  0  0
    6.9541   -0.6154   21.3089 C   0  0  0  0  0  0  0  0  0  0  0  0
   11.4204   -1.2772   23.2193 C   0  0  0  0  0  0  0  0  0  0  0  0
   12.5009    1.2164   22.9742 C   0  0  0  0  0  0  0  0  0  0  0  0
    5.2910    0.9277   20.4304 C   0  0  0  0  0  0  0  0  0  0  0  0
    6.3908    0.0632   20.2160 C   0  0  0  0  0  0  0  0  0  0  0  0
    6.4404   -0.4442   22.5947 C   0  0  0  0  0  0  0  0  0  0  0  0
   12.7935   -1.1428   23.0462 C   0  0  0  0  0  0  0  0  0  0  0  0
   10.6559   -0.1224   23.2599 C   0  0  0  0  0  0  0  0  0  0  0  0
    8.5417   -1.4544   23.5781 C   0  0  0  0  0  0  0  0  0  0  0  0
   13.6638   -2.3521   22.9953 C   0  0  0  0  0  0  0  0  0  0  0  0
    7.0507   -1.1725   23.7444 C   0  0  0  0  0  0  0  0  0  0  0  0
   11.1625    1.1254   23.1413 N   0  0  0  0  0  0  0  0  0  0  0  0
    9.2594   -0.2693   23.4366 N   0  0  0  0  0  0  0  0  0  0  0  0
    8.9872   -2.5974   23.5759 O   0  0  0  0  0  0  0  0  0  0  0  0
    8.7165    0.5912   23.4635 H   0  0  0  0  0  0  0  0  0  0  0  0
  1  2  1  0  0  0  0
  1  3  2  0  0  0  0
  2  4  2  0  0  0  0
  3 11  1  0  0  0  0
  4 12  1  0  0  0  0
  5  6  2  0  0  0  0
  5 11  1  0  0  0  0
  6 13  1  0  0  0  0
  7 10  2  0  0  0  0
  7 14  1  0  0  0  0
  8 12  1  0  0  0  0
  8 13  2  0  0  0  0
  9 14  2  0  0  0  0
  9 15  1  0  0  0  0
 10 19  1  0  0  0  0
 11 12  2  0  0  0  0
 13 18  1  0  0  0  0
 14 17  1  0  0  0  0
 15 19  2  0  0  0  0
 15 20  1  0  0  0  0
 16 18  1  0  0  0  0
 16 20  1  0  0  0  0
 16 21  2  0  0  0  0
 20 22  1  0  0  0  0
M  END
> <ref_mols>
x2495_0

> <original SMILES>
CC=1C=CN=C(NC(=O)CC=2C=CC=3C=CC=CC3C2)C1

> <Chemgauss4>
-9.554324

> <ref_pdb>
x1093_0

$$$$
x2663
  -OEChem-05172015543D

 22 24  0     0  0  0  0  0  0999 V2000
    5.2413    1.4352   18.0517 C   0  0  0  0  0  0  0  0  0  0  0  0
    6.3229    0.5851   17.8408 C   0  0  0  0  0  0  0  0  0  0  0  0
    4.7277    1.6064   19.3374 C   0  0  0  0  0  0  0  0  0  0  0  0
    6.8949   -0.0971   18.9150 C   0  0  0  0  0  0  0  0  0  0  0  0
    4.7868    1.0881   21.7313 C   0  0  0  0  0  0  0  0  0  0  0  0
    5.3588    0.4059   22.8055 C   0  0  0  0  0  0  0  0  0  0  0  0
   13.3519    0.1243   22.9205 C   0  0  0  0  0  0  0  0  0  0  0  0
    6.9541   -0.6154   21.3089 C   0  0  0  0  0  0  0  0  0  0  0  0
   11.4204   -1.2772   23.2193 C   0  0  0  0  0  0  0  0  0  0  0  0
   12.5009    1.2164   22.9742 C   0  0  0  0  0  0  0  0  0  0  0  0
    5.2910    0.9277   20.4304 C   0  0  0  0  0  0  0  0  0  0  0  0
    6.3908    0.0632   20.2160 C   0  0  0  0  0  0  0  0  0  0  0  0
    6.4404   -0.4442   22.5947 C   0  0  0  0  0  0  0  0  0  0  0  0
   12.7935   -1.1428   23.0462 C   0  0  0  0  0  0  0  0  0  0  0  0
   10.6559   -0.1224   23.2599 C   0  0  0  0  0  0  0  0  0  0  0  0
    8.5417   -1.4544   23.5781 C   0  0  0  0  0  0  0  0  0  0  0  0
   13.6638   -2.3521   22.9953 C   0  0  0  0  0  0  0  0  0  0  0  0
    7.0507   -1.1725   23.7444 C   0  0  0  0  0  0  0  0  0  0  0  0
   11.1625    1.1254   23.1413 N   0  0  0  0  0  0  0  0  0  0  0  0
    9.2594   -0.2693   23.4366 N   0  0  0  0  0  0  0  0  0  0  0  0
    8.9872   -2.5974   23.5759 O   0  0  0  0  0  0  0  0  0  0  0  0
    8.7165    0.5912   23.4635 H   0  0  0  0  0  0  0  0  0  0  0  0
  1  2  1  0  0  0  0
  1  3  2  0  0  0  0
  2  4  2  0  0  0  0
  3 11  1  0  0  0  0
  4 12  1  0  0  0  0
  5  6  2  0  0  0  0
  5 11  1  0  0  0  0
  6 13  1  0  0  0  0
  7 10  2  0  0  0  0
  7 14  1  0  0  0  0
  8 12  1  0  0  0  0
  8 13  2  0  0  0  0
  9 14  2  0  0  0  0
  9 15  1  0  0  0  0
 10 19  1  0  0  0  0
 11 12  2  0  0  0  0
 13 18  1  0  0  0  0
 14 17  1  0  0  0  0
 15 19  2  0  0  0  0
 15 20  1  0  0  0  0
 16 18  1  0  0  0  0
 16 20  1  0  0  0  0
 16 21  2  0  0  0  0
 20 22  1  0  0  0  0
M  END
> <ref_mols>
x2663_0

> <original SMILES>
CC=1C=CN=C(NC(=O)CC=2C=CC=3C=CC=CC3C2)C1

> <Chemgauss4>
-9.554324

> <ref_pdb>
x1093_0

$$$$
x2644
  -OEChem-05172015543D

 23 25  0     0  0  0  0  0  0999 V2000
    5.2301    1.2969   18.2343 C   0  0  0  0  0  0  0  0  0  0  0  0
    5.6709    1.1238   19.5451 C   0  0  0  0  0  0  0  0  0  0  0  0
   13.8950    0.9454   23.3332 C   0  0  0  0  0  0  0  0  0  0  0  0
   12.0473   -0.1445   24.4205 C   0  0  0  0  0  0  0  0  0  0  0  0
    6.0530    0.8878   17.1935 C   0  0  0  0  0  0  0  0  0  0  0  0
   13.1427    2.1089   23.3397 C   0  0  0  0  0  0  0  0  0  0  0  0
    8.9002   -0.3601   20.3879 C   0  0  0  0  0  0  0  0  0  0  0  0
    6.9332    0.5405   19.7407 C   0  0  0  0  0  0  0  0  0  0  0  0
    7.7320    0.1960   20.8631 C   0  0  0  0  0  0  0  0  0  0  0  0
   13.3296   -0.1983   23.8858 C   0  0  0  0  0  0  0  0  0  0  0  0
   11.3777    1.0678   24.3785 C   0  0  0  0  0  0  0  0  0  0  0  0
    7.6535    0.1770   18.6066 C   0  0  0  0  0  0  0  0  0  0  0  0
    8.3773    1.2579   23.0616 C   0  0  0  0  0  0  0  0  0  0  0  0
    7.3845    0.3938   22.2845 C   0  0  0  0  0  0  0  0  0  0  0  0
    9.9914    1.1625   24.9472 C   0  0  0  0  0  0  0  0  0  0  0  0
   11.8941    2.1999   23.8500 N   0  0  0  0  0  0  0  0  0  0  0  0
    7.2754    0.3216   17.3224 N   0  0  0  0  0  0  0  0  0  0  0  0
    8.8419   -0.3663   19.0183 N   0  0  0  0  0  0  0  0  0  0  0  0
    9.0087    0.5570   24.0793 N   0  0  0  0  0  0  0  0  0  0  0  0
    8.5768    2.4393   22.7910 O   0  0  0  0  0  0  0  0  0  0  0  0
   14.2134   -1.6739   23.9064 Cl  0  0  0  0  0  0  0  0  0  0  0  0
    9.5651   -0.7164   18.4054 H   0  0  0  0  0  0  0  0  0  0  0  0
    8.7703   -0.4204   24.2193 H   0  0  0  0  0  0  0  0  0  0  0  0
  1  2  2  0  0  0  0
  1  5  1  0  0  0  0
  2  8  1  0  0  0  0
  3  6  2  0  0  0  0
  3 10  1  0  0  0  0
  4 10  2  0  0  0  0
  4 11  1  0  0  0  0
  5 17  2  0  0  0  0
  6 16  1  0  0  0  0
  7  9  2  0  0  0  0
  7 18  1  0  0  0  0
  8  9  1  0  0  0  0
  8 12  2  0  0  0  0
  9 14  1  0  0  0  0
 10 21  1  0  0  0  0
 11 15  1  0  0  0  0
 11 16  2  0  0  0  0
 12 17  1  0  0  0  0
 12 18  1  0  0  0  0
 13 14  1  0  0  0  0
 13 19  1  0  0  0  0
 13 20  2  0  0  0  0
 15 19  1  0  0  0  0
 18 22  1  0  0  0  0
 19 23  1  0  0  0  0
M  END
> <ref_mols>
x2644_0

> <original SMILES>
ClC=1C=CN=C(CNC(=O)CC2=CNC=3N=CC=CC23)C1

> <Chemgauss4>
-9.539196

> <ref_pdb>
x0678_0

$$$$
x2476
  -OEChem-05172015543D

 23 25  0     0  0  0  0  0  0999 V2000
    5.2301    1.2969   18.2343 C   0  0  0  0  0  0  0  0  0  0  0  0
    5.6709    1.1238   19.5451 C   0  0  0  0  0  0  0  0  0  0  0  0
   13.8950    0.9454   23.3332 C   0  0  0  0  0  0  0  0  0  0  0  0
   12.0473   -0.1445   24.4205 C   0  0  0  0  0  0  0  0  0  0  0  0
    6.0530    0.8878   17.1935 C   0  0  0  0  0  0  0  0  0  0  0  0
   13.1427    2.1089   23.3397 C   0  0  0  0  0  0  0  0  0  0  0  0
    8.9002   -0.3601   20.3879 C   0  0  0  0  0  0  0  0  0  0  0  0
    6.9332    0.5405   19.7407 C   0  0  0  0  0  0  0  0  0  0  0  0
    7.7320    0.1960   20.8631 C   0  0  0  0  0  0  0  0  0  0  0  0
   13.3296   -0.1983   23.8858 C   0  0  0  0  0  0  0  0  0  0  0  0
   11.3777    1.0678   24.3785 C   0  0  0  0  0  0  0  0  0  0  0  0
    7.6535    0.1770   18.6066 C   0  0  0  0  0  0  0  0  0  0  0  0
    8.3773    1.2579   23.0616 C   0  0  0  0  0  0  0  0  0  0  0  0
    7.3845    0.3938   22.2845 C   0  0  0  0  0  0  0  0  0  0  0  0
    9.9914    1.1625   24.9472 C   0  0  0  0  0  0  0  0  0  0  0  0
   11.8941    2.1999   23.8500 N   0  0  0  0  0  0  0  0  0  0  0  0
    7.2754    0.3216   17.3224 N   0  0  0  0  0  0  0  0  0  0  0  0
    8.8419   -0.3663   19.0183 N   0  0  0  0  0  0  0  0  0  0  0  0
    9.0087    0.5570   24.0793 N   0  0  0  0  0  0  0  0  0  0  0  0
    8.5768    2.4393   22.7910 O   0  0  0  0  0  0  0  0  0  0  0  0
   14.2134   -1.6739   23.9064 Cl  0  0  0  0  0  0  0  0  0  0  0  0
    9.5651   -0.7164   18.4054 H   0  0  0  0  0  0  0  0  0  0  0  0
    8.7703   -0.4204   24.2193 H   0  0  0  0  0  0  0  0  0  0  0  0
  1  2  2  0  0  0  0
  1  5  1  0  0  0  0
  2  8  1  0  0  0  0
  3  6  2  0  0  0  0
  3 10  1  0  0  0  0
  4 10  2  0  0  0  0
  4 11  1  0  0  0  0
  5 17  2  0  0  0  0
  6 16  1  0  0  0  0
  7  9  2  0  0  0  0
  7 18  1  0  0  0  0
  8  9  1  0  0  0  0
  8 12  2  0  0  0  0
  9 14  1  0  0  0  0
 10 21  1  0  0  0  0
 11 15  1  0  0  0  0
 11 16  2  0  0  0  0
 12 17  1  0  0  0  0
 12 18  1  0  0  0  0
 13 14  1  0  0  0  0
 13 19  1  0  0  0  0
 13 20  2  0  0  0  0
 15 19  1  0  0  0  0
 18 22  1  0  0  0  0
 19 23  1  0  0  0  0
M  END
> <ref_mols>
x2476_0

> <original SMILES>
ClC=1C=CN=C(CNC(=O)CC2=CNC=3N=CC=CC23)C1

> <Chemgauss4>
-9.539196

> <ref_pdb>
x0678_0

$$$$
x0307
  -OEChem-05172015543D

 19 20  0     0  0  0  0  0  0999 V2000
   13.3224   -1.3931   25.7040 C   0  0  0  0  0  0  0  0  0  0  0  0
   13.0889   -2.7664   25.7747 C   0  0  0  0  0  0  0  0  0  0  0  0
   12.3004   -0.5314   25.3056 C   0  0  0  0  0  0  0  0  0  0  0  0
    6.8826   -6.3469   22.1564 C   0  0  0  0  0  0  0  0  0  0  0  0
    7.9176   -6.5904   23.0592 C   0  0  0  0  0  0  0  0  0  0  0  0
   11.8333   -3.2781   25.4470 C   0  0  0  0  0  0  0  0  0  0  0  0
   11.0449   -1.0431   24.9779 C   0  0  0  0  0  0  0  0  0  0  0  0
    6.6984   -5.0661   21.6355 C   0  0  0  0  0  0  0  0  0  0  0  0
    8.7684   -5.5531   23.4412 C   0  0  0  0  0  0  0  0  0  0  0  0
   10.8113   -2.4165   25.0485 C   0  0  0  0  0  0  0  0  0  0  0  0
    7.5491   -4.0288   22.0175 C   0  0  0  0  0  0  0  0  0  0  0  0
    8.5841   -4.2723   22.9204 C   0  0  0  0  0  0  0  0  0  0  0  0
    6.3706   -2.3356   20.5792 C   0  0  0  0  0  0  0  0  0  0  0  0
    6.4970   -0.8683   20.2546 C   0  0  0  0  0  0  0  0  0  0  0  0
    9.4686   -2.9629   24.6977 C   0  0  0  0  0  0  0  0  0  0  0  0
    7.3516   -2.7514   21.4878 N   0  0  0  0  0  0  0  0  0  0  0  0
    5.4864   -3.0174   20.0712 O   0  0  0  0  0  0  0  0  0  0  0  0
    9.4308   -3.2676   23.3090 O   0  0  0  0  0  0  0  0  0  0  0  0
    8.0035   -2.0240   21.8013 H   0  0  0  0  0  0  0  0  0  0  0  0
  1  2  1  0  0  0  0
  1  3  2  0  0  0  0
  2  6  2  0  0  0  0
  3  7  1  0  0  0  0
  4  5  1  0  0  0  0
  4  8  2  0  0  0  0
  5  9  2  0  0  0  0
  6 10  1  0  0  0  0
  7 10  2  0  0  0  0
  8 11  1  0  0  0  0
  9 12  1  0  0  0  0
 10 15  1  0  0  0  0
 11 12  2  0  0  0  0
 11 16  1  0  0  0  0
 12 18  1  0  0  0  0
 13 14  1  0  0  0  0
 13 16  1  0  0  0  0
 13 17  2  0  0  0  0
 15 18  1  0  0  0  0
 16 19  1  0  0  0  0
M  END
> <ref_mols>
x0307_0

> <original SMILES>
CC(=O)NC=1C=CC=CC1OCC=2C=CC=CC2

> <Chemgauss4>
-9.520121

> <ref_pdb>
x0749_0

$$$$
x0685
  -OEChem-05172015543D

 17 18  0     1  0  0  0  0  0999 V2000
   11.4683   -3.3853   24.9036 C   0  0  0  0  0  0  0  0  0  0  0  0
   10.8662   -1.6448   23.3399 C   0  0  0  0  0  0  0  0  0  0  0  0
   12.6782   -2.7392   25.1570 C   0  0  0  0  0  0  0  0  0  0  0  0
   12.0761   -0.9986   23.5933 C   0  0  0  0  0  0  0  0  0  0  0  0
   10.5623   -2.8381   23.9950 C   0  0  0  0  0  0  0  0  0  0  0  0
   12.9821   -1.5458   24.5019 C   0  0  0  0  0  0  0  0  0  0  0  0
    6.4228   -3.5913   21.3539 C   0  0  0  0  0  0  0  0  0  0  0  0
    7.6736   -5.4815   22.3407 C   0  0  0  0  0  0  0  0  0  0  0  0
    8.7647   -3.2729   22.2894 C   0  0  0  0  0  0  0  0  0  0  0  0
    8.1938   -5.6559   23.7596 C   0  0  0  0  0  0  0  0  0  0  0  0
    9.2494   -3.5381   23.7202 C   0  0  1  0  0  0  0  0  0  0  0  0
    6.0233   -2.1665   21.6438 C   0  0  0  0  0  0  0  0  0  0  0  0
    7.5616   -4.0630   22.0045 N   0  0  0  0  0  0  0  0  0  0  0  0
    5.7411   -4.2642   20.5766 O   0  0  0  0  0  0  0  0  0  0  0  0
    9.4206   -4.9457   23.9342 O   0  0  0  0  0  0  0  0  0  0  0  0
   14.1428   -0.9238   24.7472 F   0  0  0  0  0  0  0  0  0  0  0  0
    6.8721   -1.1581   20.4775 Cl  0  0  0  0  0  0  0  0  0  0  0  0
  1  3  2  0  0  0  0
  1  5  1  0  0  0  0
  2  4  1  0  0  0  0
  2  5  2  0  0  0  0
  3  6  1  0  0  0  0
  4  6  2  0  0  0  0
  5 11  1  0  0  0  0
  6 16  1  0  0  0  0
  7 12  1  0  0  0  0
  7 13  1  0  0  0  0
  7 14  2  0  0  0  0
  8 10  1  0  0  0  0
  8 13  1  0  0  0  0
  9 11  1  0  0  0  0
  9 13  1  0  0  0  0
 10 15  1  0  0  0  0
 11 15  1  0  0  0  0
 12 17  1  0  0  0  0
M  END
> <ref_mols>
x0685_0

> <original SMILES>
Fc1ccc(cc1)C2CN(CCO2)C(=O)CCl

> <Chemgauss4>
-9.509590

> <ref_pdb>
x0749_0

> <CYS145-warhead dist minimum (A)>
10.05767

> <CYS145-warhead dist mean (A)>
12.079677

> <CYS145-warhead dist stddev (A)>
0.55734223

$$$$
x1463
  -OEChem-05172015543D

 17 18  0     1  0  0  0  0  0999 V2000
   11.4683   -3.3853   24.9036 C   0  0  0  0  0  0  0  0  0  0  0  0
   10.8662   -1.6448   23.3399 C   0  0  0  0  0  0  0  0  0  0  0  0
   12.6782   -2.7392   25.1570 C   0  0  0  0  0  0  0  0  0  0  0  0
   12.0761   -0.9986   23.5933 C   0  0  0  0  0  0  0  0  0  0  0  0
   10.5623   -2.8381   23.9950 C   0  0  0  0  0  0  0  0  0  0  0  0
   12.9821   -1.5458   24.5019 C   0  0  0  0  0  0  0  0  0  0  0  0
    6.4228   -3.5913   21.3539 C   0  0  0  0  0  0  0  0  0  0  0  0
    7.6736   -5.4815   22.3407 C   0  0  0  0  0  0  0  0  0  0  0  0
    8.7647   -3.2729   22.2894 C   0  0  0  0  0  0  0  0  0  0  0  0
    8.1938   -5.6559   23.7596 C   0  0  0  0  0  0  0  0  0  0  0  0
    9.2494   -3.5381   23.7202 C   0  0  1  0  0  0  0  0  0  0  0  0
    6.0233   -2.1665   21.6438 C   0  0  0  0  0  0  0  0  0  0  0  0
    7.5616   -4.0630   22.0045 N   0  0  0  0  0  0  0  0  0  0  0  0
    5.7411   -4.2642   20.5766 O   0  0  0  0  0  0  0  0  0  0  0  0
    9.4206   -4.9457   23.9342 O   0  0  0  0  0  0  0  0  0  0  0  0
   14.1428   -0.9238   24.7472 F   0  0  0  0  0  0  0  0  0  0  0  0
    6.8721   -1.1581   20.4775 Cl  0  0  0  0  0  0  0  0  0  0  0  0
  1  3  2  0  0  0  0
  1  5  1  0  0  0  0
  2  4  1  0  0  0  0
  2  5  2  0  0  0  0
  3  6  1  0  0  0  0
  4  6  2  0  0  0  0
  5 11  1  0  0  0  0
  6 16  1  0  0  0  0
  7 12  1  0  0  0  0
  7 13  1  0  0  0  0
  7 14  2  0  0  0  0
  8 10  1  0  0  0  0
  8 13  1  0  0  0  0
  9 11  1  0  0  0  0
  9 13  1  0  0  0  0
 10 15  1  0  0  0  0
 11 15  1  0  0  0  0
 12 17  1  0  0  0  0
M  END
> <ref_mols>
x1463_0

> <original SMILES>
Fc1ccc(cc1)C2CN(CCO2)C(=O)CCl

> <Chemgauss4>
-9.509590

> <ref_pdb>
x0749_0

$$$$
x0759
  -OEChem-05172015543D

 17 18  0     1  0  0  0  0  0999 V2000
   11.4683   -3.3853   24.9036 C   0  0  0  0  0  0  0  0  0  0  0  0
   10.8662   -1.6448   23.3399 C   0  0  0  0  0  0  0  0  0  0  0  0
   12.6782   -2.7392   25.1570 C   0  0  0  0  0  0  0  0  0  0  0  0
   12.0761   -0.9986   23.5933 C   0  0  0  0  0  0  0  0  0  0  0  0
   10.5623   -2.8381   23.9950 C   0  0  0  0  0  0  0  0  0  0  0  0
   12.9821   -1.5458   24.5019 C   0  0  0  0  0  0  0  0  0  0  0  0
    6.4228   -3.5913   21.3539 C   0  0  0  0  0  0  0  0  0  0  0  0
    7.6736   -5.4815   22.3407 C   0  0  0  0  0  0  0  0  0  0  0  0
    8.7647   -3.2729   22.2894 C   0  0  0  0  0  0  0  0  0  0  0  0
    8.1938   -5.6559   23.7596 C   0  0  0  0  0  0  0  0  0  0  0  0
    9.2494   -3.5381   23.7202 C   0  0  1  0  0  0  0  0  0  0  0  0
    6.0233   -2.1665   21.6438 C   0  0  0  0  0  0  0  0  0  0  0  0
    7.5616   -4.0630   22.0045 N   0  0  0  0  0  0  0  0  0  0  0  0
    5.7411   -4.2642   20.5766 O   0  0  0  0  0  0  0  0  0  0  0  0
    9.4206   -4.9457   23.9342 O   0  0  0  0  0  0  0  0  0  0  0  0
   14.1428   -0.9238   24.7472 F   0  0  0  0  0  0  0  0  0  0  0  0
    6.8721   -1.1581   20.4775 Cl  0  0  0  0  0  0  0  0  0  0  0  0
  1  3  2  0  0  0  0
  1  5  1  0  0  0  0
  2  4  1  0  0  0  0
  2  5  2  0  0  0  0
  3  6  1  0  0  0  0
  4  6  2  0  0  0  0
  5 11  1  0  0  0  0
  6 16  1  0  0  0  0
  7 12  1  0  0  0  0
  7 13  1  0  0  0  0
  7 14  2  0  0  0  0
  8 10  1  0  0  0  0
  8 13  1  0  0  0  0
  9 11  1  0  0  0  0
  9 13  1  0  0  0  0
 10 15  1  0  0  0  0
 11 15  1  0  0  0  0
 12 17  1  0  0  0  0
M  END
> <ref_mols>
x0759_0

> <original SMILES>
Fc1ccc(cc1)C2CN(CCO2)C(=O)CCl

> <Chemgauss4>
-9.509590

> <ref_pdb>
x0749_0

$$$$
x1435
  -OEChem-05172015543D

 17 18  0     1  0  0  0  0  0999 V2000
   11.4683   -3.3853   24.9036 C   0  0  0  0  0  0  0  0  0  0  0  0
   10.8662   -1.6448   23.3399 C   0  0  0  0  0  0  0  0  0  0  0  0
   12.6782   -2.7392   25.1570 C   0  0  0  0  0  0  0  0  0  0  0  0
   12.0761   -0.9986   23.5933 C   0  0  0  0  0  0  0  0  0  0  0  0
   10.5623   -2.8381   23.9950 C   0  0  0  0  0  0  0  0  0  0  0  0
   12.9821   -1.5458   24.5019 C   0  0  0  0  0  0  0  0  0  0  0  0
    6.4228   -3.5913   21.3539 C   0  0  0  0  0  0  0  0  0  0  0  0
    7.6736   -5.4815   22.3407 C   0  0  0  0  0  0  0  0  0  0  0  0
    8.7647   -3.2729   22.2894 C   0  0  0  0  0  0  0  0  0  0  0  0
    8.1938   -5.6559   23.7596 C   0  0  0  0  0  0  0  0  0  0  0  0
    9.2494   -3.5381   23.7202 C   0  0  1  0  0  0  0  0  0  0  0  0
    6.0233   -2.1665   21.6438 C   0  0  0  0  0  0  0  0  0  0  0  0
    7.5616   -4.0630   22.0045 N   0  0  0  0  0  0  0  0  0  0  0  0
    5.7411   -4.2642   20.5766 O   0  0  0  0  0  0  0  0  0  0  0  0
    9.4206   -4.9457   23.9342 O   0  0  0  0  0  0  0  0  0  0  0  0
   14.1428   -0.9238   24.7472 F   0  0  0  0  0  0  0  0  0  0  0  0
    6.8721   -1.1581   20.4775 Cl  0  0  0  0  0  0  0  0  0  0  0  0
  1  3  2  0  0  0  0
  1  5  1  0  0  0  0
  2  4  1  0  0  0  0
  2  5  2  0  0  0  0
  3  6  1  0  0  0  0
  4  6  2  0  0  0  0
  5 11  1  0  0  0  0
  6 16  1  0  0  0  0
  7 12  1  0  0  0  0
  7 13  1  0  0  0  0
  7 14  2  0  0  0  0
  8 10  1  0  0  0  0
  8 13  1  0  0  0  0
  9 11  1  0  0  0  0
  9 13  1  0  0  0  0
 10 15  1  0  0  0  0
 11 15  1  0  0  0  0
 12 17  1  0  0  0  0
M  END
> <ref_mols>
x1435_0

> <original SMILES>
Fc1ccc(cc1)C2CN(CCO2)C(=O)CCl

> <Chemgauss4>
-9.509590

> <ref_pdb>
x0749_0

$$$$
x1329
  -OEChem-05172015543D

 17 18  0     1  0  0  0  0  0999 V2000
   11.4683   -3.3853   24.9036 C   0  0  0  0  0  0  0  0  0  0  0  0
   10.8662   -1.6448   23.3399 C   0  0  0  0  0  0  0  0  0  0  0  0
   12.6782   -2.7392   25.1570 C   0  0  0  0  0  0  0  0  0  0  0  0
   12.0761   -0.9986   23.5933 C   0  0  0  0  0  0  0  0  0  0  0  0
   10.5623   -2.8381   23.9950 C   0  0  0  0  0  0  0  0  0  0  0  0
   12.9821   -1.5458   24.5019 C   0  0  0  0  0  0  0  0  0  0  0  0
    6.4228   -3.5913   21.3539 C   0  0  0  0  0  0  0  0  0  0  0  0
    7.6736   -5.4815   22.3407 C   0  0  0  0  0  0  0  0  0  0  0  0
    8.7647   -3.2729   22.2894 C   0  0  0  0  0  0  0  0  0  0  0  0
    8.1938   -5.6559   23.7596 C   0  0  0  0  0  0  0  0  0  0  0  0
    9.2494   -3.5381   23.7202 C   0  0  1  0  0  0  0  0  0  0  0  0
    6.0233   -2.1665   21.6438 C   0  0  0  0  0  0  0  0  0  0  0  0
    7.5616   -4.0630   22.0045 N   0  0  0  0  0  0  0  0  0  0  0  0
    5.7411   -4.2642   20.5766 O   0  0  0  0  0  0  0  0  0  0  0  0
    9.4206   -4.9457   23.9342 O   0  0  0  0  0  0  0  0  0  0  0  0
   14.1428   -0.9238   24.7472 F   0  0  0  0  0  0  0  0  0  0  0  0
    6.8721   -1.1581   20.4775 Cl  0  0  0  0  0  0  0  0  0  0  0  0
  1  3  2  0  0  0  0
  1  5  1  0  0  0  0
  2  4  1  0  0  0  0
  2  5  2  0  0  0  0
  3  6  1  0  0  0  0
  4  6  2  0  0  0  0
  5 11  1  0  0  0  0
  6 16  1  0  0  0  0
  7 12  1  0  0  0  0
  7 13  1  0  0  0  0
  7 14  2  0  0  0  0
  8 10  1  0  0  0  0
  8 13  1  0  0  0  0
  9 11  1  0  0  0  0
  9 13  1  0  0  0  0
 10 15  1  0  0  0  0
 11 15  1  0  0  0  0
 12 17  1  0  0  0  0
M  END
> <ref_mols>
x1329_0

> <original SMILES>
Fc1ccc(cc1)C2CN(CCO2)C(=O)CCl

> <Chemgauss4>
-9.509590

> <ref_pdb>
x0749_0

> <CYS145-warhead dist minimum (A)>
10.865746

> <CYS145-warhead dist mean (A)>
12.249487

> <CYS145-warhead dist stddev (A)>
0.51455534

$$$$
x1413
  -OEChem-05172015543D

 17 18  0     1  0  0  0  0  0999 V2000
   11.4683   -3.3853   24.9036 C   0  0  0  0  0  0  0  0  0  0  0  0
   10.8662   -1.6448   23.3399 C   0  0  0  0  0  0  0  0  0  0  0  0
   12.6782   -2.7392   25.1570 C   0  0  0  0  0  0  0  0  0  0  0  0
   12.0761   -0.9986   23.5933 C   0  0  0  0  0  0  0  0  0  0  0  0
   10.5623   -2.8381   23.9950 C   0  0  0  0  0  0  0  0  0  0  0  0
   12.9821   -1.5458   24.5019 C   0  0  0  0  0  0  0  0  0  0  0  0
    6.4228   -3.5913   21.3539 C   0  0  0  0  0  0  0  0  0  0  0  0
    7.6736   -5.4815   22.3407 C   0  0  0  0  0  0  0  0  0  0  0  0
    8.7647   -3.2729   22.2894 C   0  0  0  0  0  0  0  0  0  0  0  0
    8.1938   -5.6559   23.7596 C   0  0  0  0  0  0  0  0  0  0  0  0
    9.2494   -3.5381   23.7202 C   0  0  1  0  0  0  0  0  0  0  0  0
    6.0233   -2.1665   21.6438 C   0  0  0  0  0  0  0  0  0  0  0  0
    7.5616   -4.0630   22.0045 N   0  0  0  0  0  0  0  0  0  0  0  0
    5.7411   -4.2642   20.5766 O   0  0  0  0  0  0  0  0  0  0  0  0
    9.4206   -4.9457   23.9342 O   0  0  0  0  0  0  0  0  0  0  0  0
   14.1428   -0.9238   24.7472 F   0  0  0  0  0  0  0  0  0  0  0  0
    6.8721   -1.1581   20.4775 Cl  0  0  0  0  0  0  0  0  0  0  0  0
  1  3  2  0  0  0  0
  1  5  1  0  0  0  0
  2  4  1  0  0  0  0
  2  5  2  0  0  0  0
  3  6  1  0  0  0  0
  4  6  2  0  0  0  0
  5 11  1  0  0  0  0
  6 16  1  0  0  0  0
  7 12  1  0  0  0  0
  7 13  1  0  0  0  0
  7 14  2  0  0  0  0
  8 10  1  0  0  0  0
  8 13  1  0  0  0  0
  9 11  1  0  0  0  0
  9 13  1  0  0  0  0
 10 15  1  0  0  0  0
 11 15  1  0  0  0  0
 12 17  1  0  0  0  0
M  END
> <ref_mols>
x1413_0

> <original SMILES>
Fc1ccc(cc1)C2CN(CCO2)C(=O)CCl

> <Chemgauss4>
-9.509590

> <ref_pdb>
x0749_0

$$$$
x2614
  -OEChem-05172015543D

 18 19  0     0  0  0  0  0  0999 V2000
    5.8174    0.9896   19.4620 C   0  0  0  0  0  0  0  0  0  0  0  0
    6.7288    0.7398   20.4820 C   0  0  0  0  0  0  0  0  0  0  0  0
   13.1251   -1.6289   21.8161 C   0  0  0  0  0  0  0  0  0  0  0  0
   14.2806   -2.0043   22.5604 C   0  0  0  0  0  0  0  0  0  0  0  0
    6.2027    0.7007   18.1628 C   0  0  0  0  0  0  0  0  0  0  0  0
    8.2684   -0.0383   18.8447 C   0  0  0  0  0  0  0  0  0  0  0  0
    7.9800    0.2161   20.1759 C   0  0  0  0  0  0  0  0  0  0  0  0
   12.1204   -1.1493   22.6274 C   0  0  0  0  0  0  0  0  0  0  0  0
   14.1152   -1.7970   23.9123 C   0  0  0  0  0  0  0  0  0  0  0  0
   10.2235   -0.5719   21.0501 C   0  0  0  0  0  0  0  0  0  0  0  0
    7.4090    0.1914   17.8267 N   0  0  0  0  0  0  0  0  0  0  0  0
    8.9136   -0.0443   21.1760 N   0  0  0  0  0  0  0  0  0  0  0  0
   10.8249   -0.6738   22.3148 N   0  0  0  0  0  0  0  0  0  0  0  0
   10.7476   -0.8905   19.9875 O   0  0  0  0  0  0  0  0  0  0  0  0
   12.5717   -1.1526   24.2793 S   0  0  0  0  0  0  0  0  0  0  0  0
   15.2403   -2.1069   25.1671 Cl  0  0  0  0  0  0  0  0  0  0  0  0
    8.6129    0.1753   22.1327 H   0  0  0  0  0  0  0  0  0  0  0  0
   10.2657   -0.3708   23.1082 H   0  0  0  0  0  0  0  0  0  0  0  0
  1  2  2  0  0  0  0
  1  5  1  0  0  0  0
  2  7  1  0  0  0  0
  3  4  1  0  0  0  0
  3  8  2  0  0  0  0
  4  9  2  0  0  0  0
  5 11  2  0  0  0  0
  6  7  2  0  0  0  0
  6 11  1  0  0  0  0
  7 12  1  0  0  0  0
  8 13  1  0  0  0  0
  8 15  1  0  0  0  0
  9 15  1  0  0  0  0
  9 16  1  0  0  0  0
 10 12  1  0  0  0  0
 10 13  1  0  0  0  0
 10 14  2  0  0  0  0
 12 17  1  0  0  0  0
 13 18  1  0  0  0  0
M  END
> <ref_mols>
x2614_0

> <original SMILES>
ClC1=CC=C(NC(=O)NC=2C=CC=NC2)S1

> <Chemgauss4>
-9.498690

> <ref_pdb>
x0678_0

$$$$
x2593
  -OEChem-05172015543D

 25 27  0     0  0  0  0  0  0999 V2000
   14.2144   -1.9052   22.7576 C   0  0  0  0  0  0  0  0  0  0  0  0
   12.8564   -2.2229   22.7348 C   0  0  0  0  0  0  0  0  0  0  0  0
   14.6215   -0.5754   22.6506 C   0  0  0  0  0  0  0  0  0  0  0  0
   12.9636    5.8740   24.5693 C   0  0  0  0  0  0  0  0  0  0  0  0
   12.3125    0.1192   22.4980 C   0  0  0  0  0  0  0  0  0  0  0  0
   11.8108    6.2719   25.3049 C   0  0  0  0  0  0  0  0  0  0  0  0
   11.9054   -1.2107   22.6050 C   0  0  0  0  0  0  0  0  0  0  0  0
   13.6706    0.4368   22.5208 C   0  0  0  0  0  0  0  0  0  0  0  0
   12.6599    5.7781   23.2287 C   0  0  0  0  0  0  0  0  0  0  0  0
    9.1559   -0.0260   24.1230 C   0  0  0  0  0  0  0  0  0  0  0  0
   13.2797    2.9206   22.2785 C   0  0  0  0  0  0  0  0  0  0  0  0
    8.5112   -0.1850   25.4800 C   0  0  0  0  0  0  0  0  0  0  0  0
    9.2396   -1.3828   26.0775 C   0  0  0  0  0  0  0  0  0  0  0  0
    9.6187   -2.2174   24.8705 C   0  0  0  0  0  0  0  0  0  0  0  0
   10.4438   -1.5531   22.5806 C   0  0  0  0  0  0  0  0  0  0  0  0
   13.5238    5.3989   22.0608 C   0  0  0  0  0  0  0  0  0  0  0  0
   10.6898    6.4761   24.6171 N   0  0  0  0  0  0  0  0  0  0  0  0
    9.7913   -1.2306   23.8309 N   0  0  0  0  0  0  0  0  0  0  0  0
   14.0781    1.7670   22.4145 N   0  0  0  0  0  0  0  0  0  0  0  0
   14.0729    4.0701   22.2034 N   0  0  0  0  0  0  0  0  0  0  0  0
    9.0706    0.9735   23.4252 O   0  0  0  0  0  0  0  0  0  0  0  0
   12.0523    2.9474   22.2296 O   0  0  0  0  0  0  0  0  0  0  0  0
   11.0096    6.1826   23.0128 S   0  0  0  0  0  0  0  0  0  0  0  0
   15.0881    1.9426   22.4375 H   0  0  0  0  0  0  0  0  0  0  0  0
   15.0815    3.9660   22.2513 H   0  0  0  0  0  0  0  0  0  0  0  0
  1  2  1  0  0  0  0
  1  3  2  0  0  0  0
  2  7  2  0  0  0  0
  3  8  1  0  0  0  0
  4  6  1  0  0  0  0
  4  9  2  0  0  0  0
  5  7  1  0  0  0  0
  5  8  2  0  0  0  0
  6 17  2  0  0  0  0
  7 15  1  0  0  0  0
  8 19  1  0  0  0  0
  9 16  1  0  0  0  0
  9 23  1  0  0  0  0
 10 12  1  0  0  0  0
 10 18  1  0  0  0  0
 10 21  2  0  0  0  0
 11 19  1  0  0  0  0
 11 20  1  0  0  0  0
 11 22  2  0  0  0  0
 12 13  1  0  0  0  0
 13 14  1  0  0  0  0
 14 18  1  0  0  0  0
 15 18  1  0  0  0  0
 16 20  1  0  0  0  0
 17 23  1  0  0  0  0
 19 24  1  0  0  0  0
 20 25  1  0  0  0  0
M  END
> <ref_mols>
x2593_0

> <original SMILES>
O=C(NCC1=CC=NS1)NC=2C=CC=C(CN3CCCC3=O)C2

> <Chemgauss4>
-9.494002

> <ref_pdb>
x0195_0

$$$$
x0380
  -OEChem-05172015543D

 20 21  0     0  0  0  0  0  0999 V2000
    4.9734    1.3276   18.9936 C   0  0  0  0  0  0  0  0  0  0  0  0
    5.9928    1.0093   18.0963 C   0  0  0  0  0  0  0  0  0  0  0  0
    5.0871    0.9649   20.3357 C   0  0  0  0  0  0  0  0  0  0  0  0
    7.1259    0.3282   18.5411 C   0  0  0  0  0  0  0  0  0  0  0  0
    6.2201    0.2838   20.7805 C   0  0  0  0  0  0  0  0  0  0  0  0
    7.2396   -0.0346   19.8832 C   0  0  0  0  0  0  0  0  0  0  0  0
   11.1556    0.8927   22.8340 C   0  0  0  0  0  0  0  0  0  0  0  0
    8.6716   -1.1651   21.6302 C   0  0  0  0  0  0  0  0  0  0  0  0
   12.3739    1.7772   22.7085 C   0  0  0  0  0  0  0  0  0  0  0  0
   13.5320    0.8185   22.9581 C   0  0  0  0  0  0  0  0  0  0  0  0
   12.9479   -0.2225   23.8920 C   0  0  0  0  0  0  0  0  0  0  0  0
   10.6771   -1.3207   23.9484 C   0  0  0  0  0  0  0  0  0  0  0  0
   10.4774   -2.3709   22.8687 C   0  0  0  0  0  0  0  0  0  0  0  0
   11.5541   -0.2540   23.5169 N   0  0  0  0  0  0  0  0  0  0  0  0
    8.3887   -0.7251   20.3341 N   0  0  0  0  0  0  0  0  0  0  0  0
    9.9160   -1.8106   21.6694 N   0  0  0  0  0  0  0  0  0  0  0  0
   10.0379    1.1879   22.4381 O   0  0  0  0  0  0  0  0  0  0  0  0
    7.9600   -1.0273   22.6222 O   0  0  0  0  0  0  0  0  0  0  0  0
    9.0908   -0.9237   19.6257 H   0  0  0  0  0  0  0  0  0  0  0  0
   10.4489   -1.8863   20.8049 H   0  0  0  0  0  0  0  0  0  0  0  0
  1  2  1  0  0  0  0
  1  3  2  0  0  0  0
  2  4  2  0  0  0  0
  3  5  1  0  0  0  0
  4  6  1  0  0  0  0
  5  6  2  0  0  0  0
  6 15  1  0  0  0  0
  7  9  1  0  0  0  0
  7 14  1  0  0  0  0
  7 17  2  0  0  0  0
  8 15  1  0  0  0  0
  8 16  1  0  0  0  0
  8 18  2  0  0  0  0
  9 10  1  0  0  0  0
 10 11  1  0  0  0  0
 11 14  1  0  0  0  0
 12 13  1  0  0  0  0
 12 14  1  0  0  0  0
 13 16  1  0  0  0  0
 15 19  1  0  0  0  0
 16 20  1  0  0  0  0
M  END
> <ref_mols>
x0380_0

> <original SMILES>
O=C(NCCN1CCCC1=O)NC=2C=CC=CC2

> <Chemgauss4>
-9.487142

> <ref_pdb>
x1093_0

$$$$
x2580
  -OEChem-05172015543D

 25 27  0     1  0  0  0  0  0999 V2000
   13.6589   -1.6277   23.5165 C   0  0  0  0  0  0  0  0  0  0  0  0
   12.4272   -1.9452   22.9441 C   0  0  0  0  0  0  0  0  0  0  0  0
   14.0514   -0.2941   23.6317 C   0  0  0  0  0  0  0  0  0  0  0  0
   11.9804    0.4044   22.6020 C   0  0  0  0  0  0  0  0  0  0  0  0
    6.4316    0.9165   17.6371 C   0  0  0  0  0  0  0  0  0  0  0  0
    5.9928    1.1262   18.9259 C   0  0  0  0  0  0  0  0  0  0  0  0
    7.9690   -0.5918   18.4059 C   0  0  0  0  0  0  0  0  0  0  0  0
   11.5880   -0.9292   22.4868 C   0  0  0  0  0  0  0  0  0  0  0  0
   13.2122    0.7219   23.1744 C   0  0  0  0  0  0  0  0  0  0  0  0
    7.5308   -0.3816   19.6948 C   0  0  0  0  0  0  0  0  0  0  0  0
    9.3856   -0.3730   21.3970 C   0  0  0  0  0  0  0  0  0  0  0  0
   11.3376    4.9833   23.4160 C   0  0  0  0  0  0  0  0  0  0  0  0
   12.5462    5.5496   22.6655 C   0  0  0  0  0  0  0  0  0  0  0  0
   11.7346    3.5759   23.8535 C   0  0  0  0  0  0  0  0  0  0  0  0
   13.6083    4.4535   22.6884 C   0  0  0  0  0  0  0  0  0  0  0  0
   12.7987    3.1713   22.8404 C   0  0  0  0  0  0  0  0  0  0  0  0
    7.1402   -1.3989   21.9595 C   0  0  0  0  0  0  0  0  0  0  0  0
    8.1653   -1.1268   20.8554 C   0  0  1  0  0  0  0  0  0  0  0  0
    7.4276    0.0537   17.3540 N   0  0  0  0  0  0  0  0  0  0  0  0
    6.5346    0.4809   19.9779 N   0  0  0  0  0  0  0  0  0  0  0  0
   10.3561   -1.2474   21.9142 N   0  0  0  0  0  0  0  0  0  0  0  0
   13.6033    2.0490   23.2888 N   0  0  0  0  0  0  0  0  0  0  0  0
    9.4572    0.8518   21.3525 O   0  0  0  0  0  0  0  0  0  0  0  0
   10.1270   -2.2464   21.8589 H   0  0  0  0  0  0  0  0  0  0  0  0
   14.5073    2.2421   23.7108 H   0  0  0  0  0  0  0  0  0  0  0  0
  1  2  2  0  0  0  0
  1  3  1  0  0  0  0
  2  8  1  0  0  0  0
  3  9  2  0  0  0  0
  4  8  2  0  0  0  0
  4  9  1  0  0  0  0
  5  6  2  0  0  0  0
  5 19  1  0  0  0  0
  6 20  1  0  0  0  0
  7 10  1  0  0  0  0
  7 19  2  0  0  0  0
  8 21  1  0  0  0  0
  9 22  1  0  0  0  0
 10 18  1  0  0  0  0
 10 20  2  0  0  0  0
 11 18  1  0  0  0  0
 11 21  1  0  0  0  0
 11 23  2  0  0  0  0
 12 13  1  0  0  0  0
 12 14  1  0  0  0  0
 13 15  1  0  0  0  0
 14 16  1  0  0  0  0
 15 16  1  0  0  0  0
 16 22  1  0  0  0  0
 17 18  1  0  0  0  0
 21 24  1  0  0  0  0
 22 25  1  0  0  0  0
M  END
> <ref_mols>
x2580_0

> <original SMILES>
CC(C(=O)NC=1C=CC=C(NC2CCCC2)C1)C=3C=NC=CN3

> <Chemgauss4>
-9.470178

> <ref_pdb>
x0678_0

$$$$
x0281
  -OEChem-05172015543D

 21 22  0     0  0  0  0  0  0999 V2000
   13.5330   -1.2009   23.7533 C   0  0  0  0  0  0  0  0  0  0  0  0
   12.7921   -0.2853   24.5005 C   0  0  0  0  0  0  0  0  0  0  0  0
   12.8868   -2.0643   22.8686 C   0  0  0  0  0  0  0  0  0  0  0  0
    8.1616   -3.5483   26.3851 C   0  0  0  0  0  0  0  0  0  0  0  0
    7.5722   -5.2763   24.8027 C   0  0  0  0  0  0  0  0  0  0  0  0
   11.4050   -0.2331   24.3632 C   0  0  0  0  0  0  0  0  0  0  0  0
   11.4997   -2.0121   22.7312 C   0  0  0  0  0  0  0  0  0  0  0  0
    8.5320   -2.7110   25.3328 C   0  0  0  0  0  0  0  0  0  0  0  0
    7.9426   -4.4390   23.7504 C   0  0  0  0  0  0  0  0  0  0  0  0
    7.6818   -4.8310   26.1201 C   0  0  0  0  0  0  0  0  0  0  0  0
   10.7588   -1.0966   23.4785 C   0  0  0  0  0  0  0  0  0  0  0  0
    8.4225   -3.1563   24.0155 C   0  0  0  0  0  0  0  0  0  0  0  0
    7.2953   -5.7041   27.2171 C   0  0  0  0  0  0  0  0  0  0  0  0
    9.2667   -1.0412   23.3304 C   0  0  0  0  0  0  0  0  0  0  0  0
    5.9265   -7.5536   27.9080 N   0  0  0  0  0  0  0  0  0  0  0  0
    6.3278   -6.6688   26.9238 N   0  0  0  0  0  0  0  0  0  0  0  0
    7.8024   -5.6267   28.3479 O   0  0  0  0  0  0  0  0  0  0  0  0
    8.7840   -2.3396   22.9885 O   0  0  0  0  0  0  0  0  0  0  0  0
    5.7142   -8.4351   27.4426 H   0  0  0  0  0  0  0  0  0  0  0  0
    6.7419   -7.7339   28.4921 H   0  0  0  0  0  0  0  0  0  0  0  0
    5.9226   -6.7198   25.9953 H   0  0  0  0  0  0  0  0  0  0  0  0
  1  2  1  0  0  0  0
  1  3  2  0  0  0  0
  2  6  2  0  0  0  0
  3  7  1  0  0  0  0
  4  8  2  0  0  0  0
  4 10  1  0  0  0  0
  5  9  1  0  0  0  0
  5 10  2  0  0  0  0
  6 11  1  0  0  0  0
  7 11  2  0  0  0  0
  8 12  1  0  0  0  0
  9 12  2  0  0  0  0
 10 13  1  0  0  0  0
 11 14  1  0  0  0  0
 12 18  1  0  0  0  0
 13 16  1  0  0  0  0
 13 17  2  0  0  0  0
 14 18  1  0  0  0  0
 15 16  1  0  0  0  0
 15 19  1  0  0  0  0
 15 20  1  0  0  0  0
 16 21  1  0  0  0  0
M  END
> <ref_mols>
x0281_0

> <original SMILES>
NNC(=O)C=1C=CC(OCC=2C=CC=CC2)=CC1

> <Chemgauss4>
-9.467397

> <ref_pdb>
x0072_0

$$$$
x0507
  -OEChem-05172015543D

 18 19  0     0  0  0  0  0  0999 V2000
    9.9728   -0.9530   24.6715 C   0  0  0  0  0  0  0  0  0  0  0  0
   11.1700   -0.2481   24.7952 C   0  0  0  0  0  0  0  0  0  0  0  0
   10.9607   -2.3287   22.9486 C   0  0  0  0  0  0  0  0  0  0  0  0
    9.8681   -1.9934   23.7483 C   0  0  0  0  0  0  0  0  0  0  0  0
   12.2626   -0.5834   23.9955 C   0  0  0  0  0  0  0  0  0  0  0  0
   12.1580   -1.6238   23.0723 C   0  0  0  0  0  0  0  0  0  0  0  0
    8.6160   -2.7301   23.6188 C   0  0  0  0  0  0  0  0  0  0  0  0
    8.8006   -3.4270   26.0723 C   0  0  0  0  0  0  0  0  0  0  0  0
    6.8784   -4.1355   24.6899 C   0  0  0  0  0  0  0  0  0  0  0  0
    8.9824   -4.8560   26.5689 C   0  0  0  0  0  0  0  0  0  0  0  0
    7.0447   -5.5720   25.1613 C   0  0  0  0  0  0  0  0  0  0  0  0
    6.7320   -5.2429   27.6476 C   0  0  0  0  0  0  0  0  0  0  0  0
    8.1425   -3.4009   24.7584 N   0  0  0  0  0  0  0  0  0  0  0  0
    7.6742   -5.6086   26.5338 N   0  3  0  0  0  0  0  0  0  0  0  0
    8.0326   -2.7338   22.5352 O   0  0  0  0  0  0  0  0  0  0  0  0
   13.4125    0.0929   24.1149 F   0  0  0  0  0  0  0  0  0  0  0  0
   13.2074   -1.9460   22.3050 F   0  0  0  0  0  0  0  0  0  0  0  0
    7.9258   -6.6245   26.7037 H   0  0  0  0  0  0  0  0  0  0  0  0
  1  2  2  0  0  0  0
  1  4  1  0  0  0  0
  2  5  1  0  0  0  0
  3  4  2  0  0  0  0
  3  6  1  0  0  0  0
  4  7  1  0  0  0  0
  5  6  2  0  0  0  0
  5 16  1  0  0  0  0
  6 17  1  0  0  0  0
  7 13  1  0  0  0  0
  7 15  2  0  0  0  0
  8 10  1  0  0  0  0
  8 13  1  0  0  0  0
  9 11  1  0  0  0  0
  9 13  1  0  0  0  0
 10 14  1  0  0  0  0
 11 14  1  0  0  0  0
 12 14  1  0  0  0  0
 14 18  1  0  0  0  0
M  CHG  1  14   1
M  END
> <ref_mols>
x0507_0

> <original SMILES>
CN1CCN(CC1)C(=O)C=2C=CC(F)=C(F)C2

> <Chemgauss4>
-9.467382

> <ref_pdb>
x0072_0

$$$$
x2570
  -OEChem-05172015543D

 33 37  0     0  0  0  0  0  0999 V2000
    5.7412   -5.4434   22.0574 C   0  0  0  0  0  0  0  0  0  0  0  0
    5.1567    1.0241   19.3421 C   0  0  0  0  0  0  0  0  0  0  0  0
    6.1115    1.1826   20.3404 C   0  0  0  0  0  0  0  0  0  0  0  0
    6.1178   -4.2178   21.5082 C   0  0  0  0  0  0  0  0  0  0  0  0
    5.9314   -5.6860   23.4178 C   0  0  0  0  0  0  0  0  0  0  0  0
    6.8749   -3.4774   23.6797 C   0  0  0  0  0  0  0  0  0  0  0  0
    5.5477    0.4123   18.1620 C   0  0  0  0  0  0  0  0  0  0  0  0
    7.6998    0.1320   18.9157 C   0  0  0  0  0  0  0  0  0  0  0  0
    7.4097    0.7308   20.1310 C   0  0  0  0  0  0  0  0  0  0  0  0
    6.6847   -3.2348   22.3193 C   0  0  0  0  0  0  0  0  0  0  0  0
    6.4983   -4.7030   24.2289 C   0  0  0  0  0  0  0  0  0  0  0  0
    8.4151    0.8802   21.1394 C   0  0  0  0  0  0  0  0  0  0  0  0
    8.6948   -0.0361   22.1260 C   0  0  0  0  0  0  0  0  0  0  0  0
   10.0058    1.7489   22.2725 C   0  0  0  0  0  0  0  0  0  0  0  0
    7.6405   -4.4492   26.4085 C   0  0  0  0  0  0  0  0  0  0  0  0
   11.0483    2.5179   22.8685 C   0  0  0  0  0  0  0  0  0  0  0  0
   11.6977    2.0385   23.9470 C   0  0  0  0  0  0  0  0  0  0  0  0
   11.3626    0.7471   24.5256 C   0  0  0  0  0  0  0  0  0  0  0  0
   10.3822    0.0168   23.9696 C   0  0  0  0  0  0  0  0  0  0  0  0
    7.0819   -1.9409   21.7381 C   0  0  0  0  0  0  0  0  0  0  0  0
    6.7991   -0.0394   17.9222 N   0  0  0  0  0  0  0  0  0  0  0  0
    9.2284    1.9809   21.2345 N   0  0  0  0  0  0  0  0  0  0  0  0
    7.4430   -4.9408   27.6100 N   0  0  0  0  0  0  0  0  0  0  0  0
    6.3385   -5.7552   27.5010 N   0  0  0  0  0  0  0  0  0  0  0  0
    5.8704   -5.7604   26.2588 N   0  0  0  0  0  0  0  0  0  0  0  0
    6.6860   -4.9434   25.5778 N   0  0  0  0  0  0  0  0  0  0  0  0
    9.7152    0.5182   22.8554 N   0  0  0  0  0  0  0  0  0  0  0  0
    8.5869   -3.5940   25.9621 N   0  0  0  0  0  0  0  0  0  0  0  0
    8.1376   -1.2570   22.4070 N   0  0  0  0  0  0  0  0  0  0  0  0
    6.5014   -1.4838   20.7558 O   0  0  0  0  0  0  0  0  0  0  0  0
    9.2845   -3.1730   26.5921 H   0  0  0  0  0  0  0  0  0  0  0  0
    8.5982   -3.2495   24.9914 H   0  0  0  0  0  0  0  0  0  0  0  0
    8.5423   -1.7532   23.2227 H   0  0  0  0  0  0  0  0  0  0  0  0
  1  4  1  0  0  0  0
  1  5  2  0  0  0  0
  2  3  2  0  0  0  0
  2  7  1  0  0  0  0
  3  9  1  0  0  0  0
  4 10  2  0  0  0  0
  5 11  1  0  0  0  0
  6 10  1  0  0  0  0
  6 11  2  0  0  0  0
  7 21  2  0  0  0  0
  8  9  2  0  0  0  0
  8 21  1  0  0  0  0
  9 12  1  0  0  0  0
 10 20  1  0  0  0  0
 11 26  1  0  0  0  0
 12 13  2  0  0  0  0
 12 22  1  0  0  0  0
 13 27  1  0  0  0  0
 13 29  1  0  0  0  0
 14 16  1  0  0  0  0
 14 22  2  0  0  0  0
 14 27  1  0  0  0  0
 15 23  2  0  0  0  0
 15 26  1  0  0  0  0
 15 28  1  0  0  0  0
 16 17  2  0  0  0  0
 17 18  1  0  0  0  0
 18 19  2  0  0  0  0
 19 27  1  0  0  0  0
 20 29  1  0  0  0  0
 20 30  2  0  0  0  0
 23 24  1  0  0  0  0
 24 25  2  0  0  0  0
 25 26  1  0  0  0  0
 28 31  1  0  0  0  0
 28 32  1  0  0  0  0
 29 33  1  0  0  0  0
M  END
> <ref_mols>
x2570_0

> <original SMILES>
NC1=NN=NN1C=2C=CC=C(C2)C(=O)NC3=C(N=C4C=CC=CN34)C=5C=CC=NC5

> <Chemgauss4>
-9.456435

> <ref_pdb>
x0107_0

$$$$
x0392
  -OEChem-05172015543D

 18 19  0     0  0  0  0  0  0999 V2000
    6.8274    0.6740   20.7121 C   0  0  0  0  0  0  0  0  0  0  0  0
    8.8034   -0.0075   19.5224 C   0  0  0  0  0  0  0  0  0  0  0  0
    7.5211    0.4413   21.8888 C   0  0  0  0  0  0  0  0  0  0  0  0
    7.4880    0.4429   19.5106 C   0  0  0  0  0  0  0  0  0  0  0  0
    9.4086   -0.2095   20.7523 C   0  0  0  0  0  0  0  0  0  0  0  0
   13.7020   -1.2836   22.6308 C   0  0  0  0  0  0  0  0  0  0  0  0
   13.3600   -0.0802   23.0997 C   0  0  0  0  0  0  0  0  0  0  0  0
    6.8047    0.6709   18.2476 C   0  0  0  0  0  0  0  0  0  0  0  0
   12.6712   -1.8317   21.7013 C   0  0  0  0  0  0  0  0  0  0  0  0
   12.0444    0.3734   22.5608 C   0  0  0  0  0  0  0  0  0  0  0  0
   11.4719   -0.9083   21.9448 C   0  0  0  0  0  0  0  0  0  0  0  0
    8.7992    0.0040   21.9400 N   0  0  0  0  0  0  0  0  0  0  0  0
    5.4884    1.1213   18.2951 N   0  0  0  0  0  0  0  0  0  0  0  0
   10.7163   -0.6567   20.7483 N   0  0  0  0  0  0  0  0  0  0  0  0
    7.3660    0.4567   17.1586 O   0  0  0  0  0  0  0  0  0  0  0  0
    5.0493    1.2754   19.1963 H   0  0  0  0  0  0  0  0  0  0  0  0
    4.9583    1.2988   17.4481 H   0  0  0  0  0  0  0  0  0  0  0  0
   11.1730   -0.8164   19.8608 H   0  0  0  0  0  0  0  0  0  0  0  0
  1  3  2  0  0  0  0
  1  4  1  0  0  0  0
  2  4  2  0  0  0  0
  2  5  1  0  0  0  0
  3 12  1  0  0  0  0
  4  8  1  0  0  0  0
  5 12  2  0  0  0  0
  5 14  1  0  0  0  0
  6  7  2  0  0  0  0
  6  9  1  0  0  0  0
  7 10  1  0  0  0  0
  8 13  1  0  0  0  0
  8 15  2  0  0  0  0
  9 11  1  0  0  0  0
 10 11  1  0  0  0  0
 11 14  1  0  0  0  0
 13 16  1  0  0  0  0
 13 17  1  0  0  0  0
 14 18  1  0  0  0  0
M  END
> <ref_mols>
x0392_0

> <original SMILES>
NC(=O)C=1C=CN=C(NC2CC=CC2)C1

> <Chemgauss4>
-9.453894

> <ref_pdb>
x0678_0

$$$$
x2854
  -OEChem-05172015543D

 19 20  0     0  0  0  0  0  0999 V2000
   10.7891    1.0601   21.2145 C   0  0  0  0  0  0  0  0  0  0  0  0
   10.2042   -1.2689   21.4800 C   0  0  0  0  0  0  0  0  0  0  0  0
   11.9202    0.8665   22.0073 C   0  0  0  0  0  0  0  0  0  0  0  0
   11.3354   -1.4626   22.2728 C   0  0  0  0  0  0  0  0  0  0  0  0
    6.4353    0.7427   19.8322 C   0  0  0  0  0  0  0  0  0  0  0  0
    6.6166    0.5418   18.4733 C   0  0  0  0  0  0  0  0  0  0  0  0
    8.8351    0.0163   18.7560 C   0  0  0  0  0  0  0  0  0  0  0  0
    9.9310   -0.0076   20.9508 C   0  0  0  0  0  0  0  0  0  0  0  0
    8.7579    0.1927   20.1281 C   0  0  0  0  0  0  0  0  0  0  0  0
    7.5314    0.5627   20.6686 C   0  0  0  0  0  0  0  0  0  0  0  0
   12.1934   -0.3949   22.5365 C   0  0  0  0  0  0  0  0  0  0  0  0
    7.3557    0.7760   22.1372 C   0  0  0  0  0  0  0  0  0  0  0  0
    7.7925    0.1820   17.9116 N   0  0  0  0  0  0  0  0  0  0  0  0
   12.9826   -0.3015   25.0808 N   0  0  0  0  0  0  0  0  0  0  0  0
   13.9800   -2.0443   23.4642 O   0  0  0  0  0  0  0  0  0  0  0  0
   14.5916    0.3843   23.1893 O   0  0  0  0  0  0  0  0  0  0  0  0
   13.6104   -0.6373   23.5275 S   0  0  0  0  0  0  0  0  0  0  0  0
   12.8544   -1.0881   25.7291 H   0  0  0  0  0  0  0  0  0  0  0  0
   13.2713    0.5714   25.5390 H   0  0  0  0  0  0  0  0  0  0  0  0
  1  3  2  0  0  0  0
  1  8  1  0  0  0  0
  2  4  1  0  0  0  0
  2  8  2  0  0  0  0
  3 11  1  0  0  0  0
  4 11  2  0  0  0  0
  5  6  2  0  0  0  0
  5 10  1  0  0  0  0
  6 13  1  0  0  0  0
  7  9  1  0  0  0  0
  7 13  2  0  0  0  0
  8  9  1  0  0  0  0
  9 10  2  0  0  0  0
 10 12  1  0  0  0  0
 11 17  1  0  0  0  0
 14 17  1  0  0  0  0
 15 17  2  0  0  0  0
 16 17  2  0  0  0  0
 14 18  1  0  0  0  0
 14 19  1  0  0  0  0
M  END
> <ref_mols>
x2854_0

> <original SMILES>
CC=1C=CN=CC1C=2C=CC(=CC2)S(=O)(=O)N

> <Chemgauss4>
-9.448851

> <ref_pdb>
x0678_0

$$$$
x2814
  -OEChem-05172015543D

 25 27  0     1  0  0  0  0  0999 V2000
    9.9046    4.2003   23.8093 C   0  0  0  0  0  0  0  0  0  0  0  0
   11.0335    4.0682   24.6179 C   0  0  0  0  0  0  0  0  0  0  0  0
    9.6235    3.2362   22.8412 C   0  0  0  0  0  0  0  0  0  0  0  0
   11.8813    2.9722   24.4582 C   0  0  0  0  0  0  0  0  0  0  0  0
    6.4708    1.0891   17.5915 C   0  0  0  0  0  0  0  0  0  0  0  0
    5.9615    1.2062   18.8661 C   0  0  0  0  0  0  0  0  0  0  0  0
    8.2628   -0.0693   18.4138 C   0  0  0  0  0  0  0  0  0  0  0  0
   10.4713    2.1402   22.6815 C   0  0  0  0  0  0  0  0  0  0  0  0
   11.6003    2.0081   23.4901 C   0  0  0  0  0  0  0  0  0  0  0  0
    7.7540    0.0483   19.6885 C   0  0  0  0  0  0  0  0  0  0  0  0
   10.1595    1.1453   21.6648 C   0  0  0  0  0  0  0  0  0  0  0  0
   14.2945   -2.1268   23.4133 C   0  0  0  0  0  0  0  0  0  0  0  0
   13.1329   -1.8526   22.4623 C   0  0  0  0  0  0  0  0  0  0  0  0
   14.5799   -0.9291   24.3148 C   0  0  0  0  0  0  0  0  0  0  0  0
   11.8795   -1.4102   23.2178 C   0  0  0  0  0  0  0  0  0  0  0  0
   13.3287   -0.4826   25.0721 C   0  0  0  0  0  0  0  0  0  0  0  0
   12.1511   -0.2162   24.1345 C   0  0  0  0  0  0  0  0  0  0  0  0
    7.6672   -1.6015   21.6024 C   0  0  0  0  0  0  0  0  0  0  0  0
    8.4924   -0.5467   20.8681 C   0  0  2  0  0  0  0  0  0  0  0  0
    7.6305    0.4492   17.3425 N   0  0  0  0  0  0  0  0  0  0  0  0
    6.5940    0.6879   19.9375 N   0  0  0  0  0  0  0  0  0  0  0  0
    8.9340    0.4812   21.7831 N   0  0  0  0  0  0  0  0  0  0  0  0
   10.9698    0.8998   20.7550 O   0  0  0  0  0  0  0  0  0  0  0  0
   12.4437    0.9382   23.3499 O   0  0  0  0  0  0  0  0  0  0  0  0
    8.3381    0.6758   22.5811 H   0  0  0  0  0  0  0  0  0  0  0  0
  1  2  1  0  0  0  0
  1  3  2  0  0  0  0
  2  4  2  0  0  0  0
  3  8  1  0  0  0  0
  4  9  1  0  0  0  0
  5  6  2  0  0  0  0
  5 20  1  0  0  0  0
  6 21  1  0  0  0  0
  7 10  1  0  0  0  0
  7 20  2  0  0  0  0
  8  9  2  0  0  0  0
  8 11  1  0  0  0  0
  9 24  1  0  0  0  0
 10 19  1  0  0  0  0
 10 21  2  0  0  0  0
 11 22  1  0  0  0  0
 11 23  2  0  0  0  0
 12 13  1  0  0  0  0
 12 14  1  0  0  0  0
 13 15  1  0  0  0  0
 14 16  1  0  0  0  0
 15 17  1  0  0  0  0
 16 17  1  0  0  0  0
 17 24  1  0  0  0  0
 18 19  1  0  0  0  0
 19 22  1  0  0  0  0
 22 25  1  0  0  0  0
M  END
> <ref_mols>
x2814_0

> <original SMILES>
CC(NC(=O)C=1C=CC=CC1OC2CCCCC2)C=3C=NC=CN3

> <Chemgauss4>
-9.447334

> <ref_pdb>
x0678_0

$$$$
x2785
  -OEChem-05172015543D

 18 20  0     0  0  0  0  0  0999 V2000
   13.7464   -1.2750   25.5394 C   0  0  0  0  0  0  0  0  0  0  0  0
   12.9969   -0.3459   24.8251 C   0  0  0  0  0  0  0  0  0  0  0  0
   13.2751   -2.5779   25.7248 C   0  0  0  0  0  0  0  0  0  0  0  0
   11.7567   -0.6888   24.2784 C   0  0  0  0  0  0  0  0  0  0  0  0
   11.2801   -4.1550   25.1777 C   0  0  0  0  0  0  0  0  0  0  0  0
   12.0277   -2.9471   25.1816 C   0  0  0  0  0  0  0  0  0  0  0  0
   11.2860   -1.9978   24.4713 C   0  0  0  0  0  0  0  0  0  0  0  0
   10.1121   -3.9399   24.4740 C   0  0  0  0  0  0  0  0  0  0  0  0
    5.0665   -6.0085   23.5421 C   0  0  0  0  0  0  0  0  0  0  0  0
    6.4007   -6.0245   23.5760 C   0  0  0  0  0  0  0  0  0  0  0  0
    7.1503   -5.3333   22.5060 C   0  0  0  0  0  0  0  0  0  0  0  0
    8.9931   -4.8942   24.1915 C   0  0  0  0  0  0  0  0  0  0  0  0
    9.0317   -2.6007   21.8473 C   0  0  0  0  0  0  0  0  0  0  0  0
    9.0675   -2.0302   23.2646 C   0  0  0  0  0  0  0  0  0  0  0  0
    9.1612   -4.1264   21.7785 C   0  0  0  0  0  0  0  0  0  0  0  0
   10.1248   -2.6222   24.0648 N   0  0  0  0  0  0  0  0  0  0  0  0
    8.4017   -4.8023   22.8371 N   0  0  0  0  0  0  0  0  0  0  0  0
    6.6338   -5.2720   21.3892 O   0  0  0  0  0  0  0  0  0  0  0  0
  1  2  1  0  0  0  0
  1  3  2  0  0  0  0
  2  4  2  0  0  0  0
  3  6  1  0  0  0  0
  4  7  1  0  0  0  0
  5  6  1  0  0  0  0
  5  8  2  0  0  0  0
  6  7  2  0  0  0  0
  7 16  1  0  0  0  0
  8 12  1  0  0  0  0
  8 16  1  0  0  0  0
  9 10  2  0  0  0  0
 10 11  1  0  0  0  0
 11 17  1  0  0  0  0
 11 18  2  0  0  0  0
 12 17  1  0  0  0  0
 13 14  1  0  0  0  0
 13 15  1  0  0  0  0
 14 16  1  0  0  0  0
 15 17  1  0  0  0  0
M  END
> <ref_mols>
x2785_0

> <original SMILES>
C=CC(=O)N1CCCn2c(C1)cc3ccccc23

> <Chemgauss4>
-9.444095

> <ref_pdb>
x0749_0

$$$$
x2034
  -OEChem-05172015543D

 18 20  0     0  0  0  0  0  0999 V2000
   13.7464   -1.2750   25.5394 C   0  0  0  0  0  0  0  0  0  0  0  0
   12.9969   -0.3459   24.8251 C   0  0  0  0  0  0  0  0  0  0  0  0
   13.2751   -2.5779   25.7248 C   0  0  0  0  0  0  0  0  0  0  0  0
   11.7567   -0.6888   24.2784 C   0  0  0  0  0  0  0  0  0  0  0  0
   11.2801   -4.1550   25.1777 C   0  0  0  0  0  0  0  0  0  0  0  0
   12.0277   -2.9471   25.1816 C   0  0  0  0  0  0  0  0  0  0  0  0
   11.2860   -1.9978   24.4713 C   0  0  0  0  0  0  0  0  0  0  0  0
   10.1121   -3.9399   24.4740 C   0  0  0  0  0  0  0  0  0  0  0  0
    5.0665   -6.0085   23.5421 C   0  0  0  0  0  0  0  0  0  0  0  0
    6.4007   -6.0245   23.5760 C   0  0  0  0  0  0  0  0  0  0  0  0
    7.1503   -5.3333   22.5060 C   0  0  0  0  0  0  0  0  0  0  0  0
    8.9931   -4.8942   24.1915 C   0  0  0  0  0  0  0  0  0  0  0  0
    9.0317   -2.6007   21.8473 C   0  0  0  0  0  0  0  0  0  0  0  0
    9.0675   -2.0302   23.2646 C   0  0  0  0  0  0  0  0  0  0  0  0
    9.1612   -4.1264   21.7785 C   0  0  0  0  0  0  0  0  0  0  0  0
   10.1248   -2.6222   24.0648 N   0  0  0  0  0  0  0  0  0  0  0  0
    8.4017   -4.8023   22.8371 N   0  0  0  0  0  0  0  0  0  0  0  0
    6.6338   -5.2720   21.3892 O   0  0  0  0  0  0  0  0  0  0  0  0
  1  2  1  0  0  0  0
  1  3  2  0  0  0  0
  2  4  2  0  0  0  0
  3  6  1  0  0  0  0
  4  7  1  0  0  0  0
  5  6  1  0  0  0  0
  5  8  2  0  0  0  0
  6  7  2  0  0  0  0
  7 16  1  0  0  0  0
  8 12  1  0  0  0  0
  8 16  1  0  0  0  0
  9 10  2  0  0  0  0
 10 11  1  0  0  0  0
 11 17  1  0  0  0  0
 11 18  2  0  0  0  0
 12 17  1  0  0  0  0
 13 14  1  0  0  0  0
 13 15  1  0  0  0  0
 14 16  1  0  0  0  0
 15 17  1  0  0  0  0
M  END
> <ref_mols>
x2034_0

> <original SMILES>
C=CC(=O)N1CCCn2c(C1)cc3ccccc23

> <Chemgauss4>
-9.444095

> <ref_pdb>
x0749_0

$$$$
x2774
  -OEChem-05172015543D

 18 20  0     0  0  0  0  0  0999 V2000
   13.7464   -1.2750   25.5394 C   0  0  0  0  0  0  0  0  0  0  0  0
   12.9969   -0.3459   24.8251 C   0  0  0  0  0  0  0  0  0  0  0  0
   13.2751   -2.5779   25.7248 C   0  0  0  0  0  0  0  0  0  0  0  0
   11.7567   -0.6888   24.2784 C   0  0  0  0  0  0  0  0  0  0  0  0
   11.2801   -4.1550   25.1777 C   0  0  0  0  0  0  0  0  0  0  0  0
   12.0277   -2.9471   25.1816 C   0  0  0  0  0  0  0  0  0  0  0  0
   11.2860   -1.9978   24.4713 C   0  0  0  0  0  0  0  0  0  0  0  0
   10.1121   -3.9399   24.4740 C   0  0  0  0  0  0  0  0  0  0  0  0
    5.0665   -6.0085   23.5421 C   0  0  0  0  0  0  0  0  0  0  0  0
    6.4007   -6.0245   23.5760 C   0  0  0  0  0  0  0  0  0  0  0  0
    7.1503   -5.3333   22.5060 C   0  0  0  0  0  0  0  0  0  0  0  0
    8.9931   -4.8942   24.1915 C   0  0  0  0  0  0  0  0  0  0  0  0
    9.0317   -2.6007   21.8473 C   0  0  0  0  0  0  0  0  0  0  0  0
    9.0675   -2.0302   23.2646 C   0  0  0  0  0  0  0  0  0  0  0  0
    9.1612   -4.1264   21.7785 C   0  0  0  0  0  0  0  0  0  0  0  0
   10.1248   -2.6222   24.0648 N   0  0  0  0  0  0  0  0  0  0  0  0
    8.4017   -4.8023   22.8371 N   0  0  0  0  0  0  0  0  0  0  0  0
    6.6338   -5.2720   21.3892 O   0  0  0  0  0  0  0  0  0  0  0  0
  1  2  1  0  0  0  0
  1  3  2  0  0  0  0
  2  4  2  0  0  0  0
  3  6  1  0  0  0  0
  4  7  1  0  0  0  0
  5  6  1  0  0  0  0
  5  8  2  0  0  0  0
  6  7  2  0  0  0  0
  7 16  1  0  0  0  0
  8 12  1  0  0  0  0
  8 16  1  0  0  0  0
  9 10  2  0  0  0  0
 10 11  1  0  0  0  0
 11 17  1  0  0  0  0
 11 18  2  0  0  0  0
 12 17  1  0  0  0  0
 13 14  1  0  0  0  0
 13 15  1  0  0  0  0
 14 16  1  0  0  0  0
 15 17  1  0  0  0  0
M  END
> <ref_mols>
x2774_0

> <original SMILES>
C=CC(=O)N1CCCn2c(C1)cc3ccccc23

> <Chemgauss4>
-9.444095

> <ref_pdb>
x0749_0

> <CYS145-warhead dist minimum (A)>
11.922428

> <CYS145-warhead dist mean (A)>
13.443652

> <CYS145-warhead dist stddev (A)>
0.6542893

$$$$
x2761
  -OEChem-05172015543D

 18 20  0     0  0  0  0  0  0999 V2000
   13.7464   -1.2750   25.5394 C   0  0  0  0  0  0  0  0  0  0  0  0
   12.9969   -0.3459   24.8251 C   0  0  0  0  0  0  0  0  0  0  0  0
   13.2751   -2.5779   25.7248 C   0  0  0  0  0  0  0  0  0  0  0  0
   11.7567   -0.6888   24.2784 C   0  0  0  0  0  0  0  0  0  0  0  0
   11.2801   -4.1550   25.1777 C   0  0  0  0  0  0  0  0  0  0  0  0
   12.0277   -2.9471   25.1816 C   0  0  0  0  0  0  0  0  0  0  0  0
   11.2860   -1.9978   24.4713 C   0  0  0  0  0  0  0  0  0  0  0  0
   10.1121   -3.9399   24.4740 C   0  0  0  0  0  0  0  0  0  0  0  0
    5.0665   -6.0085   23.5421 C   0  0  0  0  0  0  0  0  0  0  0  0
    6.4007   -6.0245   23.5760 C   0  0  0  0  0  0  0  0  0  0  0  0
    7.1503   -5.3333   22.5060 C   0  0  0  0  0  0  0  0  0  0  0  0
    8.9931   -4.8942   24.1915 C   0  0  0  0  0  0  0  0  0  0  0  0
    9.0317   -2.6007   21.8473 C   0  0  0  0  0  0  0  0  0  0  0  0
    9.0675   -2.0302   23.2646 C   0  0  0  0  0  0  0  0  0  0  0  0
    9.1612   -4.1264   21.7785 C   0  0  0  0  0  0  0  0  0  0  0  0
   10.1248   -2.6222   24.0648 N   0  0  0  0  0  0  0  0  0  0  0  0
    8.4017   -4.8023   22.8371 N   0  0  0  0  0  0  0  0  0  0  0  0
    6.6338   -5.2720   21.3892 O   0  0  0  0  0  0  0  0  0  0  0  0
  1  2  1  0  0  0  0
  1  3  2  0  0  0  0
  2  4  2  0  0  0  0
  3  6  1  0  0  0  0
  4  7  1  0  0  0  0
  5  6  1  0  0  0  0
  5  8  2  0  0  0  0
  6  7  2  0  0  0  0
  7 16  1  0  0  0  0
  8 12  1  0  0  0  0
  8 16  1  0  0  0  0
  9 10  2  0  0  0  0
 10 11  1  0  0  0  0
 11 17  1  0  0  0  0
 11 18  2  0  0  0  0
 12 17  1  0  0  0  0
 13 14  1  0  0  0  0
 13 15  1  0  0  0  0
 14 16  1  0  0  0  0
 15 17  1  0  0  0  0
M  END
> <ref_mols>
x2761_0

> <original SMILES>
C=CC(=O)N1CCCn2c(C1)cc3ccccc23

> <Chemgauss4>
-9.444095

> <ref_pdb>
x0749_0

> <CYS145-warhead dist minimum (A)>
10.129885

> <CYS145-warhead dist mean (A)>
12.5016575

> <CYS145-warhead dist stddev (A)>
0.72234476

$$$$
x0373
  -OEChem-05172015543D

 19 21  0     0  0  0  0  0  0999 V2000
    5.8774    0.9321   19.2553 C   0  0  0  0  0  0  0  0  0  0  0  0
    6.7506    0.8905   20.3366 C   0  0  0  0  0  0  0  0  0  0  0  0
    6.3629    0.5516   18.0146 C   0  0  0  0  0  0  0  0  0  0  0  0
   10.4651    0.4027   23.7638 C   0  0  0  0  0  0  0  0  0  0  0  0
    8.4516    0.1153   18.8663 C   0  0  0  0  0  0  0  0  0  0  0  0
   10.9863    0.0513   22.5112 C   0  0  0  0  0  0  0  0  0  0  0  0
    8.0640    0.4756   20.1468 C   0  0  0  0  0  0  0  0  0  0  0  0
   12.2977   -0.2865   22.7567 C   0  0  0  0  0  0  0  0  0  0  0  0
   14.7564   -0.8001   23.9581 C   0  0  0  0  0  0  0  0  0  0  0  0
   13.7322   -0.3848   24.7100 C   0  0  0  0  0  0  0  0  0  0  0  0
   14.4439   -0.9427   22.5135 C   0  0  0  0  0  0  0  0  0  0  0  0
   10.3359    0.0332   21.2356 C   0  0  0  0  0  0  0  0  0  0  0  0
    7.6320    0.1428   17.7914 N   0  0  0  0  0  0  0  0  0  0  0  0
   11.3609    0.3029   24.7453 N   0  0  0  0  0  0  0  0  0  0  0  0
   13.3038   -0.7077   21.9379 N   0  0  0  0  0  0  0  0  0  0  0  0
   12.4946   -0.1224   24.1288 N   0  0  0  0  0  0  0  0  0  0  0  0
    8.9776    0.4230   21.2297 N   0  0  0  0  0  0  0  0  0  0  0  0
   10.9141   -0.3364   20.1898 O   0  0  0  0  0  0  0  0  0  0  0  0
    8.6016    0.7064   22.1311 H   0  0  0  0  0  0  0  0  0  0  0  0
  1  2  2  0  0  0  0
  1  3  1  0  0  0  0
  2  7  1  0  0  0  0
  3 13  2  0  0  0  0
  4  6  1  0  0  0  0
  4 14  2  0  0  0  0
  5  7  2  0  0  0  0
  5 13  1  0  0  0  0
  6  8  2  0  0  0  0
  6 12  1  0  0  0  0
  7 17  1  0  0  0  0
  8 15  1  0  0  0  0
  8 16  1  0  0  0  0
  9 10  2  0  0  0  0
  9 11  1  0  0  0  0
 10 16  1  0  0  0  0
 11 15  2  0  0  0  0
 12 17  1  0  0  0  0
 12 18  2  0  0  0  0
 14 16  1  0  0  0  0
 17 19  1  0  0  0  0
M  END
> <ref_mols>
x0373_0

> <original SMILES>
O=C(NC=1C=CC=NC1)C=2C=NN3C=CC=NC23

> <Chemgauss4>
-9.443829

> <ref_pdb>
x0678_0

$$$$
x1346
  -OEChem-05172015543D

 17 18  0     0  0  0  0  0  0999 V2000
   12.0007   -3.5227   24.9770 C   0  0  0  0  0  0  0  0  0  0  0  0
   11.0758   -1.2909   24.9492 C   0  0  0  0  0  0  0  0  0  0  0  0
   13.1069   -3.0555   25.6867 C   0  0  0  0  0  0  0  0  0  0  0  0
   12.1820   -0.8237   25.6589 C   0  0  0  0  0  0  0  0  0  0  0  0
   10.9852   -2.6404   24.6082 C   0  0  0  0  0  0  0  0  0  0  0  0
   13.1975   -1.7060   26.0277 C   0  0  0  0  0  0  0  0  0  0  0  0
    6.6144   -4.5700   21.5405 C   0  0  0  0  0  0  0  0  0  0  0  0
    9.0058   -4.1416   24.4569 C   0  0  0  0  0  0  0  0  0  0  0  0
    9.5407   -2.5452   22.5893 C   0  0  0  0  0  0  0  0  0  0  0  0
    8.3443   -4.9513   23.3416 C   0  0  0  0  0  0  0  0  0  0  0  0
    8.0505   -2.7128   22.3006 C   0  0  0  0  0  0  0  0  0  0  0  0
    6.2470   -6.0273   21.6764 C   0  0  0  0  0  0  0  0  0  0  0  0
    9.8806   -3.1070   23.8995 N   0  0  0  0  0  0  0  0  0  0  0  0
    7.6338   -4.1108   22.3753 N   0  0  0  0  0  0  0  0  0  0  0  0
    6.0152   -3.8634   20.7264 O   0  0  0  0  0  0  0  0  0  0  0  0
   14.2598   -1.2572   26.7092 F   0  0  0  0  0  0  0  0  0  0  0  0
    5.0084   -6.1191   22.9231 Cl  0  0  0  0  0  0  0  0  0  0  0  0
  1  3  2  0  0  0  0
  1  5  1  0  0  0  0
  2  4  1  0  0  0  0
  2  5  2  0  0  0  0
  3  6  1  0  0  0  0
  4  6  2  0  0  0  0
  5 13  1  0  0  0  0
  6 16  1  0  0  0  0
  7 12  1  0  0  0  0
  7 14  1  0  0  0  0
  7 15  2  0  0  0  0
  8 10  1  0  0  0  0
  8 13  1  0  0  0  0
  9 11  1  0  0  0  0
  9 13  1  0  0  0  0
 10 14  1  0  0  0  0
 11 14  1  0  0  0  0
 12 17  1  0  0  0  0
M  END
> <ref_mols>
x1346_0

> <original SMILES>
Fc1ccc(cc1)N2CCN(CC2)C(=O)CCl

> <Chemgauss4>
-9.437925

> <ref_pdb>
x0749_0

> <CYS145-warhead dist minimum (A)>
11.056619

> <CYS145-warhead dist mean (A)>
12.132319

> <CYS145-warhead dist stddev (A)>
0.42201954

$$$$
x0719
  -OEChem-05172015543D

 17 18  0     0  0  0  0  0  0999 V2000
   12.0007   -3.5227   24.9770 C   0  0  0  0  0  0  0  0  0  0  0  0
   11.0758   -1.2909   24.9492 C   0  0  0  0  0  0  0  0  0  0  0  0
   13.1069   -3.0555   25.6867 C   0  0  0  0  0  0  0  0  0  0  0  0
   12.1820   -0.8237   25.6589 C   0  0  0  0  0  0  0  0  0  0  0  0
   10.9852   -2.6404   24.6082 C   0  0  0  0  0  0  0  0  0  0  0  0
   13.1975   -1.7060   26.0277 C   0  0  0  0  0  0  0  0  0  0  0  0
    6.6144   -4.5700   21.5405 C   0  0  0  0  0  0  0  0  0  0  0  0
    9.0058   -4.1416   24.4569 C   0  0  0  0  0  0  0  0  0  0  0  0
    9.5407   -2.5452   22.5893 C   0  0  0  0  0  0  0  0  0  0  0  0
    8.3443   -4.9513   23.3416 C   0  0  0  0  0  0  0  0  0  0  0  0
    8.0505   -2.7128   22.3006 C   0  0  0  0  0  0  0  0  0  0  0  0
    6.2470   -6.0273   21.6764 C   0  0  0  0  0  0  0  0  0  0  0  0
    9.8806   -3.1070   23.8995 N   0  0  0  0  0  0  0  0  0  0  0  0
    7.6338   -4.1108   22.3753 N   0  0  0  0  0  0  0  0  0  0  0  0
    6.0152   -3.8634   20.7264 O   0  0  0  0  0  0  0  0  0  0  0  0
   14.2598   -1.2572   26.7092 F   0  0  0  0  0  0  0  0  0  0  0  0
    5.0084   -6.1191   22.9231 Cl  0  0  0  0  0  0  0  0  0  0  0  0
  1  3  2  0  0  0  0
  1  5  1  0  0  0  0
  2  4  1  0  0  0  0
  2  5  2  0  0  0  0
  3  6  1  0  0  0  0
  4  6  2  0  0  0  0
  5 13  1  0  0  0  0
  6 16  1  0  0  0  0
  7 12  1  0  0  0  0
  7 14  1  0  0  0  0
  7 15  2  0  0  0  0
  8 10  1  0  0  0  0
  8 13  1  0  0  0  0
  9 11  1  0  0  0  0
  9 13  1  0  0  0  0
 10 14  1  0  0  0  0
 11 14  1  0  0  0  0
 12 17  1  0  0  0  0
M  END
> <ref_mols>
x0719_0

> <original SMILES>
Fc1ccc(cc1)N2CCN(CC2)C(=O)CCl

> <Chemgauss4>
-9.437925

> <ref_pdb>
x0749_0

$$$$
x1448
  -OEChem-05172015543D

 17 18  0     0  0  0  0  0  0999 V2000
   12.0007   -3.5227   24.9770 C   0  0  0  0  0  0  0  0  0  0  0  0
   11.0758   -1.2909   24.9492 C   0  0  0  0  0  0  0  0  0  0  0  0
   13.1069   -3.0555   25.6867 C   0  0  0  0  0  0  0  0  0  0  0  0
   12.1820   -0.8237   25.6589 C   0  0  0  0  0  0  0  0  0  0  0  0
   10.9852   -2.6404   24.6082 C   0  0  0  0  0  0  0  0  0  0  0  0
   13.1975   -1.7060   26.0277 C   0  0  0  0  0  0  0  0  0  0  0  0
    6.6144   -4.5700   21.5405 C   0  0  0  0  0  0  0  0  0  0  0  0
    9.0058   -4.1416   24.4569 C   0  0  0  0  0  0  0  0  0  0  0  0
    9.5407   -2.5452   22.5893 C   0  0  0  0  0  0  0  0  0  0  0  0
    8.3443   -4.9513   23.3416 C   0  0  0  0  0  0  0  0  0  0  0  0
    8.0505   -2.7128   22.3006 C   0  0  0  0  0  0  0  0  0  0  0  0
    6.2470   -6.0273   21.6764 C   0  0  0  0  0  0  0  0  0  0  0  0
    9.8806   -3.1070   23.8995 N   0  0  0  0  0  0  0  0  0  0  0  0
    7.6338   -4.1108   22.3753 N   0  0  0  0  0  0  0  0  0  0  0  0
    6.0152   -3.8634   20.7264 O   0  0  0  0  0  0  0  0  0  0  0  0
   14.2598   -1.2572   26.7092 F   0  0  0  0  0  0  0  0  0  0  0  0
    5.0084   -6.1191   22.9231 Cl  0  0  0  0  0  0  0  0  0  0  0  0
  1  3  2  0  0  0  0
  1  5  1  0  0  0  0
  2  4  1  0  0  0  0
  2  5  2  0  0  0  0
  3  6  1  0  0  0  0
  4  6  2  0  0  0  0
  5 13  1  0  0  0  0
  6 16  1  0  0  0  0
  7 12  1  0  0  0  0
  7 14  1  0  0  0  0
  7 15  2  0  0  0  0
  8 10  1  0  0  0  0
  8 13  1  0  0  0  0
  9 11  1  0  0  0  0
  9 13  1  0  0  0  0
 10 14  1  0  0  0  0
 11 14  1  0  0  0  0
 12 17  1  0  0  0  0
M  END
> <ref_mols>
x1448_0

> <original SMILES>
Fc1ccc(cc1)N2CCN(CC2)C(=O)CCl

> <Chemgauss4>
-9.437925

> <ref_pdb>
x0749_0

$$$$
x0793
  -OEChem-05172015543D

 17 18  0     0  0  0  0  0  0999 V2000
   12.0007   -3.5227   24.9770 C   0  0  0  0  0  0  0  0  0  0  0  0
   11.0758   -1.2909   24.9492 C   0  0  0  0  0  0  0  0  0  0  0  0
   13.1069   -3.0555   25.6867 C   0  0  0  0  0  0  0  0  0  0  0  0
   12.1820   -0.8237   25.6589 C   0  0  0  0  0  0  0  0  0  0  0  0
   10.9852   -2.6404   24.6082 C   0  0  0  0  0  0  0  0  0  0  0  0
   13.1975   -1.7060   26.0277 C   0  0  0  0  0  0  0  0  0  0  0  0
    6.6144   -4.5700   21.5405 C   0  0  0  0  0  0  0  0  0  0  0  0
    9.0058   -4.1416   24.4569 C   0  0  0  0  0  0  0  0  0  0  0  0
    9.5407   -2.5452   22.5893 C   0  0  0  0  0  0  0  0  0  0  0  0
    8.3443   -4.9513   23.3416 C   0  0  0  0  0  0  0  0  0  0  0  0
    8.0505   -2.7128   22.3006 C   0  0  0  0  0  0  0  0  0  0  0  0
    6.2470   -6.0273   21.6764 C   0  0  0  0  0  0  0  0  0  0  0  0
    9.8806   -3.1070   23.8995 N   0  0  0  0  0  0  0  0  0  0  0  0
    7.6338   -4.1108   22.3753 N   0  0  0  0  0  0  0  0  0  0  0  0
    6.0152   -3.8634   20.7264 O   0  0  0  0  0  0  0  0  0  0  0  0
   14.2598   -1.2572   26.7092 F   0  0  0  0  0  0  0  0  0  0  0  0
    5.0084   -6.1191   22.9231 Cl  0  0  0  0  0  0  0  0  0  0  0  0
  1  3  2  0  0  0  0
  1  5  1  0  0  0  0
  2  4  1  0  0  0  0
  2  5  2  0  0  0  0
  3  6  1  0  0  0  0
  4  6  2  0  0  0  0
  5 13  1  0  0  0  0
  6 16  1  0  0  0  0
  7 12  1  0  0  0  0
  7 14  1  0  0  0  0
  7 15  2  0  0  0  0
  8 10  1  0  0  0  0
  8 13  1  0  0  0  0
  9 11  1  0  0  0  0
  9 13  1  0  0  0  0
 10 14  1  0  0  0  0
 11 14  1  0  0  0  0
 12 17  1  0  0  0  0
M  END
> <ref_mols>
x0793_0

> <original SMILES>
Fc1ccc(cc1)N2CCN(CC2)C(=O)CCl

> <Chemgauss4>
-9.437925

> <ref_pdb>
x0749_0

$$$$
x2882
  -OEChem-05172015543D

 19 20  0     0  0  0  0  0  0999 V2000
   13.3607   -0.5776   23.2727 C   0  0  0  0  0  0  0  0  0  0  0  0
   12.3314    0.0611   23.9642 C   0  0  0  0  0  0  0  0  0  0  0  0
   13.0601   -1.4995   22.2699 C   0  0  0  0  0  0  0  0  0  0  0  0
    6.4443    0.5862   17.5904 C   0  0  0  0  0  0  0  0  0  0  0  0
    5.2571    1.2565   17.8849 C   0  0  0  0  0  0  0  0  0  0  0  0
   11.0015   -0.2221   23.6530 C   0  0  0  0  0  0  0  0  0  0  0  0
   11.7303   -1.7827   21.9587 C   0  0  0  0  0  0  0  0  0  0  0  0
    7.1222   -0.1055   18.5942 C   0  0  0  0  0  0  0  0  0  0  0  0
    4.7478    1.2352   19.1832 C   0  0  0  0  0  0  0  0  0  0  0  0
   10.7009   -1.1440   22.6503 C   0  0  0  0  0  0  0  0  0  0  0  0
    6.6129   -0.1268   19.8926 C   0  0  0  0  0  0  0  0  0  0  0  0
    5.4256    0.5436   20.1871 C   0  0  0  0  0  0  0  0  0  0  0  0
    7.3609   -0.8696   20.9222 C   0  0  0  0  0  0  0  0  0  0  0  0
    8.6302   -0.6144   21.2720 C   0  0  0  0  0  0  0  0  0  0  0  0
    9.3144   -1.4392   22.3259 C   0  0  0  0  0  0  0  0  0  0  0  0
    4.8798    0.5443   21.5021 N   0  0  0  0  0  0  0  0  0  0  0  0
    8.7136   -2.3683   22.8867 O   0  0  0  0  0  0  0  0  0  0  0  0
    3.8118    1.1647   21.7127 O   0  0  0  0  0  0  0  0  0  0  0  0
    5.4844   -0.0757   22.4077 O   0  0  0  0  0  0  0  0  0  0  0  0
  1  2  1  0  0  0  0
  1  3  2  0  0  0  0
  2  6  2  0  0  0  0
  3  7  1  0  0  0  0
  4  5  1  0  0  0  0
  4  8  2  0  0  0  0
  5  9  2  0  0  0  0
  6 10  1  0  0  0  0
  7 10  2  0  0  0  0
  8 11  1  0  0  0  0
  9 12  1  0  0  0  0
 10 15  1  0  0  0  0
 11 12  2  0  0  0  0
 11 13  1  0  0  0  0
 12 16  1  0  0  0  0
 13 14  2  0  0  0  0
 14 15  1  0  0  0  0
 15 17  2  0  0  0  0
 16 18  2  0  0  0  0
 16 19  2  0  0  0  0
M  END
> <ref_mols>
x2882_0

> <original SMILES>
O=C(/C=C/c1ccccc1N(=O)=O)c2ccccc2

> <Chemgauss4>
-9.432980

> <ref_pdb>
x1093_0

$$$$
x0764
  -OEChem-05172015543D

 17 18  0     0  0  0  0  0  0999 V2000
   13.4479   -2.7263   25.6983 C   0  0  0  0  0  0  0  0  0  0  0  0
   13.6503   -1.3485   25.7779 C   0  0  0  0  0  0  0  0  0  0  0  0
   12.3075   -3.2287   25.0716 C   0  0  0  0  0  0  0  0  0  0  0  0
   12.7122   -0.4731   25.2309 C   0  0  0  0  0  0  0  0  0  0  0  0
   11.3694   -2.3533   24.5246 C   0  0  0  0  0  0  0  0  0  0  0  0
   11.5717   -0.9754   24.6042 C   0  0  0  0  0  0  0  0  0  0  0  0
    6.8992   -4.5912   21.8325 C   0  0  0  0  0  0  0  0  0  0  0  0
    9.2995   -3.7300   24.6441 C   0  0  0  0  0  0  0  0  0  0  0  0
    9.9432   -2.5793   22.5030 C   0  0  0  0  0  0  0  0  0  0  0  0
    8.5931   -4.7062   23.7032 C   0  0  0  0  0  0  0  0  0  0  0  0
    8.4467   -2.7103   22.2283 C   0  0  0  0  0  0  0  0  0  0  0  0
    6.4394   -5.9658   22.2524 C   0  0  0  0  0  0  0  0  0  0  0  0
   10.2408   -2.8848   23.9052 N   0  0  0  0  0  0  0  0  0  0  0  0
    7.9418   -4.0362   22.5753 N   0  0  0  0  0  0  0  0  0  0  0  0
    6.3499   -4.0282   20.8827 O   0  0  0  0  0  0  0  0  0  0  0  0
   10.4357    0.1438   23.9404 Cl  0  0  0  0  0  0  0  0  0  0  0  0
    5.1919   -5.7281   23.4705 Cl  0  0  0  0  0  0  0  0  0  0  0  0
  1  2  1  0  0  0  0
  1  3  2  0  0  0  0
  2  4  2  0  0  0  0
  3  5  1  0  0  0  0
  4  6  1  0  0  0  0
  5  6  2  0  0  0  0
  5 13  1  0  0  0  0
  6 16  1  0  0  0  0
  7 12  1  0  0  0  0
  7 14  1  0  0  0  0
  7 15  2  0  0  0  0
  8 10  1  0  0  0  0
  8 13  1  0  0  0  0
  9 11  1  0  0  0  0
  9 13  1  0  0  0  0
 10 14  1  0  0  0  0
 11 14  1  0  0  0  0
 12 17  1  0  0  0  0
M  END
> <ref_mols>
x0764_0

> <original SMILES>
ClCC(=O)N1CCN(CC1)c2ccccc2Cl

> <Chemgauss4>
-9.432187

> <ref_pdb>
x0749_0

$$$$
x1416
  -OEChem-05172015543D

 17 18  0     0  0  0  0  0  0999 V2000
   13.4479   -2.7263   25.6983 C   0  0  0  0  0  0  0  0  0  0  0  0
   13.6503   -1.3485   25.7779 C   0  0  0  0  0  0  0  0  0  0  0  0
   12.3075   -3.2287   25.0716 C   0  0  0  0  0  0  0  0  0  0  0  0
   12.7122   -0.4731   25.2309 C   0  0  0  0  0  0  0  0  0  0  0  0
   11.3694   -2.3533   24.5246 C   0  0  0  0  0  0  0  0  0  0  0  0
   11.5717   -0.9754   24.6042 C   0  0  0  0  0  0  0  0  0  0  0  0
    6.8992   -4.5912   21.8325 C   0  0  0  0  0  0  0  0  0  0  0  0
    9.2995   -3.7300   24.6441 C   0  0  0  0  0  0  0  0  0  0  0  0
    9.9432   -2.5793   22.5030 C   0  0  0  0  0  0  0  0  0  0  0  0
    8.5931   -4.7062   23.7032 C   0  0  0  0  0  0  0  0  0  0  0  0
    8.4467   -2.7103   22.2283 C   0  0  0  0  0  0  0  0  0  0  0  0
    6.4394   -5.9658   22.2524 C   0  0  0  0  0  0  0  0  0  0  0  0
   10.2408   -2.8848   23.9052 N   0  0  0  0  0  0  0  0  0  0  0  0
    7.9418   -4.0362   22.5753 N   0  0  0  0  0  0  0  0  0  0  0  0
    6.3499   -4.0282   20.8827 O   0  0  0  0  0  0  0  0  0  0  0  0
   10.4357    0.1438   23.9404 Cl  0  0  0  0  0  0  0  0  0  0  0  0
    5.1919   -5.7281   23.4705 Cl  0  0  0  0  0  0  0  0  0  0  0  0
  1  2  1  0  0  0  0
  1  3  2  0  0  0  0
  2  4  2  0  0  0  0
  3  5  1  0  0  0  0
  4  6  1  0  0  0  0
  5  6  2  0  0  0  0
  5 13  1  0  0  0  0
  6 16  1  0  0  0  0
  7 12  1  0  0  0  0
  7 14  1  0  0  0  0
  7 15  2  0  0  0  0
  8 10  1  0  0  0  0
  8 13  1  0  0  0  0
  9 11  1  0  0  0  0
  9 13  1  0  0  0  0
 10 14  1  0  0  0  0
 11 14  1  0  0  0  0
 12 17  1  0  0  0  0
M  END
> <ref_mols>
x1416_0

> <original SMILES>
ClCC(=O)N1CCN(CC1)c2ccccc2Cl

> <Chemgauss4>
-9.432187

> <ref_pdb>
x0749_0

$$$$
x1367
  -OEChem-05172015543D

 17 18  0     0  0  0  0  0  0999 V2000
   13.4479   -2.7263   25.6983 C   0  0  0  0  0  0  0  0  0  0  0  0
   13.6503   -1.3485   25.7779 C   0  0  0  0  0  0  0  0  0  0  0  0
   12.3075   -3.2287   25.0716 C   0  0  0  0  0  0  0  0  0  0  0  0
   12.7122   -0.4731   25.2309 C   0  0  0  0  0  0  0  0  0  0  0  0
   11.3694   -2.3533   24.5246 C   0  0  0  0  0  0  0  0  0  0  0  0
   11.5717   -0.9754   24.6042 C   0  0  0  0  0  0  0  0  0  0  0  0
    6.8992   -4.5912   21.8325 C   0  0  0  0  0  0  0  0  0  0  0  0
    9.2995   -3.7300   24.6441 C   0  0  0  0  0  0  0  0  0  0  0  0
    9.9432   -2.5793   22.5030 C   0  0  0  0  0  0  0  0  0  0  0  0
    8.5931   -4.7062   23.7032 C   0  0  0  0  0  0  0  0  0  0  0  0
    8.4467   -2.7103   22.2283 C   0  0  0  0  0  0  0  0  0  0  0  0
    6.4394   -5.9658   22.2524 C   0  0  0  0  0  0  0  0  0  0  0  0
   10.2408   -2.8848   23.9052 N   0  0  0  0  0  0  0  0  0  0  0  0
    7.9418   -4.0362   22.5753 N   0  0  0  0  0  0  0  0  0  0  0  0
    6.3499   -4.0282   20.8827 O   0  0  0  0  0  0  0  0  0  0  0  0
   10.4357    0.1438   23.9404 Cl  0  0  0  0  0  0  0  0  0  0  0  0
    5.1919   -5.7281   23.4705 Cl  0  0  0  0  0  0  0  0  0  0  0  0
  1  2  1  0  0  0  0
  1  3  2  0  0  0  0
  2  4  2  0  0  0  0
  3  5  1  0  0  0  0
  4  6  1  0  0  0  0
  5  6  2  0  0  0  0
  5 13  1  0  0  0  0
  6 16  1  0  0  0  0
  7 12  1  0  0  0  0
  7 14  1  0  0  0  0
  7 15  2  0  0  0  0
  8 10  1  0  0  0  0
  8 13  1  0  0  0  0
  9 11  1  0  0  0  0
  9 13  1  0  0  0  0
 10 14  1  0  0  0  0
 11 14  1  0  0  0  0
 12 17  1  0  0  0  0
M  END
> <ref_mols>
x1367_0

> <original SMILES>
ClCC(=O)N1CCN(CC1)c2ccccc2Cl

> <Chemgauss4>
-9.432187

> <ref_pdb>
x0749_0

$$$$
x0690
  -OEChem-05172015543D

 17 18  0     0  0  0  0  0  0999 V2000
   13.4479   -2.7263   25.6983 C   0  0  0  0  0  0  0  0  0  0  0  0
   13.6503   -1.3485   25.7779 C   0  0  0  0  0  0  0  0  0  0  0  0
   12.3075   -3.2287   25.0716 C   0  0  0  0  0  0  0  0  0  0  0  0
   12.7122   -0.4731   25.2309 C   0  0  0  0  0  0  0  0  0  0  0  0
   11.3694   -2.3533   24.5246 C   0  0  0  0  0  0  0  0  0  0  0  0
   11.5717   -0.9754   24.6042 C   0  0  0  0  0  0  0  0  0  0  0  0
    6.8992   -4.5912   21.8325 C   0  0  0  0  0  0  0  0  0  0  0  0
    9.2995   -3.7300   24.6441 C   0  0  0  0  0  0  0  0  0  0  0  0
    9.9432   -2.5793   22.5030 C   0  0  0  0  0  0  0  0  0  0  0  0
    8.5931   -4.7062   23.7032 C   0  0  0  0  0  0  0  0  0  0  0  0
    8.4467   -2.7103   22.2283 C   0  0  0  0  0  0  0  0  0  0  0  0
    6.4394   -5.9658   22.2524 C   0  0  0  0  0  0  0  0  0  0  0  0
   10.2408   -2.8848   23.9052 N   0  0  0  0  0  0  0  0  0  0  0  0
    7.9418   -4.0362   22.5753 N   0  0  0  0  0  0  0  0  0  0  0  0
    6.3499   -4.0282   20.8827 O   0  0  0  0  0  0  0  0  0  0  0  0
   10.4357    0.1438   23.9404 Cl  0  0  0  0  0  0  0  0  0  0  0  0
    5.1919   -5.7281   23.4705 Cl  0  0  0  0  0  0  0  0  0  0  0  0
  1  2  1  0  0  0  0
  1  3  2  0  0  0  0
  2  4  2  0  0  0  0
  3  5  1  0  0  0  0
  4  6  1  0  0  0  0
  5  6  2  0  0  0  0
  5 13  1  0  0  0  0
  6 16  1  0  0  0  0
  7 12  1  0  0  0  0
  7 14  1  0  0  0  0
  7 15  2  0  0  0  0
  8 10  1  0  0  0  0
  8 13  1  0  0  0  0
  9 11  1  0  0  0  0
  9 13  1  0  0  0  0
 10 14  1  0  0  0  0
 11 14  1  0  0  0  0
 12 17  1  0  0  0  0
M  END
> <ref_mols>
x0690_0

> <original SMILES>
ClCC(=O)N1CCN(CC1)c2ccccc2Cl

> <Chemgauss4>
-9.432187

> <ref_pdb>
x0749_0

$$$$
x0046
  -OEChem-05172015543D

 16 17  0     0  0  0  0  0  0999 V2000
   13.8976   -1.1054   25.1599 C   0  0  0  0  0  0  0  0  0  0  0  0
   13.5934   -2.3260   25.7625 C   0  0  0  0  0  0  0  0  0  0  0  0
   13.0233   -0.5526   24.2240 C   0  0  0  0  0  0  0  0  0  0  0  0
   12.4152   -2.9940   25.4292 C   0  0  0  0  0  0  0  0  0  0  0  0
   11.8450   -1.2206   23.8907 C   0  0  0  0  0  0  0  0  0  0  0  0
    9.1924   -2.4097   23.7581 C   0  0  0  0  0  0  0  0  0  0  0  0
   10.2668   -4.5270   24.2048 C   0  0  0  0  0  0  0  0  0  0  0  0
    8.0142   -3.0778   23.4250 C   0  0  0  0  0  0  0  0  0  0  0  0
    9.0885   -5.1952   23.8717 C   0  0  0  0  0  0  0  0  0  0  0  0
   11.5409   -2.4413   24.4932 C   0  0  0  0  0  0  0  0  0  0  0  0
   10.3187   -3.1343   24.1479 C   0  0  0  0  0  0  0  0  0  0  0  0
    7.9622   -4.4705   23.4818 C   0  0  0  0  0  0  0  0  0  0  0  0
    6.6973   -5.5030   21.6307 C   0  0  0  0  0  0  0  0  0  0  0  0
    6.7025   -5.1849   23.1254 C   0  0  0  0  0  0  0  0  0  0  0  0
    7.6225   -6.2705   21.2411 O   0  5  0  0  0  0  0  0  0  0  0  0
    5.7731   -4.9532   20.9672 O   0  0  0  0  0  0  0  0  0  0  0  0
  1  2  1  0  0  0  0
  1  3  2  0  0  0  0
  2  4  2  0  0  0  0
  3  5  1  0  0  0  0
  4 10  1  0  0  0  0
  5 10  2  0  0  0  0
  6  8  2  0  0  0  0
  6 11  1  0  0  0  0
  7  9  1  0  0  0  0
  7 11  2  0  0  0  0
  8 12  1  0  0  0  0
  9 12  2  0  0  0  0
 10 11  1  0  0  0  0
 12 14  1  0  0  0  0
 13 14  1  0  0  0  0
 13 15  1  0  0  0  0
 13 16  2  0  0  0  0
M  CHG  1  15  -1
M  END
> <ref_mols>
x0046_0

> <original SMILES>
OC(=O)CC=1C=CC(=CC1)C=2C=CC=CC2

> <Chemgauss4>
-9.427928

> <ref_pdb>
x0749_0

$$$$
x2560
  -OEChem-05172015543D

 27 29  0     0  0  0  0  0  0999 V2000
   13.2810   -1.4108   23.7214 C   0  0  0  0  0  0  0  0  0  0  0  0
   13.1821   -0.2606   24.5041 C   0  0  0  0  0  0  0  0  0  0  0  0
    5.8799   -4.5477   26.0154 C   0  0  0  0  0  0  0  0  0  0  0  0
    8.0726   -5.5345   26.2503 C   0  0  0  0  0  0  0  0  0  0  0  0
   12.2139   -1.7960   22.9098 C   0  0  0  0  0  0  0  0  0  0  0  0
    5.4249   -5.3010   27.0975 C   0  0  0  0  0  0  0  0  0  0  0  0
    7.6176   -6.2879   27.3325 C   0  0  0  0  0  0  0  0  0  0  0  0
   10.9490    0.1193   23.6639 C   0  0  0  0  0  0  0  0  0  0  0  0
   12.0161    0.5045   24.4754 C   0  0  0  0  0  0  0  0  0  0  0  0
    7.2037   -4.6645   25.5917 C   0  0  0  0  0  0  0  0  0  0  0  0
   11.0479   -1.0310   22.8811 C   0  0  0  0  0  0  0  0  0  0  0  0
    6.2937   -6.1711   27.7561 C   0  0  0  0  0  0  0  0  0  0  0  0
    8.1719   -1.6687   23.6904 C   0  0  0  0  0  0  0  0  0  0  0  0
    9.4847   -3.6593   22.9082 C   0  0  0  0  0  0  0  0  0  0  0  0
    7.0837   -2.6052   24.2166 C   0  0  0  0  0  0  0  0  0  0  0  0
    8.3747   -4.5721   23.4230 C   0  0  0  0  0  0  0  0  0  0  0  0
    8.9321   -2.2873   22.5163 C   0  0  0  0  0  0  0  0  0  0  0  0
   11.9106    1.7338   25.3129 C   0  0  0  0  0  0  0  0  0  0  0  0
    7.6534   -3.9211   24.5235 N   0  0  0  0  0  0  0  0  0  0  0  0
    6.0617   -6.0568   30.4090 N   0  0  0  0  0  0  0  0  0  0  0  0
    9.9909   -1.4125   22.0767 N   0  0  0  0  0  0  0  0  0  0  0  0
    4.2817   -7.2671   28.9905 O   0  0  0  0  0  0  0  0  0  0  0  0
    6.5684   -8.2951   29.2385 O   0  0  0  0  0  0  0  0  0  0  0  0
    5.7249   -7.1149   29.1104 S   0  0  0  0  0  0  0  0  0  0  0  0
    5.2692   -5.5995   30.8760 H   0  0  0  0  0  0  0  0  0  0  0  0
    6.8320   -6.3018   31.0430 H   0  0  0  0  0  0  0  0  0  0  0  0
    9.9511   -1.0652   21.1284 H   0  0  0  0  0  0  0  0  0  0  0  0
  1  2  2  0  0  0  0
  1  5  1  0  0  0  0
  2  9  1  0  0  0  0
  3  6  2  0  0  0  0
  3 10  1  0  0  0  0
  4  7  1  0  0  0  0
  4 10  2  0  0  0  0
  5 11  2  0  0  0  0
  6 12  1  0  0  0  0
  7 12  2  0  0  0  0
  8  9  2  0  0  0  0
  8 11  1  0  0  0  0
  9 18  1  0  0  0  0
 10 19  1  0  0  0  0
 11 21  1  0  0  0  0
 12 24  1  0  0  0  0
 13 15  1  0  0  0  0
 13 17  1  0  0  0  0
 14 16  1  0  0  0  0
 14 17  1  0  0  0  0
 15 19  1  0  0  0  0
 16 19  1  0  0  0  0
 17 21  1  0  0  0  0
 20 24  1  0  0  0  0
 22 24  2  0  0  0  0
 23 24  2  0  0  0  0
 20 25  1  0  0  0  0
 20 26  1  0  0  0  0
 21 27  1  0  0  0  0
M  END
> <ref_mols>
x2560_0

> <original SMILES>
CC=1C=CC=C(NC2CCN(CC2)C=3C=CC(=CC3)S(=O)(=O)N)C1

> <Chemgauss4>
-9.421846

> <ref_pdb>
x0072_0

$$$$
x0581
  -OEChem-05172015543D

 20 22  0     1  0  0  0  0  0999 V2000
   13.2329   -0.0964   23.5874 C   0  0  0  0  0  0  0  0  0  0  0  0
   13.1547   -1.4619   23.3261 C   0  0  0  0  0  0  0  0  0  0  0  0
    4.5539    1.0682   21.0049 C   0  0  0  0  0  0  0  0  0  0  0  0
    4.5211    1.5783   19.7071 C   0  0  0  0  0  0  0  0  0  0  0  0
   12.1772    0.7432   23.2328 C   0  0  0  0  0  0  0  0  0  0  0  0
   12.0187   -1.9906   22.7140 C   0  0  0  0  0  0  0  0  0  0  0  0
    5.5034    0.1074   21.3528 C   0  0  0  0  0  0  0  0  0  0  0  0
    5.4376    1.1276   18.7571 C   0  0  0  0  0  0  0  0  0  0  0  0
   11.0351    0.2246   22.6065 C   0  0  0  0  0  0  0  0  0  0  0  0
   10.9484   -1.1571   22.3619 C   0  0  0  0  0  0  0  0  0  0  0  0
    6.4199   -0.3434   20.4028 C   0  0  0  0  0  0  0  0  0  0  0  0
    6.3870    0.1667   19.1050 C   0  0  0  0  0  0  0  0  0  0  0  0
    9.8906    1.1444   22.2649 C   0  0  0  0  0  0  0  0  0  0  0  0
    9.7453   -1.7459   21.6772 C   0  0  0  0  0  0  0  0  0  0  0  0
    8.9467    0.5681   21.2154 C   0  0  0  0  0  0  0  0  0  0  0  0
    7.4338   -1.3775   20.7947 C   0  0  0  0  0  0  0  0  0  0  0  0
    8.5450   -0.8220   21.6392 N   0  3  1  0  0  0  0  0  0  0  0  0
    7.2745   -0.2634   18.1649 O   0  0  0  0  0  0  0  0  0  0  0  0
    8.1786   -0.7554   22.5990 H   0  0  0  0  0  0  0  0  0  0  0  0
    7.1146    0.1886   17.3217 H   0  0  0  0  0  0  0  0  0  0  0  0
  1  2  1  0  0  0  0
  1  5  2  0  0  0  0
  2  6  2  0  0  0  0
  3  4  1  0  0  0  0
  3  7  2  0  0  0  0
  4  8  2  0  0  0  0
  5  9  1  0  0  0  0
  6 10  1  0  0  0  0
  7 11  1  0  0  0  0
  8 12  1  0  0  0  0
  9 10  2  0  0  0  0
  9 13  1  0  0  0  0
 10 14  1  0  0  0  0
 11 12  2  0  0  0  0
 11 16  1  0  0  0  0
 12 18  1  0  0  0  0
 13 15  1  0  0  0  0
 14 17  1  0  0  0  0
 15 17  1  0  0  0  0
 16 17  1  0  0  0  0
 17 19  1  0  0  0  0
 18 20  1  0  0  0  0
M  CHG  1  17   1
M  END
> <ref_mols>
x0581_0

> <original SMILES>
OC=1C=CC=CC1CN2CCC=3C=CC=CC3C2

> <Chemgauss4>
-9.420887

> <ref_pdb>
x1093_0

$$$$
x0924
  -OEChem-05172015543D

 17 18  0     1  0  0  0  0  0999 V2000
   11.2992    2.5546   24.0534 C   0  0  0  0  0  0  0  0  0  0  0  0
   11.9815    3.3846   23.1640 C   0  0  0  0  0  0  0  0  0  0  0  0
   11.6775    1.2191   24.1912 C   0  0  0  0  0  0  0  0  0  0  0  0
   13.0421    2.8790   22.4121 C   0  0  0  0  0  0  0  0  0  0  0  0
   12.7381    0.7136   23.4394 C   0  0  0  0  0  0  0  0  0  0  0  0
   13.4204    1.5435   22.5499 C   0  0  0  0  0  0  0  0  0  0  0  0
   14.6236   -1.0176   23.3041 C   0  0  0  0  0  0  0  0  0  0  0  0
   13.4176   -1.6853   21.4181 C   0  0  0  0  0  0  0  0  0  0  0  0
   13.1473   -0.7418   23.5925 C   0  0  2  0  0  0  0  0  0  0  0  0
   12.4848   -1.7164   22.6179 C   0  0  1  0  0  0  0  0  0  0  0  0
   11.0267   -1.4787   22.2628 C   0  0  0  0  0  0  0  0  0  0  0  0
   10.9460   -0.3929   21.2611 N   0  3  0  0  0  0  0  0  0  0  0  0
   14.7301   -1.3999   21.9229 O   0  0  0  0  0  0  0  0  0  0  0  0
   14.4409    1.0668   21.8234 F   0  0  0  0  0  0  0  0  0  0  0  0
   10.2101    0.2814   21.5033 H   0  0  0  0  0  0  0  0  0  0  0  0
   10.7340   -0.7652   20.3275 H   0  0  0  0  0  0  0  0  0  0  0  0
   11.8331    0.1211   21.1989 H   0  0  0  0  0  0  0  0  0  0  0  0
  1  2  1  0  0  0  0
  1  3  2  0  0  0  0
  2  4  2  0  0  0  0
  3  5  1  0  0  0  0
  4  6  1  0  0  0  0
  5  6  2  0  0  0  0
  5  9  1  0  0  0  0
  6 14  1  0  0  0  0
  7  9  1  0  0  0  0
  7 13  1  0  0  0  0
  8 10  1  0  0  0  0
  8 13  1  0  0  0  0
  9 10  1  0  0  0  0
 10 11  1  0  0  0  0
 11 12  1  0  0  0  0
 12 15  1  0  0  0  0
 12 16  1  0  0  0  0
 12 17  1  0  0  0  0
M  CHG  1  12   1
M  END
> <ref_mols>
x0924_0

> <original SMILES>
NC[C@@H]1[C@H](C2=CC=CC=C2F)COC1

> <Chemgauss4>
-9.410730

> <ref_pdb>
x0195_0

$$$$
x0126
  -OEChem-05172015543D

 17 18  0     0  0  0  0  0  0999 V2000
    6.3975   -0.0874   18.0380 C   0  0  0  0  0  0  0  0  0  0  0  0
    6.1908   -0.0905   19.3998 C   0  0  0  0  0  0  0  0  0  0  0  0
    8.6472    0.1392   18.3797 C   0  0  0  0  0  0  0  0  0  0  0  0
    8.4406    0.1369   19.7416 C   0  0  0  0  0  0  0  0  0  0  0  0
   11.0972   -0.1466   22.4581 C   0  0  0  0  0  0  0  0  0  0  0  0
   11.2478    1.0439   21.7782 C   0  0  0  0  0  0  0  0  0  0  0  0
    9.5178    0.2563   20.6844 C   0  0  0  0  0  0  0  0  0  0  0  0
   11.8423   -0.6933   23.5429 C   0  0  0  0  0  0  0  0  0  0  0  0
   12.2757    2.0723   22.0421 C   0  0  0  0  0  0  0  0  0  0  0  0
   14.6493   -2.0794   24.1317 C   0  0  0  0  0  0  0  0  0  0  0  0
   14.0162   -0.7790   24.5786 C   0  0  0  0  0  0  0  0  0  0  0  0
    7.6294    0.0275   17.5034 N   0  0  0  0  0  0  0  0  0  0  0  0
    7.2087    0.0217   20.2762 N   0  0  0  0  0  0  0  0  0  0  0  0
   10.3433    1.2764   20.7606 N   0  0  0  0  0  0  0  0  0  0  0  0
   11.3879   -1.4583   24.4278 O   0  0  0  0  0  0  0  0  0  0  0  0
   13.1624   -0.2939   23.5368 O   0  0  0  0  0  0  0  0  0  0  0  0
    9.7711   -1.0173   21.8064 S   0  0  0  0  0  0  0  0  0  0  0  0
  1  2  2  0  0  0  0
  1 12  1  0  0  0  0
  2 13  1  0  0  0  0
  3  4  1  0  0  0  0
  3 12  2  0  0  0  0
  4  7  1  0  0  0  0
  4 13  2  0  0  0  0
  5  6  2  0  0  0  0
  5  8  1  0  0  0  0
  5 17  1  0  0  0  0
  6  9  1  0  0  0  0
  6 14  1  0  0  0  0
  7 14  2  0  0  0  0
  7 17  1  0  0  0  0
  8 15  2  0  0  0  0
  8 16  1  0  0  0  0
 10 11  1  0  0  0  0
 11 16  1  0  0  0  0
M  END
> <ref_mols>
x0126_0

> <original SMILES>
CCOC(=O)C=1SC(=NC1C)C=2C=NC=CN2

> <Chemgauss4>
-9.399771

> <ref_pdb>
x0678_0

$$$$
x2883
  -OEChem-05172015543D

 16 17  0     0  0  0  0  0  0999 V2000
   13.2972   -0.3677   23.4909 C   0  0  0  0  0  0  0  0  0  0  0  0
    4.7354    1.3824   18.9158 C   0  0  0  0  0  0  0  0  0  0  0  0
   12.1934    0.4645   23.6773 C   0  0  0  0  0  0  0  0  0  0  0  0
   13.1499   -1.5818   22.8201 C   0  0  0  0  0  0  0  0  0  0  0  0
    5.6800    0.5592   18.3030 C   0  0  0  0  0  0  0  0  0  0  0  0
    4.5812    1.3554   20.3019 C   0  0  0  0  0  0  0  0  0  0  0  0
   10.9423    0.0826   23.1930 C   0  0  0  0  0  0  0  0  0  0  0  0
   11.8988   -1.9638   22.3358 C   0  0  0  0  0  0  0  0  0  0  0  0
    6.4704   -0.2911   19.0762 C   0  0  0  0  0  0  0  0  0  0  0  0
    5.3716    0.5051   21.0751 C   0  0  0  0  0  0  0  0  0  0  0  0
   10.7950   -1.1316   22.5223 C   0  0  0  0  0  0  0  0  0  0  0  0
    6.3162   -0.3182   20.4623 C   0  0  0  0  0  0  0  0  0  0  0  0
    9.4906   -1.5304   22.0171 C   0  0  0  0  0  0  0  0  0  0  0  0
    8.4547   -0.6926   21.7868 C   0  0  0  0  0  0  0  0  0  0  0  0
    7.1564   -1.2222   21.2841 C   0  0  0  0  0  0  0  0  0  0  0  0
    6.7579   -2.3517   21.5459 O   0  0  0  0  0  0  0  0  0  0  0  0
  1  3  1  0  0  0  0
  1  4  2  0  0  0  0
  2  5  1  0  0  0  0
  2  6  2  0  0  0  0
  3  7  2  0  0  0  0
  4  8  1  0  0  0  0
  5  9  2  0  0  0  0
  6 10  1  0  0  0  0
  7 11  1  0  0  0  0
  8 11  2  0  0  0  0
  9 12  1  0  0  0  0
 10 12  2  0  0  0  0
 11 13  1  0  0  0  0
 12 15  1  0  0  0  0
 13 14  2  0  0  0  0
 14 15  1  0  0  0  0
 15 16  2  0  0  0  0
M  END
> <ref_mols>
x2883_0

> <original SMILES>
O=C(/C=C/c1ccccc1)c2ccccc2

> <Chemgauss4>
-9.396002

> <ref_pdb>
x1093_0

$$$$
x1328
  -OEChem-05172015543D

 20 21  0     0  0  0  0  0  0999 V2000
   12.3125    0.5232   24.2481 C   0  0  0  0  0  0  0  0  0  0  0  0
   13.2848   -0.1606   24.9778 C   0  0  0  0  0  0  0  0  0  0  0  0
   11.2329   -0.1715   23.7025 C   0  0  0  0  0  0  0  0  0  0  0  0
   12.0983   -2.2339   24.6161 C   0  0  0  0  0  0  0  0  0  0  0  0
   13.1778   -1.5392   25.1618 C   0  0  0  0  0  0  0  0  0  0  0  0
   11.1259   -1.5501   23.8864 C   0  0  0  0  0  0  0  0  0  0  0  0
    6.8340   -4.3731   21.4680 C   0  0  0  0  0  0  0  0  0  0  0  0
    9.5237   -3.4522   23.9830 C   0  0  0  0  0  0  0  0  0  0  0  0
    9.3815   -1.7587   22.1298 C   0  0  0  0  0  0  0  0  0  0  0  0
    8.8791   -4.3778   22.9511 C   0  0  0  0  0  0  0  0  0  0  0  0
    7.9369   -2.2506   22.0748 C   0  0  0  0  0  0  0  0  0  0  0  0
    6.8204   -5.8769   21.5932 C   0  0  0  0  0  0  0  0  0  0  0  0
   14.2180   -2.2700   25.9414 C   0  0  0  0  0  0  0  0  0  0  0  0
   10.0477   -2.2436   23.3419 N   0  0  0  0  0  0  0  0  0  0  0  0
    7.8528   -3.7069   22.1501 N   0  0  0  0  0  0  0  0  0  0  0  0
    5.9691   -3.8095   20.7932 O   0  0  0  0  0  0  0  0  0  0  0  0
   15.2145   -1.4643   26.4146 F   0  0  0  0  0  0  0  0  0  0  0  0
   13.7261   -2.9115   27.0424 F   0  0  0  0  0  0  0  0  0  0  0  0
   14.8450   -3.2338   25.2059 F   0  0  0  0  0  0  0  0  0  0  0  0
    5.8554   -6.2540   23.0156 Cl  0  0  0  0  0  0  0  0  0  0  0  0
  1  2  2  0  0  0  0
  1  3  1  0  0  0  0
  2  5  1  0  0  0  0
  3  6  2  0  0  0  0
  4  5  2  0  0  0  0
  4  6  1  0  0  0  0
  5 13  1  0  0  0  0
  6 14  1  0  0  0  0
  7 12  1  0  0  0  0
  7 15  1  0  0  0  0
  7 16  2  0  0  0  0
  8 10  1  0  0  0  0
  8 14  1  0  0  0  0
  9 11  1  0  0  0  0
  9 14  1  0  0  0  0
 10 15  1  0  0  0  0
 11 15  1  0  0  0  0
 12 20  1  0  0  0  0
 13 17  1  0  0  0  0
 13 18  1  0  0  0  0
 13 19  1  0  0  0  0
M  END
> <ref_mols>
x1328_0

> <original SMILES>
FC(F)(F)c1cccc(c1)N2CCN(CC2)C(=O)CCl

> <Chemgauss4>
-9.381646

> <ref_pdb>
x0749_0

$$$$
x1461
  -OEChem-05172015543D

 20 21  0     0  0  0  0  0  0999 V2000
   12.3125    0.5232   24.2481 C   0  0  0  0  0  0  0  0  0  0  0  0
   13.2848   -0.1606   24.9778 C   0  0  0  0  0  0  0  0  0  0  0  0
   11.2329   -0.1715   23.7025 C   0  0  0  0  0  0  0  0  0  0  0  0
   12.0983   -2.2339   24.6161 C   0  0  0  0  0  0  0  0  0  0  0  0
   13.1778   -1.5392   25.1618 C   0  0  0  0  0  0  0  0  0  0  0  0
   11.1259   -1.5501   23.8864 C   0  0  0  0  0  0  0  0  0  0  0  0
    6.8340   -4.3731   21.4680 C   0  0  0  0  0  0  0  0  0  0  0  0
    9.5237   -3.4522   23.9830 C   0  0  0  0  0  0  0  0  0  0  0  0
    9.3815   -1.7587   22.1298 C   0  0  0  0  0  0  0  0  0  0  0  0
    8.8791   -4.3778   22.9511 C   0  0  0  0  0  0  0  0  0  0  0  0
    7.9369   -2.2506   22.0748 C   0  0  0  0  0  0  0  0  0  0  0  0
    6.8204   -5.8769   21.5932 C   0  0  0  0  0  0  0  0  0  0  0  0
   14.2180   -2.2700   25.9414 C   0  0  0  0  0  0  0  0  0  0  0  0
   10.0477   -2.2436   23.3419 N   0  0  0  0  0  0  0  0  0  0  0  0
    7.8528   -3.7069   22.1501 N   0  0  0  0  0  0  0  0  0  0  0  0
    5.9691   -3.8095   20.7932 O   0  0  0  0  0  0  0  0  0  0  0  0
   15.2145   -1.4643   26.4146 F   0  0  0  0  0  0  0  0  0  0  0  0
   13.7261   -2.9115   27.0424 F   0  0  0  0  0  0  0  0  0  0  0  0
   14.8450   -3.2338   25.2059 F   0  0  0  0  0  0  0  0  0  0  0  0
    5.8554   -6.2540   23.0156 Cl  0  0  0  0  0  0  0  0  0  0  0  0
  1  2  2  0  0  0  0
  1  3  1  0  0  0  0
  2  5  1  0  0  0  0
  3  6  2  0  0  0  0
  4  5  2  0  0  0  0
  4  6  1  0  0  0  0
  5 13  1  0  0  0  0
  6 14  1  0  0  0  0
  7 12  1  0  0  0  0
  7 15  1  0  0  0  0
  7 16  2  0  0  0  0
  8 10  1  0  0  0  0
  8 14  1  0  0  0  0
  9 11  1  0  0  0  0
  9 14  1  0  0  0  0
 10 15  1  0  0  0  0
 11 15  1  0  0  0  0
 12 20  1  0  0  0  0
 13 17  1  0  0  0  0
 13 18  1  0  0  0  0
 13 19  1  0  0  0  0
M  END
> <ref_mols>
x1461_0

> <original SMILES>
FC(F)(F)c1cccc(c1)N2CCN(CC2)C(=O)CCl

> <Chemgauss4>
-9.381646

> <ref_pdb>
x0749_0

$$$$
x0828
  -OEChem-05172015543D

 20 21  0     0  0  0  0  0  0999 V2000
   12.3125    0.5232   24.2481 C   0  0  0  0  0  0  0  0  0  0  0  0
   13.2848   -0.1606   24.9778 C   0  0  0  0  0  0  0  0  0  0  0  0
   11.2329   -0.1715   23.7025 C   0  0  0  0  0  0  0  0  0  0  0  0
   12.0983   -2.2339   24.6161 C   0  0  0  0  0  0  0  0  0  0  0  0
   13.1778   -1.5392   25.1618 C   0  0  0  0  0  0  0  0  0  0  0  0
   11.1259   -1.5501   23.8864 C   0  0  0  0  0  0  0  0  0  0  0  0
    6.8340   -4.3731   21.4680 C   0  0  0  0  0  0  0  0  0  0  0  0
    9.5237   -3.4522   23.9830 C   0  0  0  0  0  0  0  0  0  0  0  0
    9.3815   -1.7587   22.1298 C   0  0  0  0  0  0  0  0  0  0  0  0
    8.8791   -4.3778   22.9511 C   0  0  0  0  0  0  0  0  0  0  0  0
    7.9369   -2.2506   22.0748 C   0  0  0  0  0  0  0  0  0  0  0  0
    6.8204   -5.8769   21.5932 C   0  0  0  0  0  0  0  0  0  0  0  0
   14.2180   -2.2700   25.9414 C   0  0  0  0  0  0  0  0  0  0  0  0
   10.0477   -2.2436   23.3419 N   0  0  0  0  0  0  0  0  0  0  0  0
    7.8528   -3.7069   22.1501 N   0  0  0  0  0  0  0  0  0  0  0  0
    5.9691   -3.8095   20.7932 O   0  0  0  0  0  0  0  0  0  0  0  0
   15.2145   -1.4643   26.4146 F   0  0  0  0  0  0  0  0  0  0  0  0
   13.7261   -2.9115   27.0424 F   0  0  0  0  0  0  0  0  0  0  0  0
   14.8450   -3.2338   25.2059 F   0  0  0  0  0  0  0  0  0  0  0  0
    5.8554   -6.2540   23.0156 Cl  0  0  0  0  0  0  0  0  0  0  0  0
  1  2  2  0  0  0  0
  1  3  1  0  0  0  0
  2  5  1  0  0  0  0
  3  6  2  0  0  0  0
  4  5  2  0  0  0  0
  4  6  1  0  0  0  0
  5 13  1  0  0  0  0
  6 14  1  0  0  0  0
  7 12  1  0  0  0  0
  7 15  1  0  0  0  0
  7 16  2  0  0  0  0
  8 10  1  0  0  0  0
  8 14  1  0  0  0  0
  9 11  1  0  0  0  0
  9 14  1  0  0  0  0
 10 15  1  0  0  0  0
 11 15  1  0  0  0  0
 12 20  1  0  0  0  0
 13 17  1  0  0  0  0
 13 18  1  0  0  0  0
 13 19  1  0  0  0  0
M  END
> <ref_mols>
x0828_0

> <original SMILES>
FC(F)(F)c1cccc(c1)N2CCN(CC2)C(=O)CCl

> <Chemgauss4>
-9.381646

> <ref_pdb>
x0749_0

$$$$
x0754
  -OEChem-05172015543D

 20 21  0     0  0  0  0  0  0999 V2000
   12.3125    0.5232   24.2481 C   0  0  0  0  0  0  0  0  0  0  0  0
   13.2848   -0.1606   24.9778 C   0  0  0  0  0  0  0  0  0  0  0  0
   11.2329   -0.1715   23.7025 C   0  0  0  0  0  0  0  0  0  0  0  0
   12.0983   -2.2339   24.6161 C   0  0  0  0  0  0  0  0  0  0  0  0
   13.1778   -1.5392   25.1618 C   0  0  0  0  0  0  0  0  0  0  0  0
   11.1259   -1.5501   23.8864 C   0  0  0  0  0  0  0  0  0  0  0  0
    6.8340   -4.3731   21.4680 C   0  0  0  0  0  0  0  0  0  0  0  0
    9.5237   -3.4522   23.9830 C   0  0  0  0  0  0  0  0  0  0  0  0
    9.3815   -1.7587   22.1298 C   0  0  0  0  0  0  0  0  0  0  0  0
    8.8791   -4.3778   22.9511 C   0  0  0  0  0  0  0  0  0  0  0  0
    7.9369   -2.2506   22.0748 C   0  0  0  0  0  0  0  0  0  0  0  0
    6.8204   -5.8769   21.5932 C   0  0  0  0  0  0  0  0  0  0  0  0
   14.2180   -2.2700   25.9414 C   0  0  0  0  0  0  0  0  0  0  0  0
   10.0477   -2.2436   23.3419 N   0  0  0  0  0  0  0  0  0  0  0  0
    7.8528   -3.7069   22.1501 N   0  0  0  0  0  0  0  0  0  0  0  0
    5.9691   -3.8095   20.7932 O   0  0  0  0  0  0  0  0  0  0  0  0
   15.2145   -1.4643   26.4146 F   0  0  0  0  0  0  0  0  0  0  0  0
   13.7261   -2.9115   27.0424 F   0  0  0  0  0  0  0  0  0  0  0  0
   14.8450   -3.2338   25.2059 F   0  0  0  0  0  0  0  0  0  0  0  0
    5.8554   -6.2540   23.0156 Cl  0  0  0  0  0  0  0  0  0  0  0  0
  1  2  2  0  0  0  0
  1  3  1  0  0  0  0
  2  5  1  0  0  0  0
  3  6  2  0  0  0  0
  4  5  2  0  0  0  0
  4  6  1  0  0  0  0
  5 13  1  0  0  0  0
  6 14  1  0  0  0  0
  7 12  1  0  0  0  0
  7 15  1  0  0  0  0
  7 16  2  0  0  0  0
  8 10  1  0  0  0  0
  8 14  1  0  0  0  0
  9 11  1  0  0  0  0
  9 14  1  0  0  0  0
 10 15  1  0  0  0  0
 11 15  1  0  0  0  0
 12 20  1  0  0  0  0
 13 17  1  0  0  0  0
 13 18  1  0  0  0  0
 13 19  1  0  0  0  0
M  END
> <ref_mols>
x0754_0

> <original SMILES>
FC(F)(F)c1cccc(c1)N2CCN(CC2)C(=O)CCl

> <Chemgauss4>
-9.381646

> <ref_pdb>
x0749_0

> <CYS145-warhead dist minimum (A)>
10.835625

> <CYS145-warhead dist mean (A)>
14.118633

> <CYS145-warhead dist stddev (A)>
0.91843283

$$$$
x0670
  -OEChem-05172015543D

 18 19  0     0  0  0  0  0  0999 V2000
   13.8203   -0.6865   25.1923 C   0  0  0  0  0  0  0  0  0  0  0  0
   14.0835   -2.0561   25.2143 C   0  0  0  0  0  0  0  0  0  0  0  0
   12.5031   -0.2288   25.2259 C   0  0  0  0  0  0  0  0  0  0  0  0
   13.0295   -2.9680   25.2698 C   0  0  0  0  0  0  0  0  0  0  0  0
   11.4491   -1.1407   25.2813 C   0  0  0  0  0  0  0  0  0  0  0  0
   11.7122   -2.5103   25.3033 C   0  0  0  0  0  0  0  0  0  0  0  0
    6.6904   -4.7837   21.6544 C   0  0  0  0  0  0  0  0  0  0  0  0
    9.2085   -2.8014   23.3592 C   0  0  0  0  0  0  0  0  0  0  0  0
    9.3520   -5.2325   24.0065 C   0  0  0  0  0  0  0  0  0  0  0  0
    8.6692   -3.2223   21.9931 C   0  0  0  0  0  0  0  0  0  0  0  0
    8.8122   -5.6036   22.6274 C   0  0  0  0  0  0  0  0  0  0  0  0
   10.1027   -3.8928   23.9671 C   0  0  0  0  0  0  0  0  0  0  0  0
    4.7036   -5.2780   23.0568 C   0  0  0  0  0  0  0  0  0  0  0  0
    5.5784   -7.0023   21.4506 C   0  0  0  0  0  0  0  0  0  0  0  0
   10.5752   -3.4932   25.3628 C   0  0  0  0  0  0  0  0  0  0  0  0
    5.9428   -5.8639   22.3946 C   0  0  0  0  0  0  0  0  0  0  0  0
    7.9926   -4.5219   22.0787 N   0  0  0  0  0  0  0  0  0  0  0  0
    6.1330   -4.1932   20.7256 O   0  0  0  0  0  0  0  0  0  0  0  0
  1  2  1  0  0  0  0
  1  3  2  0  0  0  0
  2  4  2  0  0  0  0
  3  5  1  0  0  0  0
  4  6  1  0  0  0  0
  5  6  2  0  0  0  0
  6 15  1  0  0  0  0
  7 16  1  0  0  0  0
  7 17  1  0  0  0  0
  7 18  2  0  0  0  0
  8 10  1  0  0  0  0
  8 12  1  0  0  0  0
  9 11  1  0  0  0  0
  9 12  1  0  0  0  0
 10 17  1  0  0  0  0
 11 17  1  0  0  0  0
 12 15  1  0  0  0  0
 13 16  1  0  0  0  0
 14 16  1  0  0  0  0
M  END
> <ref_mols>
x0670_0

> <original SMILES>
CC(C)C(=O)N1CCC(CC=2C=CC=CC2)CC1

> <Chemgauss4>
-9.381584

> <ref_pdb>
x0749_0

$$$$
x0360
  -OEChem-05172015543D

 16 17  0     0  0  0  0  0  0999 V2000
    6.3286    0.8563   18.1023 C   0  0  0  0  0  0  0  0  0  0  0  0
    7.1978   -0.0331   18.7979 C   0  0  0  0  0  0  0  0  0  0  0  0
   11.9035   -1.4616   21.8002 C   0  0  0  0  0  0  0  0  0  0  0  0
   11.2475   -0.5179   23.9129 C   0  0  0  0  0  0  0  0  0  0  0  0
   13.2020   -1.0768   22.0928 C   0  0  0  0  0  0  0  0  0  0  0  0
   12.5754   -0.1755   24.1110 C   0  0  0  0  0  0  0  0  0  0  0  0
    5.2906    1.2918   18.8962 C   0  0  0  0  0  0  0  0  0  0  0  0
   10.9135   -1.1731   22.7329 C   0  0  0  0  0  0  0  0  0  0  0  0
    6.7909   -0.2432   20.0972 C   0  0  0  0  0  0  0  0  0  0  0  0
    9.4991   -1.5641   22.4684 C   0  0  0  0  0  0  0  0  0  0  0  0
    7.4297   -1.1027   21.1481 C   0  0  0  0  0  0  0  0  0  0  0  0
   13.5648   -0.4389   23.2282 N   0  0  0  0  0  0  0  0  0  0  0  0
    8.8224   -0.6940   21.4671 N   0  3  0  0  0  0  0  0  0  0  0  0
    5.3664    0.6294   20.4735 S   0  0  0  0  0  0  0  0  0  0  0  0
    8.8202    0.2749   21.8124 H   0  0  0  0  0  0  0  0  0  0  0  0
    9.3789   -0.6834   20.6022 H   0  0  0  0  0  0  0  0  0  0  0  0
  1  2  1  0  0  0  0
  1  7  2  0  0  0  0
  2  9  2  0  0  0  0
  3  5  2  0  0  0  0
  3  8  1  0  0  0  0
  4  6  1  0  0  0  0
  4  8  2  0  0  0  0
  5 12  1  0  0  0  0
  6 12  2  0  0  0  0
  7 14  1  0  0  0  0
  8 10  1  0  0  0  0
  9 11  1  0  0  0  0
  9 14  1  0  0  0  0
 10 13  1  0  0  0  0
 11 13  1  0  0  0  0
 13 15  1  0  0  0  0
 13 16  1  0  0  0  0
M  CHG  1  13   1
M  END
> <ref_mols>
x0360_0

> <original SMILES>
C(NCC=1C=CN=CC1)C2=CC=CS2

> <Chemgauss4>
-9.381174

> <ref_pdb>
x1093_0

$$$$
x2837
  -OEChem-05172015543D

 20 21  0     0  0  0  0  0  0999 V2000
   12.6052   -3.2355   25.7140 C   0  0  0  0  0  0  0  0  0  0  0  0
   11.0470   -1.5694   24.9186 C   0  0  0  0  0  0  0  0  0  0  0  0
   13.3474   -0.9663   25.3444 C   0  0  0  0  0  0  0  0  0  0  0  0
   11.3190   -2.8812   25.3070 C   0  0  0  0  0  0  0  0  0  0  0  0
   13.6194   -2.2781   25.7328 C   0  0  0  0  0  0  0  0  0  0  0  0
   12.0612   -0.6119   24.9373 C   0  0  0  0  0  0  0  0  0  0  0  0
    5.8710   -4.3260   21.8922 C   0  0  0  0  0  0  0  0  0  0  0  0
    6.5824   -3.6659   24.1680 C   0  0  0  0  0  0  0  0  0  0  0  0
    8.0356   -3.0474   22.2762 C   0  0  0  0  0  0  0  0  0  0  0  0
    7.7766   -4.2206   24.9307 C   0  0  0  0  0  0  0  0  0  0  0  0
    9.2529   -3.5914   23.0117 C   0  0  0  0  0  0  0  0  0  0  0  0
    5.0680   -5.4532   22.4909 C   0  0  0  0  0  0  0  0  0  0  0  0
   10.2286   -3.9116   25.2879 C   0  0  0  0  0  0  0  0  0  0  0  0
    6.8105   -3.7184   22.7239 N   0  0  0  0  0  0  0  0  0  0  0  0
    9.0229   -3.4786   24.5023 N   0  3  0  0  0  0  0  0  0  0  0  0
    5.6661   -3.9953   20.7214 O   0  0  0  0  0  0  0  0  0  0  0  0
   14.8746   -2.6235   26.1301 O   0  0  0  0  0  0  0  0  0  0  0  0
   11.7261    1.0063   24.4570 Cl  0  0  0  0  0  0  0  0  0  0  0  0
    8.8768   -2.4822   24.7158 H   0  0  0  0  0  0  0  0  0  0  0  0
   14.9053   -3.5639   26.3676 H   0  0  0  0  0  0  0  0  0  0  0  0
  1  4  1  0  0  0  0
  1  5  2  0  0  0  0
  2  4  2  0  0  0  0
  2  6  1  0  0  0  0
  3  5  1  0  0  0  0
  3  6  2  0  0  0  0
  4 13  1  0  0  0  0
  5 17  1  0  0  0  0
  6 18  1  0  0  0  0
  7 12  1  0  0  0  0
  7 14  1  0  0  0  0
  7 16  2  0  0  0  0
  8 10  1  0  0  0  0
  8 14  1  0  0  0  0
  9 11  1  0  0  0  0
  9 14  1  0  0  0  0
 10 15  1  0  0  0  0
 11 15  1  0  0  0  0
 13 15  1  0  0  0  0
 15 19  1  0  0  0  0
 17 20  1  0  0  0  0
M  CHG  1  15   1
M  END
> <ref_mols>
x2837_0

> <original SMILES>
CC(=O)N1CCN(CC=2C=C(O)C=C(Cl)C2)CC1

> <Chemgauss4>
-9.378798

> <ref_pdb>
x0749_0

$$$$
x0348
  -OEChem-05172015543D

 17 18  0     1  0  0  0  0  0999 V2000
   13.4793   -0.0795   23.2674 C   0  0  0  0  0  0  0  0  0  0  0  0
   13.3928   -1.0678   22.2870 C   0  0  0  0  0  0  0  0  0  0  0  0
   12.3191    0.4151   23.8634 C   0  0  0  0  0  0  0  0  0  0  0  0
   12.1463   -1.5615   21.9024 C   0  0  0  0  0  0  0  0  0  0  0  0
   11.0725   -0.0786   23.4787 C   0  0  0  0  0  0  0  0  0  0  0  0
    5.7938    0.6895   18.1368 C   0  0  0  0  0  0  0  0  0  0  0  0
    6.6414   -0.4299   18.3146 C   0  0  0  0  0  0  0  0  0  0  0  0
   10.9861   -1.0669   22.4982 C   0  0  0  0  0  0  0  0  0  0  0  0
    5.6049    1.2282   19.3882 C   0  0  0  0  0  0  0  0  0  0  0  0
    6.9102   -0.4954   19.6620 C   0  0  0  0  0  0  0  0  0  0  0  0
    4.8411    2.3829   19.8815 C   0  0  0  0  0  0  0  0  0  0  0  0
    8.9001    0.6322   21.2632 C   0  0  0  0  0  0  0  0  0  0  0  0
    9.6449   -1.5973   22.0849 C   0  0  0  0  0  0  0  0  0  0  0  0
    7.7312   -1.4302   20.5004 C   0  0  0  0  0  0  0  0  0  0  0  0
    9.0338   -0.8302   20.9471 N   0  3  1  0  0  0  0  0  0  0  0  0
    6.2821    0.5119   20.3235 O   0  0  0  0  0  0  0  0  0  0  0  0
    9.6843   -0.9054   20.1535 H   0  0  0  0  0  0  0  0  0  0  0  0
  1  2  1  0  0  0  0
  1  3  2  0  0  0  0
  2  4  2  0  0  0  0
  3  5  1  0  0  0  0
  4  8  1  0  0  0  0
  5  8  2  0  0  0  0
  6  7  1  0  0  0  0
  6  9  2  0  0  0  0
  7 10  2  0  0  0  0
  8 13  1  0  0  0  0
  9 11  1  0  0  0  0
  9 16  1  0  0  0  0
 10 14  1  0  0  0  0
 10 16  1  0  0  0  0
 12 15  1  0  0  0  0
 13 15  1  0  0  0  0
 14 15  1  0  0  0  0
 15 17  1  0  0  0  0
M  CHG  1  15   1
M  END
> <ref_mols>
x0348_0

> <original SMILES>
CN(CC1=CC=C(C)O1)CC=2C=CC=CC2

> <Chemgauss4>
-9.378069

> <ref_pdb>
x1093_0

$$$$
x0120
  -OEChem-05172015543D

 18 19  0     0  0  0  0  0  0999 V2000
   10.7344    7.4049   26.2618 C   0  0  0  0  0  0  0  0  0  0  0  0
    9.7642    7.6174   25.2797 C   0  0  0  0  0  0  0  0  0  0  0  0
   11.8416    6.5831   26.0162 C   0  0  0  0  0  0  0  0  0  0  0  0
    9.8638    7.0187   24.0194 C   0  0  0  0  0  0  0  0  0  0  0  0
   11.9576    5.9734   24.7556 C   0  0  0  0  0  0  0  0  0  0  0  0
   10.9747    6.2043   23.7973 C   0  0  0  0  0  0  0  0  0  0  0  0
   12.5561    4.8568   23.0367 C   0  0  0  0  0  0  0  0  0  0  0  0
   12.4954    2.0250   23.3831 C   0  0  0  0  0  0  0  0  0  0  0  0
   11.8489   -0.0011   24.7064 C   0  0  0  0  0  0  0  0  0  0  0  0
   13.0579   -0.2756   22.5255 C   0  0  0  0  0  0  0  0  0  0  0  0
   13.2739    3.9765   22.0549 C   0  0  0  0  0  0  0  0  0  0  0  0
   12.8911    0.5998   23.7653 C   0  0  0  0  0  0  0  0  0  0  0  0
   12.9316    5.1343   24.2651 N   0  0  0  0  0  0  0  0  0  0  0  0
   11.3832    5.4779   22.7082 N   0  0  0  0  0  0  0  0  0  0  0  0
   13.4258    2.6276   22.5489 N   0  0  0  0  0  0  0  0  0  0  0  0
   11.4639    2.5596   23.7843 O   0  0  0  0  0  0  0  0  0  0  0  0
   10.9011    5.4155   21.8212 H   0  0  0  0  0  0  0  0  0  0  0  0
   14.2480    2.0984   22.2741 H   0  0  0  0  0  0  0  0  0  0  0  0
  1  2  1  0  0  0  0
  1  3  2  0  0  0  0
  2  4  2  0  0  0  0
  3  5  1  0  0  0  0
  4  6  1  0  0  0  0
  5  6  2  0  0  0  0
  5 13  1  0  0  0  0
  6 14  1  0  0  0  0
  7 11  1  0  0  0  0
  7 13  2  0  0  0  0
  7 14  1  0  0  0  0
  8 12  1  0  0  0  0
  8 15  1  0  0  0  0
  8 16  2  0  0  0  0
  9 12  1  0  0  0  0
 10 12  1  0  0  0  0
 11 15  1  0  0  0  0
 14 17  1  0  0  0  0
 15 18  1  0  0  0  0
M  END
> <ref_mols>
x0120_0

> <original SMILES>
CC(C)C(=O)NCC1=NC=2C=CC=CC2N1

> <Chemgauss4>
-9.377493

> <ref_pdb>
x0946_0

$$$$
x1222
  -OEChem-05172015543D

 18 19  0     1  0  0  0  0  0999 V2000
   10.7740    2.4114   24.7222 C   0  0  0  0  0  0  0  0  0  0  0  0
   12.0125    3.0736   22.7563 C   0  0  0  0  0  0  0  0  0  0  0  0
   11.4429    1.1874   24.7312 C   0  0  0  0  0  0  0  0  0  0  0  0
   12.6814    1.8497   22.7654 C   0  0  0  0  0  0  0  0  0  0  0  0
   11.0588    3.3545   23.7346 C   0  0  0  0  0  0  0  0  0  0  0  0
   12.3966    0.9065   23.7529 C   0  0  0  0  0  0  0  0  0  0  0  0
   12.9351   -1.1936   22.5889 C   0  0  0  0  0  0  0  0  0  0  0  0
   13.3074   -1.0133   25.0333 C   0  0  0  0  0  0  0  0  0  0  0  0
   14.0901   -2.1879   22.5528 C   0  0  0  0  0  0  0  0  0  0  0  0
   14.4423   -2.0177   24.8669 C   0  0  0  0  0  0  0  0  0  0  0  0
   11.2845    5.8711   23.8269 C   0  0  0  0  0  0  0  0  0  0  0  0
   10.3439    4.6632   23.7239 C   0  0  1  0  0  0  0  0  0  0  0  0
   13.0688   -0.3199   23.7627 N   0  0  0  0  0  0  0  0  0  0  0  0
    9.4881    4.8661   22.5047 N   0  3  0  0  0  0  0  0  0  0  0  0
   14.1689   -2.9061   23.7839 O   0  0  0  0  0  0  0  0  0  0  0  0
    9.0893    5.8034   22.5125 H   0  0  0  0  0  0  0  0  0  0  0  0
    8.7317    4.1836   22.4947 H   0  0  0  0  0  0  0  0  0  0  0  0
   10.0503    4.7512   21.6629 H   0  0  0  0  0  0  0  0  0  0  0  0
  1  3  2  0  0  0  0
  1  5  1  0  0  0  0
  2  4  1  0  0  0  0
  2  5  2  0  0  0  0
  3  6  1  0  0  0  0
  4  6  2  0  0  0  0
  5 12  1  0  0  0  0
  6 13  1  0  0  0  0
  7  9  1  0  0  0  0
  7 13  1  0  0  0  0
  8 10  1  0  0  0  0
  8 13  1  0  0  0  0
  9 15  1  0  0  0  0
 10 15  1  0  0  0  0
 11 12  1  0  0  0  0
 12 14  1  0  0  0  0
 14 16  1  0  0  0  0
 14 17  1  0  0  0  0
 14 18  1  0  0  0  0
M  CHG  1  14   1
M  END
> <ref_mols>
x1222_0

> <original SMILES>
CC(N)C=1C=CC(=CC1)N2CCOCC2

> <Chemgauss4>
-9.372700

> <ref_pdb>
x0161_0

$$$$
x0379
  -OEChem-05172015543D

 19 20  0     0  0  0  0  0  0999 V2000
    8.9141    7.6166   24.9161 C   0  0  0  0  0  0  0  0  0  0  0  0
   10.8544   -1.7507   22.9960 C   0  0  0  0  0  0  0  0  0  0  0  0
    8.5878    7.2292   23.6165 C   0  0  0  0  0  0  0  0  0  0  0  0
    9.9226    6.9486   25.6106 C   0  0  0  0  0  0  0  0  0  0  0  0
   11.9854   -1.5509   22.2045 C   0  0  0  0  0  0  0  0  0  0  0  0
   10.4518   -0.7661   23.8984 C   0  0  0  0  0  0  0  0  0  0  0  0
    9.2699    6.1737   23.0113 C   0  0  0  0  0  0  0  0  0  0  0  0
   10.6047    5.8930   25.0055 C   0  0  0  0  0  0  0  0  0  0  0  0
   12.7139   -0.3665   22.3154 C   0  0  0  0  0  0  0  0  0  0  0  0
   11.1803    0.4182   24.0093 C   0  0  0  0  0  0  0  0  0  0  0  0
   10.2784    5.5056   23.7058 C   0  0  0  0  0  0  0  0  0  0  0  0
   12.3114    0.6180   23.2179 C   0  0  0  0  0  0  0  0  0  0  0  0
   12.2831    4.0385   23.3132 C   0  0  0  0  0  0  0  0  0  0  0  0
   10.7350    1.4607   24.9807 C   0  0  0  0  0  0  0  0  0  0  0  0
   12.6557    2.8457   22.4598 C   0  0  0  0  0  0  0  0  0  0  0  0
   10.9703    4.4349   23.0917 N   0  0  0  0  0  0  0  0  0  0  0  0
   13.1033    4.5381   24.0774 O   0  0  0  0  0  0  0  0  0  0  0  0
   13.0346    1.7687   23.3144 O   0  0  0  0  0  0  0  0  0  0  0  0
   10.4456    3.8926   22.4087 H   0  0  0  0  0  0  0  0  0  0  0  0
  1  3  1  0  0  0  0
  1  4  2  0  0  0  0
  2  5  1  0  0  0  0
  2  6  2  0  0  0  0
  3  7  2  0  0  0  0
  4  8  1  0  0  0  0
  5  9  2  0  0  0  0
  6 10  1  0  0  0  0
  7 11  1  0  0  0  0
  8 11  2  0  0  0  0
  9 12  1  0  0  0  0
 10 12  2  0  0  0  0
 10 14  1  0  0  0  0
 11 16  1  0  0  0  0
 12 18  1  0  0  0  0
 13 15  1  0  0  0  0
 13 16  1  0  0  0  0
 13 17  2  0  0  0  0
 15 18  1  0  0  0  0
 16 19  1  0  0  0  0
M  END
> <ref_mols>
x0379_0

> <original SMILES>
CC=1C=CC=CC1OCC(=O)NC=2C=CC=CC2

> <Chemgauss4>
-9.359197

> <ref_pdb>
x0104_0

$$$$
x0465
  -OEChem-05172015543D

 19 20  0     0  0  0  0  0  0999 V2000
   12.4929   -1.5511   23.7713 C   0  0  0  0  0  0  0  0  0  0  0  0
   11.6833   -3.0393   25.4937 C   0  0  0  0  0  0  0  0  0  0  0  0
    7.6217   -3.7469   22.5357 C   0  0  0  0  0  0  0  0  0  0  0  0
    8.5556   -5.9458   22.8961 C   0  0  0  0  0  0  0  0  0  0  0  0
    6.5179   -4.3193   21.9036 C   0  0  0  0  0  0  0  0  0  0  0  0
    7.4517   -6.5182   22.2640 C   0  0  0  0  0  0  0  0  0  0  0  0
   13.6225   -1.2743   24.5413 C   0  0  0  0  0  0  0  0  0  0  0  0
   12.8130   -2.7626   26.2637 C   0  0  0  0  0  0  0  0  0  0  0  0
   11.5232   -2.4336   24.2475 C   0  0  0  0  0  0  0  0  0  0  0  0
    8.6406   -4.5602   23.0319 C   0  0  0  0  0  0  0  0  0  0  0  0
    6.4329   -5.7049   21.7678 C   0  0  0  0  0  0  0  0  0  0  0  0
   13.7826   -1.8801   25.7875 C   0  0  0  0  0  0  0  0  0  0  0  0
   10.3456   -2.7226   23.4448 C   0  0  0  0  0  0  0  0  0  0  0  0
    9.7626   -3.9786   23.6744 N   0  0  0  0  0  0  0  0  0  0  0  0
    9.9212   -1.9226   22.5993 O   0  0  0  0  0  0  0  0  0  0  0  0
    5.3558   -6.2635   21.1510 O   0  0  0  0  0  0  0  0  0  0  0  0
   15.1768   -1.5397   26.7367 Cl  0  0  0  0  0  0  0  0  0  0  0  0
   10.2023   -4.5451   24.3955 H   0  0  0  0  0  0  0  0  0  0  0  0
    4.7377   -5.5730   20.8627 H   0  0  0  0  0  0  0  0  0  0  0  0
  1  7  2  0  0  0  0
  1  9  1  0  0  0  0
  2  8  1  0  0  0  0
  2  9  2  0  0  0  0
  3  5  2  0  0  0  0
  3 10  1  0  0  0  0
  4  6  1  0  0  0  0
  4 10  2  0  0  0  0
  5 11  1  0  0  0  0
  6 11  2  0  0  0  0
  7 12  1  0  0  0  0
  8 12  2  0  0  0  0
  9 13  1  0  0  0  0
 10 14  1  0  0  0  0
 11 16  1  0  0  0  0
 12 17  1  0  0  0  0
 13 14  1  0  0  0  0
 13 15  2  0  0  0  0
 14 18  1  0  0  0  0
 16 19  1  0  0  0  0
M  END
> <ref_mols>
x0465_0

> <original SMILES>
OC=1C=CC(NC(=O)C=2C=CC(Cl)=CC2)=CC1

> <Chemgauss4>
-9.358206

> <ref_pdb>
x0749_0

$$$$
x0788
  -OEChem-05172015543D

 17 18  0     0  0  0  0  0  0999 V2000
   12.3804   -0.4166   25.4471 C   0  0  0  0  0  0  0  0  0  0  0  0
   13.4234   -1.2108   25.9233 C   0  0  0  0  0  0  0  0  0  0  0  0
   11.2835   -1.0081   24.8202 C   0  0  0  0  0  0  0  0  0  0  0  0
   13.3698   -2.5965   25.7727 C   0  0  0  0  0  0  0  0  0  0  0  0
   11.2299   -2.3938   24.6696 C   0  0  0  0  0  0  0  0  0  0  0  0
   12.2730   -3.1880   25.1458 C   0  0  0  0  0  0  0  0  0  0  0  0
    6.8924   -4.8398   21.9417 C   0  0  0  0  0  0  0  0  0  0  0  0
    9.2914   -3.9528   24.7464 C   0  0  0  0  0  0  0  0  0  0  0  0
    9.7693   -2.6143   22.6721 C   0  0  0  0  0  0  0  0  0  0  0  0
    8.6446   -4.9249   23.7596 C   0  0  0  0  0  0  0  0  0  0  0  0
    8.2824   -2.8589   22.4250 C   0  0  0  0  0  0  0  0  0  0  0  0
    6.5660   -6.2738   22.2799 C   0  0  0  0  0  0  0  0  0  0  0  0
   10.1337   -2.9819   24.0433 N   0  0  0  0  0  0  0  0  0  0  0  0
    7.9046   -4.2438   22.6948 N   0  0  0  0  0  0  0  0  0  0  0  0
    6.2685   -4.2675   21.0449 O   0  0  0  0  0  0  0  0  0  0  0  0
   12.2318   -4.5206   25.0062 F   0  0  0  0  0  0  0  0  0  0  0  0
    5.3391   -6.2260   23.5405 Cl  0  0  0  0  0  0  0  0  0  0  0  0
  1  2  1  0  0  0  0
  1  3  2  0  0  0  0
  2  4  2  0  0  0  0
  3  5  1  0  0  0  0
  4  6  1  0  0  0  0
  5  6  2  0  0  0  0
  5 13  1  0  0  0  0
  6 16  1  0  0  0  0
  7 12  1  0  0  0  0
  7 14  1  0  0  0  0
  7 15  2  0  0  0  0
  8 10  1  0  0  0  0
  8 13  1  0  0  0  0
  9 11  1  0  0  0  0
  9 13  1  0  0  0  0
 10 14  1  0  0  0  0
 11 14  1  0  0  0  0
 12 17  1  0  0  0  0
M  END
> <ref_mols>
x0788_0

> <original SMILES>
Fc1ccccc1N2CCN(CC2)C(=O)CCl

> <Chemgauss4>
-9.349375

> <ref_pdb>
x0749_0

$$$$
x0714
  -OEChem-05172015543D

 17 18  0     0  0  0  0  0  0999 V2000
   12.3804   -0.4166   25.4471 C   0  0  0  0  0  0  0  0  0  0  0  0
   13.4234   -1.2108   25.9233 C   0  0  0  0  0  0  0  0  0  0  0  0
   11.2835   -1.0081   24.8202 C   0  0  0  0  0  0  0  0  0  0  0  0
   13.3698   -2.5965   25.7727 C   0  0  0  0  0  0  0  0  0  0  0  0
   11.2299   -2.3938   24.6696 C   0  0  0  0  0  0  0  0  0  0  0  0
   12.2730   -3.1880   25.1458 C   0  0  0  0  0  0  0  0  0  0  0  0
    6.8924   -4.8398   21.9417 C   0  0  0  0  0  0  0  0  0  0  0  0
    9.2914   -3.9528   24.7464 C   0  0  0  0  0  0  0  0  0  0  0  0
    9.7693   -2.6143   22.6721 C   0  0  0  0  0  0  0  0  0  0  0  0
    8.6446   -4.9249   23.7596 C   0  0  0  0  0  0  0  0  0  0  0  0
    8.2824   -2.8589   22.4250 C   0  0  0  0  0  0  0  0  0  0  0  0
    6.5660   -6.2738   22.2799 C   0  0  0  0  0  0  0  0  0  0  0  0
   10.1337   -2.9819   24.0433 N   0  0  0  0  0  0  0  0  0  0  0  0
    7.9046   -4.2438   22.6948 N   0  0  0  0  0  0  0  0  0  0  0  0
    6.2685   -4.2675   21.0449 O   0  0  0  0  0  0  0  0  0  0  0  0
   12.2318   -4.5206   25.0062 F   0  0  0  0  0  0  0  0  0  0  0  0
    5.3391   -6.2260   23.5405 Cl  0  0  0  0  0  0  0  0  0  0  0  0
  1  2  1  0  0  0  0
  1  3  2  0  0  0  0
  2  4  2  0  0  0  0
  3  5  1  0  0  0  0
  4  6  1  0  0  0  0
  5  6  2  0  0  0  0
  5 13  1  0  0  0  0
  6 16  1  0  0  0  0
  7 12  1  0  0  0  0
  7 14  1  0  0  0  0
  7 15  2  0  0  0  0
  8 10  1  0  0  0  0
  8 13  1  0  0  0  0
  9 11  1  0  0  0  0
  9 13  1  0  0  0  0
 10 14  1  0  0  0  0
 11 14  1  0  0  0  0
 12 17  1  0  0  0  0
M  END
> <ref_mols>
x0714_0

> <original SMILES>
Fc1ccccc1N2CCN(CC2)C(=O)CCl

> <Chemgauss4>
-9.349375

> <ref_pdb>
x0749_0

> <CYS145-warhead dist minimum (A)>
4.7794576

> <CYS145-warhead dist mean (A)>
6.2327375

> <CYS145-warhead dist stddev (A)>
0.40303972

$$$$
x2857
  -OEChem-05172015543D

 20 21  0     0  0  0  0  0  0999 V2000
    8.1123   -3.4505   23.5811 C   0  0  0  0  0  0  0  0  0  0  0  0
    8.1115   -2.4647   22.5943 C   0  0  0  0  0  0  0  0  0  0  0  0
    9.2768   -3.7148   24.3020 C   0  0  0  0  0  0  0  0  0  0  0  0
    9.2753   -1.7432   22.3284 C   0  0  0  0  0  0  0  0  0  0  0  0
   10.4406   -2.9933   24.0361 C   0  0  0  0  0  0  0  0  0  0  0  0
   10.4398   -2.0074   23.0493 C   0  0  0  0  0  0  0  0  0  0  0  0
   11.6647   -1.2480   22.7693 C   0  0  0  0  0  0  0  0  0  0  0  0
   12.4215    4.9693   23.2942 C   0  0  0  0  0  0  0  0  0  0  0  0
   12.7248    2.1659   22.8939 C   0  0  0  0  0  0  0  0  0  0  0  0
   10.6155    1.8963   24.2468 C   0  0  0  0  0  0  0  0  0  0  0  0
   13.0903    0.7212   23.2203 C   0  0  0  0  0  0  0  0  0  0  0  0
   11.0261    0.4595   24.5516 C   0  0  0  0  0  0  0  0  0  0  0  0
   11.8402    2.7756   23.9827 C   0  0  0  0  0  0  0  0  0  0  0  0
   13.2502    6.3364   21.3849 C   0  0  0  0  0  0  0  0  0  0  0  0
   11.8855   -0.0677   23.4826 N   0  0  0  0  0  0  0  0  0  0  0  0
   12.3401    5.3866   21.9823 N   0  0  0  0  0  0  0  0  0  0  0  0
   12.4076   -1.7145   21.9070 O   0  0  0  0  0  0  0  0  0  0  0  0
   13.2570    5.3385   24.1128 O   0  0  0  0  0  0  0  0  0  0  0  0
   11.4233    4.0694   23.5636 O   0  0  0  0  0  0  0  0  0  0  0  0
   11.5985    5.0046   21.4035 H   0  0  0  0  0  0  0  0  0  0  0  0
  1  2  1  0  0  0  0
  1  3  2  0  0  0  0
  2  4  2  0  0  0  0
  3  5  1  0  0  0  0
  4  6  1  0  0  0  0
  5  6  2  0  0  0  0
  6  7  1  0  0  0  0
  7 15  1  0  0  0  0
  7 17  2  0  0  0  0
  8 16  1  0  0  0  0
  8 18  2  0  0  0  0
  8 19  1  0  0  0  0
  9 11  1  0  0  0  0
  9 13  1  0  0  0  0
 10 12  1  0  0  0  0
 10 13  1  0  0  0  0
 11 15  1  0  0  0  0
 12 15  1  0  0  0  0
 13 19  1  0  0  0  0
 14 16  1  0  0  0  0
 16 20  1  0  0  0  0
M  END
> <ref_mols>
x2857_0

> <original SMILES>
CNC(=O)OC1CCN(CC1)C(=O)C=2C=CC=CC2

> <Chemgauss4>
-9.340299

> <ref_pdb>
x0104_0

$$$$
x0472
  -OEChem-05172015543D

 21 22  0     0  0  0  0  0  0999 V2000
    6.8610   -5.9119   22.0296 C   0  0  0  0  0  0  0  0  0  0  0  0
    7.8789   -6.4584   22.8111 C   0  0  0  0  0  0  0  0  0  0  0  0
    6.8248   -4.5378   21.7929 C   0  0  0  0  0  0  0  0  0  0  0  0
    8.8606   -5.6307   23.3560 C   0  0  0  0  0  0  0  0  0  0  0  0
   13.0961   -2.9425   25.2452 C   0  0  0  0  0  0  0  0  0  0  0  0
   11.2213   -1.4434   25.0956 C   0  0  0  0  0  0  0  0  0  0  0  0
   13.8530   -1.8663   25.6797 C   0  0  0  0  0  0  0  0  0  0  0  0
   12.0621   -0.4344   25.5370 C   0  0  0  0  0  0  0  0  0  0  0  0
    7.8065   -3.7101   22.3378 C   0  0  0  0  0  0  0  0  0  0  0  0
   11.7561   -2.7186   24.9496 C   0  0  0  0  0  0  0  0  0  0  0  0
    8.8244   -4.2565   23.1193 C   0  0  0  0  0  0  0  0  0  0  0  0
    7.7394   -2.2786   22.0712 C   0  0  0  0  0  0  0  0  0  0  0  0
   10.9063   -3.8280   24.4842 C   0  0  0  0  0  0  0  0  0  0  0  0
   13.3688   -0.6136   25.8338 N   0  0  0  0  0  0  0  0  0  0  0  0
    6.6911   -1.8186   21.2822 N   0  0  0  0  0  0  0  0  0  0  0  0
    9.8174   -3.4464   23.6770 N   0  0  0  0  0  0  0  0  0  0  0  0
    8.5963   -1.4985   22.5177 O   0  0  0  0  0  0  0  0  0  0  0  0
   11.1378   -4.9870   24.8219 O   0  0  0  0  0  0  0  0  0  0  0  0
    6.0138   -2.4812   20.9203 H   0  0  0  0  0  0  0  0  0  0  0  0
    6.5899   -0.8333   21.0610 H   0  0  0  0  0  0  0  0  0  0  0  0
    9.7435   -2.4444   23.4718 H   0  0  0  0  0  0  0  0  0  0  0  0
  1  2  1  0  0  0  0
  1  3  2  0  0  0  0
  2  4  2  0  0  0  0
  3  9  1  0  0  0  0
  4 11  1  0  0  0  0
  5  7  2  0  0  0  0
  5 10  1  0  0  0  0
  6  8  1  0  0  0  0
  6 10  2  0  0  0  0
  7 14  1  0  0  0  0
  8 14  2  0  0  0  0
  9 11  2  0  0  0  0
  9 12  1  0  0  0  0
 10 13  1  0  0  0  0
 11 16  1  0  0  0  0
 12 15  1  0  0  0  0
 12 17  2  0  0  0  0
 13 16  1  0  0  0  0
 13 18  2  0  0  0  0
 15 19  1  0  0  0  0
 15 20  1  0  0  0  0
 16 21  1  0  0  0  0
M  END
> <ref_mols>
x0472_0

> <original SMILES>
NC(=O)C=1C=CC=CC1NC(=O)C=2C=CN=CC2

> <Chemgauss4>
-9.338719

> <ref_pdb>
x0749_0

$$$$
x1124
  -OEChem-05172015543D

 15 16  0     1  0  0  0  0  0999 V2000
    5.6841    0.4559   18.3172 C   0  0  0  0  0  0  0  0  0  0  0  0
    5.4354    0.6944   19.6509 C   0  0  0  0  0  0  0  0  0  0  0  0
    7.9101    0.2053   18.7770 C   0  0  0  0  0  0  0  0  0  0  0  0
    7.6616    0.4445   20.1106 C   0  0  0  0  0  0  0  0  0  0  0  0
    8.7430    0.4396   21.1039 C   0  0  0  0  0  0  0  0  0  0  0  0
    9.0283   -2.7403   23.9632 C   0  0  0  0  0  0  0  0  0  0  0  0
    8.1140   -2.8332   22.7484 C   0  0  0  0  0  0  0  0  0  0  0  0
   10.1628   -1.7578   23.6933 C   0  0  0  0  0  0  0  0  0  0  0  0
    7.5889   -1.4623   22.3357 C   0  0  0  0  0  0  0  0  0  0  0  0
    9.6575   -0.3777   23.2528 C   0  0  2  0  0  0  0  0  0  0  0  0
    9.0863    0.4336   24.4189 C   0  0  0  0  0  0  0  0  0  0  0  0
    6.9259    0.2071   17.8563 N   0  0  0  0  0  0  0  0  0  0  0  0
    6.4197    0.6930   20.5716 N   0  0  0  0  0  0  0  0  0  0  0  0
    8.6735   -0.4818   22.1583 N   0  0  0  0  0  0  0  0  0  0  0  0
    9.6369    1.2677   20.9334 O   0  0  0  0  0  0  0  0  0  0  0  0
  1  2  2  0  0  0  0
  1 12  1  0  0  0  0
  2 13  1  0  0  0  0
  3  4  1  0  0  0  0
  3 12  2  0  0  0  0
  4  5  1  0  0  0  0
  4 13  2  0  0  0  0
  5 14  1  0  0  0  0
  5 15  2  0  0  0  0
  6  7  1  0  0  0  0
  6  8  1  0  0  0  0
  7  9  1  0  0  0  0
  8 10  1  0  0  0  0
  9 14  1  0  0  0  0
 10 11  1  0  0  0  0
 10 14  1  0  0  0  0
M  END
> <ref_mols>
x1124_0

> <original SMILES>
CC1CCCCN1C(=O)C=2C=NC=CN2

> <Chemgauss4>
-9.332970

> <ref_pdb>
x0107_0

$$$$
x0328
  -OEChem-05172015543D

 15 16  0     1  0  0  0  0  0999 V2000
    5.6841    0.4559   18.3172 C   0  0  0  0  0  0  0  0  0  0  0  0
    5.4354    0.6944   19.6509 C   0  0  0  0  0  0  0  0  0  0  0  0
    7.9101    0.2053   18.7770 C   0  0  0  0  0  0  0  0  0  0  0  0
    7.6616    0.4445   20.1106 C   0  0  0  0  0  0  0  0  0  0  0  0
    8.7430    0.4396   21.1039 C   0  0  0  0  0  0  0  0  0  0  0  0
    9.0283   -2.7403   23.9632 C   0  0  0  0  0  0  0  0  0  0  0  0
    8.1140   -2.8332   22.7484 C   0  0  0  0  0  0  0  0  0  0  0  0
   10.1628   -1.7578   23.6933 C   0  0  0  0  0  0  0  0  0  0  0  0
    7.5889   -1.4623   22.3357 C   0  0  0  0  0  0  0  0  0  0  0  0
    9.6575   -0.3777   23.2528 C   0  0  2  0  0  0  0  0  0  0  0  0
    9.0863    0.4336   24.4189 C   0  0  0  0  0  0  0  0  0  0  0  0
    6.9259    0.2071   17.8563 N   0  0  0  0  0  0  0  0  0  0  0  0
    6.4197    0.6930   20.5716 N   0  0  0  0  0  0  0  0  0  0  0  0
    8.6735   -0.4818   22.1583 N   0  0  0  0  0  0  0  0  0  0  0  0
    9.6369    1.2677   20.9334 O   0  0  0  0  0  0  0  0  0  0  0  0
  1  2  2  0  0  0  0
  1 12  1  0  0  0  0
  2 13  1  0  0  0  0
  3  4  1  0  0  0  0
  3 12  2  0  0  0  0
  4  5  1  0  0  0  0
  4 13  2  0  0  0  0
  5 14  1  0  0  0  0
  5 15  2  0  0  0  0
  6  7  1  0  0  0  0
  6  8  1  0  0  0  0
  7  9  1  0  0  0  0
  8 10  1  0  0  0  0
  9 14  1  0  0  0  0
 10 11  1  0  0  0  0
 10 14  1  0  0  0  0
M  END
> <ref_mols>
x0328_0

> <original SMILES>
CC1CCCCN1C(=O)C=2C=NC=CN2

> <Chemgauss4>
-9.332970

> <ref_pdb>
x0107_0

$$$$
x2674
  -OEChem-05172015543D

 20 22  0     1  0  0  0  0  0999 V2000
   10.9207   -2.3319   22.5105 C   0  0  0  0  0  0  0  0  0  0  0  0
    9.7180   -2.3056   23.2182 C   0  0  0  0  0  0  0  0  0  0  0  0
   11.8259   -1.2845   22.6806 C   0  0  0  0  0  0  0  0  0  0  0  0
   11.5672   -0.2077   23.5469 C   0  0  0  0  0  0  0  0  0  0  0  0
   10.3923   -0.2047   24.2618 C   0  0  0  0  0  0  0  0  0  0  0  0
    9.4866   -1.2451   24.0848 C   0  0  0  0  0  0  0  0  0  0  0  0
   10.4948    4.6584   23.8055 C   0  0  0  0  0  0  0  0  0  0  0  0
   13.1737   -1.1467   22.0429 C   0  0  0  0  0  0  0  0  0  0  0  0
    9.8272    0.7741   25.2133 C   0  0  0  0  0  0  0  0  0  0  0  0
   13.4419    0.3495   22.2467 C   0  0  0  0  0  0  0  0  0  0  0  0
    8.6861   -0.0673   25.7853 C   0  0  0  0  0  0  0  0  0  0  0  0
   12.7227    0.7518   23.5534 C   0  0  1  0  0  0  0  0  0  0  0  0
    9.0991    6.2971   22.4847 C   0  0  0  0  0  0  0  0  0  0  0  0
   10.2134    6.1180   23.4996 C   0  0  0  0  0  0  0  0  0  0  0  0
   12.3619    2.2296   23.5581 C   0  0  0  0  0  0  0  0  0  0  0  0
   11.1673    2.5480   22.6665 C   0  0  0  0  0  0  0  0  0  0  0  0
   10.8466    3.9484   22.6612 N   0  0  0  0  0  0  0  0  0  0  0  0
   10.4181    4.1818   24.9346 O   0  0  0  0  0  0  0  0  0  0  0  0
    8.3493   -1.1117   24.8438 O   0  0  0  0  0  0  0  0  0  0  0  0
   10.8783    4.4482   21.7729 H   0  0  0  0  0  0  0  0  0  0  0  0
  1  2  2  0  0  0  0
  1  3  1  0  0  0  0
  2  6  1  0  0  0  0
  3  4  2  0  0  0  0
  3  8  1  0  0  0  0
  4  5  1  0  0  0  0
  4 12  1  0  0  0  0
  5  6  2  0  0  0  0
  5  9  1  0  0  0  0
  6 19  1  0  0  0  0
  7 14  1  0  0  0  0
  7 17  1  0  0  0  0
  7 18  2  0  0  0  0
  8 10  1  0  0  0  0
  9 11  1  0  0  0  0
 10 12  1  0  0  0  0
 11 19  1  0  0  0  0
 12 15  1  0  0  0  0
 13 14  1  0  0  0  0
 15 16  1  0  0  0  0
 16 17  1  0  0  0  0
 17 20  1  0  0  0  0
M  END
> <ref_mols>
x2674_0

> <original SMILES>
CCC(=O)NCC[C@@H]1CCC=2C=CC=3OCCC3C12

> <Chemgauss4>
-9.332843

> <ref_pdb>
x0104_0

$$$$
x2506
  -OEChem-05172015543D

 20 22  0     1  0  0  0  0  0999 V2000
   10.9207   -2.3319   22.5105 C   0  0  0  0  0  0  0  0  0  0  0  0
    9.7180   -2.3056   23.2182 C   0  0  0  0  0  0  0  0  0  0  0  0
   11.8259   -1.2845   22.6806 C   0  0  0  0  0  0  0  0  0  0  0  0
   11.5672   -0.2077   23.5469 C   0  0  0  0  0  0  0  0  0  0  0  0
   10.3923   -0.2047   24.2618 C   0  0  0  0  0  0  0  0  0  0  0  0
    9.4866   -1.2451   24.0848 C   0  0  0  0  0  0  0  0  0  0  0  0
   10.4948    4.6584   23.8055 C   0  0  0  0  0  0  0  0  0  0  0  0
   13.1737   -1.1467   22.0429 C   0  0  0  0  0  0  0  0  0  0  0  0
    9.8272    0.7741   25.2133 C   0  0  0  0  0  0  0  0  0  0  0  0
   13.4419    0.3495   22.2467 C   0  0  0  0  0  0  0  0  0  0  0  0
    8.6861   -0.0673   25.7853 C   0  0  0  0  0  0  0  0  0  0  0  0
   12.7227    0.7518   23.5534 C   0  0  1  0  0  0  0  0  0  0  0  0
    9.0991    6.2971   22.4847 C   0  0  0  0  0  0  0  0  0  0  0  0
   10.2134    6.1180   23.4996 C   0  0  0  0  0  0  0  0  0  0  0  0
   12.3619    2.2296   23.5581 C   0  0  0  0  0  0  0  0  0  0  0  0
   11.1673    2.5480   22.6665 C   0  0  0  0  0  0  0  0  0  0  0  0
   10.8466    3.9484   22.6612 N   0  0  0  0  0  0  0  0  0  0  0  0
   10.4181    4.1818   24.9346 O   0  0  0  0  0  0  0  0  0  0  0  0
    8.3493   -1.1117   24.8438 O   0  0  0  0  0  0  0  0  0  0  0  0
   10.8783    4.4482   21.7729 H   0  0  0  0  0  0  0  0  0  0  0  0
  1  2  2  0  0  0  0
  1  3  1  0  0  0  0
  2  6  1  0  0  0  0
  3  4  2  0  0  0  0
  3  8  1  0  0  0  0
  4  5  1  0  0  0  0
  4 12  1  0  0  0  0
  5  6  2  0  0  0  0
  5  9  1  0  0  0  0
  6 19  1  0  0  0  0
  7 14  1  0  0  0  0
  7 17  1  0  0  0  0
  7 18  2  0  0  0  0
  8 10  1  0  0  0  0
  9 11  1  0  0  0  0
 10 12  1  0  0  0  0
 11 19  1  0  0  0  0
 12 15  1  0  0  0  0
 13 14  1  0  0  0  0
 15 16  1  0  0  0  0
 16 17  1  0  0  0  0
 17 20  1  0  0  0  0
M  END
> <ref_mols>
x2506_0

> <original SMILES>
CCC(=O)NCC[C@@H]1CCC=2C=CC=3OCCC3C12

> <Chemgauss4>
-9.332843

> <ref_pdb>
x0104_0

$$$$
x2798
  -OEChem-05172015543D

 18 19  0     0  0  0  0  0  0999 V2000
   13.8227   -0.1879   23.4102 C   0  0  0  0  0  0  0  0  0  0  0  0
   13.8259   -0.9434   22.2377 C   0  0  0  0  0  0  0  0  0  0  0  0
   12.7090   -0.2078   24.2498 C   0  0  0  0  0  0  0  0  0  0  0  0
   12.7153   -1.7188   21.9047 C   0  0  0  0  0  0  0  0  0  0  0  0
   11.5984   -0.9832   23.9168 C   0  0  0  0  0  0  0  0  0  0  0  0
    6.7629    0.9175   19.7580 C   0  0  0  0  0  0  0  0  0  0  0  0
    6.5333    0.6195   18.4350 C   0  0  0  0  0  0  0  0  0  0  0  0
    8.6584    0.2744   18.7730 C   0  0  0  0  0  0  0  0  0  0  0  0
   11.6015   -1.7388   22.7442 C   0  0  0  0  0  0  0  0  0  0  0  0
    8.1431    0.6936   19.9775 C   0  0  0  0  0  0  0  0  0  0  0  0
   10.4135   -2.5675   22.3886 C   0  0  0  0  0  0  0  0  0  0  0  0
    9.3768   -1.8206   21.5403 C   0  0  0  0  0  0  0  0  0  0  0  0
    8.8720   -0.6475   22.2019 N   0  0  0  0  0  0  0  0  0  0  0  0
   10.4253    1.1334   21.1642 O   0  0  0  0  0  0  0  0  0  0  0  0
    8.2985    1.8910   22.2721 O   0  0  0  0  0  0  0  0  0  0  0  0
    7.6835    0.2265   17.8275 O   0  0  0  0  0  0  0  0  0  0  0  0
    9.0297    0.9116   21.4912 S   0  0  0  0  0  0  0  0  0  0  0  0
    8.0882   -0.7738   22.8761 H   0  0  0  0  0  0  0  0  0  0  0  0
  1  2  1  0  0  0  0
  1  3  2  0  0  0  0
  2  4  2  0  0  0  0
  3  5  1  0  0  0  0
  4  9  1  0  0  0  0
  5  9  2  0  0  0  0
  6  7  2  0  0  0  0
  6 10  1  0  0  0  0
  7 16  1  0  0  0  0
  8 10  2  0  0  0  0
  8 16  1  0  0  0  0
  9 11  1  0  0  0  0
 10 17  1  0  0  0  0
 11 12  1  0  0  0  0
 12 13  1  0  0  0  0
 13 17  1  0  0  0  0
 14 17  2  0  0  0  0
 15 17  2  0  0  0  0
 13 18  1  0  0  0  0
M  END
> <ref_mols>
x2798_0

> <original SMILES>
O=S(=O)(NCCC=1C=CC=CC1)C=2C=COC2

> <Chemgauss4>
-9.325847

> <ref_pdb>
x0678_0

$$$$
x0192
  -OEChem-05172015543D

 18 20  0     0  0  0  0  0  0999 V2000
   13.5654   -0.6784   24.8478 C   0  0  0  0  0  0  0  0  0  0  0  0
   12.6147   -0.5514   23.8323 C   0  0  0  0  0  0  0  0  0  0  0  0
    7.8059   -3.2427   22.5132 C   0  0  0  0  0  0  0  0  0  0  0  0
    8.1774   -5.5967   22.9109 C   0  0  0  0  0  0  0  0  0  0  0  0
   13.5311   -1.7600   25.7370 C   0  0  0  0  0  0  0  0  0  0  0  0
   11.5976   -1.4975   23.6679 C   0  0  0  0  0  0  0  0  0  0  0  0
    8.9107   -2.9343   23.3068 C   0  0  0  0  0  0  0  0  0  0  0  0
    9.2823   -5.2882   23.7045 C   0  0  0  0  0  0  0  0  0  0  0  0
   11.1984   -4.3917   25.7539 C   0  0  0  0  0  0  0  0  0  0  0  0
    7.4392   -4.5740   22.3152 C   0  0  0  0  0  0  0  0  0  0  0  0
   12.5160   -2.7198   25.5865 C   0  0  0  0  0  0  0  0  0  0  0  0
   11.5830   -2.5660   24.5649 C   0  0  0  0  0  0  0  0  0  0  0  0
    9.6489   -3.9570   23.9025 C   0  0  0  0  0  0  0  0  0  0  0  0
    6.2580   -4.9038   21.4667 C   0  0  0  0  0  0  0  0  0  0  0  0
   12.2612   -3.8594   26.3143 N   0  0  0  0  0  0  0  0  0  0  0  0
   10.7526   -3.6495   24.6958 N   0  0  0  0  0  0  0  0  0  0  0  0
    5.0648   -4.6168   22.1857 O   0  0  0  0  0  0  0  0  0  0  0  0
    4.3248   -4.8445   21.6005 H   0  0  0  0  0  0  0  0  0  0  0  0
  1  2  1  0  0  0  0
  1  5  2  0  0  0  0
  2  6  2  0  0  0  0
  3  7  2  0  0  0  0
  3 10  1  0  0  0  0
  4  8  1  0  0  0  0
  4 10  2  0  0  0  0
  5 11  1  0  0  0  0
  6 12  1  0  0  0  0
  7 13  1  0  0  0  0
  8 13  2  0  0  0  0
  9 15  2  0  0  0  0
  9 16  1  0  0  0  0
 10 14  1  0  0  0  0
 11 12  2  0  0  0  0
 11 15  1  0  0  0  0
 12 16  1  0  0  0  0
 13 16  1  0  0  0  0
 14 17  1  0  0  0  0
 17 18  1  0  0  0  0
M  END
> <ref_mols>
x0192_0

> <original SMILES>
OCC=1C=CC(=CC1)N2C=NC=3C=CC=CC23

> <Chemgauss4>
-9.325671

> <ref_pdb>
x0749_0

$$$$
x1258
  -OEChem-05172015543D

 16 17  0     0  0  0  0  0  0999 V2000
    6.4701   -5.4578   21.2986 C   0  0  0  0  0  0  0  0  0  0  0  0
   12.0630    0.1775   24.5325 C   0  0  0  0  0  0  0  0  0  0  0  0
   11.1246   -0.7107   24.0072 C   0  0  0  0  0  0  0  0  0  0  0  0
   13.1298   -0.3034   25.2917 C   0  0  0  0  0  0  0  0  0  0  0  0
   12.3195   -2.5608   25.0005 C   0  0  0  0  0  0  0  0  0  0  0  0
   11.2528   -2.0798   24.2412 C   0  0  0  0  0  0  0  0  0  0  0  0
   13.2580   -1.6725   25.5258 C   0  0  0  0  0  0  0  0  0  0  0  0
    9.6262   -2.6464   22.4591 C   0  0  0  0  0  0  0  0  0  0  0  0
    9.5542   -3.8091   24.6525 C   0  0  0  0  0  0  0  0  0  0  0  0
    9.0570   -3.9130   21.8150 C   0  0  0  0  0  0  0  0  0  0  0  0
    8.9885   -5.0384   23.9375 C   0  0  0  0  0  0  0  0  0  0  0  0
    7.6252   -5.8261   22.1151 C   0  0  0  0  0  0  0  0  0  0  0  0
    5.5530   -5.1687   20.6491 N   0  0  0  0  0  0  0  0  0  0  0  0
   10.3108   -2.9705   23.7143 N   0  0  0  0  0  0  0  0  0  0  0  0
    8.2057   -4.6480   22.7584 N   0  0  0  0  0  0  0  0  0  0  0  0
   14.5739   -2.2648   26.4635 Cl  0  0  0  0  0  0  0  0  0  0  0  0
  1 12  1  0  0  0  0
  1 13  3  0  0  0  0
  2  3  1  0  0  0  0
  2  4  2  0  0  0  0
  3  6  2  0  0  0  0
  4  7  1  0  0  0  0
  5  6  1  0  0  0  0
  5  7  2  0  0  0  0
  6 14  1  0  0  0  0
  7 16  1  0  0  0  0
  8 10  1  0  0  0  0
  8 14  1  0  0  0  0
  9 11  1  0  0  0  0
  9 14  1  0  0  0  0
 10 15  1  0  0  0  0
 11 15  1  0  0  0  0
 12 15  1  0  0  0  0
M  END
> <ref_mols>
x1258_0

> <original SMILES>
ClC=1C=CC=C(C1)N2CCN(CC#N)CC2

> <Chemgauss4>
-9.320927

> <ref_pdb>
x0749_0

$$$$
x0571
  -OEChem-05172015543D

 16 17  0     0  0  0  0  0  0999 V2000
    6.4701   -5.4578   21.2986 C   0  0  0  0  0  0  0  0  0  0  0  0
   12.0630    0.1775   24.5325 C   0  0  0  0  0  0  0  0  0  0  0  0
   11.1246   -0.7107   24.0072 C   0  0  0  0  0  0  0  0  0  0  0  0
   13.1298   -0.3034   25.2917 C   0  0  0  0  0  0  0  0  0  0  0  0
   12.3195   -2.5608   25.0005 C   0  0  0  0  0  0  0  0  0  0  0  0
   11.2528   -2.0798   24.2412 C   0  0  0  0  0  0  0  0  0  0  0  0
   13.2580   -1.6725   25.5258 C   0  0  0  0  0  0  0  0  0  0  0  0
    9.6262   -2.6464   22.4591 C   0  0  0  0  0  0  0  0  0  0  0  0
    9.5542   -3.8091   24.6525 C   0  0  0  0  0  0  0  0  0  0  0  0
    9.0570   -3.9130   21.8150 C   0  0  0  0  0  0  0  0  0  0  0  0
    8.9885   -5.0384   23.9375 C   0  0  0  0  0  0  0  0  0  0  0  0
    7.6252   -5.8261   22.1151 C   0  0  0  0  0  0  0  0  0  0  0  0
    5.5530   -5.1687   20.6491 N   0  0  0  0  0  0  0  0  0  0  0  0
   10.3108   -2.9705   23.7143 N   0  0  0  0  0  0  0  0  0  0  0  0
    8.2057   -4.6480   22.7584 N   0  0  0  0  0  0  0  0  0  0  0  0
   14.5739   -2.2648   26.4635 Cl  0  0  0  0  0  0  0  0  0  0  0  0
  1 12  1  0  0  0  0
  1 13  3  0  0  0  0
  2  3  1  0  0  0  0
  2  4  2  0  0  0  0
  3  6  2  0  0  0  0
  4  7  1  0  0  0  0
  5  6  1  0  0  0  0
  5  7  2  0  0  0  0
  6 14  1  0  0  0  0
  7 16  1  0  0  0  0
  8 10  1  0  0  0  0
  8 14  1  0  0  0  0
  9 11  1  0  0  0  0
  9 14  1  0  0  0  0
 10 15  1  0  0  0  0
 11 15  1  0  0  0  0
 12 15  1  0  0  0  0
M  END
> <ref_mols>
x0571_0

> <original SMILES>
ClC=1C=CC=C(C1)N2CCN(CC#N)CC2

> <Chemgauss4>
-9.320927

> <ref_pdb>
x0749_0

> <CYS145-warhead dist minimum (A)>
6.9008436

> <CYS145-warhead dist mean (A)>
7.4759107

> <CYS145-warhead dist stddev (A)>
0.26247662

$$$$
x2628
  -OEChem-05172015543D

 20 21  0     0  0  0  0  0  0999 V2000
    9.9267   -2.9196   23.2648 C   0  0  0  0  0  0  0  0  0  0  0  0
   10.3573   -4.6186   24.9277 C   0  0  0  0  0  0  0  0  0  0  0  0
   11.0990   -2.2605   23.6347 C   0  0  0  0  0  0  0  0  0  0  0  0
   11.5296   -3.9595   25.2975 C   0  0  0  0  0  0  0  0  0  0  0  0
    9.5558   -4.0987   23.9113 C   0  0  0  0  0  0  0  0  0  0  0  0
   11.9005   -2.7804   24.6510 C   0  0  0  0  0  0  0  0  0  0  0  0
    7.0623   -5.8186   21.7440 C   0  0  0  0  0  0  0  0  0  0  0  0
    6.4388   -6.1530   24.1459 C   0  0  0  0  0  0  0  0  0  0  0  0
    7.9428   -4.6328   22.1429 C   0  0  0  0  0  0  0  0  0  0  0  0
    7.3226   -4.9666   24.5374 C   0  0  0  0  0  0  0  0  0  0  0  0
    5.9079   -6.0286   22.7200 C   0  0  0  0  0  0  0  0  0  0  0  0
    3.7276   -5.2526   23.1385 C   0  0  0  0  0  0  0  0  0  0  0  0
    8.3791   -4.7608   23.5404 N   0  0  0  0  0  0  0  0  0  0  0  0
   14.5001   -2.6923   24.0690 N   0  0  0  0  0  0  0  0  0  0  0  0
   13.2390   -0.5508   24.7541 O   0  0  0  0  0  0  0  0  0  0  0  0
   13.6909   -2.3232   26.4868 O   0  0  0  0  0  0  0  0  0  0  0  0
    5.0115   -4.9255   22.6256 O   0  0  0  0  0  0  0  0  0  0  0  0
   13.3677   -1.9557   25.1152 S   0  0  0  0  0  0  0  0  0  0  0  0
   14.8749   -2.1324   23.2933 H   0  0  0  0  0  0  0  0  0  0  0  0
   15.1812   -3.3438   24.4776 H   0  0  0  0  0  0  0  0  0  0  0  0
  1  3  2  0  0  0  0
  1  5  1  0  0  0  0
  2  4  1  0  0  0  0
  2  5  2  0  0  0  0
  3  6  1  0  0  0  0
  4  6  2  0  0  0  0
  5 13  1  0  0  0  0
  6 18  1  0  0  0  0
  7  9  1  0  0  0  0
  7 11  1  0  0  0  0
  8 10  1  0  0  0  0
  8 11  1  0  0  0  0
  9 13  1  0  0  0  0
 10 13  1  0  0  0  0
 11 17  1  0  0  0  0
 12 17  1  0  0  0  0
 14 18  1  0  0  0  0
 15 18  2  0  0  0  0
 16 18  2  0  0  0  0
 14 19  1  0  0  0  0
 14 20  1  0  0  0  0
M  END
> <ref_mols>
x2628_0

> <original SMILES>
COC1CCN(CC1)C=2C=CC(=CC2)S(=O)(=O)N

> <Chemgauss4>
-9.316606

> <ref_pdb>
x0749_0

$$$$
x0501
  -OEChem-05172015543D

 19 20  0     0  0  0  0  0  0999 V2000
   14.3941   -2.0897   22.9502 C   0  0  0  0  0  0  0  0  0  0  0  0
   14.2940   -1.5618   24.2374 C   0  0  0  0  0  0  0  0  0  0  0  0
   13.5018   -1.6830   21.9581 C   0  0  0  0  0  0  0  0  0  0  0  0
   13.3015   -0.6273   24.5326 C   0  0  0  0  0  0  0  0  0  0  0  0
   12.5093   -0.7485   22.2534 C   0  0  0  0  0  0  0  0  0  0  0  0
   12.4091   -0.2206   23.5406 C   0  0  0  0  0  0  0  0  0  0  0  0
    6.6601    0.3668   18.7150 C   0  0  0  0  0  0  0  0  0  0  0  0
    7.6790    1.3435   20.7470 C   0  0  0  0  0  0  0  0  0  0  0  0
    8.8790   -0.4883   19.6167 C   0  0  0  0  0  0  0  0  0  0  0  0
    7.8425    0.6489   22.0910 C   0  0  0  0  0  0  0  0  0  0  0  0
    9.0624   -1.2101   20.9449 C   0  0  0  0  0  0  0  0  0  0  0  0
    5.3052    0.8142   19.2025 C   0  0  0  0  0  0  0  0  0  0  0  0
   11.3358    0.7894   23.8591 C   0  0  0  0  0  0  0  0  0  0  0  0
   10.0219    0.1661   24.3488 C   0  0  0  0  0  0  0  0  0  0  0  0
    9.3746   -0.8317   23.3933 C   0  0  0  0  0  0  0  0  0  0  0  0
    7.6943    0.3759   19.6498 N   0  0  0  0  0  0  0  0  0  0  0  0
    9.0998   -0.1911   22.0619 N   0  3  0  0  0  0  0  0  0  0  0  0
    6.7938    0.0225   17.5378 O   0  0  0  0  0  0  0  0  0  0  0  0
    9.8891    0.4422   21.8733 H   0  0  0  0  0  0  0  0  0  0  0  0
  1  2  1  0  0  0  0
  1  3  2  0  0  0  0
  2  4  2  0  0  0  0
  3  5  1  0  0  0  0
  4  6  1  0  0  0  0
  5  6  2  0  0  0  0
  6 13  1  0  0  0  0
  7 12  1  0  0  0  0
  7 16  1  0  0  0  0
  7 18  2  0  0  0  0
  8 10  1  0  0  0  0
  8 16  1  0  0  0  0
  9 11  1  0  0  0  0
  9 16  1  0  0  0  0
 10 17  1  0  0  0  0
 11 17  1  0  0  0  0
 13 14  1  0  0  0  0
 14 15  1  0  0  0  0
 15 17  1  0  0  0  0
 17 19  1  0  0  0  0
M  CHG  1  17   1
M  END
> <ref_mols>
x0501_0

> <original SMILES>
CC(=O)N1CCN(CCCC=2C=CC=CC2)CC1

> <Chemgauss4>
-9.310516

> <ref_pdb>
x0678_0

$$$$
x0549
  -OEChem-05172015543D

 18 19  0     0  0  0  0  0  0999 V2000
    5.7252    0.9120   18.3184 C   0  0  0  0  0  0  0  0  0  0  0  0
    4.8243    0.8270   19.3799 C   0  0  0  0  0  0  0  0  0  0  0  0
    7.0470    0.5011   18.4909 C   0  0  0  0  0  0  0  0  0  0  0  0
   12.2871    0.7584   23.6439 C   0  0  0  0  0  0  0  0  0  0  0  0
   10.9787    0.3418   23.3988 C   0  0  0  0  0  0  0  0  0  0  0  0
    5.2452    0.3313   20.6139 C   0  0  0  0  0  0  0  0  0  0  0  0
    7.4679    0.0053   19.7248 C   0  0  0  0  0  0  0  0  0  0  0  0
   13.3573   -0.0728   23.3131 C   0  0  0  0  0  0  0  0  0  0  0  0
   11.8106   -1.7374   22.4921 C   0  0  0  0  0  0  0  0  0  0  0  0
   10.7404   -0.9061   22.8229 C   0  0  0  0  0  0  0  0  0  0  0  0
    6.5670   -0.0796   20.7864 C   0  0  0  0  0  0  0  0  0  0  0  0
   13.1191   -1.3207   22.7373 C   0  0  0  0  0  0  0  0  0  0  0  0
    9.3765   -1.3413   22.5672 C   0  0  0  0  0  0  0  0  0  0  0  0
    7.0208   -0.6131   22.1144 C   0  0  0  0  0  0  0  0  0  0  0  0
    8.4195   -0.3417   22.3570 N   0  0  0  0  0  0  0  0  0  0  0  0
    9.0908   -2.5518   22.5608 O   0  0  0  0  0  0  0  0  0  0  0  0
   14.1466   -2.1190   22.4195 F   0  0  0  0  0  0  0  0  0  0  0  0
    8.6938    0.6321   22.4355 H   0  0  0  0  0  0  0  0  0  0  0  0
  1  2  1  0  0  0  0
  1  3  2  0  0  0  0
  2  6  2  0  0  0  0
  3  7  1  0  0  0  0
  4  5  1  0  0  0  0
  4  8  2  0  0  0  0
  5 10  2  0  0  0  0
  6 11  1  0  0  0  0
  7 11  2  0  0  0  0
  8 12  1  0  0  0  0
  9 10  1  0  0  0  0
  9 12  2  0  0  0  0
 10 13  1  0  0  0  0
 11 14  1  0  0  0  0
 12 17  1  0  0  0  0
 13 15  1  0  0  0  0
 13 16  2  0  0  0  0
 14 15  1  0  0  0  0
 15 18  1  0  0  0  0
M  END
> <ref_mols>
x0549_0

> <original SMILES>
FC=1C=CC=C(C1)C(=O)NCC=2C=CC=CC2

> <Chemgauss4>
-9.303605

> <ref_pdb>
x1093_0

$$$$
x0570
  -OEChem-05172015543D

 17 18  0     0  0  0  0  0  0999 V2000
   11.6167   -1.1850   24.1732 C   0  0  0  0  0  0  0  0  0  0  0  0
   12.0467   -3.3148   25.2298 C   0  0  0  0  0  0  0  0  0  0  0  0
   12.7028   -0.6300   24.8500 C   0  0  0  0  0  0  0  0  0  0  0  0
   13.1328   -2.7598   25.9065 C   0  0  0  0  0  0  0  0  0  0  0  0
   11.2886   -2.5274   24.3632 C   0  0  0  0  0  0  0  0  0  0  0  0
   13.4609   -1.4173   25.7166 C   0  0  0  0  0  0  0  0  0  0  0  0
    6.7616   -4.7575   21.7651 C   0  0  0  0  0  0  0  0  0  0  0  0
    9.8004   -2.5829   22.3697 C   0  0  0  0  0  0  0  0  0  0  0  0
    9.4570   -4.2038   24.2640 C   0  0  0  0  0  0  0  0  0  0  0  0
    8.3077   -2.8116   22.1366 C   0  0  0  0  0  0  0  0  0  0  0  0
    8.7855   -5.0269   23.1670 C   0  0  0  0  0  0  0  0  0  0  0  0
    5.4514   -6.7284   21.5336 C   0  0  0  0  0  0  0  0  0  0  0  0
   10.2040   -3.0817   23.6874 N   0  0  0  0  0  0  0  0  0  0  0  0
    7.9166   -4.2083   22.3280 N   0  0  0  0  0  0  0  0  0  0  0  0
    5.9687   -4.1331   21.0628 O   0  0  0  0  0  0  0  0  0  0  0  0
    6.6086   -6.0829   22.0770 O   0  0  0  0  0  0  0  0  0  0  0  0
   14.5038   -0.8844   26.3665 F   0  0  0  0  0  0  0  0  0  0  0  0
  1  3  2  0  0  0  0
  1  5  1  0  0  0  0
  2  4  1  0  0  0  0
  2  5  2  0  0  0  0
  3  6  1  0  0  0  0
  4  6  2  0  0  0  0
  5 13  1  0  0  0  0
  6 17  1  0  0  0  0
  7 14  1  0  0  0  0
  7 15  2  0  0  0  0
  7 16  1  0  0  0  0
  8 10  1  0  0  0  0
  8 13  1  0  0  0  0
  9 11  1  0  0  0  0
  9 13  1  0  0  0  0
 10 14  1  0  0  0  0
 11 14  1  0  0  0  0
 12 16  1  0  0  0  0
M  END
> <ref_mols>
x0570_0

> <original SMILES>
COC(=O)N1CCN(CC1)C=2C=CC(F)=CC2

> <Chemgauss4>
-9.301781

> <ref_pdb>
x0749_0

$$$$
x0593
  -OEChem-05172015543D

 18 19  0     0  0  0  0  0  0999 V2000
   12.5728    0.5845   24.3365 C   0  0  0  0  0  0  0  0  0  0  0  0
   13.3348    0.0840   23.2782 C   0  0  0  0  0  0  0  0  0  0  0  0
   11.1840    0.4074   24.3725 C   0  0  0  0  0  0  0  0  0  0  0  0
   12.7394   -0.6101   22.2198 C   0  0  0  0  0  0  0  0  0  0  0  0
   10.5691   -0.2874   23.3172 C   0  0  0  0  0  0  0  0  0  0  0  0
   11.3550   -0.7745   22.2766 C   0  0  0  0  0  0  0  0  0  0  0  0
    9.2157   -1.2519   21.9766 C   0  0  0  0  0  0  0  0  0  0  0  0
    6.4492   -3.7425   21.4623 C   0  0  0  0  0  0  0  0  0  0  0  0
    7.7339   -6.4113   20.9879 C   0  0  0  0  0  0  0  0  0  0  0  0
    8.0034   -1.8179   21.2952 C   0  0  0  0  0  0  0  0  0  0  0  0
    6.1655   -4.9615   22.3216 C   0  0  0  0  0  0  0  0  0  0  0  0
    7.3476   -5.9248   22.3751 C   0  0  0  0  0  0  0  0  0  0  0  0
    9.2431   -0.5937   23.1136 N   0  0  0  0  0  0  0  0  0  0  0  0
   10.4632   -1.3867   21.4337 N   0  0  0  0  0  0  0  0  0  0  0  0
    7.5329   -3.0205   21.9406 N   0  0  0  0  0  0  0  0  0  0  0  0
    5.7900   -3.4493   20.4684 O   0  0  0  0  0  0  0  0  0  0  0  0
   10.6910   -1.8546   20.5663 H   0  0  0  0  0  0  0  0  0  0  0  0
    8.0119   -3.3493   22.7739 H   0  0  0  0  0  0  0  0  0  0  0  0
  1  2  1  0  0  0  0
  1  3  2  0  0  0  0
  2  4  2  0  0  0  0
  3  5  1  0  0  0  0
  4  6  1  0  0  0  0
  5  6  2  0  0  0  0
  5 13  1  0  0  0  0
  6 14  1  0  0  0  0
  7 10  1  0  0  0  0
  7 13  2  0  0  0  0
  7 14  1  0  0  0  0
  8 11  1  0  0  0  0
  8 15  1  0  0  0  0
  8 16  2  0  0  0  0
  9 12  1  0  0  0  0
 10 15  1  0  0  0  0
 11 12  1  0  0  0  0
 14 17  1  0  0  0  0
 15 18  1  0  0  0  0
M  END
> <ref_mols>
x0593_0

> <original SMILES>
CCCC(=O)NCC1=NC=2C=CC=CC2N1

> <Chemgauss4>
-9.299239

> <ref_pdb>
x0708_0

$$$$
x0559
  -OEChem-05172015543D

 20 21  0     0  0  0  0  0  0999 V2000
   13.1609   -0.0830   23.4578 C   0  0  0  0  0  0  0  0  0  0  0  0
   12.8923   -0.8450   22.3208 C   0  0  0  0  0  0  0  0  0  0  0  0
   12.1824    0.0738   24.4395 C   0  0  0  0  0  0  0  0  0  0  0  0
   11.6452   -1.4501   22.1654 C   0  0  0  0  0  0  0  0  0  0  0  0
   10.9353   -0.5313   24.2840 C   0  0  0  0  0  0  0  0  0  0  0  0
   10.6667   -1.2932   23.1470 C   0  0  0  0  0  0  0  0  0  0  0  0
    8.0061   -0.2947   18.6720 C   0  0  0  0  0  0  0  0  0  0  0  0
    7.8295   -0.2786   19.9997 C   0  0  0  0  0  0  0  0  0  0  0  0
    6.5378    0.2664   20.5216 C   0  0  0  0  0  0  0  0  0  0  0  0
    5.8460    0.6788   18.1715 C   0  0  0  0  0  0  0  0  0  0  0  0
    9.3172   -1.9473   22.9794 C   0  0  0  0  0  0  0  0  0  0  0  0
    8.3097   -1.0572   22.2559 C   0  0  0  0  0  0  0  0  0  0  0  0
    7.0698    0.1586   17.7844 N   0  0  0  0  0  0  0  0  0  0  0  0
    5.6442    0.7039   19.5522 N   0  0  0  0  0  0  0  0  0  0  0  0
    8.7301   -0.7179   20.9231 N   0  0  0  0  0  0  0  0  0  0  0  0
    6.3026    0.3158   21.7268 O   0  0  0  0  0  0  0  0  0  0  0  0
    5.0062    1.0859   17.3683 O   0  0  0  0  0  0  0  0  0  0  0  0
    7.2824    0.1115   16.7923 H   0  0  0  0  0  0  0  0  0  0  0  0
    4.7583    1.0784   19.8800 H   0  0  0  0  0  0  0  0  0  0  0  0
    9.6761   -0.7903   20.6304 H   0  0  0  0  0  0  0  0  0  0  0  0
  1  2  1  0  0  0  0
  1  3  2  0  0  0  0
  2  4  2  0  0  0  0
  3  5  1  0  0  0  0
  4  6  1  0  0  0  0
  5  6  2  0  0  0  0
  6 11  1  0  0  0  0
  7  8  2  0  0  0  0
  7 13  1  0  0  0  0
  8  9  1  0  0  0  0
  8 15  1  0  0  0  0
  9 14  1  0  0  0  0
  9 16  2  0  0  0  0
 10 13  1  0  0  0  0
 10 14  1  0  0  0  0
 10 17  2  0  0  0  0
 11 12  1  0  0  0  0
 12 15  1  0  0  0  0
 13 18  1  0  0  0  0
 14 19  1  0  0  0  0
 15 20  1  0  0  0  0
M  END
> <ref_mols>
x0559_0

> <original SMILES>
OC=1N=CC(NCCC=2C=CC=CC2)=C(O)N1

> <Chemgauss4>
-9.298587

> <ref_pdb>
x1093_0

$$$$
x0469
  -OEChem-05172015543D

 17 18  0     0  0  0  0  0  0999 V2000
    9.5795   -5.0971   24.4088 C   0  0  0  0  0  0  0  0  0  0  0  0
    9.8887   -3.0197   23.2146 C   0  0  0  0  0  0  0  0  0  0  0  0
    8.4460   -5.3688   23.6427 C   0  0  0  0  0  0  0  0  0  0  0  0
    8.7552   -3.2915   22.4485 C   0  0  0  0  0  0  0  0  0  0  0  0
   13.8282   -2.5062   26.3507 C   0  0  0  0  0  0  0  0  0  0  0  0
   12.9983   -0.5115   26.1469 C   0  0  0  0  0  0  0  0  0  0  0  0
   10.3008   -3.9225   24.1948 C   0  0  0  0  0  0  0  0  0  0  0  0
    8.0338   -4.4660   22.6625 C   0  0  0  0  0  0  0  0  0  0  0  0
    6.5107   -6.1100   21.5959 C   0  0  0  0  0  0  0  0  0  0  0  0
    6.0674   -3.6593   21.3808 C   0  0  0  0  0  0  0  0  0  0  0  0
   11.5126   -3.6310   25.0137 C   0  0  0  0  0  0  0  0  0  0  0  0
   14.7963   -1.6498   26.5872 N   0  0  0  0  0  0  0  0  0  0  0  0
   14.2683   -0.3808   26.4576 N   0  0  0  0  0  0  0  0  0  0  0  0
   12.6783   -1.8330   26.0691 N   0  0  0  0  0  0  0  0  0  0  0  0
   11.3904   -2.4010   25.7543 N   0  0  0  0  0  0  0  0  0  0  0  0
    6.8889   -4.7413   21.8864 N   0  0  0  0  0  0  0  0  0  0  0  0
   10.8306   -2.5473   26.6016 H   0  0  0  0  0  0  0  0  0  0  0  0
  1  3  2  0  0  0  0
  1  7  1  0  0  0  0
  2  4  1  0  0  0  0
  2  7  2  0  0  0  0
  3  8  1  0  0  0  0
  4  8  2  0  0  0  0
  5 12  2  0  0  0  0
  5 14  1  0  0  0  0
  6 13  2  0  0  0  0
  6 14  1  0  0  0  0
  7 11  1  0  0  0  0
  8 16  1  0  0  0  0
  9 16  1  0  0  0  0
 10 16  1  0  0  0  0
 11 15  1  0  0  0  0
 12 13  1  0  0  0  0
 14 15  1  0  0  0  0
 15 17  1  0  0  0  0
M  END
> <ref_mols>
x0469_0

> <original SMILES>
CN(C)C=1C=CC(CNN2C=NN=C2)=CC1

> <Chemgauss4>
-9.297789

> <ref_pdb>
x0749_0

$$$$
x1116
  -OEChem-05172015543D

 17 18  0     0  0  0  0  0  0999 V2000
    9.5795   -5.0971   24.4088 C   0  0  0  0  0  0  0  0  0  0  0  0
    9.8887   -3.0197   23.2146 C   0  0  0  0  0  0  0  0  0  0  0  0
    8.4460   -5.3688   23.6427 C   0  0  0  0  0  0  0  0  0  0  0  0
    8.7552   -3.2915   22.4485 C   0  0  0  0  0  0  0  0  0  0  0  0
   13.8282   -2.5062   26.3507 C   0  0  0  0  0  0  0  0  0  0  0  0
   12.9983   -0.5115   26.1469 C   0  0  0  0  0  0  0  0  0  0  0  0
   10.3008   -3.9225   24.1948 C   0  0  0  0  0  0  0  0  0  0  0  0
    8.0338   -4.4660   22.6625 C   0  0  0  0  0  0  0  0  0  0  0  0
    6.5107   -6.1100   21.5959 C   0  0  0  0  0  0  0  0  0  0  0  0
    6.0674   -3.6593   21.3808 C   0  0  0  0  0  0  0  0  0  0  0  0
   11.5126   -3.6310   25.0137 C   0  0  0  0  0  0  0  0  0  0  0  0
   14.7963   -1.6498   26.5872 N   0  0  0  0  0  0  0  0  0  0  0  0
   14.2683   -0.3808   26.4576 N   0  0  0  0  0  0  0  0  0  0  0  0
   12.6783   -1.8330   26.0691 N   0  0  0  0  0  0  0  0  0  0  0  0
   11.3904   -2.4010   25.7543 N   0  0  0  0  0  0  0  0  0  0  0  0
    6.8889   -4.7413   21.8864 N   0  0  0  0  0  0  0  0  0  0  0  0
   10.8306   -2.5473   26.6016 H   0  0  0  0  0  0  0  0  0  0  0  0
  1  3  2  0  0  0  0
  1  7  1  0  0  0  0
  2  4  1  0  0  0  0
  2  7  2  0  0  0  0
  3  8  1  0  0  0  0
  4  8  2  0  0  0  0
  5 12  2  0  0  0  0
  5 14  1  0  0  0  0
  6 13  2  0  0  0  0
  6 14  1  0  0  0  0
  7 11  1  0  0  0  0
  8 16  1  0  0  0  0
  9 16  1  0  0  0  0
 10 16  1  0  0  0  0
 11 15  1  0  0  0  0
 12 13  1  0  0  0  0
 14 15  1  0  0  0  0
 15 17  1  0  0  0  0
M  END
> <ref_mols>
x1116_0

> <original SMILES>
CN(C)C=1C=CC(CNN2C=NN=C2)=CC1

> <Chemgauss4>
-9.297789

> <ref_pdb>
x0749_0

$$$$
x0535
  -OEChem-05172015543D

 16 17  0     0  0  0  0  0  0999 V2000
   12.6681    2.0067   22.8260 C   0  0  0  0  0  0  0  0  0  0  0  0
   12.6475    3.2053   22.7497 C   0  0  0  0  0  0  0  0  0  0  0  0
   12.7341   -2.2045   23.0948 C   0  0  0  0  0  0  0  0  0  0  0  0
   11.5156   -1.5260   23.0732 C   0  0  0  0  0  0  0  0  0  0  0  0
   13.9309   -1.4911   23.0275 C   0  0  0  0  0  0  0  0  0  0  0  0
   11.4938   -0.1341   22.9842 C   0  0  0  0  0  0  0  0  0  0  0  0
   13.9091   -0.0992   22.9385 C   0  0  0  0  0  0  0  0  0  0  0  0
   12.6906    0.5793   22.9169 C   0  0  0  0  0  0  0  0  0  0  0  0
   10.4140    6.1227   25.3257 C   0  0  0  0  0  0  0  0  0  0  0  0
   10.5333    4.6311   25.0320 C   0  0  0  0  0  0  0  0  0  0  0  0
   11.3150    6.9474   24.4126 C   0  0  0  0  0  0  0  0  0  0  0  0
   10.2929    4.3247   23.5606 C   0  0  0  0  0  0  0  0  0  0  0  0
   11.0713    6.6307   22.9438 C   0  0  0  0  0  0  0  0  0  0  0  0
   12.6254    4.6625   22.6567 C   0  0  0  0  0  0  0  0  0  0  0  0
   11.2018    5.1498   22.6820 N   0  3  0  0  0  0  0  0  0  0  0  0
   10.8447    5.0057   21.6924 H   0  0  0  0  0  0  0  0  0  0  0  0
  1  2  3  0  0  0  0
  1  8  1  0  0  0  0
  2 14  1  0  0  0  0
  3  4  1  0  0  0  0
  3  5  2  0  0  0  0
  4  6  2  0  0  0  0
  5  7  1  0  0  0  0
  6  8  1  0  0  0  0
  7  8  2  0  0  0  0
  9 10  1  0  0  0  0
  9 11  1  0  0  0  0
 10 12  1  0  0  0  0
 11 13  1  0  0  0  0
 12 15  1  0  0  0  0
 13 15  1  0  0  0  0
 14 15  1  0  0  0  0
 15 16  1  0  0  0  0
M  CHG  1  15   1
M  END
> <ref_mols>
x0535_0

> <original SMILES>
C(C#CC=1C=CC=CC1)N2CCCCC2

> <Chemgauss4>
-9.289313

> <ref_pdb>
x0195_0

$$$$
x1279
  -OEChem-05172015543D

 16 17  0     0  0  0  0  0  0999 V2000
   12.6681    2.0067   22.8260 C   0  0  0  0  0  0  0  0  0  0  0  0
   12.6475    3.2053   22.7497 C   0  0  0  0  0  0  0  0  0  0  0  0
   12.7341   -2.2045   23.0948 C   0  0  0  0  0  0  0  0  0  0  0  0
   11.5156   -1.5260   23.0732 C   0  0  0  0  0  0  0  0  0  0  0  0
   13.9309   -1.4911   23.0275 C   0  0  0  0  0  0  0  0  0  0  0  0
   11.4938   -0.1341   22.9842 C   0  0  0  0  0  0  0  0  0  0  0  0
   13.9091   -0.0992   22.9385 C   0  0  0  0  0  0  0  0  0  0  0  0
   12.6906    0.5793   22.9169 C   0  0  0  0  0  0  0  0  0  0  0  0
   10.4140    6.1227   25.3257 C   0  0  0  0  0  0  0  0  0  0  0  0
   10.5333    4.6311   25.0320 C   0  0  0  0  0  0  0  0  0  0  0  0
   11.3150    6.9474   24.4126 C   0  0  0  0  0  0  0  0  0  0  0  0
   10.2929    4.3247   23.5606 C   0  0  0  0  0  0  0  0  0  0  0  0
   11.0713    6.6307   22.9438 C   0  0  0  0  0  0  0  0  0  0  0  0
   12.6254    4.6625   22.6567 C   0  0  0  0  0  0  0  0  0  0  0  0
   11.2018    5.1498   22.6820 N   0  3  0  0  0  0  0  0  0  0  0  0
   10.8447    5.0057   21.6924 H   0  0  0  0  0  0  0  0  0  0  0  0
  1  2  3  0  0  0  0
  1  8  1  0  0  0  0
  2 14  1  0  0  0  0
  3  4  1  0  0  0  0
  3  5  2  0  0  0  0
  4  6  2  0  0  0  0
  5  7  1  0  0  0  0
  6  8  1  0  0  0  0
  7  8  2  0  0  0  0
  9 10  1  0  0  0  0
  9 11  1  0  0  0  0
 10 12  1  0  0  0  0
 11 13  1  0  0  0  0
 12 15  1  0  0  0  0
 13 15  1  0  0  0  0
 14 15  1  0  0  0  0
 15 16  1  0  0  0  0
M  CHG  1  15   1
M  END
> <ref_mols>
x1279_0

> <original SMILES>
C(C#CC=1C=CC=CC1)N2CCCCC2

> <Chemgauss4>
-9.289313

> <ref_pdb>
x0195_0

$$$$
x1059
  -OEChem-05172015543D

 16 17  0     0  0  0  0  0  0999 V2000
   12.6681    2.0067   22.8260 C   0  0  0  0  0  0  0  0  0  0  0  0
   12.6475    3.2053   22.7497 C   0  0  0  0  0  0  0  0  0  0  0  0
   12.7341   -2.2045   23.0948 C   0  0  0  0  0  0  0  0  0  0  0  0
   11.5156   -1.5260   23.0732 C   0  0  0  0  0  0  0  0  0  0  0  0
   13.9309   -1.4911   23.0275 C   0  0  0  0  0  0  0  0  0  0  0  0
   11.4938   -0.1341   22.9842 C   0  0  0  0  0  0  0  0  0  0  0  0
   13.9091   -0.0992   22.9385 C   0  0  0  0  0  0  0  0  0  0  0  0
   12.6906    0.5793   22.9169 C   0  0  0  0  0  0  0  0  0  0  0  0
   10.4140    6.1227   25.3257 C   0  0  0  0  0  0  0  0  0  0  0  0
   10.5333    4.6311   25.0320 C   0  0  0  0  0  0  0  0  0  0  0  0
   11.3150    6.9474   24.4126 C   0  0  0  0  0  0  0  0  0  0  0  0
   10.2929    4.3247   23.5606 C   0  0  0  0  0  0  0  0  0  0  0  0
   11.0713    6.6307   22.9438 C   0  0  0  0  0  0  0  0  0  0  0  0
   12.6254    4.6625   22.6567 C   0  0  0  0  0  0  0  0  0  0  0  0
   11.2018    5.1498   22.6820 N   0  3  0  0  0  0  0  0  0  0  0  0
   10.8447    5.0057   21.6924 H   0  0  0  0  0  0  0  0  0  0  0  0
  1  2  3  0  0  0  0
  1  8  1  0  0  0  0
  2 14  1  0  0  0  0
  3  4  1  0  0  0  0
  3  5  2  0  0  0  0
  4  6  2  0  0  0  0
  5  7  1  0  0  0  0
  6  8  1  0  0  0  0
  7  8  2  0  0  0  0
  9 10  1  0  0  0  0
  9 11  1  0  0  0  0
 10 12  1  0  0  0  0
 11 13  1  0  0  0  0
 12 15  1  0  0  0  0
 13 15  1  0  0  0  0
 14 15  1  0  0  0  0
 15 16  1  0  0  0  0
M  CHG  1  15   1
M  END
> <ref_mols>
x1059_0

> <original SMILES>
C(C#CC=1C=CC=CC1)N2CCCCC2

> <Chemgauss4>
-9.289313

> <ref_pdb>
x0195_0

$$$$
x1082
  -OEChem-05172015543D

 18 19  0     0  0  0  0  0  0999 V2000
   11.7449   -0.4751   22.7476 C   0  0  0  0  0  0  0  0  0  0  0  0
   14.1118   -0.2745   23.1489 C   0  0  0  0  0  0  0  0  0  0  0  0
   11.9050   -1.8515   22.6753 C   0  0  0  0  0  0  0  0  0  0  0  0
   14.2119   -1.6560   23.0665 C   0  0  0  0  0  0  0  0  0  0  0  0
   12.8630    0.3180   22.9872 C   0  0  0  0  0  0  0  0  0  0  0  0
   11.3990    3.6938   23.6631 C   0  0  0  0  0  0  0  0  0  0  0  0
   13.4287    3.9157   22.2100 C   0  0  0  0  0  0  0  0  0  0  0  0
   11.8569    2.2973   24.0850 C   0  0  0  0  0  0  0  0  0  0  0  0
   13.8835    2.5218   22.6410 C   0  0  0  0  0  0  0  0  0  0  0  0
   12.5904    4.5727   23.3008 C   0  0  0  0  0  0  0  0  0  0  0  0
   12.0001    6.8488   25.0516 C   0  0  0  0  0  0  0  0  0  0  0  0
   11.2278    6.6080   23.7729 C   0  0  0  0  0  0  0  0  0  0  0  0
   13.1190   -2.3959   22.8348 N   0  3  0  0  0  0  0  0  0  0  0  0
   12.7320    1.7100   23.0629 N   0  0  0  0  0  0  0  0  0  0  0  0
   12.0939    5.8835   22.8073 N   0  3  0  0  0  0  0  0  0  0  0  0
   13.2148   -3.4094   22.7774 H   0  0  0  0  0  0  0  0  0  0  0  0
   12.8986    6.4753   22.5633 H   0  0  0  0  0  0  0  0  0  0  0  0
   11.5761    5.7362   21.9312 H   0  0  0  0  0  0  0  0  0  0  0  0
  1  3  2  0  0  0  0
  1  5  1  0  0  0  0
  2  4  1  0  0  0  0
  2  5  2  0  0  0  0
  3 13  1  0  0  0  0
  4 13  2  0  0  0  0
  5 14  1  0  0  0  0
  6  8  1  0  0  0  0
  6 10  1  0  0  0  0
  7  9  1  0  0  0  0
  7 10  1  0  0  0  0
  8 14  1  0  0  0  0
  9 14  1  0  0  0  0
 10 15  1  0  0  0  0
 11 12  1  0  0  0  0
 12 15  1  0  0  0  0
 13 16  1  0  0  0  0
 15 17  1  0  0  0  0
 15 18  1  0  0  0  0
M  CHG  2  13   1  15   1
M  END
> <ref_mols>
x1082_0

> <original SMILES>
CCNC1CCN(CC1)C=2C=CN=CC2

> <Chemgauss4>
-9.281579

> <ref_pdb>
x0195_0

$$$$
x0265
  -OEChem-05172015543D

 18 19  0     0  0  0  0  0  0999 V2000
   11.7449   -0.4751   22.7476 C   0  0  0  0  0  0  0  0  0  0  0  0
   14.1118   -0.2745   23.1489 C   0  0  0  0  0  0  0  0  0  0  0  0
   11.9050   -1.8515   22.6753 C   0  0  0  0  0  0  0  0  0  0  0  0
   14.2119   -1.6560   23.0665 C   0  0  0  0  0  0  0  0  0  0  0  0
   12.8630    0.3180   22.9872 C   0  0  0  0  0  0  0  0  0  0  0  0
   11.3990    3.6938   23.6631 C   0  0  0  0  0  0  0  0  0  0  0  0
   13.4287    3.9157   22.2100 C   0  0  0  0  0  0  0  0  0  0  0  0
   11.8569    2.2973   24.0850 C   0  0  0  0  0  0  0  0  0  0  0  0
   13.8835    2.5218   22.6410 C   0  0  0  0  0  0  0  0  0  0  0  0
   12.5904    4.5727   23.3008 C   0  0  0  0  0  0  0  0  0  0  0  0
   12.0001    6.8488   25.0516 C   0  0  0  0  0  0  0  0  0  0  0  0
   11.2278    6.6080   23.7729 C   0  0  0  0  0  0  0  0  0  0  0  0
   13.1190   -2.3959   22.8348 N   0  3  0  0  0  0  0  0  0  0  0  0
   12.7320    1.7100   23.0629 N   0  0  0  0  0  0  0  0  0  0  0  0
   12.0939    5.8835   22.8073 N   0  3  0  0  0  0  0  0  0  0  0  0
   13.2148   -3.4094   22.7774 H   0  0  0  0  0  0  0  0  0  0  0  0
   12.8986    6.4753   22.5633 H   0  0  0  0  0  0  0  0  0  0  0  0
   11.5761    5.7362   21.9312 H   0  0  0  0  0  0  0  0  0  0  0  0
  1  3  2  0  0  0  0
  1  5  1  0  0  0  0
  2  4  1  0  0  0  0
  2  5  2  0  0  0  0
  3 13  1  0  0  0  0
  4 13  2  0  0  0  0
  5 14  1  0  0  0  0
  6  8  1  0  0  0  0
  6 10  1  0  0  0  0
  7  9  1  0  0  0  0
  7 10  1  0  0  0  0
  8 14  1  0  0  0  0
  9 14  1  0  0  0  0
 10 15  1  0  0  0  0
 11 12  1  0  0  0  0
 12 15  1  0  0  0  0
 13 16  1  0  0  0  0
 15 17  1  0  0  0  0
 15 18  1  0  0  0  0
M  CHG  2  13   1  15   1
M  END
> <ref_mols>
x0265_0

> <original SMILES>
CCNC1CCN(CC1)C=2C=CN=CC2

> <Chemgauss4>
-9.281579

> <ref_pdb>
x0195_0

$$$$
x0198
  -OEChem-05172015543D

 20 22  0     0  0  0  0  0  0999 V2000
    7.8194   -4.5343   25.2725 C   0  0  0  0  0  0  0  0  0  0  0  0
   13.4537   -0.3285   23.9172 C   0  0  0  0  0  0  0  0  0  0  0  0
    8.5322   -3.4501   25.7846 C   0  0  0  0  0  0  0  0  0  0  0  0
    7.6739   -4.6846   23.8934 C   0  0  0  0  0  0  0  0  0  0  0  0
   13.3216   -1.5462   23.2499 C   0  0  0  0  0  0  0  0  0  0  0  0
   12.3292    0.4616   24.1560 C   0  0  0  0  0  0  0  0  0  0  0  0
    9.0993   -2.5162   24.9175 C   0  0  0  0  0  0  0  0  0  0  0  0
    8.2410   -3.7506   23.0264 C   0  0  0  0  0  0  0  0  0  0  0  0
   12.0650   -1.9739   22.8213 C   0  0  0  0  0  0  0  0  0  0  0  0
   11.0726    0.0339   23.7273 C   0  0  0  0  0  0  0  0  0  0  0  0
    8.9537   -2.6664   23.5384 C   0  0  0  0  0  0  0  0  0  0  0  0
   10.9405   -1.1838   23.0600 C   0  0  0  0  0  0  0  0  0  0  0  0
    9.2061    0.3073   21.1693 C   0  0  0  0  0  0  0  0  0  0  0  0
    7.5511   -0.9449   21.4049 C   0  0  0  0  0  0  0  0  0  0  0  0
    7.7950    0.3144   20.5550 C   0  0  0  0  0  0  0  0  0  0  0  0
    9.5712   -1.6490   22.5931 C   0  0  0  0  0  0  0  0  0  0  0  0
    8.6713   -0.5215   22.2654 N   0  3  0  0  0  0  0  0  0  0  0  0
    7.7179    0.1408   19.1309 O   0  0  0  0  0  0  0  0  0  0  0  0
    8.3759    0.0233   23.0870 H   0  0  0  0  0  0  0  0  0  0  0  0
    6.7771    0.1693   18.9112 H   0  0  0  0  0  0  0  0  0  0  0  0
  1  3  1  0  0  0  0
  1  4  2  0  0  0  0
  2  5  1  0  0  0  0
  2  6  2  0  0  0  0
  3  7  2  0  0  0  0
  4  8  1  0  0  0  0
  5  9  2  0  0  0  0
  6 10  1  0  0  0  0
  7 11  1  0  0  0  0
  8 11  2  0  0  0  0
  9 12  1  0  0  0  0
 10 12  2  0  0  0  0
 11 16  1  0  0  0  0
 12 16  1  0  0  0  0
 13 15  1  0  0  0  0
 13 17  1  0  0  0  0
 14 15  1  0  0  0  0
 14 17  1  0  0  0  0
 15 18  1  0  0  0  0
 16 17  1  0  0  0  0
 17 19  1  0  0  0  0
 18 20  1  0  0  0  0
M  CHG  1  17   1
M  END
> <ref_mols>
x0198_0

> <original SMILES>
OC1CN(C1)C(C=2C=CC=CC2)C=3C=CC=CC3

> <Chemgauss4>
-9.279025

> <ref_pdb>
x0072_0

$$$$
x0601
  -OEChem-05172015543D

 16 17  0     0  0  0  0  0  0999 V2000
    7.1582    0.7716   19.7458 C   0  0  0  0  0  0  0  0  0  0  0  0
    8.6584   -0.3702   18.6712 C   0  0  0  0  0  0  0  0  0  0  0  0
    9.9025    0.5948   21.5779 C   0  0  0  0  0  0  0  0  0  0  0  0
   14.2414   -2.0841   23.0111 C   0  0  0  0  0  0  0  0  0  0  0  0
   13.9666   -1.0505   24.0988 C   0  0  0  0  0  0  0  0  0  0  0  0
   13.7129   -1.6260   21.6554 C   0  0  0  0  0  0  0  0  0  0  0  0
   12.4852   -0.6869   24.1692 C   0  0  0  0  0  0  0  0  0  0  0  0
   12.2311   -1.2632   21.7216 C   0  0  0  0  0  0  0  0  0  0  0  0
   11.9519   -0.2169   22.8090 C   0  0  0  0  0  0  0  0  0  0  0  0
   10.4577    0.0894   22.8920 C   0  0  0  0  0  0  0  0  0  0  0  0
    6.8541    0.8239   18.4686 N   0  0  0  0  0  0  0  0  0  0  0  0
    7.8086    0.0975   17.7849 N   0  0  0  0  0  0  0  0  0  0  0  0
    8.2872    0.0299   19.9189 N   0  0  0  0  0  0  0  0  0  0  0  0
    8.9151   -0.2536   21.0988 N   0  0  0  0  0  0  0  0  0  0  0  0
   10.2917    1.6215   21.0271 O   0  0  0  0  0  0  0  0  0  0  0  0
    8.6594   -1.0838   21.6241 H   0  0  0  0  0  0  0  0  0  0  0  0
  1 11  2  0  0  0  0
  1 13  1  0  0  0  0
  2 12  2  0  0  0  0
  2 13  1  0  0  0  0
  3 10  1  0  0  0  0
  3 14  1  0  0  0  0
  3 15  2  0  0  0  0
  4  5  1  0  0  0  0
  4  6  1  0  0  0  0
  5  7  1  0  0  0  0
  6  8  1  0  0  0  0
  7  9  1  0  0  0  0
  8  9  1  0  0  0  0
  9 10  1  0  0  0  0
 11 12  1  0  0  0  0
 13 14  1  0  0  0  0
 14 16  1  0  0  0  0
M  END
> <ref_mols>
x0601_0

> <original SMILES>
O=C(CC1CCCCC1)NN2C=NN=C2

> <Chemgauss4>
-9.278269

> <ref_pdb>
x0678_0

$$$$
x1285
  -OEChem-05172015543D

 16 17  0     0  0  0  0  0  0999 V2000
    7.1582    0.7716   19.7458 C   0  0  0  0  0  0  0  0  0  0  0  0
    8.6584   -0.3702   18.6712 C   0  0  0  0  0  0  0  0  0  0  0  0
    9.9025    0.5948   21.5779 C   0  0  0  0  0  0  0  0  0  0  0  0
   14.2414   -2.0841   23.0111 C   0  0  0  0  0  0  0  0  0  0  0  0
   13.9666   -1.0505   24.0988 C   0  0  0  0  0  0  0  0  0  0  0  0
   13.7129   -1.6260   21.6554 C   0  0  0  0  0  0  0  0  0  0  0  0
   12.4852   -0.6869   24.1692 C   0  0  0  0  0  0  0  0  0  0  0  0
   12.2311   -1.2632   21.7216 C   0  0  0  0  0  0  0  0  0  0  0  0
   11.9519   -0.2169   22.8090 C   0  0  0  0  0  0  0  0  0  0  0  0
   10.4577    0.0894   22.8920 C   0  0  0  0  0  0  0  0  0  0  0  0
    6.8541    0.8239   18.4686 N   0  0  0  0  0  0  0  0  0  0  0  0
    7.8086    0.0975   17.7849 N   0  0  0  0  0  0  0  0  0  0  0  0
    8.2872    0.0299   19.9189 N   0  0  0  0  0  0  0  0  0  0  0  0
    8.9151   -0.2536   21.0988 N   0  0  0  0  0  0  0  0  0  0  0  0
   10.2917    1.6215   21.0271 O   0  0  0  0  0  0  0  0  0  0  0  0
    8.6594   -1.0838   21.6241 H   0  0  0  0  0  0  0  0  0  0  0  0
  1 11  2  0  0  0  0
  1 13  1  0  0  0  0
  2 12  2  0  0  0  0
  2 13  1  0  0  0  0
  3 10  1  0  0  0  0
  3 14  1  0  0  0  0
  3 15  2  0  0  0  0
  4  5  1  0  0  0  0
  4  6  1  0  0  0  0
  5  7  1  0  0  0  0
  6  8  1  0  0  0  0
  7  9  1  0  0  0  0
  8  9  1  0  0  0  0
  9 10  1  0  0  0  0
 11 12  1  0  0  0  0
 13 14  1  0  0  0  0
 14 16  1  0  0  0  0
M  END
> <ref_mols>
x1285_0

> <original SMILES>
O=C(CC1CCCCC1)NN2C=NN=C2

> <Chemgauss4>
-9.278269

> <ref_pdb>
x0678_0

$$$$
x1081
  -OEChem-05172015543D

 16 17  0     0  0  0  0  0  0999 V2000
    7.1582    0.7716   19.7458 C   0  0  0  0  0  0  0  0  0  0  0  0
    8.6584   -0.3702   18.6712 C   0  0  0  0  0  0  0  0  0  0  0  0
    9.9025    0.5948   21.5779 C   0  0  0  0  0  0  0  0  0  0  0  0
   14.2414   -2.0841   23.0111 C   0  0  0  0  0  0  0  0  0  0  0  0
   13.9666   -1.0505   24.0988 C   0  0  0  0  0  0  0  0  0  0  0  0
   13.7129   -1.6260   21.6554 C   0  0  0  0  0  0  0  0  0  0  0  0
   12.4852   -0.6869   24.1692 C   0  0  0  0  0  0  0  0  0  0  0  0
   12.2311   -1.2632   21.7216 C   0  0  0  0  0  0  0  0  0  0  0  0
   11.9519   -0.2169   22.8090 C   0  0  0  0  0  0  0  0  0  0  0  0
   10.4577    0.0894   22.8920 C   0  0  0  0  0  0  0  0  0  0  0  0
    6.8541    0.8239   18.4686 N   0  0  0  0  0  0  0  0  0  0  0  0
    7.8086    0.0975   17.7849 N   0  0  0  0  0  0  0  0  0  0  0  0
    8.2872    0.0299   19.9189 N   0  0  0  0  0  0  0  0  0  0  0  0
    8.9151   -0.2536   21.0988 N   0  0  0  0  0  0  0  0  0  0  0  0
   10.2917    1.6215   21.0271 O   0  0  0  0  0  0  0  0  0  0  0  0
    8.6594   -1.0838   21.6241 H   0  0  0  0  0  0  0  0  0  0  0  0
  1 11  2  0  0  0  0
  1 13  1  0  0  0  0
  2 12  2  0  0  0  0
  2 13  1  0  0  0  0
  3 10  1  0  0  0  0
  3 14  1  0  0  0  0
  3 15  2  0  0  0  0
  4  5  1  0  0  0  0
  4  6  1  0  0  0  0
  5  7  1  0  0  0  0
  6  8  1  0  0  0  0
  7  9  1  0  0  0  0
  8  9  1  0  0  0  0
  9 10  1  0  0  0  0
 11 12  1  0  0  0  0
 13 14  1  0  0  0  0
 14 16  1  0  0  0  0
M  END
> <ref_mols>
x1081_0

> <original SMILES>
O=C(CC1CCCCC1)NN2C=NN=C2

> <Chemgauss4>
-9.278269

> <ref_pdb>
x0678_0

$$$$
x1161
  -OEChem-05172015543D

 17 18  0     1  0  0  0  0  0999 V2000
   13.8414   -2.1160   22.8961 C   0  0  0  0  0  0  0  0  0  0  0  0
   14.5413   -0.9444   23.1841 C   0  0  0  0  0  0  0  0  0  0  0  0
   12.4487   -2.0958   22.8207 C   0  0  0  0  0  0  0  0  0  0  0  0
   13.8486    0.2474   23.3969 C   0  0  0  0  0  0  0  0  0  0  0  0
   11.7559   -0.9040   23.0335 C   0  0  0  0  0  0  0  0  0  0  0  0
   12.4559    0.2677   23.3215 C   0  0  0  0  0  0  0  0  0  0  0  0
   12.3225    2.7443   23.2181 C   0  0  0  0  0  0  0  0  0  0  0  0
    9.7456    2.6262   24.6068 C   0  0  0  0  0  0  0  0  0  0  0  0
   10.1158    3.8716   23.8301 C   0  0  0  0  0  0  0  0  0  0  0  0
   10.3141    1.4011   23.9100 C   0  0  0  0  0  0  0  0  0  0  0  0
   11.6269    3.9738   23.7877 C   0  0  2  0  0  0  0  0  0  0  0  0
   11.4188    6.4497   23.5276 C   0  0  0  0  0  0  0  0  0  0  0  0
   11.7373    1.5045   23.5422 N   0  0  0  0  0  0  0  0  0  0  0  0
   11.9812    5.1851   22.9900 N   0  3  0  0  0  0  0  0  0  0  0  0
   13.3616    2.8870   22.5680 O   0  0  0  0  0  0  0  0  0  0  0  0
   13.0045    5.2614   22.9396 H   0  0  0  0  0  0  0  0  0  0  0  0
   11.6585    5.0519   22.0237 H   0  0  0  0  0  0  0  0  0  0  0  0
  1  2  1  0  0  0  0
  1  3  2  0  0  0  0
  2  4  2  0  0  0  0
  3  5  1  0  0  0  0
  4  6  1  0  0  0  0
  5  6  2  0  0  0  0
  6 13  1  0  0  0  0
  7 11  1  0  0  0  0
  7 13  1  0  0  0  0
  7 15  2  0  0  0  0
  8  9  1  0  0  0  0
  8 10  1  0  0  0  0
  9 11  1  0  0  0  0
 10 13  1  0  0  0  0
 11 14  1  0  0  0  0
 12 14  1  0  0  0  0
 14 16  1  0  0  0  0
 14 17  1  0  0  0  0
M  CHG  1  14   1
M  END
> <ref_mols>
x1161_0

> <original SMILES>
CNC1CCCN(C1=O)C=2C=CC=CC2

> <Chemgauss4>
-9.277293

> <ref_pdb>
x0195_0

$$$$
x0197
  -OEChem-05172015543D

 17 18  0     1  0  0  0  0  0999 V2000
   13.8414   -2.1160   22.8961 C   0  0  0  0  0  0  0  0  0  0  0  0
   14.5413   -0.9444   23.1841 C   0  0  0  0  0  0  0  0  0  0  0  0
   12.4487   -2.0958   22.8207 C   0  0  0  0  0  0  0  0  0  0  0  0
   13.8486    0.2474   23.3969 C   0  0  0  0  0  0  0  0  0  0  0  0
   11.7559   -0.9040   23.0335 C   0  0  0  0  0  0  0  0  0  0  0  0
   12.4559    0.2677   23.3215 C   0  0  0  0  0  0  0  0  0  0  0  0
   12.3225    2.7443   23.2181 C   0  0  0  0  0  0  0  0  0  0  0  0
    9.7456    2.6262   24.6068 C   0  0  0  0  0  0  0  0  0  0  0  0
   10.1158    3.8716   23.8301 C   0  0  0  0  0  0  0  0  0  0  0  0
   10.3141    1.4011   23.9100 C   0  0  0  0  0  0  0  0  0  0  0  0
   11.6269    3.9738   23.7877 C   0  0  2  0  0  0  0  0  0  0  0  0
   11.4188    6.4497   23.5276 C   0  0  0  0  0  0  0  0  0  0  0  0
   11.7373    1.5045   23.5422 N   0  0  0  0  0  0  0  0  0  0  0  0
   11.9812    5.1851   22.9900 N   0  3  0  0  0  0  0  0  0  0  0  0
   13.3616    2.8870   22.5680 O   0  0  0  0  0  0  0  0  0  0  0  0
   13.0045    5.2614   22.9396 H   0  0  0  0  0  0  0  0  0  0  0  0
   11.6585    5.0519   22.0237 H   0  0  0  0  0  0  0  0  0  0  0  0
  1  2  1  0  0  0  0
  1  3  2  0  0  0  0
  2  4  2  0  0  0  0
  3  5  1  0  0  0  0
  4  6  1  0  0  0  0
  5  6  2  0  0  0  0
  6 13  1  0  0  0  0
  7 11  1  0  0  0  0
  7 13  1  0  0  0  0
  7 15  2  0  0  0  0
  8  9  1  0  0  0  0
  8 10  1  0  0  0  0
  9 11  1  0  0  0  0
 10 13  1  0  0  0  0
 11 14  1  0  0  0  0
 12 14  1  0  0  0  0
 14 16  1  0  0  0  0
 14 17  1  0  0  0  0
M  CHG  1  14   1
M  END
> <ref_mols>
x0197_0

> <original SMILES>
CNC1CCCN(C1=O)C=2C=CC=CC2

> <Chemgauss4>
-9.277293

> <ref_pdb>
x0195_0

$$$$
x2827
  -OEChem-05172015543D

 26 28  0     1  0  0  0  0  0999 V2000
    6.4123   -3.6711   27.3368 C   0  0  0  0  0  0  0  0  0  0  0  0
    7.4381   -2.7564   27.0989 C   0  0  0  0  0  0  0  0  0  0  0  0
    6.4206   -4.9104   26.6966 C   0  0  0  0  0  0  0  0  0  0  0  0
    6.3731    1.2794   19.8560 C   0  0  0  0  0  0  0  0  0  0  0  0
    5.8692   -5.3758   21.9869 C   0  0  0  0  0  0  0  0  0  0  0  0
    8.4721   -3.0808   26.2207 C   0  0  0  0  0  0  0  0  0  0  0  0
    7.4545   -5.2348   25.8183 C   0  0  0  0  0  0  0  0  0  0  0  0
    7.4195    1.0243   20.7248 C   0  0  0  0  0  0  0  0  0  0  0  0
    6.7641   -4.4723   22.6297 C   0  0  0  0  0  0  0  0  0  0  0  0
    6.5681    1.0163   18.5150 C   0  0  0  0  0  0  0  0  0  0  0  0
    6.5206   -6.4823   21.4882 C   0  0  0  0  0  0  0  0  0  0  0  0
    8.4803   -4.3200   25.5804 C   0  0  0  0  0  0  0  0  0  0  0  0
    8.5915    0.5228   20.1952 C   0  0  0  0  0  0  0  0  0  0  0  0
    8.0656   -4.9230   22.5979 C   0  0  0  0  0  0  0  0  0  0  0  0
    9.6211   -2.1159   21.9421 C   0  0  0  0  0  0  0  0  0  0  0  0
    9.6005   -4.6721   24.6283 C   0  0  0  0  0  0  0  0  0  0  0  0
    9.7569    0.2272   21.0944 C   0  0  0  0  0  0  0  0  0  0  0  0
    9.3091   -4.2618   23.1675 C   0  0  2  0  0  0  0  0  0  0  0  0
    7.7260    0.5256   18.0244 N   0  0  0  0  0  0  0  0  0  0  0  0
    8.7542    0.2746   18.8784 N   0  0  0  0  0  0  0  0  0  0  0  0
    9.4244   -0.7475   22.1076 N   0  0  0  0  0  0  0  0  0  0  0  0
    9.2156   -2.8241   23.0705 N   0  0  0  0  0  0  0  0  0  0  0  0
   10.0926   -2.6341   20.9308 O   0  0  0  0  0  0  0  0  0  0  0  0
    8.2044   -6.4293   21.7954 S   0  0  0  0  0  0  0  0  0  0  0  0
    9.0282   -0.4187   22.9826 H   0  0  0  0  0  0  0  0  0  0  0  0
    8.8808   -2.3075   23.8778 H   0  0  0  0  0  0  0  0  0  0  0  0
  1  2  1  0  0  0  0
  1  3  2  0  0  0  0
  2  6  2  0  0  0  0
  3  7  1  0  0  0  0
  4  8  2  0  0  0  0
  4 10  1  0  0  0  0
  5  9  1  0  0  0  0
  5 11  2  0  0  0  0
  6 12  1  0  0  0  0
  7 12  2  0  0  0  0
  8 13  1  0  0  0  0
  9 14  2  0  0  0  0
 10 19  2  0  0  0  0
 11 24  1  0  0  0  0
 12 16  1  0  0  0  0
 13 17  1  0  0  0  0
 13 20  2  0  0  0  0
 14 18  1  0  0  0  0
 14 24  1  0  0  0  0
 15 21  1  0  0  0  0
 15 22  1  0  0  0  0
 15 23  2  0  0  0  0
 16 18  1  0  0  0  0
 17 21  1  0  0  0  0
 18 22  1  0  0  0  0
 19 20  1  0  0  0  0
 21 25  1  0  0  0  0
 22 26  1  0  0  0  0
M  END
> <ref_mols>
x2827_0

> <original SMILES>
O=C(NCC=1C=CC=NN1)NC(CC=2C=CC=CC2)C3=CC=CS3

> <Chemgauss4>
-9.271416

> <ref_pdb>
x1077_0

$$$$
x0125
  -OEChem-05172015543D

 18 19  0     0  0  0  0  0  0999 V2000
   11.9500   -2.3327   23.4458 C   0  0  0  0  0  0  0  0  0  0  0  0
   11.5648   -3.4866   25.5331 C   0  0  0  0  0  0  0  0  0  0  0  0
   13.1348   -1.8031   23.9571 C   0  0  0  0  0  0  0  0  0  0  0  0
   12.7497   -2.9571   26.0445 C   0  0  0  0  0  0  0  0  0  0  0  0
   11.1650   -3.1744   24.2338 C   0  0  0  0  0  0  0  0  0  0  0  0
   13.5346   -2.1153   25.2564 C   0  0  0  0  0  0  0  0  0  0  0  0
    6.5167   -5.3068   21.7824 C   0  0  0  0  0  0  0  0  0  0  0  0
    9.2067   -2.9626   22.7233 C   0  0  0  0  0  0  0  0  0  0  0  0
    9.4412   -4.9717   24.2169 C   0  0  0  0  0  0  0  0  0  0  0  0
    7.7406   -3.3888   22.7505 C   0  0  0  0  0  0  0  0  0  0  0  0
    8.6302   -5.6786   23.1301 C   0  0  0  0  0  0  0  0  0  0  0  0
    9.9817   -3.7032   23.7231 N   0  0  0  0  0  0  0  0  0  0  0  0
    7.5965   -4.8262   22.5356 N   0  0  0  0  0  0  0  0  0  0  0  0
    6.4652   -6.6778   21.6232 N   0  0  0  0  0  0  0  0  0  0  0  0
    5.6570   -4.5813   21.2751 O   0  0  0  0  0  0  0  0  0  0  0  0
   14.6724   -1.6068   25.7475 F   0  0  0  0  0  0  0  0  0  0  0  0
    7.1644   -7.2712   22.0579 H   0  0  0  0  0  0  0  0  0  0  0  0
    5.7242   -7.1565   21.1252 H   0  0  0  0  0  0  0  0  0  0  0  0
  1  3  2  0  0  0  0
  1  5  1  0  0  0  0
  2  4  1  0  0  0  0
  2  5  2  0  0  0  0
  3  6  1  0  0  0  0
  4  6  2  0  0  0  0
  5 12  1  0  0  0  0
  6 16  1  0  0  0  0
  7 13  1  0  0  0  0
  7 14  1  0  0  0  0
  7 15  2  0  0  0  0
  8 10  1  0  0  0  0
  8 12  1  0  0  0  0
  9 11  1  0  0  0  0
  9 12  1  0  0  0  0
 10 13  1  0  0  0  0
 11 13  1  0  0  0  0
 14 17  1  0  0  0  0
 14 18  1  0  0  0  0
M  END
> <ref_mols>
x0125_0

> <original SMILES>
NC(=O)N1CCN(CC1)C=2C=CC(F)=CC2

> <Chemgauss4>
-9.252831

> <ref_pdb>
x0749_0

$$$$
x1257
  -OEChem-05172015543D

 18 19  0     0  0  0  0  0  0999 V2000
    5.5575   -5.6491   23.6310 C   0  0  0  0  0  0  0  0  0  0  0  0
    6.7384   -5.8207   22.9088 C   0  0  0  0  0  0  0  0  0  0  0  0
    4.6825   -4.6140   23.3014 C   0  0  0  0  0  0  0  0  0  0  0  0
    5.3443    1.3912   20.1438 C   0  0  0  0  0  0  0  0  0  0  0  0
    4.7619    1.5704   18.8940 C   0  0  0  0  0  0  0  0  0  0  0  0
    7.0444   -4.9571   21.8570 C   0  0  0  0  0  0  0  0  0  0  0  0
    4.9884   -3.7505   22.2496 C   0  0  0  0  0  0  0  0  0  0  0  0
    6.5795    0.7609   20.2452 C   0  0  0  0  0  0  0  0  0  0  0  0
    5.4500    1.1049   17.7851 C   0  0  0  0  0  0  0  0  0  0  0  0
    6.1694   -3.9220   21.5274 C   0  0  0  0  0  0  0  0  0  0  0  0
    7.1862    0.3315   19.0758 C   0  0  0  0  0  0  0  0  0  0  0  0
    6.4885   -3.0216   20.4308 C   0  0  0  0  0  0  0  0  0  0  0  0
    8.2345   -1.8118   21.7609 C   0  0  0  0  0  0  0  0  0  0  0  0
    8.5272   -0.3567   19.1480 C   0  0  0  0  0  0  0  0  0  0  0  0
    8.4118   -1.8716   19.2985 C   0  0  0  0  0  0  0  0  0  0  0  0
    6.6515    0.4879   17.8440 N   0  0  0  0  0  0  0  0  0  0  0  0
    7.6705   -2.2613   20.4959 N   0  0  0  0  0  0  0  0  0  0  0  0
    5.6928   -2.9872   19.4827 O   0  0  0  0  0  0  0  0  0  0  0  0
  1  2  1  0  0  0  0
  1  3  2  0  0  0  0
  2  6  2  0  0  0  0
  3  7  1  0  0  0  0
  4  5  1  0  0  0  0
  4  8  2  0  0  0  0
  5  9  2  0  0  0  0
  6 10  1  0  0  0  0
  7 10  2  0  0  0  0
  8 11  1  0  0  0  0
  9 16  1  0  0  0  0
 10 12  1  0  0  0  0
 11 14  1  0  0  0  0
 11 16  2  0  0  0  0
 12 17  1  0  0  0  0
 12 18  2  0  0  0  0
 13 17  1  0  0  0  0
 14 15  1  0  0  0  0
 15 17  1  0  0  0  0
M  END
> <ref_mols>
x1257_0

> <original SMILES>
CN(CCC=1C=CC=CN1)C(=O)C=2C=CC=CC2

> <Chemgauss4>
-9.243225

> <ref_pdb>
x0397_0

$$$$
x0568
  -OEChem-05172015543D

 18 19  0     0  0  0  0  0  0999 V2000
    5.5575   -5.6491   23.6310 C   0  0  0  0  0  0  0  0  0  0  0  0
    6.7384   -5.8207   22.9088 C   0  0  0  0  0  0  0  0  0  0  0  0
    4.6825   -4.6140   23.3014 C   0  0  0  0  0  0  0  0  0  0  0  0
    5.3443    1.3912   20.1438 C   0  0  0  0  0  0  0  0  0  0  0  0
    4.7619    1.5704   18.8940 C   0  0  0  0  0  0  0  0  0  0  0  0
    7.0444   -4.9571   21.8570 C   0  0  0  0  0  0  0  0  0  0  0  0
    4.9884   -3.7505   22.2496 C   0  0  0  0  0  0  0  0  0  0  0  0
    6.5795    0.7609   20.2452 C   0  0  0  0  0  0  0  0  0  0  0  0
    5.4500    1.1049   17.7851 C   0  0  0  0  0  0  0  0  0  0  0  0
    6.1694   -3.9220   21.5274 C   0  0  0  0  0  0  0  0  0  0  0  0
    7.1862    0.3315   19.0758 C   0  0  0  0  0  0  0  0  0  0  0  0
    6.4885   -3.0216   20.4308 C   0  0  0  0  0  0  0  0  0  0  0  0
    8.2345   -1.8118   21.7609 C   0  0  0  0  0  0  0  0  0  0  0  0
    8.5272   -0.3567   19.1480 C   0  0  0  0  0  0  0  0  0  0  0  0
    8.4118   -1.8716   19.2985 C   0  0  0  0  0  0  0  0  0  0  0  0
    6.6515    0.4879   17.8440 N   0  0  0  0  0  0  0  0  0  0  0  0
    7.6705   -2.2613   20.4959 N   0  0  0  0  0  0  0  0  0  0  0  0
    5.6928   -2.9872   19.4827 O   0  0  0  0  0  0  0  0  0  0  0  0
  1  2  1  0  0  0  0
  1  3  2  0  0  0  0
  2  6  2  0  0  0  0
  3  7  1  0  0  0  0
  4  5  1  0  0  0  0
  4  8  2  0  0  0  0
  5  9  2  0  0  0  0
  6 10  1  0  0  0  0
  7 10  2  0  0  0  0
  8 11  1  0  0  0  0
  9 16  1  0  0  0  0
 10 12  1  0  0  0  0
 11 14  1  0  0  0  0
 11 16  2  0  0  0  0
 12 17  1  0  0  0  0
 12 18  2  0  0  0  0
 13 17  1  0  0  0  0
 14 15  1  0  0  0  0
 15 17  1  0  0  0  0
M  END
> <ref_mols>
x0568_0

> <original SMILES>
CN(CCC=1C=CC=CN1)C(=O)C=2C=CC=CC2

> <Chemgauss4>
-9.243225

> <ref_pdb>
x0397_0

$$$$
x0036
  -OEChem-05172015543D

 18 19  0     0  0  0  0  0  0999 V2000
   13.0540    1.2220   23.2416 C   0  0  0  0  0  0  0  0  0  0  0  0
   10.9264    0.1445   22.8556 C   0  0  0  0  0  0  0  0  0  0  0  0
   13.7128    0.1061   22.7256 C   0  0  0  0  0  0  0  0  0  0  0  0
   11.5852   -0.9715   22.3396 C   0  0  0  0  0  0  0  0  0  0  0  0
   11.6608    1.2412   23.3066 C   0  0  0  0  0  0  0  0  0  0  0  0
   11.4101    3.7283   23.7975 C   0  0  0  0  0  0  0  0  0  0  0  0
   12.9784   -0.9907   22.2746 C   0  0  0  0  0  0  0  0  0  0  0  0
   10.9826    2.3900   23.8380 C   0  0  0  0  0  0  0  0  0  0  0  0
   10.4091    4.4095   24.4380 C   0  0  0  0  0  0  0  0  0  0  0  0
   12.5954    4.3044   23.2373 C   0  0  0  0  0  0  0  0  0  0  0  0
   10.1821    5.8241   24.7638 C   0  0  0  0  0  0  0  0  0  0  0  0
   13.6670    5.3022   21.1797 C   0  0  0  0  0  0  0  0  0  0  0  0
    9.8064    2.2516   24.4562 N   0  0  0  0  0  0  0  0  0  0  0  0
   12.5501    4.7245   21.8921 N   0  0  0  0  0  0  0  0  0  0  0  0
   13.6493    4.4153   23.9102 O   0  0  0  0  0  0  0  0  0  0  0  0
    9.4462    3.5391   24.8357 O   0  0  0  0  0  0  0  0  0  0  0  0
   13.6112   -2.0623   21.7791 F   0  0  0  0  0  0  0  0  0  0  0  0
   11.7001    4.5604   21.3626 H   0  0  0  0  0  0  0  0  0  0  0  0
  1  3  2  0  0  0  0
  1  5  1  0  0  0  0
  2  4  1  0  0  0  0
  2  5  2  0  0  0  0
  3  7  1  0  0  0  0
  4  7  2  0  0  0  0
  5  8  1  0  0  0  0
  6  8  1  0  0  0  0
  6  9  2  0  0  0  0
  6 10  1  0  0  0  0
  7 17  1  0  0  0  0
  8 13  2  0  0  0  0
  9 11  1  0  0  0  0
  9 16  1  0  0  0  0
 10 14  1  0  0  0  0
 10 15  2  0  0  0  0
 12 14  1  0  0  0  0
 13 16  1  0  0  0  0
 14 18  1  0  0  0  0
M  END
> <ref_mols>
x0036_0

> <original SMILES>
CNC(=O)C1=C(C)ON=C1C=2C=CC(F)=CC2

> <Chemgauss4>
-9.240849

> <ref_pdb>
x0104_0

$$$$
x2584
  -OEChem-05172015543D

 18 19  0     0  0  0  0  0  0999 V2000
    5.2205    0.7822   20.3387 C   0  0  0  0  0  0  0  0  0  0  0  0
    4.8311    1.1907   19.0680 C   0  0  0  0  0  0  0  0  0  0  0  0
    6.4628    0.1848   20.5206 C   0  0  0  0  0  0  0  0  0  0  0  0
    5.7134    0.9809   18.0205 C   0  0  0  0  0  0  0  0  0  0  0  0
    7.2720    0.0198   19.4081 C   0  0  0  0  0  0  0  0  0  0  0  0
    8.7582   -4.5935   24.6719 C   0  0  0  0  0  0  0  0  0  0  0  0
    9.2144   -0.3618   20.9295 C   0  0  0  0  0  0  0  0  0  0  0  0
    7.6665   -3.1693   22.9720 C   0  0  0  0  0  0  0  0  0  0  0  0
    9.8752   -2.4663   23.8926 C   0  0  0  0  0  0  0  0  0  0  0  0
    8.1429   -2.5240   21.6754 C   0  0  0  0  0  0  0  0  0  0  0  0
    9.4769   -1.1367   23.2617 C   0  0  0  0  0  0  0  0  0  0  0  0
    9.9444   -4.7968   25.5828 C   0  0  0  0  0  0  0  0  0  0  0  0
    8.6186   -0.6211   19.5672 C   0  0  0  0  0  0  0  0  0  0  0  0
    6.9282    0.4039   18.1583 N   0  0  0  0  0  0  0  0  0  0  0  0
    8.7815   -3.4453   23.8789 N   0  0  0  0  0  0  0  0  0  0  0  0
    8.9460   -1.3181   21.9100 N   0  0  0  0  0  0  0  0  0  0  0  0
    7.8430   -5.4200   24.6683 O   0  0  0  0  0  0  0  0  0  0  0  0
    9.8879    0.6538   21.1178 O   0  0  0  0  0  0  0  0  0  0  0  0
  1  2  1  0  0  0  0
  1  3  2  0  0  0  0
  2  4  2  0  0  0  0
  3  5  1  0  0  0  0
  4 14  1  0  0  0  0
  5 13  1  0  0  0  0
  5 14  2  0  0  0  0
  6 12  1  0  0  0  0
  6 15  1  0  0  0  0
  6 17  2  0  0  0  0
  7 13  1  0  0  0  0
  7 16  1  0  0  0  0
  7 18  2  0  0  0  0
  8 10  1  0  0  0  0
  8 15  1  0  0  0  0
  9 11  1  0  0  0  0
  9 15  1  0  0  0  0
 10 16  1  0  0  0  0
 11 16  1  0  0  0  0
M  END
> <ref_mols>
x2584_0

> <original SMILES>
CC(=O)N1CCN(CC1)C(=O)CC=2C=CC=CN2

> <Chemgauss4>
-9.234826

> <ref_pdb>
x0107_0

$$$$
x0272
  -OEChem-05172015543D

 15 15  0     1  0  0  0  0  0999 V2000
    5.1234    1.0822   19.6397 C   0  0  0  0  0  0  0  0  0  0  0  0
    5.2325    1.9669   18.5727 C   0  0  0  0  0  0  0  0  0  0  0  0
    5.7411   -0.1616   19.5701 C   0  0  0  0  0  0  0  0  0  0  0  0
    5.9646    1.5633   17.4677 C   0  0  0  0  0  0  0  0  0  0  0  0
    6.4502   -0.4700   18.4204 C   0  0  0  0  0  0  0  0  0  0  0  0
    6.7540   -3.1297   20.3747 C   0  0  0  0  0  0  0  0  0  0  0  0
    7.6470   -5.0423   21.7322 C   0  0  0  0  0  0  0  0  0  0  0  0
    7.1298   -1.8043   18.3108 C   0  0  0  0  0  0  0  0  0  0  0  0
    7.4306   -3.5384   21.6754 C   0  0  1  0  0  0  0  0  0  0  0  0
    6.5784    0.3634   17.3637 N   0  0  0  0  0  0  0  0  0  0  0  0
    7.5517   -2.3033   19.5985 N   0  0  0  0  0  0  0  0  0  0  0  0
    5.6306   -3.5195   20.0636 O   0  0  0  0  0  0  0  0  0  0  0  0
    8.6958   -2.9044   21.7619 O   0  0  0  0  0  0  0  0  0  0  0  0
    8.4677   -2.0388   19.9488 H   0  0  0  0  0  0  0  0  0  0  0  0
    9.2142   -3.2000   20.9948 H   0  0  0  0  0  0  0  0  0  0  0  0
  1  2  1  0  0  0  0
  1  3  2  0  0  0  0
  2  4  2  0  0  0  0
  3  5  1  0  0  0  0
  4 10  1  0  0  0  0
  5  8  1  0  0  0  0
  5 10  2  0  0  0  0
  6  9  1  0  0  0  0
  6 11  1  0  0  0  0
  6 12  2  0  0  0  0
  7  9  1  0  0  0  0
  8 11  1  0  0  0  0
  9 13  1  0  0  0  0
 11 14  1  0  0  0  0
 13 15  1  0  0  0  0
M  END
> <ref_mols>
x0272_0

> <original SMILES>
CC(O)C(=O)NCC=1C=CC=CN1

> <Chemgauss4>
-9.233202

> <ref_pdb>
x0397_0

$$$$
x1134
  -OEChem-05172015543D

 15 15  0     1  0  0  0  0  0999 V2000
    5.1234    1.0822   19.6397 C   0  0  0  0  0  0  0  0  0  0  0  0
    5.2325    1.9669   18.5727 C   0  0  0  0  0  0  0  0  0  0  0  0
    5.7411   -0.1616   19.5701 C   0  0  0  0  0  0  0  0  0  0  0  0
    5.9646    1.5633   17.4677 C   0  0  0  0  0  0  0  0  0  0  0  0
    6.4502   -0.4700   18.4204 C   0  0  0  0  0  0  0  0  0  0  0  0
    6.7540   -3.1297   20.3747 C   0  0  0  0  0  0  0  0  0  0  0  0
    7.6470   -5.0423   21.7322 C   0  0  0  0  0  0  0  0  0  0  0  0
    7.1298   -1.8043   18.3108 C   0  0  0  0  0  0  0  0  0  0  0  0
    7.4306   -3.5384   21.6754 C   0  0  1  0  0  0  0  0  0  0  0  0
    6.5784    0.3634   17.3637 N   0  0  0  0  0  0  0  0  0  0  0  0
    7.5517   -2.3033   19.5985 N   0  0  0  0  0  0  0  0  0  0  0  0
    5.6306   -3.5195   20.0636 O   0  0  0  0  0  0  0  0  0  0  0  0
    8.6958   -2.9044   21.7619 O   0  0  0  0  0  0  0  0  0  0  0  0
    8.4677   -2.0388   19.9488 H   0  0  0  0  0  0  0  0  0  0  0  0
    9.2142   -3.2000   20.9948 H   0  0  0  0  0  0  0  0  0  0  0  0
  1  2  1  0  0  0  0
  1  3  2  0  0  0  0
  2  4  2  0  0  0  0
  3  5  1  0  0  0  0
  4 10  1  0  0  0  0
  5  8  1  0  0  0  0
  5 10  2  0  0  0  0
  6  9  1  0  0  0  0
  6 11  1  0  0  0  0
  6 12  2  0  0  0  0
  7  9  1  0  0  0  0
  8 11  1  0  0  0  0
  9 13  1  0  0  0  0
 11 14  1  0  0  0  0
 13 15  1  0  0  0  0
M  END
> <ref_mols>
x1134_0

> <original SMILES>
CC(O)C(=O)NCC=1C=CC=CN1

> <Chemgauss4>
-9.233202

> <ref_pdb>
x0397_0

$$$$
x0402
  -OEChem-05172015543D

 20 21  0     0  0  0  0  0  0999 V2000
   13.3240   -1.6577   23.4945 C   0  0  0  0  0  0  0  0  0  0  0  0
   13.3028   -0.5389   24.3198 C   0  0  0  0  0  0  0  0  0  0  0  0
    8.6881   -4.7582   24.3809 C   0  0  0  0  0  0  0  0  0  0  0  0
    6.3492   -4.6480   24.9763 C   0  0  0  0  0  0  0  0  0  0  0  0
    8.9499   -5.4828   25.5437 C   0  0  0  0  0  0  0  0  0  0  0  0
    6.6110   -5.3726   26.1390 C   0  0  0  0  0  0  0  0  0  0  0  0
   12.1394   -2.1259   22.9369 C   0  0  0  0  0  0  0  0  0  0  0  0
   12.0810    0.0709   24.5545 C   0  0  0  0  0  0  0  0  0  0  0  0
    7.3877   -4.3408   24.0972 C   0  0  0  0  0  0  0  0  0  0  0  0
    7.9114   -5.7900   26.4227 C   0  0  0  0  0  0  0  0  0  0  0  0
   10.9696   -1.4452   23.2337 C   0  0  0  0  0  0  0  0  0  0  0  0
    9.6740   -1.9004   22.6668 C   0  0  0  0  0  0  0  0  0  0  0  0
    7.1075   -3.5666   22.8538 C   0  0  0  0  0  0  0  0  0  0  0  0
    7.2252   -2.0485   23.0370 C   0  0  0  0  0  0  0  0  0  0  0  0
   10.9097   -0.3550   24.0308 N   0  0  0  0  0  0  0  0  0  0  0  0
    8.5468   -1.6472   23.4387 N   0  0  0  0  0  0  0  0  0  0  0  0
    9.6635   -2.4802   21.5841 O   0  0  0  0  0  0  0  0  0  0  0  0
    8.1669   -6.4982   27.5567 O   0  0  0  0  0  0  0  0  0  0  0  0
    8.6472   -1.2166   24.3556 H   0  0  0  0  0  0  0  0  0  0  0  0
    7.3489   -6.6313   28.0616 H   0  0  0  0  0  0  0  0  0  0  0  0
  1  2  1  0  0  0  0
  1  7  2  0  0  0  0
  2  8  2  0  0  0  0
  3  5  2  0  0  0  0
  3  9  1  0  0  0  0
  4  6  1  0  0  0  0
  4  9  2  0  0  0  0
  5 10  1  0  0  0  0
  6 10  2  0  0  0  0
  7 11  1  0  0  0  0
  8 15  1  0  0  0  0
  9 13  1  0  0  0  0
 10 18  1  0  0  0  0
 11 12  1  0  0  0  0
 11 15  2  0  0  0  0
 12 16  1  0  0  0  0
 12 17  2  0  0  0  0
 13 14  1  0  0  0  0
 14 16  1  0  0  0  0
 16 19  1  0  0  0  0
 18 20  1  0  0  0  0
M  END
> <ref_mols>
x0402_0

> <original SMILES>
OC=1C=CC(CCNC(=O)C=2C=CC=CN2)=CC1

> <Chemgauss4>
-9.227078

> <ref_pdb>
x0072_0

$$$$
x2577
  -OEChem-05172015543D

 27 29  0     0  0  0  0  0  0999 V2000
    9.0805   -1.2653   24.4223 C   0  0  0  0  0  0  0  0  0  0  0  0
   10.0714   -2.0296   22.3557 C   0  0  0  0  0  0  0  0  0  0  0  0
    8.1936   -2.3415   24.3951 C   0  0  0  0  0  0  0  0  0  0  0  0
    9.1844   -3.1059   22.3284 C   0  0  0  0  0  0  0  0  0  0  0  0
   10.0194   -1.1094   23.4026 C   0  0  0  0  0  0  0  0  0  0  0  0
    8.2455   -3.2618   23.3482 C   0  0  0  0  0  0  0  0  0  0  0  0
   10.2285    7.8314   24.7270 C   0  0  0  0  0  0  0  0  0  0  0  0
   11.0535    6.9046   25.6096 C   0  0  0  0  0  0  0  0  0  0  0  0
    9.0532    7.1231   24.0573 C   0  0  0  0  0  0  0  0  0  0  0  0
   12.0345    5.9802   24.8926 C   0  0  0  0  0  0  0  0  0  0  0  0
   10.5957    1.8585   24.9454 C   0  0  0  0  0  0  0  0  0  0  0  0
   10.3148    2.1177   22.4425 C   0  0  0  0  0  0  0  0  0  0  0  0
   11.3659    0.5637   24.6834 C   0  0  0  0  0  0  0  0  0  0  0  0
   11.0905    0.8107   22.2463 C   0  0  0  0  0  0  0  0  0  0  0  0
    9.4122    6.2902   22.8379 C   0  0  0  0  0  0  0  0  0  0  0  0
   11.7882    5.6496   23.4283 C   0  0  0  0  0  0  0  0  0  0  0  0
   10.7164    2.8210   23.7508 C   0  0  0  0  0  0  0  0  0  0  0  0
    9.8719    4.0730   23.9754 C   0  0  0  0  0  0  0  0  0  0  0  0
   10.9042   -0.0363   23.4292 N   0  0  0  0  0  0  0  0  0  0  0  0
    5.8321   -3.9339   22.4379 N   0  0  0  0  0  0  0  0  0  0  0  0
   10.3950    5.1842   23.1104 N   0  3  0  0  0  0  0  0  0  0  0  0
    7.7314   -5.6750   22.5202 O   0  0  0  0  0  0  0  0  0  0  0  0
    6.6935   -4.8799   24.6739 O   0  0  0  0  0  0  0  0  0  0  0  0
    7.1353   -4.6088   23.3130 S   0  0  0  0  0  0  0  0  0  0  0  0
    5.6749   -4.2628   21.4774 H   0  0  0  0  0  0  0  0  0  0  0  0
    4.9679   -3.7187   22.9497 H   0  0  0  0  0  0  0  0  0  0  0  0
   10.5092    4.6999   22.1399 H   0  0  0  0  0  0  0  0  0  0  0  0
  1  3  2  0  0  0  0
  1  5  1  0  0  0  0
  2  4  1  0  0  0  0
  2  5  2  0  0  0  0
  3  6  1  0  0  0  0
  4  6  2  0  0  0  0
  5 19  1  0  0  0  0
  6 24  1  0  0  0  0
  7  8  1  0  0  0  0
  7  9  1  0  0  0  0
  8 10  1  0  0  0  0
  9 15  1  0  0  0  0
 10 16  1  0  0  0  0
 11 13  1  0  0  0  0
 11 17  1  0  0  0  0
 12 14  1  0  0  0  0
 12 17  1  0  0  0  0
 13 19  1  0  0  0  0
 14 19  1  0  0  0  0
 15 21  1  0  0  0  0
 16 21  1  0  0  0  0
 17 18  1  0  0  0  0
 18 21  1  0  0  0  0
 20 24  1  0  0  0  0
 22 24  2  0  0  0  0
 23 24  2  0  0  0  0
 20 25  1  0  0  0  0
 20 26  1  0  0  0  0
 21 27  1  0  0  0  0
M  CHG  1  21   1
M  END
> <ref_mols>
x2577_0

> <original SMILES>
NS(=O)(=O)C=1C=CC(=CC1)N2CCC(CN3CCCCCC3)CC2

> <Chemgauss4>
-9.220327

> <ref_pdb>
x0104_0

$$$$
x2807
  -OEChem-05172015543D

 24 25  0     0  0  0  0  0  0999 V2000
    6.0644    0.5954   17.2907 C   0  0  0  0  0  0  0  0  0  0  0  0
    7.1731   -0.0138   17.8677 C   0  0  0  0  0  0  0  0  0  0  0  0
    5.0573    1.1054   18.1024 C   0  0  0  0  0  0  0  0  0  0  0  0
   12.9790   -1.7024   23.1375 C   0  0  0  0  0  0  0  0  0  0  0  0
   13.1906    0.4155   23.1425 C   0  0  0  0  0  0  0  0  0  0  0  0
   11.7222   -1.2069   22.8817 C   0  0  0  0  0  0  0  0  0  0  0  0
    7.2266   -0.0873   19.2502 C   0  0  0  0  0  0  0  0  0  0  0  0
    5.2054    0.9816   19.4745 C   0  0  0  0  0  0  0  0  0  0  0  0
    8.6332   -0.8999   21.1846 C   0  0  0  0  0  0  0  0  0  0  0  0
   10.8438    1.1391   22.6688 C   0  0  0  0  0  0  0  0  0  0  0  0
   10.4100   -1.8937   22.6352 C   0  0  0  0  0  0  0  0  0  0  0  0
    4.4265    1.3226   21.6955 C   0  0  0  0  0  0  0  0  0  0  0  0
    3.2432    1.8883   22.4454 C   0  0  0  0  0  0  0  0  0  0  0  0
   13.8884   -0.6874   23.2992 N   0  0  0  0  0  0  0  0  0  0  0  0
    6.2678    0.3964   20.0715 N   0  0  0  0  0  0  0  0  0  0  0  0
   11.8735    0.1511   22.8884 N   0  0  0  0  0  0  0  0  0  0  0  0
    8.3470   -0.7022   19.8217 N   0  0  0  0  0  0  0  0  0  0  0  0
    9.8577   -1.5568   21.3433 N   0  0  0  0  0  0  0  0  0  0  0  0
    7.9280   -0.5564   22.1302 O   0  0  0  0  0  0  0  0  0  0  0  0
    4.2255    1.4754   20.2955 O   0  0  0  0  0  0  0  0  0  0  0  0
    3.2176    1.3944   23.7075 F   0  0  0  0  0  0  0  0  0  0  0  0
    3.3614    3.2347   22.5474 F   0  0  0  0  0  0  0  0  0  0  0  0
    9.0534   -1.0570   19.1719 H   0  0  0  0  0  0  0  0  0  0  0  0
   10.3830   -1.8086   20.5120 H   0  0  0  0  0  0  0  0  0  0  0  0
  1  2  2  0  0  0  0
  1  3  1  0  0  0  0
  2  7  1  0  0  0  0
  3  8  2  0  0  0  0
  4  6  2  0  0  0  0
  4 14  1  0  0  0  0
  5 14  2  0  0  0  0
  5 16  1  0  0  0  0
  6 11  1  0  0  0  0
  6 16  1  0  0  0  0
  7 15  2  0  0  0  0
  7 17  1  0  0  0  0
  8 15  1  0  0  0  0
  8 20  1  0  0  0  0
  9 17  1  0  0  0  0
  9 18  1  0  0  0  0
  9 19  2  0  0  0  0
 10 16  1  0  0  0  0
 11 18  1  0  0  0  0
 12 13  1  0  0  0  0
 12 20  1  0  0  0  0
 13 21  1  0  0  0  0
 13 22  1  0  0  0  0
 17 23  1  0  0  0  0
 18 24  1  0  0  0  0
M  END
> <ref_mols>
x2807_0

> <original SMILES>
CN1C=NC=C1CNC(=O)NC=2C=CC=C(OCC(F)F)N2

> <Chemgauss4>
-9.207413

> <ref_pdb>
x1093_0

$$$$
x1163
  -OEChem-05172015543D

 17 18  0     1  0  0  0  0  0999 V2000
   13.9785   -0.8190   24.2656 C   0  0  0  0  0  0  0  0  0  0  0  0
   13.9406   -1.8305   23.3060 C   0  0  0  0  0  0  0  0  0  0  0  0
   12.8145   -0.1228   24.5916 C   0  0  0  0  0  0  0  0  0  0  0  0
   12.7387   -2.1459   22.6722 C   0  0  0  0  0  0  0  0  0  0  0  0
   11.6127   -0.4382   23.9578 C   0  0  0  0  0  0  0  0  0  0  0  0
   11.5747   -1.4497   22.9981 C   0  0  0  0  0  0  0  0  0  0  0  0
   10.5384    0.4286   21.1937 C   0  0  0  0  0  0  0  0  0  0  0  0
    8.6059   -1.0282   20.6251 C   0  0  0  0  0  0  0  0  0  0  0  0
   10.3176    1.1327   19.8663 C   0  0  0  0  0  0  0  0  0  0  0  0
    8.4826   -0.2518   19.3171 C   0  0  1  0  0  0  0  0  0  0  0  0
   10.2817   -1.7883   22.3167 C   0  0  0  0  0  0  0  0  0  0  0  0
    7.0317   -0.1912   18.8603 C   0  0  0  0  0  0  0  0  0  0  0  0
   10.0523   -0.9950   21.0622 N   0  3  2  0  0  0  0  0  0  0  0  0
    8.9375    1.0937   19.5015 O   0  0  0  0  0  0  0  0  0  0  0  0
    6.9667    0.5462   17.6521 O   0  0  0  0  0  0  0  0  0  0  0  0
   10.6090   -1.4458   20.3229 H   0  0  0  0  0  0  0  0  0  0  0  0
    6.0328    0.5697   17.3831 H   0  0  0  0  0  0  0  0  0  0  0  0
  1  2  1  0  0  0  0
  1  3  2  0  0  0  0
  2  4  2  0  0  0  0
  3  5  1  0  0  0  0
  4  6  1  0  0  0  0
  5  6  2  0  0  0  0
  6 11  1  0  0  0  0
  7  9  1  0  0  0  0
  7 13  1  0  0  0  0
  8 10  1  0  0  0  0
  8 13  1  0  0  0  0
  9 14  1  0  0  0  0
 10 12  1  0  0  0  0
 10 14  1  0  0  0  0
 11 13  1  0  0  0  0
 12 15  1  0  0  0  0
 13 16  1  0  0  0  0
 15 17  1  0  0  0  0
M  CHG  1  13   1
M  END
> <ref_mols>
x1163_0

> <original SMILES>
OCC1CN(CC=2C=CC=CC2)CCO1

> <Chemgauss4>
-9.206902

> <ref_pdb>
x0678_0

$$$$
x0574
  -OEChem-05172015543D

 17 18  0     1  0  0  0  0  0999 V2000
   13.9785   -0.8190   24.2656 C   0  0  0  0  0  0  0  0  0  0  0  0
   13.9406   -1.8305   23.3060 C   0  0  0  0  0  0  0  0  0  0  0  0
   12.8145   -0.1228   24.5916 C   0  0  0  0  0  0  0  0  0  0  0  0
   12.7387   -2.1459   22.6722 C   0  0  0  0  0  0  0  0  0  0  0  0
   11.6127   -0.4382   23.9578 C   0  0  0  0  0  0  0  0  0  0  0  0
   11.5747   -1.4497   22.9981 C   0  0  0  0  0  0  0  0  0  0  0  0
   10.5384    0.4286   21.1937 C   0  0  0  0  0  0  0  0  0  0  0  0
    8.6059   -1.0282   20.6251 C   0  0  0  0  0  0  0  0  0  0  0  0
   10.3176    1.1327   19.8663 C   0  0  0  0  0  0  0  0  0  0  0  0
    8.4826   -0.2518   19.3171 C   0  0  1  0  0  0  0  0  0  0  0  0
   10.2817   -1.7883   22.3167 C   0  0  0  0  0  0  0  0  0  0  0  0
    7.0317   -0.1912   18.8603 C   0  0  0  0  0  0  0  0  0  0  0  0
   10.0523   -0.9950   21.0622 N   0  3  2  0  0  0  0  0  0  0  0  0
    8.9375    1.0937   19.5015 O   0  0  0  0  0  0  0  0  0  0  0  0
    6.9667    0.5462   17.6521 O   0  0  0  0  0  0  0  0  0  0  0  0
   10.6090   -1.4458   20.3229 H   0  0  0  0  0  0  0  0  0  0  0  0
    6.0328    0.5697   17.3831 H   0  0  0  0  0  0  0  0  0  0  0  0
  1  2  1  0  0  0  0
  1  3  2  0  0  0  0
  2  4  2  0  0  0  0
  3  5  1  0  0  0  0
  4  6  1  0  0  0  0
  5  6  2  0  0  0  0
  6 11  1  0  0  0  0
  7  9  1  0  0  0  0
  7 13  1  0  0  0  0
  8 10  1  0  0  0  0
  8 13  1  0  0  0  0
  9 14  1  0  0  0  0
 10 12  1  0  0  0  0
 10 14  1  0  0  0  0
 11 13  1  0  0  0  0
 12 15  1  0  0  0  0
 13 16  1  0  0  0  0
 15 17  1  0  0  0  0
M  CHG  1  13   1
M  END
> <ref_mols>
x0574_0

> <original SMILES>
OCC1CN(CC=2C=CC=CC2)CCO1

> <Chemgauss4>
-9.206902

> <ref_pdb>
x0678_0

$$$$
x2799
  -OEChem-05172015543D

 24 26  0     0  0  0  0  0  0999 V2000
   13.5587   -0.5307   21.9378 C   0  0  0  0  0  0  0  0  0  0  0  0
   12.7746   -1.6336   22.2521 C   0  0  0  0  0  0  0  0  0  0  0  0
   13.1370    0.7416   22.3132 C   0  0  0  0  0  0  0  0  0  0  0  0
   11.5711   -1.4621   22.9407 C   0  0  0  0  0  0  0  0  0  0  0  0
   10.2782    2.3199   24.0787 C   0  0  0  0  0  0  0  0  0  0  0  0
    6.9236    5.1618   22.6969 C   0  0  0  0  0  0  0  0  0  0  0  0
    7.2090    5.7832   21.5040 C   0  0  0  0  0  0  0  0  0  0  0  0
   11.9265    0.9138   23.0059 C   0  0  0  0  0  0  0  0  0  0  0  0
   11.4781    2.1831   23.3957 C   0  0  0  0  0  0  0  0  0  0  0  0
   11.1253   -0.2015   23.3284 C   0  0  0  0  0  0  0  0  0  0  0  0
    9.5634    1.1708   24.3494 C   0  0  0  0  0  0  0  0  0  0  0  0
    8.8324    6.0638   22.9678 C   0  0  0  0  0  0  0  0  0  0  0  0
   11.0593    5.4240   23.9722 C   0  0  0  0  0  0  0  0  0  0  0  0
    7.6778    0.0560   25.2754 C   0  0  0  0  0  0  0  0  0  0  0  0
   12.2543    3.4282   23.1012 C   0  0  0  0  0  0  0  0  0  0  0  0
   10.1522    6.5472   23.5077 C   0  0  0  0  0  0  0  0  0  0  0  0
    7.9379    5.3404   23.6040 N   0  0  0  0  0  0  0  0  0  0  0  0
    9.9604   -0.0718   23.9911 N   0  0  0  0  0  0  0  0  0  0  0  0
    8.4347    6.3570   21.6930 N   0  0  0  0  0  0  0  0  0  0  0  0
   11.3991    4.5723   22.9270 N   0  0  0  0  0  0  0  0  0  0  0  0
   11.4421    5.2976   25.1325 O   0  0  0  0  0  0  0  0  0  0  0  0
    8.3739    1.2706   25.0222 O   0  0  0  0  0  0  0  0  0  0  0  0
    8.9529    6.8968   21.0124 H   0  0  0  0  0  0  0  0  0  0  0  0
   11.0271    4.7664   21.9992 H   0  0  0  0  0  0  0  0  0  0  0  0
  1  2  1  0  0  0  0
  1  3  2  0  0  0  0
  2  4  2  0  0  0  0
  3  8  1  0  0  0  0
  4 10  1  0  0  0  0
  5  9  2  0  0  0  0
  5 11  1  0  0  0  0
  6  7  2  0  0  0  0
  6 17  1  0  0  0  0
  7 19  1  0  0  0  0
  8  9  1  0  0  0  0
  8 10  2  0  0  0  0
  9 15  1  0  0  0  0
 10 18  1  0  0  0  0
 11 18  2  0  0  0  0
 11 22  1  0  0  0  0
 12 16  1  0  0  0  0
 12 17  2  0  0  0  0
 12 19  1  0  0  0  0
 13 16  1  0  0  0  0
 13 20  1  0  0  0  0
 13 21  2  0  0  0  0
 14 22  1  0  0  0  0
 15 20  1  0  0  0  0
 19 23  1  0  0  0  0
 20 24  1  0  0  0  0
M  END
> <ref_mols>
x2799_0

> <original SMILES>
COC=1C=C(CNC(=O)CC2=NC=CN2)C=3C=CC=CC3N1

> <Chemgauss4>
-9.205212

> <ref_pdb>
x0104_0

$$$$
x2886
  -OEChem-05172015543D

 21 23  0     1  0  0  0  0  0999 V2000
   13.6811   -1.2046   24.8648 C   0  0  0  0  0  0  0  0  0  0  0  0
   12.8396   -0.3523   24.1597 C   0  0  0  0  0  0  0  0  0  0  0  0
   13.2758   -2.5097   25.1359 C   0  0  0  0  0  0  0  0  0  0  0  0
   11.5986   -0.8092   23.7148 C   0  0  0  0  0  0  0  0  0  0  0  0
    6.3289   -5.4212   22.5985 C   0  0  0  0  0  0  0  0  0  0  0  0
    7.6846   -5.3510   22.3805 C   0  0  0  0  0  0  0  0  0  0  0  0
    7.0863   -4.1512   24.1295 C   0  0  0  0  0  0  0  0  0  0  0  0
   12.0232   -2.9776   24.7053 C   0  0  0  0  0  0  0  0  0  0  0  0
   11.1812   -2.1311   23.9574 C   0  0  0  0  0  0  0  0  0  0  0  0
    7.1203   -1.1108   19.6518 C   0  0  0  0  0  0  0  0  0  0  0  0
    8.2655   -1.4419   20.2558 C   0  0  0  0  0  0  0  0  0  0  0  0
    8.2708   -1.8568   21.6840 C   0  0  0  0  0  0  0  0  0  0  0  0
   11.6392   -4.3994   25.0244 C   0  0  0  0  0  0  0  0  0  0  0  0
   10.1356   -4.6405   24.9298 C   0  0  0  0  0  0  0  0  0  0  0  0
    9.8120   -2.5917   23.4819 C   0  0  2  0  0  0  0  0  0  0  0  0
    9.6049   -4.1243   23.5844 C   0  0  2  0  0  0  0  0  0  0  0  0
    5.9627   -4.6719   23.6885 N   0  0  0  0  0  0  0  0  0  0  0  0
    8.1561   -4.5336   23.3688 N   0  0  0  0  0  0  0  0  0  0  0  0
    9.5457   -2.1582   22.1243 N   0  0  0  0  0  0  0  0  0  0  0  0
    7.2474   -1.9158   22.3581 O   0  0  0  0  0  0  0  0  0  0  0  0
   10.3336   -2.1119   21.4879 H   0  0  0  0  0  0  0  0  0  0  0  0
  1  2  2  0  0  0  0
  1  3  1  0  0  0  0
  2  4  1  0  0  0  0
  3  8  2  0  0  0  0
  4  9  2  0  0  0  0
  5  6  2  0  0  0  0
  5 17  1  0  0  0  0
  6 18  1  0  0  0  0
  7 17  2  0  0  0  0
  7 18  1  0  0  0  0
  8  9  1  0  0  0  0
  8 13  1  0  0  0  0
  9 15  1  0  0  0  0
 10 11  2  0  0  0  0
 11 12  1  0  0  0  0
 12 19  1  0  0  0  0
 12 20  2  0  0  0  0
 13 14  1  0  0  0  0
 14 16  1  0  0  0  0
 15 16  1  0  0  0  0
 15 19  1  0  0  0  0
 16 18  1  0  0  0  0
 19 21  1  0  0  0  0
M  END
> <ref_mols>
x2886_0

> <original SMILES>
C=CC(NC(C(CC1)n2cncc2)c2c1cccc2)=O

> <Chemgauss4>
-9.200043

> <ref_pdb>
x0749_0

$$$$
x0733
  -OEChem-05172015543D

 19 20  0     0  0  0  0  0  0999 V2000
   11.5792   -3.7348   25.1179 C   0  0  0  0  0  0  0  0  0  0  0  0
   10.8965   -1.4430   24.7732 C   0  0  0  0  0  0  0  0  0  0  0  0
   12.7202   -3.2940   25.7883 C   0  0  0  0  0  0  0  0  0  0  0  0
   12.0374   -1.0023   25.4437 C   0  0  0  0  0  0  0  0  0  0  0  0
   10.6673   -2.8093   24.6103 C   0  0  0  0  0  0  0  0  0  0  0  0
   12.9493   -1.9278   25.9513 C   0  0  0  0  0  0  0  0  0  0  0  0
    6.1567   -4.6685   21.7059 C   0  0  0  0  0  0  0  0  0  0  0  0
    8.5427   -4.1054   24.6038 C   0  0  0  0  0  0  0  0  0  0  0  0
    9.2668   -2.8346   22.5585 C   0  0  0  0  0  0  0  0  0  0  0  0
    7.8136   -4.9835   23.5867 C   0  0  0  0  0  0  0  0  0  0  0  0
    7.7710   -2.8847   22.2548 C   0  0  0  0  0  0  0  0  0  0  0  0
    5.6358   -6.0493   22.0212 C   0  0  0  0  0  0  0  0  0  0  0  0
    9.5288   -3.2496   23.9395 N   0  0  0  0  0  0  0  0  0  0  0  0
    7.2082   -4.2100   22.5003 N   0  0  0  0  0  0  0  0  0  0  0  0
   14.1081   -1.4783   26.6379 N   0  0  0  0  0  0  0  0  0  0  0  0
    5.6459   -4.0184   20.7908 O   0  0  0  0  0  0  0  0  0  0  0  0
   14.9139   -2.3268   27.0908 O   0  0  0  0  0  0  0  0  0  0  0  0
   14.2948   -0.2448   26.7728 O   0  0  0  0  0  0  0  0  0  0  0  0
    4.3788   -5.8469   23.2358 Cl  0  0  0  0  0  0  0  0  0  0  0  0
  1  3  2  0  0  0  0
  1  5  1  0  0  0  0
  2  4  1  0  0  0  0
  2  5  2  0  0  0  0
  3  6  1  0  0  0  0
  4  6  2  0  0  0  0
  5 13  1  0  0  0  0
  6 15  1  0  0  0  0
  7 12  1  0  0  0  0
  7 14  1  0  0  0  0
  7 16  2  0  0  0  0
  8 10  1  0  0  0  0
  8 13  1  0  0  0  0
  9 11  1  0  0  0  0
  9 13  1  0  0  0  0
 10 14  1  0  0  0  0
 11 14  1  0  0  0  0
 12 19  1  0  0  0  0
 15 17  2  0  0  0  0
 15 18  2  0  0  0  0
M  END
> <ref_mols>
x0733_0

> <original SMILES>
[O-][N+](=O)c1ccc(cc1)N2CCN(CC2)C(=O)CCl

> <Chemgauss4>
-9.195665

> <ref_pdb>
x0749_0

$$$$
x1430
  -OEChem-05172015543D

 19 20  0     0  0  0  0  0  0999 V2000
   11.5792   -3.7348   25.1179 C   0  0  0  0  0  0  0  0  0  0  0  0
   10.8965   -1.4430   24.7732 C   0  0  0  0  0  0  0  0  0  0  0  0
   12.7202   -3.2940   25.7883 C   0  0  0  0  0  0  0  0  0  0  0  0
   12.0374   -1.0023   25.4437 C   0  0  0  0  0  0  0  0  0  0  0  0
   10.6673   -2.8093   24.6103 C   0  0  0  0  0  0  0  0  0  0  0  0
   12.9493   -1.9278   25.9513 C   0  0  0  0  0  0  0  0  0  0  0  0
    6.1567   -4.6685   21.7059 C   0  0  0  0  0  0  0  0  0  0  0  0
    8.5427   -4.1054   24.6038 C   0  0  0  0  0  0  0  0  0  0  0  0
    9.2668   -2.8346   22.5585 C   0  0  0  0  0  0  0  0  0  0  0  0
    7.8136   -4.9835   23.5867 C   0  0  0  0  0  0  0  0  0  0  0  0
    7.7710   -2.8847   22.2548 C   0  0  0  0  0  0  0  0  0  0  0  0
    5.6358   -6.0493   22.0212 C   0  0  0  0  0  0  0  0  0  0  0  0
    9.5288   -3.2496   23.9395 N   0  0  0  0  0  0  0  0  0  0  0  0
    7.2082   -4.2100   22.5003 N   0  0  0  0  0  0  0  0  0  0  0  0
   14.1081   -1.4783   26.6379 N   0  0  0  0  0  0  0  0  0  0  0  0
    5.6459   -4.0184   20.7908 O   0  0  0  0  0  0  0  0  0  0  0  0
   14.9139   -2.3268   27.0908 O   0  0  0  0  0  0  0  0  0  0  0  0
   14.2948   -0.2448   26.7728 O   0  0  0  0  0  0  0  0  0  0  0  0
    4.3788   -5.8469   23.2358 Cl  0  0  0  0  0  0  0  0  0  0  0  0
  1  3  2  0  0  0  0
  1  5  1  0  0  0  0
  2  4  1  0  0  0  0
  2  5  2  0  0  0  0
  3  6  1  0  0  0  0
  4  6  2  0  0  0  0
  5 13  1  0  0  0  0
  6 15  1  0  0  0  0
  7 12  1  0  0  0  0
  7 14  1  0  0  0  0
  7 16  2  0  0  0  0
  8 10  1  0  0  0  0
  8 13  1  0  0  0  0
  9 11  1  0  0  0  0
  9 13  1  0  0  0  0
 10 14  1  0  0  0  0
 11 14  1  0  0  0  0
 12 19  1  0  0  0  0
 15 17  2  0  0  0  0
 15 18  2  0  0  0  0
M  END
> <ref_mols>
x1430_0

> <original SMILES>
[O-][N+](=O)c1ccc(cc1)N2CCN(CC2)C(=O)CCl

> <Chemgauss4>
-9.195665

> <ref_pdb>
x0749_0

$$$$
x1378
  -OEChem-05172015543D

 19 20  0     0  0  0  0  0  0999 V2000
   11.5792   -3.7348   25.1179 C   0  0  0  0  0  0  0  0  0  0  0  0
   10.8965   -1.4430   24.7732 C   0  0  0  0  0  0  0  0  0  0  0  0
   12.7202   -3.2940   25.7883 C   0  0  0  0  0  0  0  0  0  0  0  0
   12.0374   -1.0023   25.4437 C   0  0  0  0  0  0  0  0  0  0  0  0
   10.6673   -2.8093   24.6103 C   0  0  0  0  0  0  0  0  0  0  0  0
   12.9493   -1.9278   25.9513 C   0  0  0  0  0  0  0  0  0  0  0  0
    6.1567   -4.6685   21.7059 C   0  0  0  0  0  0  0  0  0  0  0  0
    8.5427   -4.1054   24.6038 C   0  0  0  0  0  0  0  0  0  0  0  0
    9.2668   -2.8346   22.5585 C   0  0  0  0  0  0  0  0  0  0  0  0
    7.8136   -4.9835   23.5867 C   0  0  0  0  0  0  0  0  0  0  0  0
    7.7710   -2.8847   22.2548 C   0  0  0  0  0  0  0  0  0  0  0  0
    5.6358   -6.0493   22.0212 C   0  0  0  0  0  0  0  0  0  0  0  0
    9.5288   -3.2496   23.9395 N   0  0  0  0  0  0  0  0  0  0  0  0
    7.2082   -4.2100   22.5003 N   0  0  0  0  0  0  0  0  0  0  0  0
   14.1081   -1.4783   26.6379 N   0  0  0  0  0  0  0  0  0  0  0  0
    5.6459   -4.0184   20.7908 O   0  0  0  0  0  0  0  0  0  0  0  0
   14.9139   -2.3268   27.0908 O   0  0  0  0  0  0  0  0  0  0  0  0
   14.2948   -0.2448   26.7728 O   0  0  0  0  0  0  0  0  0  0  0  0
    4.3788   -5.8469   23.2358 Cl  0  0  0  0  0  0  0  0  0  0  0  0
  1  3  2  0  0  0  0
  1  5  1  0  0  0  0
  2  4  1  0  0  0  0
  2  5  2  0  0  0  0
  3  6  1  0  0  0  0
  4  6  2  0  0  0  0
  5 13  1  0  0  0  0
  6 15  1  0  0  0  0
  7 12  1  0  0  0  0
  7 14  1  0  0  0  0
  7 16  2  0  0  0  0
  8 10  1  0  0  0  0
  8 13  1  0  0  0  0
  9 11  1  0  0  0  0
  9 13  1  0  0  0  0
 10 14  1  0  0  0  0
 11 14  1  0  0  0  0
 12 19  1  0  0  0  0
 15 17  2  0  0  0  0
 15 18  2  0  0  0  0
M  END
> <ref_mols>
x1378_0

> <original SMILES>
[O-][N+](=O)c1ccc(cc1)N2CCN(CC2)C(=O)CCl

> <Chemgauss4>
-9.195665

> <ref_pdb>
x0749_0

$$$$
x1403
  -OEChem-05172015543D

 19 20  0     0  0  0  0  0  0999 V2000
   11.5792   -3.7348   25.1179 C   0  0  0  0  0  0  0  0  0  0  0  0
   10.8965   -1.4430   24.7732 C   0  0  0  0  0  0  0  0  0  0  0  0
   12.7202   -3.2940   25.7883 C   0  0  0  0  0  0  0  0  0  0  0  0
   12.0374   -1.0023   25.4437 C   0  0  0  0  0  0  0  0  0  0  0  0
   10.6673   -2.8093   24.6103 C   0  0  0  0  0  0  0  0  0  0  0  0
   12.9493   -1.9278   25.9513 C   0  0  0  0  0  0  0  0  0  0  0  0
    6.1567   -4.6685   21.7059 C   0  0  0  0  0  0  0  0  0  0  0  0
    8.5427   -4.1054   24.6038 C   0  0  0  0  0  0  0  0  0  0  0  0
    9.2668   -2.8346   22.5585 C   0  0  0  0  0  0  0  0  0  0  0  0
    7.8136   -4.9835   23.5867 C   0  0  0  0  0  0  0  0  0  0  0  0
    7.7710   -2.8847   22.2548 C   0  0  0  0  0  0  0  0  0  0  0  0
    5.6358   -6.0493   22.0212 C   0  0  0  0  0  0  0  0  0  0  0  0
    9.5288   -3.2496   23.9395 N   0  0  0  0  0  0  0  0  0  0  0  0
    7.2082   -4.2100   22.5003 N   0  0  0  0  0  0  0  0  0  0  0  0
   14.1081   -1.4783   26.6379 N   0  0  0  0  0  0  0  0  0  0  0  0
    5.6459   -4.0184   20.7908 O   0  0  0  0  0  0  0  0  0  0  0  0
   14.9139   -2.3268   27.0908 O   0  0  0  0  0  0  0  0  0  0  0  0
   14.2948   -0.2448   26.7728 O   0  0  0  0  0  0  0  0  0  0  0  0
    4.3788   -5.8469   23.2358 Cl  0  0  0  0  0  0  0  0  0  0  0  0
  1  3  2  0  0  0  0
  1  5  1  0  0  0  0
  2  4  1  0  0  0  0
  2  5  2  0  0  0  0
  3  6  1  0  0  0  0
  4  6  2  0  0  0  0
  5 13  1  0  0  0  0
  6 15  1  0  0  0  0
  7 12  1  0  0  0  0
  7 14  1  0  0  0  0
  7 16  2  0  0  0  0
  8 10  1  0  0  0  0
  8 13  1  0  0  0  0
  9 11  1  0  0  0  0
  9 13  1  0  0  0  0
 10 14  1  0  0  0  0
 11 14  1  0  0  0  0
 12 19  1  0  0  0  0
 15 17  2  0  0  0  0
 15 18  2  0  0  0  0
M  END
> <ref_mols>
x1403_0

> <original SMILES>
[O-][N+](=O)c1ccc(cc1)N2CCN(CC2)C(=O)CCl

> <Chemgauss4>
-9.195665

> <ref_pdb>
x0749_0

$$$$
x0807
  -OEChem-05172015543D

 19 20  0     0  0  0  0  0  0999 V2000
   11.5792   -3.7348   25.1179 C   0  0  0  0  0  0  0  0  0  0  0  0
   10.8965   -1.4430   24.7732 C   0  0  0  0  0  0  0  0  0  0  0  0
   12.7202   -3.2940   25.7883 C   0  0  0  0  0  0  0  0  0  0  0  0
   12.0374   -1.0023   25.4437 C   0  0  0  0  0  0  0  0  0  0  0  0
   10.6673   -2.8093   24.6103 C   0  0  0  0  0  0  0  0  0  0  0  0
   12.9493   -1.9278   25.9513 C   0  0  0  0  0  0  0  0  0  0  0  0
    6.1567   -4.6685   21.7059 C   0  0  0  0  0  0  0  0  0  0  0  0
    8.5427   -4.1054   24.6038 C   0  0  0  0  0  0  0  0  0  0  0  0
    9.2668   -2.8346   22.5585 C   0  0  0  0  0  0  0  0  0  0  0  0
    7.8136   -4.9835   23.5867 C   0  0  0  0  0  0  0  0  0  0  0  0
    7.7710   -2.8847   22.2548 C   0  0  0  0  0  0  0  0  0  0  0  0
    5.6358   -6.0493   22.0212 C   0  0  0  0  0  0  0  0  0  0  0  0
    9.5288   -3.2496   23.9395 N   0  0  0  0  0  0  0  0  0  0  0  0
    7.2082   -4.2100   22.5003 N   0  0  0  0  0  0  0  0  0  0  0  0
   14.1081   -1.4783   26.6379 N   0  0  0  0  0  0  0  0  0  0  0  0
    5.6459   -4.0184   20.7908 O   0  0  0  0  0  0  0  0  0  0  0  0
   14.9139   -2.3268   27.0908 O   0  0  0  0  0  0  0  0  0  0  0  0
   14.2948   -0.2448   26.7728 O   0  0  0  0  0  0  0  0  0  0  0  0
    4.3788   -5.8469   23.2358 Cl  0  0  0  0  0  0  0  0  0  0  0  0
  1  3  2  0  0  0  0
  1  5  1  0  0  0  0
  2  4  1  0  0  0  0
  2  5  2  0  0  0  0
  3  6  1  0  0  0  0
  4  6  2  0  0  0  0
  5 13  1  0  0  0  0
  6 15  1  0  0  0  0
  7 12  1  0  0  0  0
  7 14  1  0  0  0  0
  7 16  2  0  0  0  0
  8 10  1  0  0  0  0
  8 13  1  0  0  0  0
  9 11  1  0  0  0  0
  9 13  1  0  0  0  0
 10 14  1  0  0  0  0
 11 14  1  0  0  0  0
 12 19  1  0  0  0  0
 15 17  2  0  0  0  0
 15 18  2  0  0  0  0
M  END
> <ref_mols>
x0807_0

> <original SMILES>
[O-][N+](=O)c1ccc(cc1)N2CCN(CC2)C(=O)CCl

> <Chemgauss4>
-9.195665

> <ref_pdb>
x0749_0

$$$$
x2901
  -OEChem-05172015543D

 19 20  0     0  0  0  0  0  0999 V2000
    8.9034   -5.8175   23.4499 C   0  0  0  0  0  0  0  0  0  0  0  0
    9.9409   -5.0112   23.9300 C   0  0  0  0  0  0  0  0  0  0  0  0
    8.0522   -3.9670   22.1841 C   0  0  0  0  0  0  0  0  0  0  0  0
    7.9570   -5.2959   22.5799 C   0  0  0  0  0  0  0  0  0  0  0  0
    9.0837   -3.1419   22.6694 C   0  0  0  0  0  0  0  0  0  0  0  0
   10.0500   -3.6571   23.5645 C   0  0  0  0  0  0  0  0  0  0  0  0
   14.0138   -2.4733   26.1921 C   0  0  0  0  0  0  0  0  0  0  0  0
   13.3645   -2.6638   25.0417 C   0  0  0  0  0  0  0  0  0  0  0  0
    6.8849   -6.1371   22.0724 C   0  0  0  0  0  0  0  0  0  0  0  0
   11.9893   -3.2133   25.0787 C   0  0  0  0  0  0  0  0  0  0  0  0
    9.1342   -1.7242   22.1635 C   0  0  0  0  0  0  0  0  0  0  0  0
    9.9426   -0.8427   23.0933 C   0  0  0  0  0  0  0  0  0  0  0  0
   11.2796   -1.5022   23.3822 C   0  0  0  0  0  0  0  0  0  0  0  0
   11.1304   -2.8154   24.0407 N   0  0  0  0  0  0  0  0  0  0  0  0
    6.8501   -7.4645   22.4901 N   0  0  0  0  0  0  0  0  0  0  0  0
    6.0349   -5.6961   21.2789 O   0  0  0  0  0  0  0  0  0  0  0  0
   11.7149   -3.9631   26.0150 O   0  0  0  0  0  0  0  0  0  0  0  0
    7.5631   -7.8026   23.1273 H   0  0  0  0  0  0  0  0  0  0  0  0
    6.1271   -8.1014   22.1712 H   0  0  0  0  0  0  0  0  0  0  0  0
  1  2  1  0  0  0  0
  1  4  2  0  0  0  0
  2  6  2  0  0  0  0
  3  4  1  0  0  0  0
  3  5  2  0  0  0  0
  4  9  1  0  0  0  0
  5  6  1  0  0  0  0
  5 11  1  0  0  0  0
  6 14  1  0  0  0  0
  7  8  2  0  0  0  0
  8 10  1  0  0  0  0
  9 15  1  0  0  0  0
  9 16  2  0  0  0  0
 10 14  1  0  0  0  0
 10 17  2  0  0  0  0
 11 12  1  0  0  0  0
 12 13  1  0  0  0  0
 13 14  1  0  0  0  0
 15 18  1  0  0  0  0
 15 19  1  0  0  0  0
M  END
> <ref_mols>
x2901_0

> <original SMILES>
C=CC(N(CCC1)c(cc2)c1cc2C(N)=O)=O

> <Chemgauss4>
-9.186323

> <ref_pdb>
x0749_0

$$$$
x0260
  -OEChem-05172015543D

 20 21  0     0  0  0  0  0  0999 V2000
   12.5524   -1.4164   23.0377 C   0  0  0  0  0  0  0  0  0  0  0  0
   11.3487   -2.0654   22.7631 C   0  0  0  0  0  0  0  0  0  0  0  0
   12.6292   -0.5059   24.0917 C   0  0  0  0  0  0  0  0  0  0  0  0
   10.2985   -0.8934   24.5963 C   0  0  0  0  0  0  0  0  0  0  0  0
   10.2217   -1.8039   23.5423 C   0  0  0  0  0  0  0  0  0  0  0  0
   11.5022   -0.2444   24.8710 C   0  0  0  0  0  0  0  0  0  0  0  0
    8.9637   -2.4830   23.2552 C   0  0  0  0  0  0  0  0  0  0  0  0
    7.1933   -5.6047   27.3511 C   0  0  0  0  0  0  0  0  0  0  0  0
    9.0954   -4.5756   26.1780 C   0  0  0  0  0  0  0  0  0  0  0  0
    6.8836   -4.9083   25.0121 C   0  0  0  0  0  0  0  0  0  0  0  0
    9.7299   -4.2485   24.8272 C   0  0  0  0  0  0  0  0  0  0  0  0
    7.5672   -4.5842   23.6861 C   0  0  0  0  0  0  0  0  0  0  0  0
    7.8854   -5.4916   26.0067 C   0  0  0  0  0  0  0  0  0  0  0  0
   11.5842    0.7293   25.9979 C   0  0  0  0  0  0  0  0  0  0  0  0
    8.7283   -3.7088   23.9043 N   0  0  0  0  0  0  0  0  0  0  0  0
    7.6685   -6.6294   28.1350 N   0  0  0  0  0  0  0  0  0  0  0  0
    8.1559   -1.9837   22.4698 O   0  0  0  0  0  0  0  0  0  0  0  0
    6.3037   -4.8300   27.6946 O   0  0  0  0  0  0  0  0  0  0  0  0
    8.4164   -7.2122   27.7738 H   0  0  0  0  0  0  0  0  0  0  0  0
    7.3012   -6.8262   29.0604 H   0  0  0  0  0  0  0  0  0  0  0  0
  1  2  1  0  0  0  0
  1  3  2  0  0  0  0
  2  5  2  0  0  0  0
  3  6  1  0  0  0  0
  4  5  1  0  0  0  0
  4  6  2  0  0  0  0
  5  7  1  0  0  0  0
  6 14  1  0  0  0  0
  7 15  1  0  0  0  0
  7 17  2  0  0  0  0
  8 13  1  0  0  0  0
  8 16  1  0  0  0  0
  8 18  2  0  0  0  0
  9 11  1  0  0  0  0
  9 13  1  0  0  0  0
 10 12  1  0  0  0  0
 10 13  1  0  0  0  0
 11 15  1  0  0  0  0
 12 15  1  0  0  0  0
 16 19  1  0  0  0  0
 16 20  1  0  0  0  0
M  END
> <ref_mols>
x0260_0

> <original SMILES>
CC=1C=CC=C(C1)C(=O)N2CCC(CC2)C(=O)N

> <Chemgauss4>
-9.186310

> <ref_pdb>
x0072_0

$$$$
x0090
  -OEChem-05172015543D

 18 20  0     0  0  0  0  0  0999 V2000
   13.9348   -0.6376   25.3090 C   0  0  0  0  0  0  0  0  0  0  0  0
    5.9147   -3.4838   20.8569 C   0  0  0  0  0  0  0  0  0  0  0  0
   14.0528   -1.8163   26.0454 C   0  0  0  0  0  0  0  0  0  0  0  0
   12.8742   -0.4754   24.4176 C   0  0  0  0  0  0  0  0  0  0  0  0
    6.5104   -2.3392   21.4045 C   0  0  0  0  0  0  0  0  0  0  0  0
    6.3155   -4.7540   21.2698 C   0  0  0  0  0  0  0  0  0  0  0  0
   13.1104   -2.8328   25.8904 C   0  0  0  0  0  0  0  0  0  0  0  0
   11.9318   -1.4919   24.2626 C   0  0  0  0  0  0  0  0  0  0  0  0
    7.5148   -2.4477   22.3716 C   0  0  0  0  0  0  0  0  0  0  0  0
    7.3119   -4.8527   22.2292 C   0  0  0  0  0  0  0  0  0  0  0  0
   12.0498   -2.6707   24.9990 C   0  0  0  0  0  0  0  0  0  0  0  0
    7.9080   -3.7149   22.7766 C   0  0  0  0  0  0  0  0  0  0  0  0
    9.6757   -3.2214   24.4629 C   0  0  0  0  0  0  0  0  0  0  0  0
    7.8827   -6.1068   22.8055 C   0  0  0  0  0  0  0  0  0  0  0  0
    8.9227   -5.5654   23.7924 C   0  0  0  0  0  0  0  0  0  0  0  0
   11.0369   -3.7626   24.8318 C   0  0  0  0  0  0  0  0  0  0  0  0
    8.8846   -4.0895   23.7228 N   0  0  0  0  0  0  0  0  0  0  0  0
    9.3595   -2.0881   24.8255 O   0  0  0  0  0  0  0  0  0  0  0  0
  1  3  1  0  0  0  0
  1  4  2  0  0  0  0
  2  5  1  0  0  0  0
  2  6  2  0  0  0  0
  3  7  2  0  0  0  0
  4  8  1  0  0  0  0
  5  9  2  0  0  0  0
  6 10  1  0  0  0  0
  7 11  1  0  0  0  0
  8 11  2  0  0  0  0
  9 12  1  0  0  0  0
 10 12  2  0  0  0  0
 10 14  1  0  0  0  0
 11 16  1  0  0  0  0
 12 17  1  0  0  0  0
 13 16  1  0  0  0  0
 13 17  1  0  0  0  0
 13 18  2  0  0  0  0
 14 15  1  0  0  0  0
 15 17  1  0  0  0  0
M  END
> <ref_mols>
x0090_0

> <original SMILES>
O=C(CC=1C=CC=CC1)N2CCC=3C=CC=CC23

> <Chemgauss4>
-9.179364

> <ref_pdb>
x0749_0

$$$$
x0062
  -OEChem-05172015543D

 19 21  0     0  0  0  0  0  0999 V2000
   11.7582    0.1032   24.9605 C   0  0  0  0  0  0  0  0  0  0  0  0
   12.4702    0.2396   23.7705 C   0  0  0  0  0  0  0  0  0  0  0  0
   10.5987   -0.6788   25.0160 C   0  0  0  0  0  0  0  0  0  0  0  0
   12.0483   -0.3991   22.6009 C   0  0  0  0  0  0  0  0  0  0  0  0
    9.1366   -2.5182   22.2161 C   0  0  0  0  0  0  0  0  0  0  0  0
   10.1539   -1.3321   23.8495 C   0  0  0  0  0  0  0  0  0  0  0  0
    9.0523   -2.1806   23.5472 C   0  0  0  0  0  0  0  0  0  0  0  0
   10.8875   -1.1775   22.6712 C   0  0  0  0  0  0  0  0  0  0  0  0
    6.0155   -5.8944   26.3183 C   0  0  0  0  0  0  0  0  0  0  0  0
    8.5503   -3.3736   25.7322 C   0  0  0  0  0  0  0  0  0  0  0  0
    6.8976   -3.4970   23.8202 C   0  0  0  0  0  0  0  0  0  0  0  0
    7.4388   -3.8182   26.6824 C   0  0  0  0  0  0  0  0  0  0  0  0
    5.8269   -3.9371   24.8167 C   0  0  0  0  0  0  0  0  0  0  0  0
    7.9752   -2.6352   24.5072 C   0  0  0  0  0  0  0  0  0  0  0  0
    4.5942   -6.2621   25.9742 C   0  0  0  0  0  0  0  0  0  0  0  0
   10.2469   -1.9086   21.6964 N   0  0  0  0  0  0  0  0  0  0  0  0
    6.4309   -4.6104   25.9677 N   0  0  0  0  0  0  0  0  0  0  0  0
    6.7328   -6.7241   26.8834 O   0  0  0  0  0  0  0  0  0  0  0  0
   10.5527   -1.9838   20.7360 H   0  0  0  0  0  0  0  0  0  0  0  0
  1  2  1  0  0  0  0
  1  3  2  0  0  0  0
  2  4  2  0  0  0  0
  3  6  1  0  0  0  0
  4  8  1  0  0  0  0
  5  7  2  0  0  0  0
  5 16  1  0  0  0  0
  6  7  1  0  0  0  0
  6  8  2  0  0  0  0
  7 14  1  0  0  0  0
  8 16  1  0  0  0  0
  9 15  1  0  0  0  0
  9 17  1  0  0  0  0
  9 18  2  0  0  0  0
 10 12  1  0  0  0  0
 10 14  1  0  0  0  0
 11 13  1  0  0  0  0
 11 14  1  0  0  0  0
 12 17  1  0  0  0  0
 13 17  1  0  0  0  0
 16 19  1  0  0  0  0
M  END
> <ref_mols>
x0062_0

> <original SMILES>
CC(=O)N1CCC(CC1)C2=CNC=3C=CC=CC23

> <Chemgauss4>
-9.172703

> <ref_pdb>
x0072_0

$$$$
x0439
  -OEChem-05172015543D

 16 17  0     0  0  0  0  0  0999 V2000
   12.5712   -0.9991   22.5333 C   0  0  0  0  0  0  0  0  0  0  0  0
   11.1381    0.5193   23.7271 C   0  0  0  0  0  0  0  0  0  0  0  0
    7.7158   -0.0486   20.6330 C   0  0  0  0  0  0  0  0  0  0  0  0
   13.6310   -0.4902   23.2666 C   0  0  0  0  0  0  0  0  0  0  0  0
   12.2619    0.9600   24.4071 C   0  0  0  0  0  0  0  0  0  0  0  0
    6.6546    0.2634   18.5275 C   0  0  0  0  0  0  0  0  0  0  0  0
    8.9123   -0.1586   18.5806 C   0  0  0  0  0  0  0  0  0  0  0  0
   11.3042   -0.4793   22.7739 C   0  0  0  0  0  0  0  0  0  0  0  0
    6.5567    0.2060   19.9084 C   0  0  0  0  0  0  0  0  0  0  0  0
    8.9203   -0.2355   19.9640 C   0  0  0  0  0  0  0  0  0  0  0  0
    5.2533    0.4114   20.5944 C   0  0  0  0  0  0  0  0  0  0  0  0
   10.1285   -0.9902   22.0124 C   0  0  0  0  0  0  0  0  0  0  0  0
   13.5086    0.4794   24.2006 N   0  0  0  0  0  0  0  0  0  0  0  0
    7.8066    0.0870   17.8424 N   0  0  0  0  0  0  0  0  0  0  0  0
   10.0921   -0.4917   20.6608 N   0  0  0  0  0  0  0  0  0  0  0  0
   10.9742   -0.3160   20.1900 H   0  0  0  0  0  0  0  0  0  0  0  0
  1  4  2  0  0  0  0
  1  8  1  0  0  0  0
  2  5  1  0  0  0  0
  2  8  2  0  0  0  0
  3  9  2  0  0  0  0
  3 10  1  0  0  0  0
  4 13  1  0  0  0  0
  5 13  2  0  0  0  0
  6  9  1  0  0  0  0
  6 14  2  0  0  0  0
  7 10  2  0  0  0  0
  7 14  1  0  0  0  0
  8 12  1  0  0  0  0
  9 11  1  0  0  0  0
 10 15  1  0  0  0  0
 12 15  1  0  0  0  0
 15 16  1  0  0  0  0
M  END
> <ref_mols>
x0439_0

> <original SMILES>
CC=1C=NC=C(NCC=2C=CN=CC2)C1

> <Chemgauss4>
-9.172688

> <ref_pdb>
x0678_0

$$$$
x1164
  -OEChem-05172015543D

 17 18  0     1  0  0  0  0  0999 V2000
   10.1849   -1.0768   22.7389 C   0  0  0  0  0  0  0  0  0  0  0  0
   11.0332   -2.1564   22.9846 C   0  0  0  0  0  0  0  0  0  0  0  0
   10.7006    0.2183   22.6887 C   0  0  0  0  0  0  0  0  0  0  0  0
   12.3974   -1.9409   23.1802 C   0  0  0  0  0  0  0  0  0  0  0  0
   12.0648    0.4337   22.8843 C   0  0  0  0  0  0  0  0  0  0  0  0
   12.9132   -0.6458   23.1301 C   0  0  0  0  0  0  0  0  0  0  0  0
   11.9113    2.9475   23.1785 C   0  0  0  0  0  0  0  0  0  0  0  0
   13.9731    3.5097   22.1279 C   0  0  0  0  0  0  0  0  0  0  0  0
   13.9690    2.0326   22.4708 C   0  0  0  0  0  0  0  0  0  0  0  0
   12.9169    4.0692   23.0606 C   0  0  1  0  0  0  0  0  0  0  0  0
   11.2091    5.8772   23.2985 C   0  0  0  0  0  0  0  0  0  0  0  0
   12.5894    1.7593   22.8322 N   0  0  0  0  0  0  0  0  0  0  0  0
   12.3213    5.2962   22.4927 N   0  3  0  0  0  0  0  0  0  0  0  0
   10.7606    3.1143   23.5549 O   0  0  0  0  0  0  0  0  0  0  0  0
   14.2262   -0.4509   23.3196 F   0  0  0  0  0  0  0  0  0  0  0  0
   13.0530    6.0153   22.3749 H   0  0  0  0  0  0  0  0  0  0  0  0
   11.9725    5.1043   21.5399 H   0  0  0  0  0  0  0  0  0  0  0  0
  1  2  1  0  0  0  0
  1  3  2  0  0  0  0
  2  4  2  0  0  0  0
  3  5  1  0  0  0  0
  4  6  1  0  0  0  0
  5  6  2  0  0  0  0
  5 12  1  0  0  0  0
  6 15  1  0  0  0  0
  7 10  1  0  0  0  0
  7 12  1  0  0  0  0
  7 14  2  0  0  0  0
  8  9  1  0  0  0  0
  8 10  1  0  0  0  0
  9 12  1  0  0  0  0
 10 13  1  0  0  0  0
 11 13  1  0  0  0  0
 13 16  1  0  0  0  0
 13 17  1  0  0  0  0
M  CHG  1  13   1
M  END
> <ref_mols>
x1164_0

> <original SMILES>
CNC1CCN(C1=O)C=2C=CC=CC2F

> <Chemgauss4>
-9.170418

> <ref_pdb>
x0195_0

$$$$
x0061
  -OEChem-05172015543D

 17 18  0     1  0  0  0  0  0999 V2000
   10.1849   -1.0768   22.7389 C   0  0  0  0  0  0  0  0  0  0  0  0
   11.0332   -2.1564   22.9846 C   0  0  0  0  0  0  0  0  0  0  0  0
   10.7006    0.2183   22.6887 C   0  0  0  0  0  0  0  0  0  0  0  0
   12.3974   -1.9409   23.1802 C   0  0  0  0  0  0  0  0  0  0  0  0
   12.0648    0.4337   22.8843 C   0  0  0  0  0  0  0  0  0  0  0  0
   12.9132   -0.6458   23.1301 C   0  0  0  0  0  0  0  0  0  0  0  0
   11.9113    2.9475   23.1785 C   0  0  0  0  0  0  0  0  0  0  0  0
   13.9731    3.5097   22.1279 C   0  0  0  0  0  0  0  0  0  0  0  0
   13.9690    2.0326   22.4708 C   0  0  0  0  0  0  0  0  0  0  0  0
   12.9169    4.0692   23.0606 C   0  0  1  0  0  0  0  0  0  0  0  0
   11.2091    5.8772   23.2985 C   0  0  0  0  0  0  0  0  0  0  0  0
   12.5894    1.7593   22.8322 N   0  0  0  0  0  0  0  0  0  0  0  0
   12.3213    5.2962   22.4927 N   0  3  0  0  0  0  0  0  0  0  0  0
   10.7606    3.1143   23.5549 O   0  0  0  0  0  0  0  0  0  0  0  0
   14.2262   -0.4509   23.3196 F   0  0  0  0  0  0  0  0  0  0  0  0
   13.0530    6.0153   22.3749 H   0  0  0  0  0  0  0  0  0  0  0  0
   11.9725    5.1043   21.5399 H   0  0  0  0  0  0  0  0  0  0  0  0
  1  2  1  0  0  0  0
  1  3  2  0  0  0  0
  2  4  2  0  0  0  0
  3  5  1  0  0  0  0
  4  6  1  0  0  0  0
  5  6  2  0  0  0  0
  5 12  1  0  0  0  0
  6 15  1  0  0  0  0
  7 10  1  0  0  0  0
  7 12  1  0  0  0  0
  7 14  2  0  0  0  0
  8  9  1  0  0  0  0
  8 10  1  0  0  0  0
  9 12  1  0  0  0  0
 10 13  1  0  0  0  0
 11 13  1  0  0  0  0
 13 16  1  0  0  0  0
 13 17  1  0  0  0  0
M  CHG  1  13   1
M  END
> <ref_mols>
x0061_0

> <original SMILES>
CNC1CCN(C1=O)C=2C=CC=CC2F

> <Chemgauss4>
-9.170418

> <ref_pdb>
x0195_0

$$$$
x0432
  -OEChem-05172015543D

 21 22  0     0  0  0  0  0  0999 V2000
    6.8432    0.5998   18.0677 C   0  0  0  0  0  0  0  0  0  0  0  0
    7.6157   -0.1895   18.9197 C   0  0  0  0  0  0  0  0  0  0  0  0
    5.6466    1.1532   18.5234 C   0  0  0  0  0  0  0  0  0  0  0  0
    5.9950    0.1279   20.6831 C   0  0  0  0  0  0  0  0  0  0  0  0
    7.1916   -0.4254   20.2274 C   0  0  0  0  0  0  0  0  0  0  0  0
    5.2225    0.9173   19.8311 C   0  0  0  0  0  0  0  0  0  0  0  0
   11.1618    1.2331   23.9969 C   0  0  0  0  0  0  0  0  0  0  0  0
   11.5026   -0.8570   22.6744 C   0  0  0  0  0  0  0  0  0  0  0  0
   10.8310    1.2940   21.5231 C   0  0  0  0  0  0  0  0  0  0  0  0
   10.0627   -1.3453   22.5731 C   0  0  0  0  0  0  0  0  0  0  0  0
    9.3980    0.7830   21.4339 C   0  0  0  0  0  0  0  0  0  0  0  0
   11.6128    0.6684   22.6792 C   0  0  0  0  0  0  0  0  0  0  0  0
    3.3155    2.2551   19.3525 C   0  0  0  0  0  0  0  0  0  0  0  0
    8.0223   -1.2748   21.1435 C   0  0  0  0  0  0  0  0  0  0  0  0
   11.8745    0.7633   25.0746 N   0  0  0  0  0  0  0  0  0  0  0  0
    9.4041   -0.7241   21.3662 N   0  3  0  0  0  0  0  0  0  0  0  0
   10.2490    2.0513   24.0784 O   0  0  0  0  0  0  0  0  0  0  0  0
    4.0552    1.4579   20.2760 O   0  0  0  0  0  0  0  0  0  0  0  0
   12.6223    0.0972   24.9110 H   0  0  0  0  0  0  0  0  0  0  0  0
   11.6827    1.0558   26.0273 H   0  0  0  0  0  0  0  0  0  0  0  0
    9.9594   -0.9920   20.5421 H   0  0  0  0  0  0  0  0  0  0  0  0
  1  2  1  0  0  0  0
  1  3  2  0  0  0  0
  2  5  2  0  0  0  0
  3  6  1  0  0  0  0
  4  5  1  0  0  0  0
  4  6  2  0  0  0  0
  5 14  1  0  0  0  0
  6 18  1  0  0  0  0
  7 12  1  0  0  0  0
  7 15  1  0  0  0  0
  7 17  2  0  0  0  0
  8 10  1  0  0  0  0
  8 12  1  0  0  0  0
  9 11  1  0  0  0  0
  9 12  1  0  0  0  0
 10 16  1  0  0  0  0
 11 16  1  0  0  0  0
 13 18  1  0  0  0  0
 14 16  1  0  0  0  0
 15 19  1  0  0  0  0
 15 20  1  0  0  0  0
 16 21  1  0  0  0  0
M  CHG  1  16   1
M  END
> <ref_mols>
x0432_0

> <original SMILES>
COC=1C=CC=C(CN2CCC(CC2)C(=O)N)C1

> <Chemgauss4>
-9.161798

> <ref_pdb>
x0434_0

$$$$
x0344
  -OEChem-05172015543D

 16 17  0     0  0  0  0  0  0999 V2000
   13.3188   -1.7551   24.8827 C   0  0  0  0  0  0  0  0  0  0  0  0
   12.9952   -3.0159   25.3839 C   0  0  0  0  0  0  0  0  0  0  0  0
   12.4315   -1.0930   24.0342 C   0  0  0  0  0  0  0  0  0  0  0  0
   11.7842   -3.6147   25.0365 C   0  0  0  0  0  0  0  0  0  0  0  0
   11.2205   -1.6918   23.6868 C   0  0  0  0  0  0  0  0  0  0  0  0
    7.6780   -3.7020   23.2905 C   0  0  0  0  0  0  0  0  0  0  0  0
    9.4727   -4.8886   23.7442 C   0  0  0  0  0  0  0  0  0  0  0  0
    8.1547   -5.0234   23.3820 C   0  0  0  0  0  0  0  0  0  0  0  0
   10.8969   -2.9526   24.1879 C   0  0  0  0  0  0  0  0  0  0  0  0
    6.2517   -5.5154   21.0637 C   0  0  0  0  0  0  0  0  0  0  0  0
    7.4107   -6.2702   23.1436 C   0  0  0  0  0  0  0  0  0  0  0  0
    8.6167   -2.7945   23.5721 N   0  0  0  0  0  0  0  0  0  0  0  0
    9.6965   -3.5469   23.8441 N   0  0  0  0  0  0  0  0  0  0  0  0
    6.1097   -6.0781   22.4283 N   0  3  0  0  0  0  0  0  0  0  0  0
    5.5134   -5.4639   22.9938 H   0  0  0  0  0  0  0  0  0  0  0  0
    5.6267   -6.9820   22.3795 H   0  0  0  0  0  0  0  0  0  0  0  0
  1  2  1  0  0  0  0
  1  3  2  0  0  0  0
  2  4  2  0  0  0  0
  3  5  1  0  0  0  0
  4  9  1  0  0  0  0
  5  9  2  0  0  0  0
  6  8  1  0  0  0  0
  6 12  2  0  0  0  0
  7  8  2  0  0  0  0
  7 13  1  0  0  0  0
  8 11  1  0  0  0  0
  9 13  1  0  0  0  0
 10 14  1  0  0  0  0
 11 14  1  0  0  0  0
 12 13  1  0  0  0  0
 14 15  1  0  0  0  0
 14 16  1  0  0  0  0
M  CHG  1  14   1
M  END
> <ref_mols>
x0344_0

> <original SMILES>
CNCC=1C=NN(C1)C=2C=CC=CC2

> <Chemgauss4>
-9.154862

> <ref_pdb>
x0749_0

$$$$
x0283
  -OEChem-05172015543D

 19 20  0     1  0  0  0  0  0999 V2000
    6.0889   -6.0552   23.6666 C   0  0  0  0  0  0  0  0  0  0  0  0
    6.6157   -5.0705   24.5023 C   0  0  0  0  0  0  0  0  0  0  0  0
    6.6012   -6.2258   22.3804 C   0  0  0  0  0  0  0  0  0  0  0  0
    7.6548   -4.2563   24.0518 C   0  0  0  0  0  0  0  0  0  0  0  0
    7.6403   -5.4116   21.9300 C   0  0  0  0  0  0  0  0  0  0  0  0
   11.0392   -2.0640   23.3296 C   0  0  0  0  0  0  0  0  0  0  0  0
   10.5755   -4.1977   24.3636 C   0  0  0  0  0  0  0  0  0  0  0  0
   11.9969   -1.7978   24.3082 C   0  0  0  0  0  0  0  0  0  0  0  0
   11.5332   -3.9316   25.3422 C   0  0  0  0  0  0  0  0  0  0  0  0
    8.1671   -4.4268   22.7656 C   0  0  0  0  0  0  0  0  0  0  0  0
   10.3285   -3.2639   23.3573 C   0  0  0  0  0  0  0  0  0  0  0  0
   12.2439   -2.7316   25.3145 C   0  0  0  0  0  0  0  0  0  0  0  0
   13.8697   -1.2269   26.1795 C   0  0  0  0  0  0  0  0  0  0  0  0
    9.2781   -3.5564   22.2832 C   0  0  2  0  0  0  0  0  0  0  0  0
    8.8289   -2.2839   21.5933 N   0  3  0  0  0  0  0  0  0  0  0  0
   13.1793   -2.4723   26.2686 O   0  0  0  0  0  0  0  0  0  0  0  0
    9.4378   -2.0984   20.8033 H   0  0  0  0  0  0  0  0  0  0  0  0
    8.8773   -1.5123   22.2505 H   0  0  0  0  0  0  0  0  0  0  0  0
    7.8740   -2.3977   21.2695 H   0  0  0  0  0  0  0  0  0  0  0  0
  1  2  1  0  0  0  0
  1  3  2  0  0  0  0
  2  4  2  0  0  0  0
  3  5  1  0  0  0  0
  4 10  1  0  0  0  0
  5 10  2  0  0  0  0
  6  8  2  0  0  0  0
  6 11  1  0  0  0  0
  7  9  1  0  0  0  0
  7 11  2  0  0  0  0
  8 12  1  0  0  0  0
  9 12  2  0  0  0  0
 10 14  1  0  0  0  0
 11 14  1  0  0  0  0
 12 16  1  0  0  0  0
 13 16  1  0  0  0  0
 14 15  1  0  0  0  0
 15 17  1  0  0  0  0
 15 18  1  0  0  0  0
 15 19  1  0  0  0  0
M  CHG  1  15   1
M  END
> <ref_mols>
x0283_0

> <original SMILES>
COC=1C=CC(=CC1)C(N)C=2C=CC=CC2

> <Chemgauss4>
-9.153863

> <ref_pdb>
x0749_0

$$$$
x1169
  -OEChem-05172015543D

 19 20  0     1  0  0  0  0  0999 V2000
    6.0889   -6.0552   23.6666 C   0  0  0  0  0  0  0  0  0  0  0  0
    6.6157   -5.0705   24.5023 C   0  0  0  0  0  0  0  0  0  0  0  0
    6.6012   -6.2258   22.3804 C   0  0  0  0  0  0  0  0  0  0  0  0
    7.6548   -4.2563   24.0518 C   0  0  0  0  0  0  0  0  0  0  0  0
    7.6403   -5.4116   21.9300 C   0  0  0  0  0  0  0  0  0  0  0  0
   11.0392   -2.0640   23.3296 C   0  0  0  0  0  0  0  0  0  0  0  0
   10.5755   -4.1977   24.3636 C   0  0  0  0  0  0  0  0  0  0  0  0
   11.9969   -1.7978   24.3082 C   0  0  0  0  0  0  0  0  0  0  0  0
   11.5332   -3.9316   25.3422 C   0  0  0  0  0  0  0  0  0  0  0  0
    8.1671   -4.4268   22.7656 C   0  0  0  0  0  0  0  0  0  0  0  0
   10.3285   -3.2639   23.3573 C   0  0  0  0  0  0  0  0  0  0  0  0
   12.2439   -2.7316   25.3145 C   0  0  0  0  0  0  0  0  0  0  0  0
   13.8697   -1.2269   26.1795 C   0  0  0  0  0  0  0  0  0  0  0  0
    9.2781   -3.5564   22.2832 C   0  0  2  0  0  0  0  0  0  0  0  0
    8.8289   -2.2839   21.5933 N   0  3  0  0  0  0  0  0  0  0  0  0
   13.1793   -2.4723   26.2686 O   0  0  0  0  0  0  0  0  0  0  0  0
    9.4378   -2.0984   20.8033 H   0  0  0  0  0  0  0  0  0  0  0  0
    8.8773   -1.5123   22.2505 H   0  0  0  0  0  0  0  0  0  0  0  0
    7.8740   -2.3977   21.2695 H   0  0  0  0  0  0  0  0  0  0  0  0
  1  2  1  0  0  0  0
  1  3  2  0  0  0  0
  2  4  2  0  0  0  0
  3  5  1  0  0  0  0
  4 10  1  0  0  0  0
  5 10  2  0  0  0  0
  6  8  2  0  0  0  0
  6 11  1  0  0  0  0
  7  9  1  0  0  0  0
  7 11  2  0  0  0  0
  8 12  1  0  0  0  0
  9 12  2  0  0  0  0
 10 14  1  0  0  0  0
 11 14  1  0  0  0  0
 12 16  1  0  0  0  0
 13 16  1  0  0  0  0
 14 15  1  0  0  0  0
 15 17  1  0  0  0  0
 15 18  1  0  0  0  0
 15 19  1  0  0  0  0
M  CHG  1  15   1
M  END
> <ref_mols>
x1169_0

> <original SMILES>
COC=1C=CC(=CC1)C(N)C=2C=CC=CC2

> <Chemgauss4>
-9.153863

> <ref_pdb>
x0749_0

$$$$
x0486
  -OEChem-05172015543D

 18 20  0     0  0  0  0  0  0999 V2000
    6.5957   -4.4735   21.3135 C   0  0  0  0  0  0  0  0  0  0  0  0
   14.0798    0.3128   23.7900 C   0  0  0  0  0  0  0  0  0  0  0  0
   14.2108   -0.9760   23.2677 C   0  0  0  0  0  0  0  0  0  0  0  0
    8.1662   -5.3868   22.9504 C   0  0  0  0  0  0  0  0  0  0  0  0
    8.3179   -3.0594   22.3202 C   0  0  0  0  0  0  0  0  0  0  0  0
    9.2468   -5.2226   23.8170 C   0  0  0  0  0  0  0  0  0  0  0  0
    9.3985   -2.8952   23.1868 C   0  0  0  0  0  0  0  0  0  0  0  0
   13.0599    0.6229   24.6984 C   0  0  0  0  0  0  0  0  0  0  0  0
   13.3304   -2.0000   23.6325 C   0  0  0  0  0  0  0  0  0  0  0  0
   10.6047   -1.5736   25.9296 C   0  0  0  0  0  0  0  0  0  0  0  0
    7.7018   -4.3052   22.2020 C   0  0  0  0  0  0  0  0  0  0  0  0
    9.8629   -3.9768   23.9352 C   0  0  0  0  0  0  0  0  0  0  0  0
   12.1663   -0.3937   25.0759 C   0  0  0  0  0  0  0  0  0  0  0  0
   12.3224   -1.6683   24.5384 C   0  0  0  0  0  0  0  0  0  0  0  0
   11.0277   -3.7992   24.8713 C   0  0  0  0  0  0  0  0  0  0  0  0
    5.6972   -4.6101   20.5918 N   0  0  0  0  0  0  0  0  0  0  0  0
   11.0944   -0.3541   25.9378 N   0  0  0  0  0  0  0  0  0  0  0  0
   11.3102   -2.4021   25.1019 N   0  0  0  0  0  0  0  0  0  0  0  0
  1 11  1  0  0  0  0
  1 16  3  0  0  0  0
  2  3  1  0  0  0  0
  2  8  2  0  0  0  0
  3  9  2  0  0  0  0
  4  6  2  0  0  0  0
  4 11  1  0  0  0  0
  5  7  1  0  0  0  0
  5 11  2  0  0  0  0
  6 12  1  0  0  0  0
  7 12  2  0  0  0  0
  8 13  1  0  0  0  0
  9 14  1  0  0  0  0
 10 17  2  0  0  0  0
 10 18  1  0  0  0  0
 12 15  1  0  0  0  0
 13 14  2  0  0  0  0
 13 17  1  0  0  0  0
 14 18  1  0  0  0  0
 15 18  1  0  0  0  0
M  END
> <ref_mols>
x0486_0

> <original SMILES>
N#CC=1C=CC(CN2C=NC=3C=CC=CC23)=CC1

> <Chemgauss4>
-9.151552

> <ref_pdb>
x0749_0

> <CYS145-warhead dist minimum (A)>
9.482999

> <CYS145-warhead dist mean (A)>
10.499308

> <CYS145-warhead dist stddev (A)>
0.3810734

$$$$
x0384
  -OEChem-05172015543D

 15 16  0     0  0  0  0  0  0999 V2000
   13.4927   -0.5124   23.6781 C   0  0  0  0  0  0  0  0  0  0  0  0
   13.2301   -1.4604   22.6891 C   0  0  0  0  0  0  0  0  0  0  0  0
   12.4547    0.2642   24.1930 C   0  0  0  0  0  0  0  0  0  0  0  0
   11.9295   -1.6316   22.2149 C   0  0  0  0  0  0  0  0  0  0  0  0
   11.1542    0.0930   23.7188 C   0  0  0  0  0  0  0  0  0  0  0  0
    6.8934   -0.9129   20.9108 C   0  0  0  0  0  0  0  0  0  0  0  0
    5.8631   -0.5832   20.0645 C   0  0  0  0  0  0  0  0  0  0  0  0
   10.8915   -0.8549   22.7298 C   0  0  0  0  0  0  0  0  0  0  0  0
    7.9745   -0.1247   20.4728 C   0  0  0  0  0  0  0  0  0  0  0  0
    5.6597    0.9942   18.1280 C   0  0  0  0  0  0  0  0  0  0  0  0
    9.5007   -1.0373   22.2231 C   0  0  0  0  0  0  0  0  0  0  0  0
    7.6602    0.6473   19.4291 N   0  0  0  0  0  0  0  0  0  0  0  0
    6.3700    0.3458   19.2043 N   0  0  0  0  0  0  0  0  0  0  0  0
    9.2117   -0.1855   21.0974 N   0  0  0  0  0  0  0  0  0  0  0  0
    9.9550    0.4065   20.7398 H   0  0  0  0  0  0  0  0  0  0  0  0
  1  2  1  0  0  0  0
  1  3  2  0  0  0  0
  2  4  2  0  0  0  0
  3  5  1  0  0  0  0
  4  8  1  0  0  0  0
  5  8  2  0  0  0  0
  6  7  2  0  0  0  0
  6  9  1  0  0  0  0
  7 13  1  0  0  0  0
  8 11  1  0  0  0  0
  9 12  2  0  0  0  0
  9 14  1  0  0  0  0
 10 13  1  0  0  0  0
 11 14  1  0  0  0  0
 12 13  1  0  0  0  0
 14 15  1  0  0  0  0
M  END
> <ref_mols>
x0384_0

> <original SMILES>
CN1C=CC(NCC=2C=CC=CC2)=N1

> <Chemgauss4>
-9.151496

> <ref_pdb>
x1093_0

$$$$
x2846
  -OEChem-05172015543D

 30 32  0     0  0  0  0  0  0999 V2000
   13.7572   -1.9265   23.0179 C   0  0  0  0  0  0  0  0  0  0  0  0
   14.2781   -0.9207   23.8319 C   0  0  0  0  0  0  0  0  0  0  0  0
   12.3886   -1.9694   22.7517 C   0  0  0  0  0  0  0  0  0  0  0  0
   13.4305    0.0422   24.3797 C   0  0  0  0  0  0  0  0  0  0  0  0
    6.7949    1.6688   24.7967 C   0  0  0  0  0  0  0  0  0  0  0  0
    7.5547   -0.8295   18.6924 C   0  0  0  0  0  0  0  0  0  0  0  0
    7.7818    2.2864   24.0651 C   0  0  0  0  0  0  0  0  0  0  0  0
    6.5579    1.1248   18.0973 C   0  0  0  0  0  0  0  0  0  0  0  0
    8.4168    1.9436   26.1474 C   0  0  0  0  0  0  0  0  0  0  0  0
    6.9734   -0.7806   19.9431 C   0  0  0  0  0  0  0  0  0  0  0  0
   11.5410   -1.0065   23.2995 C   0  0  0  0  0  0  0  0  0  0  0  0
   12.0619   -0.0007   24.1135 C   0  0  0  0  0  0  0  0  0  0  0  0
    6.1648    0.3115   20.1832 C   0  0  0  0  0  0  0  0  0  0  0  0
    9.5312   -1.5585   21.8723 C   0  0  0  0  0  0  0  0  0  0  0  0
    7.2273   -1.8635   20.9515 C   0  0  0  0  0  0  0  0  0  0  0  0
   10.1069    3.0723   24.6517 C   0  0  0  0  0  0  0  0  0  0  0  0
   11.0416    2.1366   23.8971 C   0  0  0  0  0  0  0  0  0  0  0  0
    7.3680    0.1095   17.7418 N   0  0  0  0  0  0  0  0  0  0  0  0
    7.1963    1.4585   26.0921 N   0  0  0  0  0  0  0  0  0  0  0  0
    5.9342    1.2867   19.2799 N   0  0  0  0  0  0  0  0  0  0  0  0
    8.8143    2.4563   24.9439 N   0  0  0  0  0  0  0  0  0  0  0  0
    5.5402    0.4167   21.4505 N   0  0  0  0  0  0  0  0  0  0  0  0
   10.1727   -1.0631   23.0243 N   0  0  0  0  0  0  0  0  0  0  0  0
    8.1425   -1.4364   21.9847 N   0  0  0  0  0  0  0  0  0  0  0  0
   10.0855   -2.0389   20.8866 O   0  0  0  0  0  0  0  0  0  0  0  0
   11.2511    0.9497   24.6589 O   0  0  0  0  0  0  0  0  0  0  0  0
    5.6637   -0.3199   22.1108 H   0  0  0  0  0  0  0  0  0  0  0  0
    4.9169    1.1764   21.6184 H   0  0  0  0  0  0  0  0  0  0  0  0
    9.5436   -0.7004   23.7473 H   0  0  0  0  0  0  0  0  0  0  0  0
    7.7596   -1.0287   22.8318 H   0  0  0  0  0  0  0  0  0  0  0  0
  1  2  1  0  0  0  0
  1  3  2  0  0  0  0
  2  4  2  0  0  0  0
  3 11  1  0  0  0  0
  4 12  1  0  0  0  0
  5  7  2  0  0  0  0
  5 19  1  0  0  0  0
  6 10  1  0  0  0  0
  6 18  2  0  0  0  0
  7 21  1  0  0  0  0
  8 18  1  0  0  0  0
  8 20  2  0  0  0  0
  9 19  2  0  0  0  0
  9 21  1  0  0  0  0
 10 13  2  0  0  0  0
 10 15  1  0  0  0  0
 11 12  2  0  0  0  0
 11 23  1  0  0  0  0
 12 26  1  0  0  0  0
 13 20  1  0  0  0  0
 13 22  1  0  0  0  0
 14 23  1  0  0  0  0
 14 24  1  0  0  0  0
 14 25  2  0  0  0  0
 15 24  1  0  0  0  0
 16 17  1  0  0  0  0
 16 21  1  0  0  0  0
 17 26  1  0  0  0  0
 22 27  1  0  0  0  0
 22 28  1  0  0  0  0
 23 29  1  0  0  0  0
 24 30  1  0  0  0  0
M  END
> <ref_mols>
x2846_0

> <original SMILES>
NC=1N=CN=CC1CNC(=O)NC=2C=CC=CC2OCCN3C=CN=C3

> <Chemgauss4>
-9.143970

> <ref_pdb>
x0678_0

$$$$
x2824
  -OEChem-05172015543D

 31 33  0     1  0  0  0  0  0999 V2000
   13.3073   -1.7547   23.1801 C   0  0  0  0  0  0  0  0  0  0  0  0
   13.5025   -0.5780   23.9032 C   0  0  0  0  0  0  0  0  0  0  0  0
   12.0174   -2.2499   22.9887 C   0  0  0  0  0  0  0  0  0  0  0  0
   12.4078    0.1035   24.4351 C   0  0  0  0  0  0  0  0  0  0  0  0
    4.3472   -5.9685   27.1528 C   0  0  0  0  0  0  0  0  0  0  0  0
    5.2406   -7.0164   27.1171 C   0  0  0  0  0  0  0  0  0  0  0  0
    6.0849   -4.4840   27.0754 C   0  0  0  0  0  0  0  0  0  0  0  0
   10.9227   -1.5684   23.5205 C   0  0  0  0  0  0  0  0  0  0  0  0
   11.1179   -0.3917   24.2437 C   0  0  0  0  0  0  0  0  0  0  0  0
    6.9785   -5.5318   27.0404 C   0  0  0  0  0  0  0  0  0  0  0  0
    8.8241    2.3367   24.7643 C   0  0  0  0  0  0  0  0  0  0  0  0
    8.9511   -3.5132   25.2773 C   0  0  0  0  0  0  0  0  0  0  0  0
    7.9548    5.8794   25.2284 C   0  0  0  0  0  0  0  0  0  0  0  0
    9.4206    5.9914   24.8285 C   0  0  0  0  0  0  0  0  0  0  0  0
    7.5779    4.4878   24.7442 C   0  0  0  0  0  0  0  0  0  0  0  0
    9.9536    4.5896   25.0890 C   0  0  0  0  0  0  0  0  0  0  0  0
    9.1825   -0.8650   21.0954 C   0  0  0  0  0  0  0  0  0  0  0  0
    8.4558   -5.2714   26.9774 C   0  0  0  0  0  0  0  0  0  0  0  0
   10.1804    1.6927   24.9013 C   0  0  0  0  0  0  0  0  0  0  0  0
    9.1810   -2.2124   21.8072 C   0  0  0  0  0  0  0  0  0  0  0  0
    9.5494   -2.1133   23.3061 C   0  0  1  0  0  0  0  0  0  0  0  0
    4.7533   -4.6835   27.1326 N   0  0  0  0  0  0  0  0  0  0  0  0
    6.5724   -6.8168   27.0603 N   0  0  0  0  0  0  0  0  0  0  0  0
    8.8066    3.7162   24.8613 N   0  0  0  0  0  0  0  0  0  0  0  0
    8.8747   -4.8495   25.6607 N   0  0  0  0  0  0  0  0  0  0  0  0
    9.3807   -3.3991   23.9632 N   0  0  0  0  0  0  0  0  0  0  0  0
    7.8218    1.6463   24.5735 O   0  0  0  0  0  0  0  0  0  0  0  0
    8.6748   -2.5625   26.0077 O   0  0  0  0  0  0  0  0  0  0  0  0
   10.0502    0.2916   24.7751 O   0  0  0  0  0  0  0  0  0  0  0  0
    9.1255   -5.5619   24.9822 H   0  0  0  0  0  0  0  0  0  0  0  0
    9.6319   -4.2300   23.4458 H   0  0  0  0  0  0  0  0  0  0  0  0
  1  2  1  0  0  0  0
  1  3  2  0  0  0  0
  2  4  2  0  0  0  0
  3  8  1  0  0  0  0
  4  9  1  0  0  0  0
  5  6  2  0  0  0  0
  5 22  1  0  0  0  0
  6 23  1  0  0  0  0
  7 10  1  0  0  0  0
  7 22  2  0  0  0  0
  8  9  2  0  0  0  0
  8 21  1  0  0  0  0
  9 29  1  0  0  0  0
 10 18  1  0  0  0  0
 10 23  2  0  0  0  0
 11 19  1  0  0  0  0
 11 24  1  0  0  0  0
 11 27  2  0  0  0  0
 12 25  1  0  0  0  0
 12 26  1  0  0  0  0
 12 28  2  0  0  0  0
 13 14  1  0  0  0  0
 13 15  1  0  0  0  0
 14 16  1  0  0  0  0
 15 24  1  0  0  0  0
 16 24  1  0  0  0  0
 17 20  1  0  0  0  0
 18 25  1  0  0  0  0
 19 29  1  0  0  0  0
 20 21  1  0  0  0  0
 21 26  1  0  0  0  0
 25 30  1  0  0  0  0
 26 31  1  0  0  0  0
M  END
> <ref_mols>
x2824_0

> <original SMILES>
CCC(NC(=O)NCC=1C=NC=CN1)C=2C=CC=CC2OCC(=O)N3CCCC3

> <Chemgauss4>
-9.135799

> <ref_pdb>
x0072_0

$$$$
x0276
  -OEChem-05172015543D

 20 21  0     0  0  0  0  0  0999 V2000
    6.1917    0.7591   19.3606 C   0  0  0  0  0  0  0  0  0  0  0  0
    7.1507    0.3347   18.4409 C   0  0  0  0  0  0  0  0  0  0  0  0
    6.4742    0.7304   20.7263 C   0  0  0  0  0  0  0  0  0  0  0  0
    8.3921   -0.1187   18.8869 C   0  0  0  0  0  0  0  0  0  0  0  0
    7.7156    0.2770   21.1723 C   0  0  0  0  0  0  0  0  0  0  0  0
   14.1857   -1.6907   22.4543 C   0  0  0  0  0  0  0  0  0  0  0  0
   12.9988   -0.6663   24.2924 C   0  0  0  0  0  0  0  0  0  0  0  0
   13.3251   -1.0671   21.5509 C   0  0  0  0  0  0  0  0  0  0  0  0
   12.1382   -0.0425   23.3891 C   0  0  0  0  0  0  0  0  0  0  0  0
   14.0225   -1.4904   23.8250 C   0  0  0  0  0  0  0  0  0  0  0  0
    8.6746   -0.1475   20.2526 C   0  0  0  0  0  0  0  0  0  0  0  0
   12.3014   -0.2429   22.0183 C   0  0  0  0  0  0  0  0  0  0  0  0
   14.8924   -2.1209   24.7389 N   0  0  0  0  0  0  0  0  0  0  0  0
    9.9547   -0.6148   20.7124 N   0  0  0  0  0  0  0  0  0  0  0  0
   11.9190    0.6437   19.6113 O   0  0  0  0  0  0  0  0  0  0  0  0
   10.6989    1.7500   21.5052 O   0  0  0  0  0  0  0  0  0  0  0  0
   11.2233    0.5377   20.8884 S   0  0  0  0  0  0  0  0  0  0  0  0
   15.5924   -2.7461   24.3941 H   0  0  0  0  0  0  0  0  0  0  0  0
   14.7353   -2.0065   25.7198 H   0  0  0  0  0  0  0  0  0  0  0  0
   10.2305   -1.5382   20.3529 H   0  0  0  0  0  0  0  0  0  0  0  0
  1  2  1  0  0  0  0
  1  3  2  0  0  0  0
  2  4  2  0  0  0  0
  3  5  1  0  0  0  0
  4 11  1  0  0  0  0
  5 11  2  0  0  0  0
  6  8  2  0  0  0  0
  6 10  1  0  0  0  0
  7  9  1  0  0  0  0
  7 10  2  0  0  0  0
  8 12  1  0  0  0  0
  9 12  2  0  0  0  0
 10 13  1  0  0  0  0
 11 14  1  0  0  0  0
 12 17  1  0  0  0  0
 14 17  1  0  0  0  0
 15 17  2  0  0  0  0
 16 17  2  0  0  0  0
 13 18  1  0  0  0  0
 13 19  1  0  0  0  0
 14 20  1  0  0  0  0
M  END
> <ref_mols>
x0276_0

> <original SMILES>
NC=1C=CC(=CC1)S(=O)(=O)NC=2C=CC=CC2

> <Chemgauss4>
-9.134903

> <ref_pdb>
x0678_0

$$$$
x0582
  -OEChem-05172015543D

 18 19  0     0  0  0  0  0  0999 V2000
   13.0687   -3.2028   24.5565 C   0  0  0  0  0  0  0  0  0  0  0  0
   11.7885   -2.8750   24.1103 C   0  0  0  0  0  0  0  0  0  0  0  0
   14.0237   -2.2013   24.7324 C   0  0  0  0  0  0  0  0  0  0  0  0
   11.4631   -1.5459   23.8399 C   0  0  0  0  0  0  0  0  0  0  0  0
   13.6983   -0.8722   24.4620 C   0  0  0  0  0  0  0  0  0  0  0  0
   13.0655    1.7193   23.2978 C   0  0  0  0  0  0  0  0  0  0  0  0
   10.7684    1.2780   23.9025 C   0  0  0  0  0  0  0  0  0  0  0  0
   12.7391    3.0481   23.0273 C   0  0  0  0  0  0  0  0  0  0  0  0
   10.4419    2.6069   23.6320 C   0  0  0  0  0  0  0  0  0  0  0  0
   12.4181   -0.5444   24.0157 C   0  0  0  0  0  0  0  0  0  0  0  0
   12.0801    0.8342   23.7354 C   0  0  0  0  0  0  0  0  0  0  0  0
   11.4273    3.4920   23.1944 C   0  0  0  0  0  0  0  0  0  0  0  0
   12.3532    6.2585   24.8267 C   0  0  0  0  0  0  0  0  0  0  0  0
   11.0931    4.8520   22.9171 N   0  0  0  0  0  0  0  0  0  0  0  0
   10.1617    7.1190   23.7201 O   0  0  0  0  0  0  0  0  0  0  0  0
   10.0270    5.1527   25.2888 O   0  0  0  0  0  0  0  0  0  0  0  0
   10.7151    5.8838   24.2433 S   0  0  0  0  0  0  0  0  0  0  0  0
   11.6739    5.2905   22.1834 H   0  0  0  0  0  0  0  0  0  0  0  0
  1  2  1  0  0  0  0
  1  3  2  0  0  0  0
  2  4  2  0  0  0  0
  3  5  1  0  0  0  0
  4 10  1  0  0  0  0
  5 10  2  0  0  0  0
  6  8  2  0  0  0  0
  6 11  1  0  0  0  0
  7  9  1  0  0  0  0
  7 11  2  0  0  0  0
  8 12  1  0  0  0  0
  9 12  2  0  0  0  0
 10 11  1  0  0  0  0
 12 14  1  0  0  0  0
 13 17  1  0  0  0  0
 14 17  1  0  0  0  0
 15 17  2  0  0  0  0
 16 17  2  0  0  0  0
 14 18  1  0  0  0  0
M  END
> <ref_mols>
x0582_0

> <original SMILES>
CS(=O)(=O)NC=1C=CC(=CC1)C=2C=CC=CC2

> <Chemgauss4>
-9.133917

> <ref_pdb>
x0161_0

$$$$
x1260
  -OEChem-05172015543D

 18 19  0     0  0  0  0  0  0999 V2000
   13.0687   -3.2028   24.5565 C   0  0  0  0  0  0  0  0  0  0  0  0
   11.7885   -2.8750   24.1103 C   0  0  0  0  0  0  0  0  0  0  0  0
   14.0237   -2.2013   24.7324 C   0  0  0  0  0  0  0  0  0  0  0  0
   11.4631   -1.5459   23.8399 C   0  0  0  0  0  0  0  0  0  0  0  0
   13.6983   -0.8722   24.4620 C   0  0  0  0  0  0  0  0  0  0  0  0
   13.0655    1.7193   23.2978 C   0  0  0  0  0  0  0  0  0  0  0  0
   10.7684    1.2780   23.9025 C   0  0  0  0  0  0  0  0  0  0  0  0
   12.7391    3.0481   23.0273 C   0  0  0  0  0  0  0  0  0  0  0  0
   10.4419    2.6069   23.6320 C   0  0  0  0  0  0  0  0  0  0  0  0
   12.4181   -0.5444   24.0157 C   0  0  0  0  0  0  0  0  0  0  0  0
   12.0801    0.8342   23.7354 C   0  0  0  0  0  0  0  0  0  0  0  0
   11.4273    3.4920   23.1944 C   0  0  0  0  0  0  0  0  0  0  0  0
   12.3532    6.2585   24.8267 C   0  0  0  0  0  0  0  0  0  0  0  0
   11.0931    4.8520   22.9171 N   0  0  0  0  0  0  0  0  0  0  0  0
   10.1617    7.1190   23.7201 O   0  0  0  0  0  0  0  0  0  0  0  0
   10.0270    5.1527   25.2888 O   0  0  0  0  0  0  0  0  0  0  0  0
   10.7151    5.8838   24.2433 S   0  0  0  0  0  0  0  0  0  0  0  0
   11.6739    5.2905   22.1834 H   0  0  0  0  0  0  0  0  0  0  0  0
  1  2  1  0  0  0  0
  1  3  2  0  0  0  0
  2  4  2  0  0  0  0
  3  5  1  0  0  0  0
  4 10  1  0  0  0  0
  5 10  2  0  0  0  0
  6  8  2  0  0  0  0
  6 11  1  0  0  0  0
  7  9  1  0  0  0  0
  7 11  2  0  0  0  0
  8 12  1  0  0  0  0
  9 12  2  0  0  0  0
 10 11  1  0  0  0  0
 12 14  1  0  0  0  0
 13 17  1  0  0  0  0
 14 17  1  0  0  0  0
 15 17  2  0  0  0  0
 16 17  2  0  0  0  0
 14 18  1  0  0  0  0
M  END
> <ref_mols>
x1260_0

> <original SMILES>
CS(=O)(=O)NC=1C=CC(=CC1)C=2C=CC=CC2

> <Chemgauss4>
-9.133917

> <ref_pdb>
x0161_0

$$$$
x2667
  -OEChem-05172015543D

 18 19  0     0  0  0  0  0  0999 V2000
   10.2570   -1.9161   24.3876 C   0  0  0  0  0  0  0  0  0  0  0  0
    6.2954   -4.9484   22.1297 C   0  0  0  0  0  0  0  0  0  0  0  0
   14.1312   -1.4147   25.9560 C   0  0  0  0  0  0  0  0  0  0  0  0
   13.1394   -0.2723   25.7423 C   0  0  0  0  0  0  0  0  0  0  0  0
   13.7386   -2.6402   25.1320 C   0  0  0  0  0  0  0  0  0  0  0  0
    9.1613   -4.1248   24.4650 C   0  0  0  0  0  0  0  0  0  0  0  0
    9.3247   -2.8252   22.2701 C   0  0  0  0  0  0  0  0  0  0  0  0
   11.7067   -0.7289   26.0036 C   0  0  0  0  0  0  0  0  0  0  0  0
   12.2934   -3.0523   25.4038 C   0  0  0  0  0  0  0  0  0  0  0  0
    8.3369   -5.0844   23.6139 C   0  0  0  0  0  0  0  0  0  0  0  0
    7.8109   -3.0083   22.3247 C   0  0  0  0  0  0  0  0  0  0  0  0
    9.9954   -3.1689   23.6059 C   0  0  0  0  0  0  0  0  0  0  0  0
    5.9868   -6.3673   22.5406 C   0  0  0  0  0  0  0  0  0  0  0  0
   11.3829   -1.9167   25.2104 N   0  0  0  0  0  0  0  0  0  0  0  0
    7.4443   -4.3806   22.6841 N   0  0  0  0  0  0  0  0  0  0  0  0
    9.4852   -0.9607   24.2709 O   0  0  0  0  0  0  0  0  0  0  0  0
    5.5417   -4.3631   21.3485 O   0  0  0  0  0  0  0  0  0  0  0  0
    5.0035   -6.2674   23.9969 Cl  0  0  0  0  0  0  0  0  0  0  0  0
  1 12  1  0  0  0  0
  1 14  1  0  0  0  0
  1 16  2  0  0  0  0
  2 13  1  0  0  0  0
  2 15  1  0  0  0  0
  2 17  2  0  0  0  0
  3  4  1  0  0  0  0
  3  5  1  0  0  0  0
  4  8  1  0  0  0  0
  5  9  1  0  0  0  0
  6 10  1  0  0  0  0
  6 12  1  0  0  0  0
  7 11  1  0  0  0  0
  7 12  1  0  0  0  0
  8 14  1  0  0  0  0
  9 14  1  0  0  0  0
 10 15  1  0  0  0  0
 11 15  1  0  0  0  0
 13 18  1  0  0  0  0
M  END
> <ref_mols>
x2667_0

> <original SMILES>
ClCC(=O)N1CCC(CC1)C(=O)N2CCCCC2

> <Chemgauss4>
-9.132237

> <ref_pdb>
x0749_0

> <CYS145-warhead dist minimum (A)>
10.074172

> <CYS145-warhead dist mean (A)>
13.447726

> <CYS145-warhead dist stddev (A)>
0.8001742

$$$$
x0812
  -OEChem-05172015543D

 18 19  0     0  0  0  0  0  0999 V2000
   10.2570   -1.9161   24.3876 C   0  0  0  0  0  0  0  0  0  0  0  0
    6.2954   -4.9484   22.1297 C   0  0  0  0  0  0  0  0  0  0  0  0
   14.1312   -1.4147   25.9560 C   0  0  0  0  0  0  0  0  0  0  0  0
   13.1394   -0.2723   25.7423 C   0  0  0  0  0  0  0  0  0  0  0  0
   13.7386   -2.6402   25.1320 C   0  0  0  0  0  0  0  0  0  0  0  0
    9.1613   -4.1248   24.4650 C   0  0  0  0  0  0  0  0  0  0  0  0
    9.3247   -2.8252   22.2701 C   0  0  0  0  0  0  0  0  0  0  0  0
   11.7067   -0.7289   26.0036 C   0  0  0  0  0  0  0  0  0  0  0  0
   12.2934   -3.0523   25.4038 C   0  0  0  0  0  0  0  0  0  0  0  0
    8.3369   -5.0844   23.6139 C   0  0  0  0  0  0  0  0  0  0  0  0
    7.8109   -3.0083   22.3247 C   0  0  0  0  0  0  0  0  0  0  0  0
    9.9954   -3.1689   23.6059 C   0  0  0  0  0  0  0  0  0  0  0  0
    5.9868   -6.3673   22.5406 C   0  0  0  0  0  0  0  0  0  0  0  0
   11.3829   -1.9167   25.2104 N   0  0  0  0  0  0  0  0  0  0  0  0
    7.4443   -4.3806   22.6841 N   0  0  0  0  0  0  0  0  0  0  0  0
    9.4852   -0.9607   24.2709 O   0  0  0  0  0  0  0  0  0  0  0  0
    5.5417   -4.3631   21.3485 O   0  0  0  0  0  0  0  0  0  0  0  0
    5.0035   -6.2674   23.9969 Cl  0  0  0  0  0  0  0  0  0  0  0  0
  1 12  1  0  0  0  0
  1 14  1  0  0  0  0
  1 16  2  0  0  0  0
  2 13  1  0  0  0  0
  2 15  1  0  0  0  0
  2 17  2  0  0  0  0
  3  4  1  0  0  0  0
  3  5  1  0  0  0  0
  4  8  1  0  0  0  0
  5  9  1  0  0  0  0
  6 10  1  0  0  0  0
  6 12  1  0  0  0  0
  7 11  1  0  0  0  0
  7 12  1  0  0  0  0
  8 14  1  0  0  0  0
  9 14  1  0  0  0  0
 10 15  1  0  0  0  0
 11 15  1  0  0  0  0
 13 18  1  0  0  0  0
M  END
> <ref_mols>
x0812_0

> <original SMILES>
ClCC(=O)N1CCC(CC1)C(=O)N2CCCCC2

> <Chemgauss4>
-9.132237

> <ref_pdb>
x0749_0

$$$$
x1406
  -OEChem-05172015543D

 18 19  0     0  0  0  0  0  0999 V2000
   10.2570   -1.9161   24.3876 C   0  0  0  0  0  0  0  0  0  0  0  0
    6.2954   -4.9484   22.1297 C   0  0  0  0  0  0  0  0  0  0  0  0
   14.1312   -1.4147   25.9560 C   0  0  0  0  0  0  0  0  0  0  0  0
   13.1394   -0.2723   25.7423 C   0  0  0  0  0  0  0  0  0  0  0  0
   13.7386   -2.6402   25.1320 C   0  0  0  0  0  0  0  0  0  0  0  0
    9.1613   -4.1248   24.4650 C   0  0  0  0  0  0  0  0  0  0  0  0
    9.3247   -2.8252   22.2701 C   0  0  0  0  0  0  0  0  0  0  0  0
   11.7067   -0.7289   26.0036 C   0  0  0  0  0  0  0  0  0  0  0  0
   12.2934   -3.0523   25.4038 C   0  0  0  0  0  0  0  0  0  0  0  0
    8.3369   -5.0844   23.6139 C   0  0  0  0  0  0  0  0  0  0  0  0
    7.8109   -3.0083   22.3247 C   0  0  0  0  0  0  0  0  0  0  0  0
    9.9954   -3.1689   23.6059 C   0  0  0  0  0  0  0  0  0  0  0  0
    5.9868   -6.3673   22.5406 C   0  0  0  0  0  0  0  0  0  0  0  0
   11.3829   -1.9167   25.2104 N   0  0  0  0  0  0  0  0  0  0  0  0
    7.4443   -4.3806   22.6841 N   0  0  0  0  0  0  0  0  0  0  0  0
    9.4852   -0.9607   24.2709 O   0  0  0  0  0  0  0  0  0  0  0  0
    5.5417   -4.3631   21.3485 O   0  0  0  0  0  0  0  0  0  0  0  0
    5.0035   -6.2674   23.9969 Cl  0  0  0  0  0  0  0  0  0  0  0  0
  1 12  1  0  0  0  0
  1 14  1  0  0  0  0
  1 16  2  0  0  0  0
  2 13  1  0  0  0  0
  2 15  1  0  0  0  0
  2 17  2  0  0  0  0
  3  4  1  0  0  0  0
  3  5  1  0  0  0  0
  4  8  1  0  0  0  0
  5  9  1  0  0  0  0
  6 10  1  0  0  0  0
  6 12  1  0  0  0  0
  7 11  1  0  0  0  0
  7 12  1  0  0  0  0
  8 14  1  0  0  0  0
  9 14  1  0  0  0  0
 10 15  1  0  0  0  0
 11 15  1  0  0  0  0
 13 18  1  0  0  0  0
M  END
> <ref_mols>
x1406_0

> <original SMILES>
ClCC(=O)N1CCC(CC1)C(=O)N2CCCCC2

> <Chemgauss4>
-9.132237

> <ref_pdb>
x0749_0

$$$$
x0744
  -OEChem-05172015543D

 18 19  0     0  0  0  0  0  0999 V2000
   10.2570   -1.9161   24.3876 C   0  0  0  0  0  0  0  0  0  0  0  0
    6.2954   -4.9484   22.1297 C   0  0  0  0  0  0  0  0  0  0  0  0
   14.1312   -1.4147   25.9560 C   0  0  0  0  0  0  0  0  0  0  0  0
   13.1394   -0.2723   25.7423 C   0  0  0  0  0  0  0  0  0  0  0  0
   13.7386   -2.6402   25.1320 C   0  0  0  0  0  0  0  0  0  0  0  0
    9.1613   -4.1248   24.4650 C   0  0  0  0  0  0  0  0  0  0  0  0
    9.3247   -2.8252   22.2701 C   0  0  0  0  0  0  0  0  0  0  0  0
   11.7067   -0.7289   26.0036 C   0  0  0  0  0  0  0  0  0  0  0  0
   12.2934   -3.0523   25.4038 C   0  0  0  0  0  0  0  0  0  0  0  0
    8.3369   -5.0844   23.6139 C   0  0  0  0  0  0  0  0  0  0  0  0
    7.8109   -3.0083   22.3247 C   0  0  0  0  0  0  0  0  0  0  0  0
    9.9954   -3.1689   23.6059 C   0  0  0  0  0  0  0  0  0  0  0  0
    5.9868   -6.3673   22.5406 C   0  0  0  0  0  0  0  0  0  0  0  0
   11.3829   -1.9167   25.2104 N   0  0  0  0  0  0  0  0  0  0  0  0
    7.4443   -4.3806   22.6841 N   0  0  0  0  0  0  0  0  0  0  0  0
    9.4852   -0.9607   24.2709 O   0  0  0  0  0  0  0  0  0  0  0  0
    5.5417   -4.3631   21.3485 O   0  0  0  0  0  0  0  0  0  0  0  0
    5.0035   -6.2674   23.9969 Cl  0  0  0  0  0  0  0  0  0  0  0  0
  1 12  1  0  0  0  0
  1 14  1  0  0  0  0
  1 16  2  0  0  0  0
  2 13  1  0  0  0  0
  2 15  1  0  0  0  0
  2 17  2  0  0  0  0
  3  4  1  0  0  0  0
  3  5  1  0  0  0  0
  4  8  1  0  0  0  0
  5  9  1  0  0  0  0
  6 10  1  0  0  0  0
  6 12  1  0  0  0  0
  7 11  1  0  0  0  0
  7 12  1  0  0  0  0
  8 14  1  0  0  0  0
  9 14  1  0  0  0  0
 10 15  1  0  0  0  0
 11 15  1  0  0  0  0
 13 18  1  0  0  0  0
M  END
> <ref_mols>
x0744_0

> <original SMILES>
ClCC(=O)N1CCC(CC1)C(=O)N2CCCCC2

> <Chemgauss4>
-9.132237

> <ref_pdb>
x0749_0

$$$$
x1361
  -OEChem-05172015543D

 18 19  0     0  0  0  0  0  0999 V2000
   10.2570   -1.9161   24.3876 C   0  0  0  0  0  0  0  0  0  0  0  0
    6.2954   -4.9484   22.1297 C   0  0  0  0  0  0  0  0  0  0  0  0
   14.1312   -1.4147   25.9560 C   0  0  0  0  0  0  0  0  0  0  0  0
   13.1394   -0.2723   25.7423 C   0  0  0  0  0  0  0  0  0  0  0  0
   13.7386   -2.6402   25.1320 C   0  0  0  0  0  0  0  0  0  0  0  0
    9.1613   -4.1248   24.4650 C   0  0  0  0  0  0  0  0  0  0  0  0
    9.3247   -2.8252   22.2701 C   0  0  0  0  0  0  0  0  0  0  0  0
   11.7067   -0.7289   26.0036 C   0  0  0  0  0  0  0  0  0  0  0  0
   12.2934   -3.0523   25.4038 C   0  0  0  0  0  0  0  0  0  0  0  0
    8.3369   -5.0844   23.6139 C   0  0  0  0  0  0  0  0  0  0  0  0
    7.8109   -3.0083   22.3247 C   0  0  0  0  0  0  0  0  0  0  0  0
    9.9954   -3.1689   23.6059 C   0  0  0  0  0  0  0  0  0  0  0  0
    5.9868   -6.3673   22.5406 C   0  0  0  0  0  0  0  0  0  0  0  0
   11.3829   -1.9167   25.2104 N   0  0  0  0  0  0  0  0  0  0  0  0
    7.4443   -4.3806   22.6841 N   0  0  0  0  0  0  0  0  0  0  0  0
    9.4852   -0.9607   24.2709 O   0  0  0  0  0  0  0  0  0  0  0  0
    5.5417   -4.3631   21.3485 O   0  0  0  0  0  0  0  0  0  0  0  0
    5.0035   -6.2674   23.9969 Cl  0  0  0  0  0  0  0  0  0  0  0  0
  1 12  1  0  0  0  0
  1 14  1  0  0  0  0
  1 16  2  0  0  0  0
  2 13  1  0  0  0  0
  2 15  1  0  0  0  0
  2 17  2  0  0  0  0
  3  4  1  0  0  0  0
  3  5  1  0  0  0  0
  4  8  1  0  0  0  0
  5  9  1  0  0  0  0
  6 10  1  0  0  0  0
  6 12  1  0  0  0  0
  7 11  1  0  0  0  0
  7 12  1  0  0  0  0
  8 14  1  0  0  0  0
  9 14  1  0  0  0  0
 10 15  1  0  0  0  0
 11 15  1  0  0  0  0
 13 18  1  0  0  0  0
M  END
> <ref_mols>
x1361_0

> <original SMILES>
ClCC(=O)N1CCC(CC1)C(=O)N2CCCCC2

> <Chemgauss4>
-9.132237

> <ref_pdb>
x0749_0

$$$$
x1321
  -OEChem-05172015543D

 18 19  0     0  0  0  0  0  0999 V2000
   10.2570   -1.9161   24.3876 C   0  0  0  0  0  0  0  0  0  0  0  0
    6.2954   -4.9484   22.1297 C   0  0  0  0  0  0  0  0  0  0  0  0
   14.1312   -1.4147   25.9560 C   0  0  0  0  0  0  0  0  0  0  0  0
   13.1394   -0.2723   25.7423 C   0  0  0  0  0  0  0  0  0  0  0  0
   13.7386   -2.6402   25.1320 C   0  0  0  0  0  0  0  0  0  0  0  0
    9.1613   -4.1248   24.4650 C   0  0  0  0  0  0  0  0  0  0  0  0
    9.3247   -2.8252   22.2701 C   0  0  0  0  0  0  0  0  0  0  0  0
   11.7067   -0.7289   26.0036 C   0  0  0  0  0  0  0  0  0  0  0  0
   12.2934   -3.0523   25.4038 C   0  0  0  0  0  0  0  0  0  0  0  0
    8.3369   -5.0844   23.6139 C   0  0  0  0  0  0  0  0  0  0  0  0
    7.8109   -3.0083   22.3247 C   0  0  0  0  0  0  0  0  0  0  0  0
    9.9954   -3.1689   23.6059 C   0  0  0  0  0  0  0  0  0  0  0  0
    5.9868   -6.3673   22.5406 C   0  0  0  0  0  0  0  0  0  0  0  0
   11.3829   -1.9167   25.2104 N   0  0  0  0  0  0  0  0  0  0  0  0
    7.4443   -4.3806   22.6841 N   0  0  0  0  0  0  0  0  0  0  0  0
    9.4852   -0.9607   24.2709 O   0  0  0  0  0  0  0  0  0  0  0  0
    5.5417   -4.3631   21.3485 O   0  0  0  0  0  0  0  0  0  0  0  0
    5.0035   -6.2674   23.9969 Cl  0  0  0  0  0  0  0  0  0  0  0  0
  1 12  1  0  0  0  0
  1 14  1  0  0  0  0
  1 16  2  0  0  0  0
  2 13  1  0  0  0  0
  2 15  1  0  0  0  0
  2 17  2  0  0  0  0
  3  4  1  0  0  0  0
  3  5  1  0  0  0  0
  4  8  1  0  0  0  0
  5  9  1  0  0  0  0
  6 10  1  0  0  0  0
  6 12  1  0  0  0  0
  7 11  1  0  0  0  0
  7 12  1  0  0  0  0
  8 14  1  0  0  0  0
  9 14  1  0  0  0  0
 10 15  1  0  0  0  0
 11 15  1  0  0  0  0
 13 18  1  0  0  0  0
M  END
> <ref_mols>
x1321_0

> <original SMILES>
ClCC(=O)N1CCC(CC1)C(=O)N2CCCCC2

> <Chemgauss4>
-9.132237

> <ref_pdb>
x0749_0

$$$$
x2499
  -OEChem-05172015543D

 18 19  0     0  0  0  0  0  0999 V2000
   10.2570   -1.9161   24.3876 C   0  0  0  0  0  0  0  0  0  0  0  0
    6.2954   -4.9484   22.1297 C   0  0  0  0  0  0  0  0  0  0  0  0
   14.1312   -1.4147   25.9560 C   0  0  0  0  0  0  0  0  0  0  0  0
   13.1394   -0.2723   25.7423 C   0  0  0  0  0  0  0  0  0  0  0  0
   13.7386   -2.6402   25.1320 C   0  0  0  0  0  0  0  0  0  0  0  0
    9.1613   -4.1248   24.4650 C   0  0  0  0  0  0  0  0  0  0  0  0
    9.3247   -2.8252   22.2701 C   0  0  0  0  0  0  0  0  0  0  0  0
   11.7067   -0.7289   26.0036 C   0  0  0  0  0  0  0  0  0  0  0  0
   12.2934   -3.0523   25.4038 C   0  0  0  0  0  0  0  0  0  0  0  0
    8.3369   -5.0844   23.6139 C   0  0  0  0  0  0  0  0  0  0  0  0
    7.8109   -3.0083   22.3247 C   0  0  0  0  0  0  0  0  0  0  0  0
    9.9954   -3.1689   23.6059 C   0  0  0  0  0  0  0  0  0  0  0  0
    5.9868   -6.3673   22.5406 C   0  0  0  0  0  0  0  0  0  0  0  0
   11.3829   -1.9167   25.2104 N   0  0  0  0  0  0  0  0  0  0  0  0
    7.4443   -4.3806   22.6841 N   0  0  0  0  0  0  0  0  0  0  0  0
    9.4852   -0.9607   24.2709 O   0  0  0  0  0  0  0  0  0  0  0  0
    5.5417   -4.3631   21.3485 O   0  0  0  0  0  0  0  0  0  0  0  0
    5.0035   -6.2674   23.9969 Cl  0  0  0  0  0  0  0  0  0  0  0  0
  1 12  1  0  0  0  0
  1 14  1  0  0  0  0
  1 16  2  0  0  0  0
  2 13  1  0  0  0  0
  2 15  1  0  0  0  0
  2 17  2  0  0  0  0
  3  4  1  0  0  0  0
  3  5  1  0  0  0  0
  4  8  1  0  0  0  0
  5  9  1  0  0  0  0
  6 10  1  0  0  0  0
  6 12  1  0  0  0  0
  7 11  1  0  0  0  0
  7 12  1  0  0  0  0
  8 14  1  0  0  0  0
  9 14  1  0  0  0  0
 10 15  1  0  0  0  0
 11 15  1  0  0  0  0
 13 18  1  0  0  0  0
M  END
> <ref_mols>
x2499_0

> <original SMILES>
ClCC(=O)N1CCC(CC1)C(=O)N2CCCCC2

> <Chemgauss4>
-9.132237

> <ref_pdb>
x0749_0

$$$$
x1433
  -OEChem-05172015543D

 18 19  0     0  0  0  0  0  0999 V2000
   10.2570   -1.9161   24.3876 C   0  0  0  0  0  0  0  0  0  0  0  0
    6.2954   -4.9484   22.1297 C   0  0  0  0  0  0  0  0  0  0  0  0
   14.1312   -1.4147   25.9560 C   0  0  0  0  0  0  0  0  0  0  0  0
   13.1394   -0.2723   25.7423 C   0  0  0  0  0  0  0  0  0  0  0  0
   13.7386   -2.6402   25.1320 C   0  0  0  0  0  0  0  0  0  0  0  0
    9.1613   -4.1248   24.4650 C   0  0  0  0  0  0  0  0  0  0  0  0
    9.3247   -2.8252   22.2701 C   0  0  0  0  0  0  0  0  0  0  0  0
   11.7067   -0.7289   26.0036 C   0  0  0  0  0  0  0  0  0  0  0  0
   12.2934   -3.0523   25.4038 C   0  0  0  0  0  0  0  0  0  0  0  0
    8.3369   -5.0844   23.6139 C   0  0  0  0  0  0  0  0  0  0  0  0
    7.8109   -3.0083   22.3247 C   0  0  0  0  0  0  0  0  0  0  0  0
    9.9954   -3.1689   23.6059 C   0  0  0  0  0  0  0  0  0  0  0  0
    5.9868   -6.3673   22.5406 C   0  0  0  0  0  0  0  0  0  0  0  0
   11.3829   -1.9167   25.2104 N   0  0  0  0  0  0  0  0  0  0  0  0
    7.4443   -4.3806   22.6841 N   0  0  0  0  0  0  0  0  0  0  0  0
    9.4852   -0.9607   24.2709 O   0  0  0  0  0  0  0  0  0  0  0  0
    5.5417   -4.3631   21.3485 O   0  0  0  0  0  0  0  0  0  0  0  0
    5.0035   -6.2674   23.9969 Cl  0  0  0  0  0  0  0  0  0  0  0  0
  1 12  1  0  0  0  0
  1 14  1  0  0  0  0
  1 16  2  0  0  0  0
  2 13  1  0  0  0  0
  2 15  1  0  0  0  0
  2 17  2  0  0  0  0
  3  4  1  0  0  0  0
  3  5  1  0  0  0  0
  4  8  1  0  0  0  0
  5  9  1  0  0  0  0
  6 10  1  0  0  0  0
  6 12  1  0  0  0  0
  7 11  1  0  0  0  0
  7 12  1  0  0  0  0
  8 14  1  0  0  0  0
  9 14  1  0  0  0  0
 10 15  1  0  0  0  0
 11 15  1  0  0  0  0
 13 18  1  0  0  0  0
M  END
> <ref_mols>
x1433_0

> <original SMILES>
ClCC(=O)N1CCC(CC1)C(=O)N2CCCCC2

> <Chemgauss4>
-9.132237

> <ref_pdb>
x0749_0

$$$$
x1355
  -OEChem-05172015543D

 18 19  0     0  0  0  0  0  0999 V2000
   10.2570   -1.9161   24.3876 C   0  0  0  0  0  0  0  0  0  0  0  0
    6.2954   -4.9484   22.1297 C   0  0  0  0  0  0  0  0  0  0  0  0
   14.1312   -1.4147   25.9560 C   0  0  0  0  0  0  0  0  0  0  0  0
   13.1394   -0.2723   25.7423 C   0  0  0  0  0  0  0  0  0  0  0  0
   13.7386   -2.6402   25.1320 C   0  0  0  0  0  0  0  0  0  0  0  0
    9.1613   -4.1248   24.4650 C   0  0  0  0  0  0  0  0  0  0  0  0
    9.3247   -2.8252   22.2701 C   0  0  0  0  0  0  0  0  0  0  0  0
   11.7067   -0.7289   26.0036 C   0  0  0  0  0  0  0  0  0  0  0  0
   12.2934   -3.0523   25.4038 C   0  0  0  0  0  0  0  0  0  0  0  0
    8.3369   -5.0844   23.6139 C   0  0  0  0  0  0  0  0  0  0  0  0
    7.8109   -3.0083   22.3247 C   0  0  0  0  0  0  0  0  0  0  0  0
    9.9954   -3.1689   23.6059 C   0  0  0  0  0  0  0  0  0  0  0  0
    5.9868   -6.3673   22.5406 C   0  0  0  0  0  0  0  0  0  0  0  0
   11.3829   -1.9167   25.2104 N   0  0  0  0  0  0  0  0  0  0  0  0
    7.4443   -4.3806   22.6841 N   0  0  0  0  0  0  0  0  0  0  0  0
    9.4852   -0.9607   24.2709 O   0  0  0  0  0  0  0  0  0  0  0  0
    5.5417   -4.3631   21.3485 O   0  0  0  0  0  0  0  0  0  0  0  0
    5.0035   -6.2674   23.9969 Cl  0  0  0  0  0  0  0  0  0  0  0  0
  1 12  1  0  0  0  0
  1 14  1  0  0  0  0
  1 16  2  0  0  0  0
  2 13  1  0  0  0  0
  2 15  1  0  0  0  0
  2 17  2  0  0  0  0
  3  4  1  0  0  0  0
  3  5  1  0  0  0  0
  4  8  1  0  0  0  0
  5  9  1  0  0  0  0
  6 10  1  0  0  0  0
  6 12  1  0  0  0  0
  7 11  1  0  0  0  0
  7 12  1  0  0  0  0
  8 14  1  0  0  0  0
  9 14  1  0  0  0  0
 10 15  1  0  0  0  0
 11 15  1  0  0  0  0
 13 18  1  0  0  0  0
M  END
> <ref_mols>
x1355_0

> <original SMILES>
ClCC(=O)N1CCC(CC1)C(=O)N2CCCCC2

> <Chemgauss4>
-9.132237

> <ref_pdb>
x0749_0

$$$$
x1455
  -OEChem-05172015543D

 18 19  0     0  0  0  0  0  0999 V2000
   10.2570   -1.9161   24.3876 C   0  0  0  0  0  0  0  0  0  0  0  0
    6.2954   -4.9484   22.1297 C   0  0  0  0  0  0  0  0  0  0  0  0
   14.1312   -1.4147   25.9560 C   0  0  0  0  0  0  0  0  0  0  0  0
   13.1394   -0.2723   25.7423 C   0  0  0  0  0  0  0  0  0  0  0  0
   13.7386   -2.6402   25.1320 C   0  0  0  0  0  0  0  0  0  0  0  0
    9.1613   -4.1248   24.4650 C   0  0  0  0  0  0  0  0  0  0  0  0
    9.3247   -2.8252   22.2701 C   0  0  0  0  0  0  0  0  0  0  0  0
   11.7067   -0.7289   26.0036 C   0  0  0  0  0  0  0  0  0  0  0  0
   12.2934   -3.0523   25.4038 C   0  0  0  0  0  0  0  0  0  0  0  0
    8.3369   -5.0844   23.6139 C   0  0  0  0  0  0  0  0  0  0  0  0
    7.8109   -3.0083   22.3247 C   0  0  0  0  0  0  0  0  0  0  0  0
    9.9954   -3.1689   23.6059 C   0  0  0  0  0  0  0  0  0  0  0  0
    5.9868   -6.3673   22.5406 C   0  0  0  0  0  0  0  0  0  0  0  0
   11.3829   -1.9167   25.2104 N   0  0  0  0  0  0  0  0  0  0  0  0
    7.4443   -4.3806   22.6841 N   0  0  0  0  0  0  0  0  0  0  0  0
    9.4852   -0.9607   24.2709 O   0  0  0  0  0  0  0  0  0  0  0  0
    5.5417   -4.3631   21.3485 O   0  0  0  0  0  0  0  0  0  0  0  0
    5.0035   -6.2674   23.9969 Cl  0  0  0  0  0  0  0  0  0  0  0  0
  1 12  1  0  0  0  0
  1 14  1  0  0  0  0
  1 16  2  0  0  0  0
  2 13  1  0  0  0  0
  2 15  1  0  0  0  0
  2 17  2  0  0  0  0
  3  4  1  0  0  0  0
  3  5  1  0  0  0  0
  4  8  1  0  0  0  0
  5  9  1  0  0  0  0
  6 10  1  0  0  0  0
  6 12  1  0  0  0  0
  7 11  1  0  0  0  0
  7 12  1  0  0  0  0
  8 14  1  0  0  0  0
  9 14  1  0  0  0  0
 10 15  1  0  0  0  0
 11 15  1  0  0  0  0
 13 18  1  0  0  0  0
M  END
> <ref_mols>
x1455_0

> <original SMILES>
ClCC(=O)N1CCC(CC1)C(=O)N2CCCCC2

> <Chemgauss4>
-9.132237

> <ref_pdb>
x0749_0

$$$$
x1380
  -OEChem-05172015543D

 18 19  0     0  0  0  0  0  0999 V2000
   10.2570   -1.9161   24.3876 C   0  0  0  0  0  0  0  0  0  0  0  0
    6.2954   -4.9484   22.1297 C   0  0  0  0  0  0  0  0  0  0  0  0
   14.1312   -1.4147   25.9560 C   0  0  0  0  0  0  0  0  0  0  0  0
   13.1394   -0.2723   25.7423 C   0  0  0  0  0  0  0  0  0  0  0  0
   13.7386   -2.6402   25.1320 C   0  0  0  0  0  0  0  0  0  0  0  0
    9.1613   -4.1248   24.4650 C   0  0  0  0  0  0  0  0  0  0  0  0
    9.3247   -2.8252   22.2701 C   0  0  0  0  0  0  0  0  0  0  0  0
   11.7067   -0.7289   26.0036 C   0  0  0  0  0  0  0  0  0  0  0  0
   12.2934   -3.0523   25.4038 C   0  0  0  0  0  0  0  0  0  0  0  0
    8.3369   -5.0844   23.6139 C   0  0  0  0  0  0  0  0  0  0  0  0
    7.8109   -3.0083   22.3247 C   0  0  0  0  0  0  0  0  0  0  0  0
    9.9954   -3.1689   23.6059 C   0  0  0  0  0  0  0  0  0  0  0  0
    5.9868   -6.3673   22.5406 C   0  0  0  0  0  0  0  0  0  0  0  0
   11.3829   -1.9167   25.2104 N   0  0  0  0  0  0  0  0  0  0  0  0
    7.4443   -4.3806   22.6841 N   0  0  0  0  0  0  0  0  0  0  0  0
    9.4852   -0.9607   24.2709 O   0  0  0  0  0  0  0  0  0  0  0  0
    5.5417   -4.3631   21.3485 O   0  0  0  0  0  0  0  0  0  0  0  0
    5.0035   -6.2674   23.9969 Cl  0  0  0  0  0  0  0  0  0  0  0  0
  1 12  1  0  0  0  0
  1 14  1  0  0  0  0
  1 16  2  0  0  0  0
  2 13  1  0  0  0  0
  2 15  1  0  0  0  0
  2 17  2  0  0  0  0
  3  4  1  0  0  0  0
  3  5  1  0  0  0  0
  4  8  1  0  0  0  0
  5  9  1  0  0  0  0
  6 10  1  0  0  0  0
  6 12  1  0  0  0  0
  7 11  1  0  0  0  0
  7 12  1  0  0  0  0
  8 14  1  0  0  0  0
  9 14  1  0  0  0  0
 10 15  1  0  0  0  0
 11 15  1  0  0  0  0
 13 18  1  0  0  0  0
M  END
> <ref_mols>
x1380_0

> <original SMILES>
ClCC(=O)N1CCC(CC1)C(=O)N2CCCCC2

> <Chemgauss4>
-9.132237

> <ref_pdb>
x0749_0

$$$$
x0818
  -OEChem-05172015543D

 18 19  0     0  0  0  0  0  0999 V2000
   10.2570   -1.9161   24.3876 C   0  0  0  0  0  0  0  0  0  0  0  0
    6.2954   -4.9484   22.1297 C   0  0  0  0  0  0  0  0  0  0  0  0
   14.1312   -1.4147   25.9560 C   0  0  0  0  0  0  0  0  0  0  0  0
   13.1394   -0.2723   25.7423 C   0  0  0  0  0  0  0  0  0  0  0  0
   13.7386   -2.6402   25.1320 C   0  0  0  0  0  0  0  0  0  0  0  0
    9.1613   -4.1248   24.4650 C   0  0  0  0  0  0  0  0  0  0  0  0
    9.3247   -2.8252   22.2701 C   0  0  0  0  0  0  0  0  0  0  0  0
   11.7067   -0.7289   26.0036 C   0  0  0  0  0  0  0  0  0  0  0  0
   12.2934   -3.0523   25.4038 C   0  0  0  0  0  0  0  0  0  0  0  0
    8.3369   -5.0844   23.6139 C   0  0  0  0  0  0  0  0  0  0  0  0
    7.8109   -3.0083   22.3247 C   0  0  0  0  0  0  0  0  0  0  0  0
    9.9954   -3.1689   23.6059 C   0  0  0  0  0  0  0  0  0  0  0  0
    5.9868   -6.3673   22.5406 C   0  0  0  0  0  0  0  0  0  0  0  0
   11.3829   -1.9167   25.2104 N   0  0  0  0  0  0  0  0  0  0  0  0
    7.4443   -4.3806   22.6841 N   0  0  0  0  0  0  0  0  0  0  0  0
    9.4852   -0.9607   24.2709 O   0  0  0  0  0  0  0  0  0  0  0  0
    5.5417   -4.3631   21.3485 O   0  0  0  0  0  0  0  0  0  0  0  0
    5.0035   -6.2674   23.9969 Cl  0  0  0  0  0  0  0  0  0  0  0  0
  1 12  1  0  0  0  0
  1 14  1  0  0  0  0
  1 16  2  0  0  0  0
  2 13  1  0  0  0  0
  2 15  1  0  0  0  0
  2 17  2  0  0  0  0
  3  4  1  0  0  0  0
  3  5  1  0  0  0  0
  4  8  1  0  0  0  0
  5  9  1  0  0  0  0
  6 10  1  0  0  0  0
  6 12  1  0  0  0  0
  7 11  1  0  0  0  0
  7 12  1  0  0  0  0
  8 14  1  0  0  0  0
  9 14  1  0  0  0  0
 10 15  1  0  0  0  0
 11 15  1  0  0  0  0
 13 18  1  0  0  0  0
M  END
> <ref_mols>
x0818_0

> <original SMILES>
ClCC(=O)N1CCC(CC1)C(=O)N2CCCCC2

> <Chemgauss4>
-9.132237

> <ref_pdb>
x0749_0

> <CYS145-warhead dist minimum (A)>
5.946222

> <CYS145-warhead dist mean (A)>
8.053252

> <CYS145-warhead dist stddev (A)>
0.5737508

$$$$
x0738
  -OEChem-05172015543D

 18 19  0     0  0  0  0  0  0999 V2000
   10.2570   -1.9161   24.3876 C   0  0  0  0  0  0  0  0  0  0  0  0
    6.2954   -4.9484   22.1297 C   0  0  0  0  0  0  0  0  0  0  0  0
   14.1312   -1.4147   25.9560 C   0  0  0  0  0  0  0  0  0  0  0  0
   13.1394   -0.2723   25.7423 C   0  0  0  0  0  0  0  0  0  0  0  0
   13.7386   -2.6402   25.1320 C   0  0  0  0  0  0  0  0  0  0  0  0
    9.1613   -4.1248   24.4650 C   0  0  0  0  0  0  0  0  0  0  0  0
    9.3247   -2.8252   22.2701 C   0  0  0  0  0  0  0  0  0  0  0  0
   11.7067   -0.7289   26.0036 C   0  0  0  0  0  0  0  0  0  0  0  0
   12.2934   -3.0523   25.4038 C   0  0  0  0  0  0  0  0  0  0  0  0
    8.3369   -5.0844   23.6139 C   0  0  0  0  0  0  0  0  0  0  0  0
    7.8109   -3.0083   22.3247 C   0  0  0  0  0  0  0  0  0  0  0  0
    9.9954   -3.1689   23.6059 C   0  0  0  0  0  0  0  0  0  0  0  0
    5.9868   -6.3673   22.5406 C   0  0  0  0  0  0  0  0  0  0  0  0
   11.3829   -1.9167   25.2104 N   0  0  0  0  0  0  0  0  0  0  0  0
    7.4443   -4.3806   22.6841 N   0  0  0  0  0  0  0  0  0  0  0  0
    9.4852   -0.9607   24.2709 O   0  0  0  0  0  0  0  0  0  0  0  0
    5.5417   -4.3631   21.3485 O   0  0  0  0  0  0  0  0  0  0  0  0
    5.0035   -6.2674   23.9969 Cl  0  0  0  0  0  0  0  0  0  0  0  0
  1 12  1  0  0  0  0
  1 14  1  0  0  0  0
  1 16  2  0  0  0  0
  2 13  1  0  0  0  0
  2 15  1  0  0  0  0
  2 17  2  0  0  0  0
  3  4  1  0  0  0  0
  3  5  1  0  0  0  0
  4  8  1  0  0  0  0
  5  9  1  0  0  0  0
  6 10  1  0  0  0  0
  6 12  1  0  0  0  0
  7 11  1  0  0  0  0
  7 12  1  0  0  0  0
  8 14  1  0  0  0  0
  9 14  1  0  0  0  0
 10 15  1  0  0  0  0
 11 15  1  0  0  0  0
 13 18  1  0  0  0  0
M  END
> <ref_mols>
x0738_0

> <original SMILES>
ClCC(=O)N1CCC(CC1)C(=O)N2CCCCC2

> <Chemgauss4>
-9.132237

> <ref_pdb>
x0749_0

> <CYS145-warhead dist minimum (A)>
9.486464

> <CYS145-warhead dist mean (A)>
12.538041

> <CYS145-warhead dist stddev (A)>
0.71005183

$$$$
x2571
  -OEChem-05172015543D

 21 22  0     0  0  0  0  0  0999 V2000
    9.4549   -4.6308   23.4009 C   0  0  0  0  0  0  0  0  0  0  0  0
    8.7233   -2.3998   22.8314 C   0  0  0  0  0  0  0  0  0  0  0  0
    8.2964   -5.1567   22.8293 C   0  0  0  0  0  0  0  0  0  0  0  0
    7.5648   -2.9257   22.2597 C   0  0  0  0  0  0  0  0  0  0  0  0
    9.6684   -3.2523   23.4021 C   0  0  0  0  0  0  0  0  0  0  0  0
    7.3513   -4.3042   22.2586 C   0  0  0  0  0  0  0  0  0  0  0  0
   12.5525   -2.8963   25.7327 C   0  0  0  0  0  0  0  0  0  0  0  0
   12.8895   -1.3854   23.7669 C   0  0  0  0  0  0  0  0  0  0  0  0
   11.0631   -2.9897   25.4022 C   0  0  0  0  0  0  0  0  0  0  0  0
   11.3995   -1.4834   23.4378 C   0  0  0  0  0  0  0  0  0  0  0  0
   13.1898   -1.5860   25.2561 C   0  0  0  0  0  0  0  0  0  0  0  0
   12.7420   -0.3892   26.0977 C   0  0  0  0  0  0  0  0  0  0  0  0
   10.8314   -2.7238   23.9760 N   0  0  0  0  0  0  0  0  0  0  0  0
    4.8465   -4.9632   22.8881 N   0  0  0  0  0  0  0  0  0  0  0  0
    5.4033   -4.0118   20.5578 O   0  0  0  0  0  0  0  0  0  0  0  0
    6.1612   -6.3398   21.1523 O   0  0  0  0  0  0  0  0  0  0  0  0
   11.3362   -0.2644   25.9894 O   0  0  0  0  0  0  0  0  0  0  0  0
    5.9006   -4.9614   21.5434 S   0  0  0  0  0  0  0  0  0  0  0  0
    4.0808   -4.2784   22.9011 H   0  0  0  0  0  0  0  0  0  0  0  0
    4.6010   -5.8684   23.3070 H   0  0  0  0  0  0  0  0  0  0  0  0
   11.0745    0.5001   26.5306 H   0  0  0  0  0  0  0  0  0  0  0  0
  1  3  2  0  0  0  0
  1  5  1  0  0  0  0
  2  4  1  0  0  0  0
  2  5  2  0  0  0  0
  3  6  1  0  0  0  0
  4  6  2  0  0  0  0
  5 13  1  0  0  0  0
  6 18  1  0  0  0  0
  7  9  1  0  0  0  0
  7 11  1  0  0  0  0
  8 10  1  0  0  0  0
  8 11  1  0  0  0  0
  9 13  1  0  0  0  0
 10 13  1  0  0  0  0
 11 12  1  0  0  0  0
 12 17  1  0  0  0  0
 14 18  1  0  0  0  0
 15 18  2  0  0  0  0
 16 18  2  0  0  0  0
 14 19  1  0  0  0  0
 14 20  1  0  0  0  0
 17 21  1  0  0  0  0
M  END
> <ref_mols>
x2571_0

> <original SMILES>
NS(=O)(=O)C=1C=CC(=CC1)N2CCC(CO)CC2

> <Chemgauss4>
-9.132140

> <ref_pdb>
x0749_0

$$$$
x0673
  -OEChem-05172015543D

 17 18  0     0  0  0  0  0  0999 V2000
   11.6025   -3.3372   25.4756 C   0  0  0  0  0  0  0  0  0  0  0  0
   12.4345   -1.7460   23.8592 C   0  0  0  0  0  0  0  0  0  0  0  0
   12.7302   -3.1222   26.2678 C   0  0  0  0  0  0  0  0  0  0  0  0
   13.5622   -1.5309   24.6515 C   0  0  0  0  0  0  0  0  0  0  0  0
    9.5432   -4.0550   23.3565 C   0  0  0  0  0  0  0  0  0  0  0  0
   11.4547   -2.6492   24.2712 C   0  0  0  0  0  0  0  0  0  0  0  0
   13.7100   -2.2190   25.8558 C   0  0  0  0  0  0  0  0  0  0  0  0
   10.2939   -2.8707   23.4556 C   0  0  0  0  0  0  0  0  0  0  0  0
    8.5586   -3.7422   22.4571 C   0  0  0  0  0  0  0  0  0  0  0  0
    7.4796   -4.4998   21.9248 C   0  0  0  0  0  0  0  0  0  0  0  0
    6.4389   -5.8897   24.5986 C   0  0  0  0  0  0  0  0  0  0  0  0
    6.2603   -6.1985   23.1274 C   0  0  0  0  0  0  0  0  0  0  0  0
    9.8117   -1.8979   22.6772 N   0  0  0  0  0  0  0  0  0  0  0  0
    6.6339   -4.0856   21.0924 O   0  0  0  0  0  0  0  0  0  0  0  0
    8.7082   -2.4575   22.0444 O   0  0  0  0  0  0  0  0  0  0  0  0
    7.4346   -5.7881   22.4188 O   0  0  0  0  0  0  0  0  0  0  0  0
   14.7930   -2.0126   26.6167 F   0  0  0  0  0  0  0  0  0  0  0  0
  1  3  2  0  0  0  0
  1  6  1  0  0  0  0
  2  4  1  0  0  0  0
  2  6  2  0  0  0  0
  3  7  1  0  0  0  0
  4  7  2  0  0  0  0
  5  8  1  0  0  0  0
  5  9  2  0  0  0  0
  6  8  1  0  0  0  0
  7 17  1  0  0  0  0
  8 13  2  0  0  0  0
  9 10  1  0  0  0  0
  9 15  1  0  0  0  0
 10 14  2  0  0  0  0
 10 16  1  0  0  0  0
 11 12  1  0  0  0  0
 12 16  1  0  0  0  0
 13 15  1  0  0  0  0
M  END
> <ref_mols>
x0673_0

> <original SMILES>
CCOC(=O)C1=CC(=NO1)C=2C=CC(F)=CC2

> <Chemgauss4>
-9.129960

> <ref_pdb>
x0749_0

$$$$
x0533
  -OEChem-05172015543D

 17 19  0     0  0  0  0  0  0999 V2000
   13.2086   -0.9265   25.0160 C   0  0  0  0  0  0  0  0  0  0  0  0
   12.4547   -0.3994   23.9580 C   0  0  0  0  0  0  0  0  0  0  0  0
   12.9101   -2.1850   25.5379 C   0  0  0  0  0  0  0  0  0  0  0  0
   11.3912   -1.1215   23.4076 C   0  0  0  0  0  0  0  0  0  0  0  0
    8.4902   -5.5576   21.9929 C   0  0  0  0  0  0  0  0  0  0  0  0
    7.2618   -6.1657   21.8788 C   0  0  0  0  0  0  0  0  0  0  0  0
    8.2300   -4.1992   22.2933 C   0  0  0  0  0  0  0  0  0  0  0  0
   11.8517   -2.8927   24.9891 C   0  0  0  0  0  0  0  0  0  0  0  0
   11.0987   -2.3704   23.9355 C   0  0  0  0  0  0  0  0  0  0  0  0
    6.8610   -4.0740   22.3411 C   0  0  0  0  0  0  0  0  0  0  0  0
    9.1956   -3.1125   22.5160 C   0  0  0  0  0  0  0  0  0  0  0  0
   11.3888   -4.2607   25.3708 C   0  0  0  0  0  0  0  0  0  0  0  0
   10.1467   -4.4364   24.4904 C   0  0  0  0  0  0  0  0  0  0  0  0
    5.9564   -2.9437   22.6012 C   0  0  0  0  0  0  0  0  0  0  0  0
   10.0866   -3.2811   23.5671 N   0  0  0  0  0  0  0  0  0  0  0  0
    9.1290   -2.1635   21.7396 O   0  0  0  0  0  0  0  0  0  0  0  0
    6.2634   -5.2682   22.0894 O   0  0  0  0  0  0  0  0  0  0  0  0
  1  2  1  0  0  0  0
  1  3  2  0  0  0  0
  2  4  2  0  0  0  0
  3  8  1  0  0  0  0
  4  9  1  0  0  0  0
  5  6  2  0  0  0  0
  5  7  1  0  0  0  0
  6 17  1  0  0  0  0
  7 10  2  0  0  0  0
  7 11  1  0  0  0  0
  8  9  2  0  0  0  0
  8 12  1  0  0  0  0
  9 15  1  0  0  0  0
 10 14  1  0  0  0  0
 10 17  1  0  0  0  0
 11 15  1  0  0  0  0
 11 16  2  0  0  0  0
 12 13  1  0  0  0  0
 13 15  1  0  0  0  0
M  END
> <ref_mols>
x0533_0

> <original SMILES>
CC=1OC=CC1C(=O)N2CCC=3C=CC=CC23

> <Chemgauss4>
-9.126317

> <ref_pdb>
x0749_0

$$$$
x1114
  -OEChem-05172015543D

 17 19  0     0  0  0  0  0  0999 V2000
   13.2086   -0.9265   25.0160 C   0  0  0  0  0  0  0  0  0  0  0  0
   12.4547   -0.3994   23.9580 C   0  0  0  0  0  0  0  0  0  0  0  0
   12.9101   -2.1850   25.5379 C   0  0  0  0  0  0  0  0  0  0  0  0
   11.3912   -1.1215   23.4076 C   0  0  0  0  0  0  0  0  0  0  0  0
    8.4902   -5.5576   21.9929 C   0  0  0  0  0  0  0  0  0  0  0  0
    7.2618   -6.1657   21.8788 C   0  0  0  0  0  0  0  0  0  0  0  0
    8.2300   -4.1992   22.2933 C   0  0  0  0  0  0  0  0  0  0  0  0
   11.8517   -2.8927   24.9891 C   0  0  0  0  0  0  0  0  0  0  0  0
   11.0987   -2.3704   23.9355 C   0  0  0  0  0  0  0  0  0  0  0  0
    6.8610   -4.0740   22.3411 C   0  0  0  0  0  0  0  0  0  0  0  0
    9.1956   -3.1125   22.5160 C   0  0  0  0  0  0  0  0  0  0  0  0
   11.3888   -4.2607   25.3708 C   0  0  0  0  0  0  0  0  0  0  0  0
   10.1467   -4.4364   24.4904 C   0  0  0  0  0  0  0  0  0  0  0  0
    5.9564   -2.9437   22.6012 C   0  0  0  0  0  0  0  0  0  0  0  0
   10.0866   -3.2811   23.5671 N   0  0  0  0  0  0  0  0  0  0  0  0
    9.1290   -2.1635   21.7396 O   0  0  0  0  0  0  0  0  0  0  0  0
    6.2634   -5.2682   22.0894 O   0  0  0  0  0  0  0  0  0  0  0  0
  1  2  1  0  0  0  0
  1  3  2  0  0  0  0
  2  4  2  0  0  0  0
  3  8  1  0  0  0  0
  4  9  1  0  0  0  0
  5  6  2  0  0  0  0
  5  7  1  0  0  0  0
  6 17  1  0  0  0  0
  7 10  2  0  0  0  0
  7 11  1  0  0  0  0
  8  9  2  0  0  0  0
  8 12  1  0  0  0  0
  9 15  1  0  0  0  0
 10 14  1  0  0  0  0
 10 17  1  0  0  0  0
 11 15  1  0  0  0  0
 11 16  2  0  0  0  0
 12 13  1  0  0  0  0
 13 15  1  0  0  0  0
M  END
> <ref_mols>
x1114_0

> <original SMILES>
CC=1OC=CC1C(=O)N2CCC=3C=CC=CC23

> <Chemgauss4>
-9.126317

> <ref_pdb>
x0749_0

$$$$
x0675
  -OEChem-05172015543D

 17 18  0     0  0  0  0  0  0999 V2000
   11.2469   -3.5405   25.3747 C   0  0  0  0  0  0  0  0  0  0  0  0
   12.0305   -1.9664   23.7178 C   0  0  0  0  0  0  0  0  0  0  0  0
   12.3910   -3.3069   26.1377 C   0  0  0  0  0  0  0  0  0  0  0  0
   13.1745   -1.7327   24.4808 C   0  0  0  0  0  0  0  0  0  0  0  0
    9.1433   -4.3007   23.3152 C   0  0  0  0  0  0  0  0  0  0  0  0
   11.0667   -2.8703   24.1647 C   0  0  0  0  0  0  0  0  0  0  0  0
   13.3548   -2.4029   25.6908 C   0  0  0  0  0  0  0  0  0  0  0  0
    9.8884   -3.1106   23.3799 C   0  0  0  0  0  0  0  0  0  0  0  0
    8.1358   -4.0068   22.4351 C   0  0  0  0  0  0  0  0  0  0  0  0
    7.0494   -4.7785   21.9393 C   0  0  0  0  0  0  0  0  0  0  0  0
   14.5769   -2.1529   26.5080 C   0  0  0  0  0  0  0  0  0  0  0  0
    6.0812   -6.1368   24.6562 C   0  0  0  0  0  0  0  0  0  0  0  0
    5.8699   -6.4675   23.1941 C   0  0  0  0  0  0  0  0  0  0  0  0
    9.3817   -2.1519   22.5995 N   0  0  0  0  0  0  0  0  0  0  0  0
    6.1817   -4.3815   21.1213 O   0  0  0  0  0  0  0  0  0  0  0  0
    8.2672   -2.7272   22.0010 O   0  0  0  0  0  0  0  0  0  0  0  0
    7.0245   -6.0599   22.4522 O   0  0  0  0  0  0  0  0  0  0  0  0
  1  3  2  0  0  0  0
  1  6  1  0  0  0  0
  2  4  1  0  0  0  0
  2  6  2  0  0  0  0
  3  7  1  0  0  0  0
  4  7  2  0  0  0  0
  5  8  1  0  0  0  0
  5  9  2  0  0  0  0
  6  8  1  0  0  0  0
  7 11  1  0  0  0  0
  8 14  2  0  0  0  0
  9 10  1  0  0  0  0
  9 16  1  0  0  0  0
 10 15  2  0  0  0  0
 10 17  1  0  0  0  0
 12 13  1  0  0  0  0
 13 17  1  0  0  0  0
 14 16  1  0  0  0  0
M  END
> <ref_mols>
x0675_0

> <original SMILES>
CCOC(=O)C1=CC(=NO1)C=2C=CC(C)=CC2

> <Chemgauss4>
-9.125563

> <ref_pdb>
x0749_0

$$$$
x1062
  -OEChem-05172015543D

 17 18  0     0  0  0  0  0  0999 V2000
   11.2469   -3.5405   25.3747 C   0  0  0  0  0  0  0  0  0  0  0  0
   12.0305   -1.9664   23.7178 C   0  0  0  0  0  0  0  0  0  0  0  0
   12.3910   -3.3069   26.1377 C   0  0  0  0  0  0  0  0  0  0  0  0
   13.1745   -1.7327   24.4808 C   0  0  0  0  0  0  0  0  0  0  0  0
    9.1433   -4.3007   23.3152 C   0  0  0  0  0  0  0  0  0  0  0  0
   11.0667   -2.8703   24.1647 C   0  0  0  0  0  0  0  0  0  0  0  0
   13.3548   -2.4029   25.6908 C   0  0  0  0  0  0  0  0  0  0  0  0
    9.8884   -3.1106   23.3799 C   0  0  0  0  0  0  0  0  0  0  0  0
    8.1358   -4.0068   22.4351 C   0  0  0  0  0  0  0  0  0  0  0  0
    7.0494   -4.7785   21.9393 C   0  0  0  0  0  0  0  0  0  0  0  0
   14.5769   -2.1529   26.5080 C   0  0  0  0  0  0  0  0  0  0  0  0
    6.0812   -6.1368   24.6562 C   0  0  0  0  0  0  0  0  0  0  0  0
    5.8699   -6.4675   23.1941 C   0  0  0  0  0  0  0  0  0  0  0  0
    9.3817   -2.1519   22.5995 N   0  0  0  0  0  0  0  0  0  0  0  0
    6.1817   -4.3815   21.1213 O   0  0  0  0  0  0  0  0  0  0  0  0
    8.2672   -2.7272   22.0010 O   0  0  0  0  0  0  0  0  0  0  0  0
    7.0245   -6.0599   22.4522 O   0  0  0  0  0  0  0  0  0  0  0  0
  1  3  2  0  0  0  0
  1  6  1  0  0  0  0
  2  4  1  0  0  0  0
  2  6  2  0  0  0  0
  3  7  1  0  0  0  0
  4  7  2  0  0  0  0
  5  8  1  0  0  0  0
  5  9  2  0  0  0  0
  6  8  1  0  0  0  0
  7 11  1  0  0  0  0
  8 14  2  0  0  0  0
  9 10  1  0  0  0  0
  9 16  1  0  0  0  0
 10 15  2  0  0  0  0
 10 17  1  0  0  0  0
 12 13  1  0  0  0  0
 13 17  1  0  0  0  0
 14 16  1  0  0  0  0
M  END
> <ref_mols>
x1062_0

> <original SMILES>
CCOC(=O)C1=CC(=NO1)C=2C=CC(C)=CC2

> <Chemgauss4>
-9.125563

> <ref_pdb>
x0749_0

$$$$
x0177
  -OEChem-05172015543D

 21 22  0     0  0  0  0  0  0999 V2000
   13.6024   -0.0385   24.1382 C   0  0  0  0  0  0  0  0  0  0  0  0
   12.6154    0.7941   24.6656 C   0  0  0  0  0  0  0  0  0  0  0  0
   13.2509   -1.2608   23.5655 C   0  0  0  0  0  0  0  0  0  0  0  0
   11.2769    0.4044   24.6204 C   0  0  0  0  0  0  0  0  0  0  0  0
   11.9124   -1.6506   23.5203 C   0  0  0  0  0  0  0  0  0  0  0  0
   10.9253   -0.8180   24.0477 C   0  0  0  0  0  0  0  0  0  0  0  0
    6.9761   -5.4190   27.0319 C   0  0  0  0  0  0  0  0  0  0  0  0
    9.0463   -2.3933   23.4693 C   0  0  0  0  0  0  0  0  0  0  0  0
    8.3028   -5.5847   24.9480 C   0  0  0  0  0  0  0  0  0  0  0  0
    8.8761   -3.8288   26.7095 C   0  0  0  0  0  0  0  0  0  0  0  0
    7.6725   -4.4675   24.1188 C   0  0  0  0  0  0  0  0  0  0  0  0
    8.2532   -2.7725   25.7940 C   0  0  0  0  0  0  0  0  0  0  0  0
    8.3649   -5.2445   26.4388 C   0  0  0  0  0  0  0  0  0  0  0  0
    8.3474   -3.1939   24.3965 N   0  0  0  0  0  0  0  0  0  0  0  0
    6.7184   -6.6948   27.4746 N   0  0  0  0  0  0  0  0  0  0  0  0
    9.5654   -1.2137   24.0018 N   0  0  0  0  0  0  0  0  0  0  0  0
    6.1794   -4.4873   27.1136 O   0  0  0  0  0  0  0  0  0  0  0  0
    9.1528   -2.7170   22.2836 O   0  0  0  0  0  0  0  0  0  0  0  0
    7.4424   -7.3992   27.3783 H   0  0  0  0  0  0  0  0  0  0  0  0
    5.8332   -6.9604   27.8939 H   0  0  0  0  0  0  0  0  0  0  0  0
    8.8702   -0.5373   24.4182 H   0  0  0  0  0  0  0  0  0  0  0  0
  1  2  1  0  0  0  0
  1  3  2  0  0  0  0
  2  4  2  0  0  0  0
  3  5  1  0  0  0  0
  4  6  1  0  0  0  0
  5  6  2  0  0  0  0
  6 16  1  0  0  0  0
  7 13  1  0  0  0  0
  7 15  1  0  0  0  0
  7 17  2  0  0  0  0
  8 14  1  0  0  0  0
  8 16  1  0  0  0  0
  8 18  2  0  0  0  0
  9 11  1  0  0  0  0
  9 13  1  0  0  0  0
 10 12  1  0  0  0  0
 10 13  1  0  0  0  0
 11 14  1  0  0  0  0
 12 14  1  0  0  0  0
 15 19  1  0  0  0  0
 15 20  1  0  0  0  0
 16 21  1  0  0  0  0
M  END
> <ref_mols>
x0177_0

> <original SMILES>
NC(=O)C1CCN(CC1)C(=O)NC=2C=CC=CC2

> <Chemgauss4>
-9.123269

> <ref_pdb>
x0072_0

$$$$
x0596
  -OEChem-05172015543D

 20 21  0     0  0  0  0  0  0999 V2000
   11.9553   -0.3987   25.4600 C   0  0  0  0  0  0  0  0  0  0  0  0
   11.1172   -1.4345   25.0473 C   0  0  0  0  0  0  0  0  0  0  0  0
    7.6162   -6.4388   22.9525 C   0  0  0  0  0  0  0  0  0  0  0  0
    8.5943   -5.6379   23.5419 C   0  0  0  0  0  0  0  0  0  0  0  0
   13.2106   -0.6884   25.9949 C   0  0  0  0  0  0  0  0  0  0  0  0
   12.7896   -3.0496   25.7045 C   0  0  0  0  0  0  0  0  0  0  0  0
    7.9379   -3.7940   22.1254 C   0  0  0  0  0  0  0  0  0  0  0  0
   11.5343   -2.7599   25.1696 C   0  0  0  0  0  0  0  0  0  0  0  0
    6.7990   -5.9174   21.9495 C   0  0  0  0  0  0  0  0  0  0  0  0
    8.7552   -4.3155   23.1284 C   0  0  0  0  0  0  0  0  0  0  0  0
    6.9598   -4.5950   21.5360 C   0  0  0  0  0  0  0  0  0  0  0  0
   13.6277   -2.0138   26.1171 C   0  0  0  0  0  0  0  0  0  0  0  0
   10.6609   -3.8403   24.7397 C   0  0  0  0  0  0  0  0  0  0  0  0
    5.7575   -6.7893   21.3298 C   0  0  0  0  0  0  0  0  0  0  0  0
    9.7499   -3.5018   23.7270 N   0  0  0  0  0  0  0  0  0  0  0  0
   10.7062   -4.9621   25.2636 O   0  0  0  0  0  0  0  0  0  0  0  0
    6.1702   -4.0704   20.5573 O   0  0  0  0  0  0  0  0  0  0  0  0
   14.8330   -2.2921   26.6307 F   0  0  0  0  0  0  0  0  0  0  0  0
    9.8114   -2.5489   23.3772 H   0  0  0  0  0  0  0  0  0  0  0  0
    6.4122   -3.1459   20.3914 H   0  0  0  0  0  0  0  0  0  0  0  0
  1  2  2  0  0  0  0
  1  5  1  0  0  0  0
  2  8  1  0  0  0  0
  3  4  2  0  0  0  0
  3  9  1  0  0  0  0
  4 10  1  0  0  0  0
  5 12  2  0  0  0  0
  6  8  2  0  0  0  0
  6 12  1  0  0  0  0
  7 10  2  0  0  0  0
  7 11  1  0  0  0  0
  8 13  1  0  0  0  0
  9 11  2  0  0  0  0
  9 14  1  0  0  0  0
 10 15  1  0  0  0  0
 11 17  1  0  0  0  0
 12 18  1  0  0  0  0
 13 15  1  0  0  0  0
 13 16  2  0  0  0  0
 15 19  1  0  0  0  0
 17 20  1  0  0  0  0
M  END
> <ref_mols>
x0596_0

> <original SMILES>
CC=1C=CC(NC(=O)C=2C=CC=C(F)C2)=CC1O

> <Chemgauss4>
-9.122139

> <ref_pdb>
x0749_0

$$$$
x0968
  -OEChem-05172015543D

 21 21  0     1  0  0  0  0  0999 V2000
    5.9617    0.4736   20.3441 C   0  0  0  0  0  0  0  0  0  0  0  0
    5.1122    1.1959   20.7893 C   0  0  0  0  0  0  0  0  0  0  0  0
   14.4920   -1.4661   24.3094 C   0  0  0  0  0  0  0  0  0  0  0  0
   14.0004   -0.1643   24.4043 C   0  0  0  0  0  0  0  0  0  0  0  0
   14.0454   -2.3078   23.2907 C   0  0  0  0  0  0  0  0  0  0  0  0
   13.0620    0.2959   23.4806 C   0  0  0  0  0  0  0  0  0  0  0  0
   13.1070   -1.8476   22.3670 C   0  0  0  0  0  0  0  0  0  0  0  0
   12.6153   -0.5458   22.4619 C   0  0  0  0  0  0  0  0  0  0  0  0
    9.4481   -2.2367   23.3074 C   0  0  0  0  0  0  0  0  0  0  0  0
    9.1785    0.1854   20.8441 C   0  0  0  0  0  0  0  0  0  0  0  0
    9.2396   -3.7147   23.2885 C   0  0  0  0  0  0  0  0  0  0  0  0
    6.9938   -0.4067   19.7980 C   0  0  0  0  0  0  0  0  0  0  0  0
   11.5998   -0.0486   21.4623 C   0  0  0  0  0  0  0  0  0  0  0  0
   10.1554   -0.3091   21.9050 C   0  0  2  0  0  0  0  0  0  0  0  0
    8.0537   -0.6230   20.7563 N   0  0  0  0  0  0  0  0  0  0  0  0
    9.8923   -1.7118   22.1062 N   0  0  0  0  0  0  0  0  0  0  0  0
    9.2229   -1.6078   24.3347 O   0  0  0  0  0  0  0  0  0  0  0  0
    9.4023    1.1616   20.1315 O   0  0  0  0  0  0  0  0  0  0  0  0
    3.7677    2.3388   21.4939 Br  0  0  0  0  0  0  0  0  0  0  0  0
    7.9714   -1.4062   21.3980 H   0  0  0  0  0  0  0  0  0  0  0  0
   10.0405   -2.3480   21.3262 H   0  0  0  0  0  0  0  0  0  0  0  0
  1  2  3  0  0  0  0
  1 12  1  0  0  0  0
  2 19  1  0  0  0  0
  3  4  1  0  0  0  0
  3  5  2  0  0  0  0
  4  6  2  0  0  0  0
  5  7  1  0  0  0  0
  6  8  1  0  0  0  0
  7  8  2  0  0  0  0
  8 13  1  0  0  0  0
  9 11  1  0  0  0  0
  9 16  1  0  0  0  0
  9 17  2  0  0  0  0
 10 14  1  0  0  0  0
 10 15  1  0  0  0  0
 10 18  2  0  0  0  0
 12 15  1  0  0  0  0
 13 14  1  0  0  0  0
 14 16  1  0  0  0  0
 15 20  1  0  0  0  0
 16 21  1  0  0  0  0
M  END
> <ref_mols>
x0968_0

> <original SMILES>
CC(=O)N[C@@H](Cc1ccccc1)C(=O)NCC#CBr

> <Chemgauss4>
-9.117947

> <ref_pdb>
x0678_0

$$$$
x1063
  -OEChem-05172015543D

 20 21  0     0  0  0  0  0  0999 V2000
   12.2280   -1.3198   23.1324 C   0  0  0  0  0  0  0  0  0  0  0  0
   13.5524   -1.5110   22.7302 C   0  0  0  0  0  0  0  0  0  0  0  0
   11.6711   -0.0353   23.1997 C   0  0  0  0  0  0  0  0  0  0  0  0
   14.3675   -0.4301   22.3812 C   0  0  0  0  0  0  0  0  0  0  0  0
   12.4728    1.0663   22.8531 C   0  0  0  0  0  0  0  0  0  0  0  0
   12.2938    2.4734   22.7904 C   0  0  0  0  0  0  0  0  0  0  0  0
   13.7862    0.8343   22.4578 C   0  0  0  0  0  0  0  0  0  0  0  0
   13.4928    2.9983   22.3669 C   0  0  0  0  0  0  0  0  0  0  0  0
   13.9067    4.3391   22.1209 C   0  0  0  0  0  0  0  0  0  0  0  0
   10.1371    2.8910   24.0218 C   0  0  0  0  0  0  0  0  0  0  0  0
    9.3229    5.0481   25.0656 C   0  0  0  0  0  0  0  0  0  0  0  0
    9.0557    3.9610   24.0401 C   0  0  0  0  0  0  0  0  0  0  0  0
   12.9840    5.3806   22.3224 N   0  0  0  0  0  0  0  0  0  0  0  0
   11.1597    3.1930   23.0898 N   0  0  0  0  0  0  0  0  0  0  0  0
   15.0629    4.6279   21.7137 O   0  0  0  0  0  0  0  0  0  0  0  0
   10.0865    1.9025   24.7462 O   0  0  0  0  0  0  0  0  0  0  0  0
   14.4047    2.0122   22.1625 O   0  0  0  0  0  0  0  0  0  0  0  0
   12.0483    5.1488   22.6376 H   0  0  0  0  0  0  0  0  0  0  0  0
   13.2183    6.3554   22.1646 H   0  0  0  0  0  0  0  0  0  0  0  0
   11.0120    4.0800   22.5770 H   0  0  0  0  0  0  0  0  0  0  0  0
  1  2  1  0  0  0  0
  1  3  2  0  0  0  0
  2  4  2  0  0  0  0
  3  5  1  0  0  0  0
  4  7  1  0  0  0  0
  5  6  1  0  0  0  0
  5  7  2  0  0  0  0
  6  8  2  0  0  0  0
  6 14  1  0  0  0  0
  7 17  1  0  0  0  0
  8  9  1  0  0  0  0
  8 17  1  0  0  0  0
  9 13  1  0  0  0  0
  9 15  2  0  0  0  0
 10 12  1  0  0  0  0
 10 14  1  0  0  0  0
 10 16  2  0  0  0  0
 11 12  1  0  0  0  0
 13 18  1  0  0  0  0
 13 19  1  0  0  0  0
 14 20  1  0  0  0  0
M  END
> <ref_mols>
x1063_0

> <original SMILES>
CCC(=O)NC1=C(OC=2C=CC=CC12)C(=O)N

> <Chemgauss4>
-9.109912

> <ref_pdb>
x0195_0

$$$$
x0099
  -OEChem-05172015543D

 20 21  0     0  0  0  0  0  0999 V2000
   12.2280   -1.3198   23.1324 C   0  0  0  0  0  0  0  0  0  0  0  0
   13.5524   -1.5110   22.7302 C   0  0  0  0  0  0  0  0  0  0  0  0
   11.6711   -0.0353   23.1997 C   0  0  0  0  0  0  0  0  0  0  0  0
   14.3675   -0.4301   22.3812 C   0  0  0  0  0  0  0  0  0  0  0  0
   12.4728    1.0663   22.8531 C   0  0  0  0  0  0  0  0  0  0  0  0
   12.2938    2.4734   22.7904 C   0  0  0  0  0  0  0  0  0  0  0  0
   13.7862    0.8343   22.4578 C   0  0  0  0  0  0  0  0  0  0  0  0
   13.4928    2.9983   22.3669 C   0  0  0  0  0  0  0  0  0  0  0  0
   13.9067    4.3391   22.1209 C   0  0  0  0  0  0  0  0  0  0  0  0
   10.1371    2.8910   24.0218 C   0  0  0  0  0  0  0  0  0  0  0  0
    9.3229    5.0481   25.0656 C   0  0  0  0  0  0  0  0  0  0  0  0
    9.0557    3.9610   24.0401 C   0  0  0  0  0  0  0  0  0  0  0  0
   12.9840    5.3806   22.3224 N   0  0  0  0  0  0  0  0  0  0  0  0
   11.1597    3.1930   23.0898 N   0  0  0  0  0  0  0  0  0  0  0  0
   15.0629    4.6279   21.7137 O   0  0  0  0  0  0  0  0  0  0  0  0
   10.0865    1.9025   24.7462 O   0  0  0  0  0  0  0  0  0  0  0  0
   14.4047    2.0122   22.1625 O   0  0  0  0  0  0  0  0  0  0  0  0
   12.0483    5.1488   22.6376 H   0  0  0  0  0  0  0  0  0  0  0  0
   13.2183    6.3554   22.1646 H   0  0  0  0  0  0  0  0  0  0  0  0
   11.0120    4.0800   22.5770 H   0  0  0  0  0  0  0  0  0  0  0  0
  1  2  1  0  0  0  0
  1  3  2  0  0  0  0
  2  4  2  0  0  0  0
  3  5  1  0  0  0  0
  4  7  1  0  0  0  0
  5  6  1  0  0  0  0
  5  7  2  0  0  0  0
  6  8  2  0  0  0  0
  6 14  1  0  0  0  0
  7 17  1  0  0  0  0
  8  9  1  0  0  0  0
  8 17  1  0  0  0  0
  9 13  1  0  0  0  0
  9 15  2  0  0  0  0
 10 12  1  0  0  0  0
 10 14  1  0  0  0  0
 10 16  2  0  0  0  0
 11 12  1  0  0  0  0
 13 18  1  0  0  0  0
 13 19  1  0  0  0  0
 14 20  1  0  0  0  0
M  END
> <ref_mols>
x0099_0

> <original SMILES>
CCC(=O)NC1=C(OC=2C=CC=CC12)C(=O)N

> <Chemgauss4>
-9.109912

> <ref_pdb>
x0195_0

$$$$
x2874
  -OEChem-05172015543D

 23 24  0     0  0  0  0  0  0999 V2000
    6.0799   -5.1175   27.6647 C   0  0  0  0  0  0  0  0  0  0  0  0
    5.8401   -3.8875   27.0522 C   0  0  0  0  0  0  0  0  0  0  0  0
    7.2832   -5.7860   27.4394 C   0  0  0  0  0  0  0  0  0  0  0  0
   10.7541    0.9314   24.6168 C   0  0  0  0  0  0  0  0  0  0  0  0
    6.8035   -3.3261   26.2142 C   0  0  0  0  0  0  0  0  0  0  0  0
    8.2467   -5.2246   26.6014 C   0  0  0  0  0  0  0  0  0  0  0  0
    9.8156    0.0291   24.1162 C   0  0  0  0  0  0  0  0  0  0  0  0
   12.1160    0.6441   24.5247 C   0  0  0  0  0  0  0  0  0  0  0  0
   11.6007   -1.4478   23.4313 C   0  0  0  0  0  0  0  0  0  0  0  0
    8.0068   -3.9946   25.9888 C   0  0  0  0  0  0  0  0  0  0  0  0
   10.2389   -1.1605   23.5235 C   0  0  0  0  0  0  0  0  0  0  0  0
   12.5393   -0.5455   23.9320 C   0  0  0  0  0  0  0  0  0  0  0  0
    9.2494   -2.1118   22.9953 C   0  0  0  0  0  0  0  0  0  0  0  0
    9.0317   -3.3973   25.0973 C   0  0  0  0  0  0  0  0  0  0  0  0
    8.6767   -3.1255   23.6727 C   0  0  0  0  0  0  0  0  0  0  0  0
    7.6450   -3.9268   22.9536 C   0  0  0  0  0  0  0  0  0  0  0  0
    5.4362   -6.0661   23.5977 C   0  0  0  0  0  0  0  0  0  0  0  0
   14.2309   -2.0598   23.2242 C   0  0  0  0  0  0  0  0  0  0  0  0
    6.7342   -6.1037   22.8197 C   0  0  0  0  0  0  0  0  0  0  0  0
   10.1462   -3.1167   25.5257 O   0  0  0  0  0  0  0  0  0  0  0  0
    6.9117   -3.4958   22.0758 O   0  0  0  0  0  0  0  0  0  0  0  0
   13.8681   -0.8260   23.8420 O   0  0  0  0  0  0  0  0  0  0  0  0
    7.6672   -5.2031   23.4255 O   0  0  0  0  0  0  0  0  0  0  0  0
  1  2  1  0  0  0  0
  1  3  2  0  0  0  0
  2  5  2  0  0  0  0
  3  6  1  0  0  0  0
  4  7  2  0  0  0  0
  4  8  1  0  0  0  0
  5 10  1  0  0  0  0
  6 10  2  0  0  0  0
  7 11  1  0  0  0  0
  8 12  2  0  0  0  0
  9 11  2  0  0  0  0
  9 12  1  0  0  0  0
 10 14  1  0  0  0  0
 11 13  1  0  0  0  0
 12 22  1  0  0  0  0
 13 15  2  0  0  0  0
 14 15  1  0  0  0  0
 14 20  2  0  0  0  0
 15 16  1  0  0  0  0
 16 21  2  0  0  0  0
 16 23  1  0  0  0  0
 17 19  1  0  0  0  0
 18 22  1  0  0  0  0
 19 23  1  0  0  0  0
M  END
> <ref_mols>
x2874_0

> <original SMILES>
CCOC(=O)/C(=C/c1cccc(OC)c1)C(=O)c2ccccc2

> <Chemgauss4>
-9.109012

> <ref_pdb>
x0072_0

$$$$
x0309
  -OEChem-05172015543D

 16 17  0     1  0  0  0  0  0999 V2000
    7.1452    0.1937   19.8952 C   0  0  0  0  0  0  0  0  0  0  0  0
    8.3476   -0.4226   20.1198 C   0  0  0  0  0  0  0  0  0  0  0  0
    7.1042    0.3477   18.4987 C   0  0  0  0  0  0  0  0  0  0  0  0
    9.0178   -0.8734   21.3667 C   0  0  0  0  0  0  0  0  0  0  0  0
   13.2362   -1.7384   23.5477 C   0  0  0  0  0  0  0  0  0  0  0  0
   14.2053   -0.5825   23.6815 C   0  0  0  0  0  0  0  0  0  0  0  0
   12.2488    0.2119   22.6969 C   0  0  0  0  0  0  0  0  0  0  0  0
   12.3607   -1.2742   22.4041 C   0  0  2  0  0  0  0  0  0  0  0  0
    6.0351    0.9540   17.6896 C   0  0  0  0  0  0  0  0  0  0  0  0
   11.0227   -1.9831   22.3181 C   0  0  0  0  0  0  0  0  0  0  0  0
    8.1977   -0.1361   17.9027 N   0  0  0  0  0  0  0  0  0  0  0  0
   10.2669   -1.4770   21.2176 N   0  0  0  0  0  0  0  0  0  0  0  0
    8.4486   -0.7178   22.4438 O   0  0  0  0  0  0  0  0  0  0  0  0
    8.9851   -0.6248   18.9384 O   0  0  0  0  0  0  0  0  0  0  0  0
   13.4942    0.6029   23.2951 O   0  0  0  0  0  0  0  0  0  0  0  0
   10.6373   -1.6218   20.2752 H   0  0  0  0  0  0  0  0  0  0  0  0
  1  2  2  0  0  0  0
  1  3  1  0  0  0  0
  2  4  1  0  0  0  0
  2 14  1  0  0  0  0
  3  9  1  0  0  0  0
  3 11  2  0  0  0  0
  4 12  1  0  0  0  0
  4 13  2  0  0  0  0
  5  6  1  0  0  0  0
  5  8  1  0  0  0  0
  6 15  1  0  0  0  0
  7  8  1  0  0  0  0
  7 15  1  0  0  0  0
  8 10  1  0  0  0  0
 10 12  1  0  0  0  0
 11 14  1  0  0  0  0
 12 16  1  0  0  0  0
M  END
> <ref_mols>
x0309_0

> <original SMILES>
CC=1C=C(ON1)C(=O)NCC2CCOC2

> <Chemgauss4>
-9.108032

> <ref_pdb>
x0678_0

$$$$
x1165
  -OEChem-05172015543D

 16 17  0     1  0  0  0  0  0999 V2000
    7.1452    0.1937   19.8952 C   0  0  0  0  0  0  0  0  0  0  0  0
    8.3476   -0.4226   20.1198 C   0  0  0  0  0  0  0  0  0  0  0  0
    7.1042    0.3477   18.4987 C   0  0  0  0  0  0  0  0  0  0  0  0
    9.0178   -0.8734   21.3667 C   0  0  0  0  0  0  0  0  0  0  0  0
   13.2362   -1.7384   23.5477 C   0  0  0  0  0  0  0  0  0  0  0  0
   14.2053   -0.5825   23.6815 C   0  0  0  0  0  0  0  0  0  0  0  0
   12.2488    0.2119   22.6969 C   0  0  0  0  0  0  0  0  0  0  0  0
   12.3607   -1.2742   22.4041 C   0  0  2  0  0  0  0  0  0  0  0  0
    6.0351    0.9540   17.6896 C   0  0  0  0  0  0  0  0  0  0  0  0
   11.0227   -1.9831   22.3181 C   0  0  0  0  0  0  0  0  0  0  0  0
    8.1977   -0.1361   17.9027 N   0  0  0  0  0  0  0  0  0  0  0  0
   10.2669   -1.4770   21.2176 N   0  0  0  0  0  0  0  0  0  0  0  0
    8.4486   -0.7178   22.4438 O   0  0  0  0  0  0  0  0  0  0  0  0
    8.9851   -0.6248   18.9384 O   0  0  0  0  0  0  0  0  0  0  0  0
   13.4942    0.6029   23.2951 O   0  0  0  0  0  0  0  0  0  0  0  0
   10.6373   -1.6218   20.2752 H   0  0  0  0  0  0  0  0  0  0  0  0
  1  2  2  0  0  0  0
  1  3  1  0  0  0  0
  2  4  1  0  0  0  0
  2 14  1  0  0  0  0
  3  9  1  0  0  0  0
  3 11  2  0  0  0  0
  4 12  1  0  0  0  0
  4 13  2  0  0  0  0
  5  6  1  0  0  0  0
  5  8  1  0  0  0  0
  6 15  1  0  0  0  0
  7  8  1  0  0  0  0
  7 15  1  0  0  0  0
  8 10  1  0  0  0  0
 10 12  1  0  0  0  0
 11 14  1  0  0  0  0
 12 16  1  0  0  0  0
M  END
> <ref_mols>
x1165_0

> <original SMILES>
CC=1C=C(ON1)C(=O)NCC2CCOC2

> <Chemgauss4>
-9.108032

> <ref_pdb>
x0678_0

$$$$
x0934
  -OEChem-05172015543D

 20 23  0     1  0  0  0  0  0999 V2000
   13.1564   -1.9479   23.0914 C   0  0  0  0  0  0  0  0  0  0  0  0
    9.5582   -3.8721   25.3137 C   0  0  0  0  0  0  0  0  0  0  0  0
    7.2755   -3.0832   25.3738 C   0  0  0  0  0  0  0  0  0  0  0  0
   11.7662   -1.9305   23.0689 C   0  0  0  0  0  0  0  0  0  0  0  0
    9.2984   -4.7070   26.4004 C   0  0  0  0  0  0  0  0  0  0  0  0
    7.0156   -3.9182   26.4606 C   0  0  0  0  0  0  0  0  0  0  0  0
   13.8027   -1.0538   23.9296 C   0  0  0  0  0  0  0  0  0  0  0  0
   11.8141   -0.1793   24.6773 C   0  0  0  0  0  0  0  0  0  0  0  0
    8.5468   -3.0601   24.8004 C   0  0  0  0  0  0  0  0  0  0  0  0
   11.0746   -1.0323   23.8739 C   0  0  0  0  0  0  0  0  0  0  0  0
    8.0271   -4.7301   26.9738 C   0  0  0  0  0  0  0  0  0  0  0  0
    7.8399   -0.2113   22.5703 C   0  0  0  0  0  0  0  0  0  0  0  0
    8.6044   -2.6970   22.2415 C   0  0  0  0  0  0  0  0  0  0  0  0
    8.9959    0.2354   23.4925 C   0  0  0  0  0  0  0  0  0  0  0  0
    7.6542   -1.6830   22.8060 C   0  0  1  0  0  0  0  0  0  0  0  0
    8.8232   -2.1706   23.6437 C   0  0  1  0  0  0  0  0  0  0  0  0
    6.4514   -5.5205   28.5702 C   0  0  0  0  0  0  0  0  0  0  0  0
   13.1651   -0.1668   24.7261 N   0  0  0  0  0  0  0  0  0  0  0  0
    9.6981   -0.9924   23.8726 N   0  0  1  0  0  0  0  0  0  0  0  0
    7.7728   -5.5466   28.0325 O   0  0  0  0  0  0  0  0  0  0  0  0
  1  4  1  0  0  0  0
  1  7  2  0  0  0  0
  2  5  1  0  0  0  0
  2  9  2  0  0  0  0
  3  6  2  0  0  0  0
  3  9  1  0  0  0  0
  4 10  2  0  0  0  0
  5 11  2  0  0  0  0
  6 11  1  0  0  0  0
  7 18  1  0  0  0  0
  8 10  1  0  0  0  0
  8 18  2  0  0  0  0
  9 16  1  0  0  0  0
 10 19  1  0  0  0  0
 11 20  1  0  0  0  0
 12 14  1  0  0  0  0
 12 15  1  0  0  0  0
 13 15  1  0  0  0  0
 13 16  1  0  0  0  0
 14 19  1  0  0  0  0
 15 16  1  0  0  0  0
 16 19  1  0  0  0  0
 17 20  1  0  0  0  0
M  END
> <ref_mols>
x0934_0

> <original SMILES>
COC(C=C1)=CC=C1C23N(C4=CN=CC=C4)CCC2C3

> <Chemgauss4>
-9.106321

> <ref_pdb>
x0072_0

$$$$
x2508
  -OEChem-05172015543D

 23 25  0     0  0  0  0  0  0999 V2000
    7.2749   -2.2930   21.1604 C   0  0  0  0  0  0  0  0  0  0  0  0
    8.0278   -3.2233   21.8745 C   0  0  0  0  0  0  0  0  0  0  0  0
   12.0892   -0.7609   25.2344 C   0  0  0  0  0  0  0  0  0  0  0  0
   11.3959   -1.8570   25.7358 C   0  0  0  0  0  0  0  0  0  0  0  0
    5.9934   -2.6409   20.7549 C   0  0  0  0  0  0  0  0  0  0  0  0
   13.8681   -2.2236   24.6406 C   0  0  0  0  0  0  0  0  0  0  0  0
    6.7948   -6.5507   22.7397 C   0  0  0  0  0  0  0  0  0  0  0  0
    7.4428   -4.4707   22.1460 C   0  0  0  0  0  0  0  0  0  0  0  0
    7.8418   -5.6577   22.8155 C   0  0  0  0  0  0  0  0  0  0  0  0
   13.3494   -0.9393   24.6748 C   0  0  0  0  0  0  0  0  0  0  0  0
   12.0019   -3.1003   25.6540 C   0  0  0  0  0  0  0  0  0  0  0  0
    6.1492   -4.6864   21.6798 C   0  0  0  0  0  0  0  0  0  0  0  0
    9.4790   -4.9079   24.5861 C   0  0  0  0  0  0  0  0  0  0  0  0
    9.1400   -5.9018   23.4755 C   0  0  0  0  0  0  0  0  0  0  0  0
   11.2820   -4.3060   26.1851 C   0  0  0  0  0  0  0  0  0  0  0  0
   13.2245   -3.3126   25.1175 N   0  0  0  0  0  0  0  0  0  0  0  0
    5.3803   -3.8248   20.9875 N   0  0  0  0  0  0  0  0  0  0  0  0
    5.7738   -5.9514   22.0486 N   0  0  0  0  0  0  0  0  0  0  0  0
   10.7398   -5.1225   25.1245 N   0  0  0  0  0  0  0  0  0  0  0  0
    8.7029   -4.0242   24.9404 O   0  0  0  0  0  0  0  0  0  0  0  0
   14.2333    0.3887   24.0455 Cl  0  0  0  0  0  0  0  0  0  0  0  0
    4.8812   -6.3773   21.8411 H   0  0  0  0  0  0  0  0  0  0  0  0
   11.3036   -5.8839   24.7581 H   0  0  0  0  0  0  0  0  0  0  0  0
  1  2  2  0  0  0  0
  1  5  1  0  0  0  0
  2  8  1  0  0  0  0
  3  4  2  0  0  0  0
  3 10  1  0  0  0  0
  4 11  1  0  0  0  0
  5 17  2  0  0  0  0
  6 10  2  0  0  0  0
  6 16  1  0  0  0  0
  7  9  2  0  0  0  0
  7 18  1  0  0  0  0
  8  9  1  0  0  0  0
  8 12  2  0  0  0  0
  9 14  1  0  0  0  0
 10 21  1  0  0  0  0
 11 15  1  0  0  0  0
 11 16  2  0  0  0  0
 12 17  1  0  0  0  0
 12 18  1  0  0  0  0
 13 14  1  0  0  0  0
 13 19  1  0  0  0  0
 13 20  2  0  0  0  0
 15 19  1  0  0  0  0
 18 22  1  0  0  0  0
 19 23  1  0  0  0  0
M  END
> <ref_mols>
x2508_0

> <original SMILES>
ClC=1C=CC(CNC(=O)CC2=CNC=3N=CC=CC23)=NC1

> <Chemgauss4>
-9.105130

> <ref_pdb>
x0749_0

$$$$
x2676
  -OEChem-05172015543D

 23 25  0     0  0  0  0  0  0999 V2000
    7.2749   -2.2930   21.1604 C   0  0  0  0  0  0  0  0  0  0  0  0
    8.0278   -3.2233   21.8745 C   0  0  0  0  0  0  0  0  0  0  0  0
   12.0892   -0.7609   25.2344 C   0  0  0  0  0  0  0  0  0  0  0  0
   11.3959   -1.8570   25.7358 C   0  0  0  0  0  0  0  0  0  0  0  0
    5.9934   -2.6409   20.7549 C   0  0  0  0  0  0  0  0  0  0  0  0
   13.8681   -2.2236   24.6406 C   0  0  0  0  0  0  0  0  0  0  0  0
    6.7948   -6.5507   22.7397 C   0  0  0  0  0  0  0  0  0  0  0  0
    7.4428   -4.4707   22.1460 C   0  0  0  0  0  0  0  0  0  0  0  0
    7.8418   -5.6577   22.8155 C   0  0  0  0  0  0  0  0  0  0  0  0
   13.3494   -0.9393   24.6748 C   0  0  0  0  0  0  0  0  0  0  0  0
   12.0019   -3.1003   25.6540 C   0  0  0  0  0  0  0  0  0  0  0  0
    6.1492   -4.6864   21.6798 C   0  0  0  0  0  0  0  0  0  0  0  0
    9.4790   -4.9079   24.5861 C   0  0  0  0  0  0  0  0  0  0  0  0
    9.1400   -5.9018   23.4755 C   0  0  0  0  0  0  0  0  0  0  0  0
   11.2820   -4.3060   26.1851 C   0  0  0  0  0  0  0  0  0  0  0  0
   13.2245   -3.3126   25.1175 N   0  0  0  0  0  0  0  0  0  0  0  0
    5.3803   -3.8248   20.9875 N   0  0  0  0  0  0  0  0  0  0  0  0
    5.7738   -5.9514   22.0486 N   0  0  0  0  0  0  0  0  0  0  0  0
   10.7398   -5.1225   25.1245 N   0  0  0  0  0  0  0  0  0  0  0  0
    8.7029   -4.0242   24.9404 O   0  0  0  0  0  0  0  0  0  0  0  0
   14.2333    0.3887   24.0455 Cl  0  0  0  0  0  0  0  0  0  0  0  0
    4.8812   -6.3773   21.8411 H   0  0  0  0  0  0  0  0  0  0  0  0
   11.3036   -5.8839   24.7581 H   0  0  0  0  0  0  0  0  0  0  0  0
  1  2  2  0  0  0  0
  1  5  1  0  0  0  0
  2  8  1  0  0  0  0
  3  4  2  0  0  0  0
  3 10  1  0  0  0  0
  4 11  1  0  0  0  0
  5 17  2  0  0  0  0
  6 10  2  0  0  0  0
  6 16  1  0  0  0  0
  7  9  2  0  0  0  0
  7 18  1  0  0  0  0
  8  9  1  0  0  0  0
  8 12  2  0  0  0  0
  9 14  1  0  0  0  0
 10 21  1  0  0  0  0
 11 15  1  0  0  0  0
 11 16  2  0  0  0  0
 12 17  1  0  0  0  0
 12 18  1  0  0  0  0
 13 14  1  0  0  0  0
 13 19  1  0  0  0  0
 13 20  2  0  0  0  0
 15 19  1  0  0  0  0
 18 22  1  0  0  0  0
 19 23  1  0  0  0  0
M  END
> <ref_mols>
x2676_0

> <original SMILES>
ClC=1C=CC(CNC(=O)CC2=CNC=3N=CC=CC23)=NC1

> <Chemgauss4>
-9.105130

> <ref_pdb>
x0749_0

$$$$
x0757
  -OEChem-05172015543D

 20 21  0     1  0  0  0  0  0999 V2000
   11.6704    1.7221   24.4682 C   0  0  0  0  0  0  0  0  0  0  0  0
   10.7081    1.0520   25.2235 C   0  0  0  0  0  0  0  0  0  0  0  0
   12.2494    1.0972   23.3636 C   0  0  0  0  0  0  0  0  0  0  0  0
   10.3248   -0.2429   24.8744 C   0  0  0  0  0  0  0  0  0  0  0  0
   11.8661   -0.1977   23.0145 C   0  0  0  0  0  0  0  0  0  0  0  0
   10.9038   -0.8678   23.7699 C   0  0  0  0  0  0  0  0  0  0  0  0
    6.3174   -2.1487   19.6646 C   0  0  0  0  0  0  0  0  0  0  0  0
    7.1002   -3.9854   22.9486 C   0  0  0  0  0  0  0  0  0  0  0  0
    6.3665   -3.7107   21.6375 C   0  0  0  0  0  0  0  0  0  0  0  0
    7.1107   -1.3139   21.8445 C   0  0  0  0  0  0  0  0  0  0  0  0
    8.6103   -3.8067   22.8537 C   0  0  0  0  0  0  0  0  0  0  0  0
    8.6212   -1.4004   22.0070 C   0  0  0  0  0  0  0  0  0  0  0  0
   12.4987   -0.8465   21.8272 C   0  0  0  0  0  0  0  0  0  0  0  0
   10.4760   -2.2612   23.4142 C   0  0  0  0  0  0  0  0  0  0  0  0
    7.1713   -1.1019   18.9899 C   0  0  0  0  0  0  0  0  0  0  0  0
    6.5927   -2.4031   21.0156 N   0  0  0  0  0  0  0  0  0  0  0  0
    9.0014   -2.3668   23.1051 N   0  3  2  0  0  0  0  0  0  0  0  0
    5.4334   -2.7156   19.0172 O   0  0  0  0  0  0  0  0  0  0  0  0
    6.0719    0.1403   18.4033 Cl  0  0  0  0  0  0  0  0  0  0  0  0
    8.5152   -2.0623   23.9596 H   0  0  0  0  0  0  0  0  0  0  0  0
  1  2  1  0  0  0  0
  1  3  2  0  0  0  0
  2  4  2  0  0  0  0
  3  5  1  0  0  0  0
  4  6  1  0  0  0  0
  5  6  2  0  0  0  0
  5 13  1  0  0  0  0
  6 14  1  0  0  0  0
  7 15  1  0  0  0  0
  7 16  1  0  0  0  0
  7 18  2  0  0  0  0
  8  9  1  0  0  0  0
  8 11  1  0  0  0  0
  9 16  1  0  0  0  0
 10 12  1  0  0  0  0
 10 16  1  0  0  0  0
 11 17  1  0  0  0  0
 12 17  1  0  0  0  0
 14 17  1  0  0  0  0
 15 19  1  0  0  0  0
 17 20  1  0  0  0  0
M  CHG  1  17   1
M  END
> <ref_mols>
x0757_0

> <original SMILES>
Cc1ccccc1CN2CCCN(CC2)C(=O)CCl

> <Chemgauss4>
-9.104731

> <ref_pdb>
x0830_0

$$$$
x0831
  -OEChem-05172015543D

 20 21  0     1  0  0  0  0  0999 V2000
   11.6704    1.7221   24.4682 C   0  0  0  0  0  0  0  0  0  0  0  0
   10.7081    1.0520   25.2235 C   0  0  0  0  0  0  0  0  0  0  0  0
   12.2494    1.0972   23.3636 C   0  0  0  0  0  0  0  0  0  0  0  0
   10.3248   -0.2429   24.8744 C   0  0  0  0  0  0  0  0  0  0  0  0
   11.8661   -0.1977   23.0145 C   0  0  0  0  0  0  0  0  0  0  0  0
   10.9038   -0.8678   23.7699 C   0  0  0  0  0  0  0  0  0  0  0  0
    6.3174   -2.1487   19.6646 C   0  0  0  0  0  0  0  0  0  0  0  0
    7.1002   -3.9854   22.9486 C   0  0  0  0  0  0  0  0  0  0  0  0
    6.3665   -3.7107   21.6375 C   0  0  0  0  0  0  0  0  0  0  0  0
    7.1107   -1.3139   21.8445 C   0  0  0  0  0  0  0  0  0  0  0  0
    8.6103   -3.8067   22.8537 C   0  0  0  0  0  0  0  0  0  0  0  0
    8.6212   -1.4004   22.0070 C   0  0  0  0  0  0  0  0  0  0  0  0
   12.4987   -0.8465   21.8272 C   0  0  0  0  0  0  0  0  0  0  0  0
   10.4760   -2.2612   23.4142 C   0  0  0  0  0  0  0  0  0  0  0  0
    7.1713   -1.1019   18.9899 C   0  0  0  0  0  0  0  0  0  0  0  0
    6.5927   -2.4031   21.0156 N   0  0  0  0  0  0  0  0  0  0  0  0
    9.0014   -2.3668   23.1051 N   0  3  2  0  0  0  0  0  0  0  0  0
    5.4334   -2.7156   19.0172 O   0  0  0  0  0  0  0  0  0  0  0  0
    6.0719    0.1403   18.4033 Cl  0  0  0  0  0  0  0  0  0  0  0  0
    8.5152   -2.0623   23.9596 H   0  0  0  0  0  0  0  0  0  0  0  0
  1  2  1  0  0  0  0
  1  3  2  0  0  0  0
  2  4  2  0  0  0  0
  3  5  1  0  0  0  0
  4  6  1  0  0  0  0
  5  6  2  0  0  0  0
  5 13  1  0  0  0  0
  6 14  1  0  0  0  0
  7 15  1  0  0  0  0
  7 16  1  0  0  0  0
  7 18  2  0  0  0  0
  8  9  1  0  0  0  0
  8 11  1  0  0  0  0
  9 16  1  0  0  0  0
 10 12  1  0  0  0  0
 10 16  1  0  0  0  0
 11 17  1  0  0  0  0
 12 17  1  0  0  0  0
 14 17  1  0  0  0  0
 15 19  1  0  0  0  0
 17 20  1  0  0  0  0
M  CHG  1  17   1
M  END
> <ref_mols>
x0831_0

> <original SMILES>
Cc1ccccc1CN2CCCN(CC2)C(=O)CCl

> <Chemgauss4>
-9.104731

> <ref_pdb>
x0830_0

$$$$
x1376
  -OEChem-05172015543D

 18 19  0     0  0  0  0  0  0999 V2000
   11.9927   -2.9854   24.8360 C   0  0  0  0  0  0  0  0  0  0  0  0
   11.0799   -0.7712   24.5180 C   0  0  0  0  0  0  0  0  0  0  0  0
   13.0991   -2.4363   25.4839 C   0  0  0  0  0  0  0  0  0  0  0  0
   12.1863   -0.2221   25.1660 C   0  0  0  0  0  0  0  0  0  0  0  0
   10.9831   -2.1529   24.3530 C   0  0  0  0  0  0  0  0  0  0  0  0
   13.1959   -1.0546   25.6490 C   0  0  0  0  0  0  0  0  0  0  0  0
    6.6118   -4.4395   21.5420 C   0  0  0  0  0  0  0  0  0  0  0  0
    8.9962   -3.6514   24.3883 C   0  0  0  0  0  0  0  0  0  0  0  0
    9.5455   -2.3110   22.3330 C   0  0  0  0  0  0  0  0  0  0  0  0
    8.3340   -4.5946   23.3837 C   0  0  0  0  0  0  0  0  0  0  0  0
    8.0554   -2.5071   22.0626 C   0  0  0  0  0  0  0  0  0  0  0  0
   15.2706   -1.4274   26.7501 C   0  0  0  0  0  0  0  0  0  0  0  0
    6.2362   -5.8655   21.8626 C   0  0  0  0  0  0  0  0  0  0  0  0
    9.8783   -2.7013   23.7059 N   0  0  0  0  0  0  0  0  0  0  0  0
    7.6311   -3.8818   22.3147 N   0  0  0  0  0  0  0  0  0  0  0  0
    6.0191   -3.8406   20.6415 O   0  0  0  0  0  0  0  0  0  0  0  0
   14.2755   -0.5187   26.2813 O   0  0  0  0  0  0  0  0  0  0  0  0
    4.9933   -5.7902   23.1060 Cl  0  0  0  0  0  0  0  0  0  0  0  0
  1  3  2  0  0  0  0
  1  5  1  0  0  0  0
  2  4  1  0  0  0  0
  2  5  2  0  0  0  0
  3  6  1  0  0  0  0
  4  6  2  0  0  0  0
  5 14  1  0  0  0  0
  6 17  1  0  0  0  0
  7 13  1  0  0  0  0
  7 15  1  0  0  0  0
  7 16  2  0  0  0  0
  8 10  1  0  0  0  0
  8 14  1  0  0  0  0
  9 11  1  0  0  0  0
  9 14  1  0  0  0  0
 10 15  1  0  0  0  0
 11 15  1  0  0  0  0
 12 17  1  0  0  0  0
 13 18  1  0  0  0  0
M  END
> <ref_mols>
x1376_0

> <original SMILES>
COc1ccc(cc1)N2CCN(CC2)C(=O)CCl

> <Chemgauss4>
-9.104680

> <ref_pdb>
x0749_0

$$$$
x1395
  -OEChem-05172015543D

 18 19  0     0  0  0  0  0  0999 V2000
   11.9927   -2.9854   24.8360 C   0  0  0  0  0  0  0  0  0  0  0  0
   11.0799   -0.7712   24.5180 C   0  0  0  0  0  0  0  0  0  0  0  0
   13.0991   -2.4363   25.4839 C   0  0  0  0  0  0  0  0  0  0  0  0
   12.1863   -0.2221   25.1660 C   0  0  0  0  0  0  0  0  0  0  0  0
   10.9831   -2.1529   24.3530 C   0  0  0  0  0  0  0  0  0  0  0  0
   13.1959   -1.0546   25.6490 C   0  0  0  0  0  0  0  0  0  0  0  0
    6.6118   -4.4395   21.5420 C   0  0  0  0  0  0  0  0  0  0  0  0
    8.9962   -3.6514   24.3883 C   0  0  0  0  0  0  0  0  0  0  0  0
    9.5455   -2.3110   22.3330 C   0  0  0  0  0  0  0  0  0  0  0  0
    8.3340   -4.5946   23.3837 C   0  0  0  0  0  0  0  0  0  0  0  0
    8.0554   -2.5071   22.0626 C   0  0  0  0  0  0  0  0  0  0  0  0
   15.2706   -1.4274   26.7501 C   0  0  0  0  0  0  0  0  0  0  0  0
    6.2362   -5.8655   21.8626 C   0  0  0  0  0  0  0  0  0  0  0  0
    9.8783   -2.7013   23.7059 N   0  0  0  0  0  0  0  0  0  0  0  0
    7.6311   -3.8818   22.3147 N   0  0  0  0  0  0  0  0  0  0  0  0
    6.0191   -3.8406   20.6415 O   0  0  0  0  0  0  0  0  0  0  0  0
   14.2755   -0.5187   26.2813 O   0  0  0  0  0  0  0  0  0  0  0  0
    4.9933   -5.7902   23.1060 Cl  0  0  0  0  0  0  0  0  0  0  0  0
  1  3  2  0  0  0  0
  1  5  1  0  0  0  0
  2  4  1  0  0  0  0
  2  5  2  0  0  0  0
  3  6  1  0  0  0  0
  4  6  2  0  0  0  0
  5 14  1  0  0  0  0
  6 17  1  0  0  0  0
  7 13  1  0  0  0  0
  7 15  1  0  0  0  0
  7 16  2  0  0  0  0
  8 10  1  0  0  0  0
  8 14  1  0  0  0  0
  9 11  1  0  0  0  0
  9 14  1  0  0  0  0
 10 15  1  0  0  0  0
 11 15  1  0  0  0  0
 12 17  1  0  0  0  0
 13 18  1  0  0  0  0
M  END
> <ref_mols>
x1395_0

> <original SMILES>
COc1ccc(cc1)N2CCN(CC2)C(=O)CCl

> <Chemgauss4>
-9.104680

> <ref_pdb>
x0749_0

$$$$
x1309
  -OEChem-05172015543D

 18 19  0     0  0  0  0  0  0999 V2000
   11.9927   -2.9854   24.8360 C   0  0  0  0  0  0  0  0  0  0  0  0
   11.0799   -0.7712   24.5180 C   0  0  0  0  0  0  0  0  0  0  0  0
   13.0991   -2.4363   25.4839 C   0  0  0  0  0  0  0  0  0  0  0  0
   12.1863   -0.2221   25.1660 C   0  0  0  0  0  0  0  0  0  0  0  0
   10.9831   -2.1529   24.3530 C   0  0  0  0  0  0  0  0  0  0  0  0
   13.1959   -1.0546   25.6490 C   0  0  0  0  0  0  0  0  0  0  0  0
    6.6118   -4.4395   21.5420 C   0  0  0  0  0  0  0  0  0  0  0  0
    8.9962   -3.6514   24.3883 C   0  0  0  0  0  0  0  0  0  0  0  0
    9.5455   -2.3110   22.3330 C   0  0  0  0  0  0  0  0  0  0  0  0
    8.3340   -4.5946   23.3837 C   0  0  0  0  0  0  0  0  0  0  0  0
    8.0554   -2.5071   22.0626 C   0  0  0  0  0  0  0  0  0  0  0  0
   15.2706   -1.4274   26.7501 C   0  0  0  0  0  0  0  0  0  0  0  0
    6.2362   -5.8655   21.8626 C   0  0  0  0  0  0  0  0  0  0  0  0
    9.8783   -2.7013   23.7059 N   0  0  0  0  0  0  0  0  0  0  0  0
    7.6311   -3.8818   22.3147 N   0  0  0  0  0  0  0  0  0  0  0  0
    6.0191   -3.8406   20.6415 O   0  0  0  0  0  0  0  0  0  0  0  0
   14.2755   -0.5187   26.2813 O   0  0  0  0  0  0  0  0  0  0  0  0
    4.9933   -5.7902   23.1060 Cl  0  0  0  0  0  0  0  0  0  0  0  0
  1  3  2  0  0  0  0
  1  5  1  0  0  0  0
  2  4  1  0  0  0  0
  2  5  2  0  0  0  0
  3  6  1  0  0  0  0
  4  6  2  0  0  0  0
  5 14  1  0  0  0  0
  6 17  1  0  0  0  0
  7 13  1  0  0  0  0
  7 15  1  0  0  0  0
  7 16  2  0  0  0  0
  8 10  1  0  0  0  0
  8 14  1  0  0  0  0
  9 11  1  0  0  0  0
  9 14  1  0  0  0  0
 10 15  1  0  0  0  0
 11 15  1  0  0  0  0
 12 17  1  0  0  0  0
 13 18  1  0  0  0  0
M  END
> <ref_mols>
x1309_0

> <original SMILES>
COc1ccc(cc1)N2CCN(CC2)C(=O)CCl

> <Chemgauss4>
-9.104680

> <ref_pdb>
x0749_0

$$$$
x1425
  -OEChem-05172015543D

 18 19  0     0  0  0  0  0  0999 V2000
   11.9927   -2.9854   24.8360 C   0  0  0  0  0  0  0  0  0  0  0  0
   11.0799   -0.7712   24.5180 C   0  0  0  0  0  0  0  0  0  0  0  0
   13.0991   -2.4363   25.4839 C   0  0  0  0  0  0  0  0  0  0  0  0
   12.1863   -0.2221   25.1660 C   0  0  0  0  0  0  0  0  0  0  0  0
   10.9831   -2.1529   24.3530 C   0  0  0  0  0  0  0  0  0  0  0  0
   13.1959   -1.0546   25.6490 C   0  0  0  0  0  0  0  0  0  0  0  0
    6.6118   -4.4395   21.5420 C   0  0  0  0  0  0  0  0  0  0  0  0
    8.9962   -3.6514   24.3883 C   0  0  0  0  0  0  0  0  0  0  0  0
    9.5455   -2.3110   22.3330 C   0  0  0  0  0  0  0  0  0  0  0  0
    8.3340   -4.5946   23.3837 C   0  0  0  0  0  0  0  0  0  0  0  0
    8.0554   -2.5071   22.0626 C   0  0  0  0  0  0  0  0  0  0  0  0
   15.2706   -1.4274   26.7501 C   0  0  0  0  0  0  0  0  0  0  0  0
    6.2362   -5.8655   21.8626 C   0  0  0  0  0  0  0  0  0  0  0  0
    9.8783   -2.7013   23.7059 N   0  0  0  0  0  0  0  0  0  0  0  0
    7.6311   -3.8818   22.3147 N   0  0  0  0  0  0  0  0  0  0  0  0
    6.0191   -3.8406   20.6415 O   0  0  0  0  0  0  0  0  0  0  0  0
   14.2755   -0.5187   26.2813 O   0  0  0  0  0  0  0  0  0  0  0  0
    4.9933   -5.7902   23.1060 Cl  0  0  0  0  0  0  0  0  0  0  0  0
  1  3  2  0  0  0  0
  1  5  1  0  0  0  0
  2  4  1  0  0  0  0
  2  5  2  0  0  0  0
  3  6  1  0  0  0  0
  4  6  2  0  0  0  0
  5 14  1  0  0  0  0
  6 17  1  0  0  0  0
  7 13  1  0  0  0  0
  7 15  1  0  0  0  0
  7 16  2  0  0  0  0
  8 10  1  0  0  0  0
  8 14  1  0  0  0  0
  9 11  1  0  0  0  0
  9 14  1  0  0  0  0
 10 15  1  0  0  0  0
 11 15  1  0  0  0  0
 12 17  1  0  0  0  0
 13 18  1  0  0  0  0
M  END
> <ref_mols>
x1425_0

> <original SMILES>
COc1ccc(cc1)N2CCN(CC2)C(=O)CCl

> <Chemgauss4>
-9.104680

> <ref_pdb>
x0749_0

$$$$
x1474
  -OEChem-05172015543D

 18 19  0     0  0  0  0  0  0999 V2000
   11.9927   -2.9854   24.8360 C   0  0  0  0  0  0  0  0  0  0  0  0
   11.0799   -0.7712   24.5180 C   0  0  0  0  0  0  0  0  0  0  0  0
   13.0991   -2.4363   25.4839 C   0  0  0  0  0  0  0  0  0  0  0  0
   12.1863   -0.2221   25.1660 C   0  0  0  0  0  0  0  0  0  0  0  0
   10.9831   -2.1529   24.3530 C   0  0  0  0  0  0  0  0  0  0  0  0
   13.1959   -1.0546   25.6490 C   0  0  0  0  0  0  0  0  0  0  0  0
    6.6118   -4.4395   21.5420 C   0  0  0  0  0  0  0  0  0  0  0  0
    8.9962   -3.6514   24.3883 C   0  0  0  0  0  0  0  0  0  0  0  0
    9.5455   -2.3110   22.3330 C   0  0  0  0  0  0  0  0  0  0  0  0
    8.3340   -4.5946   23.3837 C   0  0  0  0  0  0  0  0  0  0  0  0
    8.0554   -2.5071   22.0626 C   0  0  0  0  0  0  0  0  0  0  0  0
   15.2706   -1.4274   26.7501 C   0  0  0  0  0  0  0  0  0  0  0  0
    6.2362   -5.8655   21.8626 C   0  0  0  0  0  0  0  0  0  0  0  0
    9.8783   -2.7013   23.7059 N   0  0  0  0  0  0  0  0  0  0  0  0
    7.6311   -3.8818   22.3147 N   0  0  0  0  0  0  0  0  0  0  0  0
    6.0191   -3.8406   20.6415 O   0  0  0  0  0  0  0  0  0  0  0  0
   14.2755   -0.5187   26.2813 O   0  0  0  0  0  0  0  0  0  0  0  0
    4.9933   -5.7902   23.1060 Cl  0  0  0  0  0  0  0  0  0  0  0  0
  1  3  2  0  0  0  0
  1  5  1  0  0  0  0
  2  4  1  0  0  0  0
  2  5  2  0  0  0  0
  3  6  1  0  0  0  0
  4  6  2  0  0  0  0
  5 14  1  0  0  0  0
  6 17  1  0  0  0  0
  7 13  1  0  0  0  0
  7 15  1  0  0  0  0
  7 16  2  0  0  0  0
  8 10  1  0  0  0  0
  8 14  1  0  0  0  0
  9 11  1  0  0  0  0
  9 14  1  0  0  0  0
 10 15  1  0  0  0  0
 11 15  1  0  0  0  0
 12 17  1  0  0  0  0
 13 18  1  0  0  0  0
M  END
> <ref_mols>
x1474_0

> <original SMILES>
COc1ccc(cc1)N2CCN(CC2)C(=O)CCl

> <Chemgauss4>
-9.104680

> <ref_pdb>
x0749_0

$$$$
x0794
  -OEChem-05172015543D

 18 19  0     0  0  0  0  0  0999 V2000
   11.9927   -2.9854   24.8360 C   0  0  0  0  0  0  0  0  0  0  0  0
   11.0799   -0.7712   24.5180 C   0  0  0  0  0  0  0  0  0  0  0  0
   13.0991   -2.4363   25.4839 C   0  0  0  0  0  0  0  0  0  0  0  0
   12.1863   -0.2221   25.1660 C   0  0  0  0  0  0  0  0  0  0  0  0
   10.9831   -2.1529   24.3530 C   0  0  0  0  0  0  0  0  0  0  0  0
   13.1959   -1.0546   25.6490 C   0  0  0  0  0  0  0  0  0  0  0  0
    6.6118   -4.4395   21.5420 C   0  0  0  0  0  0  0  0  0  0  0  0
    8.9962   -3.6514   24.3883 C   0  0  0  0  0  0  0  0  0  0  0  0
    9.5455   -2.3110   22.3330 C   0  0  0  0  0  0  0  0  0  0  0  0
    8.3340   -4.5946   23.3837 C   0  0  0  0  0  0  0  0  0  0  0  0
    8.0554   -2.5071   22.0626 C   0  0  0  0  0  0  0  0  0  0  0  0
   15.2706   -1.4274   26.7501 C   0  0  0  0  0  0  0  0  0  0  0  0
    6.2362   -5.8655   21.8626 C   0  0  0  0  0  0  0  0  0  0  0  0
    9.8783   -2.7013   23.7059 N   0  0  0  0  0  0  0  0  0  0  0  0
    7.6311   -3.8818   22.3147 N   0  0  0  0  0  0  0  0  0  0  0  0
    6.0191   -3.8406   20.6415 O   0  0  0  0  0  0  0  0  0  0  0  0
   14.2755   -0.5187   26.2813 O   0  0  0  0  0  0  0  0  0  0  0  0
    4.9933   -5.7902   23.1060 Cl  0  0  0  0  0  0  0  0  0  0  0  0
  1  3  2  0  0  0  0
  1  5  1  0  0  0  0
  2  4  1  0  0  0  0
  2  5  2  0  0  0  0
  3  6  1  0  0  0  0
  4  6  2  0  0  0  0
  5 14  1  0  0  0  0
  6 17  1  0  0  0  0
  7 13  1  0  0  0  0
  7 15  1  0  0  0  0
  7 16  2  0  0  0  0
  8 10  1  0  0  0  0
  8 14  1  0  0  0  0
  9 11  1  0  0  0  0
  9 14  1  0  0  0  0
 10 15  1  0  0  0  0
 11 15  1  0  0  0  0
 12 17  1  0  0  0  0
 13 18  1  0  0  0  0
M  END
> <ref_mols>
x0794_0

> <original SMILES>
COc1ccc(cc1)N2CCN(CC2)C(=O)CCl

> <Chemgauss4>
-9.104680

> <ref_pdb>
x0749_0

$$$$
x0720
  -OEChem-05172015543D

 18 19  0     0  0  0  0  0  0999 V2000
   11.9927   -2.9854   24.8360 C   0  0  0  0  0  0  0  0  0  0  0  0
   11.0799   -0.7712   24.5180 C   0  0  0  0  0  0  0  0  0  0  0  0
   13.0991   -2.4363   25.4839 C   0  0  0  0  0  0  0  0  0  0  0  0
   12.1863   -0.2221   25.1660 C   0  0  0  0  0  0  0  0  0  0  0  0
   10.9831   -2.1529   24.3530 C   0  0  0  0  0  0  0  0  0  0  0  0
   13.1959   -1.0546   25.6490 C   0  0  0  0  0  0  0  0  0  0  0  0
    6.6118   -4.4395   21.5420 C   0  0  0  0  0  0  0  0  0  0  0  0
    8.9962   -3.6514   24.3883 C   0  0  0  0  0  0  0  0  0  0  0  0
    9.5455   -2.3110   22.3330 C   0  0  0  0  0  0  0  0  0  0  0  0
    8.3340   -4.5946   23.3837 C   0  0  0  0  0  0  0  0  0  0  0  0
    8.0554   -2.5071   22.0626 C   0  0  0  0  0  0  0  0  0  0  0  0
   15.2706   -1.4274   26.7501 C   0  0  0  0  0  0  0  0  0  0  0  0
    6.2362   -5.8655   21.8626 C   0  0  0  0  0  0  0  0  0  0  0  0
    9.8783   -2.7013   23.7059 N   0  0  0  0  0  0  0  0  0  0  0  0
    7.6311   -3.8818   22.3147 N   0  0  0  0  0  0  0  0  0  0  0  0
    6.0191   -3.8406   20.6415 O   0  0  0  0  0  0  0  0  0  0  0  0
   14.2755   -0.5187   26.2813 O   0  0  0  0  0  0  0  0  0  0  0  0
    4.9933   -5.7902   23.1060 Cl  0  0  0  0  0  0  0  0  0  0  0  0
  1  3  2  0  0  0  0
  1  5  1  0  0  0  0
  2  4  1  0  0  0  0
  2  5  2  0  0  0  0
  3  6  1  0  0  0  0
  4  6  2  0  0  0  0
  5 14  1  0  0  0  0
  6 17  1  0  0  0  0
  7 13  1  0  0  0  0
  7 15  1  0  0  0  0
  7 16  2  0  0  0  0
  8 10  1  0  0  0  0
  8 14  1  0  0  0  0
  9 11  1  0  0  0  0
  9 14  1  0  0  0  0
 10 15  1  0  0  0  0
 11 15  1  0  0  0  0
 12 17  1  0  0  0  0
 13 18  1  0  0  0  0
M  END
> <ref_mols>
x0720_0

> <original SMILES>
COc1ccc(cc1)N2CCN(CC2)C(=O)CCl

> <Chemgauss4>
-9.104680

> <ref_pdb>
x0749_0

> <CYS145-warhead dist minimum (A)>
5.962033

> <CYS145-warhead dist mean (A)>
6.6670647

> <CYS145-warhead dist stddev (A)>
0.24106441

$$$$
x1347
  -OEChem-05172015543D

 18 19  0     0  0  0  0  0  0999 V2000
   11.9927   -2.9854   24.8360 C   0  0  0  0  0  0  0  0  0  0  0  0
   11.0799   -0.7712   24.5180 C   0  0  0  0  0  0  0  0  0  0  0  0
   13.0991   -2.4363   25.4839 C   0  0  0  0  0  0  0  0  0  0  0  0
   12.1863   -0.2221   25.1660 C   0  0  0  0  0  0  0  0  0  0  0  0
   10.9831   -2.1529   24.3530 C   0  0  0  0  0  0  0  0  0  0  0  0
   13.1959   -1.0546   25.6490 C   0  0  0  0  0  0  0  0  0  0  0  0
    6.6118   -4.4395   21.5420 C   0  0  0  0  0  0  0  0  0  0  0  0
    8.9962   -3.6514   24.3883 C   0  0  0  0  0  0  0  0  0  0  0  0
    9.5455   -2.3110   22.3330 C   0  0  0  0  0  0  0  0  0  0  0  0
    8.3340   -4.5946   23.3837 C   0  0  0  0  0  0  0  0  0  0  0  0
    8.0554   -2.5071   22.0626 C   0  0  0  0  0  0  0  0  0  0  0  0
   15.2706   -1.4274   26.7501 C   0  0  0  0  0  0  0  0  0  0  0  0
    6.2362   -5.8655   21.8626 C   0  0  0  0  0  0  0  0  0  0  0  0
    9.8783   -2.7013   23.7059 N   0  0  0  0  0  0  0  0  0  0  0  0
    7.6311   -3.8818   22.3147 N   0  0  0  0  0  0  0  0  0  0  0  0
    6.0191   -3.8406   20.6415 O   0  0  0  0  0  0  0  0  0  0  0  0
   14.2755   -0.5187   26.2813 O   0  0  0  0  0  0  0  0  0  0  0  0
    4.9933   -5.7902   23.1060 Cl  0  0  0  0  0  0  0  0  0  0  0  0
  1  3  2  0  0  0  0
  1  5  1  0  0  0  0
  2  4  1  0  0  0  0
  2  5  2  0  0  0  0
  3  6  1  0  0  0  0
  4  6  2  0  0  0  0
  5 14  1  0  0  0  0
  6 17  1  0  0  0  0
  7 13  1  0  0  0  0
  7 15  1  0  0  0  0
  7 16  2  0  0  0  0
  8 10  1  0  0  0  0
  8 14  1  0  0  0  0
  9 11  1  0  0  0  0
  9 14  1  0  0  0  0
 10 15  1  0  0  0  0
 11 15  1  0  0  0  0
 12 17  1  0  0  0  0
 13 18  1  0  0  0  0
M  END
> <ref_mols>
x1347_0

> <original SMILES>
COc1ccc(cc1)N2CCN(CC2)C(=O)CCl

> <Chemgauss4>
-9.104680

> <ref_pdb>
x0749_0

> <CYS145-warhead dist minimum (A)>
9.105262

> <CYS145-warhead dist mean (A)>
11.034779

> <CYS145-warhead dist stddev (A)>
0.5967298

$$$$
x0512
  -OEChem-05172015543D

 15 16  0     1  0  0  0  0  0999 V2000
    6.0425    1.2579   19.3146 C   0  0  0  0  0  0  0  0  0  0  0  0
    6.9103    0.9179   20.3463 C   0  0  0  0  0  0  0  0  0  0  0  0
    6.3801    0.8689   18.0283 C   0  0  0  0  0  0  0  0  0  0  0  0
    8.3195   -0.1331   18.7444 C   0  0  0  0  0  0  0  0  0  0  0  0
    8.0729    0.2092   20.0642 C   0  0  0  0  0  0  0  0  0  0  0  0
   10.3344    0.2843   21.1088 C   0  0  0  0  0  0  0  0  0  0  0  0
   12.7633   -0.1944   21.7950 C   0  0  0  0  0  0  0  0  0  0  0  0
   11.2961   -0.5294   21.8628 C   0  0  1  0  0  0  0  0  0  0  0  0
   12.0074    0.0306   23.0822 C   0  0  0  0  0  0  0  0  0  0  0  0
   12.2666   -0.9138   24.2265 C   0  0  0  0  0  0  0  0  0  0  0  0
   11.7574    1.4543   23.5073 C   0  0  0  0  0  0  0  0  0  0  0  0
    8.4426   -0.9343   22.2384 C   0  0  0  0  0  0  0  0  0  0  0  0
    7.5002    0.1797   17.7155 N   0  0  0  0  0  0  0  0  0  0  0  0
    8.9972   -0.1596   21.1176 N   0  0  0  0  0  0  0  0  0  0  0  0
   10.7519    1.3041   20.5544 O   0  0  0  0  0  0  0  0  0  0  0  0
  1  2  2  0  0  0  0
  1  3  1  0  0  0  0
  2  5  1  0  0  0  0
  3 13  2  0  0  0  0
  4  5  2  0  0  0  0
  4 13  1  0  0  0  0
  5 14  1  0  0  0  0
  6  8  1  0  0  0  0
  6 14  1  0  0  0  0
  6 15  2  0  0  0  0
  7  8  1  0  0  0  0
  7  9  1  0  0  0  0
  8  9  1  0  0  0  0
  9 10  1  0  0  0  0
  9 11  1  0  0  0  0
 12 14  1  0  0  0  0
M  END
> <ref_mols>
x0512_0

> <original SMILES>
CN(C(=O)[C@H]1CC1(C)C)C=2C=CC=NC2

> <Chemgauss4>
-9.103520

> <ref_pdb>
x0678_0

$$$$
x0227
  -OEChem-05172015543D

 19 20  0     0  0  0  0  0  0999 V2000
   13.7598   -1.3932   25.2909 C   0  0  0  0  0  0  0  0  0  0  0  0
   13.2309   -1.2314   24.0104 C   0  0  0  0  0  0  0  0  0  0  0  0
   13.1687   -2.2893   26.1816 C   0  0  0  0  0  0  0  0  0  0  0  0
   12.1108   -1.9656   23.6206 C   0  0  0  0  0  0  0  0  0  0  0  0
   12.0486   -3.0235   25.7918 C   0  0  0  0  0  0  0  0  0  0  0  0
   10.1302   -4.8887   24.6470 C   0  0  0  0  0  0  0  0  0  0  0  0
    9.4647   -3.0909   23.1766 C   0  0  0  0  0  0  0  0  0  0  0  0
    9.0094   -5.6220   24.2578 C   0  0  0  0  0  0  0  0  0  0  0  0
    8.3439   -3.8242   22.7874 C   0  0  0  0  0  0  0  0  0  0  0  0
   11.5196   -2.8616   24.5113 C   0  0  0  0  0  0  0  0  0  0  0  0
   10.3579   -3.6231   24.1065 C   0  0  0  0  0  0  0  0  0  0  0  0
    8.1162   -5.0898   23.3280 C   0  0  0  0  0  0  0  0  0  0  0  0
    5.9902   -5.4647   22.0257 C   0  0  0  0  0  0  0  0  0  0  0  0
    5.0324   -6.4620   21.8994 N   0  0  0  0  0  0  0  0  0  0  0  0
    6.9951   -5.8238   22.9393 N   0  0  0  0  0  0  0  0  0  0  0  0
    5.9147   -4.4168   21.3895 O   0  0  0  0  0  0  0  0  0  0  0  0
    5.1316   -7.3129   22.4427 H   0  0  0  0  0  0  0  0  0  0  0  0
    4.2363   -6.3631   21.2787 H   0  0  0  0  0  0  0  0  0  0  0  0
    6.8760   -6.7477   23.3677 H   0  0  0  0  0  0  0  0  0  0  0  0
  1  2  1  0  0  0  0
  1  3  2  0  0  0  0
  2  4  2  0  0  0  0
  3  5  1  0  0  0  0
  4 10  1  0  0  0  0
  5 10  2  0  0  0  0
  6  8  2  0  0  0  0
  6 11  1  0  0  0  0
  7  9  1  0  0  0  0
  7 11  2  0  0  0  0
  8 12  1  0  0  0  0
  9 12  2  0  0  0  0
 10 11  1  0  0  0  0
 12 15  1  0  0  0  0
 13 14  1  0  0  0  0
 13 15  1  0  0  0  0
 13 16  2  0  0  0  0
 14 17  1  0  0  0  0
 14 18  1  0  0  0  0
 15 19  1  0  0  0  0
M  END
> <ref_mols>
x0227_0

> <original SMILES>
NC(=O)NC=1C=CC(=CC1)C=2C=CC=CC2

> <Chemgauss4>
-9.102187

> <ref_pdb>
x0749_0

$$$$
x2859
  -OEChem-05172015543D

 31 33  0     1  0  0  0  0  0999 V2000
   13.6483   -0.9911   21.9617 C   0  0  0  0  0  0  0  0  0  0  0  0
   14.0076   -1.1364   23.3016 C   0  0  0  0  0  0  0  0  0  0  0  0
    5.5609    1.2325   19.0705 C   0  0  0  0  0  0  0  0  0  0  0  0
    6.1676    0.5520   20.1202 C   0  0  0  0  0  0  0  0  0  0  0  0
   12.3074   -1.0740   21.5863 C   0  0  0  0  0  0  0  0  0  0  0  0
   13.0262   -1.3646   24.2661 C   0  0  0  0  0  0  0  0  0  0  0  0
    8.5858    2.3892   23.8712 C   0  0  0  0  0  0  0  0  0  0  0  0
   10.9460    2.9046   23.9021 C   0  0  0  0  0  0  0  0  0  0  0  0
    8.8208    1.2653   24.6632 C   0  0  0  0  0  0  0  0  0  0  0  0
   11.1810    1.7807   24.6941 C   0  0  0  0  0  0  0  0  0  0  0  0
    6.0248    0.9918   17.7873 C   0  0  0  0  0  0  0  0  0  0  0  0
    7.5953   -0.5067   18.5399 C   0  0  0  0  0  0  0  0  0  0  0  0
    7.2051   -0.3360   19.8584 C   0  0  0  0  0  0  0  0  0  0  0  0
   11.3260   -1.3023   22.5508 C   0  0  0  0  0  0  0  0  0  0  0  0
   11.6853   -1.4475   23.8907 C   0  0  0  0  0  0  0  0  0  0  0  0
    9.6484    3.2088   23.4906 C   0  0  0  0  0  0  0  0  0  0  0  0
   10.1184    0.9611   25.0747 C   0  0  0  0  0  0  0  0  0  0  0  0
    9.3677   -0.7411   21.0709 C   0  0  0  0  0  0  0  0  0  0  0  0
    7.8844   -1.0912   20.9772 C   0  0  1  0  0  0  0  0  0  0  0  0
    7.0300    0.1367   17.4939 N   0  0  0  0  0  0  0  0  0  0  0  0
    9.9884   -1.3815   22.1529 N   0  0  0  0  0  0  0  0  0  0  0  0
   10.6972   -1.6823   24.8987 N   0  0  0  0  0  0  0  0  0  0  0  0
    9.8931    0.0286   20.2717 O   0  0  0  0  0  0  0  0  0  0  0  0
    9.1755   -0.7568   26.7735 O   0  0  0  0  0  0  0  0  0  0  0  0
   11.6267   -0.2217   26.8437 O   0  0  0  0  0  0  0  0  0  0  0  0
    7.2417   -0.7692   22.2019 O   0  0  0  0  0  0  0  0  0  0  0  0
    9.4228    4.2876   22.7293 F   0  0  0  0  0  0  0  0  0  0  0  0
   10.4168   -0.4637   26.0815 S   0  0  0  0  0  0  0  0  0  0  0  0
    9.3844   -1.9852   22.7200 H   0  0  0  0  0  0  0  0  0  0  0  0
    9.8611   -2.1963   24.5810 H   0  0  0  0  0  0  0  0  0  0  0  0
    7.3314    0.1903   22.3229 H   0  0  0  0  0  0  0  0  0  0  0  0
  1  2  1  0  0  0  0
  1  5  2  0  0  0  0
  2  6  2  0  0  0  0
  3  4  2  0  0  0  0
  3 11  1  0  0  0  0
  4 13  1  0  0  0  0
  5 14  1  0  0  0  0
  6 15  1  0  0  0  0
  7  9  2  0  0  0  0
  7 16  1  0  0  0  0
  8 10  1  0  0  0  0
  8 16  2  0  0  0  0
  9 17  1  0  0  0  0
 10 17  2  0  0  0  0
 11 20  2  0  0  0  0
 12 13  2  0  0  0  0
 12 20  1  0  0  0  0
 13 19  1  0  0  0  0
 14 15  2  0  0  0  0
 14 21  1  0  0  0  0
 15 22  1  0  0  0  0
 16 27  1  0  0  0  0
 17 28  1  0  0  0  0
 18 19  1  0  0  0  0
 18 21  1  0  0  0  0
 18 23  2  0  0  0  0
 19 26  1  0  0  0  0
 22 28  1  0  0  0  0
 24 28  2  0  0  0  0
 25 28  2  0  0  0  0
 21 29  1  0  0  0  0
 22 30  1  0  0  0  0
 26 31  1  0  0  0  0
M  END
> <ref_mols>
x2859_0

> <original SMILES>
OC(C(=O)NC=1C=CC=CC1NS(=O)(=O)C=2C=CC(F)=CC2)C=3C=CC=NC3

> <Chemgauss4>
-9.098339

> <ref_pdb>
x0678_0

$$$$
x0122
  -OEChem-05172015543D

 17 18  0     0  0  0  0  0  0999 V2000
    6.5462   -6.1093   23.4345 C   0  0  0  0  0  0  0  0  0  0  0  0
    7.4721   -5.8826   22.4163 C   0  0  0  0  0  0  0  0  0  0  0  0
    6.5858   -5.3398   24.5973 C   0  0  0  0  0  0  0  0  0  0  0  0
   12.6436   -0.5174   24.6496 C   0  0  0  0  0  0  0  0  0  0  0  0
    8.4377   -4.8865   22.5608 C   0  0  0  0  0  0  0  0  0  0  0  0
    7.5515   -4.3437   24.7418 C   0  0  0  0  0  0  0  0  0  0  0  0
   13.8141   -0.9872   25.2452 C   0  0  0  0  0  0  0  0  0  0  0  0
   11.5894   -1.3950   24.3957 C   0  0  0  0  0  0  0  0  0  0  0  0
   12.8765   -3.2121   25.3330 C   0  0  0  0  0  0  0  0  0  0  0  0
    8.4774   -4.1170   23.7235 C   0  0  0  0  0  0  0  0  0  0  0  0
   13.9306   -2.3345   25.5869 C   0  0  0  0  0  0  0  0  0  0  0  0
   11.7059   -2.7423   24.7374 C   0  0  0  0  0  0  0  0  0  0  0  0
    9.5098   -3.0518   23.8788 C   0  0  0  0  0  0  0  0  0  0  0  0
   15.1146   -2.8097   26.1881 N   0  0  0  0  0  0  0  0  0  0  0  0
   10.6704   -3.6041   24.4880 O   0  0  0  0  0  0  0  0  0  0  0  0
   15.8807   -2.1808   26.3210 H   0  0  0  0  0  0  0  0  0  0  0  0
   15.2037   -3.7860   26.3850 H   0  0  0  0  0  0  0  0  0  0  0  0
  1  2  1  0  0  0  0
  1  3  2  0  0  0  0
  2  5  2  0  0  0  0
  3  6  1  0  0  0  0
  4  7  2  0  0  0  0
  4  8  1  0  0  0  0
  5 10  1  0  0  0  0
  6 10  2  0  0  0  0
  7 11  1  0  0  0  0
  8 12  2  0  0  0  0
  9 11  2  0  0  0  0
  9 12  1  0  0  0  0
 10 13  1  0  0  0  0
 11 14  1  0  0  0  0
 12 15  1  0  0  0  0
 13 15  1  0  0  0  0
 14 16  1  0  0  0  0
 14 17  1  0  0  0  0
M  END
> <ref_mols>
x0122_0

> <original SMILES>
NC=1C=CC=C(OCC=2C=CC=CC2)C1

> <Chemgauss4>
-9.096505

> <ref_pdb>
x0749_0

$$$$
x0956
  -OEChem-05172015543D

 10 10  0     0  0  0  0  0  0999 V2000
    5.8409    1.3078   18.0232 C   0  0  0  0  0  0  0  0  0  0  0  0
    5.4912    0.0124   19.7652 C   0  0  0  0  0  0  0  0  0  0  0  0
    5.1386    1.2319   19.2409 C   0  0  0  0  0  0  0  0  0  0  0  0
    6.0737   -2.7780   19.7372 C   0  0  0  0  0  0  0  0  0  0  0  0
    6.9919   -1.8339   18.9786 C   0  0  0  0  0  0  0  0  0  0  0  0
    6.5837    0.2230   17.7879 N   0  0  0  0  0  0  0  0  0  0  0  0
    6.3502   -0.5461   18.8649 N   0  0  0  0  0  0  0  0  0  0  0  0
    5.7740   -2.4111   20.9084 O   0  5  0  0  0  0  0  0  0  0  0  0
    5.7367   -3.8210   19.1087 O   0  0  0  0  0  0  0  0  0  0  0  0
    3.9973    2.5259   19.9392 Br  0  0  0  0  0  0  0  0  0  0  0  0
  1  3  1  0  0  0  0
  1  6  2  0  0  0  0
  2  3  2  0  0  0  0
  2  7  1  0  0  0  0
  3 10  1  0  0  0  0
  4  5  1  0  0  0  0
  4  8  1  0  0  0  0
  4  9  2  0  0  0  0
  5  7  1  0  0  0  0
  6  7  1  0  0  0  0
M  CHG  1   8  -1
M  END
> <ref_mols>
x0956_0

> <original SMILES>
BrC1=CN(CC(O)=O)N=C1

> <Chemgauss4>
-9.091599

> <ref_pdb>
x0397_0

$$$$
x0181
  -OEChem-05172015543D

 16 17  0     0  0  0  0  0  0999 V2000
    9.7858   -4.3655   23.8468 C   0  0  0  0  0  0  0  0  0  0  0  0
    9.6659   -2.1000   23.0159 C   0  0  0  0  0  0  0  0  0  0  0  0
   10.9552   -4.0499   24.5385 C   0  0  0  0  0  0  0  0  0  0  0  0
   10.8353   -1.7844   23.7076 C   0  0  0  0  0  0  0  0  0  0  0  0
    7.3893   -4.9872   22.4195 C   0  0  0  0  0  0  0  0  0  0  0  0
    6.2320   -5.1747   21.6916 C   0  0  0  0  0  0  0  0  0  0  0  0
    9.1412   -3.3905   23.0854 C   0  0  0  0  0  0  0  0  0  0  0  0
   11.4800   -2.7594   24.4689 C   0  0  0  0  0  0  0  0  0  0  0  0
    7.9284   -3.7180   22.3674 C   0  0  0  0  0  0  0  0  0  0  0  0
    6.2600   -3.0112   20.9949 C   0  0  0  0  0  0  0  0  0  0  0  0
    5.6379   -4.2052   20.9654 N   0  0  0  0  0  0  0  0  0  0  0  0
    7.3881   -2.7024   21.6624 N   0  0  0  0  0  0  0  0  0  0  0  0
    5.6660   -1.9720   20.2459 N   0  0  0  0  0  0  0  0  0  0  0  0
   12.9238   -2.3712   25.3216 Cl  0  0  0  0  0  0  0  0  0  0  0  0
    4.8544   -2.1700   19.6979 H   0  0  0  0  0  0  0  0  0  0  0  0
    6.1206   -1.0832   20.2023 H   0  0  0  0  0  0  0  0  0  0  0  0
  1  3  2  0  0  0  0
  1  7  1  0  0  0  0
  2  4  1  0  0  0  0
  2  7  2  0  0  0  0
  3  8  1  0  0  0  0
  4  8  2  0  0  0  0
  5  6  1  0  0  0  0
  5  9  2  0  0  0  0
  6 11  2  0  0  0  0
  7  9  1  0  0  0  0
  8 14  1  0  0  0  0
  9 12  1  0  0  0  0
 10 11  1  0  0  0  0
 10 12  2  0  0  0  0
 10 13  1  0  0  0  0
 13 15  1  0  0  0  0
 13 16  1  0  0  0  0
M  END
> <ref_mols>
x0181_0

> <original SMILES>
NC=1N=CC=C(N1)C=2C=CC(Cl)=CC2

> <Chemgauss4>
-9.090261

> <ref_pdb>
x0749_0

$$$$
x2363
  -OEChem-05172015543D

 21 22  0     0  0  0  0  0  0999 V2000
   12.9269    0.6195   22.5416 C   0  0  0  0  0  0  0  0  0  0  0  0
   10.6430   -0.7404   23.5147 C   0  0  0  0  0  0  0  0  0  0  0  0
   10.5403    2.8066   24.2390 C   0  0  0  0  0  0  0  0  0  0  0  0
   11.9190    1.3340   23.2192 C   0  0  0  0  0  0  0  0  0  0  0  0
   11.7398    2.7004   23.5736 C   0  0  0  0  0  0  0  0  0  0  0  0
   10.8025    0.6389   23.6891 C   0  0  0  0  0  0  0  0  0  0  0  0
   12.7808   -0.7605   22.3598 C   0  0  0  0  0  0  0  0  0  0  0  0
   11.6556   -1.4280   22.8396 C   0  0  0  0  0  0  0  0  0  0  0  0
    9.8475    6.2510   23.0247 C   0  0  0  0  0  0  0  0  0  0  0  0
    8.7551    6.3294   22.0104 C   0  0  0  0  0  0  0  0  0  0  0  0
   13.6293   -1.5635   20.2883 C   0  0  0  0  0  0  0  0  0  0  0  0
   12.6674    3.8126   23.2838 C   0  0  0  0  0  0  0  0  0  0  0  0
   12.0564    5.2101   23.4934 C   0  0  0  0  0  0  0  0  0  0  0  0
    9.9825    1.5580   24.3040 N   0  0  0  0  0  0  0  0  0  0  0  0
   10.9014    5.4267   22.6641 N   0  0  0  0  0  0  0  0  0  0  0  0
    9.7526    6.8907   24.0656 O   0  0  0  0  0  0  0  0  0  0  0  0
   11.5268   -2.7741   22.6552 O   0  0  0  0  0  0  0  0  0  0  0  0
   13.7599   -1.4470   21.7028 O   0  0  0  0  0  0  0  0  0  0  0  0
    9.0971    1.3405   24.7400 H   0  0  0  0  0  0  0  0  0  0  0  0
   10.8557    4.9495   21.7651 H   0  0  0  0  0  0  0  0  0  0  0  0
   10.6955   -3.0851   23.0443 H   0  0  0  0  0  0  0  0  0  0  0  0
  1  4  1  0  0  0  0
  1  7  2  0  0  0  0
  2  6  1  0  0  0  0
  2  8  2  0  0  0  0
  3  5  2  0  0  0  0
  3 14  1  0  0  0  0
  4  5  1  0  0  0  0
  4  6  2  0  0  0  0
  5 12  1  0  0  0  0
  6 14  1  0  0  0  0
  7  8  1  0  0  0  0
  7 18  1  0  0  0  0
  8 17  1  0  0  0  0
  9 10  1  0  0  0  0
  9 15  1  0  0  0  0
  9 16  2  0  0  0  0
 11 18  1  0  0  0  0
 12 13  1  0  0  0  0
 13 15  1  0  0  0  0
 14 19  1  0  0  0  0
 15 20  1  0  0  0  0
 17 21  1  0  0  0  0
M  END
> <ref_mols>
x2363_0

> <original SMILES>
CC(NCCC1=CNC2=CC(O)=C(OC)C=C21)=O

> <Chemgauss4>
-9.089545

> <ref_pdb>
x0104_0

$$$$
x2463
  -OEChem-05172015543D

 21 22  0     0  0  0  0  0  0999 V2000
   12.9269    0.6195   22.5416 C   0  0  0  0  0  0  0  0  0  0  0  0
   10.6430   -0.7404   23.5147 C   0  0  0  0  0  0  0  0  0  0  0  0
   10.5403    2.8066   24.2390 C   0  0  0  0  0  0  0  0  0  0  0  0
   11.9190    1.3340   23.2192 C   0  0  0  0  0  0  0  0  0  0  0  0
   11.7398    2.7004   23.5736 C   0  0  0  0  0  0  0  0  0  0  0  0
   10.8025    0.6389   23.6891 C   0  0  0  0  0  0  0  0  0  0  0  0
   12.7808   -0.7605   22.3598 C   0  0  0  0  0  0  0  0  0  0  0  0
   11.6556   -1.4280   22.8396 C   0  0  0  0  0  0  0  0  0  0  0  0
    9.8475    6.2510   23.0247 C   0  0  0  0  0  0  0  0  0  0  0  0
    8.7551    6.3294   22.0104 C   0  0  0  0  0  0  0  0  0  0  0  0
   13.6293   -1.5635   20.2883 C   0  0  0  0  0  0  0  0  0  0  0  0
   12.6674    3.8126   23.2838 C   0  0  0  0  0  0  0  0  0  0  0  0
   12.0564    5.2101   23.4934 C   0  0  0  0  0  0  0  0  0  0  0  0
    9.9825    1.5580   24.3040 N   0  0  0  0  0  0  0  0  0  0  0  0
   10.9014    5.4267   22.6641 N   0  0  0  0  0  0  0  0  0  0  0  0
    9.7526    6.8907   24.0656 O   0  0  0  0  0  0  0  0  0  0  0  0
   11.5268   -2.7741   22.6552 O   0  0  0  0  0  0  0  0  0  0  0  0
   13.7599   -1.4470   21.7028 O   0  0  0  0  0  0  0  0  0  0  0  0
    9.0971    1.3405   24.7400 H   0  0  0  0  0  0  0  0  0  0  0  0
   10.8557    4.9495   21.7651 H   0  0  0  0  0  0  0  0  0  0  0  0
   10.6955   -3.0851   23.0443 H   0  0  0  0  0  0  0  0  0  0  0  0
  1  4  1  0  0  0  0
  1  7  2  0  0  0  0
  2  6  1  0  0  0  0
  2  8  2  0  0  0  0
  3  5  2  0  0  0  0
  3 14  1  0  0  0  0
  4  5  1  0  0  0  0
  4  6  2  0  0  0  0
  5 12  1  0  0  0  0
  6 14  1  0  0  0  0
  7  8  1  0  0  0  0
  7 18  1  0  0  0  0
  8 17  1  0  0  0  0
  9 10  1  0  0  0  0
  9 15  1  0  0  0  0
  9 16  2  0  0  0  0
 11 18  1  0  0  0  0
 12 13  1  0  0  0  0
 13 15  1  0  0  0  0
 14 19  1  0  0  0  0
 15 20  1  0  0  0  0
 17 21  1  0  0  0  0
M  END
> <ref_mols>
x2463_0

> <original SMILES>
CC(NCCC1=CNC2=CC(O)=C(OC)C=C21)=O

> <Chemgauss4>
-9.089545

> <ref_pdb>
x0104_0

$$$$
x2357
  -OEChem-05172015543D

 21 22  0     0  0  0  0  0  0999 V2000
   12.9269    0.6195   22.5416 C   0  0  0  0  0  0  0  0  0  0  0  0
   10.6430   -0.7404   23.5147 C   0  0  0  0  0  0  0  0  0  0  0  0
   10.5403    2.8066   24.2390 C   0  0  0  0  0  0  0  0  0  0  0  0
   11.9190    1.3340   23.2192 C   0  0  0  0  0  0  0  0  0  0  0  0
   11.7398    2.7004   23.5736 C   0  0  0  0  0  0  0  0  0  0  0  0
   10.8025    0.6389   23.6891 C   0  0  0  0  0  0  0  0  0  0  0  0
   12.7808   -0.7605   22.3598 C   0  0  0  0  0  0  0  0  0  0  0  0
   11.6556   -1.4280   22.8396 C   0  0  0  0  0  0  0  0  0  0  0  0
    9.8475    6.2510   23.0247 C   0  0  0  0  0  0  0  0  0  0  0  0
    8.7551    6.3294   22.0104 C   0  0  0  0  0  0  0  0  0  0  0  0
   13.6293   -1.5635   20.2883 C   0  0  0  0  0  0  0  0  0  0  0  0
   12.6674    3.8126   23.2838 C   0  0  0  0  0  0  0  0  0  0  0  0
   12.0564    5.2101   23.4934 C   0  0  0  0  0  0  0  0  0  0  0  0
    9.9825    1.5580   24.3040 N   0  0  0  0  0  0  0  0  0  0  0  0
   10.9014    5.4267   22.6641 N   0  0  0  0  0  0  0  0  0  0  0  0
    9.7526    6.8907   24.0656 O   0  0  0  0  0  0  0  0  0  0  0  0
   11.5268   -2.7741   22.6552 O   0  0  0  0  0  0  0  0  0  0  0  0
   13.7599   -1.4470   21.7028 O   0  0  0  0  0  0  0  0  0  0  0  0
    9.0971    1.3405   24.7400 H   0  0  0  0  0  0  0  0  0  0  0  0
   10.8557    4.9495   21.7651 H   0  0  0  0  0  0  0  0  0  0  0  0
   10.6955   -3.0851   23.0443 H   0  0  0  0  0  0  0  0  0  0  0  0
  1  4  1  0  0  0  0
  1  7  2  0  0  0  0
  2  6  1  0  0  0  0
  2  8  2  0  0  0  0
  3  5  2  0  0  0  0
  3 14  1  0  0  0  0
  4  5  1  0  0  0  0
  4  6  2  0  0  0  0
  5 12  1  0  0  0  0
  6 14  1  0  0  0  0
  7  8  1  0  0  0  0
  7 18  1  0  0  0  0
  8 17  1  0  0  0  0
  9 10  1  0  0  0  0
  9 15  1  0  0  0  0
  9 16  2  0  0  0  0
 11 18  1  0  0  0  0
 12 13  1  0  0  0  0
 13 15  1  0  0  0  0
 14 19  1  0  0  0  0
 15 20  1  0  0  0  0
 17 21  1  0  0  0  0
M  END
> <ref_mols>
x2357_0

> <original SMILES>
CC(NCCC1=CNC2=CC(O)=C(OC)C=C21)=O

> <Chemgauss4>
-9.089545

> <ref_pdb>
x0104_0

$$$$
x2576
  -OEChem-05172015543D

 22 23  0     0  0  0  0  0  0999 V2000
    6.8653    4.8093   21.8201 C   0  0  0  0  0  0  0  0  0  0  0  0
    7.2059    6.1611   21.7727 C   0  0  0  0  0  0  0  0  0  0  0  0
    7.6531    3.9166   22.5468 C   0  0  0  0  0  0  0  0  0  0  0  0
   10.1772   -1.4544   23.4014 C   0  0  0  0  0  0  0  0  0  0  0  0
    8.3344    6.6201   22.4520 C   0  0  0  0  0  0  0  0  0  0  0  0
    8.7816    4.3756   23.2260 C   0  0  0  0  0  0  0  0  0  0  0  0
   11.3158   -1.5450   22.6007 C   0  0  0  0  0  0  0  0  0  0  0  0
    9.9924   -0.3463   24.2282 C   0  0  0  0  0  0  0  0  0  0  0  0
    9.1223    5.7274   23.1786 C   0  0  0  0  0  0  0  0  0  0  0  0
   12.2696   -0.5276   22.6270 C   0  0  0  0  0  0  0  0  0  0  0  0
   10.9462    0.6712   24.2544 C   0  0  0  0  0  0  0  0  0  0  0  0
   12.0848    0.5805   23.4538 C   0  0  0  0  0  0  0  0  0  0  0  0
   12.7121    3.9621   23.2948 C   0  0  0  0  0  0  0  0  0  0  0  0
   13.4816   -0.6430   21.7623 C   0  0  0  0  0  0  0  0  0  0  0  0
   10.7302    1.8492   25.1464 C   0  0  0  0  0  0  0  0  0  0  0  0
   10.3434    6.2233   23.9135 C   0  0  0  0  0  0  0  0  0  0  0  0
   12.8625    2.6446   22.5646 C   0  0  0  0  0  0  0  0  0  0  0  0
   11.6093    6.1814   23.0611 C   0  0  0  0  0  0  0  0  0  0  0  0
   11.9160    4.8507   22.5890 N   0  0  0  0  0  0  0  0  0  0  0  0
   13.2431    4.1846   24.3794 O   0  0  0  0  0  0  0  0  0  0  0  0
   13.0257    1.5827   23.4805 O   0  0  0  0  0  0  0  0  0  0  0  0
   11.5302    4.5523   21.6979 H   0  0  0  0  0  0  0  0  0  0  0  0
  1  2  1  0  0  0  0
  1  3  2  0  0  0  0
  2  5  2  0  0  0  0
  3  6  1  0  0  0  0
  4  7  2  0  0  0  0
  4  8  1  0  0  0  0
  5  9  1  0  0  0  0
  6  9  2  0  0  0  0
  7 10  1  0  0  0  0
  8 11  2  0  0  0  0
  9 16  1  0  0  0  0
 10 12  2  0  0  0  0
 10 14  1  0  0  0  0
 11 12  1  0  0  0  0
 11 15  1  0  0  0  0
 12 21  1  0  0  0  0
 13 17  1  0  0  0  0
 13 19  1  0  0  0  0
 13 20  2  0  0  0  0
 16 18  1  0  0  0  0
 17 21  1  0  0  0  0
 18 19  1  0  0  0  0
 19 22  1  0  0  0  0
M  END
> <ref_mols>
x2576_0

> <original SMILES>
CC=1C=CC=C(C)C1OCC(=O)NCCC=2C=CC=CC2

> <Chemgauss4>
-9.082601

> <ref_pdb>
x0104_0

$$$$
x2664
  -OEChem-05172015543D

 17 18  0     0  0  0  0  0  0999 V2000
   13.4156   -1.3751   23.2558 C   0  0  0  0  0  0  0  0  0  0  0  0
   12.2403   -1.9525   22.6941 C   0  0  0  0  0  0  0  0  0  0  0  0
   13.1207   -0.4140   24.1975 C   0  0  0  0  0  0  0  0  0  0  0  0
   11.0917   -1.4107   23.2282 C   0  0  0  0  0  0  0  0  0  0  0  0
    7.0155   -5.4426   26.7278 C   0  0  0  0  0  0  0  0  0  0  0  0
    8.7525   -3.6042   26.4549 C   0  0  0  0  0  0  0  0  0  0  0  0
    8.3213   -5.2120   24.6381 C   0  0  0  0  0  0  0  0  0  0  0  0
    8.6703   -2.4521   25.4580 C   0  0  0  0  0  0  0  0  0  0  0  0
    8.2345   -4.0661   23.6363 C   0  0  0  0  0  0  0  0  0  0  0  0
    5.8865   -6.0751   25.9540 C   0  0  0  0  0  0  0  0  0  0  0  0
    7.9729   -4.7549   25.9841 N   0  0  0  0  0  0  0  0  0  0  0  0
    9.0869   -2.9323   24.1057 N   0  0  0  0  0  0  0  0  0  0  0  0
    7.0455   -5.5596   27.9555 O   0  0  0  0  0  0  0  0  0  0  0  0
    8.6524   -0.5102   23.3376 O   0  0  0  0  0  0  0  0  0  0  0  0
    9.2270   -2.2634   21.6218 O   0  0  0  0  0  0  0  0  0  0  0  0
   11.4326   -0.2109   24.4015 S   0  0  0  0  0  0  0  0  0  0  0  0
    9.3736   -1.7025   22.9476 S   0  0  0  0  0  0  0  0  0  0  0  0
  1  2  1  0  0  0  0
  1  3  2  0  0  0  0
  2  4  2  0  0  0  0
  3 16  1  0  0  0  0
  4 16  1  0  0  0  0
  4 17  1  0  0  0  0
  5 10  1  0  0  0  0
  5 11  1  0  0  0  0
  5 13  2  0  0  0  0
  6  8  1  0  0  0  0
  6 11  1  0  0  0  0
  7  9  1  0  0  0  0
  7 11  1  0  0  0  0
  8 12  1  0  0  0  0
  9 12  1  0  0  0  0
 12 17  1  0  0  0  0
 14 17  2  0  0  0  0
 15 17  2  0  0  0  0
M  END
> <ref_mols>
x2664_0

> <original SMILES>
CC(=O)N1CCN(CC1)S(=O)(=O)C2=CC=CS2

> <Chemgauss4>
-9.079074

> <ref_pdb>
x0072_0

$$$$
x2496
  -OEChem-05172015543D

 17 18  0     0  0  0  0  0  0999 V2000
   13.4156   -1.3751   23.2558 C   0  0  0  0  0  0  0  0  0  0  0  0
   12.2403   -1.9525   22.6941 C   0  0  0  0  0  0  0  0  0  0  0  0
   13.1207   -0.4140   24.1975 C   0  0  0  0  0  0  0  0  0  0  0  0
   11.0917   -1.4107   23.2282 C   0  0  0  0  0  0  0  0  0  0  0  0
    7.0155   -5.4426   26.7278 C   0  0  0  0  0  0  0  0  0  0  0  0
    8.7525   -3.6042   26.4549 C   0  0  0  0  0  0  0  0  0  0  0  0
    8.3213   -5.2120   24.6381 C   0  0  0  0  0  0  0  0  0  0  0  0
    8.6703   -2.4521   25.4580 C   0  0  0  0  0  0  0  0  0  0  0  0
    8.2345   -4.0661   23.6363 C   0  0  0  0  0  0  0  0  0  0  0  0
    5.8865   -6.0751   25.9540 C   0  0  0  0  0  0  0  0  0  0  0  0
    7.9729   -4.7549   25.9841 N   0  0  0  0  0  0  0  0  0  0  0  0
    9.0869   -2.9323   24.1057 N   0  0  0  0  0  0  0  0  0  0  0  0
    7.0455   -5.5596   27.9555 O   0  0  0  0  0  0  0  0  0  0  0  0
    8.6524   -0.5102   23.3376 O   0  0  0  0  0  0  0  0  0  0  0  0
    9.2270   -2.2634   21.6218 O   0  0  0  0  0  0  0  0  0  0  0  0
   11.4326   -0.2109   24.4015 S   0  0  0  0  0  0  0  0  0  0  0  0
    9.3736   -1.7025   22.9476 S   0  0  0  0  0  0  0  0  0  0  0  0
  1  2  1  0  0  0  0
  1  3  2  0  0  0  0
  2  4  2  0  0  0  0
  3 16  1  0  0  0  0
  4 16  1  0  0  0  0
  4 17  1  0  0  0  0
  5 10  1  0  0  0  0
  5 11  1  0  0  0  0
  5 13  2  0  0  0  0
  6  8  1  0  0  0  0
  6 11  1  0  0  0  0
  7  9  1  0  0  0  0
  7 11  1  0  0  0  0
  8 12  1  0  0  0  0
  9 12  1  0  0  0  0
 12 17  1  0  0  0  0
 14 17  2  0  0  0  0
 15 17  2  0  0  0  0
M  END
> <ref_mols>
x2496_0

> <original SMILES>
CC(=O)N1CCN(CC1)S(=O)(=O)C2=CC=CS2

> <Chemgauss4>
-9.079074

> <ref_pdb>
x0072_0

$$$$
x0498
  -OEChem-05172015543D

 20 21  0     0  0  0  0  0  0999 V2000
    5.7331    0.7529   18.2978 C   0  0  0  0  0  0  0  0  0  0  0  0
    5.1937    1.0233   19.5554 C   0  0  0  0  0  0  0  0  0  0  0  0
    7.0980    0.4977   18.1645 C   0  0  0  0  0  0  0  0  0  0  0  0
   13.3745   -0.0156   24.2207 C   0  0  0  0  0  0  0  0  0  0  0  0
   12.0078   -0.8862   22.4287 C   0  0  0  0  0  0  0  0  0  0  0  0
    6.0191    1.0386   20.6797 C   0  0  0  0  0  0  0  0  0  0  0  0
    7.9234    0.5129   19.2889 C   0  0  0  0  0  0  0  0  0  0  0  0
   14.1953   -1.1405   24.1412 C   0  0  0  0  0  0  0  0  0  0  0  0
   12.8287   -2.0112   22.3492 C   0  0  0  0  0  0  0  0  0  0  0  0
   12.2806    0.1115   23.3644 C   0  0  0  0  0  0  0  0  0  0  0  0
    7.3840    0.7833   20.5465 C   0  0  0  0  0  0  0  0  0  0  0  0
   13.9225   -2.1383   23.2055 C   0  0  0  0  0  0  0  0  0  0  0  0
    9.5746    1.1395   21.7526 C   0  0  0  0  0  0  0  0  0  0  0  0
   11.4030    1.3143   23.4483 C   0  0  0  0  0  0  0  0  0  0  0  0
    8.2207    0.7987   21.6867 N   0  0  0  0  0  0  0  0  0  0  0  0
   10.0430    1.0278   23.0680 N   0  0  0  0  0  0  0  0  0  0  0  0
   10.2878    1.4917   20.8161 O   0  0  0  0  0  0  0  0  0  0  0  0
   14.7123   -3.2173   23.1272 F   0  0  0  0  0  0  0  0  0  0  0  0
    7.7791    0.5290   22.5621 H   0  0  0  0  0  0  0  0  0  0  0  0
    9.3914    0.7301   23.7897 H   0  0  0  0  0  0  0  0  0  0  0  0
  1  2  1  0  0  0  0
  1  3  2  0  0  0  0
  2  6  2  0  0  0  0
  3  7  1  0  0  0  0
  4  8  2  0  0  0  0
  4 10  1  0  0  0  0
  5  9  1  0  0  0  0
  5 10  2  0  0  0  0
  6 11  1  0  0  0  0
  7 11  2  0  0  0  0
  8 12  1  0  0  0  0
  9 12  2  0  0  0  0
 10 14  1  0  0  0  0
 11 15  1  0  0  0  0
 12 18  1  0  0  0  0
 13 15  1  0  0  0  0
 13 16  1  0  0  0  0
 13 17  2  0  0  0  0
 14 16  1  0  0  0  0
 15 19  1  0  0  0  0
 16 20  1  0  0  0  0
M  END
> <ref_mols>
x0498_0

> <original SMILES>
FC=1C=CC(CNC(=O)NC=2C=CC=CC2)=CC1

> <Chemgauss4>
-9.076805

> <ref_pdb>
x0678_0

$$$$
x1236
  -OEChem-05172015543D

 17 18  0     1  0  0  0  0  0999 V2000
   13.3771   -2.1503   22.3435 C   0  0  0  0  0  0  0  0  0  0  0  0
   14.2298   -1.1402   21.8985 C   0  0  0  0  0  0  0  0  0  0  0  0
   12.2266   -1.8257   23.0623 C   0  0  0  0  0  0  0  0  0  0  0  0
   13.9321    0.1948   22.1724 C   0  0  0  0  0  0  0  0  0  0  0  0
   11.9289   -0.4908   23.3362 C   0  0  0  0  0  0  0  0  0  0  0  0
   13.2164    2.9327   22.7975 C   0  0  0  0  0  0  0  0  0  0  0  0
   12.7816    0.5195   22.8913 C   0  0  0  0  0  0  0  0  0  0  0  0
   12.4973    3.9858   23.3045 C   0  0  0  0  0  0  0  0  0  0  0  0
   12.2791    6.2312   24.4460 C   0  0  0  0  0  0  0  0  0  0  0  0
   12.7853    5.4238   23.2316 C   0  0  1  0  0  0  0  0  0  0  0  0
   11.3833    3.5162   23.9432 N   0  0  0  0  0  0  0  0  0  0  0  0
   11.3871    2.1910   23.8495 N   0  0  0  0  0  0  0  0  0  0  0  0
   12.4871    1.8431   23.1623 N   0  0  0  0  0  0  0  0  0  0  0  0
   14.2534    5.7553   23.0818 N   0  3  0  0  0  0  0  0  0  0  0  0
   14.4093    6.7245   23.3421 H   0  0  0  0  0  0  0  0  0  0  0  0
   14.5344    5.6140   22.1160 H   0  0  0  0  0  0  0  0  0  0  0  0
   14.8001    5.1493   23.6865 H   0  0  0  0  0  0  0  0  0  0  0  0
  1  2  1  0  0  0  0
  1  3  2  0  0  0  0
  2  4  2  0  0  0  0
  3  5  1  0  0  0  0
  4  7  1  0  0  0  0
  5  7  2  0  0  0  0
  6  8  2  0  0  0  0
  6 13  1  0  0  0  0
  7 13  1  0  0  0  0
  8 10  1  0  0  0  0
  8 11  1  0  0  0  0
  9 10  1  0  0  0  0
 10 14  1  0  0  0  0
 11 12  2  0  0  0  0
 12 13  1  0  0  0  0
 14 15  1  0  0  0  0
 14 16  1  0  0  0  0
 14 17  1  0  0  0  0
M  CHG  1  14   1
M  END
> <ref_mols>
x1236_0

> <original SMILES>
CC(N)C1=CN(N=N1)C=2C=CC=CC2

> <Chemgauss4>
-9.072893

> <ref_pdb>
x0195_0

$$$$
x0083
  -OEChem-05172015543D

 17 18  0     1  0  0  0  0  0999 V2000
   13.3771   -2.1503   22.3435 C   0  0  0  0  0  0  0  0  0  0  0  0
   14.2298   -1.1402   21.8985 C   0  0  0  0  0  0  0  0  0  0  0  0
   12.2266   -1.8257   23.0623 C   0  0  0  0  0  0  0  0  0  0  0  0
   13.9321    0.1948   22.1724 C   0  0  0  0  0  0  0  0  0  0  0  0
   11.9289   -0.4908   23.3362 C   0  0  0  0  0  0  0  0  0  0  0  0
   13.2164    2.9327   22.7975 C   0  0  0  0  0  0  0  0  0  0  0  0
   12.7816    0.5195   22.8913 C   0  0  0  0  0  0  0  0  0  0  0  0
   12.4973    3.9858   23.3045 C   0  0  0  0  0  0  0  0  0  0  0  0
   12.2791    6.2312   24.4460 C   0  0  0  0  0  0  0  0  0  0  0  0
   12.7853    5.4238   23.2316 C   0  0  1  0  0  0  0  0  0  0  0  0
   11.3833    3.5162   23.9432 N   0  0  0  0  0  0  0  0  0  0  0  0
   11.3871    2.1910   23.8495 N   0  0  0  0  0  0  0  0  0  0  0  0
   12.4871    1.8431   23.1623 N   0  0  0  0  0  0  0  0  0  0  0  0
   14.2534    5.7553   23.0818 N   0  3  0  0  0  0  0  0  0  0  0  0
   14.4093    6.7245   23.3421 H   0  0  0  0  0  0  0  0  0  0  0  0
   14.5344    5.6140   22.1160 H   0  0  0  0  0  0  0  0  0  0  0  0
   14.8001    5.1493   23.6865 H   0  0  0  0  0  0  0  0  0  0  0  0
  1  2  1  0  0  0  0
  1  3  2  0  0  0  0
  2  4  2  0  0  0  0
  3  5  1  0  0  0  0
  4  7  1  0  0  0  0
  5  7  2  0  0  0  0
  6  8  2  0  0  0  0
  6 13  1  0  0  0  0
  7 13  1  0  0  0  0
  8 10  1  0  0  0  0
  8 11  1  0  0  0  0
  9 10  1  0  0  0  0
 10 14  1  0  0  0  0
 11 12  2  0  0  0  0
 12 13  1  0  0  0  0
 14 15  1  0  0  0  0
 14 16  1  0  0  0  0
 14 17  1  0  0  0  0
M  CHG  1  14   1
M  END
> <ref_mols>
x0083_0

> <original SMILES>
CC(N)C1=CN(N=N1)C=2C=CC=CC2

> <Chemgauss4>
-9.072893

> <ref_pdb>
x0195_0

$$$$
x1118
  -OEChem-05172015543D

 20 21  0     0  0  0  0  0  0999 V2000
   12.3288   -3.3717   25.8531 C   0  0  0  0  0  0  0  0  0  0  0  0
   12.4412   -1.5873   24.2282 C   0  0  0  0  0  0  0  0  0  0  0  0
   11.1736   -3.8569   25.2403 C   0  0  0  0  0  0  0  0  0  0  0  0
   11.2860   -2.0726   23.6153 C   0  0  0  0  0  0  0  0  0  0  0  0
   12.9626   -2.2368   25.3471 C   0  0  0  0  0  0  0  0  0  0  0  0
   10.6522   -3.2074   24.1214 C   0  0  0  0  0  0  0  0  0  0  0  0
   14.1671   -1.7309   25.9860 C   0  0  0  0  0  0  0  0  0  0  0  0
    6.2494   -5.1703   21.1778 C   0  0  0  0  0  0  0  0  0  0  0  0
    7.4034   -3.2798   22.2695 C   0  0  0  0  0  0  0  0  0  0  0  0
    8.3508   -5.5904   22.4240 C   0  0  0  0  0  0  0  0  0  0  0  0
    8.3069   -2.8345   23.4186 C   0  0  0  0  0  0  0  0  0  0  0  0
    9.2457   -5.1419   23.5775 C   0  0  0  0  0  0  0  0  0  0  0  0
    7.0669   -4.7660   22.3653 C   0  0  0  0  0  0  0  0  0  0  0  0
   15.3544   -2.6471   26.0518 C   0  0  0  0  0  0  0  0  0  0  0  0
    9.4925   -3.6945   23.5062 N   0  0  0  0  0  0  0  0  0  0  0  0
    5.8659   -6.4905   21.1920 N   0  0  0  0  0  0  0  0  0  0  0  0
   14.2855   -0.6084   26.4820 O   0  0  0  0  0  0  0  0  0  0  0  0
    5.9465   -4.3743   20.2923 O   0  0  0  0  0  0  0  0  0  0  0  0
    6.1518   -7.0722   21.9727 H   0  0  0  0  0  0  0  0  0  0  0  0
    5.3084   -6.9065   20.4531 H   0  0  0  0  0  0  0  0  0  0  0  0
  1  3  2  0  0  0  0
  1  5  1  0  0  0  0
  2  4  1  0  0  0  0
  2  5  2  0  0  0  0
  3  6  1  0  0  0  0
  4  6  2  0  0  0  0
  5  7  1  0  0  0  0
  6 15  1  0  0  0  0
  7 14  1  0  0  0  0
  7 17  2  0  0  0  0
  8 13  1  0  0  0  0
  8 16  1  0  0  0  0
  8 18  2  0  0  0  0
  9 11  1  0  0  0  0
  9 13  1  0  0  0  0
 10 12  1  0  0  0  0
 10 13  1  0  0  0  0
 11 15  1  0  0  0  0
 12 15  1  0  0  0  0
 16 19  1  0  0  0  0
 16 20  1  0  0  0  0
M  END
> <ref_mols>
x1118_0

> <original SMILES>
CC(=O)C=1C=CC(=CC1)N2CCC(CC2)C(=O)N

> <Chemgauss4>
-9.068644

> <ref_pdb>
x0749_0

$$$$
x0513
  -OEChem-05172015543D

 20 21  0     0  0  0  0  0  0999 V2000
   12.3288   -3.3717   25.8531 C   0  0  0  0  0  0  0  0  0  0  0  0
   12.4412   -1.5873   24.2282 C   0  0  0  0  0  0  0  0  0  0  0  0
   11.1736   -3.8569   25.2403 C   0  0  0  0  0  0  0  0  0  0  0  0
   11.2860   -2.0726   23.6153 C   0  0  0  0  0  0  0  0  0  0  0  0
   12.9626   -2.2368   25.3471 C   0  0  0  0  0  0  0  0  0  0  0  0
   10.6522   -3.2074   24.1214 C   0  0  0  0  0  0  0  0  0  0  0  0
   14.1671   -1.7309   25.9860 C   0  0  0  0  0  0  0  0  0  0  0  0
    6.2494   -5.1703   21.1778 C   0  0  0  0  0  0  0  0  0  0  0  0
    7.4034   -3.2798   22.2695 C   0  0  0  0  0  0  0  0  0  0  0  0
    8.3508   -5.5904   22.4240 C   0  0  0  0  0  0  0  0  0  0  0  0
    8.3069   -2.8345   23.4186 C   0  0  0  0  0  0  0  0  0  0  0  0
    9.2457   -5.1419   23.5775 C   0  0  0  0  0  0  0  0  0  0  0  0
    7.0669   -4.7660   22.3653 C   0  0  0  0  0  0  0  0  0  0  0  0
   15.3544   -2.6471   26.0518 C   0  0  0  0  0  0  0  0  0  0  0  0
    9.4925   -3.6945   23.5062 N   0  0  0  0  0  0  0  0  0  0  0  0
    5.8659   -6.4905   21.1920 N   0  0  0  0  0  0  0  0  0  0  0  0
   14.2855   -0.6084   26.4820 O   0  0  0  0  0  0  0  0  0  0  0  0
    5.9465   -4.3743   20.2923 O   0  0  0  0  0  0  0  0  0  0  0  0
    6.1518   -7.0722   21.9727 H   0  0  0  0  0  0  0  0  0  0  0  0
    5.3084   -6.9065   20.4531 H   0  0  0  0  0  0  0  0  0  0  0  0
  1  3  2  0  0  0  0
  1  5  1  0  0  0  0
  2  4  1  0  0  0  0
  2  5  2  0  0  0  0
  3  6  1  0  0  0  0
  4  6  2  0  0  0  0
  5  7  1  0  0  0  0
  6 15  1  0  0  0  0
  7 14  1  0  0  0  0
  7 17  2  0  0  0  0
  8 13  1  0  0  0  0
  8 16  1  0  0  0  0
  8 18  2  0  0  0  0
  9 11  1  0  0  0  0
  9 13  1  0  0  0  0
 10 12  1  0  0  0  0
 10 13  1  0  0  0  0
 11 15  1  0  0  0  0
 12 15  1  0  0  0  0
 16 19  1  0  0  0  0
 16 20  1  0  0  0  0
M  END
> <ref_mols>
x0513_0

> <original SMILES>
CC(=O)C=1C=CC(=CC1)N2CCC(CC2)C(=O)N

> <Chemgauss4>
-9.068644

> <ref_pdb>
x0749_0

$$$$
x1216
  -OEChem-05172015543D

 14 15  0     0  0  0  0  0  0999 V2000
    9.2281    0.1876   19.8856 C   0  0  0  0  0  0  0  0  0  0  0  0
    7.9015    0.2079   20.2671 C   0  0  0  0  0  0  0  0  0  0  0  0
   10.3819   -2.0169   21.8818 C   0  0  0  0  0  0  0  0  0  0  0  0
   12.5657   -0.9394   21.3633 C   0  0  0  0  0  0  0  0  0  0  0  0
   10.6076   -1.6255   23.3325 C   0  0  0  0  0  0  0  0  0  0  0  0
   12.6768   -0.6043   22.8412 C   0  0  0  0  0  0  0  0  0  0  0  0
   10.4179    0.2644   20.7965 C   0  0  0  0  0  0  0  0  0  0  0  0
    9.4558    0.0811   18.5226 N   0  0  0  0  0  0  0  0  0  0  0  0
    8.3210    0.0188   17.8443 N   0  0  0  0  0  0  0  0  0  0  0  0
   11.1120   -1.0579   20.9718 N   0  3  0  0  0  0  0  0  0  0  0  0
   12.0035   -1.5855   23.6303 O   0  0  0  0  0  0  0  0  0  0  0  0
    6.9693    0.0871   18.8315 S   0  0  0  0  0  0  0  0  0  0  0  0
    7.1830    0.3214   21.8060 Cl  0  0  0  0  0  0  0  0  0  0  0  0
   11.1062   -1.5066   20.0142 H   0  0  0  0  0  0  0  0  0  0  0  0
  1  2  2  0  0  0  0
  1  7  1  0  0  0  0
  1  8  1  0  0  0  0
  2 12  1  0  0  0  0
  2 13  1  0  0  0  0
  3  5  1  0  0  0  0
  3 10  1  0  0  0  0
  4  6  1  0  0  0  0
  4 10  1  0  0  0  0
  5 11  1  0  0  0  0
  6 11  1  0  0  0  0
  7 10  1  0  0  0  0
  8  9  2  0  0  0  0
  9 12  1  0  0  0  0
 10 14  1  0  0  0  0
M  CHG  1  10   1
M  END
> <ref_mols>
x1216_0

> <original SMILES>
ClC=1SN=NC1CN2CCOCC2

> <Chemgauss4>
-9.061049

> <ref_pdb>
x0678_0

$$$$
x0398
  -OEChem-05172015543D

 16 17  0     0  0  0  0  0  0999 V2000
   13.0812   -0.2209   24.2538 C   0  0  0  0  0  0  0  0  0  0  0  0
   11.7785    0.2095   24.5055 C   0  0  0  0  0  0  0  0  0  0  0  0
   13.3023   -1.3550   23.4722 C   0  0  0  0  0  0  0  0  0  0  0  0
   10.6969   -0.4941   23.9757 C   0  0  0  0  0  0  0  0  0  0  0  0
   12.2207   -2.0586   22.9425 C   0  0  0  0  0  0  0  0  0  0  0  0
   10.9180   -1.6282   23.1942 C   0  0  0  0  0  0  0  0  0  0  0  0
    8.2250   -4.8534   26.3492 C   0  0  0  0  0  0  0  0  0  0  0  0
    6.3193   -5.8117   25.0718 C   0  0  0  0  0  0  0  0  0  0  0  0
    7.4335   -5.1337   27.6153 C   0  0  0  0  0  0  0  0  0  0  0  0
    5.6265   -6.0431   26.4040 C   0  0  0  0  0  0  0  0  0  0  0  0
    7.9427   -4.2930   23.9304 C   0  0  0  0  0  0  0  0  0  0  0  0
    8.6982   -2.9810   24.0637 C   0  0  0  0  0  0  0  0  0  0  0  0
    7.2483   -4.6295   25.2187 N   0  3  0  0  0  0  0  0  0  0  0  0
    6.5876   -6.2706   27.4359 O   0  0  0  0  0  0  0  0  0  0  0  0
    9.5485   -2.5193   22.5242 S   0  0  0  0  0  0  0  0  0  0  0  0
    6.6722   -3.8126   25.4648 H   0  0  0  0  0  0  0  0  0  0  0  0
  1  2  1  0  0  0  0
  1  3  2  0  0  0  0
  2  4  2  0  0  0  0
  3  5  1  0  0  0  0
  4  6  1  0  0  0  0
  5  6  2  0  0  0  0
  6 15  1  0  0  0  0
  7  9  1  0  0  0  0
  7 13  1  0  0  0  0
  8 10  1  0  0  0  0
  8 13  1  0  0  0  0
  9 14  1  0  0  0  0
 10 14  1  0  0  0  0
 11 12  1  0  0  0  0
 11 13  1  0  0  0  0
 12 15  1  0  0  0  0
 13 16  1  0  0  0  0
M  CHG  1  13   1
M  END
> <ref_mols>
x0398_0

> <original SMILES>
C(CN1CCOCC1)SC=2C=CC=CC2

> <Chemgauss4>
-9.060939

> <ref_pdb>
x0072_0

$$$$
x0667
  -OEChem-05172015543D

 20 22  0     0  0  0  0  0  0999 V2000
   13.7925   -1.9734   22.4121 C   0  0  0  0  0  0  0  0  0  0  0  0
   12.6271   -1.7996   23.1622 C   0  0  0  0  0  0  0  0  0  0  0  0
    8.6216    6.9398   23.0784 C   0  0  0  0  0  0  0  0  0  0  0  0
   14.4905   -0.8733   21.8982 C   0  0  0  0  0  0  0  0  0  0  0  0
   12.1173   -0.5240   23.4261 C   0  0  0  0  0  0  0  0  0  0  0  0
    9.9936    6.9563   23.4256 C   0  0  0  0  0  0  0  0  0  0  0  0
    8.3571    5.6678   22.6267 C   0  0  0  0  0  0  0  0  0  0  0  0
   13.9924    0.4156   22.1535 C   0  0  0  0  0  0  0  0  0  0  0  0
   12.8288    0.5568   22.9043 C   0  0  0  0  0  0  0  0  0  0  0  0
   10.4696    5.6931   23.1615 C   0  0  0  0  0  0  0  0  0  0  0  0
   13.6361    2.5175   22.2730 C   0  0  0  0  0  0  0  0  0  0  0  0
   11.8214    5.0968   23.3171 C   0  0  0  0  0  0  0  0  0  0  0  0
   13.7073    3.9854   22.1489 C   0  0  0  0  0  0  0  0  0  0  0  0
   14.4796    1.6441   21.7703 N   0  0  0  0  0  0  0  0  0  0  0  0
   12.6246    1.9115   22.9648 N   0  0  0  0  0  0  0  0  0  0  0  0
   12.4047    4.6162   22.1568 N   0  0  0  0  0  0  0  0  0  0  0  0
   12.3285    5.0430   24.4344 O   0  0  0  0  0  0  0  0  0  0  0  0
    9.4783    4.9016   22.6742 O   0  0  0  0  0  0  0  0  0  0  0  0
   11.8612    2.3764   23.4384 H   0  0  0  0  0  0  0  0  0  0  0  0
   11.8993    4.6379   21.2781 H   0  0  0  0  0  0  0  0  0  0  0  0
  1  2  1  0  0  0  0
  1  4  2  0  0  0  0
  2  5  2  0  0  0  0
  3  6  1  0  0  0  0
  3  7  2  0  0  0  0
  4  8  1  0  0  0  0
  5  9  1  0  0  0  0
  6 10  2  0  0  0  0
  7 18  1  0  0  0  0
  8  9  2  0  0  0  0
  8 14  1  0  0  0  0
  9 15  1  0  0  0  0
 10 12  1  0  0  0  0
 10 18  1  0  0  0  0
 11 13  1  0  0  0  0
 11 14  2  0  0  0  0
 11 15  1  0  0  0  0
 12 16  1  0  0  0  0
 12 17  2  0  0  0  0
 13 16  1  0  0  0  0
 15 19  1  0  0  0  0
 16 20  1  0  0  0  0
M  END
> <ref_mols>
x0667_0

> <original SMILES>
O=C(NCC1=NC=2C=CC=CC2N1)C3=CC=CO3

> <Chemgauss4>
-9.060922

> <ref_pdb>
x0195_0

$$$$
x2656
  -OEChem-05172015543D

 19 20  0     0  0  0  0  0  0999 V2000
   12.6078    0.3412   24.6613 C   0  0  0  0  0  0  0  0  0  0  0  0
   13.6861   -0.4354   24.2377 C   0  0  0  0  0  0  0  0  0  0  0  0
   11.3113    0.0075   24.2695 C   0  0  0  0  0  0  0  0  0  0  0  0
   12.1717   -1.8797   23.0303 C   0  0  0  0  0  0  0  0  0  0  0  0
   13.4681   -1.5459   23.4222 C   0  0  0  0  0  0  0  0  0  0  0  0
   11.0933   -1.1030   23.4540 C   0  0  0  0  0  0  0  0  0  0  0  0
    6.6508   -5.2887   26.4188 C   0  0  0  0  0  0  0  0  0  0  0  0
    8.0069   -3.1904   26.0193 C   0  0  0  0  0  0  0  0  0  0  0  0
    7.9792   -5.0371   24.3526 C   0  0  0  0  0  0  0  0  0  0  0  0
    9.3308   -2.8539   25.3457 C   0  0  0  0  0  0  0  0  0  0  0  0
    8.2042   -3.9090   23.3555 C   0  0  0  0  0  0  0  0  0  0  0  0
    5.6855   -4.5258   27.2922 C   0  0  0  0  0  0  0  0  0  0  0  0
    7.5189   -4.5213   25.6419 N   0  0  0  0  0  0  0  0  0  0  0  0
    9.2311   -2.9573   23.8623 N   0  0  0  0  0  0  0  0  0  0  0  0
    6.6387   -6.5218   26.4291 O   0  0  0  0  0  0  0  0  0  0  0  0
    8.5599   -0.5069   23.4670 O   0  0  0  0  0  0  0  0  0  0  0  0
    9.4823   -1.8602   21.5524 O   0  0  0  0  0  0  0  0  0  0  0  0
   14.5040   -2.2914   23.0153 F   0  0  0  0  0  0  0  0  0  0  0  0
    9.4524   -1.5269   22.9602 S   0  0  0  0  0  0  0  0  0  0  0  0
  1  2  1  0  0  0  0
  1  3  2  0  0  0  0
  2  5  2  0  0  0  0
  3  6  1  0  0  0  0
  4  5  1  0  0  0  0
  4  6  2  0  0  0  0
  5 18  1  0  0  0  0
  6 19  1  0  0  0  0
  7 12  1  0  0  0  0
  7 13  1  0  0  0  0
  7 15  2  0  0  0  0
  8 10  1  0  0  0  0
  8 13  1  0  0  0  0
  9 11  1  0  0  0  0
  9 13  1  0  0  0  0
 10 14  1  0  0  0  0
 11 14  1  0  0  0  0
 14 19  1  0  0  0  0
 16 19  2  0  0  0  0
 17 19  2  0  0  0  0
M  END
> <ref_mols>
x2656_0

> <original SMILES>
CC(=O)N1CCN(CC1)S(=O)(=O)C=2C=CC=C(F)C2

> <Chemgauss4>
-9.055698

> <ref_pdb>
x0072_0

$$$$
x2488
  -OEChem-05172015543D

 19 20  0     0  0  0  0  0  0999 V2000
   12.6078    0.3412   24.6613 C   0  0  0  0  0  0  0  0  0  0  0  0
   13.6861   -0.4354   24.2377 C   0  0  0  0  0  0  0  0  0  0  0  0
   11.3113    0.0075   24.2695 C   0  0  0  0  0  0  0  0  0  0  0  0
   12.1717   -1.8797   23.0303 C   0  0  0  0  0  0  0  0  0  0  0  0
   13.4681   -1.5459   23.4222 C   0  0  0  0  0  0  0  0  0  0  0  0
   11.0933   -1.1030   23.4540 C   0  0  0  0  0  0  0  0  0  0  0  0
    6.6508   -5.2887   26.4188 C   0  0  0  0  0  0  0  0  0  0  0  0
    8.0069   -3.1904   26.0193 C   0  0  0  0  0  0  0  0  0  0  0  0
    7.9792   -5.0371   24.3526 C   0  0  0  0  0  0  0  0  0  0  0  0
    9.3308   -2.8539   25.3457 C   0  0  0  0  0  0  0  0  0  0  0  0
    8.2042   -3.9090   23.3555 C   0  0  0  0  0  0  0  0  0  0  0  0
    5.6855   -4.5258   27.2922 C   0  0  0  0  0  0  0  0  0  0  0  0
    7.5189   -4.5213   25.6419 N   0  0  0  0  0  0  0  0  0  0  0  0
    9.2311   -2.9573   23.8623 N   0  0  0  0  0  0  0  0  0  0  0  0
    6.6387   -6.5218   26.4291 O   0  0  0  0  0  0  0  0  0  0  0  0
    8.5599   -0.5069   23.4670 O   0  0  0  0  0  0  0  0  0  0  0  0
    9.4823   -1.8602   21.5524 O   0  0  0  0  0  0  0  0  0  0  0  0
   14.5040   -2.2914   23.0153 F   0  0  0  0  0  0  0  0  0  0  0  0
    9.4524   -1.5269   22.9602 S   0  0  0  0  0  0  0  0  0  0  0  0
  1  2  1  0  0  0  0
  1  3  2  0  0  0  0
  2  5  2  0  0  0  0
  3  6  1  0  0  0  0
  4  5  1  0  0  0  0
  4  6  2  0  0  0  0
  5 18  1  0  0  0  0
  6 19  1  0  0  0  0
  7 12  1  0  0  0  0
  7 13  1  0  0  0  0
  7 15  2  0  0  0  0
  8 10  1  0  0  0  0
  8 13  1  0  0  0  0
  9 11  1  0  0  0  0
  9 13  1  0  0  0  0
 10 14  1  0  0  0  0
 11 14  1  0  0  0  0
 14 19  1  0  0  0  0
 16 19  2  0  0  0  0
 17 19  2  0  0  0  0
M  END
> <ref_mols>
x2488_0

> <original SMILES>
CC(=O)N1CCN(CC1)S(=O)(=O)C=2C=CC=C(F)C2

> <Chemgauss4>
-9.055698

> <ref_pdb>
x0072_0

$$$$
x0369
  -OEChem-05172015543D

 19 20  0     0  0  0  0  0  0999 V2000
   13.1365   -2.4006   25.9672 C   0  0  0  0  0  0  0  0  0  0  0  0
   13.5940   -1.1779   25.4760 C   0  0  0  0  0  0  0  0  0  0  0  0
    7.2547   -6.4632   22.1782 C   0  0  0  0  0  0  0  0  0  0  0  0
    8.3107   -6.0695   23.0002 C   0  0  0  0  0  0  0  0  0  0  0  0
   12.0487   -3.0317   25.3637 C   0  0  0  0  0  0  0  0  0  0  0  0
    6.5008   -5.5031   21.5033 C   0  0  0  0  0  0  0  0  0  0  0  0
   12.9636   -0.5861   24.3815 C   0  0  0  0  0  0  0  0  0  0  0  0
    7.8587   -3.7556   22.4724 C   0  0  0  0  0  0  0  0  0  0  0  0
    8.6126   -4.7157   23.1473 C   0  0  0  0  0  0  0  0  0  0  0  0
   11.4183   -2.4399   24.2692 C   0  0  0  0  0  0  0  0  0  0  0  0
    6.8028   -4.1493   21.6504 C   0  0  0  0  0  0  0  0  0  0  0  0
   11.8758   -1.2172   23.7780 C   0  0  0  0  0  0  0  0  0  0  0  0
    9.7138   -4.3047   24.0041 C   0  0  0  0  0  0  0  0  0  0  0  0
    6.4306   -1.8465   21.1876 C   0  0  0  0  0  0  0  0  0  0  0  0
   10.3131   -3.0838   23.6577 N   0  0  0  0  0  0  0  0  0  0  0  0
   10.1045   -5.0091   24.9452 O   0  0  0  0  0  0  0  0  0  0  0  0
    6.0674   -3.2123   20.9920 O   0  0  0  0  0  0  0  0  0  0  0  0
   11.2778   -0.6389   22.7264 F   0  0  0  0  0  0  0  0  0  0  0  0
    9.9010   -2.5978   22.8651 H   0  0  0  0  0  0  0  0  0  0  0  0
  1  2  1  0  0  0  0
  1  5  2  0  0  0  0
  2  7  2  0  0  0  0
  3  4  1  0  0  0  0
  3  6  2  0  0  0  0
  4  9  2  0  0  0  0
  5 10  1  0  0  0  0
  6 11  1  0  0  0  0
  7 12  1  0  0  0  0
  8  9  1  0  0  0  0
  8 11  2  0  0  0  0
  9 13  1  0  0  0  0
 10 12  2  0  0  0  0
 10 15  1  0  0  0  0
 11 17  1  0  0  0  0
 12 18  1  0  0  0  0
 13 15  1  0  0  0  0
 13 16  2  0  0  0  0
 14 17  1  0  0  0  0
 15 19  1  0  0  0  0
M  END
> <ref_mols>
x0369_0

> <original SMILES>
COC=1C=CC=C(C1)C(=O)NC=2C=CC=CC2F

> <Chemgauss4>
-9.054951

> <ref_pdb>
x0749_0

$$$$
x0456
  -OEChem-05172015543D

 16 17  0     0  0  0  0  0  0999 V2000
    7.0234   -0.1424   20.7967 C   0  0  0  0  0  0  0  0  0  0  0  0
    6.2933    0.6217   19.8932 C   0  0  0  0  0  0  0  0  0  0  0  0
    8.4979   -0.7326   19.0264 C   0  0  0  0  0  0  0  0  0  0  0  0
    8.1480   -0.8356   20.3631 C   0  0  0  0  0  0  0  0  0  0  0  0
    6.7263    0.6596   18.5775 C   0  0  0  0  0  0  0  0  0  0  0  0
   10.9150   -0.7885   22.5681 C   0  0  0  0  0  0  0  0  0  0  0  0
   13.7727   -1.9676   22.7153 C   0  0  0  0  0  0  0  0  0  0  0  0
   13.3635   -0.7422   23.5526 C   0  0  0  0  0  0  0  0  0  0  0  0
   13.2786   -1.2057   21.4722 C   0  0  0  0  0  0  0  0  0  0  0  0
   12.3818   -0.3616   22.4143 C   0  0  0  0  0  0  0  0  0  0  0  0
    5.9670    1.4700   17.5808 C   0  0  0  0  0  0  0  0  0  0  0  0
    8.9572   -1.6696   21.3138 C   0  0  0  0  0  0  0  0  0  0  0  0
    7.8136   -0.0003   18.1192 N   0  0  0  0  0  0  0  0  0  0  0  0
   10.3289   -1.2210   21.3939 N   0  0  0  0  0  0  0  0  0  0  0  0
   10.3793   -0.7246   23.6684 O   0  0  0  0  0  0  0  0  0  0  0  0
   10.8887   -1.2238   20.5465 H   0  0  0  0  0  0  0  0  0  0  0  0
  1  2  2  0  0  0  0
  1  4  1  0  0  0  0
  2  5  1  0  0  0  0
  3  4  2  0  0  0  0
  3 13  1  0  0  0  0
  4 12  1  0  0  0  0
  5 11  1  0  0  0  0
  5 13  2  0  0  0  0
  6 10  1  0  0  0  0
  6 14  1  0  0  0  0
  6 15  2  0  0  0  0
  7  8  1  0  0  0  0
  7  9  1  0  0  0  0
  8 10  1  0  0  0  0
  9 10  1  0  0  0  0
 12 14  1  0  0  0  0
 14 16  1  0  0  0  0
M  END
> <ref_mols>
x0456_0

> <original SMILES>
CC=1C=CC(CNC(=O)C2CCC2)=CN1

> <Chemgauss4>
-9.050803

> <ref_pdb>
x0678_0

$$$$
x0584
  -OEChem-05172015543D

 16 16  0     0  0  0  0  0  0999 V2000
   12.8297   -2.0494   23.0280 C   0  0  0  0  0  0  0  0  0  0  0  0
   12.2717    0.2480   22.5865 C   0  0  0  0  0  0  0  0  0  0  0  0
   14.1465   -1.6448   23.1766 C   0  0  0  0  0  0  0  0  0  0  0  0
   11.8805   -1.0788   22.7274 C   0  0  0  0  0  0  0  0  0  0  0  0
   13.6134    0.5499   22.7551 C   0  0  0  0  0  0  0  0  0  0  0  0
   13.1876    2.9917   22.3129 C   0  0  0  0  0  0  0  0  0  0  0  0
   10.4494   -1.4599   22.5569 C   0  0  0  0  0  0  0  0  0  0  0  0
   12.6711    5.4240   24.0177 C   0  0  0  0  0  0  0  0  0  0  0  0
   14.0053    4.2621   22.2546 C   0  0  0  0  0  0  0  0  0  0  0  0
   14.5643   -0.3656   23.0474 N   0  0  0  0  0  0  0  0  0  0  0  0
   14.0018    1.9030   22.6099 N   0  0  0  0  0  0  0  0  0  0  0  0
   13.1959    5.4480   22.6248 N   0  3  0  0  0  0  0  0  0  0  0  0
   11.9764    2.9887   22.1196 O   0  0  0  0  0  0  0  0  0  0  0  0
   14.9943    2.0872   22.7408 H   0  0  0  0  0  0  0  0  0  0  0  0
   12.4043    5.5383   21.9711 H   0  0  0  0  0  0  0  0  0  0  0  0
   13.7604    6.3005   22.4953 H   0  0  0  0  0  0  0  0  0  0  0  0
  1  3  2  0  0  0  0
  1  4  1  0  0  0  0
  2  4  2  0  0  0  0
  2  5  1  0  0  0  0
  3 10  1  0  0  0  0
  4  7  1  0  0  0  0
  5 10  2  0  0  0  0
  5 11  1  0  0  0  0
  6  9  1  0  0  0  0
  6 11  1  0  0  0  0
  6 13  2  0  0  0  0
  8 12  1  0  0  0  0
  9 12  1  0  0  0  0
 11 14  1  0  0  0  0
 12 15  1  0  0  0  0
 12 16  1  0  0  0  0
M  CHG  1  12   1
M  END
> <ref_mols>
x0584_0

> <original SMILES>
CNCC(=O)NC=1C=C(C)C=CN1

> <Chemgauss4>
-9.047160

> <ref_pdb>
x0195_0

$$$$
x0488
  -OEChem-05172015543D

 20 21  0     0  0  0  0  0  0999 V2000
   14.3575   -1.0436   22.9295 C   0  0  0  0  0  0  0  0  0  0  0  0
   14.1683    0.3270   23.1057 C   0  0  0  0  0  0  0  0  0  0  0  0
   13.2562   -1.8854   22.7736 C   0  0  0  0  0  0  0  0  0  0  0  0
    9.6030    5.4101   25.5260 C   0  0  0  0  0  0  0  0  0  0  0  0
   10.0978    4.1368   25.2442 C   0  0  0  0  0  0  0  0  0  0  0  0
   11.7765    0.0142   22.9704 C   0  0  0  0  0  0  0  0  0  0  0  0
   10.8329    6.3038   23.6484 C   0  0  0  0  0  0  0  0  0  0  0  0
   12.8778    0.8560   23.1262 C   0  0  0  0  0  0  0  0  0  0  0  0
   11.9657   -1.3564   22.7941 C   0  0  0  0  0  0  0  0  0  0  0  0
    9.9705    6.4936   24.7281 C   0  0  0  0  0  0  0  0  0  0  0  0
   10.9602    3.9470   24.1645 C   0  0  0  0  0  0  0  0  0  0  0  0
   11.3278    5.0305   23.3665 C   0  0  0  0  0  0  0  0  0  0  0  0
   12.6810    2.2852   23.3093 C   0  0  0  0  0  0  0  0  0  0  0  0
   10.7880   -2.2565   22.6276 C   0  0  0  0  0  0  0  0  0  0  0  0
    9.4412    7.8548   25.0298 C   0  0  0  0  0  0  0  0  0  0  0  0
   11.4566    2.6472   23.8922 N   0  0  0  0  0  0  0  0  0  0  0  0
   13.5269    3.1117   22.9403 O   0  0  0  0  0  0  0  0  0  0  0  0
   12.1698    4.8665   22.3071 O   0  0  0  0  0  0  0  0  0  0  0  0
   10.8460    1.8769   24.1531 H   0  0  0  0  0  0  0  0  0  0  0  0
   12.3194    5.7163   21.8644 H   0  0  0  0  0  0  0  0  0  0  0  0
  1  2  1  0  0  0  0
  1  3  2  0  0  0  0
  2  8  2  0  0  0  0
  3  9  1  0  0  0  0
  4  5  2  0  0  0  0
  4 10  1  0  0  0  0
  5 11  1  0  0  0  0
  6  8  1  0  0  0  0
  6  9  2  0  0  0  0
  7 10  2  0  0  0  0
  7 12  1  0  0  0  0
  8 13  1  0  0  0  0
  9 14  1  0  0  0  0
 10 15  1  0  0  0  0
 11 12  2  0  0  0  0
 11 16  1  0  0  0  0
 12 18  1  0  0  0  0
 13 16  1  0  0  0  0
 13 17  2  0  0  0  0
 16 19  1  0  0  0  0
 18 20  1  0  0  0  0
M  END
> <ref_mols>
x0488_0

> <original SMILES>
CC=1C=CC=C(C1)C(=O)NC=2C=CC(C)=CC2O

> <Chemgauss4>
-9.044549

> <ref_pdb>
x0195_0

$$$$
x0352
  -OEChem-05172015543D

 19 20  0     0  0  0  0  0  0999 V2000
    4.0164    2.3310   20.1610 C   0  0  0  0  0  0  0  0  0  0  0  0
    4.8634    1.8193   19.1779 C   0  0  0  0  0  0  0  0  0  0  0  0
    4.0074    1.7666   21.4366 C   0  0  0  0  0  0  0  0  0  0  0  0
   12.3419    0.9019   23.3905 C   0  0  0  0  0  0  0  0  0  0  0  0
   11.1965    0.5734   22.6655 C   0  0  0  0  0  0  0  0  0  0  0  0
    5.7012    0.7431   19.4704 C   0  0  0  0  0  0  0  0  0  0  0  0
    4.8452    0.6904   21.7290 C   0  0  0  0  0  0  0  0  0  0  0  0
   13.2992   -0.0755   23.6629 C   0  0  0  0  0  0  0  0  0  0  0  0
   11.9655   -1.7099   22.4854 C   0  0  0  0  0  0  0  0  0  0  0  0
   11.0083   -0.7325   22.2129 C   0  0  0  0  0  0  0  0  0  0  0  0
    5.6921    0.1787   20.7459 C   0  0  0  0  0  0  0  0  0  0  0  0
   13.1109   -1.3814   23.2104 C   0  0  0  0  0  0  0  0  0  0  0  0
    8.8017   -0.2233   21.1189 C   0  0  0  0  0  0  0  0  0  0  0  0
    7.7392   -0.9585   20.3311 C   0  0  0  0  0  0  0  0  0  0  0  0
    9.8628   -1.0610   21.4872 N   0  0  0  0  0  0  0  0  0  0  0  0
    8.6744    0.9707   21.3726 O   0  0  0  0  0  0  0  0  0  0  0  0
    6.5163   -0.8829   21.0341 O   0  0  0  0  0  0  0  0  0  0  0  0
   14.0307   -2.3194   23.4723 F   0  0  0  0  0  0  0  0  0  0  0  0
    9.7880   -2.0392   21.1851 H   0  0  0  0  0  0  0  0  0  0  0  0
  1  2  1  0  0  0  0
  1  3  2  0  0  0  0
  2  6  2  0  0  0  0
  3  7  1  0  0  0  0
  4  5  1  0  0  0  0
  4  8  2  0  0  0  0
  5 10  2  0  0  0  0
  6 11  1  0  0  0  0
  7 11  2  0  0  0  0
  8 12  1  0  0  0  0
  9 10  1  0  0  0  0
  9 12  2  0  0  0  0
 10 15  1  0  0  0  0
 11 17  1  0  0  0  0
 12 18  1  0  0  0  0
 13 14  1  0  0  0  0
 13 15  1  0  0  0  0
 13 16  2  0  0  0  0
 14 17  1  0  0  0  0
 15 19  1  0  0  0  0
M  END
> <ref_mols>
x0352_0

> <original SMILES>
FC=1C=CC=C(NC(=O)COC=2C=CC=CC2)C1

> <Chemgauss4>
-9.040609

> <ref_pdb>
x1093_0

$$$$
x0460
  -OEChem-05172015543D

 18 19  0     0  0  0  0  0  0999 V2000
   13.8212   -0.6892   22.9796 C   0  0  0  0  0  0  0  0  0  0  0  0
   12.9826   -1.7935   22.8287 C   0  0  0  0  0  0  0  0  0  0  0  0
   13.2756    0.5782   23.1841 C   0  0  0  0  0  0  0  0  0  0  0  0
   11.5983   -1.6305   22.8821 C   0  0  0  0  0  0  0  0  0  0  0  0
   11.8914    0.7412   23.2375 C   0  0  0  0  0  0  0  0  0  0  0  0
   11.0527   -0.3631   23.0866 C   0  0  0  0  0  0  0  0  0  0  0  0
    8.0712   -0.3511   21.3608 C   0  0  0  0  0  0  0  0  0  0  0  0
    4.9889    1.5364   18.2045 C   0  0  0  0  0  0  0  0  0  0  0  0
    4.3908    1.4692   19.6069 C   0  0  0  0  0  0  0  0  0  0  0  0
    5.5038    0.1750   17.7459 C   0  0  0  0  0  0  0  0  0  0  0  0
    5.3759    0.8744   20.6118 C   0  0  0  0  0  0  0  0  0  0  0  0
    6.4907   -0.4209   18.7485 C   0  0  0  0  0  0  0  0  0  0  0  0
    5.8817   -0.4977   20.1528 C   0  0  0  0  0  0  0  0  0  0  0  0
    8.9042   -1.0985   22.3802 C   0  0  0  0  0  0  0  0  0  0  0  0
    6.8754   -1.0025   21.0983 N   0  0  0  0  0  0  0  0  0  0  0  0
    8.4379    0.7026   20.8476 O   0  0  0  0  0  0  0  0  0  0  0  0
    9.6882   -0.2016   23.1377 O   0  0  0  0  0  0  0  0  0  0  0  0
    6.6808   -1.8723   21.5866 H   0  0  0  0  0  0  0  0  0  0  0  0
  1  2  1  0  0  0  0
  1  3  2  0  0  0  0
  2  4  2  0  0  0  0
  3  5  1  0  0  0  0
  4  6  1  0  0  0  0
  5  6  2  0  0  0  0
  6 17  1  0  0  0  0
  7 14  1  0  0  0  0
  7 15  1  0  0  0  0
  7 16  2  0  0  0  0
  8  9  1  0  0  0  0
  8 10  1  0  0  0  0
  9 11  1  0  0  0  0
 10 12  1  0  0  0  0
 11 13  1  0  0  0  0
 12 13  1  0  0  0  0
 13 15  1  0  0  0  0
 14 17  1  0  0  0  0
 15 18  1  0  0  0  0
M  END
> <ref_mols>
x0460_0

> <original SMILES>
O=C(COC=1C=CC=CC1)NC2CCCCC2

> <Chemgauss4>
-9.040543

> <ref_pdb>
x1093_0

$$$$
x0427
  -OEChem-05172015543D

 20 21  0     0  0  0  0  0  0999 V2000
   13.3129   -0.3645   24.3460 C   0  0  0  0  0  0  0  0  0  0  0  0
   13.5361   -1.5236   23.6029 C   0  0  0  0  0  0  0  0  0  0  0  0
   12.0839    0.2903   24.2647 C   0  0  0  0  0  0  0  0  0  0  0  0
   12.5304   -2.0279   22.7783 C   0  0  0  0  0  0  0  0  0  0  0  0
   11.0782   -0.2140   23.4402 C   0  0  0  0  0  0  0  0  0  0  0  0
    6.7514   -5.2708   24.6001 C   0  0  0  0  0  0  0  0  0  0  0  0
    8.4122   -4.1513   25.9511 C   0  0  0  0  0  0  0  0  0  0  0  0
    6.4249   -6.0904   25.6805 C   0  0  0  0  0  0  0  0  0  0  0  0
    8.0857   -4.9708   27.0316 C   0  0  0  0  0  0  0  0  0  0  0  0
   11.3014   -1.3731   22.6969 C   0  0  0  0  0  0  0  0  0  0  0  0
    7.7451   -4.3013   24.7354 C   0  0  0  0  0  0  0  0  0  0  0  0
    7.0921   -5.9404   26.8963 C   0  0  0  0  0  0  0  0  0  0  0  0
    8.5676   -2.1823   23.7024 C   0  0  0  0  0  0  0  0  0  0  0  0
   10.2257   -1.9116   21.8152 C   0  0  0  0  0  0  0  0  0  0  0  0
    8.8028   -1.6118   22.3123 C   0  0  0  0  0  0  0  0  0  0  0  0
    8.0727   -3.4789   23.6513 N   0  0  0  0  0  0  0  0  0  0  0  0
    8.8391   -1.5180   24.6985 O   0  0  0  0  0  0  0  0  0  0  0  0
    6.7736   -6.7401   27.9506 O   0  0  0  0  0  0  0  0  0  0  0  0
    7.9414   -3.9022   22.7355 H   0  0  0  0  0  0  0  0  0  0  0  0
    6.0691   -7.3596   27.7021 H   0  0  0  0  0  0  0  0  0  0  0  0
  1  2  1  0  0  0  0
  1  3  2  0  0  0  0
  2  4  2  0  0  0  0
  3  5  1  0  0  0  0
  4 10  1  0  0  0  0
  5 10  2  0  0  0  0
  6  8  2  0  0  0  0
  6 11  1  0  0  0  0
  7  9  1  0  0  0  0
  7 11  2  0  0  0  0
  8 12  1  0  0  0  0
  9 12  2  0  0  0  0
 10 14  1  0  0  0  0
 11 16  1  0  0  0  0
 12 18  1  0  0  0  0
 13 15  1  0  0  0  0
 13 16  1  0  0  0  0
 13 17  2  0  0  0  0
 14 15  1  0  0  0  0
 16 19  1  0  0  0  0
 18 20  1  0  0  0  0
M  END
> <ref_mols>
x0427_0

> <original SMILES>
OC=1C=CC(NC(=O)CCC=2C=CC=CC2)=CC1

> <Chemgauss4>
-9.039534

> <ref_pdb>
x0072_0

$$$$
x0059
  -OEChem-05172015543D

 20 22  0     0  0  0  0  0  0999 V2000
    8.3769    8.1073   23.7429 C   0  0  0  0  0  0  0  0  0  0  0  0
    9.3125    8.0836   24.7771 C   0  0  0  0  0  0  0  0  0  0  0  0
    8.4506    7.1682   22.7141 C   0  0  0  0  0  0  0  0  0  0  0  0
   12.3214   -1.9882   22.4678 C   0  0  0  0  0  0  0  0  0  0  0  0
   11.5214   -0.8623   22.6000 C   0  0  0  0  0  0  0  0  0  0  0  0
   10.3219    7.1209   24.7826 C   0  0  0  0  0  0  0  0  0  0  0  0
    9.4600    6.2055   22.7195 C   0  0  0  0  0  0  0  0  0  0  0  0
   14.0900    1.7579   22.7990 C   0  0  0  0  0  0  0  0  0  0  0  0
   13.3125    2.9108   22.9335 C   0  0  0  0  0  0  0  0  0  0  0  0
   11.3218    1.5667   22.8479 C   0  0  0  0  0  0  0  0  0  0  0  0
   13.6887   -1.8012   22.4531 C   0  0  0  0  0  0  0  0  0  0  0  0
   12.1041    0.4072   22.7127 C   0  0  0  0  0  0  0  0  0  0  0  0
   10.3956    6.1819   23.7537 C   0  0  0  0  0  0  0  0  0  0  0  0
   13.5117    0.4964   22.6872 C   0  0  0  0  0  0  0  0  0  0  0  0
   11.9266    2.8155   22.9580 C   0  0  0  0  0  0  0  0  0  0  0  0
   11.4616    5.1653   23.7595 C   0  0  0  0  0  0  0  0  0  0  0  0
   14.2906   -0.5944   22.5590 N   0  0  0  0  0  0  0  0  0  0  0  0
   11.1466    3.9640   23.0922 N   0  0  0  0  0  0  0  0  0  0  0  0
   12.5248    5.3669   24.3424 O   0  0  0  0  0  0  0  0  0  0  0  0
   10.2223    3.9301   22.6468 H   0  0  0  0  0  0  0  0  0  0  0  0
  1  2  1  0  0  0  0
  1  3  2  0  0  0  0
  2  6  2  0  0  0  0
  3  7  1  0  0  0  0
  4  5  2  0  0  0  0
  4 11  1  0  0  0  0
  5 12  1  0  0  0  0
  6 13  1  0  0  0  0
  7 13  2  0  0  0  0
  8  9  2  0  0  0  0
  8 14  1  0  0  0  0
  9 15  1  0  0  0  0
 10 12  1  0  0  0  0
 10 15  2  0  0  0  0
 11 17  2  0  0  0  0
 12 14  2  0  0  0  0
 13 16  1  0  0  0  0
 14 17  1  0  0  0  0
 15 18  1  0  0  0  0
 16 18  1  0  0  0  0
 16 19  2  0  0  0  0
 18 20  1  0  0  0  0
M  END
> <ref_mols>
x0059_0

> <original SMILES>
O=C(NC=1C=CC=2N=CC=CC2C1)C=3C=CC=CC3

> <Chemgauss4>
-9.035738

> <ref_pdb>
x0195_0

$$$$
x0425
  -OEChem-05172015543D

 15 17  0     1  0  0  0  0  0999 V2000
    6.9760    0.7505   18.8158 C   0  0  0  0  0  0  0  0  0  0  0  0
    6.7749    0.8307   20.1761 C   0  0  0  0  0  0  0  0  0  0  0  0
    8.8876   -0.4538   19.1692 C   0  0  0  0  0  0  0  0  0  0  0  0
    8.6870   -0.3731   20.5296 C   0  0  0  0  0  0  0  0  0  0  0  0
   10.6400   -2.5603   22.7637 C   0  0  0  0  0  0  0  0  0  0  0  0
   13.0299   -1.6383   22.6236 C   0  0  0  0  0  0  0  0  0  0  0  0
    9.2785   -2.0368   22.3092 C   0  0  0  0  0  0  0  0  0  0  0  0
   11.0303   -0.6365   21.3938 C   0  0  0  0  0  0  0  0  0  0  0  0
   13.6411   -0.3150   23.0370 C   0  0  0  0  0  0  0  0  0  0  0  0
   11.4717   -0.4200   23.8867 C   0  0  0  0  0  0  0  0  0  0  0  0
   11.5466   -1.3381   22.6673 C   0  0  1  0  0  0  0  0  0  0  0  0
    8.0359    0.1068   18.2878 N   0  0  0  0  0  0  0  0  0  0  0  0
    7.6269    0.2704   21.0575 N   0  0  0  0  0  0  0  0  0  0  0  0
    9.6066   -0.9741   21.3629 N   0  0  3  0  0  0  0  0  0  0  0  0
   12.7017    0.3232   23.9138 O   0  0  0  0  0  0  0  0  0  0  0  0
  1  2  2  0  0  0  0
  1 12  1  0  0  0  0
  2 13  1  0  0  0  0
  3  4  1  0  0  0  0
  3 12  2  0  0  0  0
  4 13  2  0  0  0  0
  4 14  1  0  0  0  0
  5  7  1  0  0  0  0
  5 11  1  0  0  0  0
  6  9  1  0  0  0  0
  6 11  1  0  0  0  0
  7 14  1  0  0  0  0
  8 11  1  0  0  0  0
  8 14  1  0  0  0  0
  9 15  1  0  0  0  0
 10 11  1  0  0  0  0
 10 15  1  0  0  0  0
M  END
> <ref_mols>
x0425_0

> <original SMILES>
C1CC2(CCN(C2)C=3C=NC=CN3)CO1

> <Chemgauss4>
-9.026854

> <ref_pdb>
x0678_0

$$$$
x1123
  -OEChem-05172015543D

 15 17  0     1  0  0  0  0  0999 V2000
    6.9760    0.7505   18.8158 C   0  0  0  0  0  0  0  0  0  0  0  0
    6.7749    0.8307   20.1761 C   0  0  0  0  0  0  0  0  0  0  0  0
    8.8876   -0.4538   19.1692 C   0  0  0  0  0  0  0  0  0  0  0  0
    8.6870   -0.3731   20.5296 C   0  0  0  0  0  0  0  0  0  0  0  0
   10.6400   -2.5603   22.7637 C   0  0  0  0  0  0  0  0  0  0  0  0
   13.0299   -1.6383   22.6236 C   0  0  0  0  0  0  0  0  0  0  0  0
    9.2785   -2.0368   22.3092 C   0  0  0  0  0  0  0  0  0  0  0  0
   11.0303   -0.6365   21.3938 C   0  0  0  0  0  0  0  0  0  0  0  0
   13.6411   -0.3150   23.0370 C   0  0  0  0  0  0  0  0  0  0  0  0
   11.4717   -0.4200   23.8867 C   0  0  0  0  0  0  0  0  0  0  0  0
   11.5466   -1.3381   22.6673 C   0  0  1  0  0  0  0  0  0  0  0  0
    8.0359    0.1068   18.2878 N   0  0  0  0  0  0  0  0  0  0  0  0
    7.6269    0.2704   21.0575 N   0  0  0  0  0  0  0  0  0  0  0  0
    9.6066   -0.9741   21.3629 N   0  0  3  0  0  0  0  0  0  0  0  0
   12.7017    0.3232   23.9138 O   0  0  0  0  0  0  0  0  0  0  0  0
  1  2  2  0  0  0  0
  1 12  1  0  0  0  0
  2 13  1  0  0  0  0
  3  4  1  0  0  0  0
  3 12  2  0  0  0  0
  4 13  2  0  0  0  0
  4 14  1  0  0  0  0
  5  7  1  0  0  0  0
  5 11  1  0  0  0  0
  6  9  1  0  0  0  0
  6 11  1  0  0  0  0
  7 14  1  0  0  0  0
  8 11  1  0  0  0  0
  8 14  1  0  0  0  0
  9 15  1  0  0  0  0
 10 11  1  0  0  0  0
 10 15  1  0  0  0  0
M  END
> <ref_mols>
x1123_0

> <original SMILES>
C1CC2(CCN(C2)C=3C=NC=CN3)CO1

> <Chemgauss4>
-9.026854

> <ref_pdb>
x0678_0

$$$$
x0499
  -OEChem-05172015543D

 20 21  0     1  0  0  0  0  0999 V2000
    8.5822   -5.4219   23.5152 C   0  0  0  0  0  0  0  0  0  0  0  0
    8.1636   -3.6806   21.8935 C   0  0  0  0  0  0  0  0  0  0  0  0
    9.6506   -4.6868   24.0288 C   0  0  0  0  0  0  0  0  0  0  0  0
    9.2320   -2.9455   22.4072 C   0  0  0  0  0  0  0  0  0  0  0  0
    7.8388   -4.9189   22.4475 C   0  0  0  0  0  0  0  0  0  0  0  0
    9.9755   -3.4486   23.4748 C   0  0  0  0  0  0  0  0  0  0  0  0
    6.7250   -5.6854   21.9119 C   0  0  0  0  0  0  0  0  0  0  0  0
   11.8977   -3.0538   25.0475 C   0  0  0  0  0  0  0  0  0  0  0  0
   11.8466    0.1058   25.2276 C   0  0  0  0  0  0  0  0  0  0  0  0
   12.4158   -0.8932   26.2063 C   0  0  0  0  0  0  0  0  0  0  0  0
   12.7926   -0.0286   24.0558 C   0  0  0  0  0  0  0  0  0  0  0  0
   12.9247   -1.9935   25.2945 C   0  0  2  0  0  0  0  0  0  0  0  0
    6.4424   -6.9147   22.5003 N   0  0  0  0  0  0  0  0  0  0  0  0
   11.0594   -2.7035   23.9968 N   0  0  0  0  0  0  0  0  0  0  0  0
    6.0549   -5.2697   20.9503 O   0  0  0  0  0  0  0  0  0  0  0  0
   11.8712   -4.0735   25.7291 O   0  0  0  0  0  0  0  0  0  0  0  0
   13.2074   -1.4009   24.0238 O   0  0  0  0  0  0  0  0  0  0  0  0
    7.0128   -7.2366   23.2747 H   0  0  0  0  0  0  0  0  0  0  0  0
    5.6782   -7.4961   22.1716 H   0  0  0  0  0  0  0  0  0  0  0  0
   11.2345   -1.8107   23.5404 H   0  0  0  0  0  0  0  0  0  0  0  0
  1  3  2  0  0  0  0
  1  5  1  0  0  0  0
  2  4  1  0  0  0  0
  2  5  2  0  0  0  0
  3  6  1  0  0  0  0
  4  6  2  0  0  0  0
  5  7  1  0  0  0  0
  6 14  1  0  0  0  0
  7 13  1  0  0  0  0
  7 15  2  0  0  0  0
  8 12  1  0  0  0  0
  8 14  1  0  0  0  0
  8 16  2  0  0  0  0
  9 10  1  0  0  0  0
  9 11  1  0  0  0  0
 10 12  1  0  0  0  0
 11 17  1  0  0  0  0
 12 17  1  0  0  0  0
 13 18  1  0  0  0  0
 13 19  1  0  0  0  0
 14 20  1  0  0  0  0
M  END
> <ref_mols>
x0499_0

> <original SMILES>
NC(=O)C=1C=CC(NC(=O)[C@@H]2CCCO2)=CC1

> <Chemgauss4>
-9.014398

> <ref_pdb>
x0749_0

$$$$
x1136
  -OEChem-05172015543D

 20 21  0     1  0  0  0  0  0999 V2000
    8.5822   -5.4219   23.5152 C   0  0  0  0  0  0  0  0  0  0  0  0
    8.1636   -3.6806   21.8935 C   0  0  0  0  0  0  0  0  0  0  0  0
    9.6506   -4.6868   24.0288 C   0  0  0  0  0  0  0  0  0  0  0  0
    9.2320   -2.9455   22.4072 C   0  0  0  0  0  0  0  0  0  0  0  0
    7.8388   -4.9189   22.4475 C   0  0  0  0  0  0  0  0  0  0  0  0
    9.9755   -3.4486   23.4748 C   0  0  0  0  0  0  0  0  0  0  0  0
    6.7250   -5.6854   21.9119 C   0  0  0  0  0  0  0  0  0  0  0  0
   11.8977   -3.0538   25.0475 C   0  0  0  0  0  0  0  0  0  0  0  0
   11.8466    0.1058   25.2276 C   0  0  0  0  0  0  0  0  0  0  0  0
   12.4158   -0.8932   26.2063 C   0  0  0  0  0  0  0  0  0  0  0  0
   12.7926   -0.0286   24.0558 C   0  0  0  0  0  0  0  0  0  0  0  0
   12.9247   -1.9935   25.2945 C   0  0  2  0  0  0  0  0  0  0  0  0
    6.4424   -6.9147   22.5003 N   0  0  0  0  0  0  0  0  0  0  0  0
   11.0594   -2.7035   23.9968 N   0  0  0  0  0  0  0  0  0  0  0  0
    6.0549   -5.2697   20.9503 O   0  0  0  0  0  0  0  0  0  0  0  0
   11.8712   -4.0735   25.7291 O   0  0  0  0  0  0  0  0  0  0  0  0
   13.2074   -1.4009   24.0238 O   0  0  0  0  0  0  0  0  0  0  0  0
    7.0128   -7.2366   23.2747 H   0  0  0  0  0  0  0  0  0  0  0  0
    5.6782   -7.4961   22.1716 H   0  0  0  0  0  0  0  0  0  0  0  0
   11.2345   -1.8107   23.5404 H   0  0  0  0  0  0  0  0  0  0  0  0
  1  3  2  0  0  0  0
  1  5  1  0  0  0  0
  2  4  1  0  0  0  0
  2  5  2  0  0  0  0
  3  6  1  0  0  0  0
  4  6  2  0  0  0  0
  5  7  1  0  0  0  0
  6 14  1  0  0  0  0
  7 13  1  0  0  0  0
  7 15  2  0  0  0  0
  8 12  1  0  0  0  0
  8 14  1  0  0  0  0
  8 16  2  0  0  0  0
  9 10  1  0  0  0  0
  9 11  1  0  0  0  0
 10 12  1  0  0  0  0
 11 17  1  0  0  0  0
 12 17  1  0  0  0  0
 13 18  1  0  0  0  0
 13 19  1  0  0  0  0
 14 20  1  0  0  0  0
M  END
> <ref_mols>
x1136_0

> <original SMILES>
NC(=O)C=1C=CC(NC(=O)[C@@H]2CCCO2)=CC1

> <Chemgauss4>
-9.014398

> <ref_pdb>
x0749_0

$$$$
x2586
  -OEChem-05172015543D

 27 29  0     0  0  0  0  0  0999 V2000
    7.0538   -0.0693   20.9896 C   0  0  0  0  0  0  0  0  0  0  0  0
    7.3285    0.1541   22.3388 C   0  0  0  0  0  0  0  0  0  0  0  0
    7.5225   -1.2248   20.3644 C   0  0  0  0  0  0  0  0  0  0  0  0
   14.4186   -0.7376   22.3000 C   0  0  0  0  0  0  0  0  0  0  0  0
   12.5396    7.2923   26.1358 C   0  0  0  0  0  0  0  0  0  0  0  0
    8.0719   -0.7779   23.0628 C   0  0  0  0  0  0  0  0  0  0  0  0
    8.2660   -2.1568   21.0884 C   0  0  0  0  0  0  0  0  0  0  0  0
   13.0467    6.4441   25.1576 C   0  0  0  0  0  0  0  0  0  0  0  0
   14.4330    0.6571   22.3047 C   0  0  0  0  0  0  0  0  0  0  0  0
   13.3064   -1.4253   22.7857 C   0  0  0  0  0  0  0  0  0  0  0  0
   12.2231    0.6766   23.2810 C   0  0  0  0  0  0  0  0  0  0  0  0
   11.2102    7.6708   26.0404 C   0  0  0  0  0  0  0  0  0  0  0  0
    8.5407   -1.9334   22.4376 C   0  0  0  0  0  0  0  0  0  0  0  0
   12.2205    6.0065   24.1285 C   0  0  0  0  0  0  0  0  0  0  0  0
   13.3352    1.3643   22.7952 C   0  0  0  0  0  0  0  0  0  0  0  0
   12.2087   -0.7182   23.2762 C   0  0  0  0  0  0  0  0  0  0  0  0
   10.9052    6.4423   24.1230 C   0  0  0  0  0  0  0  0  0  0  0  0
   12.3494    3.6375   23.2484 C   0  0  0  0  0  0  0  0  0  0  0  0
   12.7743    5.0869   23.0719 C   0  0  0  0  0  0  0  0  0  0  0  0
    9.3360   -2.9303   23.2111 C   0  0  0  0  0  0  0  0  0  0  0  0
   10.8417   -2.6614   23.1710 C   0  0  0  0  0  0  0  0  0  0  0  0
   10.3769    7.2662   25.0557 N   0  0  0  0  0  0  0  0  0  0  0  0
   13.3500    2.7595   22.7995 N   0  0  0  0  0  0  0  0  0  0  0  0
   11.2624    3.3264   23.7244 O   0  0  0  0  0  0  0  0  0  0  0  0
   11.1162   -1.3936   23.7536 O   0  0  0  0  0  0  0  0  0  0  0  0
    9.7873    5.9729   22.9029 Cl  0  0  0  0  0  0  0  0  0  0  0  0
   14.1994    3.2001   22.4276 H   0  0  0  0  0  0  0  0  0  0  0  0
  1  2  1  0  0  0  0
  1  3  2  0  0  0  0
  2  6  2  0  0  0  0
  3  7  1  0  0  0  0
  4  9  2  0  0  0  0
  4 10  1  0  0  0  0
  5  8  2  0  0  0  0
  5 12  1  0  0  0  0
  6 13  1  0  0  0  0
  7 13  2  0  0  0  0
  8 14  1  0  0  0  0
  9 15  1  0  0  0  0
 10 16  2  0  0  0  0
 11 15  2  0  0  0  0
 11 16  1  0  0  0  0
 12 22  2  0  0  0  0
 13 20  1  0  0  0  0
 14 17  2  0  0  0  0
 14 19  1  0  0  0  0
 15 23  1  0  0  0  0
 16 25  1  0  0  0  0
 17 22  1  0  0  0  0
 17 26  1  0  0  0  0
 18 19  1  0  0  0  0
 18 23  1  0  0  0  0
 18 24  2  0  0  0  0
 20 21  1  0  0  0  0
 21 25  1  0  0  0  0
 23 27  1  0  0  0  0
M  END
> <ref_mols>
x2586_0

> <original SMILES>
ClC=1N=CC=CC1CC(=O)NC=2C=CC=C(OCCC=3C=CC=CC3)C2

> <Chemgauss4>
-9.012136

> <ref_pdb>
x0195_0

$$$$
x2583
  -OEChem-05172015543D

 20 21  0     0  0  0  0  0  0999 V2000
   12.9961   -0.1516   24.5371 C   0  0  0  0  0  0  0  0  0  0  0  0
   12.9914   -1.1202   23.5334 C   0  0  0  0  0  0  0  0  0  0  0  0
   11.8018    0.2168   25.1565 C   0  0  0  0  0  0  0  0  0  0  0  0
   11.7923   -1.7203   23.1491 C   0  0  0  0  0  0  0  0  0  0  0  0
   10.6028   -0.3834   24.7722 C   0  0  0  0  0  0  0  0  0  0  0  0
   10.5980   -1.3520   23.7684 C   0  0  0  0  0  0  0  0  0  0  0  0
    6.8535   -5.6773   27.3150 C   0  0  0  0  0  0  0  0  0  0  0  0
    8.8366   -4.3712   26.6385 C   0  0  0  0  0  0  0  0  0  0  0  0
    7.0874   -4.8501   24.9358 C   0  0  0  0  0  0  0  0  0  0  0  0
    9.0566   -3.1139   25.8089 C   0  0  0  0  0  0  0  0  0  0  0  0
    8.2369   -4.6195   23.9635 C   0  0  0  0  0  0  0  0  0  0  0  0
    5.5439   -6.3024   26.9021 C   0  0  0  0  0  0  0  0  0  0  0  0
    7.5557   -5.0007   26.3176 N   0  0  0  0  0  0  0  0  0  0  0  0
    9.0549   -3.4370   24.3552 N   0  0  0  0  0  0  0  0  0  0  0  0
    7.2416   -5.7883   28.4803 O   0  0  0  0  0  0  0  0  0  0  0  0
    8.0035   -1.2076   23.6234 O   0  0  0  0  0  0  0  0  0  0  0  0
    9.2415   -2.6048   21.9314 O   0  0  0  0  0  0  0  0  0  0  0  0
   11.8004   -2.6493   22.1829 F   0  0  0  0  0  0  0  0  0  0  0  0
    9.4617   -0.0215   25.3753 F   0  0  0  0  0  0  0  0  0  0  0  0
    9.0806   -2.1115   23.2822 S   0  0  0  0  0  0  0  0  0  0  0  0
  1  2  1  0  0  0  0
  1  3  2  0  0  0  0
  2  4  2  0  0  0  0
  3  5  1  0  0  0  0
  4  6  1  0  0  0  0
  4 18  1  0  0  0  0
  5  6  2  0  0  0  0
  5 19  1  0  0  0  0
  6 20  1  0  0  0  0
  7 12  1  0  0  0  0
  7 13  1  0  0  0  0
  7 15  2  0  0  0  0
  8 10  1  0  0  0  0
  8 13  1  0  0  0  0
  9 11  1  0  0  0  0
  9 13  1  0  0  0  0
 10 14  1  0  0  0  0
 11 14  1  0  0  0  0
 14 20  1  0  0  0  0
 16 20  2  0  0  0  0
 17 20  2  0  0  0  0
M  END
> <ref_mols>
x2583_0

> <original SMILES>
CC(=O)N1CCN(CC1)S(=O)(=O)C=2C(F)=CC=CC2F

> <Chemgauss4>
-9.008776

> <ref_pdb>
x0072_0

$$$$
x0621
  -OEChem-05172015543D

 18 20  0     0  0  0  0  0  0999 V2000
   12.7359   -2.3522   23.1276 C   0  0  0  0  0  0  0  0  0  0  0  0
   11.5486   -1.8336   23.6506 C   0  0  0  0  0  0  0  0  0  0  0  0
   13.7334   -1.5070   22.6226 C   0  0  0  0  0  0  0  0  0  0  0  0
   11.3138   -0.4560   23.6888 C   0  0  0  0  0  0  0  0  0  0  0  0
   14.2506    1.0319   22.2537 C   0  0  0  0  0  0  0  0  0  0  0  0
   13.5185   -0.1180   22.6512 C   0  0  0  0  0  0  0  0  0  0  0  0
   12.3234    0.3589   23.1799 C   0  0  0  0  0  0  0  0  0  0  0  0
   13.4646    2.1179   22.5623 C   0  0  0  0  0  0  0  0  0  0  0  0
   13.6845    3.5488   22.3875 C   0  0  0  0  0  0  0  0  0  0  0  0
   12.3832    6.0165   24.6672 C   0  0  0  0  0  0  0  0  0  0  0  0
   10.5660    4.3552   24.1097 C   0  0  0  0  0  0  0  0  0  0  0  0
   13.0034    5.7585   23.2944 C   0  0  0  0  0  0  0  0  0  0  0  0
   11.2219    4.1403   22.7472 C   0  0  0  0  0  0  0  0  0  0  0  0
   10.8702    5.7433   24.6982 C   0  0  0  0  0  0  0  0  0  0  0  0
   10.0817    6.8463   23.9878 C   0  0  0  0  0  0  0  0  0  0  0  0
   12.6633    4.4172   22.8161 N   0  0  0  0  0  0  0  0  0  0  0  0
   14.7328    3.9566   21.8842 O   0  0  0  0  0  0  0  0  0  0  0  0
   12.2933    1.7203   23.1244 O   0  0  0  0  0  0  0  0  0  0  0  0
  1  2  1  0  0  0  0
  1  3  2  0  0  0  0
  2  4  2  0  0  0  0
  3  6  1  0  0  0  0
  4  7  1  0  0  0  0
  5  6  1  0  0  0  0
  5  8  2  0  0  0  0
  6  7  2  0  0  0  0
  7 18  1  0  0  0  0
  8  9  1  0  0  0  0
  8 18  1  0  0  0  0
  9 16  1  0  0  0  0
  9 17  2  0  0  0  0
 10 12  1  0  0  0  0
 10 14  1  0  0  0  0
 11 13  1  0  0  0  0
 11 14  1  0  0  0  0
 12 16  1  0  0  0  0
 13 16  1  0  0  0  0
 14 15  1  0  0  0  0
M  END
> <ref_mols>
x0621_0

> <original SMILES>
CC1CCN(CC1)C(=O)C2=CC=3C=CC=CC3O2

> <Chemgauss4>
-9.007912

> <ref_pdb>
x0195_0

$$$$
x2595
  -OEChem-05172015543D

 21 22  0     1  0  0  0  0  0999 V2000
   13.2969   -1.5446   21.3425 C   0  0  0  0  0  0  0  0  0  0  0  0
   12.6325    0.7562   24.1922 C   0  0  0  0  0  0  0  0  0  0  0  0
   13.2476    0.1677   23.0873 C   0  0  0  0  0  0  0  0  0  0  0  0
   11.4357    0.2351   24.6840 C   0  0  0  0  0  0  0  0  0  0  0  0
    7.0401   -0.7145   19.0738 C   0  0  0  0  0  0  0  0  0  0  0  0
   11.4690   -1.4631   22.9659 C   0  0  0  0  0  0  0  0  0  0  0  0
    6.0443   -1.6749   19.1504 C   0  0  0  0  0  0  0  0  0  0  0  0
    6.5852   -2.1909   21.3228 C   0  0  0  0  0  0  0  0  0  0  0  0
   12.6658   -0.9419   22.4741 C   0  0  0  0  0  0  0  0  0  0  0  0
   10.8540   -0.8745   24.0708 C   0  0  0  0  0  0  0  0  0  0  0  0
    7.8316   -0.5066   20.1978 C   0  0  0  0  0  0  0  0  0  0  0  0
    7.6064   -1.2548   21.3479 C   0  0  0  0  0  0  0  0  0  0  0  0
    8.7012   -2.0372   23.4779 C   0  0  0  0  0  0  0  0  0  0  0  0
    8.9129    0.5223   20.1428 C   0  0  0  0  0  0  0  0  0  0  0  0
    9.8123   -2.4676   25.7120 C   0  0  0  0  0  0  0  0  0  0  0  0
    9.5743   -1.4314   24.5968 C   0  0  1  0  0  0  0  0  0  0  0  0
   13.8094   -2.0341   20.4236 N   0  0  0  0  0  0  0  0  0  0  0  0
    5.7956   -2.4212   20.2498 N   0  0  0  0  0  0  0  0  0  0  0  0
    8.3844   -1.0801   22.5169 N   0  0  0  0  0  0  0  0  0  0  0  0
    8.3800   -3.2221   23.4765 O   0  0  0  0  0  0  0  0  0  0  0  0
    8.7509   -0.1410   22.6567 H   0  0  0  0  0  0  0  0  0  0  0  0
  1  9  1  0  0  0  0
  1 17  3  0  0  0  0
  2  3  1  0  0  0  0
  2  4  2  0  0  0  0
  3  9  2  0  0  0  0
  4 10  1  0  0  0  0
  5  7  2  0  0  0  0
  5 11  1  0  0  0  0
  6  9  1  0  0  0  0
  6 10  2  0  0  0  0
  7 18  1  0  0  0  0
  8 12  1  0  0  0  0
  8 18  2  0  0  0  0
 10 16  1  0  0  0  0
 11 12  2  0  0  0  0
 11 14  1  0  0  0  0
 12 19  1  0  0  0  0
 13 16  1  0  0  0  0
 13 19  1  0  0  0  0
 13 20  2  0  0  0  0
 15 16  1  0  0  0  0
 19 21  1  0  0  0  0
M  END
> <ref_mols>
x2595_0

> <original SMILES>
CC(C(=O)NC=1C=NC=CC1C)C=2C=CC=C(C#N)C2

> <Chemgauss4>
-8.995143

> <ref_pdb>
x0831_0

$$$$
x0441
  -OEChem-05172015543D

 18 20  0     0  0  0  0  0  0999 V2000
   11.1460    6.7097   24.0990 C   0  0  0  0  0  0  0  0  0  0  0  0
   11.4823    5.7720   23.0936 C   0  0  0  0  0  0  0  0  0  0  0  0
   12.2244    6.7592   24.9513 C   0  0  0  0  0  0  0  0  0  0  0  0
   12.7424    5.3156   23.4031 C   0  0  0  0  0  0  0  0  0  0  0  0
   13.6152    4.3396   22.7389 C   0  0  0  0  0  0  0  0  0  0  0  0
   12.5264   -1.0632   23.0423 C   0  0  0  0  0  0  0  0  0  0  0  0
    9.9748   -1.3565   22.8281 C   0  0  0  0  0  0  0  0  0  0  0  0
   10.5546   -2.7212   23.0483 C   0  0  0  0  0  0  0  0  0  0  0  0
   11.8426    2.5311   23.0442 C   0  0  0  0  0  0  0  0  0  0  0  0
   13.9616    2.0447   21.8833 C   0  0  0  0  0  0  0  0  0  0  0  0
   12.0156    1.2781   23.8992 C   0  0  0  0  0  0  0  0  0  0  0  0
   14.1396    0.7883   22.7307 C   0  0  0  0  0  0  0  0  0  0  0  0
   11.2180   -1.5213   23.6353 C   0  0  0  0  0  0  0  0  0  0  0  0
   13.1495    3.0315   22.5962 N   0  0  0  0  0  0  0  0  0  0  0  0
   12.8458    0.2844   23.2021 N   0  0  0  0  0  0  0  0  0  0  0  0
   14.7099    4.7558   22.3629 O   0  0  0  0  0  0  0  0  0  0  0  0
   13.2401   -1.8786   22.4526 O   0  0  0  0  0  0  0  0  0  0  0  0
   13.2019    5.9125   24.5341 O   0  0  0  0  0  0  0  0  0  0  0  0
  1  2  1  0  0  0  0
  1  3  2  0  0  0  0
  2  4  2  0  0  0  0
  3 18  1  0  0  0  0
  4  5  1  0  0  0  0
  4 18  1  0  0  0  0
  5 14  1  0  0  0  0
  5 16  2  0  0  0  0
  6 13  1  0  0  0  0
  6 15  1  0  0  0  0
  6 17  2  0  0  0  0
  7  8  1  0  0  0  0
  7 13  1  0  0  0  0
  8 13  1  0  0  0  0
  9 11  1  0  0  0  0
  9 14  1  0  0  0  0
 10 12  1  0  0  0  0
 10 14  1  0  0  0  0
 11 15  1  0  0  0  0
 12 15  1  0  0  0  0
M  END
> <ref_mols>
x0441_0

> <original SMILES>
O=C(C1CC1)N2CCN(CC2)C(=O)C3=CC=CO3

> <Chemgauss4>
-8.991626

> <ref_pdb>
x0195_0

$$$$
x1051
  -OEChem-05172015543D

 18 20  0     0  0  0  0  0  0999 V2000
   11.1460    6.7097   24.0990 C   0  0  0  0  0  0  0  0  0  0  0  0
   11.4823    5.7720   23.0936 C   0  0  0  0  0  0  0  0  0  0  0  0
   12.2244    6.7592   24.9513 C   0  0  0  0  0  0  0  0  0  0  0  0
   12.7424    5.3156   23.4031 C   0  0  0  0  0  0  0  0  0  0  0  0
   13.6152    4.3396   22.7389 C   0  0  0  0  0  0  0  0  0  0  0  0
   12.5264   -1.0632   23.0423 C   0  0  0  0  0  0  0  0  0  0  0  0
    9.9748   -1.3565   22.8281 C   0  0  0  0  0  0  0  0  0  0  0  0
   10.5546   -2.7212   23.0483 C   0  0  0  0  0  0  0  0  0  0  0  0
   11.8426    2.5311   23.0442 C   0  0  0  0  0  0  0  0  0  0  0  0
   13.9616    2.0447   21.8833 C   0  0  0  0  0  0  0  0  0  0  0  0
   12.0156    1.2781   23.8992 C   0  0  0  0  0  0  0  0  0  0  0  0
   14.1396    0.7883   22.7307 C   0  0  0  0  0  0  0  0  0  0  0  0
   11.2180   -1.5213   23.6353 C   0  0  0  0  0  0  0  0  0  0  0  0
   13.1495    3.0315   22.5962 N   0  0  0  0  0  0  0  0  0  0  0  0
   12.8458    0.2844   23.2021 N   0  0  0  0  0  0  0  0  0  0  0  0
   14.7099    4.7558   22.3629 O   0  0  0  0  0  0  0  0  0  0  0  0
   13.2401   -1.8786   22.4526 O   0  0  0  0  0  0  0  0  0  0  0  0
   13.2019    5.9125   24.5341 O   0  0  0  0  0  0  0  0  0  0  0  0
  1  2  1  0  0  0  0
  1  3  2  0  0  0  0
  2  4  2  0  0  0  0
  3 18  1  0  0  0  0
  4  5  1  0  0  0  0
  4 18  1  0  0  0  0
  5 14  1  0  0  0  0
  5 16  2  0  0  0  0
  6 13  1  0  0  0  0
  6 15  1  0  0  0  0
  6 17  2  0  0  0  0
  7  8  1  0  0  0  0
  7 13  1  0  0  0  0
  8 13  1  0  0  0  0
  9 11  1  0  0  0  0
  9 14  1  0  0  0  0
 10 12  1  0  0  0  0
 10 14  1  0  0  0  0
 11 15  1  0  0  0  0
 12 15  1  0  0  0  0
M  END
> <ref_mols>
x1051_0

> <original SMILES>
O=C(C1CC1)N2CCN(CC2)C(=O)C3=CC=CO3

> <Chemgauss4>
-8.991626

> <ref_pdb>
x0195_0

$$$$
x0416
  -OEChem-05172015543D

 16 17  0     0  0  0  0  0  0999 V2000
   12.5885   -2.8605   25.9091 C   0  0  0  0  0  0  0  0  0  0  0  0
   12.7965   -1.5896   25.3733 C   0  0  0  0  0  0  0  0  0  0  0  0
   11.6567   -3.7193   25.3260 C   0  0  0  0  0  0  0  0  0  0  0  0
   12.0726   -1.1774   24.2544 C   0  0  0  0  0  0  0  0  0  0  0  0
    6.2296   -5.7370   21.4600 C   0  0  0  0  0  0  0  0  0  0  0  0
   10.9329   -3.3071   24.2072 C   0  0  0  0  0  0  0  0  0  0  0  0
   11.1408   -2.0362   23.6714 C   0  0  0  0  0  0  0  0  0  0  0  0
    7.7585   -4.1698   22.3393 C   0  0  0  0  0  0  0  0  0  0  0  0
    9.9623   -4.2058   23.6024 C   0  0  0  0  0  0  0  0  0  0  0  0
    5.8405   -4.4994   21.2393 N   0  0  0  0  0  0  0  0  0  0  0  0
    6.7378   -3.5801   21.7542 N   0  0  0  0  0  0  0  0  0  0  0  0
    8.8749   -3.5744   22.9790 N   0  0  0  0  0  0  0  0  0  0  0  0
   10.0830   -5.4368   23.6718 O   0  0  0  0  0  0  0  0  0  0  0  0
   10.4508   -1.6287   22.5963 F   0  0  0  0  0  0  0  0  0  0  0  0
    7.7116   -5.8840   22.3107 S   0  0  0  0  0  0  0  0  0  0  0  0
    8.8896   -2.5576   22.9872 H   0  0  0  0  0  0  0  0  0  0  0  0
  1  2  1  0  0  0  0
  1  3  2  0  0  0  0
  2  4  2  0  0  0  0
  3  6  1  0  0  0  0
  4  7  1  0  0  0  0
  5 10  2  0  0  0  0
  5 15  1  0  0  0  0
  6  7  2  0  0  0  0
  6  9  1  0  0  0  0
  7 14  1  0  0  0  0
  8 11  2  0  0  0  0
  8 12  1  0  0  0  0
  8 15  1  0  0  0  0
  9 12  1  0  0  0  0
  9 13  2  0  0  0  0
 10 11  1  0  0  0  0
 12 16  1  0  0  0  0
M  END
> <ref_mols>
x0416_0

> <original SMILES>
FC=1C=CC=CC1C(=O)NC2=NN=CS2

> <Chemgauss4>
-8.987787

> <ref_pdb>
x0749_0

$$$$
x0471
  -OEChem-05172015543D

 17 18  0     1  0  0  0  0  0999 V2000
   14.4842   -0.9588   22.9508 C   0  0  0  0  0  0  0  0  0  0  0  0
   13.7668   -2.1527   22.8778 C   0  0  0  0  0  0  0  0  0  0  0  0
   13.8072    0.2596   23.0048 C   0  0  0  0  0  0  0  0  0  0  0  0
   12.3723   -2.1284   22.8587 C   0  0  0  0  0  0  0  0  0  0  0  0
   12.4127    0.2840   22.9857 C   0  0  0  0  0  0  0  0  0  0  0  0
   11.6952   -0.9100   22.9127 C   0  0  0  0  0  0  0  0  0  0  0  0
   13.2327    3.0801   21.9316 C   0  0  0  0  0  0  0  0  0  0  0  0
   11.9306    3.8797   23.8119 C   0  0  0  0  0  0  0  0  0  0  0  0
   14.2350    4.2153   22.1029 C   0  0  0  0  0  0  0  0  0  0  0  0
   12.8995    5.0355   24.0311 C   0  0  0  0  0  0  0  0  0  0  0  0
   10.7891    1.8372   21.8266 C   0  0  0  0  0  0  0  0  0  0  0  0
   11.6817    1.6079   23.0446 C   0  0  2  0  0  0  0  0  0  0  0  0
   12.6138    2.7216   23.2165 N   0  0  0  0  0  0  0  0  0  0  0  0
   13.5466    5.3803   22.7315 N   0  3  0  0  0  0  0  0  0  0  0  0
   10.3551   -0.8966   22.8940 F   0  0  0  0  0  0  0  0  0  0  0  0
   14.2229    6.1434   22.8753 H   0  0  0  0  0  0  0  0  0  0  0  0
   12.8389    5.7520   22.0832 H   0  0  0  0  0  0  0  0  0  0  0  0
  1  2  1  0  0  0  0
  1  3  2  0  0  0  0
  2  4  2  0  0  0  0
  3  5  1  0  0  0  0
  4  6  1  0  0  0  0
  5  6  2  0  0  0  0
  5 12  1  0  0  0  0
  6 15  1  0  0  0  0
  7  9  1  0  0  0  0
  7 13  1  0  0  0  0
  8 10  1  0  0  0  0
  8 13  1  0  0  0  0
  9 14  1  0  0  0  0
 10 14  1  0  0  0  0
 11 12  1  0  0  0  0
 12 13  1  0  0  0  0
 14 16  1  0  0  0  0
 14 17  1  0  0  0  0
M  CHG  1  14   1
M  END
> <ref_mols>
x0471_0

> <original SMILES>
CC(N1CCNCC1)C=2C=CC=CC2F

> <Chemgauss4>
-8.987543

> <ref_pdb>
x0195_0

$$$$
x2852
  -OEChem-05172015543D

 26 27  0     1  0  0  0  0  0999 V2000
    5.9092    0.5525   19.5467 C   0  0  0  0  0  0  0  0  0  0  0  0
    6.9070    0.6917   20.5049 C   0  0  0  0  0  0  0  0  0  0  0  0
    6.2885    0.1977   18.2621 C   0  0  0  0  0  0  0  0  0  0  0  0
    8.5102    0.1234   18.8426 C   0  0  0  0  0  0  0  0  0  0  0  0
    8.2350    0.4749   20.1543 C   0  0  0  0  0  0  0  0  0  0  0  0
   10.6373    0.4265   20.9066 C   0  0  0  0  0  0  0  0  0  0  0  0
   14.1477   -0.8728   24.2762 C   0  0  0  0  0  0  0  0  0  0  0  0
   13.1192    0.1240   24.7952 C   0  0  0  0  0  0  0  0  0  0  0  0
   13.9528   -1.1497   22.7890 C   0  0  0  0  0  0  0  0  0  0  0  0
   11.6967   -0.3158   24.4866 C   0  0  0  0  0  0  0  0  0  0  0  0
   12.5260   -1.5764   22.4331 C   0  0  1  0  0  0  0  0  0  0  0  0
    7.7429   -4.4084   22.8709 C   0  0  0  0  0  0  0  0  0  0  0  0
   11.3971    0.6698   22.1908 C   0  0  0  0  0  0  0  0  0  0  0  0
   12.1849   -2.9890   22.9062 C   0  0  0  0  0  0  0  0  0  0  0  0
   11.0106   -3.5910   22.1480 C   0  0  0  0  0  0  0  0  0  0  0  0
    7.5679   -0.0212   17.8841 N   0  0  0  0  0  0  0  0  0  0  0  0
    9.2725    0.6093   21.1074 N   0  0  0  0  0  0  0  0  0  0  0  0
    9.8147   -2.8049   22.2744 N   0  0  0  0  0  0  0  0  0  0  0  0
   11.5185   -0.5915   23.0102 N   0  3  2  0  0  0  0  0  0  0  0  0
   11.2047    0.1174   19.8640 O   0  0  0  0  0  0  0  0  0  0  0  0
    7.8544   -1.9391   23.7316 O   0  0  0  0  0  0  0  0  0  0  0  0
    9.4344   -3.6459   24.7047 O   0  0  0  0  0  0  0  0  0  0  0  0
    8.7150   -3.0950   23.5723 S   0  0  0  0  0  0  0  0  0  0  0  0
    8.9717    0.8705   22.0441 H   0  0  0  0  0  0  0  0  0  0  0  0
    9.3608   -2.5205   21.3783 H   0  0  0  0  0  0  0  0  0  0  0  0
   10.5732   -1.0653   22.9124 H   0  0  0  0  0  0  0  0  0  0  0  0
  1  2  2  0  0  0  0
  1  3  1  0  0  0  0
  2  5  1  0  0  0  0
  3 16  2  0  0  0  0
  4  5  2  0  0  0  0
  4 16  1  0  0  0  0
  5 17  1  0  0  0  0
  6 13  1  0  0  0  0
  6 17  1  0  0  0  0
  6 20  2  0  0  0  0
  7  8  1  0  0  0  0
  7  9  1  0  0  0  0
  8 10  1  0  0  0  0
  9 11  1  0  0  0  0
 10 19  1  0  0  0  0
 11 14  1  0  0  0  0
 11 19  1  0  0  0  0
 12 23  1  0  0  0  0
 13 19  1  0  0  0  0
 14 15  1  0  0  0  0
 15 18  1  0  0  0  0
 18 23  1  0  0  0  0
 21 23  2  0  0  0  0
 22 23  2  0  0  0  0
 17 24  1  0  0  0  0
 18 25  1  0  0  0  0
 19 26  1  0  0  0  0
M  CHG  1  19   1
M  END
> <ref_mols>
x2852_0

> <original SMILES>
CS(=O)(=O)NCCC1CCCCN1CC(=O)NC=2C=CC=NC2

> <Chemgauss4>
-8.986983

> <ref_pdb>
x0678_0

$$$$
x0504
  -OEChem-05172015543D

 16 17  0     0  0  0  0  0  0999 V2000
   13.2372   -0.5225   24.2784 C   0  0  0  0  0  0  0  0  0  0  0  0
   11.9134   -0.1220   24.4212 C   0  0  0  0  0  0  0  0  0  0  0  0
   13.5233   -1.4898   23.3285 C   0  0  0  0  0  0  0  0  0  0  0  0
   10.9300   -0.6930   23.6210 C   0  0  0  0  0  0  0  0  0  0  0  0
   11.3194   -1.6524   22.7004 C   0  0  0  0  0  0  0  0  0  0  0  0
    9.1402   -4.4143   23.4143 C   0  0  0  0  0  0  0  0  0  0  0  0
    7.2142   -2.8923   23.9319 C   0  0  0  0  0  0  0  0  0  0  0  0
    8.7784   -5.1858   24.6776 C   0  0  0  0  0  0  0  0  0  0  0  0
    6.9601   -3.7493   25.1661 C   0  0  0  0  0  0  0  0  0  0  0  0
    8.6910   -2.9529   23.5251 C   0  0  0  0  0  0  0  0  0  0  0  0
    8.9335   -2.2017   22.2191 C   0  0  0  0  0  0  0  0  0  0  0  0
   12.5952   -2.0671   22.5329 N   0  0  0  0  0  0  0  0  0  0  0  0
   10.3224   -2.2183   21.9028 N   0  0  0  0  0  0  0  0  0  0  0  0
    7.3791   -5.0950   24.9427 O   0  0  0  0  0  0  0  0  0  0  0  0
    9.6508   -0.3178   23.7486 F   0  0  0  0  0  0  0  0  0  0  0  0
   10.6296   -2.6714   21.0385 H   0  0  0  0  0  0  0  0  0  0  0  0
  1  2  2  0  0  0  0
  1  3  1  0  0  0  0
  2  4  1  0  0  0  0
  3 12  2  0  0  0  0
  4  5  2  0  0  0  0
  4 15  1  0  0  0  0
  5 12  1  0  0  0  0
  5 13  1  0  0  0  0
  6  8  1  0  0  0  0
  6 10  1  0  0  0  0
  7  9  1  0  0  0  0
  7 10  1  0  0  0  0
  8 14  1  0  0  0  0
  9 14  1  0  0  0  0
 10 11  1  0  0  0  0
 11 13  1  0  0  0  0
 13 16  1  0  0  0  0
M  END
> <ref_mols>
x0504_0

> <original SMILES>
FC=1C=CC=NC1NCC2CCOCC2

> <Chemgauss4>
-8.984223

> <ref_pdb>
x0072_0

$$$$
x0056
  -OEChem-05172015543D

 16 17  0     0  0  0  0  0  0999 V2000
   11.1164   -1.3410   24.9326 C   0  0  0  0  0  0  0  0  0  0  0  0
   11.6909   -3.6845   25.0542 C   0  0  0  0  0  0  0  0  0  0  0  0
   12.3058   -1.0156   25.5845 C   0  0  0  0  0  0  0  0  0  0  0  0
   12.8804   -3.3591   25.7060 C   0  0  0  0  0  0  0  0  0  0  0  0
   10.8089   -2.6755   24.6675 C   0  0  0  0  0  0  0  0  0  0  0  0
   13.1879   -2.0246   25.9712 C   0  0  0  0  0  0  0  0  0  0  0  0
    6.6005   -4.3633   21.5551 C   0  0  0  0  0  0  0  0  0  0  0  0
    9.3995   -2.4505   22.6672 C   0  0  0  0  0  0  0  0  0  0  0  0
    8.9608   -4.2870   24.2973 C   0  0  0  0  0  0  0  0  0  0  0  0
    7.9085   -2.4141   22.3399 C   0  0  0  0  0  0  0  0  0  0  0  0
    7.4764   -4.2217   23.9383 C   0  0  0  0  0  0  0  0  0  0  0  0
    6.6097   -5.8708   21.5814 C   0  0  0  0  0  0  0  0  0  0  0  0
    9.6142   -3.0013   24.0152 N   0  0  0  0  0  0  0  0  0  0  0  0
    7.2961   -3.7191   22.5752 N   0  0  0  0  0  0  0  0  0  0  0  0
    5.9949   -3.7784   20.6535 O   0  0  0  0  0  0  0  0  0  0  0  0
   14.6552   -1.6227   26.7753 Cl  0  0  0  0  0  0  0  0  0  0  0  0
  1  3  2  0  0  0  0
  1  5  1  0  0  0  0
  2  4  1  0  0  0  0
  2  5  2  0  0  0  0
  3  6  1  0  0  0  0
  4  6  2  0  0  0  0
  5 13  1  0  0  0  0
  6 16  1  0  0  0  0
  7 12  1  0  0  0  0
  7 14  1  0  0  0  0
  7 15  2  0  0  0  0
  8 10  1  0  0  0  0
  8 13  1  0  0  0  0
  9 11  1  0  0  0  0
  9 13  1  0  0  0  0
 10 14  1  0  0  0  0
 11 14  1  0  0  0  0
M  END
> <ref_mols>
x0056_0

> <original SMILES>
CC(=O)N1CCN(CC1)C=2C=CC(Cl)=CC2

> <Chemgauss4>
-8.982459

> <ref_pdb>
x0749_0

$$$$
x0932
  -OEChem-05172015543D

 17 19  0     1  0  0  0  0  0999 V2000
   12.6271    4.9847   23.8287 C   0  0  0  0  0  0  0  0  0  0  0  0
   11.8582    3.8568   23.5644 C   0  0  0  0  0  0  0  0  0  0  0  0
   13.8668    5.0822   23.2177 C   0  0  0  0  0  0  0  0  0  0  0  0
   13.5978    3.0669   22.1480 C   0  0  0  0  0  0  0  0  0  0  0  0
   12.3455    2.8748   22.7091 C   0  0  0  0  0  0  0  0  0  0  0  0
   11.5578    1.6756   22.4123 C   0  0  0  0  0  0  0  0  0  0  0  0
   13.9155   -0.5275   22.4782 C   0  0  0  0  0  0  0  0  0  0  0  0
   10.5925   -1.5964   23.6992 C   0  0  0  0  0  0  0  0  0  0  0  0
   11.4512    0.6423   24.7684 C   0  0  0  0  0  0  0  0  0  0  0  0
   11.7866   -1.8118   22.7581 C   0  0  0  0  0  0  0  0  0  0  0  0
   10.4957   -0.1078   23.8845 C   0  0  1  0  0  0  0  0  0  0  0  0
   11.7473    0.5116   23.2950 C   0  0  1  0  0  0  0  0  0  0  0  0
   14.3902   -1.5443   21.4714 C   0  0  0  0  0  0  0  0  0  0  0  0
   14.3738    4.1491   22.3811 N   0  0  0  0  0  0  0  0  0  0  0  0
   12.5702   -0.5719   22.7985 N   0  0  0  0  0  0  0  0  0  0  0  0
   10.7627    1.5778   21.4833 O   0  0  0  0  0  0  0  0  0  0  0  0
   14.7110    0.2754   22.9699 O   0  0  0  0  0  0  0  0  0  0  0  0
  1  2  1  0  0  0  0
  1  3  2  0  0  0  0
  2  5  2  0  0  0  0
  3 14  1  0  0  0  0
  4  5  1  0  0  0  0
  4 14  2  0  0  0  0
  5  6  1  0  0  0  0
  6 12  1  0  0  0  0
  6 16  2  0  0  0  0
  7 13  1  0  0  0  0
  7 15  1  0  0  0  0
  7 17  2  0  0  0  0
  8 10  1  0  0  0  0
  8 11  1  0  0  0  0
  9 11  1  0  0  0  0
  9 12  1  0  0  0  0
 10 15  1  0  0  0  0
 11 12  1  0  0  0  0
 12 15  1  0  0  0  0
M  END
> <ref_mols>
x0932_0

> <original SMILES>
O=C(C1=CN=CC=C1)C23N(C(C)=O)CCC2C3

> <Chemgauss4>
-8.980422

> <ref_pdb>
x0195_0

$$$$
x2893
  -OEChem-05172015543D

 18 19  0     0  0  0  0  0  0999 V2000
   10.6331   -1.6467   22.8886 C   0  0  0  0  0  0  0  0  0  0  0  0
    9.4148   -2.0894   22.3622 C   0  0  0  0  0  0  0  0  0  0  0  0
   10.6641   -3.5182   24.3878 C   0  0  0  0  0  0  0  0  0  0  0  0
   11.2567   -2.3582   23.9032 C   0  0  0  0  0  0  0  0  0  0  0  0
    9.4329   -3.9675   23.8755 C   0  0  0  0  0  0  0  0  0  0  0  0
    8.7806   -3.2473   22.8478 C   0  0  0  0  0  0  0  0  0  0  0  0
    6.6557   -0.6986   20.5294 C   0  0  0  0  0  0  0  0  0  0  0  0
    6.8365   -1.4806   21.5958 C   0  0  0  0  0  0  0  0  0  0  0  0
   12.5283   -1.9039   24.4429 C   0  0  0  0  0  0  0  0  0  0  0  0
    6.7431   -2.9497   21.4298 C   0  0  0  0  0  0  0  0  0  0  0  0
    8.8771   -5.2521   24.4318 C   0  0  0  0  0  0  0  0  0  0  0  0
    7.3878   -5.3573   24.1755 C   0  0  0  0  0  0  0  0  0  0  0  0
    7.1049   -5.0808   22.7093 C   0  0  0  0  0  0  0  0  0  0  0  0
   13.8854   -1.8587   26.4048 C   0  0  0  0  0  0  0  0  0  0  0  0
    7.5270   -3.7267   22.2988 N   0  0  0  0  0  0  0  0  0  0  0  0
   13.3796   -1.2779   23.7973 O   0  0  0  0  0  0  0  0  0  0  0  0
    5.9953   -3.3631   20.5444 O   0  0  0  0  0  0  0  0  0  0  0  0
   12.6703   -2.2527   25.7583 O   0  0  0  0  0  0  0  0  0  0  0  0
  1  2  1  0  0  0  0
  1  4  2  0  0  0  0
  2  6  2  0  0  0  0
  3  4  1  0  0  0  0
  3  5  2  0  0  0  0
  4  9  1  0  0  0  0
  5  6  1  0  0  0  0
  5 11  1  0  0  0  0
  6 15  1  0  0  0  0
  7  8  2  0  0  0  0
  8 10  1  0  0  0  0
  9 16  2  0  0  0  0
  9 18  1  0  0  0  0
 10 15  1  0  0  0  0
 10 17  2  0  0  0  0
 11 12  1  0  0  0  0
 12 13  1  0  0  0  0
 13 15  1  0  0  0  0
 14 18  1  0  0  0  0
M  END
> <ref_mols>
x2893_0

> <original SMILES>
O=C(OC)C2(=CC1(=C(N(C(=O)C=C)CCC1)C=C2))

> <Chemgauss4>
-8.974848

> <ref_pdb>
x0749_0

$$$$
x0141
  -OEChem-05172015543D

 17 18  0     0  0  0  0  0  0999 V2000
   13.7052   -2.0061   23.9364 C   0  0  0  0  0  0  0  0  0  0  0  0
   13.9408   -1.4532   22.6777 C   0  0  0  0  0  0  0  0  0  0  0  0
   12.9824   -1.2882   24.8893 C   0  0  0  0  0  0  0  0  0  0  0  0
   10.6077    6.5211   23.8250 C   0  0  0  0  0  0  0  0  0  0  0  0
    9.7638    5.4467   24.1059 C   0  0  0  0  0  0  0  0  0  0  0  0
   13.4536   -0.1825   22.3718 C   0  0  0  0  0  0  0  0  0  0  0  0
   12.4953   -0.0175   24.5834 C   0  0  0  0  0  0  0  0  0  0  0  0
   11.9769    6.3089   23.6634 C   0  0  0  0  0  0  0  0  0  0  0  0
   10.2889    4.1600   24.2252 C   0  0  0  0  0  0  0  0  0  0  0  0
   12.7309    0.5354   23.3246 C   0  0  0  0  0  0  0  0  0  0  0  0
   12.5020    5.0222   23.7827 C   0  0  0  0  0  0  0  0  0  0  0  0
   11.6581    3.9477   24.0636 C   0  0  0  0  0  0  0  0  0  0  0  0
   12.2099    1.8943   22.9983 C   0  0  0  0  0  0  0  0  0  0  0  0
   13.8896    4.8219   23.6165 N   0  0  0  0  0  0  0  0  0  0  0  0
   12.1539    2.6762   24.1851 O   0  0  0  0  0  0  0  0  0  0  0  0
   14.4671    5.5990   23.3692 H   0  0  0  0  0  0  0  0  0  0  0  0
   14.2549    3.8926   23.6561 H   0  0  0  0  0  0  0  0  0  0  0  0
  1  2  1  0  0  0  0
  1  3  2  0  0  0  0
  2  6  2  0  0  0  0
  3  7  1  0  0  0  0
  4  5  1  0  0  0  0
  4  8  2  0  0  0  0
  5  9  2  0  0  0  0
  6 10  1  0  0  0  0
  7 10  2  0  0  0  0
  8 11  1  0  0  0  0
  9 12  1  0  0  0  0
 10 13  1  0  0  0  0
 11 12  2  0  0  0  0
 11 14  1  0  0  0  0
 12 15  1  0  0  0  0
 13 15  1  0  0  0  0
 14 16  1  0  0  0  0
 14 17  1  0  0  0  0
M  END
> <ref_mols>
x0141_0

> <original SMILES>
NC=1C=CC=CC1OCC=2C=CC=CC2

> <Chemgauss4>
-8.973719

> <ref_pdb>
x0161_0

$$$$
x1412
  -OEChem-05172015543D

 17 18  0     0  0  0  0  0  0999 V2000
   12.3599   -0.0455   24.4195 C   0  0  0  0  0  0  0  0  0  0  0  0
   11.3421   -1.0420   24.4546 C   0  0  0  0  0  0  0  0  0  0  0  0
   13.6147   -0.5804   24.6114 C   0  0  0  0  0  0  0  0  0  0  0  0
   11.8580   -2.3008   24.6718 C   0  0  0  0  0  0  0  0  0  0  0  0
   11.1460   -3.5852   24.7738 C   0  0  0  0  0  0  0  0  0  0  0  0
    6.4043   -4.4805   21.7501 C   0  0  0  0  0  0  0  0  0  0  0  0
    9.6627   -3.0620   22.7833 C   0  0  0  0  0  0  0  0  0  0  0  0
    8.8888   -4.5649   24.6183 C   0  0  0  0  0  0  0  0  0  0  0  0
    8.1641   -2.9334   22.5334 C   0  0  0  0  0  0  0  0  0  0  0  0
    8.0365   -5.2146   23.5340 C   0  0  0  0  0  0  0  0  0  0  0  0
    5.7681   -5.8437   21.8706 C   0  0  0  0  0  0  0  0  0  0  0  0
    9.9562   -3.7387   24.0543 N   0  0  0  0  0  0  0  0  0  0  0  0
    7.4951   -4.2344   22.5850 N   0  0  0  0  0  0  0  0  0  0  0  0
   11.6562   -4.4430   25.4930 O   0  0  0  0  0  0  0  0  0  0  0  0
    5.9469   -3.6625   20.9486 O   0  0  0  0  0  0  0  0  0  0  0  0
   13.5626   -2.2777   24.8326 S   0  0  0  0  0  0  0  0  0  0  0  0
    4.5383   -5.7168   23.1233 Cl  0  0  0  0  0  0  0  0  0  0  0  0
  1  2  1  0  0  0  0
  1  3  2  0  0  0  0
  2  4  2  0  0  0  0
  3 16  1  0  0  0  0
  4  5  1  0  0  0  0
  4 16  1  0  0  0  0
  5 12  1  0  0  0  0
  5 14  2  0  0  0  0
  6 11  1  0  0  0  0
  6 13  1  0  0  0  0
  6 15  2  0  0  0  0
  7  9  1  0  0  0  0
  7 12  1  0  0  0  0
  8 10  1  0  0  0  0
  8 12  1  0  0  0  0
  9 13  1  0  0  0  0
 10 13  1  0  0  0  0
 11 17  1  0  0  0  0
M  END
> <ref_mols>
x1412_0

> <original SMILES>
ClCC(=O)N1CCN(CC1)C(=O)c2cccs2

> <Chemgauss4>
-8.973487

> <ref_pdb>
x0749_0

$$$$
x0832
  -OEChem-05172015543D

 17 18  0     0  0  0  0  0  0999 V2000
   12.3599   -0.0455   24.4195 C   0  0  0  0  0  0  0  0  0  0  0  0
   11.3421   -1.0420   24.4546 C   0  0  0  0  0  0  0  0  0  0  0  0
   13.6147   -0.5804   24.6114 C   0  0  0  0  0  0  0  0  0  0  0  0
   11.8580   -2.3008   24.6718 C   0  0  0  0  0  0  0  0  0  0  0  0
   11.1460   -3.5852   24.7738 C   0  0  0  0  0  0  0  0  0  0  0  0
    6.4043   -4.4805   21.7501 C   0  0  0  0  0  0  0  0  0  0  0  0
    9.6627   -3.0620   22.7833 C   0  0  0  0  0  0  0  0  0  0  0  0
    8.8888   -4.5649   24.6183 C   0  0  0  0  0  0  0  0  0  0  0  0
    8.1641   -2.9334   22.5334 C   0  0  0  0  0  0  0  0  0  0  0  0
    8.0365   -5.2146   23.5340 C   0  0  0  0  0  0  0  0  0  0  0  0
    5.7681   -5.8437   21.8706 C   0  0  0  0  0  0  0  0  0  0  0  0
    9.9562   -3.7387   24.0543 N   0  0  0  0  0  0  0  0  0  0  0  0
    7.4951   -4.2344   22.5850 N   0  0  0  0  0  0  0  0  0  0  0  0
   11.6562   -4.4430   25.4930 O   0  0  0  0  0  0  0  0  0  0  0  0
    5.9469   -3.6625   20.9486 O   0  0  0  0  0  0  0  0  0  0  0  0
   13.5626   -2.2777   24.8326 S   0  0  0  0  0  0  0  0  0  0  0  0
    4.5383   -5.7168   23.1233 Cl  0  0  0  0  0  0  0  0  0  0  0  0
  1  2  1  0  0  0  0
  1  3  2  0  0  0  0
  2  4  2  0  0  0  0
  3 16  1  0  0  0  0
  4  5  1  0  0  0  0
  4 16  1  0  0  0  0
  5 12  1  0  0  0  0
  5 14  2  0  0  0  0
  6 11  1  0  0  0  0
  6 13  1  0  0  0  0
  6 15  2  0  0  0  0
  7  9  1  0  0  0  0
  7 12  1  0  0  0  0
  8 10  1  0  0  0  0
  8 12  1  0  0  0  0
  9 13  1  0  0  0  0
 10 13  1  0  0  0  0
 11 17  1  0  0  0  0
M  END
> <ref_mols>
x0832_0

> <original SMILES>
ClCC(=O)N1CCN(CC1)C(=O)c2cccs2

> <Chemgauss4>
-8.973487

> <ref_pdb>
x0749_0

$$$$
x0758
  -OEChem-05172015543D

 17 18  0     0  0  0  0  0  0999 V2000
   12.3599   -0.0455   24.4195 C   0  0  0  0  0  0  0  0  0  0  0  0
   11.3421   -1.0420   24.4546 C   0  0  0  0  0  0  0  0  0  0  0  0
   13.6147   -0.5804   24.6114 C   0  0  0  0  0  0  0  0  0  0  0  0
   11.8580   -2.3008   24.6718 C   0  0  0  0  0  0  0  0  0  0  0  0
   11.1460   -3.5852   24.7738 C   0  0  0  0  0  0  0  0  0  0  0  0
    6.4043   -4.4805   21.7501 C   0  0  0  0  0  0  0  0  0  0  0  0
    9.6627   -3.0620   22.7833 C   0  0  0  0  0  0  0  0  0  0  0  0
    8.8888   -4.5649   24.6183 C   0  0  0  0  0  0  0  0  0  0  0  0
    8.1641   -2.9334   22.5334 C   0  0  0  0  0  0  0  0  0  0  0  0
    8.0365   -5.2146   23.5340 C   0  0  0  0  0  0  0  0  0  0  0  0
    5.7681   -5.8437   21.8706 C   0  0  0  0  0  0  0  0  0  0  0  0
    9.9562   -3.7387   24.0543 N   0  0  0  0  0  0  0  0  0  0  0  0
    7.4951   -4.2344   22.5850 N   0  0  0  0  0  0  0  0  0  0  0  0
   11.6562   -4.4430   25.4930 O   0  0  0  0  0  0  0  0  0  0  0  0
    5.9469   -3.6625   20.9486 O   0  0  0  0  0  0  0  0  0  0  0  0
   13.5626   -2.2777   24.8326 S   0  0  0  0  0  0  0  0  0  0  0  0
    4.5383   -5.7168   23.1233 Cl  0  0  0  0  0  0  0  0  0  0  0  0
  1  2  1  0  0  0  0
  1  3  2  0  0  0  0
  2  4  2  0  0  0  0
  3 16  1  0  0  0  0
  4  5  1  0  0  0  0
  4 16  1  0  0  0  0
  5 12  1  0  0  0  0
  5 14  2  0  0  0  0
  6 11  1  0  0  0  0
  6 13  1  0  0  0  0
  6 15  2  0  0  0  0
  7  9  1  0  0  0  0
  7 12  1  0  0  0  0
  8 10  1  0  0  0  0
  8 12  1  0  0  0  0
  9 13  1  0  0  0  0
 10 13  1  0  0  0  0
 11 17  1  0  0  0  0
M  END
> <ref_mols>
x0758_0

> <original SMILES>
ClCC(=O)N1CCN(CC1)C(=O)c2cccs2

> <Chemgauss4>
-8.973487

> <ref_pdb>
x0749_0

> <CYS145-warhead dist minimum (A)>
4.9162464

> <CYS145-warhead dist mean (A)>
5.750516

> <CYS145-warhead dist stddev (A)>
0.31143454

$$$$
x1366
  -OEChem-05172015543D

 17 18  0     0  0  0  0  0  0999 V2000
   12.3599   -0.0455   24.4195 C   0  0  0  0  0  0  0  0  0  0  0  0
   11.3421   -1.0420   24.4546 C   0  0  0  0  0  0  0  0  0  0  0  0
   13.6147   -0.5804   24.6114 C   0  0  0  0  0  0  0  0  0  0  0  0
   11.8580   -2.3008   24.6718 C   0  0  0  0  0  0  0  0  0  0  0  0
   11.1460   -3.5852   24.7738 C   0  0  0  0  0  0  0  0  0  0  0  0
    6.4043   -4.4805   21.7501 C   0  0  0  0  0  0  0  0  0  0  0  0
    9.6627   -3.0620   22.7833 C   0  0  0  0  0  0  0  0  0  0  0  0
    8.8888   -4.5649   24.6183 C   0  0  0  0  0  0  0  0  0  0  0  0
    8.1641   -2.9334   22.5334 C   0  0  0  0  0  0  0  0  0  0  0  0
    8.0365   -5.2146   23.5340 C   0  0  0  0  0  0  0  0  0  0  0  0
    5.7681   -5.8437   21.8706 C   0  0  0  0  0  0  0  0  0  0  0  0
    9.9562   -3.7387   24.0543 N   0  0  0  0  0  0  0  0  0  0  0  0
    7.4951   -4.2344   22.5850 N   0  0  0  0  0  0  0  0  0  0  0  0
   11.6562   -4.4430   25.4930 O   0  0  0  0  0  0  0  0  0  0  0  0
    5.9469   -3.6625   20.9486 O   0  0  0  0  0  0  0  0  0  0  0  0
   13.5626   -2.2777   24.8326 S   0  0  0  0  0  0  0  0  0  0  0  0
    4.5383   -5.7168   23.1233 Cl  0  0  0  0  0  0  0  0  0  0  0  0
  1  2  1  0  0  0  0
  1  3  2  0  0  0  0
  2  4  2  0  0  0  0
  3 16  1  0  0  0  0
  4  5  1  0  0  0  0
  4 16  1  0  0  0  0
  5 12  1  0  0  0  0
  5 14  2  0  0  0  0
  6 11  1  0  0  0  0
  6 13  1  0  0  0  0
  6 15  2  0  0  0  0
  7  9  1  0  0  0  0
  7 12  1  0  0  0  0
  8 10  1  0  0  0  0
  8 12  1  0  0  0  0
  9 13  1  0  0  0  0
 10 13  1  0  0  0  0
 11 17  1  0  0  0  0
M  END
> <ref_mols>
x1366_0

> <original SMILES>
ClCC(=O)N1CCN(CC1)C(=O)c2cccs2

> <Chemgauss4>
-8.973487

> <ref_pdb>
x0749_0

> <CYS145-warhead dist minimum (A)>
5.3377123

> <CYS145-warhead dist mean (A)>
6.9094033

> <CYS145-warhead dist stddev (A)>
0.55066425

$$$$
x2594
  -OEChem-05172015543D

 28 30  0     1  0  0  0  0  0999 V2000
   14.0814   -1.3361   23.1914 C   0  0  0  0  0  0  0  0  0  0  0  0
   13.2404   -2.0931   22.3757 C   0  0  0  0  0  0  0  0  0  0  0  0
   13.5973   -0.1870   23.8167 C   0  0  0  0  0  0  0  0  0  0  0  0
   11.9154   -1.7010   22.1853 C   0  0  0  0  0  0  0  0  0  0  0  0
    7.6170   -0.1371   18.7749 C   0  0  0  0  0  0  0  0  0  0  0  0
    5.6222    0.8508   19.3407 C   0  0  0  0  0  0  0  0  0  0  0  0
   12.2724    0.2051   23.6262 C   0  0  0  0  0  0  0  0  0  0  0  0
    6.6440    0.0475   19.7984 C   0  0  0  0  0  0  0  0  0  0  0  0
   11.4314   -0.5518   22.8105 C   0  0  0  0  0  0  0  0  0  0  0  0
    9.1207   -0.8153   21.8246 C   0  0  0  0  0  0  0  0  0  0  0  0
   12.9595    3.2524   23.0511 C   0  0  0  0  0  0  0  0  0  0  0  0
   10.6585    3.6422   23.9078 C   0  0  0  0  0  0  0  0  0  0  0  0
   12.7158    4.3798   22.0529 C   0  0  2  0  0  0  0  0  0  0  0  0
   10.5227    4.7511   22.8690 C   0  0  1  0  0  0  0  0  0  0  0  0
   14.0136    5.1099   21.7366 C   0  0  0  0  0  0  0  0  0  0  0  0
    9.6066    5.8562   23.3762 C   0  0  0  0  0  0  0  0  0  0  0  0
    6.7218   -0.5468   21.1749 C   0  0  0  0  0  0  0  0  0  0  0  0
   11.7792    1.4455   24.3113 C   0  0  0  0  0  0  0  0  0  0  0  0
    7.3942    0.4618   17.6074 N   0  0  0  0  0  0  0  0  0  0  0  0
   10.1013   -0.1755   22.6072 N   0  0  0  0  0  0  0  0  0  0  0  0
    7.9079   -0.1210   21.8814 N   0  0  0  0  0  0  0  0  0  0  0  0
   11.6300    2.6132   23.3785 N   0  3  0  0  0  0  0  0  0  0  0  0
    9.2757   -1.8434   21.1699 O   0  0  0  0  0  0  0  0  0  0  0  0
   11.8034    5.3351   22.6056 O   0  0  0  0  0  0  0  0  0  0  0  0
    5.9580    1.2904   17.7197 S   0  0  0  0  0  0  0  0  0  0  0  0
    9.7869    0.6746   23.0849 H   0  0  0  0  0  0  0  0  0  0  0  0
    7.8588    0.7216   22.4454 H   0  0  0  0  0  0  0  0  0  0  0  0
   11.2403    2.2412   22.5013 H   0  0  0  0  0  0  0  0  0  0  0  0
  1  2  1  0  0  0  0
  1  3  2  0  0  0  0
  2  4  2  0  0  0  0
  3  7  1  0  0  0  0
  4  9  1  0  0  0  0
  5  8  1  0  0  0  0
  5 19  2  0  0  0  0
  6  8  2  0  0  0  0
  6 25  1  0  0  0  0
  7  9  2  0  0  0  0
  7 18  1  0  0  0  0
  8 17  1  0  0  0  0
  9 20  1  0  0  0  0
 10 20  1  0  0  0  0
 10 21  1  0  0  0  0
 10 23  2  0  0  0  0
 11 13  1  0  0  0  0
 11 22  1  0  0  0  0
 12 14  1  0  0  0  0
 12 22  1  0  0  0  0
 13 15  1  0  0  0  0
 13 24  1  0  0  0  0
 14 16  1  0  0  0  0
 14 24  1  0  0  0  0
 17 21  1  0  0  0  0
 18 22  1  0  0  0  0
 19 25  1  0  0  0  0
 20 26  1  0  0  0  0
 21 27  1  0  0  0  0
 22 28  1  0  0  0  0
M  CHG  1  22   1
M  END
> <ref_mols>
x2594_0

> <original SMILES>
CC1CN(CC=2C=CC=CC2NC(=O)NCC=3C=NSC3)CC(C)O1

> <Chemgauss4>
-8.961716

> <ref_pdb>
x0678_0

$$$$
x2604
  -OEChem-05172015543D

 20 21  0     0  0  0  0  0  0999 V2000
   14.5657   -2.6221   23.4139 C   0  0  0  0  0  0  0  0  0  0  0  0
    4.8773    1.2580   19.0119 C   0  0  0  0  0  0  0  0  0  0  0  0
   14.3595   -1.8950   24.5863 C   0  0  0  0  0  0  0  0  0  0  0  0
   14.0982   -2.1287   22.1958 C   0  0  0  0  0  0  0  0  0  0  0  0
    5.5895    1.3388   20.2085 C   0  0  0  0  0  0  0  0  0  0  0  0
    5.4970    0.7655   17.8633 C   0  0  0  0  0  0  0  0  0  0  0  0
   13.6858   -0.6745   24.5406 C   0  0  0  0  0  0  0  0  0  0  0  0
   13.4244   -0.9082   22.1502 C   0  0  0  0  0  0  0  0  0  0  0  0
    6.9215    0.9273   20.2565 C   0  0  0  0  0  0  0  0  0  0  0  0
    6.8289    0.3540   17.9114 C   0  0  0  0  0  0  0  0  0  0  0  0
   13.2182   -0.1811   23.3225 C   0  0  0  0  0  0  0  0  0  0  0  0
    7.5412    0.4349   19.1079 C   0  0  0  0  0  0  0  0  0  0  0  0
    9.8980    0.6280   21.2397 C   0  0  0  0  0  0  0  0  0  0  0  0
   12.4890    1.1391   23.2724 C   0  0  0  0  0  0  0  0  0  0  0  0
    9.3283   -0.4815   20.3816 C   0  0  0  0  0  0  0  0  0  0  0  0
   10.9799    0.9930   23.4515 C   0  0  0  0  0  0  0  0  0  0  0  0
   10.3816    0.1454   22.4458 N   0  0  0  0  0  0  0  0  0  0  0  0
    9.9151    1.8024   20.8814 O   0  0  0  0  0  0  0  0  0  0  0  0
    8.8545    0.0307   19.1543 O   0  0  0  0  0  0  0  0  0  0  0  0
   10.3121   -0.8509   22.6313 H   0  0  0  0  0  0  0  0  0  0  0  0
  1  3  1  0  0  0  0
  1  4  2  0  0  0  0
  2  5  1  0  0  0  0
  2  6  2  0  0  0  0
  3  7  2  0  0  0  0
  4  8  1  0  0  0  0
  5  9  2  0  0  0  0
  6 10  1  0  0  0  0
  7 11  1  0  0  0  0
  8 11  2  0  0  0  0
  9 12  1  0  0  0  0
 10 12  2  0  0  0  0
 11 14  1  0  0  0  0
 12 19  1  0  0  0  0
 13 15  1  0  0  0  0
 13 17  1  0  0  0  0
 13 18  2  0  0  0  0
 14 16  1  0  0  0  0
 15 19  1  0  0  0  0
 16 17  1  0  0  0  0
 17 20  1  0  0  0  0
M  END
> <ref_mols>
x2604_0

> <original SMILES>
O=C(COC=1C=CC=CC1)NCCC=2C=CC=CC2

> <Chemgauss4>
-8.960869

> <ref_pdb>
x0678_0

$$$$
x2826
  -OEChem-05172015543D

 20 21  0     0  0  0  0  0  0999 V2000
    5.6622    1.1977   18.8152 C   0  0  0  0  0  0  0  0  0  0  0  0
    6.4223    1.1523   19.9786 C   0  0  0  0  0  0  0  0  0  0  0  0
   12.4866   -0.6759   22.3201 C   0  0  0  0  0  0  0  0  0  0  0  0
   13.9526   -0.8318   24.2341 C   0  0  0  0  0  0  0  0  0  0  0  0
   11.7268    0.0731   24.4877 C   0  0  0  0  0  0  0  0  0  0  0  0
    6.2384    0.7294   17.6454 C   0  0  0  0  0  0  0  0  0  0  0  0
    8.2012    0.2033   18.7173 C   0  0  0  0  0  0  0  0  0  0  0  0
   13.7172   -1.0295   22.8735 C   0  0  0  0  0  0  0  0  0  0  0  0
    7.7170    0.6472   19.9373 C   0  0  0  0  0  0  0  0  0  0  0  0
   11.4915   -0.1245   23.1271 C   0  0  0  0  0  0  0  0  0  0  0  0
   12.9574   -0.2805   25.0412 C   0  0  0  0  0  0  0  0  0  0  0  0
    9.8292    0.1110   21.2296 C   0  0  0  0  0  0  0  0  0  0  0  0
   14.7815   -1.6183   22.0104 C   0  0  0  0  0  0  0  0  0  0  0  0
    7.4928    0.2316   17.5662 N   0  0  0  0  0  0  0  0  0  0  0  0
    8.5147    0.5884   21.1044 N   0  0  0  0  0  0  0  0  0  0  0  0
   10.2609    0.2300   22.5733 N   0  0  0  0  0  0  0  0  0  0  0  0
   10.5092   -0.3433   20.3151 O   0  0  0  0  0  0  0  0  0  0  0  0
   13.2483   -0.0347   26.7196 Cl  0  0  0  0  0  0  0  0  0  0  0  0
    8.0829    0.9346   21.9574 H   0  0  0  0  0  0  0  0  0  0  0  0
    9.5681    0.6306   23.2146 H   0  0  0  0  0  0  0  0  0  0  0  0
  1  2  2  0  0  0  0
  1  6  1  0  0  0  0
  2  9  1  0  0  0  0
  3  8  2  0  0  0  0
  3 10  1  0  0  0  0
  4  8  1  0  0  0  0
  4 11  2  0  0  0  0
  5 10  2  0  0  0  0
  5 11  1  0  0  0  0
  6 14  2  0  0  0  0
  7  9  2  0  0  0  0
  7 14  1  0  0  0  0
  8 13  1  0  0  0  0
  9 15  1  0  0  0  0
 10 16  1  0  0  0  0
 11 18  1  0  0  0  0
 12 15  1  0  0  0  0
 12 16  1  0  0  0  0
 12 17  2  0  0  0  0
 15 19  1  0  0  0  0
 16 20  1  0  0  0  0
M  END
> <ref_mols>
x2826_0

> <original SMILES>
CC=1C=C(Cl)C=C(NC(=O)NC=2C=CC=NC2)C1

> <Chemgauss4>
-8.949402

> <ref_pdb>
x0678_0

$$$$
x0292
  -OEChem-05172015543D

 18 19  0     0  0  0  0  0  0999 V2000
   13.4562    0.2419   22.9383 C   0  0  0  0  0  0  0  0  0  0  0  0
   13.3765   -1.0653   22.4585 C   0  0  0  0  0  0  0  0  0  0  0  0
   12.3021    0.9009   23.3622 C   0  0  0  0  0  0  0  0  0  0  0  0
   12.1427   -1.7137   22.4024 C   0  0  0  0  0  0  0  0  0  0  0  0
   11.0684    0.2525   23.3062 C   0  0  0  0  0  0  0  0  0  0  0  0
   10.9887   -1.0548   22.8263 C   0  0  0  0  0  0  0  0  0  0  0  0
    8.1452    0.1373   19.7505 C   0  0  0  0  0  0  0  0  0  0  0  0
    4.8795    1.2173   20.9105 C   0  0  0  0  0  0  0  0  0  0  0  0
    5.1078    1.4823   18.4151 C   0  0  0  0  0  0  0  0  0  0  0  0
    5.8540    0.0421   20.8502 C   0  0  0  0  0  0  0  0  0  0  0  0
    6.0753    0.3011   18.4054 C   0  0  0  0  0  0  0  0  0  0  0  0
    4.1186    1.3804   19.5859 C   0  0  0  0  0  0  0  0  0  0  0  0
    3.2032    2.6015   19.6320 C   0  0  0  0  0  0  0  0  0  0  0  0
    9.6540   -1.7553   22.7658 C   0  0  0  0  0  0  0  0  0  0  0  0
    8.7647   -0.0414   21.1136 C   0  0  0  0  0  0  0  0  0  0  0  0
    8.9569   -1.5178   21.4206 C   0  0  0  0  0  0  0  0  0  0  0  0
    6.7522    0.1697   19.6966 N   0  0  0  0  0  0  0  0  0  0  0  0
    8.8789    0.2470   18.7648 O   0  0  0  0  0  0  0  0  0  0  0  0
  1  2  1  0  0  0  0
  1  3  2  0  0  0  0
  2  4  2  0  0  0  0
  3  5  1  0  0  0  0
  4  6  1  0  0  0  0
  5  6  2  0  0  0  0
  6 14  1  0  0  0  0
  7 15  1  0  0  0  0
  7 17  1  0  0  0  0
  7 18  2  0  0  0  0
  8 10  1  0  0  0  0
  8 12  1  0  0  0  0
  9 11  1  0  0  0  0
  9 12  1  0  0  0  0
 10 17  1  0  0  0  0
 11 17  1  0  0  0  0
 12 13  1  0  0  0  0
 14 16  1  0  0  0  0
 15 16  1  0  0  0  0
M  END
> <ref_mols>
x0292_0

> <original SMILES>
CC1CCN(CC1)C(=O)CCCC=2C=CC=CC2

> <Chemgauss4>
-8.930166

> <ref_pdb>
x1093_0

$$$$
x0431
  -OEChem-05172015543D

 18 19  0     0  0  0  0  0  0999 V2000
   12.2839    2.0644   23.7001 C   0  0  0  0  0  0  0  0  0  0  0  0
   12.1006    0.7253   24.0532 C   0  0  0  0  0  0  0  0  0  0  0  0
   14.0730    1.4590   22.1637 C   0  0  0  0  0  0  0  0  0  0  0  0
   13.2644    2.4291   22.7607 C   0  0  0  0  0  0  0  0  0  0  0  0
   12.9120   -0.2130   23.4491 C   0  0  0  0  0  0  0  0  0  0  0  0
   13.8717    0.1440   22.5296 C   0  0  0  0  0  0  0  0  0  0  0  0
   11.8004    5.2493   23.6607 C   0  0  0  0  0  0  0  0  0  0  0  0
   13.9249   -2.0045   22.7809 C   0  0  0  0  0  0  0  0  0  0  0  0
    9.3025    4.7335   25.3358 C   0  0  0  0  0  0  0  0  0  0  0  0
    9.1593    3.8968   22.9816 C   0  0  0  0  0  0  0  0  0  0  0  0
   13.4437    3.8749   22.3978 C   0  0  0  0  0  0  0  0  0  0  0  0
   10.4791    5.9784   23.4697 C   0  0  0  0  0  0  0  0  0  0  0  0
    9.2501    5.1448   23.8621 C   0  0  0  0  0  0  0  0  0  0  0  0
   12.2066    4.6143   22.4958 N   0  0  0  0  0  0  0  0  0  0  0  0
   12.4283    5.2565   24.7160 O   0  0  0  0  0  0  0  0  0  0  0  0
   12.8783   -1.5560   23.6661 O   0  0  0  0  0  0  0  0  0  0  0  0
   14.5592   -0.9308   22.0561 O   0  0  0  0  0  0  0  0  0  0  0  0
   11.6085    4.6719   21.6769 H   0  0  0  0  0  0  0  0  0  0  0  0
  1  2  2  0  0  0  0
  1  4  1  0  0  0  0
  2  5  1  0  0  0  0
  3  4  2  0  0  0  0
  3  6  1  0  0  0  0
  4 11  1  0  0  0  0
  5  6  2  0  0  0  0
  5 16  1  0  0  0  0
  6 17  1  0  0  0  0
  7 12  1  0  0  0  0
  7 14  1  0  0  0  0
  7 15  2  0  0  0  0
  8 16  1  0  0  0  0
  8 17  1  0  0  0  0
  9 13  1  0  0  0  0
 10 13  1  0  0  0  0
 11 14  1  0  0  0  0
 12 13  1  0  0  0  0
 14 18  1  0  0  0  0
M  END
> <ref_mols>
x0431_0

> <original SMILES>
CC(C)CC(=O)NCC=1C=CC=2OCOC2C1

> <Chemgauss4>
-8.927890

> <ref_pdb>
x0195_0

$$$$
x0495
  -OEChem-05172015543D

 19 21  0     0  0  0  0  0  0999 V2000
   14.1244   -2.0738   23.3333 C   0  0  0  0  0  0  0  0  0  0  0  0
   14.1365   -0.7467   23.7701 C   0  0  0  0  0  0  0  0  0  0  0  0
   13.0467   -2.5823   22.5955 C   0  0  0  0  0  0  0  0  0  0  0  0
   13.0762    0.1195   23.4873 C   0  0  0  0  0  0  0  0  0  0  0  0
   10.7375   -1.8511   21.6045 C   0  0  0  0  0  0  0  0  0  0  0  0
   11.9696   -1.7287   22.2994 C   0  0  0  0  0  0  0  0  0  0  0  0
   12.0193   -0.4143   22.7522 C   0  0  0  0  0  0  0  0  0  0  0  0
   10.1267   -0.6207   21.6784 C   0  0  0  0  0  0  0  0  0  0  0  0
    7.6245    0.1904   18.9598 C   0  0  0  0  0  0  0  0  0  0  0  0
    8.8826   -0.1549   21.1679 C   0  0  0  0  0  0  0  0  0  0  0  0
    5.8009    0.7297   16.0952 C   0  0  0  0  0  0  0  0  0  0  0  0
    6.5116    0.7474   19.5165 N   0  0  0  0  0  0  0  0  0  0  0  0
    7.5722    0.0814   17.6299 N   0  0  0  0  0  0  0  0  0  0  0  0
    5.6929    1.0155   18.5069 N   0  0  0  0  0  0  0  0  0  0  0  0
    6.3576    0.6068   17.4172 N   0  0  0  0  0  0  0  0  0  0  0  0
    8.7183   -0.2218   19.7620 N   0  0  0  0  0  0  0  0  0  0  0  0
    7.9813    0.3243   21.8989 O   0  0  0  0  0  0  0  0  0  0  0  0
   10.8961    0.2578   22.3727 O   0  0  0  0  0  0  0  0  0  0  0  0
    9.5009   -0.6253   19.2531 H   0  0  0  0  0  0  0  0  0  0  0  0
  1  2  1  0  0  0  0
  1  3  2  0  0  0  0
  2  4  2  0  0  0  0
  3  6  1  0  0  0  0
  4  7  1  0  0  0  0
  5  6  1  0  0  0  0
  5  8  2  0  0  0  0
  6  7  2  0  0  0  0
  7 18  1  0  0  0  0
  8 10  1  0  0  0  0
  8 18  1  0  0  0  0
  9 12  1  0  0  0  0
  9 13  2  0  0  0  0
  9 16  1  0  0  0  0
 10 16  1  0  0  0  0
 10 17  2  0  0  0  0
 11 15  1  0  0  0  0
 12 14  2  0  0  0  0
 13 15  1  0  0  0  0
 14 15  1  0  0  0  0
 16 19  1  0  0  0  0
M  END
> <ref_mols>
x0495_0

> <original SMILES>
CN1N=NC(NC(=O)C2=CC=3C=CC=CC3O2)=N1

> <Chemgauss4>
-8.918229

> <ref_pdb>
x0678_0

$$$$
x0154
  -OEChem-05172015543D

 17 18  0     0  0  0  0  0  0999 V2000
   14.4671   -1.3672   23.7148 C   0  0  0  0  0  0  0  0  0  0  0  0
   14.0897   -1.8519   22.4603 C   0  0  0  0  0  0  0  0  0  0  0  0
   13.5489   -0.7028   24.5376 C   0  0  0  0  0  0  0  0  0  0  0  0
   12.7848   -1.6913   21.9827 C   0  0  0  0  0  0  0  0  0  0  0  0
   12.2336   -0.5324   24.0736 C   0  0  0  0  0  0  0  0  0  0  0  0
   11.8874   -1.0265   22.8191 C   0  0  0  0  0  0  0  0  0  0  0  0
   10.1714   -0.0442   23.8116 C   0  0  0  0  0  0  0  0  0  0  0  0
    8.2370   -0.0571   19.7316 C   0  0  0  0  0  0  0  0  0  0  0  0
    8.7933    0.4559   23.9940 C   0  0  0  0  0  0  0  0  0  0  0  0
    9.1209    0.2563   20.9219 C   0  0  0  0  0  0  0  0  0  0  0  0
    9.7332   -0.9999   21.5327 C   0  0  0  0  0  0  0  0  0  0  0  0
   11.1549    0.0742   24.6752 N   0  0  0  0  0  0  0  0  0  0  0  0
   10.5630   -0.7002   22.6778 N   0  0  0  0  0  0  0  0  0  0  0  0
    7.1855   -0.8842   20.0637 N   0  0  0  0  0  0  0  0  0  0  0  0
    8.4343    0.3741   18.5994 O   0  0  0  0  0  0  0  0  0  0  0  0
    7.0636   -1.2170   21.0144 H   0  0  0  0  0  0  0  0  0  0  0  0
    6.4993   -1.1903   19.3812 H   0  0  0  0  0  0  0  0  0  0  0  0
  1  2  1  0  0  0  0
  1  3  2  0  0  0  0
  2  4  2  0  0  0  0
  3  5  1  0  0  0  0
  4  6  1  0  0  0  0
  5  6  2  0  0  0  0
  5 12  1  0  0  0  0
  6 13  1  0  0  0  0
  7  9  1  0  0  0  0
  7 12  2  0  0  0  0
  7 13  1  0  0  0  0
  8 10  1  0  0  0  0
  8 14  1  0  0  0  0
  8 15  2  0  0  0  0
 10 11  1  0  0  0  0
 11 13  1  0  0  0  0
 14 16  1  0  0  0  0
 14 17  1  0  0  0  0
M  END
> <ref_mols>
x0154_0

> <original SMILES>
CC1=NC=2C=CC=CC2N1CCC(=O)N

> <Chemgauss4>
-8.917376

> <ref_pdb>
x0678_0

$$$$
x1239
  -OEChem-05172015543D

 17 18  0     0  0  0  0  0  0999 V2000
   14.4671   -1.3672   23.7148 C   0  0  0  0  0  0  0  0  0  0  0  0
   14.0897   -1.8519   22.4603 C   0  0  0  0  0  0  0  0  0  0  0  0
   13.5489   -0.7028   24.5376 C   0  0  0  0  0  0  0  0  0  0  0  0
   12.7848   -1.6913   21.9827 C   0  0  0  0  0  0  0  0  0  0  0  0
   12.2336   -0.5324   24.0736 C   0  0  0  0  0  0  0  0  0  0  0  0
   11.8874   -1.0265   22.8191 C   0  0  0  0  0  0  0  0  0  0  0  0
   10.1714   -0.0442   23.8116 C   0  0  0  0  0  0  0  0  0  0  0  0
    8.2370   -0.0571   19.7316 C   0  0  0  0  0  0  0  0  0  0  0  0
    8.7933    0.4559   23.9940 C   0  0  0  0  0  0  0  0  0  0  0  0
    9.1209    0.2563   20.9219 C   0  0  0  0  0  0  0  0  0  0  0  0
    9.7332   -0.9999   21.5327 C   0  0  0  0  0  0  0  0  0  0  0  0
   11.1549    0.0742   24.6752 N   0  0  0  0  0  0  0  0  0  0  0  0
   10.5630   -0.7002   22.6778 N   0  0  0  0  0  0  0  0  0  0  0  0
    7.1855   -0.8842   20.0637 N   0  0  0  0  0  0  0  0  0  0  0  0
    8.4343    0.3741   18.5994 O   0  0  0  0  0  0  0  0  0  0  0  0
    7.0636   -1.2170   21.0144 H   0  0  0  0  0  0  0  0  0  0  0  0
    6.4993   -1.1903   19.3812 H   0  0  0  0  0  0  0  0  0  0  0  0
  1  2  1  0  0  0  0
  1  3  2  0  0  0  0
  2  4  2  0  0  0  0
  3  5  1  0  0  0  0
  4  6  1  0  0  0  0
  5  6  2  0  0  0  0
  5 12  1  0  0  0  0
  6 13  1  0  0  0  0
  7  9  1  0  0  0  0
  7 12  2  0  0  0  0
  7 13  1  0  0  0  0
  8 10  1  0  0  0  0
  8 14  1  0  0  0  0
  8 15  2  0  0  0  0
 10 11  1  0  0  0  0
 11 13  1  0  0  0  0
 14 16  1  0  0  0  0
 14 17  1  0  0  0  0
M  END
> <ref_mols>
x1239_0

> <original SMILES>
CC1=NC=2C=CC=CC2N1CCC(=O)N

> <Chemgauss4>
-8.917376

> <ref_pdb>
x0678_0

$$$$
x2561
  -OEChem-05172015543D

 23 25  0     0  0  0  0  0  0999 V2000
    6.1942   -3.3382   22.0946 C   0  0  0  0  0  0  0  0  0  0  0  0
   11.5062    1.5840   23.5413 C   0  0  0  0  0  0  0  0  0  0  0  0
   13.6131    0.6233   22.8521 C   0  0  0  0  0  0  0  0  0  0  0  0
   11.9415    2.8406   23.1205 C   0  0  0  0  0  0  0  0  0  0  0  0
   14.0484    1.8799   22.4313 C   0  0  0  0  0  0  0  0  0  0  0  0
    7.3169   -3.7082   22.8729 C   0  0  0  0  0  0  0  0  0  0  0  0
    6.4645   -2.0803   21.6080 C   0  0  0  0  0  0  0  0  0  0  0  0
   12.3420    0.4753   23.4072 C   0  0  0  0  0  0  0  0  0  0  0  0
   13.2125    2.9886   22.5655 C   0  0  0  0  0  0  0  0  0  0  0  0
    8.1934   -2.6502   22.8063 C   0  0  0  0  0  0  0  0  0  0  0  0
    9.5600   -1.1979   24.3739 C   0  0  0  0  0  0  0  0  0  0  0  0
   10.6469   -2.2274   22.3194 C   0  0  0  0  0  0  0  0  0  0  0  0
   10.9619   -0.9461   24.9329 C   0  0  0  0  0  0  0  0  0  0  0  0
   12.0190   -1.9432   22.9416 C   0  0  0  0  0  0  0  0  0  0  0  0
    9.5644   -2.3994   23.4055 C   0  0  0  0  0  0  0  0  0  0  0  0
   11.9083   -0.7783   23.8268 N   0  0  0  0  0  0  0  0  0  0  0  0
   12.3980    5.5223   22.4195 N   0  0  0  0  0  0  0  0  0  0  0  0
   14.8722    4.9677   22.8847 O   0  0  0  0  0  0  0  0  0  0  0  0
   13.9214    4.5339   20.5922 O   0  0  0  0  0  0  0  0  0  0  0  0
    7.6813   -1.6538   22.0372 O   0  0  0  0  0  0  0  0  0  0  0  0
   13.7585    4.5612   22.0391 S   0  0  0  0  0  0  0  0  0  0  0  0
   12.4745    6.1745   23.2096 H   0  0  0  0  0  0  0  0  0  0  0  0
   11.8253    5.8757   21.6434 H   0  0  0  0  0  0  0  0  0  0  0  0
  1  6  1  0  0  0  0
  1  7  2  0  0  0  0
  2  4  2  0  0  0  0
  2  8  1  0  0  0  0
  3  5  1  0  0  0  0
  3  8  2  0  0  0  0
  4  9  1  0  0  0  0
  5  9  2  0  0  0  0
  6 10  2  0  0  0  0
  7 20  1  0  0  0  0
  8 16  1  0  0  0  0
  9 21  1  0  0  0  0
 10 15  1  0  0  0  0
 10 20  1  0  0  0  0
 11 13  1  0  0  0  0
 11 15  1  0  0  0  0
 12 14  1  0  0  0  0
 12 15  1  0  0  0  0
 13 16  1  0  0  0  0
 14 16  1  0  0  0  0
 17 21  1  0  0  0  0
 18 21  2  0  0  0  0
 19 21  2  0  0  0  0
 17 22  1  0  0  0  0
 17 23  1  0  0  0  0
M  END
> <ref_mols>
x2561_0

> <original SMILES>
NS(=O)(=O)C=1C=CC(=CC1)N2CCC(CC2)C3=CC=CO3

> <Chemgauss4>
-8.915313

> <ref_pdb>
x0195_0

$$$$
x2393
  -OEChem-05172015543D

 19 20  0     0  0  0  0  0  0999 V2000
   10.7268   -0.2504   23.9310 C   0  0  0  0  0  0  0  0  0  0  0  0
   11.7849   -0.8493   23.2412 C   0  0  0  0  0  0  0  0  0  0  0  0
   12.8509    1.3042   22.8900 C   0  0  0  0  0  0  0  0  0  0  0  0
   10.3060    3.2810   24.6152 C   0  0  0  0  0  0  0  0  0  0  0  0
   11.7950    1.9302   23.5818 C   0  0  0  0  0  0  0  0  0  0  0  0
   11.4955    3.2786   23.9239 C   0  0  0  0  0  0  0  0  0  0  0  0
   10.7594    1.1400   24.0853 C   0  0  0  0  0  0  0  0  0  0  0  0
   12.8316   -0.0859   22.7280 C   0  0  0  0  0  0  0  0  0  0  0  0
    9.2671    6.6294   23.3799 C   0  0  0  0  0  0  0  0  0  0  0  0
    8.1507    6.5924   22.3897 C   0  0  0  0  0  0  0  0  0  0  0  0
   13.7766   -2.1162   21.9276 C   0  0  0  0  0  0  0  0  0  0  0  0
   12.3081    4.4688   23.6014 C   0  0  0  0  0  0  0  0  0  0  0  0
   11.5735    5.8057   23.8097 C   0  0  0  0  0  0  0  0  0  0  0  0
    9.8699    1.9865   24.7078 N   0  0  0  0  0  0  0  0  0  0  0  0
   10.3856    5.9028   23.0044 N   0  0  0  0  0  0  0  0  0  0  0  0
    9.1350    7.2708   24.4157 O   0  0  0  0  0  0  0  0  0  0  0  0
   13.8500   -0.6984   22.0606 O   0  0  0  0  0  0  0  0  0  0  0  0
    9.0179    1.6937   25.1659 H   0  0  0  0  0  0  0  0  0  0  0  0
   10.3656    5.4119   22.1119 H   0  0  0  0  0  0  0  0  0  0  0  0
  1  2  2  0  0  0  0
  1  7  1  0  0  0  0
  2  8  1  0  0  0  0
  3  5  1  0  0  0  0
  3  8  2  0  0  0  0
  4  6  2  0  0  0  0
  4 14  1  0  0  0  0
  5  6  1  0  0  0  0
  5  7  2  0  0  0  0
  6 12  1  0  0  0  0
  7 14  1  0  0  0  0
  8 17  1  0  0  0  0
  9 10  1  0  0  0  0
  9 15  1  0  0  0  0
  9 16  2  0  0  0  0
 11 17  1  0  0  0  0
 12 13  1  0  0  0  0
 13 15  1  0  0  0  0
 14 18  1  0  0  0  0
 15 19  1  0  0  0  0
M  END
> <ref_mols>
x2393_0

> <original SMILES>
CC(NCCC1=CNC2=CC=C(OC)C=C21)=O

> <Chemgauss4>
-8.913157

> <ref_pdb>
x0104_0

$$$$
x2379
  -OEChem-05172015543D

 19 20  0     0  0  0  0  0  0999 V2000
   10.7268   -0.2504   23.9310 C   0  0  0  0  0  0  0  0  0  0  0  0
   11.7849   -0.8493   23.2412 C   0  0  0  0  0  0  0  0  0  0  0  0
   12.8509    1.3042   22.8900 C   0  0  0  0  0  0  0  0  0  0  0  0
   10.3060    3.2810   24.6152 C   0  0  0  0  0  0  0  0  0  0  0  0
   11.7950    1.9302   23.5818 C   0  0  0  0  0  0  0  0  0  0  0  0
   11.4955    3.2786   23.9239 C   0  0  0  0  0  0  0  0  0  0  0  0
   10.7594    1.1400   24.0853 C   0  0  0  0  0  0  0  0  0  0  0  0
   12.8316   -0.0859   22.7280 C   0  0  0  0  0  0  0  0  0  0  0  0
    9.2671    6.6294   23.3799 C   0  0  0  0  0  0  0  0  0  0  0  0
    8.1507    6.5924   22.3897 C   0  0  0  0  0  0  0  0  0  0  0  0
   13.7766   -2.1162   21.9276 C   0  0  0  0  0  0  0  0  0  0  0  0
   12.3081    4.4688   23.6014 C   0  0  0  0  0  0  0  0  0  0  0  0
   11.5735    5.8057   23.8097 C   0  0  0  0  0  0  0  0  0  0  0  0
    9.8699    1.9865   24.7078 N   0  0  0  0  0  0  0  0  0  0  0  0
   10.3856    5.9028   23.0044 N   0  0  0  0  0  0  0  0  0  0  0  0
    9.1350    7.2708   24.4157 O   0  0  0  0  0  0  0  0  0  0  0  0
   13.8500   -0.6984   22.0606 O   0  0  0  0  0  0  0  0  0  0  0  0
    9.0179    1.6937   25.1659 H   0  0  0  0  0  0  0  0  0  0  0  0
   10.3656    5.4119   22.1119 H   0  0  0  0  0  0  0  0  0  0  0  0
  1  2  2  0  0  0  0
  1  7  1  0  0  0  0
  2  8  1  0  0  0  0
  3  5  1  0  0  0  0
  3  8  2  0  0  0  0
  4  6  2  0  0  0  0
  4 14  1  0  0  0  0
  5  6  1  0  0  0  0
  5  7  2  0  0  0  0
  6 12  1  0  0  0  0
  7 14  1  0  0  0  0
  8 17  1  0  0  0  0
  9 10  1  0  0  0  0
  9 15  1  0  0  0  0
  9 16  2  0  0  0  0
 11 17  1  0  0  0  0
 12 13  1  0  0  0  0
 13 15  1  0  0  0  0
 14 18  1  0  0  0  0
 15 19  1  0  0  0  0
M  END
> <ref_mols>
x2379_0

> <original SMILES>
CC(NCCC1=CNC2=CC=C(OC)C=C21)=O

> <Chemgauss4>
-8.913157

> <ref_pdb>
x0104_0

$$$$
x2384
  -OEChem-05172015543D

 19 20  0     0  0  0  0  0  0999 V2000
   10.7268   -0.2504   23.9310 C   0  0  0  0  0  0  0  0  0  0  0  0
   11.7849   -0.8493   23.2412 C   0  0  0  0  0  0  0  0  0  0  0  0
   12.8509    1.3042   22.8900 C   0  0  0  0  0  0  0  0  0  0  0  0
   10.3060    3.2810   24.6152 C   0  0  0  0  0  0  0  0  0  0  0  0
   11.7950    1.9302   23.5818 C   0  0  0  0  0  0  0  0  0  0  0  0
   11.4955    3.2786   23.9239 C   0  0  0  0  0  0  0  0  0  0  0  0
   10.7594    1.1400   24.0853 C   0  0  0  0  0  0  0  0  0  0  0  0
   12.8316   -0.0859   22.7280 C   0  0  0  0  0  0  0  0  0  0  0  0
    9.2671    6.6294   23.3799 C   0  0  0  0  0  0  0  0  0  0  0  0
    8.1507    6.5924   22.3897 C   0  0  0  0  0  0  0  0  0  0  0  0
   13.7766   -2.1162   21.9276 C   0  0  0  0  0  0  0  0  0  0  0  0
   12.3081    4.4688   23.6014 C   0  0  0  0  0  0  0  0  0  0  0  0
   11.5735    5.8057   23.8097 C   0  0  0  0  0  0  0  0  0  0  0  0
    9.8699    1.9865   24.7078 N   0  0  0  0  0  0  0  0  0  0  0  0
   10.3856    5.9028   23.0044 N   0  0  0  0  0  0  0  0  0  0  0  0
    9.1350    7.2708   24.4157 O   0  0  0  0  0  0  0  0  0  0  0  0
   13.8500   -0.6984   22.0606 O   0  0  0  0  0  0  0  0  0  0  0  0
    9.0179    1.6937   25.1659 H   0  0  0  0  0  0  0  0  0  0  0  0
   10.3656    5.4119   22.1119 H   0  0  0  0  0  0  0  0  0  0  0  0
  1  2  2  0  0  0  0
  1  7  1  0  0  0  0
  2  8  1  0  0  0  0
  3  5  1  0  0  0  0
  3  8  2  0  0  0  0
  4  6  2  0  0  0  0
  4 14  1  0  0  0  0
  5  6  1  0  0  0  0
  5  7  2  0  0  0  0
  6 12  1  0  0  0  0
  7 14  1  0  0  0  0
  8 17  1  0  0  0  0
  9 10  1  0  0  0  0
  9 15  1  0  0  0  0
  9 16  2  0  0  0  0
 11 17  1  0  0  0  0
 12 13  1  0  0  0  0
 13 15  1  0  0  0  0
 14 18  1  0  0  0  0
 15 19  1  0  0  0  0
M  END
> <ref_mols>
x2384_0

> <original SMILES>
CC(NCCC1=CNC2=CC=C(OC)C=C21)=O

> <Chemgauss4>
-8.913157

> <ref_pdb>
x0104_0

$$$$
x2360
  -OEChem-05172015543D

 19 20  0     0  0  0  0  0  0999 V2000
   10.7268   -0.2504   23.9310 C   0  0  0  0  0  0  0  0  0  0  0  0
   11.7849   -0.8493   23.2412 C   0  0  0  0  0  0  0  0  0  0  0  0
   12.8509    1.3042   22.8900 C   0  0  0  0  0  0  0  0  0  0  0  0
   10.3060    3.2810   24.6152 C   0  0  0  0  0  0  0  0  0  0  0  0
   11.7950    1.9302   23.5818 C   0  0  0  0  0  0  0  0  0  0  0  0
   11.4955    3.2786   23.9239 C   0  0  0  0  0  0  0  0  0  0  0  0
   10.7594    1.1400   24.0853 C   0  0  0  0  0  0  0  0  0  0  0  0
   12.8316   -0.0859   22.7280 C   0  0  0  0  0  0  0  0  0  0  0  0
    9.2671    6.6294   23.3799 C   0  0  0  0  0  0  0  0  0  0  0  0
    8.1507    6.5924   22.3897 C   0  0  0  0  0  0  0  0  0  0  0  0
   13.7766   -2.1162   21.9276 C   0  0  0  0  0  0  0  0  0  0  0  0
   12.3081    4.4688   23.6014 C   0  0  0  0  0  0  0  0  0  0  0  0
   11.5735    5.8057   23.8097 C   0  0  0  0  0  0  0  0  0  0  0  0
    9.8699    1.9865   24.7078 N   0  0  0  0  0  0  0  0  0  0  0  0
   10.3856    5.9028   23.0044 N   0  0  0  0  0  0  0  0  0  0  0  0
    9.1350    7.2708   24.4157 O   0  0  0  0  0  0  0  0  0  0  0  0
   13.8500   -0.6984   22.0606 O   0  0  0  0  0  0  0  0  0  0  0  0
    9.0179    1.6937   25.1659 H   0  0  0  0  0  0  0  0  0  0  0  0
   10.3656    5.4119   22.1119 H   0  0  0  0  0  0  0  0  0  0  0  0
  1  2  2  0  0  0  0
  1  7  1  0  0  0  0
  2  8  1  0  0  0  0
  3  5  1  0  0  0  0
  3  8  2  0  0  0  0
  4  6  2  0  0  0  0
  4 14  1  0  0  0  0
  5  6  1  0  0  0  0
  5  7  2  0  0  0  0
  6 12  1  0  0  0  0
  7 14  1  0  0  0  0
  8 17  1  0  0  0  0
  9 10  1  0  0  0  0
  9 15  1  0  0  0  0
  9 16  2  0  0  0  0
 11 17  1  0  0  0  0
 12 13  1  0  0  0  0
 13 15  1  0  0  0  0
 14 18  1  0  0  0  0
 15 19  1  0  0  0  0
M  END
> <ref_mols>
x2360_0

> <original SMILES>
CC(NCCC1=CNC2=CC=C(OC)C=C21)=O

> <Chemgauss4>
-8.913157

> <ref_pdb>
x0104_0

$$$$
x2401
  -OEChem-05172015543D

 19 20  0     0  0  0  0  0  0999 V2000
   10.7268   -0.2504   23.9310 C   0  0  0  0  0  0  0  0  0  0  0  0
   11.7849   -0.8493   23.2412 C   0  0  0  0  0  0  0  0  0  0  0  0
   12.8509    1.3042   22.8900 C   0  0  0  0  0  0  0  0  0  0  0  0
   10.3060    3.2810   24.6152 C   0  0  0  0  0  0  0  0  0  0  0  0
   11.7950    1.9302   23.5818 C   0  0  0  0  0  0  0  0  0  0  0  0
   11.4955    3.2786   23.9239 C   0  0  0  0  0  0  0  0  0  0  0  0
   10.7594    1.1400   24.0853 C   0  0  0  0  0  0  0  0  0  0  0  0
   12.8316   -0.0859   22.7280 C   0  0  0  0  0  0  0  0  0  0  0  0
    9.2671    6.6294   23.3799 C   0  0  0  0  0  0  0  0  0  0  0  0
    8.1507    6.5924   22.3897 C   0  0  0  0  0  0  0  0  0  0  0  0
   13.7766   -2.1162   21.9276 C   0  0  0  0  0  0  0  0  0  0  0  0
   12.3081    4.4688   23.6014 C   0  0  0  0  0  0  0  0  0  0  0  0
   11.5735    5.8057   23.8097 C   0  0  0  0  0  0  0  0  0  0  0  0
    9.8699    1.9865   24.7078 N   0  0  0  0  0  0  0  0  0  0  0  0
   10.3856    5.9028   23.0044 N   0  0  0  0  0  0  0  0  0  0  0  0
    9.1350    7.2708   24.4157 O   0  0  0  0  0  0  0  0  0  0  0  0
   13.8500   -0.6984   22.0606 O   0  0  0  0  0  0  0  0  0  0  0  0
    9.0179    1.6937   25.1659 H   0  0  0  0  0  0  0  0  0  0  0  0
   10.3656    5.4119   22.1119 H   0  0  0  0  0  0  0  0  0  0  0  0
  1  2  2  0  0  0  0
  1  7  1  0  0  0  0
  2  8  1  0  0  0  0
  3  5  1  0  0  0  0
  3  8  2  0  0  0  0
  4  6  2  0  0  0  0
  4 14  1  0  0  0  0
  5  6  1  0  0  0  0
  5  7  2  0  0  0  0
  6 12  1  0  0  0  0
  7 14  1  0  0  0  0
  8 17  1  0  0  0  0
  9 10  1  0  0  0  0
  9 15  1  0  0  0  0
  9 16  2  0  0  0  0
 11 17  1  0  0  0  0
 12 13  1  0  0  0  0
 13 15  1  0  0  0  0
 14 18  1  0  0  0  0
 15 19  1  0  0  0  0
M  END
> <ref_mols>
x2401_0

> <original SMILES>
CC(NCCC1=CNC2=CC=C(OC)C=C21)=O

> <Chemgauss4>
-8.913157

> <ref_pdb>
x0104_0

$$$$
x2394
  -OEChem-05172015543D

 19 20  0     0  0  0  0  0  0999 V2000
   10.7268   -0.2504   23.9310 C   0  0  0  0  0  0  0  0  0  0  0  0
   11.7849   -0.8493   23.2412 C   0  0  0  0  0  0  0  0  0  0  0  0
   12.8509    1.3042   22.8900 C   0  0  0  0  0  0  0  0  0  0  0  0
   10.3060    3.2810   24.6152 C   0  0  0  0  0  0  0  0  0  0  0  0
   11.7950    1.9302   23.5818 C   0  0  0  0  0  0  0  0  0  0  0  0
   11.4955    3.2786   23.9239 C   0  0  0  0  0  0  0  0  0  0  0  0
   10.7594    1.1400   24.0853 C   0  0  0  0  0  0  0  0  0  0  0  0
   12.8316   -0.0859   22.7280 C   0  0  0  0  0  0  0  0  0  0  0  0
    9.2671    6.6294   23.3799 C   0  0  0  0  0  0  0  0  0  0  0  0
    8.1507    6.5924   22.3897 C   0  0  0  0  0  0  0  0  0  0  0  0
   13.7766   -2.1162   21.9276 C   0  0  0  0  0  0  0  0  0  0  0  0
   12.3081    4.4688   23.6014 C   0  0  0  0  0  0  0  0  0  0  0  0
   11.5735    5.8057   23.8097 C   0  0  0  0  0  0  0  0  0  0  0  0
    9.8699    1.9865   24.7078 N   0  0  0  0  0  0  0  0  0  0  0  0
   10.3856    5.9028   23.0044 N   0  0  0  0  0  0  0  0  0  0  0  0
    9.1350    7.2708   24.4157 O   0  0  0  0  0  0  0  0  0  0  0  0
   13.8500   -0.6984   22.0606 O   0  0  0  0  0  0  0  0  0  0  0  0
    9.0179    1.6937   25.1659 H   0  0  0  0  0  0  0  0  0  0  0  0
   10.3656    5.4119   22.1119 H   0  0  0  0  0  0  0  0  0  0  0  0
  1  2  2  0  0  0  0
  1  7  1  0  0  0  0
  2  8  1  0  0  0  0
  3  5  1  0  0  0  0
  3  8  2  0  0  0  0
  4  6  2  0  0  0  0
  4 14  1  0  0  0  0
  5  6  1  0  0  0  0
  5  7  2  0  0  0  0
  6 12  1  0  0  0  0
  7 14  1  0  0  0  0
  8 17  1  0  0  0  0
  9 10  1  0  0  0  0
  9 15  1  0  0  0  0
  9 16  2  0  0  0  0
 11 17  1  0  0  0  0
 12 13  1  0  0  0  0
 13 15  1  0  0  0  0
 14 18  1  0  0  0  0
 15 19  1  0  0  0  0
M  END
> <ref_mols>
x2394_0

> <original SMILES>
CC(NCCC1=CNC2=CC=C(OC)C=C21)=O

> <Chemgauss4>
-8.913157

> <ref_pdb>
x0104_0

$$$$
x2395
  -OEChem-05172015543D

 19 20  0     0  0  0  0  0  0999 V2000
   10.7268   -0.2504   23.9310 C   0  0  0  0  0  0  0  0  0  0  0  0
   11.7849   -0.8493   23.2412 C   0  0  0  0  0  0  0  0  0  0  0  0
   12.8509    1.3042   22.8900 C   0  0  0  0  0  0  0  0  0  0  0  0
   10.3060    3.2810   24.6152 C   0  0  0  0  0  0  0  0  0  0  0  0
   11.7950    1.9302   23.5818 C   0  0  0  0  0  0  0  0  0  0  0  0
   11.4955    3.2786   23.9239 C   0  0  0  0  0  0  0  0  0  0  0  0
   10.7594    1.1400   24.0853 C   0  0  0  0  0  0  0  0  0  0  0  0
   12.8316   -0.0859   22.7280 C   0  0  0  0  0  0  0  0  0  0  0  0
    9.2671    6.6294   23.3799 C   0  0  0  0  0  0  0  0  0  0  0  0
    8.1507    6.5924   22.3897 C   0  0  0  0  0  0  0  0  0  0  0  0
   13.7766   -2.1162   21.9276 C   0  0  0  0  0  0  0  0  0  0  0  0
   12.3081    4.4688   23.6014 C   0  0  0  0  0  0  0  0  0  0  0  0
   11.5735    5.8057   23.8097 C   0  0  0  0  0  0  0  0  0  0  0  0
    9.8699    1.9865   24.7078 N   0  0  0  0  0  0  0  0  0  0  0  0
   10.3856    5.9028   23.0044 N   0  0  0  0  0  0  0  0  0  0  0  0
    9.1350    7.2708   24.4157 O   0  0  0  0  0  0  0  0  0  0  0  0
   13.8500   -0.6984   22.0606 O   0  0  0  0  0  0  0  0  0  0  0  0
    9.0179    1.6937   25.1659 H   0  0  0  0  0  0  0  0  0  0  0  0
   10.3656    5.4119   22.1119 H   0  0  0  0  0  0  0  0  0  0  0  0
  1  2  2  0  0  0  0
  1  7  1  0  0  0  0
  2  8  1  0  0  0  0
  3  5  1  0  0  0  0
  3  8  2  0  0  0  0
  4  6  2  0  0  0  0
  4 14  1  0  0  0  0
  5  6  1  0  0  0  0
  5  7  2  0  0  0  0
  6 12  1  0  0  0  0
  7 14  1  0  0  0  0
  8 17  1  0  0  0  0
  9 10  1  0  0  0  0
  9 15  1  0  0  0  0
  9 16  2  0  0  0  0
 11 17  1  0  0  0  0
 12 13  1  0  0  0  0
 13 15  1  0  0  0  0
 14 18  1  0  0  0  0
 15 19  1  0  0  0  0
M  END
> <ref_mols>
x2395_0

> <original SMILES>
CC(NCCC1=CNC2=CC=C(OC)C=C21)=O

> <Chemgauss4>
-8.913157

> <ref_pdb>
x0104_0

$$$$
x2389
  -OEChem-05172015543D

 19 20  0     0  0  0  0  0  0999 V2000
   10.7268   -0.2504   23.9310 C   0  0  0  0  0  0  0  0  0  0  0  0
   11.7849   -0.8493   23.2412 C   0  0  0  0  0  0  0  0  0  0  0  0
   12.8509    1.3042   22.8900 C   0  0  0  0  0  0  0  0  0  0  0  0
   10.3060    3.2810   24.6152 C   0  0  0  0  0  0  0  0  0  0  0  0
   11.7950    1.9302   23.5818 C   0  0  0  0  0  0  0  0  0  0  0  0
   11.4955    3.2786   23.9239 C   0  0  0  0  0  0  0  0  0  0  0  0
   10.7594    1.1400   24.0853 C   0  0  0  0  0  0  0  0  0  0  0  0
   12.8316   -0.0859   22.7280 C   0  0  0  0  0  0  0  0  0  0  0  0
    9.2671    6.6294   23.3799 C   0  0  0  0  0  0  0  0  0  0  0  0
    8.1507    6.5924   22.3897 C   0  0  0  0  0  0  0  0  0  0  0  0
   13.7766   -2.1162   21.9276 C   0  0  0  0  0  0  0  0  0  0  0  0
   12.3081    4.4688   23.6014 C   0  0  0  0  0  0  0  0  0  0  0  0
   11.5735    5.8057   23.8097 C   0  0  0  0  0  0  0  0  0  0  0  0
    9.8699    1.9865   24.7078 N   0  0  0  0  0  0  0  0  0  0  0  0
   10.3856    5.9028   23.0044 N   0  0  0  0  0  0  0  0  0  0  0  0
    9.1350    7.2708   24.4157 O   0  0  0  0  0  0  0  0  0  0  0  0
   13.8500   -0.6984   22.0606 O   0  0  0  0  0  0  0  0  0  0  0  0
    9.0179    1.6937   25.1659 H   0  0  0  0  0  0  0  0  0  0  0  0
   10.3656    5.4119   22.1119 H   0  0  0  0  0  0  0  0  0  0  0  0
  1  2  2  0  0  0  0
  1  7  1  0  0  0  0
  2  8  1  0  0  0  0
  3  5  1  0  0  0  0
  3  8  2  0  0  0  0
  4  6  2  0  0  0  0
  4 14  1  0  0  0  0
  5  6  1  0  0  0  0
  5  7  2  0  0  0  0
  6 12  1  0  0  0  0
  7 14  1  0  0  0  0
  8 17  1  0  0  0  0
  9 10  1  0  0  0  0
  9 15  1  0  0  0  0
  9 16  2  0  0  0  0
 11 17  1  0  0  0  0
 12 13  1  0  0  0  0
 13 15  1  0  0  0  0
 14 18  1  0  0  0  0
 15 19  1  0  0  0  0
M  END
> <ref_mols>
x2389_0

> <original SMILES>
CC(NCCC1=CNC2=CC=C(OC)C=C21)=O

> <Chemgauss4>
-8.913157

> <ref_pdb>
x0104_0

$$$$
x2391
  -OEChem-05172015543D

 19 20  0     0  0  0  0  0  0999 V2000
   10.7268   -0.2504   23.9310 C   0  0  0  0  0  0  0  0  0  0  0  0
   11.7849   -0.8493   23.2412 C   0  0  0  0  0  0  0  0  0  0  0  0
   12.8509    1.3042   22.8900 C   0  0  0  0  0  0  0  0  0  0  0  0
   10.3060    3.2810   24.6152 C   0  0  0  0  0  0  0  0  0  0  0  0
   11.7950    1.9302   23.5818 C   0  0  0  0  0  0  0  0  0  0  0  0
   11.4955    3.2786   23.9239 C   0  0  0  0  0  0  0  0  0  0  0  0
   10.7594    1.1400   24.0853 C   0  0  0  0  0  0  0  0  0  0  0  0
   12.8316   -0.0859   22.7280 C   0  0  0  0  0  0  0  0  0  0  0  0
    9.2671    6.6294   23.3799 C   0  0  0  0  0  0  0  0  0  0  0  0
    8.1507    6.5924   22.3897 C   0  0  0  0  0  0  0  0  0  0  0  0
   13.7766   -2.1162   21.9276 C   0  0  0  0  0  0  0  0  0  0  0  0
   12.3081    4.4688   23.6014 C   0  0  0  0  0  0  0  0  0  0  0  0
   11.5735    5.8057   23.8097 C   0  0  0  0  0  0  0  0  0  0  0  0
    9.8699    1.9865   24.7078 N   0  0  0  0  0  0  0  0  0  0  0  0
   10.3856    5.9028   23.0044 N   0  0  0  0  0  0  0  0  0  0  0  0
    9.1350    7.2708   24.4157 O   0  0  0  0  0  0  0  0  0  0  0  0
   13.8500   -0.6984   22.0606 O   0  0  0  0  0  0  0  0  0  0  0  0
    9.0179    1.6937   25.1659 H   0  0  0  0  0  0  0  0  0  0  0  0
   10.3656    5.4119   22.1119 H   0  0  0  0  0  0  0  0  0  0  0  0
  1  2  2  0  0  0  0
  1  7  1  0  0  0  0
  2  8  1  0  0  0  0
  3  5  1  0  0  0  0
  3  8  2  0  0  0  0
  4  6  2  0  0  0  0
  4 14  1  0  0  0  0
  5  6  1  0  0  0  0
  5  7  2  0  0  0  0
  6 12  1  0  0  0  0
  7 14  1  0  0  0  0
  8 17  1  0  0  0  0
  9 10  1  0  0  0  0
  9 15  1  0  0  0  0
  9 16  2  0  0  0  0
 11 17  1  0  0  0  0
 12 13  1  0  0  0  0
 13 15  1  0  0  0  0
 14 18  1  0  0  0  0
 15 19  1  0  0  0  0
M  END
> <ref_mols>
x2391_0

> <original SMILES>
CC(NCCC1=CNC2=CC=C(OC)C=C21)=O

> <Chemgauss4>
-8.913157

> <ref_pdb>
x0104_0

$$$$
x2390
  -OEChem-05172015543D

 19 20  0     0  0  0  0  0  0999 V2000
   10.7268   -0.2504   23.9310 C   0  0  0  0  0  0  0  0  0  0  0  0
   11.7849   -0.8493   23.2412 C   0  0  0  0  0  0  0  0  0  0  0  0
   12.8509    1.3042   22.8900 C   0  0  0  0  0  0  0  0  0  0  0  0
   10.3060    3.2810   24.6152 C   0  0  0  0  0  0  0  0  0  0  0  0
   11.7950    1.9302   23.5818 C   0  0  0  0  0  0  0  0  0  0  0  0
   11.4955    3.2786   23.9239 C   0  0  0  0  0  0  0  0  0  0  0  0
   10.7594    1.1400   24.0853 C   0  0  0  0  0  0  0  0  0  0  0  0
   12.8316   -0.0859   22.7280 C   0  0  0  0  0  0  0  0  0  0  0  0
    9.2671    6.6294   23.3799 C   0  0  0  0  0  0  0  0  0  0  0  0
    8.1507    6.5924   22.3897 C   0  0  0  0  0  0  0  0  0  0  0  0
   13.7766   -2.1162   21.9276 C   0  0  0  0  0  0  0  0  0  0  0  0
   12.3081    4.4688   23.6014 C   0  0  0  0  0  0  0  0  0  0  0  0
   11.5735    5.8057   23.8097 C   0  0  0  0  0  0  0  0  0  0  0  0
    9.8699    1.9865   24.7078 N   0  0  0  0  0  0  0  0  0  0  0  0
   10.3856    5.9028   23.0044 N   0  0  0  0  0  0  0  0  0  0  0  0
    9.1350    7.2708   24.4157 O   0  0  0  0  0  0  0  0  0  0  0  0
   13.8500   -0.6984   22.0606 O   0  0  0  0  0  0  0  0  0  0  0  0
    9.0179    1.6937   25.1659 H   0  0  0  0  0  0  0  0  0  0  0  0
   10.3656    5.4119   22.1119 H   0  0  0  0  0  0  0  0  0  0  0  0
  1  2  2  0  0  0  0
  1  7  1  0  0  0  0
  2  8  1  0  0  0  0
  3  5  1  0  0  0  0
  3  8  2  0  0  0  0
  4  6  2  0  0  0  0
  4 14  1  0  0  0  0
  5  6  1  0  0  0  0
  5  7  2  0  0  0  0
  6 12  1  0  0  0  0
  7 14  1  0  0  0  0
  8 17  1  0  0  0  0
  9 10  1  0  0  0  0
  9 15  1  0  0  0  0
  9 16  2  0  0  0  0
 11 17  1  0  0  0  0
 12 13  1  0  0  0  0
 13 15  1  0  0  0  0
 14 18  1  0  0  0  0
 15 19  1  0  0  0  0
M  END
> <ref_mols>
x2390_0

> <original SMILES>
CC(NCCC1=CNC2=CC=C(OC)C=C21)=O

> <Chemgauss4>
-8.913157

> <ref_pdb>
x0104_0

$$$$
x2503
  -OEChem-05172015543D

 19 20  0     0  0  0  0  0  0999 V2000
   10.7268   -0.2504   23.9310 C   0  0  0  0  0  0  0  0  0  0  0  0
   11.7849   -0.8493   23.2412 C   0  0  0  0  0  0  0  0  0  0  0  0
   12.8509    1.3042   22.8900 C   0  0  0  0  0  0  0  0  0  0  0  0
   10.3060    3.2810   24.6152 C   0  0  0  0  0  0  0  0  0  0  0  0
   11.7950    1.9302   23.5818 C   0  0  0  0  0  0  0  0  0  0  0  0
   11.4955    3.2786   23.9239 C   0  0  0  0  0  0  0  0  0  0  0  0
   10.7594    1.1400   24.0853 C   0  0  0  0  0  0  0  0  0  0  0  0
   12.8316   -0.0859   22.7280 C   0  0  0  0  0  0  0  0  0  0  0  0
    9.2671    6.6294   23.3799 C   0  0  0  0  0  0  0  0  0  0  0  0
    8.1507    6.5924   22.3897 C   0  0  0  0  0  0  0  0  0  0  0  0
   13.7766   -2.1162   21.9276 C   0  0  0  0  0  0  0  0  0  0  0  0
   12.3081    4.4688   23.6014 C   0  0  0  0  0  0  0  0  0  0  0  0
   11.5735    5.8057   23.8097 C   0  0  0  0  0  0  0  0  0  0  0  0
    9.8699    1.9865   24.7078 N   0  0  0  0  0  0  0  0  0  0  0  0
   10.3856    5.9028   23.0044 N   0  0  0  0  0  0  0  0  0  0  0  0
    9.1350    7.2708   24.4157 O   0  0  0  0  0  0  0  0  0  0  0  0
   13.8500   -0.6984   22.0606 O   0  0  0  0  0  0  0  0  0  0  0  0
    9.0179    1.6937   25.1659 H   0  0  0  0  0  0  0  0  0  0  0  0
   10.3656    5.4119   22.1119 H   0  0  0  0  0  0  0  0  0  0  0  0
  1  2  2  0  0  0  0
  1  7  1  0  0  0  0
  2  8  1  0  0  0  0
  3  5  1  0  0  0  0
  3  8  2  0  0  0  0
  4  6  2  0  0  0  0
  4 14  1  0  0  0  0
  5  6  1  0  0  0  0
  5  7  2  0  0  0  0
  6 12  1  0  0  0  0
  7 14  1  0  0  0  0
  8 17  1  0  0  0  0
  9 10  1  0  0  0  0
  9 15  1  0  0  0  0
  9 16  2  0  0  0  0
 11 17  1  0  0  0  0
 12 13  1  0  0  0  0
 13 15  1  0  0  0  0
 14 18  1  0  0  0  0
 15 19  1  0  0  0  0
M  END
> <ref_mols>
x2503_0

> <original SMILES>
COC=1C=CC=2NC=C(CCNC(=O)C)C2C1

> <Chemgauss4>
-8.913157

> <ref_pdb>
x0104_0

$$$$
x2378
  -OEChem-05172015543D

 19 20  0     0  0  0  0  0  0999 V2000
   10.7268   -0.2504   23.9310 C   0  0  0  0  0  0  0  0  0  0  0  0
   11.7849   -0.8493   23.2412 C   0  0  0  0  0  0  0  0  0  0  0  0
   12.8509    1.3042   22.8900 C   0  0  0  0  0  0  0  0  0  0  0  0
   10.3060    3.2810   24.6152 C   0  0  0  0  0  0  0  0  0  0  0  0
   11.7950    1.9302   23.5818 C   0  0  0  0  0  0  0  0  0  0  0  0
   11.4955    3.2786   23.9239 C   0  0  0  0  0  0  0  0  0  0  0  0
   10.7594    1.1400   24.0853 C   0  0  0  0  0  0  0  0  0  0  0  0
   12.8316   -0.0859   22.7280 C   0  0  0  0  0  0  0  0  0  0  0  0
    9.2671    6.6294   23.3799 C   0  0  0  0  0  0  0  0  0  0  0  0
    8.1507    6.5924   22.3897 C   0  0  0  0  0  0  0  0  0  0  0  0
   13.7766   -2.1162   21.9276 C   0  0  0  0  0  0  0  0  0  0  0  0
   12.3081    4.4688   23.6014 C   0  0  0  0  0  0  0  0  0  0  0  0
   11.5735    5.8057   23.8097 C   0  0  0  0  0  0  0  0  0  0  0  0
    9.8699    1.9865   24.7078 N   0  0  0  0  0  0  0  0  0  0  0  0
   10.3856    5.9028   23.0044 N   0  0  0  0  0  0  0  0  0  0  0  0
    9.1350    7.2708   24.4157 O   0  0  0  0  0  0  0  0  0  0  0  0
   13.8500   -0.6984   22.0606 O   0  0  0  0  0  0  0  0  0  0  0  0
    9.0179    1.6937   25.1659 H   0  0  0  0  0  0  0  0  0  0  0  0
   10.3656    5.4119   22.1119 H   0  0  0  0  0  0  0  0  0  0  0  0
  1  2  2  0  0  0  0
  1  7  1  0  0  0  0
  2  8  1  0  0  0  0
  3  5  1  0  0  0  0
  3  8  2  0  0  0  0
  4  6  2  0  0  0  0
  4 14  1  0  0  0  0
  5  6  1  0  0  0  0
  5  7  2  0  0  0  0
  6 12  1  0  0  0  0
  7 14  1  0  0  0  0
  8 17  1  0  0  0  0
  9 10  1  0  0  0  0
  9 15  1  0  0  0  0
  9 16  2  0  0  0  0
 11 17  1  0  0  0  0
 12 13  1  0  0  0  0
 13 15  1  0  0  0  0
 14 18  1  0  0  0  0
 15 19  1  0  0  0  0
M  END
> <ref_mols>
x2378_0

> <original SMILES>
CC(NCCC1=CNC2=CC=C(OC)C=C21)=O

> <Chemgauss4>
-8.913157

> <ref_pdb>
x0104_0

$$$$
x2385
  -OEChem-05172015543D

 19 20  0     0  0  0  0  0  0999 V2000
   10.7268   -0.2504   23.9310 C   0  0  0  0  0  0  0  0  0  0  0  0
   11.7849   -0.8493   23.2412 C   0  0  0  0  0  0  0  0  0  0  0  0
   12.8509    1.3042   22.8900 C   0  0  0  0  0  0  0  0  0  0  0  0
   10.3060    3.2810   24.6152 C   0  0  0  0  0  0  0  0  0  0  0  0
   11.7950    1.9302   23.5818 C   0  0  0  0  0  0  0  0  0  0  0  0
   11.4955    3.2786   23.9239 C   0  0  0  0  0  0  0  0  0  0  0  0
   10.7594    1.1400   24.0853 C   0  0  0  0  0  0  0  0  0  0  0  0
   12.8316   -0.0859   22.7280 C   0  0  0  0  0  0  0  0  0  0  0  0
    9.2671    6.6294   23.3799 C   0  0  0  0  0  0  0  0  0  0  0  0
    8.1507    6.5924   22.3897 C   0  0  0  0  0  0  0  0  0  0  0  0
   13.7766   -2.1162   21.9276 C   0  0  0  0  0  0  0  0  0  0  0  0
   12.3081    4.4688   23.6014 C   0  0  0  0  0  0  0  0  0  0  0  0
   11.5735    5.8057   23.8097 C   0  0  0  0  0  0  0  0  0  0  0  0
    9.8699    1.9865   24.7078 N   0  0  0  0  0  0  0  0  0  0  0  0
   10.3856    5.9028   23.0044 N   0  0  0  0  0  0  0  0  0  0  0  0
    9.1350    7.2708   24.4157 O   0  0  0  0  0  0  0  0  0  0  0  0
   13.8500   -0.6984   22.0606 O   0  0  0  0  0  0  0  0  0  0  0  0
    9.0179    1.6937   25.1659 H   0  0  0  0  0  0  0  0  0  0  0  0
   10.3656    5.4119   22.1119 H   0  0  0  0  0  0  0  0  0  0  0  0
  1  2  2  0  0  0  0
  1  7  1  0  0  0  0
  2  8  1  0  0  0  0
  3  5  1  0  0  0  0
  3  8  2  0  0  0  0
  4  6  2  0  0  0  0
  4 14  1  0  0  0  0
  5  6  1  0  0  0  0
  5  7  2  0  0  0  0
  6 12  1  0  0  0  0
  7 14  1  0  0  0  0
  8 17  1  0  0  0  0
  9 10  1  0  0  0  0
  9 15  1  0  0  0  0
  9 16  2  0  0  0  0
 11 17  1  0  0  0  0
 12 13  1  0  0  0  0
 13 15  1  0  0  0  0
 14 18  1  0  0  0  0
 15 19  1  0  0  0  0
M  END
> <ref_mols>
x2385_0

> <original SMILES>
CC(NCCC1=CNC2=CC=C(OC)C=C21)=O

> <Chemgauss4>
-8.913157

> <ref_pdb>
x0104_0

$$$$
x2388
  -OEChem-05172015543D

 19 20  0     0  0  0  0  0  0999 V2000
   10.7268   -0.2504   23.9310 C   0  0  0  0  0  0  0  0  0  0  0  0
   11.7849   -0.8493   23.2412 C   0  0  0  0  0  0  0  0  0  0  0  0
   12.8509    1.3042   22.8900 C   0  0  0  0  0  0  0  0  0  0  0  0
   10.3060    3.2810   24.6152 C   0  0  0  0  0  0  0  0  0  0  0  0
   11.7950    1.9302   23.5818 C   0  0  0  0  0  0  0  0  0  0  0  0
   11.4955    3.2786   23.9239 C   0  0  0  0  0  0  0  0  0  0  0  0
   10.7594    1.1400   24.0853 C   0  0  0  0  0  0  0  0  0  0  0  0
   12.8316   -0.0859   22.7280 C   0  0  0  0  0  0  0  0  0  0  0  0
    9.2671    6.6294   23.3799 C   0  0  0  0  0  0  0  0  0  0  0  0
    8.1507    6.5924   22.3897 C   0  0  0  0  0  0  0  0  0  0  0  0
   13.7766   -2.1162   21.9276 C   0  0  0  0  0  0  0  0  0  0  0  0
   12.3081    4.4688   23.6014 C   0  0  0  0  0  0  0  0  0  0  0  0
   11.5735    5.8057   23.8097 C   0  0  0  0  0  0  0  0  0  0  0  0
    9.8699    1.9865   24.7078 N   0  0  0  0  0  0  0  0  0  0  0  0
   10.3856    5.9028   23.0044 N   0  0  0  0  0  0  0  0  0  0  0  0
    9.1350    7.2708   24.4157 O   0  0  0  0  0  0  0  0  0  0  0  0
   13.8500   -0.6984   22.0606 O   0  0  0  0  0  0  0  0  0  0  0  0
    9.0179    1.6937   25.1659 H   0  0  0  0  0  0  0  0  0  0  0  0
   10.3656    5.4119   22.1119 H   0  0  0  0  0  0  0  0  0  0  0  0
  1  2  2  0  0  0  0
  1  7  1  0  0  0  0
  2  8  1  0  0  0  0
  3  5  1  0  0  0  0
  3  8  2  0  0  0  0
  4  6  2  0  0  0  0
  4 14  1  0  0  0  0
  5  6  1  0  0  0  0
  5  7  2  0  0  0  0
  6 12  1  0  0  0  0
  7 14  1  0  0  0  0
  8 17  1  0  0  0  0
  9 10  1  0  0  0  0
  9 15  1  0  0  0  0
  9 16  2  0  0  0  0
 11 17  1  0  0  0  0
 12 13  1  0  0  0  0
 13 15  1  0  0  0  0
 14 18  1  0  0  0  0
 15 19  1  0  0  0  0
M  END
> <ref_mols>
x2388_0

> <original SMILES>
CC(NCCC1=CNC2=CC=C(OC)C=C21)=O

> <Chemgauss4>
-8.913157

> <ref_pdb>
x0104_0

$$$$
x2380
  -OEChem-05172015543D

 19 20  0     0  0  0  0  0  0999 V2000
   10.7268   -0.2504   23.9310 C   0  0  0  0  0  0  0  0  0  0  0  0
   11.7849   -0.8493   23.2412 C   0  0  0  0  0  0  0  0  0  0  0  0
   12.8509    1.3042   22.8900 C   0  0  0  0  0  0  0  0  0  0  0  0
   10.3060    3.2810   24.6152 C   0  0  0  0  0  0  0  0  0  0  0  0
   11.7950    1.9302   23.5818 C   0  0  0  0  0  0  0  0  0  0  0  0
   11.4955    3.2786   23.9239 C   0  0  0  0  0  0  0  0  0  0  0  0
   10.7594    1.1400   24.0853 C   0  0  0  0  0  0  0  0  0  0  0  0
   12.8316   -0.0859   22.7280 C   0  0  0  0  0  0  0  0  0  0  0  0
    9.2671    6.6294   23.3799 C   0  0  0  0  0  0  0  0  0  0  0  0
    8.1507    6.5924   22.3897 C   0  0  0  0  0  0  0  0  0  0  0  0
   13.7766   -2.1162   21.9276 C   0  0  0  0  0  0  0  0  0  0  0  0
   12.3081    4.4688   23.6014 C   0  0  0  0  0  0  0  0  0  0  0  0
   11.5735    5.8057   23.8097 C   0  0  0  0  0  0  0  0  0  0  0  0
    9.8699    1.9865   24.7078 N   0  0  0  0  0  0  0  0  0  0  0  0
   10.3856    5.9028   23.0044 N   0  0  0  0  0  0  0  0  0  0  0  0
    9.1350    7.2708   24.4157 O   0  0  0  0  0  0  0  0  0  0  0  0
   13.8500   -0.6984   22.0606 O   0  0  0  0  0  0  0  0  0  0  0  0
    9.0179    1.6937   25.1659 H   0  0  0  0  0  0  0  0  0  0  0  0
   10.3656    5.4119   22.1119 H   0  0  0  0  0  0  0  0  0  0  0  0
  1  2  2  0  0  0  0
  1  7  1  0  0  0  0
  2  8  1  0  0  0  0
  3  5  1  0  0  0  0
  3  8  2  0  0  0  0
  4  6  2  0  0  0  0
  4 14  1  0  0  0  0
  5  6  1  0  0  0  0
  5  7  2  0  0  0  0
  6 12  1  0  0  0  0
  7 14  1  0  0  0  0
  8 17  1  0  0  0  0
  9 10  1  0  0  0  0
  9 15  1  0  0  0  0
  9 16  2  0  0  0  0
 11 17  1  0  0  0  0
 12 13  1  0  0  0  0
 13 15  1  0  0  0  0
 14 18  1  0  0  0  0
 15 19  1  0  0  0  0
M  END
> <ref_mols>
x2380_0

> <original SMILES>
CC(NCCC1=CNC2=CC=C(OC)C=C21)=O

> <Chemgauss4>
-8.913157

> <ref_pdb>
x0104_0

$$$$
x2381
  -OEChem-05172015543D

 19 20  0     0  0  0  0  0  0999 V2000
   10.7268   -0.2504   23.9310 C   0  0  0  0  0  0  0  0  0  0  0  0
   11.7849   -0.8493   23.2412 C   0  0  0  0  0  0  0  0  0  0  0  0
   12.8509    1.3042   22.8900 C   0  0  0  0  0  0  0  0  0  0  0  0
   10.3060    3.2810   24.6152 C   0  0  0  0  0  0  0  0  0  0  0  0
   11.7950    1.9302   23.5818 C   0  0  0  0  0  0  0  0  0  0  0  0
   11.4955    3.2786   23.9239 C   0  0  0  0  0  0  0  0  0  0  0  0
   10.7594    1.1400   24.0853 C   0  0  0  0  0  0  0  0  0  0  0  0
   12.8316   -0.0859   22.7280 C   0  0  0  0  0  0  0  0  0  0  0  0
    9.2671    6.6294   23.3799 C   0  0  0  0  0  0  0  0  0  0  0  0
    8.1507    6.5924   22.3897 C   0  0  0  0  0  0  0  0  0  0  0  0
   13.7766   -2.1162   21.9276 C   0  0  0  0  0  0  0  0  0  0  0  0
   12.3081    4.4688   23.6014 C   0  0  0  0  0  0  0  0  0  0  0  0
   11.5735    5.8057   23.8097 C   0  0  0  0  0  0  0  0  0  0  0  0
    9.8699    1.9865   24.7078 N   0  0  0  0  0  0  0  0  0  0  0  0
   10.3856    5.9028   23.0044 N   0  0  0  0  0  0  0  0  0  0  0  0
    9.1350    7.2708   24.4157 O   0  0  0  0  0  0  0  0  0  0  0  0
   13.8500   -0.6984   22.0606 O   0  0  0  0  0  0  0  0  0  0  0  0
    9.0179    1.6937   25.1659 H   0  0  0  0  0  0  0  0  0  0  0  0
   10.3656    5.4119   22.1119 H   0  0  0  0  0  0  0  0  0  0  0  0
  1  2  2  0  0  0  0
  1  7  1  0  0  0  0
  2  8  1  0  0  0  0
  3  5  1  0  0  0  0
  3  8  2  0  0  0  0
  4  6  2  0  0  0  0
  4 14  1  0  0  0  0
  5  6  1  0  0  0  0
  5  7  2  0  0  0  0
  6 12  1  0  0  0  0
  7 14  1  0  0  0  0
  8 17  1  0  0  0  0
  9 10  1  0  0  0  0
  9 15  1  0  0  0  0
  9 16  2  0  0  0  0
 11 17  1  0  0  0  0
 12 13  1  0  0  0  0
 13 15  1  0  0  0  0
 14 18  1  0  0  0  0
 15 19  1  0  0  0  0
M  END
> <ref_mols>
x2381_0

> <original SMILES>
CC(NCCC1=CNC2=CC=C(OC)C=C21)=O

> <Chemgauss4>
-8.913157

> <ref_pdb>
x0104_0

$$$$
x2383
  -OEChem-05172015543D

 19 20  0     0  0  0  0  0  0999 V2000
   10.7268   -0.2504   23.9310 C   0  0  0  0  0  0  0  0  0  0  0  0
   11.7849   -0.8493   23.2412 C   0  0  0  0  0  0  0  0  0  0  0  0
   12.8509    1.3042   22.8900 C   0  0  0  0  0  0  0  0  0  0  0  0
   10.3060    3.2810   24.6152 C   0  0  0  0  0  0  0  0  0  0  0  0
   11.7950    1.9302   23.5818 C   0  0  0  0  0  0  0  0  0  0  0  0
   11.4955    3.2786   23.9239 C   0  0  0  0  0  0  0  0  0  0  0  0
   10.7594    1.1400   24.0853 C   0  0  0  0  0  0  0  0  0  0  0  0
   12.8316   -0.0859   22.7280 C   0  0  0  0  0  0  0  0  0  0  0  0
    9.2671    6.6294   23.3799 C   0  0  0  0  0  0  0  0  0  0  0  0
    8.1507    6.5924   22.3897 C   0  0  0  0  0  0  0  0  0  0  0  0
   13.7766   -2.1162   21.9276 C   0  0  0  0  0  0  0  0  0  0  0  0
   12.3081    4.4688   23.6014 C   0  0  0  0  0  0  0  0  0  0  0  0
   11.5735    5.8057   23.8097 C   0  0  0  0  0  0  0  0  0  0  0  0
    9.8699    1.9865   24.7078 N   0  0  0  0  0  0  0  0  0  0  0  0
   10.3856    5.9028   23.0044 N   0  0  0  0  0  0  0  0  0  0  0  0
    9.1350    7.2708   24.4157 O   0  0  0  0  0  0  0  0  0  0  0  0
   13.8500   -0.6984   22.0606 O   0  0  0  0  0  0  0  0  0  0  0  0
    9.0179    1.6937   25.1659 H   0  0  0  0  0  0  0  0  0  0  0  0
   10.3656    5.4119   22.1119 H   0  0  0  0  0  0  0  0  0  0  0  0
  1  2  2  0  0  0  0
  1  7  1  0  0  0  0
  2  8  1  0  0  0  0
  3  5  1  0  0  0  0
  3  8  2  0  0  0  0
  4  6  2  0  0  0  0
  4 14  1  0  0  0  0
  5  6  1  0  0  0  0
  5  7  2  0  0  0  0
  6 12  1  0  0  0  0
  7 14  1  0  0  0  0
  8 17  1  0  0  0  0
  9 10  1  0  0  0  0
  9 15  1  0  0  0  0
  9 16  2  0  0  0  0
 11 17  1  0  0  0  0
 12 13  1  0  0  0  0
 13 15  1  0  0  0  0
 14 18  1  0  0  0  0
 15 19  1  0  0  0  0
M  END
> <ref_mols>
x2383_0

> <original SMILES>
CC(NCCC1=CNC2=CC=C(OC)C=C21)=O

> <Chemgauss4>
-8.913157

> <ref_pdb>
x0104_0

$$$$
x2397
  -OEChem-05172015543D

 19 20  0     0  0  0  0  0  0999 V2000
   10.7268   -0.2504   23.9310 C   0  0  0  0  0  0  0  0  0  0  0  0
   11.7849   -0.8493   23.2412 C   0  0  0  0  0  0  0  0  0  0  0  0
   12.8509    1.3042   22.8900 C   0  0  0  0  0  0  0  0  0  0  0  0
   10.3060    3.2810   24.6152 C   0  0  0  0  0  0  0  0  0  0  0  0
   11.7950    1.9302   23.5818 C   0  0  0  0  0  0  0  0  0  0  0  0
   11.4955    3.2786   23.9239 C   0  0  0  0  0  0  0  0  0  0  0  0
   10.7594    1.1400   24.0853 C   0  0  0  0  0  0  0  0  0  0  0  0
   12.8316   -0.0859   22.7280 C   0  0  0  0  0  0  0  0  0  0  0  0
    9.2671    6.6294   23.3799 C   0  0  0  0  0  0  0  0  0  0  0  0
    8.1507    6.5924   22.3897 C   0  0  0  0  0  0  0  0  0  0  0  0
   13.7766   -2.1162   21.9276 C   0  0  0  0  0  0  0  0  0  0  0  0
   12.3081    4.4688   23.6014 C   0  0  0  0  0  0  0  0  0  0  0  0
   11.5735    5.8057   23.8097 C   0  0  0  0  0  0  0  0  0  0  0  0
    9.8699    1.9865   24.7078 N   0  0  0  0  0  0  0  0  0  0  0  0
   10.3856    5.9028   23.0044 N   0  0  0  0  0  0  0  0  0  0  0  0
    9.1350    7.2708   24.4157 O   0  0  0  0  0  0  0  0  0  0  0  0
   13.8500   -0.6984   22.0606 O   0  0  0  0  0  0  0  0  0  0  0  0
    9.0179    1.6937   25.1659 H   0  0  0  0  0  0  0  0  0  0  0  0
   10.3656    5.4119   22.1119 H   0  0  0  0  0  0  0  0  0  0  0  0
  1  2  2  0  0  0  0
  1  7  1  0  0  0  0
  2  8  1  0  0  0  0
  3  5  1  0  0  0  0
  3  8  2  0  0  0  0
  4  6  2  0  0  0  0
  4 14  1  0  0  0  0
  5  6  1  0  0  0  0
  5  7  2  0  0  0  0
  6 12  1  0  0  0  0
  7 14  1  0  0  0  0
  8 17  1  0  0  0  0
  9 10  1  0  0  0  0
  9 15  1  0  0  0  0
  9 16  2  0  0  0  0
 11 17  1  0  0  0  0
 12 13  1  0  0  0  0
 13 15  1  0  0  0  0
 14 18  1  0  0  0  0
 15 19  1  0  0  0  0
M  END
> <ref_mols>
x2397_0

> <original SMILES>
CC(NCCC1=CNC2=CC=C(OC)C=C21)=O

> <Chemgauss4>
-8.913157

> <ref_pdb>
x0104_0

$$$$
x2671
  -OEChem-05172015543D

 19 20  0     0  0  0  0  0  0999 V2000
   10.7268   -0.2504   23.9310 C   0  0  0  0  0  0  0  0  0  0  0  0
   11.7849   -0.8493   23.2412 C   0  0  0  0  0  0  0  0  0  0  0  0
   12.8509    1.3042   22.8900 C   0  0  0  0  0  0  0  0  0  0  0  0
   10.3060    3.2810   24.6152 C   0  0  0  0  0  0  0  0  0  0  0  0
   11.7950    1.9302   23.5818 C   0  0  0  0  0  0  0  0  0  0  0  0
   11.4955    3.2786   23.9239 C   0  0  0  0  0  0  0  0  0  0  0  0
   10.7594    1.1400   24.0853 C   0  0  0  0  0  0  0  0  0  0  0  0
   12.8316   -0.0859   22.7280 C   0  0  0  0  0  0  0  0  0  0  0  0
    9.2671    6.6294   23.3799 C   0  0  0  0  0  0  0  0  0  0  0  0
    8.1507    6.5924   22.3897 C   0  0  0  0  0  0  0  0  0  0  0  0
   13.7766   -2.1162   21.9276 C   0  0  0  0  0  0  0  0  0  0  0  0
   12.3081    4.4688   23.6014 C   0  0  0  0  0  0  0  0  0  0  0  0
   11.5735    5.8057   23.8097 C   0  0  0  0  0  0  0  0  0  0  0  0
    9.8699    1.9865   24.7078 N   0  0  0  0  0  0  0  0  0  0  0  0
   10.3856    5.9028   23.0044 N   0  0  0  0  0  0  0  0  0  0  0  0
    9.1350    7.2708   24.4157 O   0  0  0  0  0  0  0  0  0  0  0  0
   13.8500   -0.6984   22.0606 O   0  0  0  0  0  0  0  0  0  0  0  0
    9.0179    1.6937   25.1659 H   0  0  0  0  0  0  0  0  0  0  0  0
   10.3656    5.4119   22.1119 H   0  0  0  0  0  0  0  0  0  0  0  0
  1  2  2  0  0  0  0
  1  7  1  0  0  0  0
  2  8  1  0  0  0  0
  3  5  1  0  0  0  0
  3  8  2  0  0  0  0
  4  6  2  0  0  0  0
  4 14  1  0  0  0  0
  5  6  1  0  0  0  0
  5  7  2  0  0  0  0
  6 12  1  0  0  0  0
  7 14  1  0  0  0  0
  8 17  1  0  0  0  0
  9 10  1  0  0  0  0
  9 15  1  0  0  0  0
  9 16  2  0  0  0  0
 11 17  1  0  0  0  0
 12 13  1  0  0  0  0
 13 15  1  0  0  0  0
 14 18  1  0  0  0  0
 15 19  1  0  0  0  0
M  END
> <ref_mols>
x2671_0

> <original SMILES>
COC=1C=CC=2NC=C(CCNC(=O)C)C2C1

> <Chemgauss4>
-8.913157

> <ref_pdb>
x0104_0

$$$$
x2387
  -OEChem-05172015543D

 19 20  0     0  0  0  0  0  0999 V2000
   10.7268   -0.2504   23.9310 C   0  0  0  0  0  0  0  0  0  0  0  0
   11.7849   -0.8493   23.2412 C   0  0  0  0  0  0  0  0  0  0  0  0
   12.8509    1.3042   22.8900 C   0  0  0  0  0  0  0  0  0  0  0  0
   10.3060    3.2810   24.6152 C   0  0  0  0  0  0  0  0  0  0  0  0
   11.7950    1.9302   23.5818 C   0  0  0  0  0  0  0  0  0  0  0  0
   11.4955    3.2786   23.9239 C   0  0  0  0  0  0  0  0  0  0  0  0
   10.7594    1.1400   24.0853 C   0  0  0  0  0  0  0  0  0  0  0  0
   12.8316   -0.0859   22.7280 C   0  0  0  0  0  0  0  0  0  0  0  0
    9.2671    6.6294   23.3799 C   0  0  0  0  0  0  0  0  0  0  0  0
    8.1507    6.5924   22.3897 C   0  0  0  0  0  0  0  0  0  0  0  0
   13.7766   -2.1162   21.9276 C   0  0  0  0  0  0  0  0  0  0  0  0
   12.3081    4.4688   23.6014 C   0  0  0  0  0  0  0  0  0  0  0  0
   11.5735    5.8057   23.8097 C   0  0  0  0  0  0  0  0  0  0  0  0
    9.8699    1.9865   24.7078 N   0  0  0  0  0  0  0  0  0  0  0  0
   10.3856    5.9028   23.0044 N   0  0  0  0  0  0  0  0  0  0  0  0
    9.1350    7.2708   24.4157 O   0  0  0  0  0  0  0  0  0  0  0  0
   13.8500   -0.6984   22.0606 O   0  0  0  0  0  0  0  0  0  0  0  0
    9.0179    1.6937   25.1659 H   0  0  0  0  0  0  0  0  0  0  0  0
   10.3656    5.4119   22.1119 H   0  0  0  0  0  0  0  0  0  0  0  0
  1  2  2  0  0  0  0
  1  7  1  0  0  0  0
  2  8  1  0  0  0  0
  3  5  1  0  0  0  0
  3  8  2  0  0  0  0
  4  6  2  0  0  0  0
  4 14  1  0  0  0  0
  5  6  1  0  0  0  0
  5  7  2  0  0  0  0
  6 12  1  0  0  0  0
  7 14  1  0  0  0  0
  8 17  1  0  0  0  0
  9 10  1  0  0  0  0
  9 15  1  0  0  0  0
  9 16  2  0  0  0  0
 11 17  1  0  0  0  0
 12 13  1  0  0  0  0
 13 15  1  0  0  0  0
 14 18  1  0  0  0  0
 15 19  1  0  0  0  0
M  END
> <ref_mols>
x2387_0

> <original SMILES>
CC(NCCC1=CNC2=CC=C(OC)C=C21)=O

> <Chemgauss4>
-8.913157

> <ref_pdb>
x0104_0

$$$$
x2386
  -OEChem-05172015543D

 19 20  0     0  0  0  0  0  0999 V2000
   10.7268   -0.2504   23.9310 C   0  0  0  0  0  0  0  0  0  0  0  0
   11.7849   -0.8493   23.2412 C   0  0  0  0  0  0  0  0  0  0  0  0
   12.8509    1.3042   22.8900 C   0  0  0  0  0  0  0  0  0  0  0  0
   10.3060    3.2810   24.6152 C   0  0  0  0  0  0  0  0  0  0  0  0
   11.7950    1.9302   23.5818 C   0  0  0  0  0  0  0  0  0  0  0  0
   11.4955    3.2786   23.9239 C   0  0  0  0  0  0  0  0  0  0  0  0
   10.7594    1.1400   24.0853 C   0  0  0  0  0  0  0  0  0  0  0  0
   12.8316   -0.0859   22.7280 C   0  0  0  0  0  0  0  0  0  0  0  0
    9.2671    6.6294   23.3799 C   0  0  0  0  0  0  0  0  0  0  0  0
    8.1507    6.5924   22.3897 C   0  0  0  0  0  0  0  0  0  0  0  0
   13.7766   -2.1162   21.9276 C   0  0  0  0  0  0  0  0  0  0  0  0
   12.3081    4.4688   23.6014 C   0  0  0  0  0  0  0  0  0  0  0  0
   11.5735    5.8057   23.8097 C   0  0  0  0  0  0  0  0  0  0  0  0
    9.8699    1.9865   24.7078 N   0  0  0  0  0  0  0  0  0  0  0  0
   10.3856    5.9028   23.0044 N   0  0  0  0  0  0  0  0  0  0  0  0
    9.1350    7.2708   24.4157 O   0  0  0  0  0  0  0  0  0  0  0  0
   13.8500   -0.6984   22.0606 O   0  0  0  0  0  0  0  0  0  0  0  0
    9.0179    1.6937   25.1659 H   0  0  0  0  0  0  0  0  0  0  0  0
   10.3656    5.4119   22.1119 H   0  0  0  0  0  0  0  0  0  0  0  0
  1  2  2  0  0  0  0
  1  7  1  0  0  0  0
  2  8  1  0  0  0  0
  3  5  1  0  0  0  0
  3  8  2  0  0  0  0
  4  6  2  0  0  0  0
  4 14  1  0  0  0  0
  5  6  1  0  0  0  0
  5  7  2  0  0  0  0
  6 12  1  0  0  0  0
  7 14  1  0  0  0  0
  8 17  1  0  0  0  0
  9 10  1  0  0  0  0
  9 15  1  0  0  0  0
  9 16  2  0  0  0  0
 11 17  1  0  0  0  0
 12 13  1  0  0  0  0
 13 15  1  0  0  0  0
 14 18  1  0  0  0  0
 15 19  1  0  0  0  0
M  END
> <ref_mols>
x2386_0

> <original SMILES>
CC(NCCC1=CNC2=CC=C(OC)C=C21)=O

> <Chemgauss4>
-8.913157

> <ref_pdb>
x0104_0

$$$$
x2399
  -OEChem-05172015543D

 19 20  0     0  0  0  0  0  0999 V2000
   10.7268   -0.2504   23.9310 C   0  0  0  0  0  0  0  0  0  0  0  0
   11.7849   -0.8493   23.2412 C   0  0  0  0  0  0  0  0  0  0  0  0
   12.8509    1.3042   22.8900 C   0  0  0  0  0  0  0  0  0  0  0  0
   10.3060    3.2810   24.6152 C   0  0  0  0  0  0  0  0  0  0  0  0
   11.7950    1.9302   23.5818 C   0  0  0  0  0  0  0  0  0  0  0  0
   11.4955    3.2786   23.9239 C   0  0  0  0  0  0  0  0  0  0  0  0
   10.7594    1.1400   24.0853 C   0  0  0  0  0  0  0  0  0  0  0  0
   12.8316   -0.0859   22.7280 C   0  0  0  0  0  0  0  0  0  0  0  0
    9.2671    6.6294   23.3799 C   0  0  0  0  0  0  0  0  0  0  0  0
    8.1507    6.5924   22.3897 C   0  0  0  0  0  0  0  0  0  0  0  0
   13.7766   -2.1162   21.9276 C   0  0  0  0  0  0  0  0  0  0  0  0
   12.3081    4.4688   23.6014 C   0  0  0  0  0  0  0  0  0  0  0  0
   11.5735    5.8057   23.8097 C   0  0  0  0  0  0  0  0  0  0  0  0
    9.8699    1.9865   24.7078 N   0  0  0  0  0  0  0  0  0  0  0  0
   10.3856    5.9028   23.0044 N   0  0  0  0  0  0  0  0  0  0  0  0
    9.1350    7.2708   24.4157 O   0  0  0  0  0  0  0  0  0  0  0  0
   13.8500   -0.6984   22.0606 O   0  0  0  0  0  0  0  0  0  0  0  0
    9.0179    1.6937   25.1659 H   0  0  0  0  0  0  0  0  0  0  0  0
   10.3656    5.4119   22.1119 H   0  0  0  0  0  0  0  0  0  0  0  0
  1  2  2  0  0  0  0
  1  7  1  0  0  0  0
  2  8  1  0  0  0  0
  3  5  1  0  0  0  0
  3  8  2  0  0  0  0
  4  6  2  0  0  0  0
  4 14  1  0  0  0  0
  5  6  1  0  0  0  0
  5  7  2  0  0  0  0
  6 12  1  0  0  0  0
  7 14  1  0  0  0  0
  8 17  1  0  0  0  0
  9 10  1  0  0  0  0
  9 15  1  0  0  0  0
  9 16  2  0  0  0  0
 11 17  1  0  0  0  0
 12 13  1  0  0  0  0
 13 15  1  0  0  0  0
 14 18  1  0  0  0  0
 15 19  1  0  0  0  0
M  END
> <ref_mols>
x2399_0

> <original SMILES>
CC(NCCC1=CNC2=CC=C(OC)C=C21)=O

> <Chemgauss4>
-8.913157

> <ref_pdb>
x0104_0

$$$$
x2400
  -OEChem-05172015543D

 19 20  0     0  0  0  0  0  0999 V2000
   10.7268   -0.2504   23.9310 C   0  0  0  0  0  0  0  0  0  0  0  0
   11.7849   -0.8493   23.2412 C   0  0  0  0  0  0  0  0  0  0  0  0
   12.8509    1.3042   22.8900 C   0  0  0  0  0  0  0  0  0  0  0  0
   10.3060    3.2810   24.6152 C   0  0  0  0  0  0  0  0  0  0  0  0
   11.7950    1.9302   23.5818 C   0  0  0  0  0  0  0  0  0  0  0  0
   11.4955    3.2786   23.9239 C   0  0  0  0  0  0  0  0  0  0  0  0
   10.7594    1.1400   24.0853 C   0  0  0  0  0  0  0  0  0  0  0  0
   12.8316   -0.0859   22.7280 C   0  0  0  0  0  0  0  0  0  0  0  0
    9.2671    6.6294   23.3799 C   0  0  0  0  0  0  0  0  0  0  0  0
    8.1507    6.5924   22.3897 C   0  0  0  0  0  0  0  0  0  0  0  0
   13.7766   -2.1162   21.9276 C   0  0  0  0  0  0  0  0  0  0  0  0
   12.3081    4.4688   23.6014 C   0  0  0  0  0  0  0  0  0  0  0  0
   11.5735    5.8057   23.8097 C   0  0  0  0  0  0  0  0  0  0  0  0
    9.8699    1.9865   24.7078 N   0  0  0  0  0  0  0  0  0  0  0  0
   10.3856    5.9028   23.0044 N   0  0  0  0  0  0  0  0  0  0  0  0
    9.1350    7.2708   24.4157 O   0  0  0  0  0  0  0  0  0  0  0  0
   13.8500   -0.6984   22.0606 O   0  0  0  0  0  0  0  0  0  0  0  0
    9.0179    1.6937   25.1659 H   0  0  0  0  0  0  0  0  0  0  0  0
   10.3656    5.4119   22.1119 H   0  0  0  0  0  0  0  0  0  0  0  0
  1  2  2  0  0  0  0
  1  7  1  0  0  0  0
  2  8  1  0  0  0  0
  3  5  1  0  0  0  0
  3  8  2  0  0  0  0
  4  6  2  0  0  0  0
  4 14  1  0  0  0  0
  5  6  1  0  0  0  0
  5  7  2  0  0  0  0
  6 12  1  0  0  0  0
  7 14  1  0  0  0  0
  8 17  1  0  0  0  0
  9 10  1  0  0  0  0
  9 15  1  0  0  0  0
  9 16  2  0  0  0  0
 11 17  1  0  0  0  0
 12 13  1  0  0  0  0
 13 15  1  0  0  0  0
 14 18  1  0  0  0  0
 15 19  1  0  0  0  0
M  END
> <ref_mols>
x2400_0

> <original SMILES>
CC(NCCC1=CNC2=CC=C(OC)C=C21)=O

> <Chemgauss4>
-8.913157

> <ref_pdb>
x0104_0

$$$$
x2396
  -OEChem-05172015543D

 19 20  0     0  0  0  0  0  0999 V2000
   10.7268   -0.2504   23.9310 C   0  0  0  0  0  0  0  0  0  0  0  0
   11.7849   -0.8493   23.2412 C   0  0  0  0  0  0  0  0  0  0  0  0
   12.8509    1.3042   22.8900 C   0  0  0  0  0  0  0  0  0  0  0  0
   10.3060    3.2810   24.6152 C   0  0  0  0  0  0  0  0  0  0  0  0
   11.7950    1.9302   23.5818 C   0  0  0  0  0  0  0  0  0  0  0  0
   11.4955    3.2786   23.9239 C   0  0  0  0  0  0  0  0  0  0  0  0
   10.7594    1.1400   24.0853 C   0  0  0  0  0  0  0  0  0  0  0  0
   12.8316   -0.0859   22.7280 C   0  0  0  0  0  0  0  0  0  0  0  0
    9.2671    6.6294   23.3799 C   0  0  0  0  0  0  0  0  0  0  0  0
    8.1507    6.5924   22.3897 C   0  0  0  0  0  0  0  0  0  0  0  0
   13.7766   -2.1162   21.9276 C   0  0  0  0  0  0  0  0  0  0  0  0
   12.3081    4.4688   23.6014 C   0  0  0  0  0  0  0  0  0  0  0  0
   11.5735    5.8057   23.8097 C   0  0  0  0  0  0  0  0  0  0  0  0
    9.8699    1.9865   24.7078 N   0  0  0  0  0  0  0  0  0  0  0  0
   10.3856    5.9028   23.0044 N   0  0  0  0  0  0  0  0  0  0  0  0
    9.1350    7.2708   24.4157 O   0  0  0  0  0  0  0  0  0  0  0  0
   13.8500   -0.6984   22.0606 O   0  0  0  0  0  0  0  0  0  0  0  0
    9.0179    1.6937   25.1659 H   0  0  0  0  0  0  0  0  0  0  0  0
   10.3656    5.4119   22.1119 H   0  0  0  0  0  0  0  0  0  0  0  0
  1  2  2  0  0  0  0
  1  7  1  0  0  0  0
  2  8  1  0  0  0  0
  3  5  1  0  0  0  0
  3  8  2  0  0  0  0
  4  6  2  0  0  0  0
  4 14  1  0  0  0  0
  5  6  1  0  0  0  0
  5  7  2  0  0  0  0
  6 12  1  0  0  0  0
  7 14  1  0  0  0  0
  8 17  1  0  0  0  0
  9 10  1  0  0  0  0
  9 15  1  0  0  0  0
  9 16  2  0  0  0  0
 11 17  1  0  0  0  0
 12 13  1  0  0  0  0
 13 15  1  0  0  0  0
 14 18  1  0  0  0  0
 15 19  1  0  0  0  0
M  END
> <ref_mols>
x2396_0

> <original SMILES>
CC(NCCC1=CNC2=CC=C(OC)C=C21)=O

> <Chemgauss4>
-8.913157

> <ref_pdb>
x0104_0

$$$$
x2355
  -OEChem-05172015543D

 19 20  0     0  0  0  0  0  0999 V2000
   10.7268   -0.2504   23.9310 C   0  0  0  0  0  0  0  0  0  0  0  0
   11.7849   -0.8493   23.2412 C   0  0  0  0  0  0  0  0  0  0  0  0
   12.8509    1.3042   22.8900 C   0  0  0  0  0  0  0  0  0  0  0  0
   10.3060    3.2810   24.6152 C   0  0  0  0  0  0  0  0  0  0  0  0
   11.7950    1.9302   23.5818 C   0  0  0  0  0  0  0  0  0  0  0  0
   11.4955    3.2786   23.9239 C   0  0  0  0  0  0  0  0  0  0  0  0
   10.7594    1.1400   24.0853 C   0  0  0  0  0  0  0  0  0  0  0  0
   12.8316   -0.0859   22.7280 C   0  0  0  0  0  0  0  0  0  0  0  0
    9.2671    6.6294   23.3799 C   0  0  0  0  0  0  0  0  0  0  0  0
    8.1507    6.5924   22.3897 C   0  0  0  0  0  0  0  0  0  0  0  0
   13.7766   -2.1162   21.9276 C   0  0  0  0  0  0  0  0  0  0  0  0
   12.3081    4.4688   23.6014 C   0  0  0  0  0  0  0  0  0  0  0  0
   11.5735    5.8057   23.8097 C   0  0  0  0  0  0  0  0  0  0  0  0
    9.8699    1.9865   24.7078 N   0  0  0  0  0  0  0  0  0  0  0  0
   10.3856    5.9028   23.0044 N   0  0  0  0  0  0  0  0  0  0  0  0
    9.1350    7.2708   24.4157 O   0  0  0  0  0  0  0  0  0  0  0  0
   13.8500   -0.6984   22.0606 O   0  0  0  0  0  0  0  0  0  0  0  0
    9.0179    1.6937   25.1659 H   0  0  0  0  0  0  0  0  0  0  0  0
   10.3656    5.4119   22.1119 H   0  0  0  0  0  0  0  0  0  0  0  0
  1  2  2  0  0  0  0
  1  7  1  0  0  0  0
  2  8  1  0  0  0  0
  3  5  1  0  0  0  0
  3  8  2  0  0  0  0
  4  6  2  0  0  0  0
  4 14  1  0  0  0  0
  5  6  1  0  0  0  0
  5  7  2  0  0  0  0
  6 12  1  0  0  0  0
  7 14  1  0  0  0  0
  8 17  1  0  0  0  0
  9 10  1  0  0  0  0
  9 15  1  0  0  0  0
  9 16  2  0  0  0  0
 11 17  1  0  0  0  0
 12 13  1  0  0  0  0
 13 15  1  0  0  0  0
 14 18  1  0  0  0  0
 15 19  1  0  0  0  0
M  END
> <ref_mols>
x2355_0

> <original SMILES>
CC(NCCC1=CNC2=CC=C(OC)C=C21)=O

> <Chemgauss4>
-8.913157

> <ref_pdb>
x0104_0

$$$$
x2392
  -OEChem-05172015543D

 19 20  0     0  0  0  0  0  0999 V2000
   10.7268   -0.2504   23.9310 C   0  0  0  0  0  0  0  0  0  0  0  0
   11.7849   -0.8493   23.2412 C   0  0  0  0  0  0  0  0  0  0  0  0
   12.8509    1.3042   22.8900 C   0  0  0  0  0  0  0  0  0  0  0  0
   10.3060    3.2810   24.6152 C   0  0  0  0  0  0  0  0  0  0  0  0
   11.7950    1.9302   23.5818 C   0  0  0  0  0  0  0  0  0  0  0  0
   11.4955    3.2786   23.9239 C   0  0  0  0  0  0  0  0  0  0  0  0
   10.7594    1.1400   24.0853 C   0  0  0  0  0  0  0  0  0  0  0  0
   12.8316   -0.0859   22.7280 C   0  0  0  0  0  0  0  0  0  0  0  0
    9.2671    6.6294   23.3799 C   0  0  0  0  0  0  0  0  0  0  0  0
    8.1507    6.5924   22.3897 C   0  0  0  0  0  0  0  0  0  0  0  0
   13.7766   -2.1162   21.9276 C   0  0  0  0  0  0  0  0  0  0  0  0
   12.3081    4.4688   23.6014 C   0  0  0  0  0  0  0  0  0  0  0  0
   11.5735    5.8057   23.8097 C   0  0  0  0  0  0  0  0  0  0  0  0
    9.8699    1.9865   24.7078 N   0  0  0  0  0  0  0  0  0  0  0  0
   10.3856    5.9028   23.0044 N   0  0  0  0  0  0  0  0  0  0  0  0
    9.1350    7.2708   24.4157 O   0  0  0  0  0  0  0  0  0  0  0  0
   13.8500   -0.6984   22.0606 O   0  0  0  0  0  0  0  0  0  0  0  0
    9.0179    1.6937   25.1659 H   0  0  0  0  0  0  0  0  0  0  0  0
   10.3656    5.4119   22.1119 H   0  0  0  0  0  0  0  0  0  0  0  0
  1  2  2  0  0  0  0
  1  7  1  0  0  0  0
  2  8  1  0  0  0  0
  3  5  1  0  0  0  0
  3  8  2  0  0  0  0
  4  6  2  0  0  0  0
  4 14  1  0  0  0  0
  5  6  1  0  0  0  0
  5  7  2  0  0  0  0
  6 12  1  0  0  0  0
  7 14  1  0  0  0  0
  8 17  1  0  0  0  0
  9 10  1  0  0  0  0
  9 15  1  0  0  0  0
  9 16  2  0  0  0  0
 11 17  1  0  0  0  0
 12 13  1  0  0  0  0
 13 15  1  0  0  0  0
 14 18  1  0  0  0  0
 15 19  1  0  0  0  0
M  END
> <ref_mols>
x2392_0

> <original SMILES>
CC(NCCC1=CNC2=CC=C(OC)C=C21)=O

> <Chemgauss4>
-8.913157

> <ref_pdb>
x0104_0

$$$$
x2382
  -OEChem-05172015543D

 19 20  0     0  0  0  0  0  0999 V2000
   10.7268   -0.2504   23.9310 C   0  0  0  0  0  0  0  0  0  0  0  0
   11.7849   -0.8493   23.2412 C   0  0  0  0  0  0  0  0  0  0  0  0
   12.8509    1.3042   22.8900 C   0  0  0  0  0  0  0  0  0  0  0  0
   10.3060    3.2810   24.6152 C   0  0  0  0  0  0  0  0  0  0  0  0
   11.7950    1.9302   23.5818 C   0  0  0  0  0  0  0  0  0  0  0  0
   11.4955    3.2786   23.9239 C   0  0  0  0  0  0  0  0  0  0  0  0
   10.7594    1.1400   24.0853 C   0  0  0  0  0  0  0  0  0  0  0  0
   12.8316   -0.0859   22.7280 C   0  0  0  0  0  0  0  0  0  0  0  0
    9.2671    6.6294   23.3799 C   0  0  0  0  0  0  0  0  0  0  0  0
    8.1507    6.5924   22.3897 C   0  0  0  0  0  0  0  0  0  0  0  0
   13.7766   -2.1162   21.9276 C   0  0  0  0  0  0  0  0  0  0  0  0
   12.3081    4.4688   23.6014 C   0  0  0  0  0  0  0  0  0  0  0  0
   11.5735    5.8057   23.8097 C   0  0  0  0  0  0  0  0  0  0  0  0
    9.8699    1.9865   24.7078 N   0  0  0  0  0  0  0  0  0  0  0  0
   10.3856    5.9028   23.0044 N   0  0  0  0  0  0  0  0  0  0  0  0
    9.1350    7.2708   24.4157 O   0  0  0  0  0  0  0  0  0  0  0  0
   13.8500   -0.6984   22.0606 O   0  0  0  0  0  0  0  0  0  0  0  0
    9.0179    1.6937   25.1659 H   0  0  0  0  0  0  0  0  0  0  0  0
   10.3656    5.4119   22.1119 H   0  0  0  0  0  0  0  0  0  0  0  0
  1  2  2  0  0  0  0
  1  7  1  0  0  0  0
  2  8  1  0  0  0  0
  3  5  1  0  0  0  0
  3  8  2  0  0  0  0
  4  6  2  0  0  0  0
  4 14  1  0  0  0  0
  5  6  1  0  0  0  0
  5  7  2  0  0  0  0
  6 12  1  0  0  0  0
  7 14  1  0  0  0  0
  8 17  1  0  0  0  0
  9 10  1  0  0  0  0
  9 15  1  0  0  0  0
  9 16  2  0  0  0  0
 11 17  1  0  0  0  0
 12 13  1  0  0  0  0
 13 15  1  0  0  0  0
 14 18  1  0  0  0  0
 15 19  1  0  0  0  0
M  END
> <ref_mols>
x2382_0

> <original SMILES>
CC(NCCC1=CNC2=CC=C(OC)C=C21)=O

> <Chemgauss4>
-8.913157

> <ref_pdb>
x0104_0

$$$$
x2398
  -OEChem-05172015543D

 19 20  0     0  0  0  0  0  0999 V2000
   10.7268   -0.2504   23.9310 C   0  0  0  0  0  0  0  0  0  0  0  0
   11.7849   -0.8493   23.2412 C   0  0  0  0  0  0  0  0  0  0  0  0
   12.8509    1.3042   22.8900 C   0  0  0  0  0  0  0  0  0  0  0  0
   10.3060    3.2810   24.6152 C   0  0  0  0  0  0  0  0  0  0  0  0
   11.7950    1.9302   23.5818 C   0  0  0  0  0  0  0  0  0  0  0  0
   11.4955    3.2786   23.9239 C   0  0  0  0  0  0  0  0  0  0  0  0
   10.7594    1.1400   24.0853 C   0  0  0  0  0  0  0  0  0  0  0  0
   12.8316   -0.0859   22.7280 C   0  0  0  0  0  0  0  0  0  0  0  0
    9.2671    6.6294   23.3799 C   0  0  0  0  0  0  0  0  0  0  0  0
    8.1507    6.5924   22.3897 C   0  0  0  0  0  0  0  0  0  0  0  0
   13.7766   -2.1162   21.9276 C   0  0  0  0  0  0  0  0  0  0  0  0
   12.3081    4.4688   23.6014 C   0  0  0  0  0  0  0  0  0  0  0  0
   11.5735    5.8057   23.8097 C   0  0  0  0  0  0  0  0  0  0  0  0
    9.8699    1.9865   24.7078 N   0  0  0  0  0  0  0  0  0  0  0  0
   10.3856    5.9028   23.0044 N   0  0  0  0  0  0  0  0  0  0  0  0
    9.1350    7.2708   24.4157 O   0  0  0  0  0  0  0  0  0  0  0  0
   13.8500   -0.6984   22.0606 O   0  0  0  0  0  0  0  0  0  0  0  0
    9.0179    1.6937   25.1659 H   0  0  0  0  0  0  0  0  0  0  0  0
   10.3656    5.4119   22.1119 H   0  0  0  0  0  0  0  0  0  0  0  0
  1  2  2  0  0  0  0
  1  7  1  0  0  0  0
  2  8  1  0  0  0  0
  3  5  1  0  0  0  0
  3  8  2  0  0  0  0
  4  6  2  0  0  0  0
  4 14  1  0  0  0  0
  5  6  1  0  0  0  0
  5  7  2  0  0  0  0
  6 12  1  0  0  0  0
  7 14  1  0  0  0  0
  8 17  1  0  0  0  0
  9 10  1  0  0  0  0
  9 15  1  0  0  0  0
  9 16  2  0  0  0  0
 11 17  1  0  0  0  0
 12 13  1  0  0  0  0
 13 15  1  0  0  0  0
 14 18  1  0  0  0  0
 15 19  1  0  0  0  0
M  END
> <ref_mols>
x2398_0

> <original SMILES>
CC(NCCC1=CNC2=CC=C(OC)C=C21)=O

> <Chemgauss4>
-8.913157

> <ref_pdb>
x0104_0

$$$$
x2460
  -OEChem-05172015543D

 19 20  0     0  0  0  0  0  0999 V2000
   10.7268   -0.2504   23.9310 C   0  0  0  0  0  0  0  0  0  0  0  0
   11.7849   -0.8493   23.2412 C   0  0  0  0  0  0  0  0  0  0  0  0
   12.8509    1.3042   22.8900 C   0  0  0  0  0  0  0  0  0  0  0  0
   10.3060    3.2810   24.6152 C   0  0  0  0  0  0  0  0  0  0  0  0
   11.7950    1.9302   23.5818 C   0  0  0  0  0  0  0  0  0  0  0  0
   11.4955    3.2786   23.9239 C   0  0  0  0  0  0  0  0  0  0  0  0
   10.7594    1.1400   24.0853 C   0  0  0  0  0  0  0  0  0  0  0  0
   12.8316   -0.0859   22.7280 C   0  0  0  0  0  0  0  0  0  0  0  0
    9.2671    6.6294   23.3799 C   0  0  0  0  0  0  0  0  0  0  0  0
    8.1507    6.5924   22.3897 C   0  0  0  0  0  0  0  0  0  0  0  0
   13.7766   -2.1162   21.9276 C   0  0  0  0  0  0  0  0  0  0  0  0
   12.3081    4.4688   23.6014 C   0  0  0  0  0  0  0  0  0  0  0  0
   11.5735    5.8057   23.8097 C   0  0  0  0  0  0  0  0  0  0  0  0
    9.8699    1.9865   24.7078 N   0  0  0  0  0  0  0  0  0  0  0  0
   10.3856    5.9028   23.0044 N   0  0  0  0  0  0  0  0  0  0  0  0
    9.1350    7.2708   24.4157 O   0  0  0  0  0  0  0  0  0  0  0  0
   13.8500   -0.6984   22.0606 O   0  0  0  0  0  0  0  0  0  0  0  0
    9.0179    1.6937   25.1659 H   0  0  0  0  0  0  0  0  0  0  0  0
   10.3656    5.4119   22.1119 H   0  0  0  0  0  0  0  0  0  0  0  0
  1  2  2  0  0  0  0
  1  7  1  0  0  0  0
  2  8  1  0  0  0  0
  3  5  1  0  0  0  0
  3  8  2  0  0  0  0
  4  6  2  0  0  0  0
  4 14  1  0  0  0  0
  5  6  1  0  0  0  0
  5  7  2  0  0  0  0
  6 12  1  0  0  0  0
  7 14  1  0  0  0  0
  8 17  1  0  0  0  0
  9 10  1  0  0  0  0
  9 15  1  0  0  0  0
  9 16  2  0  0  0  0
 11 17  1  0  0  0  0
 12 13  1  0  0  0  0
 13 15  1  0  0  0  0
 14 18  1  0  0  0  0
 15 19  1  0  0  0  0
M  END
> <ref_mols>
x2460_0

> <original SMILES>
CC(NCCC1=CNC2=CC=C(OC)C=C21)=O

> <Chemgauss4>
-8.913157

> <ref_pdb>
x0104_0

$$$$
x0781
  -OEChem-05172015543D

 19 20  0     1  0  0  0  0  0999 V2000
   10.4331   -3.1499   24.2774 C   0  0  0  0  0  0  0  0  0  0  0  0
    5.8427   -4.2660   22.3430 C   0  0  0  0  0  0  0  0  0  0  0  0
   13.6686   -2.4861   25.6363 C   0  0  0  0  0  0  0  0  0  0  0  0
   13.5588   -1.0367   26.1123 C   0  0  0  0  0  0  0  0  0  0  0  0
    9.0649   -2.7599   22.2361 C   0  0  0  0  0  0  0  0  0  0  0  0
    8.0507   -2.4341   24.5445 C   0  0  0  0  0  0  0  0  0  0  0  0
   12.3537   -3.2338   25.8345 C   0  0  0  0  0  0  0  0  0  0  0  0
    8.3007   -4.0786   22.1330 C   0  0  0  0  0  0  0  0  0  0  0  0
    7.3025   -3.7553   24.3614 C   0  0  0  0  0  0  0  0  0  0  0  0
   11.0694   -1.1297   25.6877 C   0  0  0  0  0  0  0  0  0  0  0  0
    9.3169   -2.3383   23.6872 C   0  0  0  0  0  0  0  0  0  0  0  0
   12.3526   -0.3061   25.4995 C   0  0  2  0  0  0  0  0  0  0  0  0
   12.5830    0.0278   24.0227 C   0  0  0  0  0  0  0  0  0  0  0  0
    4.7778   -4.8836   23.2139 C   0  0  0  0  0  0  0  0  0  0  0  0
   11.2425   -2.5100   25.2154 N   0  0  0  0  0  0  0  0  0  0  0  0
    7.0817   -4.0359   22.9396 N   0  0  0  0  0  0  0  0  0  0  0  0
   10.5850   -4.3194   23.9151 O   0  0  0  0  0  0  0  0  0  0  0  0
    5.5788   -3.9952   21.1687 O   0  0  0  0  0  0  0  0  0  0  0  0
    5.3889   -6.4550   23.7189 Cl  0  0  0  0  0  0  0  0  0  0  0  0
  1 11  1  0  0  0  0
  1 15  1  0  0  0  0
  1 17  2  0  0  0  0
  2 14  1  0  0  0  0
  2 16  1  0  0  0  0
  2 18  2  0  0  0  0
  3  4  1  0  0  0  0
  3  7  1  0  0  0  0
  4 12  1  0  0  0  0
  5  8  1  0  0  0  0
  5 11  1  0  0  0  0
  6  9  1  0  0  0  0
  6 11  1  0  0  0  0
  7 15  1  0  0  0  0
  8 16  1  0  0  0  0
  9 16  1  0  0  0  0
 10 12  1  0  0  0  0
 10 15  1  0  0  0  0
 12 13  1  0  0  0  0
 14 19  1  0  0  0  0
M  END
> <ref_mols>
x0781_0

> <original SMILES>
CC1CCCN(C1)C(=O)C2CCN(CC2)C(=O)CCl

> <Chemgauss4>
-8.912820

> <ref_pdb>
x0749_0

$$$$
x1360
  -OEChem-05172015543D

 19 20  0     1  0  0  0  0  0999 V2000
   10.4331   -3.1499   24.2774 C   0  0  0  0  0  0  0  0  0  0  0  0
    5.8427   -4.2660   22.3430 C   0  0  0  0  0  0  0  0  0  0  0  0
   13.6686   -2.4861   25.6363 C   0  0  0  0  0  0  0  0  0  0  0  0
   13.5588   -1.0367   26.1123 C   0  0  0  0  0  0  0  0  0  0  0  0
    9.0649   -2.7599   22.2361 C   0  0  0  0  0  0  0  0  0  0  0  0
    8.0507   -2.4341   24.5445 C   0  0  0  0  0  0  0  0  0  0  0  0
   12.3537   -3.2338   25.8345 C   0  0  0  0  0  0  0  0  0  0  0  0
    8.3007   -4.0786   22.1330 C   0  0  0  0  0  0  0  0  0  0  0  0
    7.3025   -3.7553   24.3614 C   0  0  0  0  0  0  0  0  0  0  0  0
   11.0694   -1.1297   25.6877 C   0  0  0  0  0  0  0  0  0  0  0  0
    9.3169   -2.3383   23.6872 C   0  0  0  0  0  0  0  0  0  0  0  0
   12.3526   -0.3061   25.4995 C   0  0  2  0  0  0  0  0  0  0  0  0
   12.5830    0.0278   24.0227 C   0  0  0  0  0  0  0  0  0  0  0  0
    4.7778   -4.8836   23.2139 C   0  0  0  0  0  0  0  0  0  0  0  0
   11.2425   -2.5100   25.2154 N   0  0  0  0  0  0  0  0  0  0  0  0
    7.0817   -4.0359   22.9396 N   0  0  0  0  0  0  0  0  0  0  0  0
   10.5850   -4.3194   23.9151 O   0  0  0  0  0  0  0  0  0  0  0  0
    5.5788   -3.9952   21.1687 O   0  0  0  0  0  0  0  0  0  0  0  0
    5.3889   -6.4550   23.7189 Cl  0  0  0  0  0  0  0  0  0  0  0  0
  1 11  1  0  0  0  0
  1 15  1  0  0  0  0
  1 17  2  0  0  0  0
  2 14  1  0  0  0  0
  2 16  1  0  0  0  0
  2 18  2  0  0  0  0
  3  4  1  0  0  0  0
  3  7  1  0  0  0  0
  4 12  1  0  0  0  0
  5  8  1  0  0  0  0
  5 11  1  0  0  0  0
  6  9  1  0  0  0  0
  6 11  1  0  0  0  0
  7 15  1  0  0  0  0
  8 16  1  0  0  0  0
  9 16  1  0  0  0  0
 10 12  1  0  0  0  0
 10 15  1  0  0  0  0
 12 13  1  0  0  0  0
 14 19  1  0  0  0  0
M  END
> <ref_mols>
x1360_0

> <original SMILES>
CC1CCCN(C1)C(=O)C2CCN(CC2)C(=O)CCl

> <Chemgauss4>
-8.912820

> <ref_pdb>
x0749_0

$$$$
x0817
  -OEChem-05172015543D

 19 20  0     1  0  0  0  0  0999 V2000
   10.4331   -3.1499   24.2774 C   0  0  0  0  0  0  0  0  0  0  0  0
    5.8427   -4.2660   22.3430 C   0  0  0  0  0  0  0  0  0  0  0  0
   13.6686   -2.4861   25.6363 C   0  0  0  0  0  0  0  0  0  0  0  0
   13.5588   -1.0367   26.1123 C   0  0  0  0  0  0  0  0  0  0  0  0
    9.0649   -2.7599   22.2361 C   0  0  0  0  0  0  0  0  0  0  0  0
    8.0507   -2.4341   24.5445 C   0  0  0  0  0  0  0  0  0  0  0  0
   12.3537   -3.2338   25.8345 C   0  0  0  0  0  0  0  0  0  0  0  0
    8.3007   -4.0786   22.1330 C   0  0  0  0  0  0  0  0  0  0  0  0
    7.3025   -3.7553   24.3614 C   0  0  0  0  0  0  0  0  0  0  0  0
   11.0694   -1.1297   25.6877 C   0  0  0  0  0  0  0  0  0  0  0  0
    9.3169   -2.3383   23.6872 C   0  0  0  0  0  0  0  0  0  0  0  0
   12.3526   -0.3061   25.4995 C   0  0  2  0  0  0  0  0  0  0  0  0
   12.5830    0.0278   24.0227 C   0  0  0  0  0  0  0  0  0  0  0  0
    4.7778   -4.8836   23.2139 C   0  0  0  0  0  0  0  0  0  0  0  0
   11.2425   -2.5100   25.2154 N   0  0  0  0  0  0  0  0  0  0  0  0
    7.0817   -4.0359   22.9396 N   0  0  0  0  0  0  0  0  0  0  0  0
   10.5850   -4.3194   23.9151 O   0  0  0  0  0  0  0  0  0  0  0  0
    5.5788   -3.9952   21.1687 O   0  0  0  0  0  0  0  0  0  0  0  0
    5.3889   -6.4550   23.7189 Cl  0  0  0  0  0  0  0  0  0  0  0  0
  1 11  1  0  0  0  0
  1 15  1  0  0  0  0
  1 17  2  0  0  0  0
  2 14  1  0  0  0  0
  2 16  1  0  0  0  0
  2 18  2  0  0  0  0
  3  4  1  0  0  0  0
  3  7  1  0  0  0  0
  4 12  1  0  0  0  0
  5  8  1  0  0  0  0
  5 11  1  0  0  0  0
  6  9  1  0  0  0  0
  6 11  1  0  0  0  0
  7 15  1  0  0  0  0
  8 16  1  0  0  0  0
  9 16  1  0  0  0  0
 10 12  1  0  0  0  0
 10 15  1  0  0  0  0
 12 13  1  0  0  0  0
 14 19  1  0  0  0  0
M  END
> <ref_mols>
x0817_0

> <original SMILES>
CC1CCCN(C1)C(=O)C2CCN(CC2)C(=O)CCl

> <Chemgauss4>
-8.912820

> <ref_pdb>
x0749_0

> <CYS145-warhead dist minimum (A)>
9.403391

> <CYS145-warhead dist mean (A)>
13.089678

> <CYS145-warhead dist stddev (A)>
0.6779837

$$$$
x0707
  -OEChem-05172015543D

 19 20  0     1  0  0  0  0  0999 V2000
   10.4331   -3.1499   24.2774 C   0  0  0  0  0  0  0  0  0  0  0  0
    5.8427   -4.2660   22.3430 C   0  0  0  0  0  0  0  0  0  0  0  0
   13.6686   -2.4861   25.6363 C   0  0  0  0  0  0  0  0  0  0  0  0
   13.5588   -1.0367   26.1123 C   0  0  0  0  0  0  0  0  0  0  0  0
    9.0649   -2.7599   22.2361 C   0  0  0  0  0  0  0  0  0  0  0  0
    8.0507   -2.4341   24.5445 C   0  0  0  0  0  0  0  0  0  0  0  0
   12.3537   -3.2338   25.8345 C   0  0  0  0  0  0  0  0  0  0  0  0
    8.3007   -4.0786   22.1330 C   0  0  0  0  0  0  0  0  0  0  0  0
    7.3025   -3.7553   24.3614 C   0  0  0  0  0  0  0  0  0  0  0  0
   11.0694   -1.1297   25.6877 C   0  0  0  0  0  0  0  0  0  0  0  0
    9.3169   -2.3383   23.6872 C   0  0  0  0  0  0  0  0  0  0  0  0
   12.3526   -0.3061   25.4995 C   0  0  2  0  0  0  0  0  0  0  0  0
   12.5830    0.0278   24.0227 C   0  0  0  0  0  0  0  0  0  0  0  0
    4.7778   -4.8836   23.2139 C   0  0  0  0  0  0  0  0  0  0  0  0
   11.2425   -2.5100   25.2154 N   0  0  0  0  0  0  0  0  0  0  0  0
    7.0817   -4.0359   22.9396 N   0  0  0  0  0  0  0  0  0  0  0  0
   10.5850   -4.3194   23.9151 O   0  0  0  0  0  0  0  0  0  0  0  0
    5.5788   -3.9952   21.1687 O   0  0  0  0  0  0  0  0  0  0  0  0
    5.3889   -6.4550   23.7189 Cl  0  0  0  0  0  0  0  0  0  0  0  0
  1 11  1  0  0  0  0
  1 15  1  0  0  0  0
  1 17  2  0  0  0  0
  2 14  1  0  0  0  0
  2 16  1  0  0  0  0
  2 18  2  0  0  0  0
  3  4  1  0  0  0  0
  3  7  1  0  0  0  0
  4 12  1  0  0  0  0
  5  8  1  0  0  0  0
  5 11  1  0  0  0  0
  6  9  1  0  0  0  0
  6 11  1  0  0  0  0
  7 15  1  0  0  0  0
  8 16  1  0  0  0  0
  9 16  1  0  0  0  0
 10 12  1  0  0  0  0
 10 15  1  0  0  0  0
 12 13  1  0  0  0  0
 14 19  1  0  0  0  0
M  END
> <ref_mols>
x0707_0

> <original SMILES>
CC1CCCN(C1)C(=O)C2CCN(CC2)C(=O)CCl

> <Chemgauss4>
-8.912820

> <ref_pdb>
x0749_0

> <CYS145-warhead dist minimum (A)>
6.4192386

> <CYS145-warhead dist mean (A)>
8.358994

> <CYS145-warhead dist stddev (A)>
0.69525975

$$$$
x1457
  -OEChem-05172015543D

 19 20  0     1  0  0  0  0  0999 V2000
   10.4331   -3.1499   24.2774 C   0  0  0  0  0  0  0  0  0  0  0  0
    5.8427   -4.2660   22.3430 C   0  0  0  0  0  0  0  0  0  0  0  0
   13.6686   -2.4861   25.6363 C   0  0  0  0  0  0  0  0  0  0  0  0
   13.5588   -1.0367   26.1123 C   0  0  0  0  0  0  0  0  0  0  0  0
    9.0649   -2.7599   22.2361 C   0  0  0  0  0  0  0  0  0  0  0  0
    8.0507   -2.4341   24.5445 C   0  0  0  0  0  0  0  0  0  0  0  0
   12.3537   -3.2338   25.8345 C   0  0  0  0  0  0  0  0  0  0  0  0
    8.3007   -4.0786   22.1330 C   0  0  0  0  0  0  0  0  0  0  0  0
    7.3025   -3.7553   24.3614 C   0  0  0  0  0  0  0  0  0  0  0  0
   11.0694   -1.1297   25.6877 C   0  0  0  0  0  0  0  0  0  0  0  0
    9.3169   -2.3383   23.6872 C   0  0  0  0  0  0  0  0  0  0  0  0
   12.3526   -0.3061   25.4995 C   0  0  2  0  0  0  0  0  0  0  0  0
   12.5830    0.0278   24.0227 C   0  0  0  0  0  0  0  0  0  0  0  0
    4.7778   -4.8836   23.2139 C   0  0  0  0  0  0  0  0  0  0  0  0
   11.2425   -2.5100   25.2154 N   0  0  0  0  0  0  0  0  0  0  0  0
    7.0817   -4.0359   22.9396 N   0  0  0  0  0  0  0  0  0  0  0  0
   10.5850   -4.3194   23.9151 O   0  0  0  0  0  0  0  0  0  0  0  0
    5.5788   -3.9952   21.1687 O   0  0  0  0  0  0  0  0  0  0  0  0
    5.3889   -6.4550   23.7189 Cl  0  0  0  0  0  0  0  0  0  0  0  0
  1 11  1  0  0  0  0
  1 15  1  0  0  0  0
  1 17  2  0  0  0  0
  2 14  1  0  0  0  0
  2 16  1  0  0  0  0
  2 18  2  0  0  0  0
  3  4  1  0  0  0  0
  3  7  1  0  0  0  0
  4 12  1  0  0  0  0
  5  8  1  0  0  0  0
  5 11  1  0  0  0  0
  6  9  1  0  0  0  0
  6 11  1  0  0  0  0
  7 15  1  0  0  0  0
  8 16  1  0  0  0  0
  9 16  1  0  0  0  0
 10 12  1  0  0  0  0
 10 15  1  0  0  0  0
 12 13  1  0  0  0  0
 14 19  1  0  0  0  0
M  END
> <ref_mols>
x1457_0

> <original SMILES>
CC1CCCN(C1)C(=O)C2CCN(CC2)C(=O)CCl

> <Chemgauss4>
-8.912820

> <ref_pdb>
x0749_0

$$$$
x0743
  -OEChem-05172015543D

 19 20  0     1  0  0  0  0  0999 V2000
   10.4331   -3.1499   24.2774 C   0  0  0  0  0  0  0  0  0  0  0  0
    5.8427   -4.2660   22.3430 C   0  0  0  0  0  0  0  0  0  0  0  0
   13.6686   -2.4861   25.6363 C   0  0  0  0  0  0  0  0  0  0  0  0
   13.5588   -1.0367   26.1123 C   0  0  0  0  0  0  0  0  0  0  0  0
    9.0649   -2.7599   22.2361 C   0  0  0  0  0  0  0  0  0  0  0  0
    8.0507   -2.4341   24.5445 C   0  0  0  0  0  0  0  0  0  0  0  0
   12.3537   -3.2338   25.8345 C   0  0  0  0  0  0  0  0  0  0  0  0
    8.3007   -4.0786   22.1330 C   0  0  0  0  0  0  0  0  0  0  0  0
    7.3025   -3.7553   24.3614 C   0  0  0  0  0  0  0  0  0  0  0  0
   11.0694   -1.1297   25.6877 C   0  0  0  0  0  0  0  0  0  0  0  0
    9.3169   -2.3383   23.6872 C   0  0  0  0  0  0  0  0  0  0  0  0
   12.3526   -0.3061   25.4995 C   0  0  2  0  0  0  0  0  0  0  0  0
   12.5830    0.0278   24.0227 C   0  0  0  0  0  0  0  0  0  0  0  0
    4.7778   -4.8836   23.2139 C   0  0  0  0  0  0  0  0  0  0  0  0
   11.2425   -2.5100   25.2154 N   0  0  0  0  0  0  0  0  0  0  0  0
    7.0817   -4.0359   22.9396 N   0  0  0  0  0  0  0  0  0  0  0  0
   10.5850   -4.3194   23.9151 O   0  0  0  0  0  0  0  0  0  0  0  0
    5.5788   -3.9952   21.1687 O   0  0  0  0  0  0  0  0  0  0  0  0
    5.3889   -6.4550   23.7189 Cl  0  0  0  0  0  0  0  0  0  0  0  0
  1 11  1  0  0  0  0
  1 15  1  0  0  0  0
  1 17  2  0  0  0  0
  2 14  1  0  0  0  0
  2 16  1  0  0  0  0
  2 18  2  0  0  0  0
  3  4  1  0  0  0  0
  3  7  1  0  0  0  0
  4 12  1  0  0  0  0
  5  8  1  0  0  0  0
  5 11  1  0  0  0  0
  6  9  1  0  0  0  0
  6 11  1  0  0  0  0
  7 15  1  0  0  0  0
  8 16  1  0  0  0  0
  9 16  1  0  0  0  0
 10 12  1  0  0  0  0
 10 15  1  0  0  0  0
 12 13  1  0  0  0  0
 14 19  1  0  0  0  0
M  END
> <ref_mols>
x0743_0

> <original SMILES>
CC1CCCN(C1)C(=O)C2CCN(CC2)C(=O)CCl

> <Chemgauss4>
-8.912820

> <ref_pdb>
x0749_0

> <CYS145-warhead dist minimum (A)>
8.54759

> <CYS145-warhead dist mean (A)>
9.643639

> <CYS145-warhead dist stddev (A)>
0.5280758

$$$$
x2603
  -OEChem-05172015543D

 25 28  0     0  0  0  0  0  0999 V2000
   13.8586   -1.6767   21.4183 C   0  0  0  0  0  0  0  0  0  0  0  0
    6.7579    0.3591   18.8665 C   0  0  0  0  0  0  0  0  0  0  0  0
   14.5744   -2.3538   22.4111 C   0  0  0  0  0  0  0  0  0  0  0  0
    6.3590   -0.9164   19.2659 C   0  0  0  0  0  0  0  0  0  0  0  0
   12.8893   -0.7190   21.7489 C   0  0  0  0  0  0  0  0  0  0  0  0
    7.8156    0.9947   19.5168 C   0  0  0  0  0  0  0  0  0  0  0  0
   14.3505   -2.1016   23.7686 C   0  0  0  0  0  0  0  0  0  0  0  0
    7.0177   -1.5563   20.3157 C   0  0  0  0  0  0  0  0  0  0  0  0
   12.6542   -0.4562   23.1064 C   0  0  0  0  0  0  0  0  0  0  0  0
    8.4743    0.3548   20.5667 C   0  0  0  0  0  0  0  0  0  0  0  0
   13.3819   -1.1458   24.0605 C   0  0  0  0  0  0  0  0  0  0  0  0
    8.0754   -0.9207   20.9662 C   0  0  0  0  0  0  0  0  0  0  0  0
   11.8174    0.3806   23.8700 C   0  0  0  0  0  0  0  0  0  0  0  0
    9.5982    1.0499   21.2456 C   0  0  0  0  0  0  0  0  0  0  0  0
    8.1393   -1.4368   25.1531 C   0  0  0  0  0  0  0  0  0  0  0  0
    7.5673   -2.8159   25.3287 C   0  0  0  0  0  0  0  0  0  0  0  0
    8.4794   -2.5225   24.1699 C   0  0  0  0  0  0  0  0  0  0  0  0
   10.8177    1.3475   23.3857 C   0  0  0  0  0  0  0  0  0  0  0  0
    7.9293   -2.4749   22.7604 C   0  0  0  0  0  0  0  0  0  0  0  0
   12.0058    0.2266   25.1841 N   0  0  0  0  0  0  0  0  0  0  0  0
    9.7809    0.7352   22.5811 N   0  0  0  0  0  0  0  0  0  0  0  0
   10.2733    1.8580   20.6134 O   0  0  0  0  0  0  0  0  0  0  0  0
   12.9966   -0.7404   25.3014 O   0  0  0  0  0  0  0  0  0  0  0  0
    8.7079   -1.5631   21.9885 O   0  0  0  0  0  0  0  0  0  0  0  0
    9.1447    0.1046   23.0552 H   0  0  0  0  0  0  0  0  0  0  0  0
  1  3  1  0  0  0  0
  1  5  2  0  0  0  0
  2  4  1  0  0  0  0
  2  6  2  0  0  0  0
  3  7  2  0  0  0  0
  4  8  2  0  0  0  0
  5  9  1  0  0  0  0
  6 10  1  0  0  0  0
  7 11  1  0  0  0  0
  8 12  1  0  0  0  0
  9 11  2  0  0  0  0
  9 13  1  0  0  0  0
 10 12  2  0  0  0  0
 10 14  1  0  0  0  0
 11 23  1  0  0  0  0
 12 24  1  0  0  0  0
 13 18  1  0  0  0  0
 13 20  2  0  0  0  0
 14 21  1  0  0  0  0
 14 22  2  0  0  0  0
 15 16  1  0  0  0  0
 15 17  1  0  0  0  0
 16 17  1  0  0  0  0
 17 19  1  0  0  0  0
 18 21  1  0  0  0  0
 19 24  1  0  0  0  0
 20 23  1  0  0  0  0
 21 25  1  0  0  0  0
M  END
> <ref_mols>
x2603_0

> <original SMILES>
O=C(NCC1=NOC=2C=CC=CC12)C=3C=CC=CC3OCC4CC4

> <Chemgauss4>
-8.908870

> <ref_pdb>
x0678_0

$$$$
x2591
  -OEChem-05172015543D

 27 29  0     1  0  0  0  0  0999 V2000
   10.2769   -3.0991   23.9721 C   0  0  0  0  0  0  0  0  0  0  0  0
    9.2440   -3.8251   24.5650 C   0  0  0  0  0  0  0  0  0  0  0  0
    9.9882   -1.9516   23.2334 C   0  0  0  0  0  0  0  0  0  0  0  0
    5.2446    0.7088   19.3158 C   0  0  0  0  0  0  0  0  0  0  0  0
    7.6336   -2.2562   23.6805 C   0  0  0  0  0  0  0  0  0  0  0  0
    5.7554    0.2672   18.1059 C   0  0  0  0  0  0  0  0  0  0  0  0
    7.9167    0.6844   18.7641 C   0  0  0  0  0  0  0  0  0  0  0  0
    7.9223   -3.4037   24.4192 C   0  0  0  0  0  0  0  0  0  0  0  0
    7.5071    1.1457   20.0048 C   0  0  0  0  0  0  0  0  0  0  0  0
    8.6666   -1.5302   23.0876 C   0  0  0  0  0  0  0  0  0  0  0  0
    6.1438    1.1548   20.2780 C   0  0  0  0  0  0  0  0  0  0  0  0
    9.2747    0.4722   21.6856 C   0  0  0  0  0  0  0  0  0  0  0  0
    5.0173   -5.8887   24.6492 C   0  0  0  0  0  0  0  0  0  0  0  0
    6.5809   -5.2687   22.8183 C   0  0  0  0  0  0  0  0  0  0  0  0
    4.0636   -6.3897   23.5780 C   0  0  0  0  0  0  0  0  0  0  0  0
    5.5467   -5.8024   21.8416 C   0  0  0  0  0  0  0  0  0  0  0  0
    5.9848   -3.3554   26.0428 C   0  0  0  0  0  0  0  0  0  0  0  0
    8.5379    1.6117   20.9993 C   0  0  0  0  0  0  0  0  0  0  0  0
    6.8035   -4.1907   25.0618 C   0  0  1  0  0  0  0  0  0  0  0  0
    7.0730    0.2434   17.8042 N   0  0  0  0  0  0  0  0  0  0  0  0
    8.3782   -0.3820   22.3493 N   0  0  0  0  0  0  0  0  0  0  0  0
    5.8609   -4.7853   24.0553 N   0  3  0  0  0  0  0  0  0  0  0  0
   10.4953    0.3581   21.6383 O   0  0  0  0  0  0  0  0  0  0  0  0
    4.7894   -6.8557   22.4394 O   0  0  0  0  0  0  0  0  0  0  0  0
    5.5351    1.7128   21.7922 Cl  0  0  0  0  0  0  0  0  0  0  0  0
    7.3854   -0.1294   22.2825 H   0  0  0  0  0  0  0  0  0  0  0  0
    5.2237   -4.0300   23.7665 H   0  0  0  0  0  0  0  0  0  0  0  0
  1  2  2  0  0  0  0
  1  3  1  0  0  0  0
  2  8  1  0  0  0  0
  3 10  2  0  0  0  0
  4  6  2  0  0  0  0
  4 11  1  0  0  0  0
  5  8  2  0  0  0  0
  5 10  1  0  0  0  0
  6 20  1  0  0  0  0
  7  9  1  0  0  0  0
  7 20  2  0  0  0  0
  8 19  1  0  0  0  0
  9 11  2  0  0  0  0
  9 18  1  0  0  0  0
 10 21  1  0  0  0  0
 11 25  1  0  0  0  0
 12 18  1  0  0  0  0
 12 21  1  0  0  0  0
 12 23  2  0  0  0  0
 13 15  1  0  0  0  0
 13 22  1  0  0  0  0
 14 16  1  0  0  0  0
 14 22  1  0  0  0  0
 15 24  1  0  0  0  0
 16 24  1  0  0  0  0
 17 19  1  0  0  0  0
 19 22  1  0  0  0  0
 21 26  1  0  0  0  0
 22 27  1  0  0  0  0
M  CHG  1  22   1
M  END
> <ref_mols>
x2591_0

> <original SMILES>
CC(N1CCOCC1)C=2C=CC=C(NC(=O)CC=3C=NC=CC3Cl)C2

> <Chemgauss4>
-8.907784

> <ref_pdb>
x0107_0

$$$$
x0619
  -OEChem-05172015543D

 14 15  0     1  0  0  0  0  0999 V2000
    5.9794    0.7539   19.2981 C   0  0  0  0  0  0  0  0  0  0  0  0
    6.9317    0.7072   20.3101 C   0  0  0  0  0  0  0  0  0  0  0  0
    6.3955    0.4886   18.0033 C   0  0  0  0  0  0  0  0  0  0  0  0
    8.5666    0.1513   18.6747 C   0  0  0  0  0  0  0  0  0  0  0  0
    8.2523    0.4010   20.0009 C   0  0  0  0  0  0  0  0  0  0  0  0
   12.2409   -2.1046   21.6168 C   0  0  0  0  0  0  0  0  0  0  0  0
   12.5505   -0.7333   21.0867 C   0  0  0  0  0  0  0  0  0  0  0  0
   11.2857   -0.9715   21.8610 C   0  0  0  0  0  0  0  0  0  0  0  0
    8.7491    0.6194   22.4704 C   0  0  0  0  0  0  0  0  0  0  0  0
    9.3106    0.3418   21.0782 C   0  0  1  0  0  0  0  0  0  0  0  0
    7.6690    0.1875   17.6644 N   0  0  0  0  0  0  0  0  0  0  0  0
   10.0209   -0.9734   21.1175 N   0  3  0  0  0  0  0  0  0  0  0  0
   10.1808   -1.2825   20.1418 H   0  0  0  0  0  0  0  0  0  0  0  0
    9.3738   -1.6775   21.5157 H   0  0  0  0  0  0  0  0  0  0  0  0
  1  2  2  0  0  0  0
  1  3  1  0  0  0  0
  2  5  1  0  0  0  0
  3 11  2  0  0  0  0
  4  5  2  0  0  0  0
  4 11  1  0  0  0  0
  5 10  1  0  0  0  0
  6  7  1  0  0  0  0
  6  8  1  0  0  0  0
  7  8  1  0  0  0  0
  8 12  1  0  0  0  0
  9 10  1  0  0  0  0
 10 12  1  0  0  0  0
 12 13  1  0  0  0  0
 12 14  1  0  0  0  0
M  CHG  1  12   1
M  END
> <ref_mols>
x0619_0

> <original SMILES>
CC(NC1CC1)C=2C=CC=NC2

> <Chemgauss4>
-8.906029

> <ref_pdb>
x0678_0

$$$$
x1133
  -OEChem-05172015543D

 14 15  0     1  0  0  0  0  0999 V2000
    5.9794    0.7539   19.2981 C   0  0  0  0  0  0  0  0  0  0  0  0
    6.9317    0.7072   20.3101 C   0  0  0  0  0  0  0  0  0  0  0  0
    6.3955    0.4886   18.0033 C   0  0  0  0  0  0  0  0  0  0  0  0
    8.5666    0.1513   18.6747 C   0  0  0  0  0  0  0  0  0  0  0  0
    8.2523    0.4010   20.0009 C   0  0  0  0  0  0  0  0  0  0  0  0
   12.2409   -2.1046   21.6168 C   0  0  0  0  0  0  0  0  0  0  0  0
   12.5505   -0.7333   21.0867 C   0  0  0  0  0  0  0  0  0  0  0  0
   11.2857   -0.9715   21.8610 C   0  0  0  0  0  0  0  0  0  0  0  0
    8.7491    0.6194   22.4704 C   0  0  0  0  0  0  0  0  0  0  0  0
    9.3106    0.3418   21.0782 C   0  0  1  0  0  0  0  0  0  0  0  0
    7.6690    0.1875   17.6644 N   0  0  0  0  0  0  0  0  0  0  0  0
   10.0209   -0.9734   21.1175 N   0  3  0  0  0  0  0  0  0  0  0  0
   10.1808   -1.2825   20.1418 H   0  0  0  0  0  0  0  0  0  0  0  0
    9.3738   -1.6775   21.5157 H   0  0  0  0  0  0  0  0  0  0  0  0
  1  2  2  0  0  0  0
  1  3  1  0  0  0  0
  2  5  1  0  0  0  0
  3 11  2  0  0  0  0
  4  5  2  0  0  0  0
  4 11  1  0  0  0  0
  5 10  1  0  0  0  0
  6  7  1  0  0  0  0
  6  8  1  0  0  0  0
  7  8  1  0  0  0  0
  8 12  1  0  0  0  0
  9 10  1  0  0  0  0
 10 12  1  0  0  0  0
 12 13  1  0  0  0  0
 12 14  1  0  0  0  0
M  CHG  1  12   1
M  END
> <ref_mols>
x1133_0

> <original SMILES>
CC(NC1CC1)C=2C=CC=NC2

> <Chemgauss4>
-8.906029

> <ref_pdb>
x0678_0

$$$$
x0600
  -OEChem-05172015543D

 17 18  0     1  0  0  0  0  0999 V2000
   12.3768   -2.0034   24.6126 C   0  0  0  0  0  0  0  0  0  0  0  0
   11.4226   -1.8700   23.6040 C   0  0  0  0  0  0  0  0  0  0  0  0
   12.3401   -3.1061   25.4661 C   0  0  0  0  0  0  0  0  0  0  0  0
   10.4316   -2.8392   23.4489 C   0  0  0  0  0  0  0  0  0  0  0  0
   11.3490   -4.0753   25.3110 C   0  0  0  0  0  0  0  0  0  0  0  0
   10.3948   -3.9419   24.3024 C   0  0  0  0  0  0  0  0  0  0  0  0
    8.3873   -4.8429   23.1320 C   0  0  0  0  0  0  0  0  0  0  0  0
    7.5353   -5.8941   21.0435 C   0  0  0  0  0  0  0  0  0  0  0  0
    6.0930   -5.4417   21.1493 C   0  0  0  0  0  0  0  0  0  0  0  0
    6.7164   -6.6973   23.1526 C   0  0  0  0  0  0  0  0  0  0  0  0
    7.9555   -6.1257   22.4864 C   0  0  2  0  0  0  0  0  0  0  0  0
    9.4542   -6.1274   25.0167 C   0  0  0  0  0  0  0  0  0  0  0  0
    9.3652   -4.9488   24.1409 N   0  0  0  0  0  0  0  0  0  0  0  0
    5.5625   -6.1828   22.3372 N   0  3  0  0  0  0  0  0  0  0  0  0
    7.8878   -3.7932   22.7194 O   0  0  0  0  0  0  0  0  0  0  0  0
    4.9584   -5.5703   22.9022 H   0  0  0  0  0  0  0  0  0  0  0  0
    4.9728   -6.9695   22.0323 H   0  0  0  0  0  0  0  0  0  0  0  0
  1  2  1  0  0  0  0
  1  3  2  0  0  0  0
  2  4  2  0  0  0  0
  3  5  1  0  0  0  0
  4  6  1  0  0  0  0
  5  6  2  0  0  0  0
  6 13  1  0  0  0  0
  7 11  1  0  0  0  0
  7 13  1  0  0  0  0
  7 15  2  0  0  0  0
  8  9  1  0  0  0  0
  8 11  1  0  0  0  0
  9 14  1  0  0  0  0
 10 11  1  0  0  0  0
 10 14  1  0  0  0  0
 12 13  1  0  0  0  0
 14 16  1  0  0  0  0
 14 17  1  0  0  0  0
M  CHG  1  14   1
M  END
> <ref_mols>
x0600_0

> <original SMILES>
CN(C(=O)C1CCNC1)C=2C=CC=CC2

> <Chemgauss4>
-8.903916

> <ref_pdb>
x0749_0

$$$$
x1205
  -OEChem-05172015543D

 17 18  0     1  0  0  0  0  0999 V2000
   12.3768   -2.0034   24.6126 C   0  0  0  0  0  0  0  0  0  0  0  0
   11.4226   -1.8700   23.6040 C   0  0  0  0  0  0  0  0  0  0  0  0
   12.3401   -3.1061   25.4661 C   0  0  0  0  0  0  0  0  0  0  0  0
   10.4316   -2.8392   23.4489 C   0  0  0  0  0  0  0  0  0  0  0  0
   11.3490   -4.0753   25.3110 C   0  0  0  0  0  0  0  0  0  0  0  0
   10.3948   -3.9419   24.3024 C   0  0  0  0  0  0  0  0  0  0  0  0
    8.3873   -4.8429   23.1320 C   0  0  0  0  0  0  0  0  0  0  0  0
    7.5353   -5.8941   21.0435 C   0  0  0  0  0  0  0  0  0  0  0  0
    6.0930   -5.4417   21.1493 C   0  0  0  0  0  0  0  0  0  0  0  0
    6.7164   -6.6973   23.1526 C   0  0  0  0  0  0  0  0  0  0  0  0
    7.9555   -6.1257   22.4864 C   0  0  2  0  0  0  0  0  0  0  0  0
    9.4542   -6.1274   25.0167 C   0  0  0  0  0  0  0  0  0  0  0  0
    9.3652   -4.9488   24.1409 N   0  0  0  0  0  0  0  0  0  0  0  0
    5.5625   -6.1828   22.3372 N   0  3  0  0  0  0  0  0  0  0  0  0
    7.8878   -3.7932   22.7194 O   0  0  0  0  0  0  0  0  0  0  0  0
    4.9584   -5.5703   22.9022 H   0  0  0  0  0  0  0  0  0  0  0  0
    4.9728   -6.9695   22.0323 H   0  0  0  0  0  0  0  0  0  0  0  0
  1  2  1  0  0  0  0
  1  3  2  0  0  0  0
  2  4  2  0  0  0  0
  3  5  1  0  0  0  0
  4  6  1  0  0  0  0
  5  6  2  0  0  0  0
  6 13  1  0  0  0  0
  7 11  1  0  0  0  0
  7 13  1  0  0  0  0
  7 15  2  0  0  0  0
  8  9  1  0  0  0  0
  8 11  1  0  0  0  0
  9 14  1  0  0  0  0
 10 11  1  0  0  0  0
 10 14  1  0  0  0  0
 12 13  1  0  0  0  0
 14 16  1  0  0  0  0
 14 17  1  0  0  0  0
M  CHG  1  14   1
M  END
> <ref_mols>
x1205_0

> <original SMILES>
CN(C(=O)C1CCNC1)C=2C=CC=CC2

> <Chemgauss4>
-8.903916

> <ref_pdb>
x0749_0

$$$$
x2645
  -OEChem-05172015543D

 24 26  0     0  0  0  0  0  0999 V2000
   13.5006    1.2970   24.4746 C   0  0  0  0  0  0  0  0  0  0  0  0
    7.1871   -2.2072   21.2092 C   0  0  0  0  0  0  0  0  0  0  0  0
   13.7370   -1.1056   24.8648 C   0  0  0  0  0  0  0  0  0  0  0  0
   11.6656   -0.0015   25.4367 C   0  0  0  0  0  0  0  0  0  0  0  0
    8.0678   -3.0208   21.9197 C   0  0  0  0  0  0  0  0  0  0  0  0
   13.2127   -2.3194   25.3091 C   0  0  0  0  0  0  0  0  0  0  0  0
   11.1413   -1.2153   25.8810 C   0  0  0  0  0  0  0  0  0  0  0  0
    5.9927   -2.7514   20.7565 C   0  0  0  0  0  0  0  0  0  0  0  0
    7.3907   -6.5335   22.6563 C   0  0  0  0  0  0  0  0  0  0  0  0
   12.9634    0.0534   24.9286 C   0  0  0  0  0  0  0  0  0  0  0  0
    7.6942   -4.3565   22.1394 C   0  0  0  0  0  0  0  0  0  0  0  0
   11.9149   -2.3743   25.8172 C   0  0  0  0  0  0  0  0  0  0  0  0
    8.2705   -5.4808   22.7877 C   0  0  0  0  0  0  0  0  0  0  0  0
    6.4672   -4.7705   21.6292 C   0  0  0  0  0  0  0  0  0  0  0  0
    9.7140   -4.5246   24.6261 C   0  0  0  0  0  0  0  0  0  0  0  0
    9.5745   -5.5252   23.4792 C   0  0  0  0  0  0  0  0  0  0  0  0
   11.3500   -3.6811   26.2940 C   0  0  0  0  0  0  0  0  0  0  0  0
   13.9371    2.3070   24.1058 N   0  0  0  0  0  0  0  0  0  0  0  0
    5.5818   -4.0280   20.9382 N   0  0  0  0  0  0  0  0  0  0  0  0
    6.3009   -6.0916   21.9518 N   0  0  0  0  0  0  0  0  0  0  0  0
   10.9792   -4.5424   25.1957 N   0  0  0  0  0  0  0  0  0  0  0  0
    8.7918   -3.7950   24.9813 O   0  0  0  0  0  0  0  0  0  0  0  0
    5.4980   -6.6540   21.7063 H   0  0  0  0  0  0  0  0  0  0  0  0
   11.6719   -5.1866   24.8256 H   0  0  0  0  0  0  0  0  0  0  0  0
  1 10  1  0  0  0  0
  1 18  3  0  0  0  0
  2  5  2  0  0  0  0
  2  8  1  0  0  0  0
  3  6  2  0  0  0  0
  3 10  1  0  0  0  0
  4  7  1  0  0  0  0
  4 10  2  0  0  0  0
  5 11  1  0  0  0  0
  6 12  1  0  0  0  0
  7 12  2  0  0  0  0
  8 19  2  0  0  0  0
  9 13  2  0  0  0  0
  9 20  1  0  0  0  0
 11 13  1  0  0  0  0
 11 14  2  0  0  0  0
 12 17  1  0  0  0  0
 13 16  1  0  0  0  0
 14 19  1  0  0  0  0
 14 20  1  0  0  0  0
 15 16  1  0  0  0  0
 15 21  1  0  0  0  0
 15 22  2  0  0  0  0
 17 21  1  0  0  0  0
 20 23  1  0  0  0  0
 21 24  1  0  0  0  0
M  END
> <ref_mols>
x2645_0

> <original SMILES>
O=C(CC1=CNC=2N=CC=CC12)NCC=3C=CC(C#N)=CC3

> <Chemgauss4>
-8.901452

> <ref_pdb>
x0749_0

> <CYS145-warhead dist minimum (A)>
9.049475

> <CYS145-warhead dist mean (A)>
15.686466

> <CYS145-warhead dist stddev (A)>
1.1220489

$$$$
x2477
  -OEChem-05172015543D

 24 26  0     0  0  0  0  0  0999 V2000
   13.5006    1.2970   24.4746 C   0  0  0  0  0  0  0  0  0  0  0  0
    7.1871   -2.2072   21.2092 C   0  0  0  0  0  0  0  0  0  0  0  0
   13.7370   -1.1056   24.8648 C   0  0  0  0  0  0  0  0  0  0  0  0
   11.6656   -0.0015   25.4367 C   0  0  0  0  0  0  0  0  0  0  0  0
    8.0678   -3.0208   21.9197 C   0  0  0  0  0  0  0  0  0  0  0  0
   13.2127   -2.3194   25.3091 C   0  0  0  0  0  0  0  0  0  0  0  0
   11.1413   -1.2153   25.8810 C   0  0  0  0  0  0  0  0  0  0  0  0
    5.9927   -2.7514   20.7565 C   0  0  0  0  0  0  0  0  0  0  0  0
    7.3907   -6.5335   22.6563 C   0  0  0  0  0  0  0  0  0  0  0  0
   12.9634    0.0534   24.9286 C   0  0  0  0  0  0  0  0  0  0  0  0
    7.6942   -4.3565   22.1394 C   0  0  0  0  0  0  0  0  0  0  0  0
   11.9149   -2.3743   25.8172 C   0  0  0  0  0  0  0  0  0  0  0  0
    8.2705   -5.4808   22.7877 C   0  0  0  0  0  0  0  0  0  0  0  0
    6.4672   -4.7705   21.6292 C   0  0  0  0  0  0  0  0  0  0  0  0
    9.7140   -4.5246   24.6261 C   0  0  0  0  0  0  0  0  0  0  0  0
    9.5745   -5.5252   23.4792 C   0  0  0  0  0  0  0  0  0  0  0  0
   11.3500   -3.6811   26.2940 C   0  0  0  0  0  0  0  0  0  0  0  0
   13.9371    2.3070   24.1058 N   0  0  0  0  0  0  0  0  0  0  0  0
    5.5818   -4.0280   20.9382 N   0  0  0  0  0  0  0  0  0  0  0  0
    6.3009   -6.0916   21.9518 N   0  0  0  0  0  0  0  0  0  0  0  0
   10.9792   -4.5424   25.1957 N   0  0  0  0  0  0  0  0  0  0  0  0
    8.7918   -3.7950   24.9813 O   0  0  0  0  0  0  0  0  0  0  0  0
    5.4980   -6.6540   21.7063 H   0  0  0  0  0  0  0  0  0  0  0  0
   11.6719   -5.1866   24.8256 H   0  0  0  0  0  0  0  0  0  0  0  0
  1 10  1  0  0  0  0
  1 18  3  0  0  0  0
  2  5  2  0  0  0  0
  2  8  1  0  0  0  0
  3  6  2  0  0  0  0
  3 10  1  0  0  0  0
  4  7  1  0  0  0  0
  4 10  2  0  0  0  0
  5 11  1  0  0  0  0
  6 12  1  0  0  0  0
  7 12  2  0  0  0  0
  8 19  2  0  0  0  0
  9 13  2  0  0  0  0
  9 20  1  0  0  0  0
 11 13  1  0  0  0  0
 11 14  2  0  0  0  0
 12 17  1  0  0  0  0
 13 16  1  0  0  0  0
 14 19  1  0  0  0  0
 14 20  1  0  0  0  0
 15 16  1  0  0  0  0
 15 21  1  0  0  0  0
 15 22  2  0  0  0  0
 17 21  1  0  0  0  0
 20 23  1  0  0  0  0
 21 24  1  0  0  0  0
M  END
> <ref_mols>
x2477_0

> <original SMILES>
O=C(CC1=CNC=2N=CC=CC12)NCC=3C=CC(C#N)=CC3

> <Chemgauss4>
-8.901452

> <ref_pdb>
x0749_0

> <CYS145-warhead dist minimum (A)>
8.945817

> <CYS145-warhead dist mean (A)>
9.76905

> <CYS145-warhead dist stddev (A)>
0.35540926

$$$$
x0426
  -OEChem-05172015543D

 19 20  0     0  0  0  0  0  0999 V2000
   13.1963   -1.6853   22.1337 C   0  0  0  0  0  0  0  0  0  0  0  0
   14.0570   -0.9306   22.9308 C   0  0  0  0  0  0  0  0  0  0  0  0
   11.8266   -1.6910   22.3977 C   0  0  0  0  0  0  0  0  0  0  0  0
   13.5481   -0.1817   23.9918 C   0  0  0  0  0  0  0  0  0  0  0  0
    8.3988    1.0814   19.9402 C   0  0  0  0  0  0  0  0  0  0  0  0
    6.3605   -0.1772   19.7272 C   0  0  0  0  0  0  0  0  0  0  0  0
    8.5902    0.8989   18.5801 C   0  0  0  0  0  0  0  0  0  0  0  0
    6.6430   -0.3032   18.3766 C   0  0  0  0  0  0  0  0  0  0  0  0
   11.3177   -0.9421   23.4587 C   0  0  0  0  0  0  0  0  0  0  0  0
    7.2602    0.5300   20.5170 C   0  0  0  0  0  0  0  0  0  0  0  0
   12.1784   -0.1875   24.2558 C   0  0  0  0  0  0  0  0  0  0  0  0
    9.8889   -0.9509   23.7304 C   0  0  0  0  0  0  0  0  0  0  0  0
    7.0024    0.6975   21.9943 C   0  0  0  0  0  0  0  0  0  0  0  0
    7.6073   -0.4238   22.8354 C   0  0  0  0  0  0  0  0  0  0  0  0
    7.7386    0.2184   17.7806 N   0  0  0  0  0  0  0  0  0  0  0  0
    9.0453   -0.4974   22.7098 N   0  0  0  0  0  0  0  0  0  0  0  0
    9.4586   -1.3289   24.8345 O   0  0  0  0  0  0  0  0  0  0  0  0
   11.7009    0.5361   25.2787 F   0  0  0  0  0  0  0  0  0  0  0  0
    9.4524   -0.1409   21.8514 H   0  0  0  0  0  0  0  0  0  0  0  0
  1  2  1  0  0  0  0
  1  3  2  0  0  0  0
  2  4  2  0  0  0  0
  3  9  1  0  0  0  0
  4 11  1  0  0  0  0
  5  7  2  0  0  0  0
  5 10  1  0  0  0  0
  6  8  1  0  0  0  0
  6 10  2  0  0  0  0
  7 15  1  0  0  0  0
  8 15  2  0  0  0  0
  9 11  2  0  0  0  0
  9 12  1  0  0  0  0
 10 13  1  0  0  0  0
 11 18  1  0  0  0  0
 12 16  1  0  0  0  0
 12 17  2  0  0  0  0
 13 14  1  0  0  0  0
 14 16  1  0  0  0  0
 16 19  1  0  0  0  0
M  END
> <ref_mols>
x0426_0

> <original SMILES>
FC=1C=CC=CC1C(=O)NCCC=2C=CN=CC2

> <Chemgauss4>
-8.897669

> <ref_pdb>
x0678_0

$$$$
x0566
  -OEChem-05172015543D

 17 18  0     0  0  0  0  0  0999 V2000
   14.0166   -1.7279   22.5339 C   0  0  0  0  0  0  0  0  0  0  0  0
   14.3035   -0.9610   23.6631 C   0  0  0  0  0  0  0  0  0  0  0  0
   12.7009   -1.8442   22.0856 C   0  0  0  0  0  0  0  0  0  0  0  0
   13.2746   -0.3103   24.3440 C   0  0  0  0  0  0  0  0  0  0  0  0
   11.6720   -1.1936   22.7665 C   0  0  0  0  0  0  0  0  0  0  0  0
   11.9588   -0.4267   23.8958 C   0  0  0  0  0  0  0  0  0  0  0  0
    8.5069   -0.1052   19.1470 C   0  0  0  0  0  0  0  0  0  0  0  0
    7.7017    0.2757   21.4968 C   0  0  0  0  0  0  0  0  0  0  0  0
    7.0516    0.0023   18.7060 C   0  0  0  0  0  0  0  0  0  0  0  0
    6.2914    0.3621   20.9244 C   0  0  0  0  0  0  0  0  0  0  0  0
    8.5795   -0.5843   20.5933 C   0  0  0  0  0  0  0  0  0  0  0  0
   10.2581   -1.3210   22.2812 C   0  0  0  0  0  0  0  0  0  0  0  0
    9.9858   -0.5149   21.0640 N   0  3  0  0  0  0  0  0  0  0  0  0
    6.3181    0.8567   19.5847 O   0  0  0  0  0  0  0  0  0  0  0  0
   10.9769    0.2024   24.5565 F   0  0  0  0  0  0  0  0  0  0  0  0
   10.6060   -0.8242   20.3052 H   0  0  0  0  0  0  0  0  0  0  0  0
   10.2276    0.4675   21.2450 H   0  0  0  0  0  0  0  0  0  0  0  0
  1  2  1  0  0  0  0
  1  3  2  0  0  0  0
  2  4  2  0  0  0  0
  3  5  1  0  0  0  0
  4  6  1  0  0  0  0
  5  6  2  0  0  0  0
  5 12  1  0  0  0  0
  6 15  1  0  0  0  0
  7  9  1  0  0  0  0
  7 11  1  0  0  0  0
  8 10  1  0  0  0  0
  8 11  1  0  0  0  0
  9 14  1  0  0  0  0
 10 14  1  0  0  0  0
 11 13  1  0  0  0  0
 12 13  1  0  0  0  0
 13 16  1  0  0  0  0
 13 17  1  0  0  0  0
M  CHG  1  13   1
M  END
> <ref_mols>
x0566_0

> <original SMILES>
FC=1C=CC=CC1CNC2CCOCC2

> <Chemgauss4>
-8.897429

> <ref_pdb>
x0678_0

$$$$
x1109
  -OEChem-05172015543D

 17 18  0     0  0  0  0  0  0999 V2000
   14.0166   -1.7279   22.5339 C   0  0  0  0  0  0  0  0  0  0  0  0
   14.3035   -0.9610   23.6631 C   0  0  0  0  0  0  0  0  0  0  0  0
   12.7009   -1.8442   22.0856 C   0  0  0  0  0  0  0  0  0  0  0  0
   13.2746   -0.3103   24.3440 C   0  0  0  0  0  0  0  0  0  0  0  0
   11.6720   -1.1936   22.7665 C   0  0  0  0  0  0  0  0  0  0  0  0
   11.9588   -0.4267   23.8958 C   0  0  0  0  0  0  0  0  0  0  0  0
    8.5069   -0.1052   19.1470 C   0  0  0  0  0  0  0  0  0  0  0  0
    7.7017    0.2757   21.4968 C   0  0  0  0  0  0  0  0  0  0  0  0
    7.0516    0.0023   18.7060 C   0  0  0  0  0  0  0  0  0  0  0  0
    6.2914    0.3621   20.9244 C   0  0  0  0  0  0  0  0  0  0  0  0
    8.5795   -0.5843   20.5933 C   0  0  0  0  0  0  0  0  0  0  0  0
   10.2581   -1.3210   22.2812 C   0  0  0  0  0  0  0  0  0  0  0  0
    9.9858   -0.5149   21.0640 N   0  3  0  0  0  0  0  0  0  0  0  0
    6.3181    0.8567   19.5847 O   0  0  0  0  0  0  0  0  0  0  0  0
   10.9769    0.2024   24.5565 F   0  0  0  0  0  0  0  0  0  0  0  0
   10.6060   -0.8242   20.3052 H   0  0  0  0  0  0  0  0  0  0  0  0
   10.2276    0.4675   21.2450 H   0  0  0  0  0  0  0  0  0  0  0  0
  1  2  1  0  0  0  0
  1  3  2  0  0  0  0
  2  4  2  0  0  0  0
  3  5  1  0  0  0  0
  4  6  1  0  0  0  0
  5  6  2  0  0  0  0
  5 12  1  0  0  0  0
  6 15  1  0  0  0  0
  7  9  1  0  0  0  0
  7 11  1  0  0  0  0
  8 10  1  0  0  0  0
  8 11  1  0  0  0  0
  9 14  1  0  0  0  0
 10 14  1  0  0  0  0
 11 13  1  0  0  0  0
 12 13  1  0  0  0  0
 13 16  1  0  0  0  0
 13 17  1  0  0  0  0
M  CHG  1  13   1
M  END
> <ref_mols>
x1109_0

> <original SMILES>
FC=1C=CC=CC1CNC2CCOCC2

> <Chemgauss4>
-8.897429

> <ref_pdb>
x0678_0

$$$$
x1053
  -OEChem-05172015543D

 19 20  0     0  0  0  0  0  0999 V2000
    9.7458   -4.4063   24.4889 C   0  0  0  0  0  0  0  0  0  0  0  0
    9.2285   -2.9418   22.6383 C   0  0  0  0  0  0  0  0  0  0  0  0
   10.8688   -3.6342   24.7861 C   0  0  0  0  0  0  0  0  0  0  0  0
   10.3515   -2.1696   22.9355 C   0  0  0  0  0  0  0  0  0  0  0  0
    8.9257   -4.0602   23.4150 C   0  0  0  0  0  0  0  0  0  0  0  0
   11.1716   -2.5158   24.0094 C   0  0  0  0  0  0  0  0  0  0  0  0
   13.2273   -1.9327   25.3355 C   0  0  0  0  0  0  0  0  0  0  0  0
    7.1335   -5.5264   24.2282 C   0  0  0  0  0  0  0  0  0  0  0  0
    6.9506   -4.4669   21.9780 C   0  0  0  0  0  0  0  0  0  0  0  0
    6.3404   -6.7251   23.7243 C   0  0  0  0  0  0  0  0  0  0  0  0
    6.1573   -5.6692   21.4818 C   0  0  0  0  0  0  0  0  0  0  0  0
   14.3013   -0.8741   25.3184 C   0  0  0  0  0  0  0  0  0  0  0  0
    4.1992   -5.5553   23.0714 C   0  0  0  0  0  0  0  0  0  0  0  0
    7.7994   -4.8364   23.1153 N   0  0  0  0  0  0  0  0  0  0  0  0
   12.2948   -1.7435   24.3068 N   0  0  0  0  0  0  0  0  0  0  0  0
    5.4077   -6.3229   22.6122 N   0  3  0  0  0  0  0  0  0  0  0  0
   13.2373   -2.8240   26.1783 O   0  0  0  0  0  0  0  0  0  0  0  0
   12.4653   -0.9340   23.6988 H   0  0  0  0  0  0  0  0  0  0  0  0
    5.0236   -7.2314   22.2152 H   0  0  0  0  0  0  0  0  0  0  0  0
  1  3  2  0  0  0  0
  1  5  1  0  0  0  0
  2  4  1  0  0  0  0
  2  5  2  0  0  0  0
  3  6  1  0  0  0  0
  4  6  2  0  0  0  0
  5 14  1  0  0  0  0
  6 15  1  0  0  0  0
  7 12  1  0  0  0  0
  7 15  1  0  0  0  0
  7 17  2  0  0  0  0
  8 10  1  0  0  0  0
  8 14  1  0  0  0  0
  9 11  1  0  0  0  0
  9 14  1  0  0  0  0
 10 16  1  0  0  0  0
 11 16  1  0  0  0  0
 13 16  1  0  0  0  0
 15 18  1  0  0  0  0
 16 19  1  0  0  0  0
M  CHG  1  16   1
M  END
> <ref_mols>
x1053_0

> <original SMILES>
CN1CCN(CC1)C=2C=CC(NC(=O)C)=CC2

> <Chemgauss4>
-8.891528

> <ref_pdb>
x0749_0

$$$$
x0345
  -OEChem-05172015543D

 19 20  0     0  0  0  0  0  0999 V2000
    9.7458   -4.4063   24.4889 C   0  0  0  0  0  0  0  0  0  0  0  0
    9.2285   -2.9418   22.6383 C   0  0  0  0  0  0  0  0  0  0  0  0
   10.8688   -3.6342   24.7861 C   0  0  0  0  0  0  0  0  0  0  0  0
   10.3515   -2.1696   22.9355 C   0  0  0  0  0  0  0  0  0  0  0  0
    8.9257   -4.0602   23.4150 C   0  0  0  0  0  0  0  0  0  0  0  0
   11.1716   -2.5158   24.0094 C   0  0  0  0  0  0  0  0  0  0  0  0
   13.2273   -1.9327   25.3355 C   0  0  0  0  0  0  0  0  0  0  0  0
    7.1335   -5.5264   24.2282 C   0  0  0  0  0  0  0  0  0  0  0  0
    6.9506   -4.4669   21.9780 C   0  0  0  0  0  0  0  0  0  0  0  0
    6.3404   -6.7251   23.7243 C   0  0  0  0  0  0  0  0  0  0  0  0
    6.1573   -5.6692   21.4818 C   0  0  0  0  0  0  0  0  0  0  0  0
   14.3013   -0.8741   25.3184 C   0  0  0  0  0  0  0  0  0  0  0  0
    4.1992   -5.5553   23.0714 C   0  0  0  0  0  0  0  0  0  0  0  0
    7.7994   -4.8364   23.1153 N   0  0  0  0  0  0  0  0  0  0  0  0
   12.2948   -1.7435   24.3068 N   0  0  0  0  0  0  0  0  0  0  0  0
    5.4077   -6.3229   22.6122 N   0  3  0  0  0  0  0  0  0  0  0  0
   13.2373   -2.8240   26.1783 O   0  0  0  0  0  0  0  0  0  0  0  0
   12.4653   -0.9340   23.6988 H   0  0  0  0  0  0  0  0  0  0  0  0
    5.0236   -7.2314   22.2152 H   0  0  0  0  0  0  0  0  0  0  0  0
  1  3  2  0  0  0  0
  1  5  1  0  0  0  0
  2  4  1  0  0  0  0
  2  5  2  0  0  0  0
  3  6  1  0  0  0  0
  4  6  2  0  0  0  0
  5 14  1  0  0  0  0
  6 15  1  0  0  0  0
  7 12  1  0  0  0  0
  7 15  1  0  0  0  0
  7 17  2  0  0  0  0
  8 10  1  0  0  0  0
  8 14  1  0  0  0  0
  9 11  1  0  0  0  0
  9 14  1  0  0  0  0
 10 16  1  0  0  0  0
 11 16  1  0  0  0  0
 13 16  1  0  0  0  0
 15 18  1  0  0  0  0
 16 19  1  0  0  0  0
M  CHG  1  16   1
M  END
> <ref_mols>
x0345_0

> <original SMILES>
CN1CCN(CC1)C=2C=CC(NC(=O)C)=CC2

> <Chemgauss4>
-8.891528

> <ref_pdb>
x0749_0

$$$$
x1282
  -OEChem-05172015543D

 19 20  0     0  0  0  0  0  0999 V2000
    9.7458   -4.4063   24.4889 C   0  0  0  0  0  0  0  0  0  0  0  0
    9.2285   -2.9418   22.6383 C   0  0  0  0  0  0  0  0  0  0  0  0
   10.8688   -3.6342   24.7861 C   0  0  0  0  0  0  0  0  0  0  0  0
   10.3515   -2.1696   22.9355 C   0  0  0  0  0  0  0  0  0  0  0  0
    8.9257   -4.0602   23.4150 C   0  0  0  0  0  0  0  0  0  0  0  0
   11.1716   -2.5158   24.0094 C   0  0  0  0  0  0  0  0  0  0  0  0
   13.2273   -1.9327   25.3355 C   0  0  0  0  0  0  0  0  0  0  0  0
    7.1335   -5.5264   24.2282 C   0  0  0  0  0  0  0  0  0  0  0  0
    6.9506   -4.4669   21.9780 C   0  0  0  0  0  0  0  0  0  0  0  0
    6.3404   -6.7251   23.7243 C   0  0  0  0  0  0  0  0  0  0  0  0
    6.1573   -5.6692   21.4818 C   0  0  0  0  0  0  0  0  0  0  0  0
   14.3013   -0.8741   25.3184 C   0  0  0  0  0  0  0  0  0  0  0  0
    4.1992   -5.5553   23.0714 C   0  0  0  0  0  0  0  0  0  0  0  0
    7.7994   -4.8364   23.1153 N   0  0  0  0  0  0  0  0  0  0  0  0
   12.2948   -1.7435   24.3068 N   0  0  0  0  0  0  0  0  0  0  0  0
    5.4077   -6.3229   22.6122 N   0  3  0  0  0  0  0  0  0  0  0  0
   13.2373   -2.8240   26.1783 O   0  0  0  0  0  0  0  0  0  0  0  0
   12.4653   -0.9340   23.6988 H   0  0  0  0  0  0  0  0  0  0  0  0
    5.0236   -7.2314   22.2152 H   0  0  0  0  0  0  0  0  0  0  0  0
  1  3  2  0  0  0  0
  1  5  1  0  0  0  0
  2  4  1  0  0  0  0
  2  5  2  0  0  0  0
  3  6  1  0  0  0  0
  4  6  2  0  0  0  0
  5 14  1  0  0  0  0
  6 15  1  0  0  0  0
  7 12  1  0  0  0  0
  7 15  1  0  0  0  0
  7 17  2  0  0  0  0
  8 10  1  0  0  0  0
  8 14  1  0  0  0  0
  9 11  1  0  0  0  0
  9 14  1  0  0  0  0
 10 16  1  0  0  0  0
 11 16  1  0  0  0  0
 13 16  1  0  0  0  0
 15 18  1  0  0  0  0
 16 19  1  0  0  0  0
M  CHG  1  16   1
M  END
> <ref_mols>
x1282_0

> <original SMILES>
CN1CCN(CC1)C=2C=CC(NC(=O)C)=CC2

> <Chemgauss4>
-8.891528

> <ref_pdb>
x0749_0

$$$$
x1071
  -OEChem-05172015543D

 18 19  0     0  0  0  0  0  0999 V2000
   12.8177   -1.3779   24.3298 C   0  0  0  0  0  0  0  0  0  0  0  0
   12.8011   -2.9704   26.1466 C   0  0  0  0  0  0  0  0  0  0  0  0
   11.6412   -1.9359   23.8299 C   0  0  0  0  0  0  0  0  0  0  0  0
   11.6245   -3.5284   25.6467 C   0  0  0  0  0  0  0  0  0  0  0  0
   13.3977   -1.8952   25.4882 C   0  0  0  0  0  0  0  0  0  0  0  0
   11.0445   -3.0111   24.4884 C   0  0  0  0  0  0  0  0  0  0  0  0
    6.3770   -5.1594   22.0878 C   0  0  0  0  0  0  0  0  0  0  0  0
    8.9089   -2.7408   23.2524 C   0  0  0  0  0  0  0  0  0  0  0  0
    9.5217   -4.9669   24.2478 C   0  0  0  0  0  0  0  0  0  0  0  0
    7.5072   -3.3420   23.3263 C   0  0  0  0  0  0  0  0  0  0  0  0
    8.6627   -5.5328   23.1162 C   0  0  0  0  0  0  0  0  0  0  0  0
   14.6559   -1.2995   26.0232 C   0  0  0  0  0  0  0  0  0  0  0  0
    9.8684   -3.5674   23.9904 N   0  0  0  0  0  0  0  0  0  0  0  0
    7.4847   -4.7121   22.8208 N   0  0  0  0  0  0  0  0  0  0  0  0
    6.4459   -6.4648   21.6421 N   0  0  0  0  0  0  0  0  0  0  0  0
    5.3940   -4.4581   21.8331 O   0  0  0  0  0  0  0  0  0  0  0  0
    7.2483   -7.0429   21.8698 H   0  0  0  0  0  0  0  0  0  0  0  0
    5.7031   -6.9201   21.1251 H   0  0  0  0  0  0  0  0  0  0  0  0
  1  3  2  0  0  0  0
  1  5  1  0  0  0  0
  2  4  1  0  0  0  0
  2  5  2  0  0  0  0
  3  6  1  0  0  0  0
  4  6  2  0  0  0  0
  5 12  1  0  0  0  0
  6 13  1  0  0  0  0
  7 14  1  0  0  0  0
  7 15  1  0  0  0  0
  7 16  2  0  0  0  0
  8 10  1  0  0  0  0
  8 13  1  0  0  0  0
  9 11  1  0  0  0  0
  9 13  1  0  0  0  0
 10 14  1  0  0  0  0
 11 14  1  0  0  0  0
 15 17  1  0  0  0  0
 15 18  1  0  0  0  0
M  END
> <ref_mols>
x1071_0

> <original SMILES>
CC=1C=CC(=CC1)N2CCN(CC2)C(=O)N

> <Chemgauss4>
-8.886573

> <ref_pdb>
x0749_0

$$$$
x0043
  -OEChem-05172015543D

 18 19  0     0  0  0  0  0  0999 V2000
   12.8177   -1.3779   24.3298 C   0  0  0  0  0  0  0  0  0  0  0  0
   12.8011   -2.9704   26.1466 C   0  0  0  0  0  0  0  0  0  0  0  0
   11.6412   -1.9359   23.8299 C   0  0  0  0  0  0  0  0  0  0  0  0
   11.6245   -3.5284   25.6467 C   0  0  0  0  0  0  0  0  0  0  0  0
   13.3977   -1.8952   25.4882 C   0  0  0  0  0  0  0  0  0  0  0  0
   11.0445   -3.0111   24.4884 C   0  0  0  0  0  0  0  0  0  0  0  0
    6.3770   -5.1594   22.0878 C   0  0  0  0  0  0  0  0  0  0  0  0
    8.9089   -2.7408   23.2524 C   0  0  0  0  0  0  0  0  0  0  0  0
    9.5217   -4.9669   24.2478 C   0  0  0  0  0  0  0  0  0  0  0  0
    7.5072   -3.3420   23.3263 C   0  0  0  0  0  0  0  0  0  0  0  0
    8.6627   -5.5328   23.1162 C   0  0  0  0  0  0  0  0  0  0  0  0
   14.6559   -1.2995   26.0232 C   0  0  0  0  0  0  0  0  0  0  0  0
    9.8684   -3.5674   23.9904 N   0  0  0  0  0  0  0  0  0  0  0  0
    7.4847   -4.7121   22.8208 N   0  0  0  0  0  0  0  0  0  0  0  0
    6.4459   -6.4648   21.6421 N   0  0  0  0  0  0  0  0  0  0  0  0
    5.3940   -4.4581   21.8331 O   0  0  0  0  0  0  0  0  0  0  0  0
    7.2483   -7.0429   21.8698 H   0  0  0  0  0  0  0  0  0  0  0  0
    5.7031   -6.9201   21.1251 H   0  0  0  0  0  0  0  0  0  0  0  0
  1  3  2  0  0  0  0
  1  5  1  0  0  0  0
  2  4  1  0  0  0  0
  2  5  2  0  0  0  0
  3  6  1  0  0  0  0
  4  6  2  0  0  0  0
  5 12  1  0  0  0  0
  6 13  1  0  0  0  0
  7 14  1  0  0  0  0
  7 15  1  0  0  0  0
  7 16  2  0  0  0  0
  8 10  1  0  0  0  0
  8 13  1  0  0  0  0
  9 11  1  0  0  0  0
  9 13  1  0  0  0  0
 10 14  1  0  0  0  0
 11 14  1  0  0  0  0
 15 17  1  0  0  0  0
 15 18  1  0  0  0  0
M  END
> <ref_mols>
x0043_0

> <original SMILES>
CC=1C=CC(=CC1)N2CCN(CC2)C(=O)N

> <Chemgauss4>
-8.886573

> <ref_pdb>
x0749_0

$$$$
x2810
  -OEChem-05172015543D

 28 30  0     1  0  0  0  0  0999 V2000
   14.6379   -2.2578   22.7693 C   0  0  0  0  0  0  0  0  0  0  0  0
   13.7797   -2.2557   23.8689 C   0  0  0  0  0  0  0  0  0  0  0  0
   14.4078   -1.3883   21.7032 C   0  0  0  0  0  0  0  0  0  0  0  0
    5.7667    0.1082   19.3371 C   0  0  0  0  0  0  0  0  0  0  0  0
   12.6912   -1.3840   23.9022 C   0  0  0  0  0  0  0  0  0  0  0  0
   13.3193   -0.5167   21.7366 C   0  0  0  0  0  0  0  0  0  0  0  0
    6.5627    0.6800   20.3233 C   0  0  0  0  0  0  0  0  0  0  0  0
    6.3434   -0.1420   18.1023 C   0  0  0  0  0  0  0  0  0  0  0  0
    8.3740    0.6906   18.7821 C   0  0  0  0  0  0  0  0  0  0  0  0
   12.4610   -0.5145   22.8361 C   0  0  0  0  0  0  0  0  0  0  0  0
    7.8923    0.9799   20.0486 C   0  0  0  0  0  0  0  0  0  0  0  0
    7.9932    0.8319   23.3453 C   0  0  0  0  0  0  0  0  0  0  0  0
    6.7684   -5.2686   22.8562 C   0  0  0  0  0  0  0  0  0  0  0  0
    5.3195   -5.1050   23.3014 C   0  0  0  0  0  0  0  0  0  0  0  0
    7.5846   -4.0335   23.2247 C   0  0  0  0  0  0  0  0  0  0  0  0
    5.2489   -4.6938   24.7659 C   0  0  0  0  0  0  0  0  0  0  0  0
    7.3976   -3.6845   24.7029 C   0  0  1  0  0  0  0  0  0  0  0  0
    7.6279    0.4676   25.8128 C   0  0  0  0  0  0  0  0  0  0  0  0
   11.2835    0.4286   22.8714 C   0  0  0  0  0  0  0  0  0  0  0  0
    8.7776    1.5971   21.0924 C   0  0  0  0  0  0  0  0  0  0  0  0
    8.1171   -2.3899   25.0553 C   0  0  0  0  0  0  0  0  0  0  0  0
   10.0194   -0.1741   22.2633 C   0  0  0  0  0  0  0  0  0  0  0  0
    8.2218   -0.1011   24.5322 C   0  0  1  0  0  0  0  0  0  0  0  0
    7.6312    0.1355   17.7983 N   0  0  0  0  0  0  0  0  0  0  0  0
    8.8921    0.7554   22.2779 N   0  0  0  0  0  0  0  0  0  0  0  0
    7.0370    1.6146   23.3666 O   0  0  0  0  0  0  0  0  0  0  0  0
    6.0077   -3.5068   24.9963 O   0  0  0  0  0  0  0  0  0  0  0  0
    7.5917   -1.3461   24.2540 O   0  0  0  0  0  0  0  0  0  0  0  0
  1  2  1  0  0  0  0
  1  3  2  0  0  0  0
  2  5  2  0  0  0  0
  3  6  1  0  0  0  0
  4  7  2  0  0  0  0
  4  8  1  0  0  0  0
  5 10  1  0  0  0  0
  6 10  2  0  0  0  0
  7 11  1  0  0  0  0
  8 24  2  0  0  0  0
  9 11  2  0  0  0  0
  9 24  1  0  0  0  0
 10 19  1  0  0  0  0
 11 20  1  0  0  0  0
 12 23  1  0  0  0  0
 12 25  1  0  0  0  0
 12 26  2  0  0  0  0
 13 14  1  0  0  0  0
 13 15  1  0  0  0  0
 14 16  1  0  0  0  0
 15 17  1  0  0  0  0
 16 27  1  0  0  0  0
 17 21  1  0  0  0  0
 17 27  1  0  0  0  0
 18 23  1  0  0  0  0
 19 22  1  0  0  0  0
 20 25  1  0  0  0  0
 21 28  1  0  0  0  0
 22 25  1  0  0  0  0
 23 28  1  0  0  0  0
M  END
> <ref_mols>
x2810_0

> <original SMILES>
CC(OCC1CCCCO1)C(=O)N(CCC=2C=CC=CC2)CC=3C=CC=NC3

> <Chemgauss4>
-8.880486

> <ref_pdb>
x0678_0

$$$$
x0349
  -OEChem-05172015543D

 18 19  0     0  0  0  0  0  0999 V2000
   13.9135   -1.3817   22.1594 C   0  0  0  0  0  0  0  0  0  0  0  0
   14.2558   -0.0328   22.0651 C   0  0  0  0  0  0  0  0  0  0  0  0
   12.7383   -1.7593   22.8091 C   0  0  0  0  0  0  0  0  0  0  0  0
   12.2478    0.5610   23.2703 C   0  0  0  0  0  0  0  0  0  0  0  0
   13.4230    0.9385   22.6206 C   0  0  0  0  0  0  0  0  0  0  0  0
   11.9055   -0.7879   23.3645 C   0  0  0  0  0  0  0  0  0  0  0  0
   12.9118    3.3992   22.4680 C   0  0  0  0  0  0  0  0  0  0  0  0
   11.9159    5.3203   25.3896 C   0  0  0  0  0  0  0  0  0  0  0  0
   11.6367    6.6512   24.7206 C   0  0  0  0  0  0  0  0  0  0  0  0
   13.2799    4.9186   24.8565 C   0  0  0  0  0  0  0  0  0  0  0  0
   12.1311    6.4212   23.3086 C   0  0  0  0  0  0  0  0  0  0  0  0
   13.6991    4.6863   22.3705 C   0  0  0  0  0  0  0  0  0  0  0  0
   13.7719    2.3067   22.5252 N   0  0  0  0  0  0  0  0  0  0  0  0
   13.3902    5.6062   23.5079 N   0  3  0  0  0  0  0  0  0  0  0  0
   11.6856    3.3874   22.4929 O   0  0  0  0  0  0  0  0  0  0  0  0
   10.4554   -1.2537   24.1661 Cl  0  0  0  0  0  0  0  0  0  0  0  0
   14.7709    2.5000   22.4963 H   0  0  0  0  0  0  0  0  0  0  0  0
   14.1701    6.2749   23.5747 H   0  0  0  0  0  0  0  0  0  0  0  0
  1  2  1  0  0  0  0
  1  3  2  0  0  0  0
  2  5  2  0  0  0  0
  3  6  1  0  0  0  0
  4  5  1  0  0  0  0
  4  6  2  0  0  0  0
  5 13  1  0  0  0  0
  6 16  1  0  0  0  0
  7 12  1  0  0  0  0
  7 13  1  0  0  0  0
  7 15  2  0  0  0  0
  8  9  1  0  0  0  0
  8 10  1  0  0  0  0
  9 11  1  0  0  0  0
 10 14  1  0  0  0  0
 11 14  1  0  0  0  0
 12 14  1  0  0  0  0
 13 17  1  0  0  0  0
 14 18  1  0  0  0  0
M  CHG  1  14   1
M  END
> <ref_mols>
x0349_0

> <original SMILES>
ClC=1C=CC=C(NC(=O)CN2CCCC2)C1

> <Chemgauss4>
-8.878303

> <ref_pdb>
x0195_0

$$$$
x0692
  -OEChem-05172015543D

 19 20  0     0  0  0  0  0  0999 V2000
   12.3852   -1.7541   21.7085 C   0  0  0  0  0  0  0  0  0  0  0  0
   12.9106   -0.5142   22.0721 C   0  0  0  0  0  0  0  0  0  0  0  0
   11.2965   -2.2811   22.4033 C   0  0  0  0  0  0  0  0  0  0  0  0
   11.2588   -0.3284   23.8255 C   0  0  0  0  0  0  0  0  0  0  0  0
   12.3474    0.1986   23.1306 C   0  0  0  0  0  0  0  0  0  0  0  0
   10.7334   -1.5683   23.4618 C   0  0  0  0  0  0  0  0  0  0  0  0
    6.1915   -1.6842   19.8367 C   0  0  0  0  0  0  0  0  0  0  0  0
    6.7587   -3.0883   21.7932 C   0  0  0  0  0  0  0  0  0  0  0  0
    6.7541   -0.6415   22.0871 C   0  0  0  0  0  0  0  0  0  0  0  0
    8.1222   -3.1867   22.4616 C   0  0  0  0  0  0  0  0  0  0  0  0
    8.1176   -0.7033   22.7621 C   0  0  0  0  0  0  0  0  0  0  0  0
   12.9089    1.5250   23.5178 C   0  0  0  0  0  0  0  0  0  0  0  0
    9.5629   -2.1356   24.2095 C   0  0  0  0  0  0  0  0  0  0  0  0
    6.0211   -0.2946   19.2767 C   0  0  0  0  0  0  0  0  0  0  0  0
    6.5695   -1.7757   21.1755 N   0  0  0  0  0  0  0  0  0  0  0  0
    8.2740   -2.0451   23.4420 N   0  3  0  0  0  0  0  0  0  0  0  0
    5.9965   -2.6576   19.1042 O   0  0  0  0  0  0  0  0  0  0  0  0
    7.5959    0.1985   18.6648 Cl  0  0  0  0  0  0  0  0  0  0  0  0
    7.5154   -2.1295   24.1328 H   0  0  0  0  0  0  0  0  0  0  0  0
  1  2  2  0  0  0  0
  1  3  1  0  0  0  0
  2  5  1  0  0  0  0
  3  6  2  0  0  0  0
  4  5  2  0  0  0  0
  4  6  1  0  0  0  0
  5 12  1  0  0  0  0
  6 13  1  0  0  0  0
  7 14  1  0  0  0  0
  7 15  1  0  0  0  0
  7 17  2  0  0  0  0
  8 10  1  0  0  0  0
  8 15  1  0  0  0  0
  9 11  1  0  0  0  0
  9 15  1  0  0  0  0
 10 16  1  0  0  0  0
 11 16  1  0  0  0  0
 13 16  1  0  0  0  0
 14 18  1  0  0  0  0
 16 19  1  0  0  0  0
M  CHG  1  16   1
M  END
> <ref_mols>
x0692_0

> <original SMILES>
Cc1cccc(CN2CCN(CC2)C(=O)CCl)c1

> <Chemgauss4>
-8.877540

> <ref_pdb>
x0831_0

$$$$
x1331
  -OEChem-05172015543D

 19 20  0     0  0  0  0  0  0999 V2000
   12.3852   -1.7541   21.7085 C   0  0  0  0  0  0  0  0  0  0  0  0
   12.9106   -0.5142   22.0721 C   0  0  0  0  0  0  0  0  0  0  0  0
   11.2965   -2.2811   22.4033 C   0  0  0  0  0  0  0  0  0  0  0  0
   11.2588   -0.3284   23.8255 C   0  0  0  0  0  0  0  0  0  0  0  0
   12.3474    0.1986   23.1306 C   0  0  0  0  0  0  0  0  0  0  0  0
   10.7334   -1.5683   23.4618 C   0  0  0  0  0  0  0  0  0  0  0  0
    6.1915   -1.6842   19.8367 C   0  0  0  0  0  0  0  0  0  0  0  0
    6.7587   -3.0883   21.7932 C   0  0  0  0  0  0  0  0  0  0  0  0
    6.7541   -0.6415   22.0871 C   0  0  0  0  0  0  0  0  0  0  0  0
    8.1222   -3.1867   22.4616 C   0  0  0  0  0  0  0  0  0  0  0  0
    8.1176   -0.7033   22.7621 C   0  0  0  0  0  0  0  0  0  0  0  0
   12.9089    1.5250   23.5178 C   0  0  0  0  0  0  0  0  0  0  0  0
    9.5629   -2.1356   24.2095 C   0  0  0  0  0  0  0  0  0  0  0  0
    6.0211   -0.2946   19.2767 C   0  0  0  0  0  0  0  0  0  0  0  0
    6.5695   -1.7757   21.1755 N   0  0  0  0  0  0  0  0  0  0  0  0
    8.2740   -2.0451   23.4420 N   0  3  0  0  0  0  0  0  0  0  0  0
    5.9965   -2.6576   19.1042 O   0  0  0  0  0  0  0  0  0  0  0  0
    7.5959    0.1985   18.6648 Cl  0  0  0  0  0  0  0  0  0  0  0  0
    7.5154   -2.1295   24.1328 H   0  0  0  0  0  0  0  0  0  0  0  0
  1  2  2  0  0  0  0
  1  3  1  0  0  0  0
  2  5  1  0  0  0  0
  3  6  2  0  0  0  0
  4  5  2  0  0  0  0
  4  6  1  0  0  0  0
  5 12  1  0  0  0  0
  6 13  1  0  0  0  0
  7 14  1  0  0  0  0
  7 15  1  0  0  0  0
  7 17  2  0  0  0  0
  8 10  1  0  0  0  0
  8 15  1  0  0  0  0
  9 11  1  0  0  0  0
  9 15  1  0  0  0  0
 10 16  1  0  0  0  0
 11 16  1  0  0  0  0
 13 16  1  0  0  0  0
 14 18  1  0  0  0  0
 16 19  1  0  0  0  0
M  CHG  1  16   1
M  END
> <ref_mols>
x1331_0

> <original SMILES>
Cc1cccc(CN2CCN(CC2)C(=O)CCl)c1

> <Chemgauss4>
-8.877540

> <ref_pdb>
x0831_0

$$$$
x0766
  -OEChem-05172015543D

 19 20  0     0  0  0  0  0  0999 V2000
   12.3852   -1.7541   21.7085 C   0  0  0  0  0  0  0  0  0  0  0  0
   12.9106   -0.5142   22.0721 C   0  0  0  0  0  0  0  0  0  0  0  0
   11.2965   -2.2811   22.4033 C   0  0  0  0  0  0  0  0  0  0  0  0
   11.2588   -0.3284   23.8255 C   0  0  0  0  0  0  0  0  0  0  0  0
   12.3474    0.1986   23.1306 C   0  0  0  0  0  0  0  0  0  0  0  0
   10.7334   -1.5683   23.4618 C   0  0  0  0  0  0  0  0  0  0  0  0
    6.1915   -1.6842   19.8367 C   0  0  0  0  0  0  0  0  0  0  0  0
    6.7587   -3.0883   21.7932 C   0  0  0  0  0  0  0  0  0  0  0  0
    6.7541   -0.6415   22.0871 C   0  0  0  0  0  0  0  0  0  0  0  0
    8.1222   -3.1867   22.4616 C   0  0  0  0  0  0  0  0  0  0  0  0
    8.1176   -0.7033   22.7621 C   0  0  0  0  0  0  0  0  0  0  0  0
   12.9089    1.5250   23.5178 C   0  0  0  0  0  0  0  0  0  0  0  0
    9.5629   -2.1356   24.2095 C   0  0  0  0  0  0  0  0  0  0  0  0
    6.0211   -0.2946   19.2767 C   0  0  0  0  0  0  0  0  0  0  0  0
    6.5695   -1.7757   21.1755 N   0  0  0  0  0  0  0  0  0  0  0  0
    8.2740   -2.0451   23.4420 N   0  3  0  0  0  0  0  0  0  0  0  0
    5.9965   -2.6576   19.1042 O   0  0  0  0  0  0  0  0  0  0  0  0
    7.5959    0.1985   18.6648 Cl  0  0  0  0  0  0  0  0  0  0  0  0
    7.5154   -2.1295   24.1328 H   0  0  0  0  0  0  0  0  0  0  0  0
  1  2  2  0  0  0  0
  1  3  1  0  0  0  0
  2  5  1  0  0  0  0
  3  6  2  0  0  0  0
  4  5  2  0  0  0  0
  4  6  1  0  0  0  0
  5 12  1  0  0  0  0
  6 13  1  0  0  0  0
  7 14  1  0  0  0  0
  7 15  1  0  0  0  0
  7 17  2  0  0  0  0
  8 10  1  0  0  0  0
  8 15  1  0  0  0  0
  9 11  1  0  0  0  0
  9 15  1  0  0  0  0
 10 16  1  0  0  0  0
 11 16  1  0  0  0  0
 13 16  1  0  0  0  0
 14 18  1  0  0  0  0
 16 19  1  0  0  0  0
M  CHG  1  16   1
M  END
> <ref_mols>
x0766_0

> <original SMILES>
Cc1cccc(CN2CCN(CC2)C(=O)CCl)c1

> <Chemgauss4>
-8.877540

> <ref_pdb>
x0831_0

$$$$
x1388
  -OEChem-05172015543D

 19 20  0     0  0  0  0  0  0999 V2000
   12.3852   -1.7541   21.7085 C   0  0  0  0  0  0  0  0  0  0  0  0
   12.9106   -0.5142   22.0721 C   0  0  0  0  0  0  0  0  0  0  0  0
   11.2965   -2.2811   22.4033 C   0  0  0  0  0  0  0  0  0  0  0  0
   11.2588   -0.3284   23.8255 C   0  0  0  0  0  0  0  0  0  0  0  0
   12.3474    0.1986   23.1306 C   0  0  0  0  0  0  0  0  0  0  0  0
   10.7334   -1.5683   23.4618 C   0  0  0  0  0  0  0  0  0  0  0  0
    6.1915   -1.6842   19.8367 C   0  0  0  0  0  0  0  0  0  0  0  0
    6.7587   -3.0883   21.7932 C   0  0  0  0  0  0  0  0  0  0  0  0
    6.7541   -0.6415   22.0871 C   0  0  0  0  0  0  0  0  0  0  0  0
    8.1222   -3.1867   22.4616 C   0  0  0  0  0  0  0  0  0  0  0  0
    8.1176   -0.7033   22.7621 C   0  0  0  0  0  0  0  0  0  0  0  0
   12.9089    1.5250   23.5178 C   0  0  0  0  0  0  0  0  0  0  0  0
    9.5629   -2.1356   24.2095 C   0  0  0  0  0  0  0  0  0  0  0  0
    6.0211   -0.2946   19.2767 C   0  0  0  0  0  0  0  0  0  0  0  0
    6.5695   -1.7757   21.1755 N   0  0  0  0  0  0  0  0  0  0  0  0
    8.2740   -2.0451   23.4420 N   0  3  0  0  0  0  0  0  0  0  0  0
    5.9965   -2.6576   19.1042 O   0  0  0  0  0  0  0  0  0  0  0  0
    7.5959    0.1985   18.6648 Cl  0  0  0  0  0  0  0  0  0  0  0  0
    7.5154   -2.1295   24.1328 H   0  0  0  0  0  0  0  0  0  0  0  0
  1  2  2  0  0  0  0
  1  3  1  0  0  0  0
  2  5  1  0  0  0  0
  3  6  2  0  0  0  0
  4  5  2  0  0  0  0
  4  6  1  0  0  0  0
  5 12  1  0  0  0  0
  6 13  1  0  0  0  0
  7 14  1  0  0  0  0
  7 15  1  0  0  0  0
  7 17  2  0  0  0  0
  8 10  1  0  0  0  0
  8 15  1  0  0  0  0
  9 11  1  0  0  0  0
  9 15  1  0  0  0  0
 10 16  1  0  0  0  0
 11 16  1  0  0  0  0
 13 16  1  0  0  0  0
 14 18  1  0  0  0  0
 16 19  1  0  0  0  0
M  CHG  1  16   1
M  END
> <ref_mols>
x1388_0

> <original SMILES>
Cc1cccc(CN2CCN(CC2)C(=O)CCl)c1

> <Chemgauss4>
-8.877540

> <ref_pdb>
x0831_0

$$$$
x1417
  -OEChem-05172015543D

 19 20  0     0  0  0  0  0  0999 V2000
   12.3852   -1.7541   21.7085 C   0  0  0  0  0  0  0  0  0  0  0  0
   12.9106   -0.5142   22.0721 C   0  0  0  0  0  0  0  0  0  0  0  0
   11.2965   -2.2811   22.4033 C   0  0  0  0  0  0  0  0  0  0  0  0
   11.2588   -0.3284   23.8255 C   0  0  0  0  0  0  0  0  0  0  0  0
   12.3474    0.1986   23.1306 C   0  0  0  0  0  0  0  0  0  0  0  0
   10.7334   -1.5683   23.4618 C   0  0  0  0  0  0  0  0  0  0  0  0
    6.1915   -1.6842   19.8367 C   0  0  0  0  0  0  0  0  0  0  0  0
    6.7587   -3.0883   21.7932 C   0  0  0  0  0  0  0  0  0  0  0  0
    6.7541   -0.6415   22.0871 C   0  0  0  0  0  0  0  0  0  0  0  0
    8.1222   -3.1867   22.4616 C   0  0  0  0  0  0  0  0  0  0  0  0
    8.1176   -0.7033   22.7621 C   0  0  0  0  0  0  0  0  0  0  0  0
   12.9089    1.5250   23.5178 C   0  0  0  0  0  0  0  0  0  0  0  0
    9.5629   -2.1356   24.2095 C   0  0  0  0  0  0  0  0  0  0  0  0
    6.0211   -0.2946   19.2767 C   0  0  0  0  0  0  0  0  0  0  0  0
    6.5695   -1.7757   21.1755 N   0  0  0  0  0  0  0  0  0  0  0  0
    8.2740   -2.0451   23.4420 N   0  3  0  0  0  0  0  0  0  0  0  0
    5.9965   -2.6576   19.1042 O   0  0  0  0  0  0  0  0  0  0  0  0
    7.5959    0.1985   18.6648 Cl  0  0  0  0  0  0  0  0  0  0  0  0
    7.5154   -2.1295   24.1328 H   0  0  0  0  0  0  0  0  0  0  0  0
  1  2  2  0  0  0  0
  1  3  1  0  0  0  0
  2  5  1  0  0  0  0
  3  6  2  0  0  0  0
  4  5  2  0  0  0  0
  4  6  1  0  0  0  0
  5 12  1  0  0  0  0
  6 13  1  0  0  0  0
  7 14  1  0  0  0  0
  7 15  1  0  0  0  0
  7 17  2  0  0  0  0
  8 10  1  0  0  0  0
  8 15  1  0  0  0  0
  9 11  1  0  0  0  0
  9 15  1  0  0  0  0
 10 16  1  0  0  0  0
 11 16  1  0  0  0  0
 13 16  1  0  0  0  0
 14 18  1  0  0  0  0
 16 19  1  0  0  0  0
M  CHG  1  16   1
M  END
> <ref_mols>
x1417_0

> <original SMILES>
Cc1cccc(CN2CCN(CC2)C(=O)CCl)c1

> <Chemgauss4>
-8.877540

> <ref_pdb>
x0831_0

$$$$
x0341
  -OEChem-05172015543D

 20 21  0     0  0  0  0  0  0999 V2000
   12.2042   -2.5243   23.9000 C   0  0  0  0  0  0  0  0  0  0  0  0
   13.2555   -1.5942   24.0809 C   0  0  0  0  0  0  0  0  0  0  0  0
   11.3541   -1.9648   22.9746 C   0  0  0  0  0  0  0  0  0  0  0  0
   12.9730   -0.5326   23.2530 C   0  0  0  0  0  0  0  0  0  0  0  0
   13.6823    0.7173   23.0064 C   0  0  0  0  0  0  0  0  0  0  0  0
   10.2957    6.1925   23.5313 C   0  0  0  0  0  0  0  0  0  0  0  0
   11.5245    2.0895   23.0631 C   0  0  0  0  0  0  0  0  0  0  0  0
   13.4514    2.8249   21.7209 C   0  0  0  0  0  0  0  0  0  0  0  0
   11.3972    3.4729   23.6840 C   0  0  0  0  0  0  0  0  0  0  0  0
   13.3540    4.2254   22.3104 C   0  0  0  0  0  0  0  0  0  0  0  0
   11.7392    5.9024   23.2146 C   0  0  0  0  0  0  0  0  0  0  0  0
   12.9104    1.8336   22.6505 N   0  0  0  0  0  0  0  0  0  0  0  0
    9.4866    6.0853   22.4208 N   0  0  0  0  0  0  0  0  0  0  0  0
   11.9186    4.5009   22.7024 N   0  3  0  0  0  0  0  0  0  0  0  0
   14.9071    0.7456   23.1225 O   0  0  0  0  0  0  0  0  0  0  0  0
    9.8867    6.4890   24.6500 O   0  0  0  0  0  0  0  0  0  0  0  0
   11.8157   -0.7508   22.5751 O   0  0  0  0  0  0  0  0  0  0  0  0
    9.8722    5.8356   21.5162 H   0  0  0  0  0  0  0  0  0  0  0  0
    8.4855    6.2486   22.4611 H   0  0  0  0  0  0  0  0  0  0  0  0
   11.3489    4.4257   21.8483 H   0  0  0  0  0  0  0  0  0  0  0  0
  1  2  1  0  0  0  0
  1  3  2  0  0  0  0
  2  4  2  0  0  0  0
  3 17  1  0  0  0  0
  4  5  1  0  0  0  0
  4 17  1  0  0  0  0
  5 12  1  0  0  0  0
  5 15  2  0  0  0  0
  6 11  1  0  0  0  0
  6 13  1  0  0  0  0
  6 16  2  0  0  0  0
  7  9  1  0  0  0  0
  7 12  1  0  0  0  0
  8 10  1  0  0  0  0
  8 12  1  0  0  0  0
  9 14  1  0  0  0  0
 10 14  1  0  0  0  0
 11 14  1  0  0  0  0
 13 18  1  0  0  0  0
 13 19  1  0  0  0  0
 14 20  1  0  0  0  0
M  CHG  1  14   1
M  END
> <ref_mols>
x0341_0

> <original SMILES>
NC(=O)CN1CCN(CC1)C(=O)C2=CC=CO2

> <Chemgauss4>
-8.873401

> <ref_pdb>
x0161_0

$$$$
x2354
  -OEChem-05172015543D

 19 20  0     0  0  0  0  0  0999 V2000
   12.2449   -3.5660   25.2880 C   0  0  0  0  0  0  0  0  0  0  0  0
   10.8427   -1.6024   25.1660 C   0  0  0  0  0  0  0  0  0  0  0  0
   13.2784   -2.7950   25.8200 C   0  0  0  0  0  0  0  0  0  0  0  0
   11.8762   -0.8313   25.6980 C   0  0  0  0  0  0  0  0  0  0  0  0
    9.8006   -5.0983   24.7163 C   0  0  0  0  0  0  0  0  0  0  0  0
   11.0271   -2.9697   24.9609 C   0  0  0  0  0  0  0  0  0  0  0  0
   13.0940   -1.4277   26.0251 C   0  0  0  0  0  0  0  0  0  0  0  0
    9.9629   -3.7628   24.4126 C   0  0  0  0  0  0  0  0  0  0  0  0
    8.1824   -4.1634   23.1965 C   0  0  0  0  0  0  0  0  0  0  0  0
    6.9642   -0.6029   22.4318 C   0  0  0  0  0  0  0  0  0  0  0  0
    7.4959   -1.7063   21.8963 C   0  0  0  0  0  0  0  0  0  0  0  0
    6.6519   -2.9103   21.6447 C   0  0  0  0  0  0  0  0  0  0  0  0
    9.0362   -3.2251   23.5410 N   0  0  0  0  0  0  0  0  0  0  0  0
    7.1097   -4.0500   22.3524 N   0  0  0  0  0  0  0  0  0  0  0  0
    5.6815   -2.8612   20.8980 O   0  0  0  0  0  0  0  0  0  0  0  0
   14.1022   -0.6751   26.5444 O   0  0  0  0  0  0  0  0  0  0  0  0
    8.4342   -5.7156   23.8837 S   0  0  0  0  0  0  0  0  0  0  0  0
    6.5563   -4.9176   22.2116 H   0  0  0  0  0  0  0  0  0  0  0  0
   14.8798   -1.2289   26.7189 H   0  0  0  0  0  0  0  0  0  0  0  0
  1  3  2  0  0  0  0
  1  6  1  0  0  0  0
  2  4  1  0  0  0  0
  2  6  2  0  0  0  0
  3  7  1  0  0  0  0
  4  7  2  0  0  0  0
  5  8  2  0  0  0  0
  5 17  1  0  0  0  0
  6  8  1  0  0  0  0
  7 16  1  0  0  0  0
  8 13  1  0  0  0  0
  9 13  2  0  0  0  0
  9 14  1  0  0  0  0
  9 17  1  0  0  0  0
 10 11  2  0  0  0  0
 11 12  1  0  0  0  0
 12 14  1  0  0  0  0
 12 15  2  0  0  0  0
 14 18  1  0  0  0  0
 16 19  1  0  0  0  0
M  END
> <ref_mols>
x2354_0

> <original SMILES>
Oc1ccc(cc1)c2csc(NC(=O)C=C)n2

> <Chemgauss4>
-8.860971

> <ref_pdb>
x0749_0

$$$$
x2550
  -OEChem-05172015543D

 19 20  0     0  0  0  0  0  0999 V2000
   12.2449   -3.5660   25.2880 C   0  0  0  0  0  0  0  0  0  0  0  0
   10.8427   -1.6024   25.1660 C   0  0  0  0  0  0  0  0  0  0  0  0
   13.2784   -2.7950   25.8200 C   0  0  0  0  0  0  0  0  0  0  0  0
   11.8762   -0.8313   25.6980 C   0  0  0  0  0  0  0  0  0  0  0  0
    9.8006   -5.0983   24.7163 C   0  0  0  0  0  0  0  0  0  0  0  0
   11.0271   -2.9697   24.9609 C   0  0  0  0  0  0  0  0  0  0  0  0
   13.0940   -1.4277   26.0251 C   0  0  0  0  0  0  0  0  0  0  0  0
    9.9629   -3.7628   24.4126 C   0  0  0  0  0  0  0  0  0  0  0  0
    8.1824   -4.1634   23.1965 C   0  0  0  0  0  0  0  0  0  0  0  0
    6.9642   -0.6029   22.4318 C   0  0  0  0  0  0  0  0  0  0  0  0
    7.4959   -1.7063   21.8963 C   0  0  0  0  0  0  0  0  0  0  0  0
    6.6519   -2.9103   21.6447 C   0  0  0  0  0  0  0  0  0  0  0  0
    9.0362   -3.2251   23.5410 N   0  0  0  0  0  0  0  0  0  0  0  0
    7.1097   -4.0500   22.3524 N   0  0  0  0  0  0  0  0  0  0  0  0
    5.6815   -2.8612   20.8980 O   0  0  0  0  0  0  0  0  0  0  0  0
   14.1022   -0.6751   26.5444 O   0  0  0  0  0  0  0  0  0  0  0  0
    8.4342   -5.7156   23.8837 S   0  0  0  0  0  0  0  0  0  0  0  0
    6.5563   -4.9176   22.2116 H   0  0  0  0  0  0  0  0  0  0  0  0
   14.8798   -1.2289   26.7189 H   0  0  0  0  0  0  0  0  0  0  0  0
  1  3  2  0  0  0  0
  1  6  1  0  0  0  0
  2  4  1  0  0  0  0
  2  6  2  0  0  0  0
  3  7  1  0  0  0  0
  4  7  2  0  0  0  0
  5  8  2  0  0  0  0
  5 17  1  0  0  0  0
  6  8  1  0  0  0  0
  7 16  1  0  0  0  0
  8 13  1  0  0  0  0
  9 13  2  0  0  0  0
  9 14  1  0  0  0  0
  9 17  1  0  0  0  0
 10 11  2  0  0  0  0
 11 12  1  0  0  0  0
 12 14  1  0  0  0  0
 12 15  2  0  0  0  0
 14 18  1  0  0  0  0
 16 19  1  0  0  0  0
M  END
> <ref_mols>
x2550_0

> <original SMILES>
Oc1ccc(cc1)c2csc(NC(=O)C=C)n2

> <Chemgauss4>
-8.860971

> <ref_pdb>
x0749_0

$$$$
x0684
  -OEChem-05172015543D

 14 14  0     0  0  0  0  0  0999 V2000
   12.8438   -2.0895   22.7766 C   0  0  0  0  0  0  0  0  0  0  0  0
   13.9983   -1.3954   22.4149 C   0  0  0  0  0  0  0  0  0  0  0  0
   11.7906   -1.4165   23.3960 C   0  0  0  0  0  0  0  0  0  0  0  0
   14.0998   -0.0284   22.6727 C   0  0  0  0  0  0  0  0  0  0  0  0
   11.8920   -0.0494   23.6537 C   0  0  0  0  0  0  0  0  0  0  0  0
   13.0466    0.6447   23.2921 C   0  0  0  0  0  0  0  0  0  0  0  0
   13.5308    4.2668   22.8954 C   0  0  0  0  0  0  0  0  0  0  0  0
   10.7552    0.6544   24.3177 C   0  0  0  0  0  0  0  0  0  0  0  0
   12.5792    6.2335   24.0345 C   0  0  0  0  0  0  0  0  0  0  0  0
   11.1833    4.2117   23.8595 C   0  0  0  0  0  0  0  0  0  0  0  0
   13.3570    2.8378   22.4261 C   0  0  0  0  0  0  0  0  0  0  0  0
   12.4620    4.8563   23.5712 N   0  0  0  0  0  0  0  0  0  0  0  0
   14.5958    4.8441   22.6559 O   0  0  0  0  0  0  0  0  0  0  0  0
   13.1633    1.9922   23.5397 O   0  0  0  0  0  0  0  0  0  0  0  0
  1  2  1  0  0  0  0
  1  3  2  0  0  0  0
  2  4  2  0  0  0  0
  3  5  1  0  0  0  0
  4  6  1  0  0  0  0
  5  6  2  0  0  0  0
  5  8  1  0  0  0  0
  6 14  1  0  0  0  0
  7 11  1  0  0  0  0
  7 12  1  0  0  0  0
  7 13  2  0  0  0  0
  9 12  1  0  0  0  0
 10 12  1  0  0  0  0
 11 14  1  0  0  0  0
M  END
> <ref_mols>
x0684_0

> <original SMILES>
CN(C)C(=O)COC=1C=CC=CC1C

> <Chemgauss4>
-8.853641

> <ref_pdb>
x0195_0

$$$$
x0466
  -OEChem-05172015543D

 15 15  0     0  0  0  0  0  0999 V2000
    5.3514    0.1201   19.7208 C   0  0  0  0  0  0  0  0  0  0  0  0
    6.2232   -0.6035   18.8889 C   0  0  0  0  0  0  0  0  0  0  0  0
    5.1949    1.3143   19.0685 C   0  0  0  0  0  0  0  0  0  0  0  0
    6.7466   -1.9782   19.0971 C   0  0  0  0  0  0  0  0  0  0  0  0
    7.1730   -4.3377   21.3979 C   0  0  0  0  0  0  0  0  0  0  0  0
    4.4316    2.5355   19.3537 C   0  0  0  0  0  0  0  0  0  0  0  0
    6.9449   -6.4358   22.4664 C   0  0  0  0  0  0  0  0  0  0  0  0
    8.0828   -3.4487   20.5831 C   0  0  0  0  0  0  0  0  0  0  0  0
    6.5801    0.0889   17.8036 N   0  0  0  0  0  0  0  0  0  0  0  0
    7.4911   -2.1837   20.2546 N   0  0  0  0  0  0  0  0  0  0  0  0
    6.5219   -2.8402   18.2516 O   0  0  0  0  0  0  0  0  0  0  0  0
    6.0484   -3.9848   21.7376 O   0  0  0  0  0  0  0  0  0  0  0  0
    5.9233    1.3079   17.9229 O   0  0  0  0  0  0  0  0  0  0  0  0
    7.7469   -5.5363   21.6938 O   0  0  0  0  0  0  0  0  0  0  0  0
    7.6840   -1.3971   20.8741 H   0  0  0  0  0  0  0  0  0  0  0  0
  1  2  1  0  0  0  0
  1  3  2  0  0  0  0
  2  4  1  0  0  0  0
  2  9  2  0  0  0  0
  3  6  1  0  0  0  0
  3 13  1  0  0  0  0
  4 10  1  0  0  0  0
  4 11  2  0  0  0  0
  5  8  1  0  0  0  0
  5 12  2  0  0  0  0
  5 14  1  0  0  0  0
  7 14  1  0  0  0  0
  8 10  1  0  0  0  0
  9 13  1  0  0  0  0
 10 15  1  0  0  0  0
M  END
> <ref_mols>
x0466_0

> <original SMILES>
COC(=O)CNC(=O)C=1C=C(C)ON1

> <Chemgauss4>
-8.849805

> <ref_pdb>
x0397_0

$$$$
x1065
  -OEChem-05172015543D

 15 15  0     0  0  0  0  0  0999 V2000
    5.3514    0.1201   19.7208 C   0  0  0  0  0  0  0  0  0  0  0  0
    6.2232   -0.6035   18.8889 C   0  0  0  0  0  0  0  0  0  0  0  0
    5.1949    1.3143   19.0685 C   0  0  0  0  0  0  0  0  0  0  0  0
    6.7466   -1.9782   19.0971 C   0  0  0  0  0  0  0  0  0  0  0  0
    7.1730   -4.3377   21.3979 C   0  0  0  0  0  0  0  0  0  0  0  0
    4.4316    2.5355   19.3537 C   0  0  0  0  0  0  0  0  0  0  0  0
    6.9449   -6.4358   22.4664 C   0  0  0  0  0  0  0  0  0  0  0  0
    8.0828   -3.4487   20.5831 C   0  0  0  0  0  0  0  0  0  0  0  0
    6.5801    0.0889   17.8036 N   0  0  0  0  0  0  0  0  0  0  0  0
    7.4911   -2.1837   20.2546 N   0  0  0  0  0  0  0  0  0  0  0  0
    6.5219   -2.8402   18.2516 O   0  0  0  0  0  0  0  0  0  0  0  0
    6.0484   -3.9848   21.7376 O   0  0  0  0  0  0  0  0  0  0  0  0
    5.9233    1.3079   17.9229 O   0  0  0  0  0  0  0  0  0  0  0  0
    7.7469   -5.5363   21.6938 O   0  0  0  0  0  0  0  0  0  0  0  0
    7.6840   -1.3971   20.8741 H   0  0  0  0  0  0  0  0  0  0  0  0
  1  2  1  0  0  0  0
  1  3  2  0  0  0  0
  2  4  1  0  0  0  0
  2  9  2  0  0  0  0
  3  6  1  0  0  0  0
  3 13  1  0  0  0  0
  4 10  1  0  0  0  0
  4 11  2  0  0  0  0
  5  8  1  0  0  0  0
  5 12  2  0  0  0  0
  5 14  1  0  0  0  0
  7 14  1  0  0  0  0
  8 10  1  0  0  0  0
  9 13  1  0  0  0  0
 10 15  1  0  0  0  0
M  END
> <ref_mols>
x1065_0

> <original SMILES>
COC(=O)CNC(=O)C=1C=C(C)ON1

> <Chemgauss4>
-8.849805

> <ref_pdb>
x0397_0

$$$$
x0653
  -OEChem-05172015543D

 17 18  0     0  0  0  0  0  0999 V2000
   13.5081   -0.3513   23.6610 C   0  0  0  0  0  0  0  0  0  0  0  0
   12.7641   -0.1204   22.5093 C   0  0  0  0  0  0  0  0  0  0  0  0
   12.9375   -0.0193   24.8792 C   0  0  0  0  0  0  0  0  0  0  0  0
    7.5738    0.2961   18.4542 C   0  0  0  0  0  0  0  0  0  0  0  0
   11.4902    0.4278   22.6095 C   0  0  0  0  0  0  0  0  0  0  0  0
   11.0099    0.7247   23.8748 C   0  0  0  0  0  0  0  0  0  0  0  0
    8.5743   -0.0638   20.2505 C   0  0  0  0  0  0  0  0  0  0  0  0
   10.7194    0.6647   21.3977 C   0  0  0  0  0  0  0  0  0  0  0  0
   11.7031    0.5146   25.0163 N   0  0  0  0  0  0  0  0  0  0  0  0
    8.7032    0.6315   19.1445 N   0  0  0  0  0  0  0  0  0  0  0  0
    7.4170   -0.7772   20.2102 N   0  0  0  0  0  0  0  0  0  0  0  0
    6.7540   -0.5630   19.0636 N   0  0  0  0  0  0  0  0  0  0  0  0
    9.5164   -0.0518   21.3098 N   0  0  0  0  0  0  0  0  0  0  0  0
   11.1275    1.4194   20.5050 O   0  0  0  0  0  0  0  0  0  0  0  0
    9.4512    1.4071   24.1324 Cl  0  0  0  0  0  0  0  0  0  0  0  0
    5.8669   -1.0073   18.8439 H   0  0  0  0  0  0  0  0  0  0  0  0
    9.2911   -0.6385   22.1094 H   0  0  0  0  0  0  0  0  0  0  0  0
  1  2  2  0  0  0  0
  1  3  1  0  0  0  0
  2  5  1  0  0  0  0
  3  9  2  0  0  0  0
  4 10  2  0  0  0  0
  4 12  1  0  0  0  0
  5  6  2  0  0  0  0
  5  8  1  0  0  0  0
  6  9  1  0  0  0  0
  6 15  1  0  0  0  0
  7 10  1  0  0  0  0
  7 11  2  0  0  0  0
  7 13  1  0  0  0  0
  8 13  1  0  0  0  0
  8 14  2  0  0  0  0
 11 12  1  0  0  0  0
 12 16  1  0  0  0  0
 13 17  1  0  0  0  0
M  END
> <ref_mols>
x0653_0

> <original SMILES>
ClC=1N=CC=CC1C(=O)NC2=NN=CN2

> <Chemgauss4>
-8.848922

> <ref_pdb>
x0678_0

$$$$
x0881
  -OEChem-05172015543D

 18 19  0     1  0  0  0  0  0999 V2000
   11.3066   -0.0452   22.9186 C   0  0  0  0  0  0  0  0  0  0  0  0
   13.2522    0.8992   23.9956 C   0  0  0  0  0  0  0  0  0  0  0  0
   12.1001   -1.0509   22.3668 C   0  0  0  0  0  0  0  0  0  0  0  0
   14.0457   -0.1066   23.4438 C   0  0  0  0  0  0  0  0  0  0  0  0
   11.8826    0.9299   23.7329 C   0  0  0  0  0  0  0  0  0  0  0  0
   13.4697   -1.0816   22.6294 C   0  0  0  0  0  0  0  0  0  0  0  0
   10.5264    4.4973   24.1445 C   0  0  0  0  0  0  0  0  0  0  0  0
   10.9660    5.6280   23.2294 C   0  0  0  0  0  0  0  0  0  0  0  0
   12.3177    3.6251   22.8544 C   0  0  0  0  0  0  0  0  0  0  0  0
   10.9511    3.2258   23.4061 C   0  0  1  0  0  0  0  0  0  0  0  0
   11.0293    2.0118   24.3276 C   0  0  0  0  0  0  0  0  0  0  0  0
   10.0303    2.9420   22.2994 N   0  0  0  0  0  0  0  0  0  0  0  0
   12.1671    5.0821   22.5100 N   0  3  0  0  0  0  0  0  0  0  0  0
   14.2313   -2.0489   22.1018 F   0  0  0  0  0  0  0  0  0  0  0  0
   10.5502    2.9436   21.4538 H   0  0  0  0  0  0  0  0  0  0  0  0
    9.6204    2.0517   22.4570 H   0  0  0  0  0  0  0  0  0  0  0  0
   12.0784    5.2053   21.4917 H   0  0  0  0  0  0  0  0  0  0  0  0
   13.0095    5.6019   22.7932 H   0  0  0  0  0  0  0  0  0  0  0  0
  1  3  2  0  0  0  0
  1  5  1  0  0  0  0
  2  4  1  0  0  0  0
  2  5  2  0  0  0  0
  3  6  1  0  0  0  0
  4  6  2  0  0  0  0
  5 11  1  0  0  0  0
  6 14  1  0  0  0  0
  7  8  1  0  0  0  0
  7 10  1  0  0  0  0
  8 13  1  0  0  0  0
  9 10  1  0  0  0  0
  9 13  1  0  0  0  0
 10 11  1  0  0  0  0
 10 12  1  0  0  0  0
 12 15  1  0  0  0  0
 12 16  1  0  0  0  0
 13 17  1  0  0  0  0
 13 18  1  0  0  0  0
M  CHG  1  13   1
M  END
> <ref_mols>
x0881_0

> <original SMILES>
NC1(CC2=CC=C(F)C=C2)CNCC1

> <Chemgauss4>
-8.842945

> <ref_pdb>
x0195_0

$$$$
x0256
  -OEChem-05172015543D

 15 16  0     0  0  0  0  0  0999 V2000
    8.9655    0.1908   22.4309 C   0  0  0  0  0  0  0  0  0  0  0  0
    9.8086    0.8225   21.5408 C   0  0  0  0  0  0  0  0  0  0  0  0
    8.1820    0.3235   20.1569 C   0  0  0  0  0  0  0  0  0  0  0  0
   13.5341   -1.3931   21.9790 C   0  0  0  0  0  0  0  0  0  0  0  0
   13.2681   -0.6472   24.2593 C   0  0  0  0  0  0  0  0  0  0  0  0
   12.6792   -0.4615   21.5430 C   0  0  0  0  0  0  0  0  0  0  0  0
   13.8415   -1.4917   23.3881 C   0  0  0  0  0  0  0  0  0  0  0  0
   12.3106    0.3997   23.7878 C   0  0  0  0  0  0  0  0  0  0  0  0
    7.3875    0.2110   18.9143 C   0  0  0  0  0  0  0  0  0  0  0  0
   14.8065   -2.5580   23.8047 C   0  0  0  0  0  0  0  0  0  0  0  0
   11.1456    1.4195   21.8724 C   0  0  0  0  0  0  0  0  0  0  0  0
    9.3611    0.8991   20.2363 N   0  0  0  0  0  0  0  0  0  0  0  0
   12.0683    0.4267   22.4098 N   0  0  0  0  0  0  0  0  0  0  0  0
   11.8057    1.1561   24.6161 O   0  0  0  0  0  0  0  0  0  0  0  0
    7.5513   -0.3307   21.6127 S   0  0  0  0  0  0  0  0  0  0  0  0
  1  2  2  0  0  0  0
  1 15  1  0  0  0  0
  2 11  1  0  0  0  0
  2 12  1  0  0  0  0
  3  9  1  0  0  0  0
  3 12  2  0  0  0  0
  3 15  1  0  0  0  0
  4  6  2  0  0  0  0
  4  7  1  0  0  0  0
  5  7  2  0  0  0  0
  5  8  1  0  0  0  0
  6 13  1  0  0  0  0
  7 10  1  0  0  0  0
  8 13  1  0  0  0  0
  8 14  2  0  0  0  0
 11 13  1  0  0  0  0
M  END
> <ref_mols>
x0256_0

> <original SMILES>
CC1=NC(CN2C=CC(C)=CC2=O)=CS1

> <Chemgauss4>
-8.842185

> <ref_pdb>
x0678_0

$$$$
x0543
  -OEChem-05172015543D

 19 21  0     0  0  0  0  0  0999 V2000
   12.3767    0.2629   24.3977 C   0  0  0  0  0  0  0  0  0  0  0  0
   13.4046   -0.6798   24.3792 C   0  0  0  0  0  0  0  0  0  0  0  0
   11.5380    0.4020   23.2918 C   0  0  0  0  0  0  0  0  0  0  0  0
   12.7552   -1.3441   22.1489 C   0  0  0  0  0  0  0  0  0  0  0  0
    9.2607   -0.0556   18.3156 C   0  0  0  0  0  0  0  0  0  0  0  0
    7.5185    0.8177   21.8209 C   0  0  0  0  0  0  0  0  0  0  0  0
    8.9280    0.1798   19.6626 C   0  0  0  0  0  0  0  0  0  0  0  0
   13.5939   -1.4833   23.2548 C   0  0  0  0  0  0  0  0  0  0  0  0
   11.7273   -0.4015   22.1674 C   0  0  0  0  0  0  0  0  0  0  0  0
    7.6010    0.5703   19.6222 C   0  0  0  0  0  0  0  0  0  0  0  0
    9.5334    0.1262   20.9137 C   0  0  0  0  0  0  0  0  0  0  0  0
   14.6935   -2.4905   23.2351 C   0  0  0  0  0  0  0  0  0  0  0  0
    5.9473    0.8720   17.7568 C   0  0  0  0  0  0  0  0  0  0  0  0
    8.2362    0.1650   17.4845 N   0  0  0  0  0  0  0  0  0  0  0  0
    6.8255    0.9064   20.6651 N   0  0  0  0  0  0  0  0  0  0  0  0
    8.8090    0.4530   22.0107 N   0  0  0  0  0  0  0  0  0  0  0  0
    7.2410    0.5441   18.3076 N   0  0  0  0  0  0  0  0  0  0  0  0
   10.8784   -0.2610   21.0488 N   0  0  0  0  0  0  0  0  0  0  0  0
   11.3322   -0.4857   20.1662 H   0  0  0  0  0  0  0  0  0  0  0  0
  1  2  2  0  0  0  0
  1  3  1  0  0  0  0
  2  8  1  0  0  0  0
  3  9  2  0  0  0  0
  4  8  2  0  0  0  0
  4  9  1  0  0  0  0
  5  7  1  0  0  0  0
  5 14  2  0  0  0  0
  6 15  1  0  0  0  0
  6 16  2  0  0  0  0
  7 10  1  0  0  0  0
  7 11  2  0  0  0  0
  8 12  1  0  0  0  0
  9 18  1  0  0  0  0
 10 15  2  0  0  0  0
 10 17  1  0  0  0  0
 11 16  1  0  0  0  0
 11 18  1  0  0  0  0
 13 17  1  0  0  0  0
 14 17  1  0  0  0  0
 18 19  1  0  0  0  0
M  END
> <ref_mols>
x0543_0

> <original SMILES>
CC=1C=CC=C(NC=2N=CN=C3N(C)N=CC23)C1

> <Chemgauss4>
-8.837940

> <ref_pdb>
x0678_0

$$$$
x2653
  -OEChem-05172015543D

 20 21  0     0  0  0  0  0  0999 V2000
   14.8236   -1.3998   26.8991 C   0  0  0  0  0  0  0  0  0  0  0  0
    6.8932   -6.5097   21.7655 C   0  0  0  0  0  0  0  0  0  0  0  0
   12.9361   -0.5418   25.6017 C   0  0  0  0  0  0  0  0  0  0  0  0
   13.2101   -2.9264   25.8762 C   0  0  0  0  0  0  0  0  0  0  0  0
    7.7787   -5.5959   22.3261 C   0  0  0  0  0  0  0  0  0  0  0  0
   11.7891   -0.7613   24.8389 C   0  0  0  0  0  0  0  0  0  0  0  0
   12.0631   -3.1460   25.1134 C   0  0  0  0  0  0  0  0  0  0  0  0
    5.8289   -6.0138   21.0299 C   0  0  0  0  0  0  0  0  0  0  0  0
    6.4809   -3.8396   21.3842 C   0  0  0  0  0  0  0  0  0  0  0  0
   13.6466   -1.6243   26.1203 C   0  0  0  0  0  0  0  0  0  0  0  0
   11.3526   -2.0634   24.5948 C   0  0  0  0  0  0  0  0  0  0  0  0
    7.5756   -4.2335   22.1367 C   0  0  0  0  0  0  0  0  0  0  0  0
    9.6039   -3.5139   23.4736 C   0  0  0  0  0  0  0  0  0  0  0  0
   15.7793   -1.2173   27.5315 N   0  0  0  0  0  0  0  0  0  0  0  0
    5.5991   -4.6976   20.8241 N   0  0  0  0  0  0  0  0  0  0  0  0
   10.2055   -2.2827   23.8315 N   0  0  0  0  0  0  0  0  0  0  0  0
    8.4593   -3.2798   22.6948 N   0  0  0  0  0  0  0  0  0  0  0  0
   10.0263   -4.6186   23.7998 O   0  0  0  0  0  0  0  0  0  0  0  0
    9.7354   -1.4404   23.4833 H   0  0  0  0  0  0  0  0  0  0  0  0
    8.2321   -2.3071   22.5042 H   0  0  0  0  0  0  0  0  0  0  0  0
  1 10  1  0  0  0  0
  1 14  3  0  0  0  0
  2  5  2  0  0  0  0
  2  8  1  0  0  0  0
  3  6  2  0  0  0  0
  3 10  1  0  0  0  0
  4  7  1  0  0  0  0
  4 10  2  0  0  0  0
  5 12  1  0  0  0  0
  6 11  1  0  0  0  0
  7 11  2  0  0  0  0
  8 15  2  0  0  0  0
  9 12  2  0  0  0  0
  9 15  1  0  0  0  0
 11 16  1  0  0  0  0
 12 17  1  0  0  0  0
 13 16  1  0  0  0  0
 13 17  1  0  0  0  0
 13 18  2  0  0  0  0
 16 19  1  0  0  0  0
 17 20  1  0  0  0  0
M  END
> <ref_mols>
x2653_0

> <original SMILES>
O=C(NC=1C=CC(C#N)=CC1)NC=2C=CC=NC2

> <Chemgauss4>
-8.835213

> <ref_pdb>
x0749_0

> <CYS145-warhead dist minimum (A)>
6.8480062

> <CYS145-warhead dist mean (A)>
8.188614

> <CYS145-warhead dist stddev (A)>
0.47172448

$$$$
x2485
  -OEChem-05172015543D

 20 21  0     0  0  0  0  0  0999 V2000
   14.8236   -1.3998   26.8991 C   0  0  0  0  0  0  0  0  0  0  0  0
    6.8932   -6.5097   21.7655 C   0  0  0  0  0  0  0  0  0  0  0  0
   12.9361   -0.5418   25.6017 C   0  0  0  0  0  0  0  0  0  0  0  0
   13.2101   -2.9264   25.8762 C   0  0  0  0  0  0  0  0  0  0  0  0
    7.7787   -5.5959   22.3261 C   0  0  0  0  0  0  0  0  0  0  0  0
   11.7891   -0.7613   24.8389 C   0  0  0  0  0  0  0  0  0  0  0  0
   12.0631   -3.1460   25.1134 C   0  0  0  0  0  0  0  0  0  0  0  0
    5.8289   -6.0138   21.0299 C   0  0  0  0  0  0  0  0  0  0  0  0
    6.4809   -3.8396   21.3842 C   0  0  0  0  0  0  0  0  0  0  0  0
   13.6466   -1.6243   26.1203 C   0  0  0  0  0  0  0  0  0  0  0  0
   11.3526   -2.0634   24.5948 C   0  0  0  0  0  0  0  0  0  0  0  0
    7.5756   -4.2335   22.1367 C   0  0  0  0  0  0  0  0  0  0  0  0
    9.6039   -3.5139   23.4736 C   0  0  0  0  0  0  0  0  0  0  0  0
   15.7793   -1.2173   27.5315 N   0  0  0  0  0  0  0  0  0  0  0  0
    5.5991   -4.6976   20.8241 N   0  0  0  0  0  0  0  0  0  0  0  0
   10.2055   -2.2827   23.8315 N   0  0  0  0  0  0  0  0  0  0  0  0
    8.4593   -3.2798   22.6948 N   0  0  0  0  0  0  0  0  0  0  0  0
   10.0263   -4.6186   23.7998 O   0  0  0  0  0  0  0  0  0  0  0  0
    9.7354   -1.4404   23.4833 H   0  0  0  0  0  0  0  0  0  0  0  0
    8.2321   -2.3071   22.5042 H   0  0  0  0  0  0  0  0  0  0  0  0
  1 10  1  0  0  0  0
  1 14  3  0  0  0  0
  2  5  2  0  0  0  0
  2  8  1  0  0  0  0
  3  6  2  0  0  0  0
  3 10  1  0  0  0  0
  4  7  1  0  0  0  0
  4 10  2  0  0  0  0
  5 12  1  0  0  0  0
  6 11  1  0  0  0  0
  7 11  2  0  0  0  0
  8 15  2  0  0  0  0
  9 12  2  0  0  0  0
  9 15  1  0  0  0  0
 11 16  1  0  0  0  0
 12 17  1  0  0  0  0
 13 16  1  0  0  0  0
 13 17  1  0  0  0  0
 13 18  2  0  0  0  0
 16 19  1  0  0  0  0
 17 20  1  0  0  0  0
M  END
> <ref_mols>
x2485_0

> <original SMILES>
O=C(NC=1C=CC(C#N)=CC1)NC=2C=CC=NC2

> <Chemgauss4>
-8.835213

> <ref_pdb>
x0749_0

> <CYS145-warhead dist minimum (A)>
13.778214

> <CYS145-warhead dist mean (A)>
18.19548

> <CYS145-warhead dist stddev (A)>
2.152946

$$$$
x0142
  -OEChem-05172015543D

 15 16  0     0  0  0  0  0  0999 V2000
   11.0472   -4.0430   25.0047 C   0  0  0  0  0  0  0  0  0  0  0  0
   10.6284   -2.0529   23.7003 C   0  0  0  0  0  0  0  0  0  0  0  0
   12.0791   -3.3863   25.6752 C   0  0  0  0  0  0  0  0  0  0  0  0
   11.6603   -1.3962   24.3709 C   0  0  0  0  0  0  0  0  0  0  0  0
    8.8843   -5.3088   23.5486 C   0  0  0  0  0  0  0  0  0  0  0  0
   10.3218   -3.3763   24.0172 C   0  0  0  0  0  0  0  0  0  0  0  0
   12.3856   -2.0630   25.3584 C   0  0  0  0  0  0  0  0  0  0  0  0
    7.8566   -5.4552   22.6511 C   0  0  0  0  0  0  0  0  0  0  0  0
    7.0128   -6.6290   22.3934 C   0  0  0  0  0  0  0  0  0  0  0  0
    7.6829   -4.2898   21.9574 N   0  0  0  0  0  0  0  0  0  0  0  0
    8.5796   -3.4145   22.3988 N   0  0  0  0  0  0  0  0  0  0  0  0
    9.2990   -4.0275   23.3527 N   0  0  0  0  0  0  0  0  0  0  0  0
    5.7145   -6.4403   22.9626 O   0  0  0  0  0  0  0  0  0  0  0  0
   13.6571   -1.2523   26.1875 Cl  0  0  0  0  0  0  0  0  0  0  0  0
    5.2104   -7.2419   22.7601 H   0  0  0  0  0  0  0  0  0  0  0  0
  1  3  2  0  0  0  0
  1  6  1  0  0  0  0
  2  4  1  0  0  0  0
  2  6  2  0  0  0  0
  3  7  1  0  0  0  0
  4  7  2  0  0  0  0
  5  8  2  0  0  0  0
  5 12  1  0  0  0  0
  6 12  1  0  0  0  0
  7 14  1  0  0  0  0
  8  9  1  0  0  0  0
  8 10  1  0  0  0  0
  9 13  1  0  0  0  0
 10 11  2  0  0  0  0
 11 12  1  0  0  0  0
 13 15  1  0  0  0  0
M  END
> <ref_mols>
x0142_0

> <original SMILES>
OCC1=CN(N=N1)C=2C=CC(Cl)=CC2

> <Chemgauss4>
-8.833220

> <ref_pdb>
x0749_0

$$$$
x1122
  -OEChem-05172015543D

 15 16  0     0  0  0  0  0  0999 V2000
   11.0472   -4.0430   25.0047 C   0  0  0  0  0  0  0  0  0  0  0  0
   10.6284   -2.0529   23.7003 C   0  0  0  0  0  0  0  0  0  0  0  0
   12.0791   -3.3863   25.6752 C   0  0  0  0  0  0  0  0  0  0  0  0
   11.6603   -1.3962   24.3709 C   0  0  0  0  0  0  0  0  0  0  0  0
    8.8843   -5.3088   23.5486 C   0  0  0  0  0  0  0  0  0  0  0  0
   10.3218   -3.3763   24.0172 C   0  0  0  0  0  0  0  0  0  0  0  0
   12.3856   -2.0630   25.3584 C   0  0  0  0  0  0  0  0  0  0  0  0
    7.8566   -5.4552   22.6511 C   0  0  0  0  0  0  0  0  0  0  0  0
    7.0128   -6.6290   22.3934 C   0  0  0  0  0  0  0  0  0  0  0  0
    7.6829   -4.2898   21.9574 N   0  0  0  0  0  0  0  0  0  0  0  0
    8.5796   -3.4145   22.3988 N   0  0  0  0  0  0  0  0  0  0  0  0
    9.2990   -4.0275   23.3527 N   0  0  0  0  0  0  0  0  0  0  0  0
    5.7145   -6.4403   22.9626 O   0  0  0  0  0  0  0  0  0  0  0  0
   13.6571   -1.2523   26.1875 Cl  0  0  0  0  0  0  0  0  0  0  0  0
    5.2104   -7.2419   22.7601 H   0  0  0  0  0  0  0  0  0  0  0  0
  1  3  2  0  0  0  0
  1  6  1  0  0  0  0
  2  4  1  0  0  0  0
  2  6  2  0  0  0  0
  3  7  1  0  0  0  0
  4  7  2  0  0  0  0
  5  8  2  0  0  0  0
  5 12  1  0  0  0  0
  6 12  1  0  0  0  0
  7 14  1  0  0  0  0
  8  9  1  0  0  0  0
  8 10  1  0  0  0  0
  9 13  1  0  0  0  0
 10 11  2  0  0  0  0
 11 12  1  0  0  0  0
 13 15  1  0  0  0  0
M  END
> <ref_mols>
x1122_0

> <original SMILES>
OCC1=CN(N=N1)C=2C=CC(Cl)=CC2

> <Chemgauss4>
-8.833220

> <ref_pdb>
x0749_0

$$$$
x0865
  -OEChem-05172015543D

 18 19  0     0  0  0  0  0  0999 V2000
    9.7370   -4.8626   24.7276 C   0  0  0  0  0  0  0  0  0  0  0  0
    9.9240   -2.7454   23.5789 C   0  0  0  0  0  0  0  0  0  0  0  0
   10.9860   -4.6553   25.3130 C   0  0  0  0  0  0  0  0  0  0  0  0
   11.1730   -2.5381   24.1643 C   0  0  0  0  0  0  0  0  0  0  0  0
    9.2060   -3.9076   23.8605 C   0  0  0  0  0  0  0  0  0  0  0  0
   11.7040   -3.4931   25.0314 C   0  0  0  0  0  0  0  0  0  0  0  0
    6.8512   -4.2564   24.3678 C   0  0  0  0  0  0  0  0  0  0  0  0
    7.7266   -5.4325   22.3739 C   0  0  0  0  0  0  0  0  0  0  0  0
    7.4301   -2.9399   22.3133 C   0  0  0  0  0  0  0  0  0  0  0  0
    6.4131   -5.5329   21.6024 C   0  0  0  0  0  0  0  0  0  0  0  0
    6.1468   -3.1913   21.5245 C   0  0  0  0  0  0  0  0  0  0  0  0
    7.8232   -4.1366   23.2128 C   0  0  0  0  0  0  0  0  0  0  0  0
   13.6021   -2.0807   25.2723 C   0  0  0  0  0  0  0  0  0  0  0  0
    5.8631   -5.8201   25.8382 C   0  0  0  0  0  0  0  0  0  0  0  0
    6.2575   -3.3088   24.8648 O   0  0  0  0  0  0  0  0  0  0  0  0
    6.2367   -4.3932   20.7668 O   0  0  0  0  0  0  0  0  0  0  0  0
   12.9221   -3.2904   25.6038 O   0  0  0  0  0  0  0  0  0  0  0  0
    6.7540   -5.5620   24.7484 O   0  0  0  0  0  0  0  0  0  0  0  0
  1  3  2  0  0  0  0
  1  5  1  0  0  0  0
  2  4  1  0  0  0  0
  2  5  2  0  0  0  0
  3  6  1  0  0  0  0
  4  6  2  0  0  0  0
  5 12  1  0  0  0  0
  6 17  1  0  0  0  0
  7 12  1  0  0  0  0
  7 15  2  0  0  0  0
  7 18  1  0  0  0  0
  8 10  1  0  0  0  0
  8 12  1  0  0  0  0
  9 11  1  0  0  0  0
  9 12  1  0  0  0  0
 10 16  1  0  0  0  0
 11 16  1  0  0  0  0
 13 17  1  0  0  0  0
 14 18  1  0  0  0  0
M  END
> <ref_mols>
x0865_0

> <original SMILES>
O=C(OC)C1(C2=CC=C(OC)C=C2)CCOCC1

> <Chemgauss4>
-8.832322

> <ref_pdb>
x0749_0

$$$$
x0378
  -OEChem-05172015543D

 18 19  0     0  0  0  0  0  0999 V2000
    5.5705   -4.9036   21.7890 C   0  0  0  0  0  0  0  0  0  0  0  0
    5.8379   -4.1089   22.9036 C   0  0  0  0  0  0  0  0  0  0  0  0
    6.5455   -5.7750   21.3035 C   0  0  0  0  0  0  0  0  0  0  0  0
    7.0805   -4.1854   23.5328 C   0  0  0  0  0  0  0  0  0  0  0  0
    7.7881   -5.8515   21.9327 C   0  0  0  0  0  0  0  0  0  0  0  0
    8.0556   -5.0567   23.0473 C   0  0  0  0  0  0  0  0  0  0  0  0
    9.3547   -5.1367   23.7052 C   0  0  0  0  0  0  0  0  0  0  0  0
   11.9860   -3.2818   25.3013 C   0  0  0  0  0  0  0  0  0  0  0  0
   10.7206   -1.7592   23.7356 C   0  0  0  0  0  0  0  0  0  0  0  0
   10.7055   -4.0887   25.5079 C   0  0  0  0  0  0  0  0  0  0  0  0
    9.4681   -2.5957   23.9853 C   0  0  0  0  0  0  0  0  0  0  0  0
   11.6755   -1.8208   24.9386 C   0  0  0  0  0  0  0  0  0  0  0  0
   13.8816   -1.0940   25.8831 C   0  0  0  0  0  0  0  0  0  0  0  0
   12.6243    0.4181   24.3278 C   0  0  0  0  0  0  0  0  0  0  0  0
   13.6891   -1.6759   23.4518 C   0  0  0  0  0  0  0  0  0  0  0  0
   12.9603   -1.0475   24.6520 C   0  0  0  0  0  0  0  0  0  0  0  0
    9.8307   -3.9747   24.3397 N   0  0  0  0  0  0  0  0  0  0  0  0
    9.9921   -6.1912   23.6903 O   0  0  0  0  0  0  0  0  0  0  0  0
  1  2  1  0  0  0  0
  1  3  2  0  0  0  0
  2  4  2  0  0  0  0
  3  5  1  0  0  0  0
  4  6  1  0  0  0  0
  5  6  2  0  0  0  0
  6  7  1  0  0  0  0
  7 17  1  0  0  0  0
  7 18  2  0  0  0  0
  8 10  1  0  0  0  0
  8 12  1  0  0  0  0
  9 11  1  0  0  0  0
  9 12  1  0  0  0  0
 10 17  1  0  0  0  0
 11 17  1  0  0  0  0
 12 16  1  0  0  0  0
 13 16  1  0  0  0  0
 14 16  1  0  0  0  0
 15 16  1  0  0  0  0
M  END
> <ref_mols>
x0378_0

> <original SMILES>
CC(C)(C)C1CCN(CC1)C(=O)C=2C=CC=CC2

> <Chemgauss4>
-8.828969

> <ref_pdb>
x0749_0

$$$$
x2805
  -OEChem-05172015543D

 22 23  0     0  0  0  0  0  0999 V2000
   12.3615    2.4536   22.6215 C   0  0  0  0  0  0  0  0  0  0  0  0
   10.9431    1.8492   24.4816 C   0  0  0  0  0  0  0  0  0  0  0  0
   11.7326    3.6963   22.5458 C   0  0  0  0  0  0  0  0  0  0  0  0
   10.3142    3.0920   24.4059 C   0  0  0  0  0  0  0  0  0  0  0  0
   11.9667    1.5300   23.5894 C   0  0  0  0  0  0  0  0  0  0  0  0
   10.7090    4.0155   23.4380 C   0  0  0  0  0  0  0  0  0  0  0  0
   13.6885   -1.5784   22.4714 C   0  0  0  0  0  0  0  0  0  0  0  0
   13.8748   -1.3817   24.9589 C   0  0  0  0  0  0  0  0  0  0  0  0
   12.5262   -0.5858   22.4826 C   0  0  0  0  0  0  0  0  0  0  0  0
   12.7135   -0.3869   24.9658 C   0  0  0  0  0  0  0  0  0  0  0  0
   13.8183   -2.3622   23.7825 C   0  0  0  0  0  0  0  0  0  0  0  0
    9.0749   -2.8234   24.1140 C   0  0  0  0  0  0  0  0  0  0  0  0
   12.7007   -3.3937   23.9489 C   0  0  0  0  0  0  0  0  0  0  0  0
   10.3665   -3.6129   24.1113 C   0  0  0  0  0  0  0  0  0  0  0  0
   12.5978    0.2821   23.6659 N   0  0  0  0  0  0  0  0  0  0  0  0
    8.6460    5.2242   22.2597 N   0  0  0  0  0  0  0  0  0  0  0  0
    9.3560    5.8795   24.6497 O   0  0  0  0  0  0  0  0  0  0  0  0
   10.8313    6.5128   22.7080 O   0  0  0  0  0  0  0  0  0  0  0  0
   11.4592   -2.7137   23.9591 O   0  0  0  0  0  0  0  0  0  0  0  0
    9.9208    5.5706   23.3435 S   0  0  0  0  0  0  0  0  0  0  0  0
    7.6912    5.1821   22.6365 H   0  0  0  0  0  0  0  0  0  0  0  0
    8.7010    5.6135   21.3107 H   0  0  0  0  0  0  0  0  0  0  0  0
  1  3  2  0  0  0  0
  1  5  1  0  0  0  0
  2  4  1  0  0  0  0
  2  5  2  0  0  0  0
  3  6  1  0  0  0  0
  4  6  2  0  0  0  0
  5 15  1  0  0  0  0
  6 20  1  0  0  0  0
  7  9  1  0  0  0  0
  7 11  1  0  0  0  0
  8 10  1  0  0  0  0
  8 11  1  0  0  0  0
  9 15  1  0  0  0  0
 10 15  1  0  0  0  0
 11 13  1  0  0  0  0
 12 14  1  0  0  0  0
 13 19  1  0  0  0  0
 14 19  1  0  0  0  0
 16 20  1  0  0  0  0
 17 20  2  0  0  0  0
 18 20  2  0  0  0  0
 16 21  1  0  0  0  0
 16 22  1  0  0  0  0
M  END
> <ref_mols>
x2805_0

> <original SMILES>
CCOCC1CCN(CC1)C=2C=CC(=CC2)S(=O)(=O)N

> <Chemgauss4>
-8.822823

> <ref_pdb>
x0161_0

$$$$
x0706
  -OEChem-05172015543D

 19 20  0     0  0  0  0  0  0999 V2000
   10.5998   -3.7463   24.8667 C   0  0  0  0  0  0  0  0  0  0  0  0
    6.6190   -4.6934   21.8145 C   0  0  0  0  0  0  0  0  0  0  0  0
   13.0002   -0.4047   24.7852 C   0  0  0  0  0  0  0  0  0  0  0  0
   13.5319   -1.6030   23.9986 C   0  0  0  0  0  0  0  0  0  0  0  0
   11.4757   -0.4174   24.9401 C   0  0  0  0  0  0  0  0  0  0  0  0
   13.7338   -2.8941   24.7955 C   0  0  0  0  0  0  0  0  0  0  0  0
    8.5433   -2.6468   23.9988 C   0  0  0  0  0  0  0  0  0  0  0  0
    8.4436   -5.0141   24.9203 C   0  0  0  0  0  0  0  0  0  0  0  0
   10.9494   -1.4623   25.9199 C   0  0  0  0  0  0  0  0  0  0  0  0
   12.7453   -3.1652   25.9257 C   0  0  0  0  0  0  0  0  0  0  0  0
    8.4612   -3.2364   22.5919 C   0  0  0  0  0  0  0  0  0  0  0  0
    8.3455   -5.5294   23.4838 C   0  0  0  0  0  0  0  0  0  0  0  0
    9.1105   -3.6384   25.0196 C   0  0  0  0  0  0  0  0  0  0  0  0
    5.9468   -6.0411   21.8901 C   0  0  0  0  0  0  0  0  0  0  0  0
   11.3698   -2.8240   25.5771 N   0  0  0  0  0  0  0  0  0  0  0  0
    7.7528   -4.5156   22.6063 N   0  0  0  0  0  0  0  0  0  0  0  0
   11.0734   -4.6242   24.1408 O   0  0  0  0  0  0  0  0  0  0  0  0
    6.1479   -3.8255   21.0750 O   0  0  0  0  0  0  0  0  0  0  0  0
    4.7781   -5.9481   23.2028 Cl  0  0  0  0  0  0  0  0  0  0  0  0
  1 13  1  0  0  0  0
  1 15  1  0  0  0  0
  1 17  2  0  0  0  0
  2 14  1  0  0  0  0
  2 16  1  0  0  0  0
  2 18  2  0  0  0  0
  3  4  1  0  0  0  0
  3  5  1  0  0  0  0
  4  6  1  0  0  0  0
  5  9  1  0  0  0  0
  6 10  1  0  0  0  0
  7 11  1  0  0  0  0
  7 13  1  0  0  0  0
  8 12  1  0  0  0  0
  8 13  1  0  0  0  0
  9 15  1  0  0  0  0
 10 15  1  0  0  0  0
 11 16  1  0  0  0  0
 12 16  1  0  0  0  0
 14 19  1  0  0  0  0
M  END
> <ref_mols>
x0706_0

> <original SMILES>
ClCC(=O)N1CCC(CC1)C(=O)N2CCCCCC2

> <Chemgauss4>
-8.821181

> <ref_pdb>
x0749_0

$$$$
x1341
  -OEChem-05172015543D

 19 20  0     0  0  0  0  0  0999 V2000
   10.5998   -3.7463   24.8667 C   0  0  0  0  0  0  0  0  0  0  0  0
    6.6190   -4.6934   21.8145 C   0  0  0  0  0  0  0  0  0  0  0  0
   13.0002   -0.4047   24.7852 C   0  0  0  0  0  0  0  0  0  0  0  0
   13.5319   -1.6030   23.9986 C   0  0  0  0  0  0  0  0  0  0  0  0
   11.4757   -0.4174   24.9401 C   0  0  0  0  0  0  0  0  0  0  0  0
   13.7338   -2.8941   24.7955 C   0  0  0  0  0  0  0  0  0  0  0  0
    8.5433   -2.6468   23.9988 C   0  0  0  0  0  0  0  0  0  0  0  0
    8.4436   -5.0141   24.9203 C   0  0  0  0  0  0  0  0  0  0  0  0
   10.9494   -1.4623   25.9199 C   0  0  0  0  0  0  0  0  0  0  0  0
   12.7453   -3.1652   25.9257 C   0  0  0  0  0  0  0  0  0  0  0  0
    8.4612   -3.2364   22.5919 C   0  0  0  0  0  0  0  0  0  0  0  0
    8.3455   -5.5294   23.4838 C   0  0  0  0  0  0  0  0  0  0  0  0
    9.1105   -3.6384   25.0196 C   0  0  0  0  0  0  0  0  0  0  0  0
    5.9468   -6.0411   21.8901 C   0  0  0  0  0  0  0  0  0  0  0  0
   11.3698   -2.8240   25.5771 N   0  0  0  0  0  0  0  0  0  0  0  0
    7.7528   -4.5156   22.6063 N   0  0  0  0  0  0  0  0  0  0  0  0
   11.0734   -4.6242   24.1408 O   0  0  0  0  0  0  0  0  0  0  0  0
    6.1479   -3.8255   21.0750 O   0  0  0  0  0  0  0  0  0  0  0  0
    4.7781   -5.9481   23.2028 Cl  0  0  0  0  0  0  0  0  0  0  0  0
  1 13  1  0  0  0  0
  1 15  1  0  0  0  0
  1 17  2  0  0  0  0
  2 14  1  0  0  0  0
  2 16  1  0  0  0  0
  2 18  2  0  0  0  0
  3  4  1  0  0  0  0
  3  5  1  0  0  0  0
  4  6  1  0  0  0  0
  5  9  1  0  0  0  0
  6 10  1  0  0  0  0
  7 11  1  0  0  0  0
  7 13  1  0  0  0  0
  8 12  1  0  0  0  0
  8 13  1  0  0  0  0
  9 15  1  0  0  0  0
 10 15  1  0  0  0  0
 11 16  1  0  0  0  0
 12 16  1  0  0  0  0
 14 19  1  0  0  0  0
M  END
> <ref_mols>
x1341_0

> <original SMILES>
ClCC(=O)N1CCC(CC1)C(=O)N2CCCCCC2

> <Chemgauss4>
-8.821181

> <ref_pdb>
x0749_0

> <CYS145-warhead dist minimum (A)>
6.6761446

> <CYS145-warhead dist mean (A)>
13.331881

> <CYS145-warhead dist stddev (A)>
0.842545

$$$$
x1393
  -OEChem-05172015543D

 19 20  0     0  0  0  0  0  0999 V2000
   10.5998   -3.7463   24.8667 C   0  0  0  0  0  0  0  0  0  0  0  0
    6.6190   -4.6934   21.8145 C   0  0  0  0  0  0  0  0  0  0  0  0
   13.0002   -0.4047   24.7852 C   0  0  0  0  0  0  0  0  0  0  0  0
   13.5319   -1.6030   23.9986 C   0  0  0  0  0  0  0  0  0  0  0  0
   11.4757   -0.4174   24.9401 C   0  0  0  0  0  0  0  0  0  0  0  0
   13.7338   -2.8941   24.7955 C   0  0  0  0  0  0  0  0  0  0  0  0
    8.5433   -2.6468   23.9988 C   0  0  0  0  0  0  0  0  0  0  0  0
    8.4436   -5.0141   24.9203 C   0  0  0  0  0  0  0  0  0  0  0  0
   10.9494   -1.4623   25.9199 C   0  0  0  0  0  0  0  0  0  0  0  0
   12.7453   -3.1652   25.9257 C   0  0  0  0  0  0  0  0  0  0  0  0
    8.4612   -3.2364   22.5919 C   0  0  0  0  0  0  0  0  0  0  0  0
    8.3455   -5.5294   23.4838 C   0  0  0  0  0  0  0  0  0  0  0  0
    9.1105   -3.6384   25.0196 C   0  0  0  0  0  0  0  0  0  0  0  0
    5.9468   -6.0411   21.8901 C   0  0  0  0  0  0  0  0  0  0  0  0
   11.3698   -2.8240   25.5771 N   0  0  0  0  0  0  0  0  0  0  0  0
    7.7528   -4.5156   22.6063 N   0  0  0  0  0  0  0  0  0  0  0  0
   11.0734   -4.6242   24.1408 O   0  0  0  0  0  0  0  0  0  0  0  0
    6.1479   -3.8255   21.0750 O   0  0  0  0  0  0  0  0  0  0  0  0
    4.7781   -5.9481   23.2028 Cl  0  0  0  0  0  0  0  0  0  0  0  0
  1 13  1  0  0  0  0
  1 15  1  0  0  0  0
  1 17  2  0  0  0  0
  2 14  1  0  0  0  0
  2 16  1  0  0  0  0
  2 18  2  0  0  0  0
  3  4  1  0  0  0  0
  3  5  1  0  0  0  0
  4  6  1  0  0  0  0
  5  9  1  0  0  0  0
  6 10  1  0  0  0  0
  7 11  1  0  0  0  0
  7 13  1  0  0  0  0
  8 12  1  0  0  0  0
  8 13  1  0  0  0  0
  9 15  1  0  0  0  0
 10 15  1  0  0  0  0
 11 16  1  0  0  0  0
 12 16  1  0  0  0  0
 14 19  1  0  0  0  0
M  END
> <ref_mols>
x1393_0

> <original SMILES>
ClCC(=O)N1CCC(CC1)C(=O)N2CCCCCC2

> <Chemgauss4>
-8.821181

> <ref_pdb>
x0749_0

$$$$
x1320
  -OEChem-05172015543D

 19 20  0     0  0  0  0  0  0999 V2000
   10.5998   -3.7463   24.8667 C   0  0  0  0  0  0  0  0  0  0  0  0
    6.6190   -4.6934   21.8145 C   0  0  0  0  0  0  0  0  0  0  0  0
   13.0002   -0.4047   24.7852 C   0  0  0  0  0  0  0  0  0  0  0  0
   13.5319   -1.6030   23.9986 C   0  0  0  0  0  0  0  0  0  0  0  0
   11.4757   -0.4174   24.9401 C   0  0  0  0  0  0  0  0  0  0  0  0
   13.7338   -2.8941   24.7955 C   0  0  0  0  0  0  0  0  0  0  0  0
    8.5433   -2.6468   23.9988 C   0  0  0  0  0  0  0  0  0  0  0  0
    8.4436   -5.0141   24.9203 C   0  0  0  0  0  0  0  0  0  0  0  0
   10.9494   -1.4623   25.9199 C   0  0  0  0  0  0  0  0  0  0  0  0
   12.7453   -3.1652   25.9257 C   0  0  0  0  0  0  0  0  0  0  0  0
    8.4612   -3.2364   22.5919 C   0  0  0  0  0  0  0  0  0  0  0  0
    8.3455   -5.5294   23.4838 C   0  0  0  0  0  0  0  0  0  0  0  0
    9.1105   -3.6384   25.0196 C   0  0  0  0  0  0  0  0  0  0  0  0
    5.9468   -6.0411   21.8901 C   0  0  0  0  0  0  0  0  0  0  0  0
   11.3698   -2.8240   25.5771 N   0  0  0  0  0  0  0  0  0  0  0  0
    7.7528   -4.5156   22.6063 N   0  0  0  0  0  0  0  0  0  0  0  0
   11.0734   -4.6242   24.1408 O   0  0  0  0  0  0  0  0  0  0  0  0
    6.1479   -3.8255   21.0750 O   0  0  0  0  0  0  0  0  0  0  0  0
    4.7781   -5.9481   23.2028 Cl  0  0  0  0  0  0  0  0  0  0  0  0
  1 13  1  0  0  0  0
  1 15  1  0  0  0  0
  1 17  2  0  0  0  0
  2 14  1  0  0  0  0
  2 16  1  0  0  0  0
  2 18  2  0  0  0  0
  3  4  1  0  0  0  0
  3  5  1  0  0  0  0
  4  6  1  0  0  0  0
  5  9  1  0  0  0  0
  6 10  1  0  0  0  0
  7 11  1  0  0  0  0
  7 13  1  0  0  0  0
  8 12  1  0  0  0  0
  8 13  1  0  0  0  0
  9 15  1  0  0  0  0
 10 15  1  0  0  0  0
 11 16  1  0  0  0  0
 12 16  1  0  0  0  0
 14 19  1  0  0  0  0
M  END
> <ref_mols>
x1320_0

> <original SMILES>
ClCC(=O)N1CCC(CC1)C(=O)N2CCCCCC2

> <Chemgauss4>
-8.821181

> <ref_pdb>
x0749_0

$$$$
x1442
  -OEChem-05172015543D

 19 20  0     0  0  0  0  0  0999 V2000
   10.5998   -3.7463   24.8667 C   0  0  0  0  0  0  0  0  0  0  0  0
    6.6190   -4.6934   21.8145 C   0  0  0  0  0  0  0  0  0  0  0  0
   13.0002   -0.4047   24.7852 C   0  0  0  0  0  0  0  0  0  0  0  0
   13.5319   -1.6030   23.9986 C   0  0  0  0  0  0  0  0  0  0  0  0
   11.4757   -0.4174   24.9401 C   0  0  0  0  0  0  0  0  0  0  0  0
   13.7338   -2.8941   24.7955 C   0  0  0  0  0  0  0  0  0  0  0  0
    8.5433   -2.6468   23.9988 C   0  0  0  0  0  0  0  0  0  0  0  0
    8.4436   -5.0141   24.9203 C   0  0  0  0  0  0  0  0  0  0  0  0
   10.9494   -1.4623   25.9199 C   0  0  0  0  0  0  0  0  0  0  0  0
   12.7453   -3.1652   25.9257 C   0  0  0  0  0  0  0  0  0  0  0  0
    8.4612   -3.2364   22.5919 C   0  0  0  0  0  0  0  0  0  0  0  0
    8.3455   -5.5294   23.4838 C   0  0  0  0  0  0  0  0  0  0  0  0
    9.1105   -3.6384   25.0196 C   0  0  0  0  0  0  0  0  0  0  0  0
    5.9468   -6.0411   21.8901 C   0  0  0  0  0  0  0  0  0  0  0  0
   11.3698   -2.8240   25.5771 N   0  0  0  0  0  0  0  0  0  0  0  0
    7.7528   -4.5156   22.6063 N   0  0  0  0  0  0  0  0  0  0  0  0
   11.0734   -4.6242   24.1408 O   0  0  0  0  0  0  0  0  0  0  0  0
    6.1479   -3.8255   21.0750 O   0  0  0  0  0  0  0  0  0  0  0  0
    4.7781   -5.9481   23.2028 Cl  0  0  0  0  0  0  0  0  0  0  0  0
  1 13  1  0  0  0  0
  1 15  1  0  0  0  0
  1 17  2  0  0  0  0
  2 14  1  0  0  0  0
  2 16  1  0  0  0  0
  2 18  2  0  0  0  0
  3  4  1  0  0  0  0
  3  5  1  0  0  0  0
  4  6  1  0  0  0  0
  5  9  1  0  0  0  0
  6 10  1  0  0  0  0
  7 11  1  0  0  0  0
  7 13  1  0  0  0  0
  8 12  1  0  0  0  0
  8 13  1  0  0  0  0
  9 15  1  0  0  0  0
 10 15  1  0  0  0  0
 11 16  1  0  0  0  0
 12 16  1  0  0  0  0
 14 19  1  0  0  0  0
M  END
> <ref_mols>
x1442_0

> <original SMILES>
ClCC(=O)N1CCC(CC1)C(=O)N2CCCCCC2

> <Chemgauss4>
-8.821181

> <ref_pdb>
x0749_0

$$$$
x1359
  -OEChem-05172015543D

 19 20  0     0  0  0  0  0  0999 V2000
   10.5998   -3.7463   24.8667 C   0  0  0  0  0  0  0  0  0  0  0  0
    6.6190   -4.6934   21.8145 C   0  0  0  0  0  0  0  0  0  0  0  0
   13.0002   -0.4047   24.7852 C   0  0  0  0  0  0  0  0  0  0  0  0
   13.5319   -1.6030   23.9986 C   0  0  0  0  0  0  0  0  0  0  0  0
   11.4757   -0.4174   24.9401 C   0  0  0  0  0  0  0  0  0  0  0  0
   13.7338   -2.8941   24.7955 C   0  0  0  0  0  0  0  0  0  0  0  0
    8.5433   -2.6468   23.9988 C   0  0  0  0  0  0  0  0  0  0  0  0
    8.4436   -5.0141   24.9203 C   0  0  0  0  0  0  0  0  0  0  0  0
   10.9494   -1.4623   25.9199 C   0  0  0  0  0  0  0  0  0  0  0  0
   12.7453   -3.1652   25.9257 C   0  0  0  0  0  0  0  0  0  0  0  0
    8.4612   -3.2364   22.5919 C   0  0  0  0  0  0  0  0  0  0  0  0
    8.3455   -5.5294   23.4838 C   0  0  0  0  0  0  0  0  0  0  0  0
    9.1105   -3.6384   25.0196 C   0  0  0  0  0  0  0  0  0  0  0  0
    5.9468   -6.0411   21.8901 C   0  0  0  0  0  0  0  0  0  0  0  0
   11.3698   -2.8240   25.5771 N   0  0  0  0  0  0  0  0  0  0  0  0
    7.7528   -4.5156   22.6063 N   0  0  0  0  0  0  0  0  0  0  0  0
   11.0734   -4.6242   24.1408 O   0  0  0  0  0  0  0  0  0  0  0  0
    6.1479   -3.8255   21.0750 O   0  0  0  0  0  0  0  0  0  0  0  0
    4.7781   -5.9481   23.2028 Cl  0  0  0  0  0  0  0  0  0  0  0  0
  1 13  1  0  0  0  0
  1 15  1  0  0  0  0
  1 17  2  0  0  0  0
  2 14  1  0  0  0  0
  2 16  1  0  0  0  0
  2 18  2  0  0  0  0
  3  4  1  0  0  0  0
  3  5  1  0  0  0  0
  4  6  1  0  0  0  0
  5  9  1  0  0  0  0
  6 10  1  0  0  0  0
  7 11  1  0  0  0  0
  7 13  1  0  0  0  0
  8 12  1  0  0  0  0
  8 13  1  0  0  0  0
  9 15  1  0  0  0  0
 10 15  1  0  0  0  0
 11 16  1  0  0  0  0
 12 16  1  0  0  0  0
 14 19  1  0  0  0  0
M  END
> <ref_mols>
x1359_0

> <original SMILES>
ClCC(=O)N1CCC(CC1)C(=O)N2CCCCCC2

> <Chemgauss4>
-8.821181

> <ref_pdb>
x0749_0

> <CYS145-warhead dist minimum (A)>
30.859245

> <CYS145-warhead dist mean (A)>
34.928856

> <CYS145-warhead dist stddev (A)>
1.6991178

$$$$
x0780
  -OEChem-05172015543D

 19 20  0     0  0  0  0  0  0999 V2000
   10.5998   -3.7463   24.8667 C   0  0  0  0  0  0  0  0  0  0  0  0
    6.6190   -4.6934   21.8145 C   0  0  0  0  0  0  0  0  0  0  0  0
   13.0002   -0.4047   24.7852 C   0  0  0  0  0  0  0  0  0  0  0  0
   13.5319   -1.6030   23.9986 C   0  0  0  0  0  0  0  0  0  0  0  0
   11.4757   -0.4174   24.9401 C   0  0  0  0  0  0  0  0  0  0  0  0
   13.7338   -2.8941   24.7955 C   0  0  0  0  0  0  0  0  0  0  0  0
    8.5433   -2.6468   23.9988 C   0  0  0  0  0  0  0  0  0  0  0  0
    8.4436   -5.0141   24.9203 C   0  0  0  0  0  0  0  0  0  0  0  0
   10.9494   -1.4623   25.9199 C   0  0  0  0  0  0  0  0  0  0  0  0
   12.7453   -3.1652   25.9257 C   0  0  0  0  0  0  0  0  0  0  0  0
    8.4612   -3.2364   22.5919 C   0  0  0  0  0  0  0  0  0  0  0  0
    8.3455   -5.5294   23.4838 C   0  0  0  0  0  0  0  0  0  0  0  0
    9.1105   -3.6384   25.0196 C   0  0  0  0  0  0  0  0  0  0  0  0
    5.9468   -6.0411   21.8901 C   0  0  0  0  0  0  0  0  0  0  0  0
   11.3698   -2.8240   25.5771 N   0  0  0  0  0  0  0  0  0  0  0  0
    7.7528   -4.5156   22.6063 N   0  0  0  0  0  0  0  0  0  0  0  0
   11.0734   -4.6242   24.1408 O   0  0  0  0  0  0  0  0  0  0  0  0
    6.1479   -3.8255   21.0750 O   0  0  0  0  0  0  0  0  0  0  0  0
    4.7781   -5.9481   23.2028 Cl  0  0  0  0  0  0  0  0  0  0  0  0
  1 13  1  0  0  0  0
  1 15  1  0  0  0  0
  1 17  2  0  0  0  0
  2 14  1  0  0  0  0
  2 16  1  0  0  0  0
  2 18  2  0  0  0  0
  3  4  1  0  0  0  0
  3  5  1  0  0  0  0
  4  6  1  0  0  0  0
  5  9  1  0  0  0  0
  6 10  1  0  0  0  0
  7 11  1  0  0  0  0
  7 13  1  0  0  0  0
  8 12  1  0  0  0  0
  8 13  1  0  0  0  0
  9 15  1  0  0  0  0
 10 15  1  0  0  0  0
 11 16  1  0  0  0  0
 12 16  1  0  0  0  0
 14 19  1  0  0  0  0
M  END
> <ref_mols>
x0780_0

> <original SMILES>
ClCC(=O)N1CCC(CC1)C(=O)N2CCCCCC2

> <Chemgauss4>
-8.821181

> <ref_pdb>
x0749_0

$$$$
x0742
  -OEChem-05172015543D

 19 20  0     0  0  0  0  0  0999 V2000
   10.5998   -3.7463   24.8667 C   0  0  0  0  0  0  0  0  0  0  0  0
    6.6190   -4.6934   21.8145 C   0  0  0  0  0  0  0  0  0  0  0  0
   13.0002   -0.4047   24.7852 C   0  0  0  0  0  0  0  0  0  0  0  0
   13.5319   -1.6030   23.9986 C   0  0  0  0  0  0  0  0  0  0  0  0
   11.4757   -0.4174   24.9401 C   0  0  0  0  0  0  0  0  0  0  0  0
   13.7338   -2.8941   24.7955 C   0  0  0  0  0  0  0  0  0  0  0  0
    8.5433   -2.6468   23.9988 C   0  0  0  0  0  0  0  0  0  0  0  0
    8.4436   -5.0141   24.9203 C   0  0  0  0  0  0  0  0  0  0  0  0
   10.9494   -1.4623   25.9199 C   0  0  0  0  0  0  0  0  0  0  0  0
   12.7453   -3.1652   25.9257 C   0  0  0  0  0  0  0  0  0  0  0  0
    8.4612   -3.2364   22.5919 C   0  0  0  0  0  0  0  0  0  0  0  0
    8.3455   -5.5294   23.4838 C   0  0  0  0  0  0  0  0  0  0  0  0
    9.1105   -3.6384   25.0196 C   0  0  0  0  0  0  0  0  0  0  0  0
    5.9468   -6.0411   21.8901 C   0  0  0  0  0  0  0  0  0  0  0  0
   11.3698   -2.8240   25.5771 N   0  0  0  0  0  0  0  0  0  0  0  0
    7.7528   -4.5156   22.6063 N   0  0  0  0  0  0  0  0  0  0  0  0
   11.0734   -4.6242   24.1408 O   0  0  0  0  0  0  0  0  0  0  0  0
    6.1479   -3.8255   21.0750 O   0  0  0  0  0  0  0  0  0  0  0  0
    4.7781   -5.9481   23.2028 Cl  0  0  0  0  0  0  0  0  0  0  0  0
  1 13  1  0  0  0  0
  1 15  1  0  0  0  0
  1 17  2  0  0  0  0
  2 14  1  0  0  0  0
  2 16  1  0  0  0  0
  2 18  2  0  0  0  0
  3  4  1  0  0  0  0
  3  5  1  0  0  0  0
  4  6  1  0  0  0  0
  5  9  1  0  0  0  0
  6 10  1  0  0  0  0
  7 11  1  0  0  0  0
  7 13  1  0  0  0  0
  8 12  1  0  0  0  0
  8 13  1  0  0  0  0
  9 15  1  0  0  0  0
 10 15  1  0  0  0  0
 11 16  1  0  0  0  0
 12 16  1  0  0  0  0
 14 19  1  0  0  0  0
M  END
> <ref_mols>
x0742_0

> <original SMILES>
ClCC(=O)N1CCC(CC1)C(=O)N2CCCCCC2

> <Chemgauss4>
-8.821181

> <ref_pdb>
x0749_0

> <CYS145-warhead dist minimum (A)>
4.475939

> <CYS145-warhead dist mean (A)>
8.153164

> <CYS145-warhead dist stddev (A)>
0.97869796

$$$$
x0816
  -OEChem-05172015543D

 19 20  0     0  0  0  0  0  0999 V2000
   10.5998   -3.7463   24.8667 C   0  0  0  0  0  0  0  0  0  0  0  0
    6.6190   -4.6934   21.8145 C   0  0  0  0  0  0  0  0  0  0  0  0
   13.0002   -0.4047   24.7852 C   0  0  0  0  0  0  0  0  0  0  0  0
   13.5319   -1.6030   23.9986 C   0  0  0  0  0  0  0  0  0  0  0  0
   11.4757   -0.4174   24.9401 C   0  0  0  0  0  0  0  0  0  0  0  0
   13.7338   -2.8941   24.7955 C   0  0  0  0  0  0  0  0  0  0  0  0
    8.5433   -2.6468   23.9988 C   0  0  0  0  0  0  0  0  0  0  0  0
    8.4436   -5.0141   24.9203 C   0  0  0  0  0  0  0  0  0  0  0  0
   10.9494   -1.4623   25.9199 C   0  0  0  0  0  0  0  0  0  0  0  0
   12.7453   -3.1652   25.9257 C   0  0  0  0  0  0  0  0  0  0  0  0
    8.4612   -3.2364   22.5919 C   0  0  0  0  0  0  0  0  0  0  0  0
    8.3455   -5.5294   23.4838 C   0  0  0  0  0  0  0  0  0  0  0  0
    9.1105   -3.6384   25.0196 C   0  0  0  0  0  0  0  0  0  0  0  0
    5.9468   -6.0411   21.8901 C   0  0  0  0  0  0  0  0  0  0  0  0
   11.3698   -2.8240   25.5771 N   0  0  0  0  0  0  0  0  0  0  0  0
    7.7528   -4.5156   22.6063 N   0  0  0  0  0  0  0  0  0  0  0  0
   11.0734   -4.6242   24.1408 O   0  0  0  0  0  0  0  0  0  0  0  0
    6.1479   -3.8255   21.0750 O   0  0  0  0  0  0  0  0  0  0  0  0
    4.7781   -5.9481   23.2028 Cl  0  0  0  0  0  0  0  0  0  0  0  0
  1 13  1  0  0  0  0
  1 15  1  0  0  0  0
  1 17  2  0  0  0  0
  2 14  1  0  0  0  0
  2 16  1  0  0  0  0
  2 18  2  0  0  0  0
  3  4  1  0  0  0  0
  3  5  1  0  0  0  0
  4  6  1  0  0  0  0
  5  9  1  0  0  0  0
  6 10  1  0  0  0  0
  7 11  1  0  0  0  0
  7 13  1  0  0  0  0
  8 12  1  0  0  0  0
  8 13  1  0  0  0  0
  9 15  1  0  0  0  0
 10 15  1  0  0  0  0
 11 16  1  0  0  0  0
 12 16  1  0  0  0  0
 14 19  1  0  0  0  0
M  END
> <ref_mols>
x0816_0

> <original SMILES>
ClCC(=O)N1CCC(CC1)C(=O)N2CCCCCC2

> <Chemgauss4>
-8.821181

> <ref_pdb>
x0749_0

$$$$
x2559
  -OEChem-05172015543D

 23 25  0     0  0  0  0  0  0999 V2000
   12.0224    1.5874   23.3436 C   0  0  0  0  0  0  0  0  0  0  0  0
   14.1388    0.6841   22.6074 C   0  0  0  0  0  0  0  0  0  0  0  0
   12.3743    2.8339   22.8259 C   0  0  0  0  0  0  0  0  0  0  0  0
   14.4907    1.9306   22.0897 C   0  0  0  0  0  0  0  0  0  0  0  0
    8.1205   -1.9884   22.1866 C   0  0  0  0  0  0  0  0  0  0  0  0
    6.9012   -2.5461   21.8705 C   0  0  0  0  0  0  0  0  0  0  0  0
    8.2321   -4.0053   23.3364 C   0  0  0  0  0  0  0  0  0  0  0  0
    8.8916   -2.8338   23.0356 C   0  0  0  0  0  0  0  0  0  0  0  0
   12.9047    0.5125   23.2344 C   0  0  0  0  0  0  0  0  0  0  0  0
   13.6085    3.0055   22.1990 C   0  0  0  0  0  0  0  0  0  0  0  0
   10.2584   -1.2239   24.4409 C   0  0  0  0  0  0  0  0  0  0  0  0
   11.2951   -2.3290   22.3998 C   0  0  0  0  0  0  0  0  0  0  0  0
   11.6712   -0.8727   24.9116 C   0  0  0  0  0  0  0  0  0  0  0  0
   12.6797   -1.9429   22.9330 C   0  0  0  0  0  0  0  0  0  0  0  0
   10.2757   -2.4825   23.5480 C   0  0  0  0  0  0  0  0  0  0  0  0
   12.5541   -0.7311   23.7506 N   0  0  0  0  0  0  0  0  0  0  0  0
   12.6636    5.4846   21.9416 N   0  0  0  0  0  0  0  0  0  0  0  0
   15.1816    5.0756   22.3129 O   0  0  0  0  0  0  0  0  0  0  0  0
   14.1446    4.4549   20.1023 O   0  0  0  0  0  0  0  0  0  0  0  0
    6.6899   -4.0827   22.5961 S   0  0  0  0  0  0  0  0  0  0  0  0
   14.0501    4.5655   21.5513 S   0  0  0  0  0  0  0  0  0  0  0  0
   12.7455    6.1880   22.6859 H   0  0  0  0  0  0  0  0  0  0  0  0
   12.0376    5.7615   21.1757 H   0  0  0  0  0  0  0  0  0  0  0  0
  1  3  2  0  0  0  0
  1  9  1  0  0  0  0
  2  4  1  0  0  0  0
  2  9  2  0  0  0  0
  3 10  1  0  0  0  0
  4 10  2  0  0  0  0
  5  6  2  0  0  0  0
  5  8  1  0  0  0  0
  6 20  1  0  0  0  0
  7  8  2  0  0  0  0
  7 20  1  0  0  0  0
  8 15  1  0  0  0  0
  9 16  1  0  0  0  0
 10 21  1  0  0  0  0
 11 13  1  0  0  0  0
 11 15  1  0  0  0  0
 12 14  1  0  0  0  0
 12 15  1  0  0  0  0
 13 16  1  0  0  0  0
 14 16  1  0  0  0  0
 17 21  1  0  0  0  0
 18 21  2  0  0  0  0
 19 21  2  0  0  0  0
 17 22  1  0  0  0  0
 17 23  1  0  0  0  0
M  END
> <ref_mols>
x2559_0

> <original SMILES>
NS(=O)(=O)C=1C=CC(=CC1)N2CCC(CC2)C=3C=CSC3

> <Chemgauss4>
-8.814410

> <ref_pdb>
x0195_0

$$$$
x0306
  -OEChem-05172015543D

 17 18  0     0  0  0  0  0  0999 V2000
    8.7501   -5.2023   23.4882 C   0  0  0  0  0  0  0  0  0  0  0  0
    9.8215   -4.4114   23.8641 C   0  0  0  0  0  0  0  0  0  0  0  0
    7.7507   -4.6206   22.7344 C   0  0  0  0  0  0  0  0  0  0  0  0
    9.8228   -3.0911   23.4610 C   0  0  0  0  0  0  0  0  0  0  0  0
    6.5970   -5.3888   22.3044 C   0  0  0  0  0  0  0  0  0  0  0  0
   13.2819   -1.7128   26.1434 C   0  0  0  0  0  0  0  0  0  0  0  0
   11.8449   -1.2178   25.8729 C   0  0  0  0  0  0  0  0  0  0  0  0
   13.1706   -2.5208   24.8328 C   0  0  0  0  0  0  0  0  0  0  0  0
   11.6409   -2.5065   25.0463 C   0  0  0  0  0  0  0  0  0  0  0  0
   11.3231   -1.1808   22.9511 C   0  0  0  0  0  0  0  0  0  0  0  0
    7.7780   -3.3256   22.3541 N   0  0  0  0  0  0  0  0  0  0  0  0
    8.8313   -2.5484   22.7232 N   0  0  0  0  0  0  0  0  0  0  0  0
    6.5326   -6.7298   22.6772 N   0  0  0  0  0  0  0  0  0  0  0  0
   10.9188   -2.2830   23.8456 N   0  0  3  0  0  0  0  0  0  0  0  0
    5.6973   -4.8797   21.6103 O   0  0  0  0  0  0  0  0  0  0  0  0
    7.2838   -7.1262   23.2313 H   0  0  0  0  0  0  0  0  0  0  0  0
    5.7517   -7.3193   22.4074 H   0  0  0  0  0  0  0  0  0  0  0  0
  1  2  2  0  0  0  0
  1  3  1  0  0  0  0
  2  4  1  0  0  0  0
  3  5  1  0  0  0  0
  3 11  2  0  0  0  0
  4 12  2  0  0  0  0
  4 14  1  0  0  0  0
  5 13  1  0  0  0  0
  5 15  2  0  0  0  0
  6  7  1  0  0  0  0
  6  8  1  0  0  0  0
  7  9  1  0  0  0  0
  8  9  1  0  0  0  0
  9 14  1  0  0  0  0
 10 14  1  0  0  0  0
 11 12  1  0  0  0  0
 13 16  1  0  0  0  0
 13 17  1  0  0  0  0
M  END
> <ref_mols>
x0306_0

> <original SMILES>
CN(C1CCC1)C=2C=CC(=NN2)C(=O)N

> <Chemgauss4>
-8.807671

> <ref_pdb>
x0749_0

$$$$
x0640
  -OEChem-05172015543D

 17 18  0     0  0  0  0  0  0999 V2000
   12.2082    0.3503   23.4187 C   0  0  0  0  0  0  0  0  0  0  0  0
   11.9422   -1.7430   22.2421 C   0  0  0  0  0  0  0  0  0  0  0  0
   13.2925   -0.1803   24.1176 C   0  0  0  0  0  0  0  0  0  0  0  0
   13.0266   -2.2736   22.9410 C   0  0  0  0  0  0  0  0  0  0  0  0
   11.5330   -0.4311   22.4810 C   0  0  0  0  0  0  0  0  0  0  0  0
   13.7017   -1.4922   23.8787 C   0  0  0  0  0  0  0  0  0  0  0  0
    9.1825   -0.1017   19.5355 C   0  0  0  0  0  0  0  0  0  0  0  0
   10.4026    0.1223   21.7524 C   0  0  0  0  0  0  0  0  0  0  0  0
    6.1623    1.0346   18.3483 C   0  0  0  0  0  0  0  0  0  0  0  0
    9.4042   -0.2613   18.1998 N   0  0  0  0  0  0  0  0  0  0  0  0
    7.9785    0.3936   19.8328 N   0  0  0  0  0  0  0  0  0  0  0  0
    8.2963    0.1477   17.5940 N   0  0  0  0  0  0  0  0  0  0  0  0
    7.4860    0.5243   18.5930 N   0  0  0  0  0  0  0  0  0  0  0  0
   10.1728   -0.4458   20.4898 N   0  0  0  0  0  0  0  0  0  0  0  0
    9.7236    1.0513   22.2116 O   0  0  0  0  0  0  0  0  0  0  0  0
   14.7430   -2.0017   24.5497 F   0  0  0  0  0  0  0  0  0  0  0  0
   10.7982   -1.2029   20.2250 H   0  0  0  0  0  0  0  0  0  0  0  0
  1  3  2  0  0  0  0
  1  5  1  0  0  0  0
  2  4  1  0  0  0  0
  2  5  2  0  0  0  0
  3  6  1  0  0  0  0
  4  6  2  0  0  0  0
  5  8  1  0  0  0  0
  6 16  1  0  0  0  0
  7 10  1  0  0  0  0
  7 11  2  0  0  0  0
  7 14  1  0  0  0  0
  8 14  1  0  0  0  0
  8 15  2  0  0  0  0
  9 13  1  0  0  0  0
 10 12  2  0  0  0  0
 11 13  1  0  0  0  0
 12 13  1  0  0  0  0
 14 17  1  0  0  0  0
M  END
> <ref_mols>
x0640_0

> <original SMILES>
CN1N=NC(NC(=O)C=2C=CC(F)=CC2)=N1

> <Chemgauss4>
-8.800728

> <ref_pdb>
x0678_0

$$$$
x0898
  -OEChem-05172015543D

 15 16  0     1  0  0  0  0  0999 V2000
   10.1754   -3.3481   23.8910 C   0  0  0  0  0  0  0  0  0  0  0  0
   10.4726   -2.3515   22.9616 C   0  0  0  0  0  0  0  0  0  0  0  0
    8.8618   -3.7931   24.0404 C   0  0  0  0  0  0  0  0  0  0  0  0
    9.4564   -1.7997   22.1815 C   0  0  0  0  0  0  0  0  0  0  0  0
    7.8456   -3.2414   23.2603 C   0  0  0  0  0  0  0  0  0  0  0  0
    8.1428   -2.2447   22.3309 C   0  0  0  0  0  0  0  0  0  0  0  0
    6.7177   -5.0371   21.2191 C   0  0  0  0  0  0  0  0  0  0  0  0
    6.1140   -4.2775   24.8355 C   0  0  0  0  0  0  0  0  0  0  0  0
    6.3967   -6.1333   23.4530 C   0  0  0  0  0  0  0  0  0  0  0  0
    6.4219   -3.7429   23.4397 C   0  0  2  0  0  0  0  0  0  0  0  0
    6.0527   -4.9428   22.5778 C   0  0  1  0  0  0  0  0  0  0  0  0
    7.0715   -1.6385   21.4851 C   0  0  0  0  0  0  0  0  0  0  0  0
    7.9794   -5.0648   21.2373 O   0  5  0  0  0  0  0  0  0  0  0  0
    5.9201   -5.0757   20.2406 O   0  0  0  0  0  0  0  0  0  0  0  0
    6.3815   -5.6860   24.8156 O   0  0  0  0  0  0  0  0  0  0  0  0
  1  2  2  0  0  0  0
  1  3  1  0  0  0  0
  2  4  1  0  0  0  0
  3  5  2  0  0  0  0
  4  6  2  0  0  0  0
  5  6  1  0  0  0  0
  5 10  1  0  0  0  0
  6 12  1  0  0  0  0
  7 11  1  0  0  0  0
  7 13  1  0  0  0  0
  7 14  2  0  0  0  0
  8 10  1  0  0  0  0
  8 15  1  0  0  0  0
  9 11  1  0  0  0  0
  9 15  1  0  0  0  0
 10 11  1  0  0  0  0
M  CHG  1  13  -1
M  END
> <ref_mols>
x0898_0

> <original SMILES>
CC(C=CC=C1)=C1[C@H]2[C@@H](C(O)=O)COC2

> <Chemgauss4>
-8.796511

> <ref_pdb>
x1392_0

$$$$
x0860
  -OEChem-05172015543D

 19 20  0     1  0  0  0  0  0999 V2000
   11.7120   -0.7084   22.8367 C   0  0  0  0  0  0  0  0  0  0  0  0
   13.7755    0.4846   23.2314 C   0  0  0  0  0  0  0  0  0  0  0  0
   12.3766   -1.5690   21.9630 C   0  0  0  0  0  0  0  0  0  0  0  0
   14.4402   -0.3760   22.3578 C   0  0  0  0  0  0  0  0  0  0  0  0
   12.4115    0.3184   23.4709 C   0  0  0  0  0  0  0  0  0  0  0  0
   13.7407   -1.4028   21.7236 C   0  0  0  0  0  0  0  0  0  0  0  0
   10.1692    1.8806   22.6577 C   0  0  0  0  0  0  0  0  0  0  0  0
   10.3904    3.4209   24.5990 C   0  0  0  0  0  0  0  0  0  0  0  0
   10.3256    4.7029   23.7890 C   0  0  0  0  0  0  0  0  0  0  0  0
   12.2001    3.3190   23.0369 C   0  0  0  0  0  0  0  0  0  0  0  0
   11.1345    2.4582   23.6886 C   0  0  2  0  0  0  0  0  0  0  0  0
    8.1816    0.6207   22.4432 C   0  0  0  0  0  0  0  0  0  0  0  0
   11.6956    1.2462   24.4137 C   0  0  0  0  0  0  0  0  0  0  0  0
   11.5819    4.6902   22.9690 N   0  3  0  0  0  0  0  0  0  0  0  0
   10.3005    2.0100   21.4481 O   0  0  0  0  0  0  0  0  0  0  0  0
    9.1647    1.2156   23.2963 O   0  0  0  0  0  0  0  0  0  0  0  0
   14.3796   -2.2309   20.8867 F   0  0  0  0  0  0  0  0  0  0  0  0
   11.3716    4.9454   21.9943 H   0  0  0  0  0  0  0  0  0  0  0  0
   12.2473    5.3946   23.3160 H   0  0  0  0  0  0  0  0  0  0  0  0
  1  3  2  0  0  0  0
  1  5  1  0  0  0  0
  2  4  1  0  0  0  0
  2  5  2  0  0  0  0
  3  6  1  0  0  0  0
  4  6  2  0  0  0  0
  5 13  1  0  0  0  0
  6 17  1  0  0  0  0
  7 11  1  0  0  0  0
  7 15  2  0  0  0  0
  7 16  1  0  0  0  0
  8  9  1  0  0  0  0
  8 11  1  0  0  0  0
  9 14  1  0  0  0  0
 10 11  1  0  0  0  0
 10 14  1  0  0  0  0
 11 13  1  0  0  0  0
 12 16  1  0  0  0  0
 14 18  1  0  0  0  0
 14 19  1  0  0  0  0
M  CHG  1  14   1
M  END
> <ref_mols>
x0860_0

> <original SMILES>
O=C(OC)C1(CC2=CC=C(F)C=C2)CNCC1

> <Chemgauss4>
-8.795607

> <ref_pdb>
x0195_0

$$$$
x0770
  -OEChem-05172015543D

 19 20  0     0  0  0  0  0  0999 V2000
   11.9864   -2.0293   22.0728 C   0  0  0  0  0  0  0  0  0  0  0  0
   10.8484   -2.5522   22.6870 C   0  0  0  0  0  0  0  0  0  0  0  0
   12.5071   -0.8060   22.4950 C   0  0  0  0  0  0  0  0  0  0  0  0
   10.7516   -0.6284   24.1454 C   0  0  0  0  0  0  0  0  0  0  0  0
   10.2310   -1.8517   23.7232 C   0  0  0  0  0  0  0  0  0  0  0  0
   11.8896   -0.1056   23.5312 C   0  0  0  0  0  0  0  0  0  0  0  0
    5.9279   -1.8113   19.8161 C   0  0  0  0  0  0  0  0  0  0  0  0
    6.3466   -3.2662   21.7729 C   0  0  0  0  0  0  0  0  0  0  0  0
    6.3628   -0.8265   22.1202 C   0  0  0  0  0  0  0  0  0  0  0  0
    7.6630   -3.4026   22.5239 C   0  0  0  0  0  0  0  0  0  0  0  0
    7.6794   -0.9264   22.8787 C   0  0  0  0  0  0  0  0  0  0  0  0
    9.0062   -2.4142   24.3825 C   0  0  0  0  0  0  0  0  0  0  0  0
    5.8159   -0.4074   19.2775 C   0  0  0  0  0  0  0  0  0  0  0  0
    6.2183   -1.9378   21.1738 N   0  0  0  0  0  0  0  0  0  0  0  0
    7.7705   -2.2849   23.5371 N   0  3  0  0  0  0  0  0  0  0  0  0
    5.7643   -2.7654   19.0512 O   0  0  0  0  0  0  0  0  0  0  0  0
   12.5317    1.4042   24.0509 Cl  0  0  0  0  0  0  0  0  0  0  0  0
    7.4343    0.0710   18.7776 Cl  0  0  0  0  0  0  0  0  0  0  0  0
    6.9682   -2.3705   24.1764 H   0  0  0  0  0  0  0  0  0  0  0  0
  1  2  2  0  0  0  0
  1  3  1  0  0  0  0
  2  5  1  0  0  0  0
  3  6  2  0  0  0  0
  4  5  2  0  0  0  0
  4  6  1  0  0  0  0
  5 12  1  0  0  0  0
  6 17  1  0  0  0  0
  7 13  1  0  0  0  0
  7 14  1  0  0  0  0
  7 16  2  0  0  0  0
  8 10  1  0  0  0  0
  8 14  1  0  0  0  0
  9 11  1  0  0  0  0
  9 14  1  0  0  0  0
 10 15  1  0  0  0  0
 11 15  1  0  0  0  0
 12 15  1  0  0  0  0
 13 18  1  0  0  0  0
 15 19  1  0  0  0  0
M  CHG  1  15   1
M  END
> <ref_mols>
x0770_0

> <original SMILES>
ClCC(=O)N1CCN(Cc2cccc(Cl)c2)CC1

> <Chemgauss4>
-8.791433

> <ref_pdb>
x0831_0

> <CYS145-warhead dist minimum (A)>
7.5003405

> <CYS145-warhead dist mean (A)>
10.535534

> <CYS145-warhead dist stddev (A)>
1.3613634

$$$$
x1369
  -OEChem-05172015543D

 19 20  0     0  0  0  0  0  0999 V2000
   11.9864   -2.0293   22.0728 C   0  0  0  0  0  0  0  0  0  0  0  0
   10.8484   -2.5522   22.6870 C   0  0  0  0  0  0  0  0  0  0  0  0
   12.5071   -0.8060   22.4950 C   0  0  0  0  0  0  0  0  0  0  0  0
   10.7516   -0.6284   24.1454 C   0  0  0  0  0  0  0  0  0  0  0  0
   10.2310   -1.8517   23.7232 C   0  0  0  0  0  0  0  0  0  0  0  0
   11.8896   -0.1056   23.5312 C   0  0  0  0  0  0  0  0  0  0  0  0
    5.9279   -1.8113   19.8161 C   0  0  0  0  0  0  0  0  0  0  0  0
    6.3466   -3.2662   21.7729 C   0  0  0  0  0  0  0  0  0  0  0  0
    6.3628   -0.8265   22.1202 C   0  0  0  0  0  0  0  0  0  0  0  0
    7.6630   -3.4026   22.5239 C   0  0  0  0  0  0  0  0  0  0  0  0
    7.6794   -0.9264   22.8787 C   0  0  0  0  0  0  0  0  0  0  0  0
    9.0062   -2.4142   24.3825 C   0  0  0  0  0  0  0  0  0  0  0  0
    5.8159   -0.4074   19.2775 C   0  0  0  0  0  0  0  0  0  0  0  0
    6.2183   -1.9378   21.1738 N   0  0  0  0  0  0  0  0  0  0  0  0
    7.7705   -2.2849   23.5371 N   0  3  0  0  0  0  0  0  0  0  0  0
    5.7643   -2.7654   19.0512 O   0  0  0  0  0  0  0  0  0  0  0  0
   12.5317    1.4042   24.0509 Cl  0  0  0  0  0  0  0  0  0  0  0  0
    7.4343    0.0710   18.7776 Cl  0  0  0  0  0  0  0  0  0  0  0  0
    6.9682   -2.3705   24.1764 H   0  0  0  0  0  0  0  0  0  0  0  0
  1  2  2  0  0  0  0
  1  3  1  0  0  0  0
  2  5  1  0  0  0  0
  3  6  2  0  0  0  0
  4  5  2  0  0  0  0
  4  6  1  0  0  0  0
  5 12  1  0  0  0  0
  6 17  1  0  0  0  0
  7 13  1  0  0  0  0
  7 14  1  0  0  0  0
  7 16  2  0  0  0  0
  8 10  1  0  0  0  0
  8 14  1  0  0  0  0
  9 11  1  0  0  0  0
  9 14  1  0  0  0  0
 10 15  1  0  0  0  0
 11 15  1  0  0  0  0
 12 15  1  0  0  0  0
 13 18  1  0  0  0  0
 15 19  1  0  0  0  0
M  CHG  1  15   1
M  END
> <ref_mols>
x1369_0

> <original SMILES>
ClCC(=O)N1CCN(Cc2cccc(Cl)c2)CC1

> <Chemgauss4>
-8.791433

> <ref_pdb>
x0831_0

$$$$
x0696
  -OEChem-05172015543D

 19 20  0     0  0  0  0  0  0999 V2000
   11.9864   -2.0293   22.0728 C   0  0  0  0  0  0  0  0  0  0  0  0
   10.8484   -2.5522   22.6870 C   0  0  0  0  0  0  0  0  0  0  0  0
   12.5071   -0.8060   22.4950 C   0  0  0  0  0  0  0  0  0  0  0  0
   10.7516   -0.6284   24.1454 C   0  0  0  0  0  0  0  0  0  0  0  0
   10.2310   -1.8517   23.7232 C   0  0  0  0  0  0  0  0  0  0  0  0
   11.8896   -0.1056   23.5312 C   0  0  0  0  0  0  0  0  0  0  0  0
    5.9279   -1.8113   19.8161 C   0  0  0  0  0  0  0  0  0  0  0  0
    6.3466   -3.2662   21.7729 C   0  0  0  0  0  0  0  0  0  0  0  0
    6.3628   -0.8265   22.1202 C   0  0  0  0  0  0  0  0  0  0  0  0
    7.6630   -3.4026   22.5239 C   0  0  0  0  0  0  0  0  0  0  0  0
    7.6794   -0.9264   22.8787 C   0  0  0  0  0  0  0  0  0  0  0  0
    9.0062   -2.4142   24.3825 C   0  0  0  0  0  0  0  0  0  0  0  0
    5.8159   -0.4074   19.2775 C   0  0  0  0  0  0  0  0  0  0  0  0
    6.2183   -1.9378   21.1738 N   0  0  0  0  0  0  0  0  0  0  0  0
    7.7705   -2.2849   23.5371 N   0  3  0  0  0  0  0  0  0  0  0  0
    5.7643   -2.7654   19.0512 O   0  0  0  0  0  0  0  0  0  0  0  0
   12.5317    1.4042   24.0509 Cl  0  0  0  0  0  0  0  0  0  0  0  0
    7.4343    0.0710   18.7776 Cl  0  0  0  0  0  0  0  0  0  0  0  0
    6.9682   -2.3705   24.1764 H   0  0  0  0  0  0  0  0  0  0  0  0
  1  2  2  0  0  0  0
  1  3  1  0  0  0  0
  2  5  1  0  0  0  0
  3  6  2  0  0  0  0
  4  5  2  0  0  0  0
  4  6  1  0  0  0  0
  5 12  1  0  0  0  0
  6 17  1  0  0  0  0
  7 13  1  0  0  0  0
  7 14  1  0  0  0  0
  7 16  2  0  0  0  0
  8 10  1  0  0  0  0
  8 14  1  0  0  0  0
  9 11  1  0  0  0  0
  9 14  1  0  0  0  0
 10 15  1  0  0  0  0
 11 15  1  0  0  0  0
 12 15  1  0  0  0  0
 13 18  1  0  0  0  0
 15 19  1  0  0  0  0
M  CHG  1  15   1
M  END
> <ref_mols>
x0696_0

> <original SMILES>
ClCC(=O)N1CCN(Cc2cccc(Cl)c2)CC1

> <Chemgauss4>
-8.791433

> <ref_pdb>
x0831_0

$$$$
x0412
  -OEChem-05172015543D

 19 20  0     0  0  0  0  0  0999 V2000
    8.1230   -3.4219   21.9678 C   0  0  0  0  0  0  0  0  0  0  0  0
    8.5163   -5.3814   23.3254 C   0  0  0  0  0  0  0  0  0  0  0  0
    9.1936   -2.7776   22.5877 C   0  0  0  0  0  0  0  0  0  0  0  0
    9.5869   -4.7370   23.9453 C   0  0  0  0  0  0  0  0  0  0  0  0
    7.7843   -4.7238   22.3367 C   0  0  0  0  0  0  0  0  0  0  0  0
    9.9255   -3.4351   23.5764 C   0  0  0  0  0  0  0  0  0  0  0  0
    6.6680   -5.3956   21.6905 C   0  0  0  0  0  0  0  0  0  0  0  0
   11.8410   -3.2834   25.1988 C   0  0  0  0  0  0  0  0  0  0  0  0
   12.6955    0.1285   25.1896 C   0  0  0  0  0  0  0  0  0  0  0  0
   13.0552   -0.5719   23.8918 C   0  0  0  0  0  0  0  0  0  0  0  0
   12.1913   -0.9933   26.0917 C   0  0  0  0  0  0  0  0  0  0  0  0
   13.6901   -1.8711   24.3676 C   0  0  0  0  0  0  0  0  0  0  0  0
   12.8884   -2.2631   25.6049 C   0  0  0  0  0  0  0  0  0  0  0  0
    5.4178   -7.4265   21.6208 C   0  0  0  0  0  0  0  0  0  0  0  0
   11.0116   -2.7805   24.2045 N   0  0  0  0  0  0  0  0  0  0  0  0
    5.9642   -4.8910   20.8056 O   0  0  0  0  0  0  0  0  0  0  0  0
   11.8031   -4.3894   25.7282 O   0  0  0  0  0  0  0  0  0  0  0  0
    6.4897   -6.6604   22.1810 O   0  0  0  0  0  0  0  0  0  0  0  0
   11.1958   -1.8332   23.8807 H   0  0  0  0  0  0  0  0  0  0  0  0
  1  3  2  0  0  0  0
  1  5  1  0  0  0  0
  2  4  1  0  0  0  0
  2  5  2  0  0  0  0
  3  6  1  0  0  0  0
  4  6  2  0  0  0  0
  5  7  1  0  0  0  0
  6 15  1  0  0  0  0
  7 16  2  0  0  0  0
  7 18  1  0  0  0  0
  8 13  1  0  0  0  0
  8 15  1  0  0  0  0
  8 17  2  0  0  0  0
  9 10  1  0  0  0  0
  9 11  1  0  0  0  0
 10 12  1  0  0  0  0
 11 13  1  0  0  0  0
 12 13  1  0  0  0  0
 14 18  1  0  0  0  0
 15 19  1  0  0  0  0
M  END
> <ref_mols>
x0412_0

> <original SMILES>
COC(=O)C=1C=CC(NC(=O)C2CCCC2)=CC1

> <Chemgauss4>
-8.791307

> <ref_pdb>
x0749_0

$$$$
x2832
  -OEChem-05172015543D

 26 28  0     0  0  0  0  0  0999 V2000
   14.3975   -1.3105   22.2293 C   0  0  0  0  0  0  0  0  0  0  0  0
   11.3817    7.1107   25.3997 C   0  0  0  0  0  0  0  0  0  0  0  0
   12.2676    6.1721   24.8824 C   0  0  0  0  0  0  0  0  0  0  0  0
   14.4606    0.0827   22.2554 C   0  0  0  0  0  0  0  0  0  0  0  0
   13.2691   -1.9670   22.7208 C   0  0  0  0  0  0  0  0  0  0  0  0
   12.2669    0.1630   23.2646 C   0  0  0  0  0  0  0  0  0  0  0  0
   10.2482    7.4088   24.6608 C   0  0  0  0  0  0  0  0  0  0  0  0
    7.1784   -0.8001   22.0628 C   0  0  0  0  0  0  0  0  0  0  0  0
    8.6272   -1.9892   21.1440 C   0  0  0  0  0  0  0  0  0  0  0  0
   11.9967    5.5689   23.6593 C   0  0  0  0  0  0  0  0  0  0  0  0
   13.3953    0.8194   22.7731 C   0  0  0  0  0  0  0  0  0  0  0  0
   12.2038   -1.2302   23.2384 C   0  0  0  0  0  0  0  0  0  0  0  0
   10.8356    5.9358   22.9983 C   0  0  0  0  0  0  0  0  0  0  0  0
   12.4958    3.1179   23.2760 C   0  0  0  0  0  0  0  0  0  0  0  0
   12.9684    4.5543   23.1157 C   0  0  0  0  0  0  0  0  0  0  0  0
    9.2636   -3.3402   23.1922 C   0  0  0  0  0  0  0  0  0  0  0  0
   10.7693   -3.1235   23.1224 C   0  0  0  0  0  0  0  0  0  0  0  0
    9.9512    6.8435   23.4692 N   0  0  0  0  0  0  0  0  0  0  0  0
    7.7863   -1.0218   20.8603 N   0  0  0  0  0  0  0  0  0  0  0  0
    7.5903   -1.5694   23.0727 N   0  0  0  0  0  0  0  0  0  0  0  0
    8.5168   -2.3207   22.4584 N   0  0  0  0  0  0  0  0  0  0  0  0
   13.4586    2.2130   22.7987 N   0  0  0  0  0  0  0  0  0  0  0  0
   11.4055    2.8370   23.7632 O   0  0  0  0  0  0  0  0  0  0  0  0
   11.1027   -1.8707   23.7182 O   0  0  0  0  0  0  0  0  0  0  0  0
   10.4001    5.1497   21.3174 Br  0  0  0  0  0  0  0  0  0  0  0  0
   14.3175    2.6299   22.4212 H   0  0  0  0  0  0  0  0  0  0  0  0
  1  4  2  0  0  0  0
  1  5  1  0  0  0  0
  2  3  2  0  0  0  0
  2  7  1  0  0  0  0
  3 10  1  0  0  0  0
  4 11  1  0  0  0  0
  5 12  2  0  0  0  0
  6 11  2  0  0  0  0
  6 12  1  0  0  0  0
  7 18  2  0  0  0  0
  8 19  1  0  0  0  0
  8 20  2  0  0  0  0
  9 19  2  0  0  0  0
  9 21  1  0  0  0  0
 10 13  2  0  0  0  0
 10 15  1  0  0  0  0
 11 22  1  0  0  0  0
 12 24  1  0  0  0  0
 13 18  1  0  0  0  0
 13 25  1  0  0  0  0
 14 15  1  0  0  0  0
 14 22  1  0  0  0  0
 14 23  2  0  0  0  0
 16 17  1  0  0  0  0
 16 21  1  0  0  0  0
 17 24  1  0  0  0  0
 20 21  1  0  0  0  0
 22 26  1  0  0  0  0
M  END
> <ref_mols>
x2832_0

> <original SMILES>
BrC=1N=CC=CC1CC(=O)NC=2C=CC=C(OCCN3C=NC=N3)C2

> <Chemgauss4>
-8.784991

> <ref_pdb>
x0195_0

$$$$
x0084
  -OEChem-05172015543D

 15 16  0     0  0  0  0  0  0999 V2000
   13.8051   -0.7908   24.4920 C   0  0  0  0  0  0  0  0  0  0  0  0
   14.3223   -1.5519   23.4411 C   0  0  0  0  0  0  0  0  0  0  0  0
   12.5986   -0.0935   24.3521 C   0  0  0  0  0  0  0  0  0  0  0  0
   13.6552   -1.6443   22.2150 C   0  0  0  0  0  0  0  0  0  0  0  0
   11.9152   -0.1750   23.1271 C   0  0  0  0  0  0  0  0  0  0  0  0
   12.4556   -0.9415   22.0984 C   0  0  0  0  0  0  0  0  0  0  0  0
   10.5476    0.0032   21.4969 C   0  0  0  0  0  0  0  0  0  0  0  0
    6.7886   -0.3253   19.9987 C   0  0  0  0  0  0  0  0  0  0  0  0
    9.4149    0.3451   20.6165 C   0  0  0  0  0  0  0  0  0  0  0  0
   10.7300    0.4039   22.7351 N   0  0  0  0  0  0  0  0  0  0  0  0
   11.5601   -0.8093   21.0683 N   0  0  0  0  0  0  0  0  0  0  0  0
    8.1623   -1.6133   21.8117 O   0  0  0  0  0  0  0  0  0  0  0  0
    7.4452    0.7604   22.2840 O   0  0  0  0  0  0  0  0  0  0  0  0
    7.9265   -0.2529   21.3623 S   0  0  0  0  0  0  0  0  0  0  0  0
   11.6373   -1.2385   20.1556 H   0  0  0  0  0  0  0  0  0  0  0  0
  1  2  1  0  0  0  0
  1  3  2  0  0  0  0
  2  4  2  0  0  0  0
  3  5  1  0  0  0  0
  4  6  1  0  0  0  0
  5  6  2  0  0  0  0
  5 10  1  0  0  0  0
  6 11  1  0  0  0  0
  7  9  1  0  0  0  0
  7 10  2  0  0  0  0
  7 11  1  0  0  0  0
  8 14  1  0  0  0  0
  9 14  1  0  0  0  0
 12 14  2  0  0  0  0
 13 14  2  0  0  0  0
 11 15  1  0  0  0  0
M  END
> <ref_mols>
x0084_0

> <original SMILES>
CS(=O)(=O)CC1=NC=2C=CC=CC2N1

> <Chemgauss4>
-8.784011

> <ref_pdb>
x0678_0

$$$$
x1237
  -OEChem-05172015543D

 15 16  0     0  0  0  0  0  0999 V2000
   13.8051   -0.7908   24.4920 C   0  0  0  0  0  0  0  0  0  0  0  0
   14.3223   -1.5519   23.4411 C   0  0  0  0  0  0  0  0  0  0  0  0
   12.5986   -0.0935   24.3521 C   0  0  0  0  0  0  0  0  0  0  0  0
   13.6552   -1.6443   22.2150 C   0  0  0  0  0  0  0  0  0  0  0  0
   11.9152   -0.1750   23.1271 C   0  0  0  0  0  0  0  0  0  0  0  0
   12.4556   -0.9415   22.0984 C   0  0  0  0  0  0  0  0  0  0  0  0
   10.5476    0.0032   21.4969 C   0  0  0  0  0  0  0  0  0  0  0  0
    6.7886   -0.3253   19.9987 C   0  0  0  0  0  0  0  0  0  0  0  0
    9.4149    0.3451   20.6165 C   0  0  0  0  0  0  0  0  0  0  0  0
   10.7300    0.4039   22.7351 N   0  0  0  0  0  0  0  0  0  0  0  0
   11.5601   -0.8093   21.0683 N   0  0  0  0  0  0  0  0  0  0  0  0
    8.1623   -1.6133   21.8117 O   0  0  0  0  0  0  0  0  0  0  0  0
    7.4452    0.7604   22.2840 O   0  0  0  0  0  0  0  0  0  0  0  0
    7.9265   -0.2529   21.3623 S   0  0  0  0  0  0  0  0  0  0  0  0
   11.6373   -1.2385   20.1556 H   0  0  0  0  0  0  0  0  0  0  0  0
  1  2  1  0  0  0  0
  1  3  2  0  0  0  0
  2  4  2  0  0  0  0
  3  5  1  0  0  0  0
  4  6  1  0  0  0  0
  5  6  2  0  0  0  0
  5 10  1  0  0  0  0
  6 11  1  0  0  0  0
  7  9  1  0  0  0  0
  7 10  2  0  0  0  0
  7 11  1  0  0  0  0
  8 14  1  0  0  0  0
  9 14  1  0  0  0  0
 12 14  2  0  0  0  0
 13 14  2  0  0  0  0
 11 15  1  0  0  0  0
M  END
> <ref_mols>
x1237_0

> <original SMILES>
CS(=O)(=O)CC1=NC=2C=CC=CC2N1

> <Chemgauss4>
-8.784011

> <ref_pdb>
x0678_0

$$$$
x0620
  -OEChem-05172015543D

 16 17  0     0  0  0  0  0  0999 V2000
   13.4522   -0.1377   23.5419 C   0  0  0  0  0  0  0  0  0  0  0  0
   11.2995   -0.3644   22.4937 C   0  0  0  0  0  0  0  0  0  0  0  0
   13.8445   -1.2779   22.8594 C   0  0  0  0  0  0  0  0  0  0  0  0
   11.7882   -1.4943   21.8580 C   0  0  0  0  0  0  0  0  0  0  0  0
   12.1538    0.3212   23.3501 C   0  0  0  0  0  0  0  0  0  0  0  0
   11.6902    1.5172   24.0440 C   0  0  0  0  0  0  0  0  0  0  0  0
   12.5145    2.7978   22.0795 C   0  0  0  0  0  0  0  0  0  0  0  0
   11.3893    4.0543   23.8791 C   0  0  0  0  0  0  0  0  0  0  0  0
   13.6552    3.8048   22.0691 C   0  0  0  0  0  0  0  0  0  0  0  0
   12.5186    5.0723   23.9009 C   0  0  0  0  0  0  0  0  0  0  0  0
   13.0431   -1.9705   22.0194 N   0  0  0  0  0  0  0  0  0  0  0  0
   11.8749    2.7524   23.3972 N   0  0  0  0  0  0  0  0  0  0  0  0
   13.1418    5.1290   22.5407 N   0  3  0  0  0  0  0  0  0  0  0  0
   11.1584    1.4234   25.1518 O   0  0  0  0  0  0  0  0  0  0  0  0
   13.9137    5.8097   22.5486 H   0  0  0  0  0  0  0  0  0  0  0  0
   12.4563    5.4922   21.8636 H   0  0  0  0  0  0  0  0  0  0  0  0
  1  3  2  0  0  0  0
  1  5  1  0  0  0  0
  2  4  1  0  0  0  0
  2  5  2  0  0  0  0
  3 11  1  0  0  0  0
  4 11  2  0  0  0  0
  5  6  1  0  0  0  0
  6 12  1  0  0  0  0
  6 14  2  0  0  0  0
  7  9  1  0  0  0  0
  7 12  1  0  0  0  0
  8 10  1  0  0  0  0
  8 12  1  0  0  0  0
  9 13  1  0  0  0  0
 10 13  1  0  0  0  0
 13 15  1  0  0  0  0
 13 16  1  0  0  0  0
M  CHG  1  13   1
M  END
> <ref_mols>
x0620_0

> <original SMILES>
O=C(N1CCNCC1)C=2C=CN=CC2

> <Chemgauss4>
-8.777584

> <ref_pdb>
x0195_0

$$$$
x0922
  -OEChem-05172015543D

 17 18  0     1  0  0  0  0  0999 V2000
   14.6192   -0.7067   23.3068 C   0  0  0  0  0  0  0  0  0  0  0  0
   14.0269   -1.7702   22.6260 C   0  0  0  0  0  0  0  0  0  0  0  0
   13.8896    0.4563   23.5537 C   0  0  0  0  0  0  0  0  0  0  0  0
   12.7050   -1.6708   22.1919 C   0  0  0  0  0  0  0  0  0  0  0  0
   12.5677    0.5557   23.1196 C   0  0  0  0  0  0  0  0  0  0  0  0
   11.9754   -0.5079   22.4387 C   0  0  0  0  0  0  0  0  0  0  0  0
   10.7003    2.2083   22.3781 C   0  0  0  0  0  0  0  0  0  0  0  0
   11.5127    4.1825   23.5647 C   0  0  0  0  0  0  0  0  0  0  0  0
   11.7796    1.8187   23.3894 C   0  0  2  0  0  0  0  0  0  0  0  0
   12.6047    3.1173   23.5165 C   0  0  1  0  0  0  0  0  0  0  0  0
   13.5739    3.3731   22.3580 C   0  0  0  0  0  0  0  0  0  0  0  0
   10.4310    3.6582   22.6655 N   0  3  0  0  0  0  0  0  0  0  0  0
   14.1669    4.6483   22.5340 O   0  0  0  0  0  0  0  0  0  0  0  0
   10.7058   -0.4217   22.0179 F   0  0  0  0  0  0  0  0  0  0  0  0
   10.3988    4.2038   21.7949 H   0  0  0  0  0  0  0  0  0  0  0  0
    9.5109    3.7647   23.1117 H   0  0  0  0  0  0  0  0  0  0  0  0
   14.7749    4.7843   21.7878 H   0  0  0  0  0  0  0  0  0  0  0  0
  1  2  1  0  0  0  0
  1  3  2  0  0  0  0
  2  4  2  0  0  0  0
  3  5  1  0  0  0  0
  4  6  1  0  0  0  0
  5  6  2  0  0  0  0
  5  9  1  0  0  0  0
  6 14  1  0  0  0  0
  7  9  1  0  0  0  0
  7 12  1  0  0  0  0
  8 10  1  0  0  0  0
  8 12  1  0  0  0  0
  9 10  1  0  0  0  0
 10 11  1  0  0  0  0
 11 13  1  0  0  0  0
 12 15  1  0  0  0  0
 12 16  1  0  0  0  0
 13 17  1  0  0  0  0
M  CHG  1  12   1
M  END
> <ref_mols>
x0922_0

> <original SMILES>
OC[C@@H]1[C@H](C2=CC=CC=C2F)CNC1

> <Chemgauss4>
-8.772961

> <ref_pdb>
x0195_0

$$$$
x2815
  -OEChem-05172015543D

 18 19  0     0  0  0  0  0  0999 V2000
    9.5974   -2.8608   22.8104 C   0  0  0  0  0  0  0  0  0  0  0  0
    9.7345   -4.4669   24.6101 C   0  0  0  0  0  0  0  0  0  0  0  0
    8.5100   -3.5521   22.2762 C   0  0  0  0  0  0  0  0  0  0  0  0
    8.6471   -5.1582   24.0760 C   0  0  0  0  0  0  0  0  0  0  0  0
   10.2097   -3.3182   23.9773 C   0  0  0  0  0  0  0  0  0  0  0  0
    8.0349   -4.7008   22.9090 C   0  0  0  0  0  0  0  0  0  0  0  0
   11.4229   -1.1808   24.3288 C   0  0  0  0  0  0  0  0  0  0  0  0
   12.3308   -3.3357   25.2673 C   0  0  0  0  0  0  0  0  0  0  0  0
   12.0783   -0.5164   25.5337 C   0  0  0  0  0  0  0  0  0  0  0  0
   13.7049   -2.7079   25.0653 C   0  0  0  0  0  0  0  0  0  0  0  0
   11.2865   -2.6340   24.5067 N   0  0  0  0  0  0  0  0  0  0  0  0
    6.3249   -4.6144   20.8661 N   0  0  0  0  0  0  0  0  0  0  0  0
    7.1348   -6.8765   21.8003 O   0  0  0  0  0  0  0  0  0  0  0  0
    5.5599   -5.4685   23.1731 O   0  0  0  0  0  0  0  0  0  0  0  0
   13.8072   -1.0292   25.7522 S   0  0  0  0  0  0  0  0  0  0  0  0
    6.6743   -5.5672   22.2408 S   0  0  0  0  0  0  0  0  0  0  0  0
    6.5475   -5.0028   19.9414 H   0  0  0  0  0  0  0  0  0  0  0  0
    5.4731   -4.0405   20.8813 H   0  0  0  0  0  0  0  0  0  0  0  0
  1  3  2  0  0  0  0
  1  5  1  0  0  0  0
  2  4  1  0  0  0  0
  2  5  2  0  0  0  0
  3  6  1  0  0  0  0
  4  6  2  0  0  0  0
  5 11  1  0  0  0  0
  6 16  1  0  0  0  0
  7  9  1  0  0  0  0
  7 11  1  0  0  0  0
  8 10  1  0  0  0  0
  8 11  1  0  0  0  0
  9 15  1  0  0  0  0
 10 15  1  0  0  0  0
 12 16  1  0  0  0  0
 13 16  2  0  0  0  0
 14 16  2  0  0  0  0
 12 17  1  0  0  0  0
 12 18  1  0  0  0  0
M  END
> <ref_mols>
x2815_0

> <original SMILES>
NS(=O)(=O)C=1C=CC(=CC1)N2CCSCC2

> <Chemgauss4>
-8.766706

> <ref_pdb>
x0749_0

$$$$
x2483
  -OEChem-05172015543D

 19 20  0     0  0  0  0  0  0999 V2000
   12.2661    0.4889   24.4552 C   0  0  0  0  0  0  0  0  0  0  0  0
   14.0138   -2.4914   25.8407 C   0  0  0  0  0  0  0  0  0  0  0  0
   13.7729   -1.1918   25.3950 C   0  0  0  0  0  0  0  0  0  0  0  0
   12.9935   -3.4419   25.8033 C   0  0  0  0  0  0  0  0  0  0  0  0
   11.4915   -1.7930   24.8747 C   0  0  0  0  0  0  0  0  0  0  0  0
   12.5118   -0.8426   24.9121 C   0  0  0  0  0  0  0  0  0  0  0  0
   11.7324   -3.0927   25.3204 C   0  0  0  0  0  0  0  0  0  0  0  0
    6.4501   -4.6114   21.6844 C   0  0  0  0  0  0  0  0  0  0  0  0
    7.0522   -3.8804   23.9701 C   0  0  0  0  0  0  0  0  0  0  0  0
    8.6041   -3.3365   22.1347 C   0  0  0  0  0  0  0  0  0  0  0  0
    8.2015   -4.4179   24.8102 C   0  0  0  0  0  0  0  0  0  0  0  0
    9.7779   -3.8644   22.9485 C   0  0  0  0  0  0  0  0  0  0  0  0
    5.6079   -5.7118   22.2789 C   0  0  0  0  0  0  0  0  0  0  0  0
   10.6351   -4.1151   25.2804 C   0  0  0  0  0  0  0  0  0  0  0  0
   12.0666    1.5702   24.0842 N   0  0  0  0  0  0  0  0  0  0  0  0
    7.3520   -3.9830   22.5419 N   0  0  0  0  0  0  0  0  0  0  0  0
    9.4744   -3.6998   24.4209 N   0  3  0  0  0  0  0  0  0  0  0  0
    6.3073   -4.3188   20.4945 O   0  0  0  0  0  0  0  0  0  0  0  0
    9.3267   -2.6958   24.5935 H   0  0  0  0  0  0  0  0  0  0  0  0
  1  6  1  0  0  0  0
  1 15  3  0  0  0  0
  2  3  1  0  0  0  0
  2  4  2  0  0  0  0
  3  6  2  0  0  0  0
  4  7  1  0  0  0  0
  5  6  1  0  0  0  0
  5  7  2  0  0  0  0
  7 14  1  0  0  0  0
  8 13  1  0  0  0  0
  8 16  1  0  0  0  0
  8 18  2  0  0  0  0
  9 11  1  0  0  0  0
  9 16  1  0  0  0  0
 10 12  1  0  0  0  0
 10 16  1  0  0  0  0
 11 17  1  0  0  0  0
 12 17  1  0  0  0  0
 14 17  1  0  0  0  0
 17 19  1  0  0  0  0
M  CHG  1  17   1
M  END
> <ref_mols>
x2483_0

> <original SMILES>
CC(=O)N1CCN(CC=2C=CC=C(C#N)C2)CC1

> <Chemgauss4>
-8.765173

> <ref_pdb>
x0749_0

> <CYS145-warhead dist minimum (A)>
5.5326233

> <CYS145-warhead dist mean (A)>
7.352846

> <CYS145-warhead dist stddev (A)>
0.6456279

$$$$
x2651
  -OEChem-05172015543D

 19 20  0     0  0  0  0  0  0999 V2000
   12.2661    0.4889   24.4552 C   0  0  0  0  0  0  0  0  0  0  0  0
   14.0138   -2.4914   25.8407 C   0  0  0  0  0  0  0  0  0  0  0  0
   13.7729   -1.1918   25.3950 C   0  0  0  0  0  0  0  0  0  0  0  0
   12.9935   -3.4419   25.8033 C   0  0  0  0  0  0  0  0  0  0  0  0
   11.4915   -1.7930   24.8747 C   0  0  0  0  0  0  0  0  0  0  0  0
   12.5118   -0.8426   24.9121 C   0  0  0  0  0  0  0  0  0  0  0  0
   11.7324   -3.0927   25.3204 C   0  0  0  0  0  0  0  0  0  0  0  0
    6.4501   -4.6114   21.6844 C   0  0  0  0  0  0  0  0  0  0  0  0
    7.0522   -3.8804   23.9701 C   0  0  0  0  0  0  0  0  0  0  0  0
    8.6041   -3.3365   22.1347 C   0  0  0  0  0  0  0  0  0  0  0  0
    8.2015   -4.4179   24.8102 C   0  0  0  0  0  0  0  0  0  0  0  0
    9.7779   -3.8644   22.9485 C   0  0  0  0  0  0  0  0  0  0  0  0
    5.6079   -5.7118   22.2789 C   0  0  0  0  0  0  0  0  0  0  0  0
   10.6351   -4.1151   25.2804 C   0  0  0  0  0  0  0  0  0  0  0  0
   12.0666    1.5702   24.0842 N   0  0  0  0  0  0  0  0  0  0  0  0
    7.3520   -3.9830   22.5419 N   0  0  0  0  0  0  0  0  0  0  0  0
    9.4744   -3.6998   24.4209 N   0  3  0  0  0  0  0  0  0  0  0  0
    6.3073   -4.3188   20.4945 O   0  0  0  0  0  0  0  0  0  0  0  0
    9.3267   -2.6958   24.5935 H   0  0  0  0  0  0  0  0  0  0  0  0
  1  6  1  0  0  0  0
  1 15  3  0  0  0  0
  2  3  1  0  0  0  0
  2  4  2  0  0  0  0
  3  6  2  0  0  0  0
  4  7  1  0  0  0  0
  5  6  1  0  0  0  0
  5  7  2  0  0  0  0
  7 14  1  0  0  0  0
  8 13  1  0  0  0  0
  8 16  1  0  0  0  0
  8 18  2  0  0  0  0
  9 11  1  0  0  0  0
  9 16  1  0  0  0  0
 10 12  1  0  0  0  0
 10 16  1  0  0  0  0
 11 17  1  0  0  0  0
 12 17  1  0  0  0  0
 14 17  1  0  0  0  0
 17 19  1  0  0  0  0
M  CHG  1  17   1
M  END
> <ref_mols>
x2651_0

> <original SMILES>
CC(=O)N1CCN(CC=2C=CC=C(C#N)C2)CC1

> <Chemgauss4>
-8.765173

> <ref_pdb>
x0749_0

> <CYS145-warhead dist minimum (A)>
18.248718

> <CYS145-warhead dist mean (A)>
20.831367

> <CYS145-warhead dist stddev (A)>
0.69686276

$$$$
x2836
  -OEChem-05172015543D

 33 35  0     0  0  0  0  0  0999 V2000
    9.2671   -0.7569   26.5904 C   0  0  0  0  0  0  0  0  0  0  0  0
    9.7819    0.4873   26.9543 C   0  0  0  0  0  0  0  0  0  0  0  0
    5.6614    1.1608   19.0182 C   0  0  0  0  0  0  0  0  0  0  0  0
    9.1136   -1.0811   25.2424 C   0  0  0  0  0  0  0  0  0  0  0  0
   10.1432    1.4075   25.9702 C   0  0  0  0  0  0  0  0  0  0  0  0
   13.9775   -1.6404   22.9777 C   0  0  0  0  0  0  0  0  0  0  0  0
   13.1815   -1.1222   21.9561 C   0  0  0  0  0  0  0  0  0  0  0  0
    5.8849    0.2923   20.0721 C   0  0  0  0  0  0  0  0  0  0  0  0
   13.5775    0.3443   24.2960 C   0  0  0  0  0  0  0  0  0  0  0  0
    6.3229    0.9196   17.8309 C   0  0  0  0  0  0  0  0  0  0  0  0
    9.4749   -0.1609   24.2583 C   0  0  0  0  0  0  0  0  0  0  0  0
    9.9897    1.0834   24.6222 C   0  0  0  0  0  0  0  0  0  0  0  0
   14.1754   -0.9071   24.1477 C   0  0  0  0  0  0  0  0  0  0  0  0
   12.5836    0.1292   22.1045 C   0  0  0  0  0  0  0  0  0  0  0  0
   12.7815    0.8625   23.2745 C   0  0  0  0  0  0  0  0  0  0  0  0
    6.7549   -0.7601   19.8687 C   0  0  0  0  0  0  0  0  0  0  0  0
    9.3023   -0.5286   22.8588 C   0  0  0  0  0  0  0  0  0  0  0  0
    7.8581   -2.7677   20.8576 C   0  0  0  0  0  0  0  0  0  0  0  0
    9.2934   -2.4044   21.1993 C   0  0  0  0  0  0  0  0  0  0  0  0
    7.1689   -0.1183   17.6600 N   0  0  0  0  0  0  0  0  0  0  0  0
    7.3882   -0.9721   18.6957 N   0  0  0  0  0  0  0  0  0  0  0  0
   10.3663    2.0429   23.6305 N   0  0  0  0  0  0  0  0  0  0  0  0
    6.9794   -1.6311   20.9268 N   0  0  0  0  0  0  0  0  0  0  0  0
    9.4155   -1.8862   22.5429 N   0  0  0  0  0  0  0  0  0  0  0  0
    9.0863    0.3444   22.0018 O   0  0  0  0  0  0  0  0  0  0  0  0
   12.2186    3.1610   22.2134 O   0  0  0  0  0  0  0  0  0  0  0  0
   12.5247    3.0308   24.7012 O   0  0  0  0  0  0  0  0  0  0  0  0
   14.9405   -1.4047   25.1282 F   0  0  0  0  0  0  0  0  0  0  0  0
   11.8231    0.6181   21.1148 F   0  0  0  0  0  0  0  0  0  0  0  0
   12.0300    2.4535   23.4661 S   0  0  0  0  0  0  0  0  0  0  0  0
    9.8295    1.9977   22.7505 H   0  0  0  0  0  0  0  0  0  0  0  0
    6.4904   -1.4513   21.7996 H   0  0  0  0  0  0  0  0  0  0  0  0
    9.6554   -2.5487   23.2731 H   0  0  0  0  0  0  0  0  0  0  0  0
  1  2  1  0  0  0  0
  1  4  2  0  0  0  0
  2  5  2  0  0  0  0
  3  8  2  0  0  0  0
  3 10  1  0  0  0  0
  4 11  1  0  0  0  0
  5 12  1  0  0  0  0
  6  7  2  0  0  0  0
  6 13  1  0  0  0  0
  7 14  1  0  0  0  0
  8 16  1  0  0  0  0
  9 13  2  0  0  0  0
  9 15  1  0  0  0  0
 10 20  2  0  0  0  0
 11 12  2  0  0  0  0
 11 17  1  0  0  0  0
 12 22  1  0  0  0  0
 13 28  1  0  0  0  0
 14 15  2  0  0  0  0
 14 29  1  0  0  0  0
 15 30  1  0  0  0  0
 16 21  2  0  0  0  0
 16 23  1  0  0  0  0
 17 24  1  0  0  0  0
 17 25  2  0  0  0  0
 18 19  1  0  0  0  0
 18 23  1  0  0  0  0
 19 24  1  0  0  0  0
 20 21  1  0  0  0  0
 22 30  1  0  0  0  0
 26 30  2  0  0  0  0
 27 30  2  0  0  0  0
 22 31  1  0  0  0  0
 23 32  1  0  0  0  0
 24 33  1  0  0  0  0
M  END
> <ref_mols>
x2836_0

> <original SMILES>
FC=1C=CC(F)=C(C1)S(=O)(=O)NC=2C=CC=CC2C(=O)NCCNC=3C=CC=NN3

> <Chemgauss4>
-8.764250

> <ref_pdb>
x0678_0

$$$$
x0280
  -OEChem-05172015543D

 17 18  0     0  0  0  0  0  0999 V2000
   10.7212    1.6460   24.6053 C   0  0  0  0  0  0  0  0  0  0  0  0
   12.6670    2.2961   23.3293 C   0  0  0  0  0  0  0  0  0  0  0  0
   10.2322    2.9497   24.5238 C   0  0  0  0  0  0  0  0  0  0  0  0
   12.1780    3.5999   23.2477 C   0  0  0  0  0  0  0  0  0  0  0  0
   11.9387    1.3192   24.0080 C   0  0  0  0  0  0  0  0  0  0  0  0
   10.9605    3.9267   23.8450 C   0  0  0  0  0  0  0  0  0  0  0  0
   12.4413   -0.0234   24.0915 C   0  0  0  0  0  0  0  0  0  0  0  0
   11.7605   -1.1139   23.5921 C   0  0  0  0  0  0  0  0  0  0  0  0
   13.8798   -1.5873   24.6346 C   0  0  0  0  0  0  0  0  0  0  0  0
   10.4564   -1.2005   22.9011 C   0  0  0  0  0  0  0  0  0  0  0  0
    9.5570    5.5334   22.5278 C   0  0  0  0  0  0  0  0  0  0  0  0
   10.4361    5.3200   23.7574 C   0  0  0  0  0  0  0  0  0  0  0  0
   13.6566   -0.2930   24.6901 N   0  0  0  0  0  0  0  0  0  0  0  0
   14.9890   -2.1961   25.1323 N   0  0  0  0  0  0  0  0  0  0  0  0
   12.6704   -2.5396   23.8761 S   0  0  0  0  0  0  0  0  0  0  0  0
   15.7566   -1.6591   25.5499 H   0  0  0  0  0  0  0  0  0  0  0  0
   15.1438   -3.2043   25.0250 H   0  0  0  0  0  0  0  0  0  0  0  0
  1  3  2  0  0  0  0
  1  5  1  0  0  0  0
  2  4  1  0  0  0  0
  2  5  2  0  0  0  0
  3  6  1  0  0  0  0
  4  6  2  0  0  0  0
  5  7  1  0  0  0  0
  6 12  1  0  0  0  0
  7  8  2  0  0  0  0
  7 13  1  0  0  0  0
  8 10  1  0  0  0  0
  8 15  1  0  0  0  0
  9 13  2  0  0  0  0
  9 14  1  0  0  0  0
  9 15  1  0  0  0  0
 11 12  1  0  0  0  0
 14 16  1  0  0  0  0
 14 17  1  0  0  0  0
M  END
> <ref_mols>
x0280_0

> <original SMILES>
CCC=1C=CC(=CC1)C=2N=C(N)SC2C

> <Chemgauss4>
-8.756579

> <ref_pdb>
x0161_0

$$$$
x2468
  -OEChem-05172015543D

 34 37  0     1  0  0  0  0  0999 V2000
    8.8976   -5.4989   26.1025 C   0  0  0  0  0  0  0  0  0  0  0  0
    9.3082   -4.8457   24.9458 C   0  0  0  0  0  0  0  0  0  0  0  0
    5.3990   -0.4204   21.3939 C   0  0  0  0  0  0  0  0  0  0  0  0
    5.8750   -1.6731   21.7917 C   0  0  0  0  0  0  0  0  0  0  0  0
   10.8968    0.5327   23.5326 C   0  0  0  0  0  0  0  0  0  0  0  0
   11.6700    1.6881   23.6449 C   0  0  0  0  0  0  0  0  0  0  0  0
   13.5121    0.5606   22.5621 C   0  0  0  0  0  0  0  0  0  0  0  0
    8.1037   -1.1144   21.0174 C   0  0  0  0  0  0  0  0  0  0  0  0
    7.5784   -5.3488   26.4986 C   0  0  0  0  0  0  0  0  0  0  0  0
    7.1028   -3.9873   24.7102 C   0  0  0  0  0  0  0  0  0  0  0  0
    7.0189    2.3607   19.8565 C   0  0  0  0  0  0  0  0  0  0  0  0
    8.3998   -4.0734   24.2305 C   0  0  0  0  0  0  0  0  0  0  0  0
   12.7389   -0.5949   22.4498 C   0  0  0  0  0  0  0  0  0  0  0  0
    6.2807    0.5070   20.7977 C   0  0  0  0  0  0  0  0  0  0  0  0
    7.2102   -2.0135   21.6049 C   0  0  0  0  0  0  0  0  0  0  0  0
   11.4312   -0.6089   22.9351 C   0  0  0  0  0  0  0  0  0  0  0  0
   12.9776    1.7021   23.1596 C   0  0  0  0  0  0  0  0  0  0  0  0
    7.6188    0.1421   20.6204 C   0  0  0  0  0  0  0  0  0  0  0  0
    7.0385   -6.8925   22.0545 C   0  0  0  0  0  0  0  0  0  0  0  0
    7.7634   -5.7720   21.9756 C   0  0  0  0  0  0  0  0  0  0  0  0
    7.1414   -4.5055   21.4896 C   0  0  0  0  0  0  0  0  0  0  0  0
    9.3194   -1.9415   23.2674 C   0  0  0  0  0  0  0  0  0  0  0  0
   13.3377   -1.8027   21.8053 C   0  0  0  0  0  0  0  0  0  0  0  0
   13.1229    3.9608   23.8899 C   0  0  0  0  0  0  0  0  0  0  0  0
    8.8153   -3.3510   22.9679 C   0  0  2  0  0  0  0  0  0  0  0  0
    6.6671   -4.6072   25.8298 N   0  0  0  0  0  0  0  0  0  0  0  0
    5.9527    1.7803   20.3555 N   0  0  0  0  0  0  0  0  0  0  0  0
   10.6314   -1.7718   22.8324 N   0  0  0  0  0  0  0  0  0  0  0  0
    7.6661   -3.2696   22.0089 N   0  0  0  0  0  0  0  0  0  0  0  0
    6.2016   -4.5713   20.6968 O   0  0  0  0  0  0  0  0  0  0  0  0
    8.6137   -1.1111   23.8337 O   0  0  0  0  0  0  0  0  0  0  0  0
   13.7320    2.8299   23.2687 O   0  0  0  0  0  0  0  0  0  0  0  0
    8.4654    1.4478   19.8778 S   0  0  0  0  0  0  0  0  0  0  0  0
   11.0658   -2.5784   22.3889 H   0  0  0  0  0  0  0  0  0  0  0  0
  1  2  2  0  0  0  0
  1  9  1  0  0  0  0
  2 12  1  0  0  0  0
  3  4  2  0  0  0  0
  3 14  1  0  0  0  0
  4 15  1  0  0  0  0
  5  6  2  0  0  0  0
  5 16  1  0  0  0  0
  6 17  1  0  0  0  0
  7 13  1  0  0  0  0
  7 17  2  0  0  0  0
  8 15  2  0  0  0  0
  8 18  1  0  0  0  0
  9 26  2  0  0  0  0
 10 12  2  0  0  0  0
 10 26  1  0  0  0  0
 11 27  2  0  0  0  0
 11 33  1  0  0  0  0
 12 25  1  0  0  0  0
 13 16  2  0  0  0  0
 13 23  1  0  0  0  0
 14 18  2  0  0  0  0
 14 27  1  0  0  0  0
 15 29  1  0  0  0  0
 16 28  1  0  0  0  0
 17 32  1  0  0  0  0
 18 33  1  0  0  0  0
 19 20  2  0  0  0  0
 20 21  1  0  0  0  0
 21 29  1  0  0  0  0
 21 30  2  0  0  0  0
 22 25  1  0  0  0  0
 22 28  1  0  0  0  0
 22 31  2  0  0  0  0
 24 32  1  0  0  0  0
 25 29  1  0  0  0  0
 28 34  1  0  0  0  0
M  END
> <ref_mols>
x2468_0

> <original SMILES>
COC=1C=CC(NC(=O)C(N(C(=O)C=C)C=2C=CC=3N=CSC3C2)C=4C=CC=NC4)=C(C)C1

> <Chemgauss4>
-8.756179

> <ref_pdb>
x0831_0

> <CYS145-warhead dist minimum (A)>
3.4047315

> <CYS145-warhead dist mean (A)>
5.202618

> <CYS145-warhead dist stddev (A)>
0.41799623

$$$$
x2636
  -OEChem-05172015543D

 34 37  0     1  0  0  0  0  0999 V2000
    8.8976   -5.4989   26.1025 C   0  0  0  0  0  0  0  0  0  0  0  0
    9.3082   -4.8457   24.9458 C   0  0  0  0  0  0  0  0  0  0  0  0
    5.3990   -0.4204   21.3939 C   0  0  0  0  0  0  0  0  0  0  0  0
    5.8750   -1.6731   21.7917 C   0  0  0  0  0  0  0  0  0  0  0  0
   10.8968    0.5327   23.5326 C   0  0  0  0  0  0  0  0  0  0  0  0
   11.6700    1.6881   23.6449 C   0  0  0  0  0  0  0  0  0  0  0  0
   13.5121    0.5606   22.5621 C   0  0  0  0  0  0  0  0  0  0  0  0
    8.1037   -1.1144   21.0174 C   0  0  0  0  0  0  0  0  0  0  0  0
    7.5784   -5.3488   26.4986 C   0  0  0  0  0  0  0  0  0  0  0  0
    7.1028   -3.9873   24.7102 C   0  0  0  0  0  0  0  0  0  0  0  0
    7.0189    2.3607   19.8565 C   0  0  0  0  0  0  0  0  0  0  0  0
    8.3998   -4.0734   24.2305 C   0  0  0  0  0  0  0  0  0  0  0  0
   12.7389   -0.5949   22.4498 C   0  0  0  0  0  0  0  0  0  0  0  0
    6.2807    0.5070   20.7977 C   0  0  0  0  0  0  0  0  0  0  0  0
    7.2102   -2.0135   21.6049 C   0  0  0  0  0  0  0  0  0  0  0  0
   11.4312   -0.6089   22.9351 C   0  0  0  0  0  0  0  0  0  0  0  0
   12.9776    1.7021   23.1596 C   0  0  0  0  0  0  0  0  0  0  0  0
    7.6188    0.1421   20.6204 C   0  0  0  0  0  0  0  0  0  0  0  0
    7.0385   -6.8925   22.0545 C   0  0  0  0  0  0  0  0  0  0  0  0
    7.7634   -5.7720   21.9756 C   0  0  0  0  0  0  0  0  0  0  0  0
    7.1414   -4.5055   21.4896 C   0  0  0  0  0  0  0  0  0  0  0  0
    9.3194   -1.9415   23.2674 C   0  0  0  0  0  0  0  0  0  0  0  0
   13.3377   -1.8027   21.8053 C   0  0  0  0  0  0  0  0  0  0  0  0
   13.1229    3.9608   23.8899 C   0  0  0  0  0  0  0  0  0  0  0  0
    8.8153   -3.3510   22.9679 C   0  0  2  0  0  0  0  0  0  0  0  0
    6.6671   -4.6072   25.8298 N   0  0  0  0  0  0  0  0  0  0  0  0
    5.9527    1.7803   20.3555 N   0  0  0  0  0  0  0  0  0  0  0  0
   10.6314   -1.7718   22.8324 N   0  0  0  0  0  0  0  0  0  0  0  0
    7.6661   -3.2696   22.0089 N   0  0  0  0  0  0  0  0  0  0  0  0
    6.2016   -4.5713   20.6968 O   0  0  0  0  0  0  0  0  0  0  0  0
    8.6137   -1.1111   23.8337 O   0  0  0  0  0  0  0  0  0  0  0  0
   13.7320    2.8299   23.2687 O   0  0  0  0  0  0  0  0  0  0  0  0
    8.4654    1.4478   19.8778 S   0  0  0  0  0  0  0  0  0  0  0  0
   11.0658   -2.5784   22.3889 H   0  0  0  0  0  0  0  0  0  0  0  0
  1  2  2  0  0  0  0
  1  9  1  0  0  0  0
  2 12  1  0  0  0  0
  3  4  2  0  0  0  0
  3 14  1  0  0  0  0
  4 15  1  0  0  0  0
  5  6  2  0  0  0  0
  5 16  1  0  0  0  0
  6 17  1  0  0  0  0
  7 13  1  0  0  0  0
  7 17  2  0  0  0  0
  8 15  2  0  0  0  0
  8 18  1  0  0  0  0
  9 26  2  0  0  0  0
 10 12  2  0  0  0  0
 10 26  1  0  0  0  0
 11 27  2  0  0  0  0
 11 33  1  0  0  0  0
 12 25  1  0  0  0  0
 13 16  2  0  0  0  0
 13 23  1  0  0  0  0
 14 18  2  0  0  0  0
 14 27  1  0  0  0  0
 15 29  1  0  0  0  0
 16 28  1  0  0  0  0
 17 32  1  0  0  0  0
 18 33  1  0  0  0  0
 19 20  2  0  0  0  0
 20 21  1  0  0  0  0
 21 29  1  0  0  0  0
 21 30  2  0  0  0  0
 22 25  1  0  0  0  0
 22 28  1  0  0  0  0
 22 31  2  0  0  0  0
 24 32  1  0  0  0  0
 25 29  1  0  0  0  0
 28 34  1  0  0  0  0
M  END
> <ref_mols>
x2636_0

> <original SMILES>
COC=1C=CC(NC(=O)C(N(C(=O)C=C)C=2C=CC=3N=CSC3C2)C=4C=CC=NC4)=C(C)C1

> <Chemgauss4>
-8.756179

> <ref_pdb>
x0831_0

$$$$
x0226
  -OEChem-05172015543D

 18 18  0     0  0  0  0  0  0999 V2000
   14.3078   -1.8902   22.7999 C   0  0  0  0  0  0  0  0  0  0  0  0
   14.3830   -1.1575   23.9843 C   0  0  0  0  0  0  0  0  0  0  0  0
   13.2638   -1.6615   21.9034 C   0  0  0  0  0  0  0  0  0  0  0  0
   13.4143   -0.1961   24.2725 C   0  0  0  0  0  0  0  0  0  0  0  0
   12.2951   -0.7002   22.1915 C   0  0  0  0  0  0  0  0  0  0  0  0
   12.3703    0.0325   23.3761 C   0  0  0  0  0  0  0  0  0  0  0  0
    9.9537   -0.0495   21.4606 C   0  0  0  0  0  0  0  0  0  0  0  0
   11.6625    2.3115   23.2435 C   0  0  0  0  0  0  0  0  0  0  0  0
    9.3095   -0.3284   22.6271 N   0  0  0  0  0  0  0  0  0  0  0  0
   11.2554   -0.4830   21.2843 N   0  0  0  0  0  0  0  0  0  0  0  0
   11.4340    0.9764   23.6769 O   0  0  0  0  0  0  0  0  0  0  0  0
   11.7681    2.3753   21.8993 F   0  0  0  0  0  0  0  0  0  0  0  0
   12.8281    2.7465   23.7739 F   0  0  0  0  0  0  0  0  0  0  0  0
   10.6804    3.1354   23.6665 F   0  0  0  0  0  0  0  0  0  0  0  0
    9.1456    0.7512   20.2276 S   0  0  0  0  0  0  0  0  0  0  0  0
    9.7979   -0.7911   23.3870 H   0  0  0  0  0  0  0  0  0  0  0  0
    8.3847    0.0199   22.8478 H   0  0  0  0  0  0  0  0  0  0  0  0
   11.4878   -0.6579   20.3005 H   0  0  0  0  0  0  0  0  0  0  0  0
  1  2  1  0  0  0  0
  1  3  2  0  0  0  0
  2  4  2  0  0  0  0
  3  5  1  0  0  0  0
  4  6  1  0  0  0  0
  5  6  2  0  0  0  0
  5 10  1  0  0  0  0
  6 11  1  0  0  0  0
  7  9  1  0  0  0  0
  7 10  1  0  0  0  0
  7 15  2  0  0  0  0
  8 11  1  0  0  0  0
  8 12  1  0  0  0  0
  8 13  1  0  0  0  0
  8 14  1  0  0  0  0
  9 16  1  0  0  0  0
  9 17  1  0  0  0  0
 10 18  1  0  0  0  0
M  END
> <ref_mols>
x0226_0

> <original SMILES>
NC(=S)NC=1C=CC=CC1OC(F)(F)F

> <Chemgauss4>
-8.755044

> <ref_pdb>
x0678_0

$$$$
x2567
  -OEChem-05172015543D

 22 24  0     0  0  0  0  0  0999 V2000
    9.7244    7.3841   25.1155 C   0  0  0  0  0  0  0  0  0  0  0  0
    9.3157    6.4153   24.1990 C   0  0  0  0  0  0  0  0  0  0  0  0
   11.0353    7.3842   25.5922 C   0  0  0  0  0  0  0  0  0  0  0  0
   10.2178    5.4465   23.7594 C   0  0  0  0  0  0  0  0  0  0  0  0
   11.9374    6.4155   25.1526 C   0  0  0  0  0  0  0  0  0  0  0  0
   11.5287    5.4465   24.2362 C   0  0  0  0  0  0  0  0  0  0  0  0
   12.4781    4.4268   23.7734 C   0  0  0  0  0  0  0  0  0  0  0  0
   11.3947   -0.9275   22.9827 C   0  0  0  0  0  0  0  0  0  0  0  0
    8.9451   -1.1857   22.9404 C   0  0  0  0  0  0  0  0  0  0  0  0
   10.4143   -3.0707   23.6997 C   0  0  0  0  0  0  0  0  0  0  0  0
   10.7746    2.5391   23.9750 C   0  0  0  0  0  0  0  0  0  0  0  0
   12.6183    2.4127   22.3443 C   0  0  0  0  0  0  0  0  0  0  0  0
   11.0943    1.1258   24.4560 C   0  0  0  0  0  0  0  0  0  0  0  0
   12.9413    0.9981   22.8163 C   0  0  0  0  0  0  0  0  0  0  0  0
    7.7609   -1.9892   23.4644 C   0  0  0  0  0  0  0  0  0  0  0  0
    9.1496   -3.7704   24.1829 C   0  0  0  0  0  0  0  0  0  0  0  0
   10.2151   -1.5601   23.6946 C   0  0  0  0  0  0  0  0  0  0  0  0
   11.9754    3.1749   23.4154 N   0  0  0  0  0  0  0  0  0  0  0  0
   11.7579    0.3538   23.3948 N   0  0  0  0  0  0  0  0  0  0  0  0
   13.6624    4.7582   23.7464 O   0  0  0  0  0  0  0  0  0  0  0  0
   11.9677   -1.5557   22.0888 O   0  0  0  0  0  0  0  0  0  0  0  0
    8.0262   -3.3901   23.3878 O   0  0  0  0  0  0  0  0  0  0  0  0
  1  2  1  0  0  0  0
  1  3  2  0  0  0  0
  2  4  2  0  0  0  0
  3  5  1  0  0  0  0
  4  6  1  0  0  0  0
  5  6  2  0  0  0  0
  6  7  1  0  0  0  0
  7 18  1  0  0  0  0
  7 20  2  0  0  0  0
  8 17  1  0  0  0  0
  8 19  1  0  0  0  0
  8 21  2  0  0  0  0
  9 15  1  0  0  0  0
  9 17  1  0  0  0  0
 10 16  1  0  0  0  0
 10 17  1  0  0  0  0
 11 13  1  0  0  0  0
 11 18  1  0  0  0  0
 12 14  1  0  0  0  0
 12 18  1  0  0  0  0
 13 19  1  0  0  0  0
 14 19  1  0  0  0  0
 15 22  1  0  0  0  0
 16 22  1  0  0  0  0
M  END
> <ref_mols>
x2567_0

> <original SMILES>
O=C(C1CCOCC1)N2CCN(CC2)C(=O)C=3C=CC=CC3

> <Chemgauss4>
-8.754841

> <ref_pdb>
x0946_0

$$$$
x0587
  -OEChem-05172015543D

 16 17  0     1  0  0  0  0  0999 V2000
    8.7357    0.4901   19.6261 C   0  0  0  0  0  0  0  0  0  0  0  0
    7.3756    0.6037   19.8337 C   0  0  0  0  0  0  0  0  0  0  0  0
    9.5283   -1.2410   22.1394 C   0  0  0  0  0  0  0  0  0  0  0  0
   11.9300   -0.7596   23.1445 C   0  0  0  0  0  0  0  0  0  0  0  0
   11.8521   -0.3225   21.6832 C   0  0  1  0  0  0  0  0  0  0  0  0
   10.2786   -2.4473   22.6932 C   0  0  2  0  0  0  0  0  0  0  0  0
   12.8179   -1.0976   20.7896 C   0  0  0  0  0  0  0  0  0  0  0  0
    9.4215   -3.2049   23.6989 C   0  0  0  0  0  0  0  0  0  0  0  0
    9.8146    0.7335   20.6398 C   0  0  0  0  0  0  0  0  0  0  0  0
    9.1147    0.1086   18.3487 N   0  0  0  0  0  0  0  0  0  0  0  0
    8.0641   -0.0745   17.5649 N   0  0  0  0  0  0  0  0  0  0  0  0
   10.4352   -0.5356   21.1562 N   0  3  2  0  0  0  0  0  0  0  0  0
   11.5052   -2.1037   23.3450 O   0  0  0  0  0  0  0  0  0  0  0  0
    6.6111    0.2082   18.3492 S   0  0  0  0  0  0  0  0  0  0  0  0
    6.4892    1.0337   21.2219 Cl  0  0  0  0  0  0  0  0  0  0  0  0
   10.5219   -1.1613   20.3185 H   0  0  0  0  0  0  0  0  0  0  0  0
  1  2  2  0  0  0  0
  1  9  1  0  0  0  0
  1 10  1  0  0  0  0
  2 14  1  0  0  0  0
  2 15  1  0  0  0  0
  3  6  1  0  0  0  0
  3 12  1  0  0  0  0
  4  5  1  0  0  0  0
  4 13  1  0  0  0  0
  5  7  1  0  0  0  0
  5 12  1  0  0  0  0
  6  8  1  0  0  0  0
  6 13  1  0  0  0  0
  9 12  1  0  0  0  0
 10 11  2  0  0  0  0
 11 14  1  0  0  0  0
 12 16  1  0  0  0  0
M  CHG  1  12   1
M  END
> <ref_mols>
x0587_0

> <original SMILES>
CC1CN(CC=2N=NSC2Cl)C(C)CO1

> <Chemgauss4>
-8.754675

> <ref_pdb>
x0678_0

$$$$
x1213
  -OEChem-05172015543D

 16 17  0     1  0  0  0  0  0999 V2000
   12.6121   -1.4693   23.0056 C   0  0  0  0  0  0  0  0  0  0  0  0
   13.9714   -1.3929   22.7166 C   0  0  0  0  0  0  0  0  0  0  0  0
   11.8291   -0.3172   22.9728 C   0  0  0  0  0  0  0  0  0  0  0  0
   14.5478   -0.1656   22.3851 C   0  0  0  0  0  0  0  0  0  0  0  0
   12.4038    0.9213   22.6539 C   0  0  0  0  0  0  0  0  0  0  0  0
   13.7736    1.0025   22.3316 C   0  0  0  0  0  0  0  0  0  0  0  0
   10.8798    5.2348   23.5626 C   0  0  0  0  0  0  0  0  0  0  0  0
   11.5393    2.1582   22.6166 C   0  0  0  0  0  0  0  0  0  0  0  0
   13.5552    3.3917   21.7779 C   0  0  0  0  0  0  0  0  0  0  0  0
   12.3812    3.4312   22.7559 C   0  0  1  0  0  0  0  0  0  0  0  0
   10.1069    6.4322   23.1186 C   0  0  0  0  0  0  0  0  0  0  0  0
   14.3714    2.2163   22.0134 N   0  0  0  0  0  0  0  0  0  0  0  0
   11.5703    4.6046   22.5464 N   0  0  0  0  0  0  0  0  0  0  0  0
   10.8557    4.9035   24.7422 O   0  0  0  0  0  0  0  0  0  0  0  0
   15.3634    2.3311   22.1750 H   0  0  0  0  0  0  0  0  0  0  0  0
   11.5038    4.9852   21.6081 H   0  0  0  0  0  0  0  0  0  0  0  0
  1  2  1  0  0  0  0
  1  3  2  0  0  0  0
  2  4  2  0  0  0  0
  3  5  1  0  0  0  0
  4  6  1  0  0  0  0
  5  6  2  0  0  0  0
  5  8  1  0  0  0  0
  6 12  1  0  0  0  0
  7 11  1  0  0  0  0
  7 13  1  0  0  0  0
  7 14  2  0  0  0  0
  8 10  1  0  0  0  0
  9 10  1  0  0  0  0
  9 12  1  0  0  0  0
 10 13  1  0  0  0  0
 12 15  1  0  0  0  0
 13 16  1  0  0  0  0
M  END
> <ref_mols>
x1213_0

> <original SMILES>
CC(=O)NC1CNC=2C=CC=CC2C1

> <Chemgauss4>
-8.753743

> <ref_pdb>
x0195_0

$$$$
x0520
  -OEChem-05172015543D

 15 16  0     0  0  0  0  0  0999 V2000
   12.7281   -0.1961   24.4668 C   0  0  0  0  0  0  0  0  0  0  0  0
   11.5553   -0.3636   23.7307 C   0  0  0  0  0  0  0  0  0  0  0  0
   13.9263   -0.7394   24.0031 C   0  0  0  0  0  0  0  0  0  0  0  0
   12.7786   -1.6179   22.0671 C   0  0  0  0  0  0  0  0  0  0  0  0
   11.5805   -1.0745   22.5309 C   0  0  0  0  0  0  0  0  0  0  0  0
   13.9515   -1.4503   22.8033 C   0  0  0  0  0  0  0  0  0  0  0  0
   10.8903    0.9793   20.7061 C   0  0  0  0  0  0  0  0  0  0  0  0
    8.8792   -0.2584   19.9175 C   0  0  0  0  0  0  0  0  0  0  0  0
    9.9485    1.8825   21.4846 C   0  0  0  0  0  0  0  0  0  0  0  0
    8.0427    0.7095   20.7374 C   0  0  0  0  0  0  0  0  0  0  0  0
   10.3183   -1.2540   21.7399 C   0  0  0  0  0  0  0  0  0  0  0  0
   10.2595   -0.3798   20.5178 N   0  3  0  0  0  0  0  0  0  0  0  0
    8.6868    1.9810   20.8235 O   0  0  0  0  0  0  0  0  0  0  0  0
   15.1018   -1.9725   22.3581 F   0  0  0  0  0  0  0  0  0  0  0  0
   10.8482   -0.8739   19.7913 H   0  0  0  0  0  0  0  0  0  0  0  0
  1  2  1  0  0  0  0
  1  3  2  0  0  0  0
  2  5  2  0  0  0  0
  3  6  1  0  0  0  0
  4  5  1  0  0  0  0
  4  6  2  0  0  0  0
  5 11  1  0  0  0  0
  6 14  1  0  0  0  0
  7  9  1  0  0  0  0
  7 12  1  0  0  0  0
  8 10  1  0  0  0  0
  8 12  1  0  0  0  0
  9 13  1  0  0  0  0
 10 13  1  0  0  0  0
 11 12  1  0  0  0  0
 12 15  1  0  0  0  0
M  CHG  1  12   1
M  END
> <ref_mols>
x0520_0

> <original SMILES>
FC=1C=CC=C(CN2CCOCC2)C1

> <Chemgauss4>
-8.740264

> <ref_pdb>
x0678_0

$$$$
x1119
  -OEChem-05172015543D

 20 21  0     0  0  0  0  0  0999 V2000
    7.0189    0.2608   18.6136 C   0  0  0  0  0  0  0  0  0  0  0  0
    5.9527    0.3297   19.5034 C   0  0  0  0  0  0  0  0  0  0  0  0
   12.6057   -0.5076   24.6426 C   0  0  0  0  0  0  0  0  0  0  0  0
   13.6779   -2.0369   23.1100 C   0  0  0  0  0  0  0  0  0  0  0  0
   11.3777   -0.7530   24.0284 C   0  0  0  0  0  0  0  0  0  0  0  0
   12.4498   -2.2823   22.4958 C   0  0  0  0  0  0  0  0  0  0  0  0
    8.2806   -0.0974   19.0755 C   0  0  0  0  0  0  0  0  0  0  0  0
    6.1986    0.0333   20.8344 C   0  0  0  0  0  0  0  0  0  0  0  0
   13.7559   -1.1495   24.1834 C   0  0  0  0  0  0  0  0  0  0  0  0
   11.2997   -1.6404   22.9551 C   0  0  0  0  0  0  0  0  0  0  0  0
    8.4222   -0.3745   20.4256 C   0  0  0  0  0  0  0  0  0  0  0  0
    7.4102   -0.3183   21.3202 N   0  0  0  0  0  0  0  0  0  0  0  0
   14.9979   -0.9016   24.8041 N   0  0  0  0  0  0  0  0  0  0  0  0
    9.7084   -0.7486   20.9493 N   0  0  0  0  0  0  0  0  0  0  0  0
    8.7138   -1.6490   23.1527 O   0  0  0  0  0  0  0  0  0  0  0  0
    9.8020   -3.2725   21.5781 O   0  0  0  0  0  0  0  0  0  0  0  0
    9.7631   -1.9477   22.1852 S   0  0  0  0  0  0  0  0  0  0  0  0
   15.0490   -0.2283   25.5416 H   0  0  0  0  0  0  0  0  0  0  0  0
   15.8218   -1.3319   24.4353 H   0  0  0  0  0  0  0  0  0  0  0  0
   10.4634   -0.7847   20.2518 H   0  0  0  0  0  0  0  0  0  0  0  0
  1  2  1  0  0  0  0
  1  7  2  0  0  0  0
  2  8  2  0  0  0  0
  3  5  2  0  0  0  0
  3  9  1  0  0  0  0
  4  6  1  0  0  0  0
  4  9  2  0  0  0  0
  5 10  1  0  0  0  0
  6 10  2  0  0  0  0
  7 11  1  0  0  0  0
  8 12  1  0  0  0  0
  9 13  1  0  0  0  0
 10 17  1  0  0  0  0
 11 12  2  0  0  0  0
 11 14  1  0  0  0  0
 14 17  1  0  0  0  0
 15 17  2  0  0  0  0
 16 17  2  0  0  0  0
 13 18  1  0  0  0  0
 13 19  1  0  0  0  0
 14 20  1  0  0  0  0
M  END
> <ref_mols>
x1119_0

> <original SMILES>
NC=1C=CC(=CC1)S(=O)(=O)NC=2C=CC=CN2

> <Chemgauss4>
-8.735435

> <ref_pdb>
x0678_0

$$$$
x0108
  -OEChem-05172015543D

 20 21  0     0  0  0  0  0  0999 V2000
    7.0189    0.2608   18.6136 C   0  0  0  0  0  0  0  0  0  0  0  0
    5.9527    0.3297   19.5034 C   0  0  0  0  0  0  0  0  0  0  0  0
   12.6057   -0.5076   24.6426 C   0  0  0  0  0  0  0  0  0  0  0  0
   13.6779   -2.0369   23.1100 C   0  0  0  0  0  0  0  0  0  0  0  0
   11.3777   -0.7530   24.0284 C   0  0  0  0  0  0  0  0  0  0  0  0
   12.4498   -2.2823   22.4958 C   0  0  0  0  0  0  0  0  0  0  0  0
    8.2806   -0.0974   19.0755 C   0  0  0  0  0  0  0  0  0  0  0  0
    6.1986    0.0333   20.8344 C   0  0  0  0  0  0  0  0  0  0  0  0
   13.7559   -1.1495   24.1834 C   0  0  0  0  0  0  0  0  0  0  0  0
   11.2997   -1.6404   22.9551 C   0  0  0  0  0  0  0  0  0  0  0  0
    8.4222   -0.3745   20.4256 C   0  0  0  0  0  0  0  0  0  0  0  0
    7.4102   -0.3183   21.3202 N   0  0  0  0  0  0  0  0  0  0  0  0
   14.9979   -0.9016   24.8041 N   0  0  0  0  0  0  0  0  0  0  0  0
    9.7084   -0.7486   20.9493 N   0  0  0  0  0  0  0  0  0  0  0  0
    8.7138   -1.6490   23.1527 O   0  0  0  0  0  0  0  0  0  0  0  0
    9.8020   -3.2725   21.5781 O   0  0  0  0  0  0  0  0  0  0  0  0
    9.7631   -1.9477   22.1852 S   0  0  0  0  0  0  0  0  0  0  0  0
   15.0490   -0.2283   25.5416 H   0  0  0  0  0  0  0  0  0  0  0  0
   15.8218   -1.3319   24.4353 H   0  0  0  0  0  0  0  0  0  0  0  0
   10.4634   -0.7847   20.2518 H   0  0  0  0  0  0  0  0  0  0  0  0
  1  2  1  0  0  0  0
  1  7  2  0  0  0  0
  2  8  2  0  0  0  0
  3  5  2  0  0  0  0
  3  9  1  0  0  0  0
  4  6  1  0  0  0  0
  4  9  2  0  0  0  0
  5 10  1  0  0  0  0
  6 10  2  0  0  0  0
  7 11  1  0  0  0  0
  8 12  1  0  0  0  0
  9 13  1  0  0  0  0
 10 17  1  0  0  0  0
 11 12  2  0  0  0  0
 11 14  1  0  0  0  0
 14 17  1  0  0  0  0
 15 17  2  0  0  0  0
 16 17  2  0  0  0  0
 13 18  1  0  0  0  0
 13 19  1  0  0  0  0
 14 20  1  0  0  0  0
M  END
> <ref_mols>
x0108_0

> <original SMILES>
NC=1C=CC(=CC1)S(=O)(=O)NC=2C=CC=CN2

> <Chemgauss4>
-8.735435

> <ref_pdb>
x0678_0

$$$$
x2819
  -OEChem-05172015543D

 22 23  0     0  0  0  0  0  0999 V2000
   12.9343    2.1353   22.8541 C   0  0  0  0  0  0  0  0  0  0  0  0
   11.4266    1.3839   24.5860 C   0  0  0  0  0  0  0  0  0  0  0  0
   12.2793    3.3663   22.8180 C   0  0  0  0  0  0  0  0  0  0  0  0
   10.7717    2.6149   24.5500 C   0  0  0  0  0  0  0  0  0  0  0  0
   12.5079    1.1440   23.7381 C   0  0  0  0  0  0  0  0  0  0  0  0
   11.1981    3.6061   23.6660 C   0  0  0  0  0  0  0  0  0  0  0  0
   12.2156   -2.0838   22.7301 C   0  0  0  0  0  0  0  0  0  0  0  0
   12.4046   -1.8786   25.2466 C   0  0  0  0  0  0  0  0  0  0  0  0
   13.2434   -0.9588   22.6024 C   0  0  0  0  0  0  0  0  0  0  0  0
   13.4265   -0.7534   25.0521 C   0  0  0  0  0  0  0  0  0  0  0  0
   12.3998   -2.8490   24.0525 C   0  0  0  0  0  0  0  0  0  0  0  0
    7.2033   -4.2867   24.4667 C   0  0  0  0  0  0  0  0  0  0  0  0
   11.3157   -3.9109   24.2204 C   0  0  0  0  0  0  0  0  0  0  0  0
    8.6795   -4.6336   24.4298 C   0  0  0  0  0  0  0  0  0  0  0  0
   13.1607   -0.0837   23.7744 N   0  0  0  0  0  0  0  0  0  0  0  0
    9.1765    4.8413   22.4443 N   0  0  0  0  0  0  0  0  0  0  0  0
    9.7302    5.3599   24.9081 O   0  0  0  0  0  0  0  0  0  0  0  0
   11.2986    6.1466   23.1000 O   0  0  0  0  0  0  0  0  0  0  0  0
    9.6778   -3.1406   24.2201 S   0  0  0  0  0  0  0  0  0  0  0  0
   10.3772    5.1464   23.6211 S   0  0  0  0  0  0  0  0  0  0  0  0
    8.2029    4.7547   22.7605 H   0  0  0  0  0  0  0  0  0  0  0  0
    9.2764    5.2908   21.5260 H   0  0  0  0  0  0  0  0  0  0  0  0
  1  3  2  0  0  0  0
  1  5  1  0  0  0  0
  2  4  1  0  0  0  0
  2  5  2  0  0  0  0
  3  6  1  0  0  0  0
  4  6  2  0  0  0  0
  5 15  1  0  0  0  0
  6 20  1  0  0  0  0
  7  9  1  0  0  0  0
  7 11  1  0  0  0  0
  8 10  1  0  0  0  0
  8 11  1  0  0  0  0
  9 15  1  0  0  0  0
 10 15  1  0  0  0  0
 11 13  1  0  0  0  0
 12 14  1  0  0  0  0
 13 19  1  0  0  0  0
 14 19  1  0  0  0  0
 16 20  1  0  0  0  0
 17 20  2  0  0  0  0
 18 20  2  0  0  0  0
 16 21  1  0  0  0  0
 16 22  1  0  0  0  0
M  END
> <ref_mols>
x2819_0

> <original SMILES>
CCSCC1CCN(CC1)C=2C=CC(=CC2)S(=O)(=O)N

> <Chemgauss4>
-8.731390

> <ref_pdb>
x0161_0

$$$$
x2562
  -OEChem-05172015543D

 24 26  0     1  0  0  0  0  0999 V2000
   13.2144   -2.1014   22.3498 C   0  0  0  0  0  0  0  0  0  0  0  0
   11.9316   -2.2845   21.8338 C   0  0  0  0  0  0  0  0  0  0  0  0
   13.5480   -0.9028   22.9805 C   0  0  0  0  0  0  0  0  0  0  0  0
   11.3159   -0.0703   22.5790 C   0  0  0  0  0  0  0  0  0  0  0  0
    5.9858    0.6511   19.7123 C   0  0  0  0  0  0  0  0  0  0  0  0
    7.3748   -0.5992   18.3109 C   0  0  0  0  0  0  0  0  0  0  0  0
    6.0588    1.0559   17.4767 C   0  0  0  0  0  0  0  0  0  0  0  0
    6.9147   -0.3621   19.5901 C   0  0  0  0  0  0  0  0  0  0  0  0
   10.9823   -1.2690   21.9484 C   0  0  0  0  0  0  0  0  0  0  0  0
   12.5988    0.1127   23.0951 C   0  0  0  0  0  0  0  0  0  0  0  0
   12.5433    4.4397   23.6085 C   0  0  0  0  0  0  0  0  0  0  0  0
    8.6183   -0.5553   21.4511 C   0  0  0  0  0  0  0  0  0  0  0  0
   11.5627    3.3370   23.1779 C   0  0  0  0  0  0  0  0  0  0  0  0
   12.8210    2.4750   22.9339 C   0  0  1  0  0  0  0  0  0  0  0  0
    7.3960   -1.1569   20.7756 C   0  0  0  0  0  0  0  0  0  0  0  0
    5.5340    1.3831   18.6729 N   0  0  0  0  0  0  0  0  0  0  0  0
    6.9668    0.0931   17.2271 N   0  0  0  0  0  0  0  0  0  0  0  0
   13.6026    3.6174   23.3917 N   0  0  0  0  0  0  0  0  0  0  0  0
    9.6990   -1.4526   21.4323 N   0  0  0  0  0  0  0  0  0  0  0  0
   12.4620    5.5834   23.9929 O   0  0  0  0  0  0  0  0  0  0  0  0
    8.6111    0.5715   21.9364 O   0  0  0  0  0  0  0  0  0  0  0  0
   12.9243    1.2825   23.7103 O   0  0  0  0  0  0  0  0  0  0  0  0
   14.5935    3.7844   23.4997 H   0  0  0  0  0  0  0  0  0  0  0  0
    9.5222   -2.3580   20.9818 H   0  0  0  0  0  0  0  0  0  0  0  0
  1  2  2  0  0  0  0
  1  3  1  0  0  0  0
  2  9  1  0  0  0  0
  3 10  2  0  0  0  0
  4  9  2  0  0  0  0
  4 10  1  0  0  0  0
  5  8  1  0  0  0  0
  5 16  2  0  0  0  0
  6  8  2  0  0  0  0
  6 17  1  0  0  0  0
  7 16  1  0  0  0  0
  7 17  2  0  0  0  0
  8 15  1  0  0  0  0
  9 19  1  0  0  0  0
 10 22  1  0  0  0  0
 11 13  1  0  0  0  0
 11 18  1  0  0  0  0
 11 20  2  0  0  0  0
 12 15  1  0  0  0  0
 12 19  1  0  0  0  0
 12 21  2  0  0  0  0
 13 14  1  0  0  0  0
 14 18  1  0  0  0  0
 14 22  1  0  0  0  0
 18 23  1  0  0  0  0
 19 24  1  0  0  0  0
M  END
> <ref_mols>
x2562_0

> <original SMILES>
O=C(CC=1C=NC=NC1)NC=2C=CC=C(OC3CC(=O)N3)C2

> <Chemgauss4>
-8.729742

> <ref_pdb>
x0678_0

$$$$
x0485
  -OEChem-05172015543D

 15 16  0     0  0  0  0  0  0999 V2000
    5.5013    0.6477   18.8367 C   0  0  0  0  0  0  0  0  0  0  0  0
    6.3925    0.4440   17.8029 C   0  0  0  0  0  0  0  0  0  0  0  0
    6.0266    0.5380   20.1080 C   0  0  0  0  0  0  0  0  0  0  0  0
    8.0886    0.0755   19.2707 C   0  0  0  0  0  0  0  0  0  0  0  0
   11.6680   -2.2916   22.7793 C   0  0  0  0  0  0  0  0  0  0  0  0
   12.5797   -1.0715   22.8620 C   0  0  0  0  0  0  0  0  0  0  0  0
   10.1742   -1.9849   22.8016 C   0  0  0  0  0  0  0  0  0  0  0  0
   12.1380    0.1785   22.1077 C   0  0  0  0  0  0  0  0  0  0  0  0
    9.6108   -1.6917   21.4118 C   0  0  0  0  0  0  0  0  0  0  0  0
   11.5096   -0.0760   20.7406 C   0  0  0  0  0  0  0  0  0  0  0  0
   10.0002   -0.3369   20.8160 C   0  0  0  0  0  0  0  0  0  0  0  0
    7.6978    0.1551   17.9845 N   0  0  0  0  0  0  0  0  0  0  0  0
    7.3203    0.2519   20.3626 N   0  0  0  0  0  0  0  0  0  0  0  0
    9.4199   -0.2175   19.4940 N   0  0  0  0  0  0  0  0  0  0  0  0
   10.0287   -0.3562   18.6999 H   0  0  0  0  0  0  0  0  0  0  0  0
  1  2  1  0  0  0  0
  1  3  2  0  0  0  0
  2 12  2  0  0  0  0
  3 13  1  0  0  0  0
  4 12  1  0  0  0  0
  4 13  2  0  0  0  0
  4 14  1  0  0  0  0
  5  6  1  0  0  0  0
  5  7  1  0  0  0  0
  6  8  1  0  0  0  0
  7  9  1  0  0  0  0
  8 10  1  0  0  0  0
  9 11  1  0  0  0  0
 10 11  1  0  0  0  0
 11 14  1  0  0  0  0
 14 15  1  0  0  0  0
M  END
> <ref_mols>
x0485_0

> <original SMILES>
C1CCCC(CC1)NC=2N=CC=CN2

> <Chemgauss4>
-8.728378

> <ref_pdb>
x0678_0

$$$$
x1110
  -OEChem-05172015543D

 16 17  0     0  0  0  0  0  0999 V2000
    8.6511   -4.6995   24.0897 C   0  0  0  0  0  0  0  0  0  0  0  0
   14.0856   -0.8745   24.8010 C   0  0  0  0  0  0  0  0  0  0  0  0
   14.0752   -1.9350   25.8975 C   0  0  0  0  0  0  0  0  0  0  0  0
   12.6727   -0.4266   24.4403 C   0  0  0  0  0  0  0  0  0  0  0  0
   13.1897   -3.1219   25.5249 C   0  0  0  0  0  0  0  0  0  0  0  0
   11.7846   -1.6109   24.0655 C   0  0  0  0  0  0  0  0  0  0  0  0
    7.8280   -5.9536   22.1223 C   0  0  0  0  0  0  0  0  0  0  0  0
    7.7451   -3.4961   22.0417 C   0  0  0  0  0  0  0  0  0  0  0  0
    6.4319   -5.9717   21.5165 C   0  0  0  0  0  0  0  0  0  0  0  0
    6.3534   -3.6169   21.4338 C   0  0  0  0  0  0  0  0  0  0  0  0
   11.7647   -2.6761   25.1700 C   0  0  0  0  0  0  0  0  0  0  0  0
    9.4710   -3.4879   24.4549 C   0  0  0  0  0  0  0  0  0  0  0  0
   10.9140   -3.8732   24.7497 C   0  0  0  0  0  0  0  0  0  0  0  0
    8.0614   -4.6934   22.8276 N   0  0  0  0  0  0  0  0  0  0  0  0
    8.5359   -5.6199   24.9029 O   0  0  0  0  0  0  0  0  0  0  0  0
    6.2414   -4.8273   20.6805 O   0  0  0  0  0  0  0  0  0  0  0  0
  1 12  1  0  0  0  0
  1 14  1  0  0  0  0
  1 15  2  0  0  0  0
  2  3  1  0  0  0  0
  2  4  1  0  0  0  0
  3  5  1  0  0  0  0
  4  6  1  0  0  0  0
  5 11  1  0  0  0  0
  6 11  1  0  0  0  0
  7  9  1  0  0  0  0
  7 14  1  0  0  0  0
  8 10  1  0  0  0  0
  8 14  1  0  0  0  0
  9 16  1  0  0  0  0
 10 16  1  0  0  0  0
 11 13  1  0  0  0  0
 12 13  1  0  0  0  0
M  END
> <ref_mols>
x1110_0

> <original SMILES>
O=C(CCC1CCCCC1)N2CCOCC2

> <Chemgauss4>
-8.724532

> <ref_pdb>
x0749_0

$$$$
x0565
  -OEChem-05172015543D

 16 17  0     0  0  0  0  0  0999 V2000
    8.6511   -4.6995   24.0897 C   0  0  0  0  0  0  0  0  0  0  0  0
   14.0856   -0.8745   24.8010 C   0  0  0  0  0  0  0  0  0  0  0  0
   14.0752   -1.9350   25.8975 C   0  0  0  0  0  0  0  0  0  0  0  0
   12.6727   -0.4266   24.4403 C   0  0  0  0  0  0  0  0  0  0  0  0
   13.1897   -3.1219   25.5249 C   0  0  0  0  0  0  0  0  0  0  0  0
   11.7846   -1.6109   24.0655 C   0  0  0  0  0  0  0  0  0  0  0  0
    7.8280   -5.9536   22.1223 C   0  0  0  0  0  0  0  0  0  0  0  0
    7.7451   -3.4961   22.0417 C   0  0  0  0  0  0  0  0  0  0  0  0
    6.4319   -5.9717   21.5165 C   0  0  0  0  0  0  0  0  0  0  0  0
    6.3534   -3.6169   21.4338 C   0  0  0  0  0  0  0  0  0  0  0  0
   11.7647   -2.6761   25.1700 C   0  0  0  0  0  0  0  0  0  0  0  0
    9.4710   -3.4879   24.4549 C   0  0  0  0  0  0  0  0  0  0  0  0
   10.9140   -3.8732   24.7497 C   0  0  0  0  0  0  0  0  0  0  0  0
    8.0614   -4.6934   22.8276 N   0  0  0  0  0  0  0  0  0  0  0  0
    8.5359   -5.6199   24.9029 O   0  0  0  0  0  0  0  0  0  0  0  0
    6.2414   -4.8273   20.6805 O   0  0  0  0  0  0  0  0  0  0  0  0
  1 12  1  0  0  0  0
  1 14  1  0  0  0  0
  1 15  2  0  0  0  0
  2  3  1  0  0  0  0
  2  4  1  0  0  0  0
  3  5  1  0  0  0  0
  4  6  1  0  0  0  0
  5 11  1  0  0  0  0
  6 11  1  0  0  0  0
  7  9  1  0  0  0  0
  7 14  1  0  0  0  0
  8 10  1  0  0  0  0
  8 14  1  0  0  0  0
  9 16  1  0  0  0  0
 10 16  1  0  0  0  0
 11 13  1  0  0  0  0
 12 13  1  0  0  0  0
M  END
> <ref_mols>
x0565_0

> <original SMILES>
O=C(CCC1CCCCC1)N2CCOCC2

> <Chemgauss4>
-8.724532

> <ref_pdb>
x0749_0

$$$$
x2666
  -OEChem-05172015543D

 20 21  0     0  0  0  0  0  0999 V2000
   13.9871   -0.9539   22.1430 C   0  0  0  0  0  0  0  0  0  0  0  0
   13.2656   -2.0473   22.6221 C   0  0  0  0  0  0  0  0  0  0  0  0
   13.5329    0.3423   22.3864 C   0  0  0  0  0  0  0  0  0  0  0  0
    9.9016    5.7095   23.4150 C   0  0  0  0  0  0  0  0  0  0  0  0
   12.0897   -1.8444   23.3445 C   0  0  0  0  0  0  0  0  0  0  0  0
   10.5884    6.6206   24.2174 C   0  0  0  0  0  0  0  0  0  0  0  0
   12.5395    5.1967   24.1641 C   0  0  0  0  0  0  0  0  0  0  0  0
   11.8527    4.2856   23.3617 C   0  0  0  0  0  0  0  0  0  0  0  0
   12.3570    0.5451   23.1088 C   0  0  0  0  0  0  0  0  0  0  0  0
   10.5338    4.5420   22.9872 C   0  0  0  0  0  0  0  0  0  0  0  0
   11.9074    6.3642   24.5919 C   0  0  0  0  0  0  0  0  0  0  0  0
   11.6354   -0.5482   23.5878 C   0  0  0  0  0  0  0  0  0  0  0  0
   12.5300    3.0716   22.9278 C   0  0  0  0  0  0  0  0  0  0  0  0
   11.9236    1.8753   23.3383 N   0  0  0  0  0  0  0  0  0  0  0  0
   13.5812    3.1124   22.2755 O   0  0  0  0  0  0  0  0  0  0  0  0
    9.8452    3.6631   22.2055 O   0  0  0  0  0  0  0  0  0  0  0  0
   12.7554    7.4894   25.5802 Cl  0  0  0  0  0  0  0  0  0  0  0  0
   10.1724   -0.3431   24.4839 Cl  0  0  0  0  0  0  0  0  0  0  0  0
   11.0618    1.9750   23.8692 H   0  0  0  0  0  0  0  0  0  0  0  0
   10.4047    2.9022   21.9850 H   0  0  0  0  0  0  0  0  0  0  0  0
  1  2  1  0  0  0  0
  1  3  2  0  0  0  0
  2  5  2  0  0  0  0
  3  9  1  0  0  0  0
  4  6  2  0  0  0  0
  4 10  1  0  0  0  0
  5 12  1  0  0  0  0
  6 11  1  0  0  0  0
  7  8  1  0  0  0  0
  7 11  2  0  0  0  0
  8 10  2  0  0  0  0
  8 13  1  0  0  0  0
  9 12  2  0  0  0  0
  9 14  1  0  0  0  0
 10 16  1  0  0  0  0
 11 17  1  0  0  0  0
 12 18  1  0  0  0  0
 13 14  1  0  0  0  0
 13 15  2  0  0  0  0
 14 19  1  0  0  0  0
 16 20  1  0  0  0  0
M  END
> <ref_mols>
x2666_0

> <original SMILES>
OC=1C=CC(Cl)=CC1C(=O)NC=2C=CC=CC2Cl

> <Chemgauss4>
-8.723997

> <ref_pdb>
x0195_0

$$$$
x2498
  -OEChem-05172015543D

 20 21  0     0  0  0  0  0  0999 V2000
   13.9871   -0.9539   22.1430 C   0  0  0  0  0  0  0  0  0  0  0  0
   13.2656   -2.0473   22.6221 C   0  0  0  0  0  0  0  0  0  0  0  0
   13.5329    0.3423   22.3864 C   0  0  0  0  0  0  0  0  0  0  0  0
    9.9016    5.7095   23.4150 C   0  0  0  0  0  0  0  0  0  0  0  0
   12.0897   -1.8444   23.3445 C   0  0  0  0  0  0  0  0  0  0  0  0
   10.5884    6.6206   24.2174 C   0  0  0  0  0  0  0  0  0  0  0  0
   12.5395    5.1967   24.1641 C   0  0  0  0  0  0  0  0  0  0  0  0
   11.8527    4.2856   23.3617 C   0  0  0  0  0  0  0  0  0  0  0  0
   12.3570    0.5451   23.1088 C   0  0  0  0  0  0  0  0  0  0  0  0
   10.5338    4.5420   22.9872 C   0  0  0  0  0  0  0  0  0  0  0  0
   11.9074    6.3642   24.5919 C   0  0  0  0  0  0  0  0  0  0  0  0
   11.6354   -0.5482   23.5878 C   0  0  0  0  0  0  0  0  0  0  0  0
   12.5300    3.0716   22.9278 C   0  0  0  0  0  0  0  0  0  0  0  0
   11.9236    1.8753   23.3383 N   0  0  0  0  0  0  0  0  0  0  0  0
   13.5812    3.1124   22.2755 O   0  0  0  0  0  0  0  0  0  0  0  0
    9.8452    3.6631   22.2055 O   0  0  0  0  0  0  0  0  0  0  0  0
   12.7554    7.4894   25.5802 Cl  0  0  0  0  0  0  0  0  0  0  0  0
   10.1724   -0.3431   24.4839 Cl  0  0  0  0  0  0  0  0  0  0  0  0
   11.0618    1.9750   23.8692 H   0  0  0  0  0  0  0  0  0  0  0  0
   10.4047    2.9022   21.9850 H   0  0  0  0  0  0  0  0  0  0  0  0
  1  2  1  0  0  0  0
  1  3  2  0  0  0  0
  2  5  2  0  0  0  0
  3  9  1  0  0  0  0
  4  6  2  0  0  0  0
  4 10  1  0  0  0  0
  5 12  1  0  0  0  0
  6 11  1  0  0  0  0
  7  8  1  0  0  0  0
  7 11  2  0  0  0  0
  8 10  2  0  0  0  0
  8 13  1  0  0  0  0
  9 12  2  0  0  0  0
  9 14  1  0  0  0  0
 10 16  1  0  0  0  0
 11 17  1  0  0  0  0
 12 18  1  0  0  0  0
 13 14  1  0  0  0  0
 13 15  2  0  0  0  0
 14 19  1  0  0  0  0
 16 20  1  0  0  0  0
M  END
> <ref_mols>
x2498_0

> <original SMILES>
OC=1C=CC(Cl)=CC1C(=O)NC=2C=CC=CC2Cl

> <Chemgauss4>
-8.723997

> <ref_pdb>
x0195_0

$$$$
x2669
  -OEChem-05172015543D

 23 24  0     0  0  0  0  0  0999 V2000
    8.1686   -3.7510   22.6068 C   0  0  0  0  0  0  0  0  0  0  0  0
    9.0217   -3.2573   21.6157 C   0  0  0  0  0  0  0  0  0  0  0  0
    9.3842   -2.5504   24.3325 C   0  0  0  0  0  0  0  0  0  0  0  0
   11.8401   -1.0330   22.0904 C   0  0  0  0  0  0  0  0  0  0  0  0
   10.2570   -2.0403   23.3508 C   0  0  0  0  0  0  0  0  0  0  0  0
    8.3452   -3.4043   23.9449 C   0  0  0  0  0  0  0  0  0  0  0  0
   11.3859   -1.1745   23.3814 C   0  0  0  0  0  0  0  0  0  0  0  0
   10.0560   -2.4048   22.0178 C   0  0  0  0  0  0  0  0  0  0  0  0
    5.9663   -5.2303   27.4004 C   0  0  0  0  0  0  0  0  0  0  0  0
    9.6715    1.0325   25.4180 C   0  0  0  0  0  0  0  0  0  0  0  0
   10.5939    3.0327   24.2565 C   0  0  0  0  0  0  0  0  0  0  0  0
   11.9730   -0.5372   24.5774 C   0  0  0  0  0  0  0  0  0  0  0  0
    7.4165   -3.9491   24.9788 C   0  0  0  0  0  0  0  0  0  0  0  0
   12.0008    0.9974   24.5377 C   0  0  0  0  0  0  0  0  0  0  0  0
   11.0314   -1.7786   21.2751 N   0  0  0  0  0  0  0  0  0  0  0  0
    7.1557   -5.8799   26.8210 N   0  0  0  0  0  0  0  0  0  0  0  0
   10.6264    1.5275   24.3596 N   0  3  0  0  0  0  0  0  0  0  0  0
    9.2818   -5.7466   25.3525 O   0  0  0  0  0  0  0  0  0  0  0  0
    8.8841   -4.0082   27.1347 O   0  0  0  0  0  0  0  0  0  0  0  0
    8.3697   -4.9062   26.1122 S   0  0  0  0  0  0  0  0  0  0  0  0
   11.1351   -1.8586   20.2730 H   0  0  0  0  0  0  0  0  0  0  0  0
    6.9588   -6.7801   26.3646 H   0  0  0  0  0  0  0  0  0  0  0  0
   10.2643    1.1712   23.4585 H   0  0  0  0  0  0  0  0  0  0  0  0
  1  2  2  0  0  0  0
  1  6  1  0  0  0  0
  2  8  1  0  0  0  0
  3  5  1  0  0  0  0
  3  6  2  0  0  0  0
  4  7  2  0  0  0  0
  4 15  1  0  0  0  0
  5  7  1  0  0  0  0
  5  8  2  0  0  0  0
  6 13  1  0  0  0  0
  7 12  1  0  0  0  0
  8 15  1  0  0  0  0
  9 16  1  0  0  0  0
 10 17  1  0  0  0  0
 11 17  1  0  0  0  0
 12 14  1  0  0  0  0
 13 20  1  0  0  0  0
 14 17  1  0  0  0  0
 16 20  1  0  0  0  0
 18 20  2  0  0  0  0
 19 20  2  0  0  0  0
 15 21  1  0  0  0  0
 16 22  1  0  0  0  0
 17 23  1  0  0  0  0
M  CHG  1  17   1
M  END
> <ref_mols>
x2669_0

> <original SMILES>
CNS(=O)(=O)CC=1C=CC=2NC=C(CCN(C)C)C2C1.OC(=O)CCC(=O)O

> <Chemgauss4>
-8.722964

> <ref_pdb>
x0072_0

$$$$
x2501
  -OEChem-05172015543D

 23 24  0     0  0  0  0  0  0999 V2000
    8.1686   -3.7510   22.6068 C   0  0  0  0  0  0  0  0  0  0  0  0
    9.0217   -3.2573   21.6157 C   0  0  0  0  0  0  0  0  0  0  0  0
    9.3842   -2.5504   24.3325 C   0  0  0  0  0  0  0  0  0  0  0  0
   11.8401   -1.0330   22.0904 C   0  0  0  0  0  0  0  0  0  0  0  0
   10.2570   -2.0403   23.3508 C   0  0  0  0  0  0  0  0  0  0  0  0
    8.3452   -3.4043   23.9449 C   0  0  0  0  0  0  0  0  0  0  0  0
   11.3859   -1.1745   23.3814 C   0  0  0  0  0  0  0  0  0  0  0  0
   10.0560   -2.4048   22.0178 C   0  0  0  0  0  0  0  0  0  0  0  0
    5.9663   -5.2303   27.4004 C   0  0  0  0  0  0  0  0  0  0  0  0
    9.6715    1.0325   25.4180 C   0  0  0  0  0  0  0  0  0  0  0  0
   10.5939    3.0327   24.2565 C   0  0  0  0  0  0  0  0  0  0  0  0
   11.9730   -0.5372   24.5774 C   0  0  0  0  0  0  0  0  0  0  0  0
    7.4165   -3.9491   24.9788 C   0  0  0  0  0  0  0  0  0  0  0  0
   12.0008    0.9974   24.5377 C   0  0  0  0  0  0  0  0  0  0  0  0
   11.0314   -1.7786   21.2751 N   0  0  0  0  0  0  0  0  0  0  0  0
    7.1557   -5.8799   26.8210 N   0  0  0  0  0  0  0  0  0  0  0  0
   10.6264    1.5275   24.3596 N   0  3  0  0  0  0  0  0  0  0  0  0
    9.2818   -5.7466   25.3525 O   0  0  0  0  0  0  0  0  0  0  0  0
    8.8841   -4.0082   27.1347 O   0  0  0  0  0  0  0  0  0  0  0  0
    8.3697   -4.9062   26.1122 S   0  0  0  0  0  0  0  0  0  0  0  0
   11.1351   -1.8586   20.2730 H   0  0  0  0  0  0  0  0  0  0  0  0
    6.9588   -6.7801   26.3646 H   0  0  0  0  0  0  0  0  0  0  0  0
   10.2643    1.1712   23.4585 H   0  0  0  0  0  0  0  0  0  0  0  0
  1  2  2  0  0  0  0
  1  6  1  0  0  0  0
  2  8  1  0  0  0  0
  3  5  1  0  0  0  0
  3  6  2  0  0  0  0
  4  7  2  0  0  0  0
  4 15  1  0  0  0  0
  5  7  1  0  0  0  0
  5  8  2  0  0  0  0
  6 13  1  0  0  0  0
  7 12  1  0  0  0  0
  8 15  1  0  0  0  0
  9 16  1  0  0  0  0
 10 17  1  0  0  0  0
 11 17  1  0  0  0  0
 12 14  1  0  0  0  0
 13 20  1  0  0  0  0
 14 17  1  0  0  0  0
 16 20  1  0  0  0  0
 18 20  2  0  0  0  0
 19 20  2  0  0  0  0
 15 21  1  0  0  0  0
 16 22  1  0  0  0  0
 17 23  1  0  0  0  0
M  CHG  1  17   1
M  END
> <ref_mols>
x2501_0

> <original SMILES>
CNS(=O)(=O)CC=1C=CC=2NC=C(CCN(C)C)C2C1.OC(=O)CCC(=O)O

> <Chemgauss4>
-8.722964

> <ref_pdb>
x0072_0

$$$$
x2548
  -OEChem-05172015543D

 17 18  0     0  0  0  0  0  0999 V2000
    6.4677   -3.4774   21.2493 C   0  0  0  0  0  0  0  0  0  0  0  0
    7.6473   -3.0610   21.9443 C   0  0  0  0  0  0  0  0  0  0  0  0
    8.1733   -3.6856   23.1148 C   0  0  0  0  0  0  0  0  0  0  0  0
    9.3287   -3.0597   23.5429 C   0  0  0  0  0  0  0  0  0  0  0  0
    8.4143   -1.9907   21.5368 C   0  0  0  0  0  0  0  0  0  0  0  0
    6.3676    0.7828   18.0092 C   0  0  0  0  0  0  0  0  0  0  0  0
    7.3704    0.2650   18.7255 C   0  0  0  0  0  0  0  0  0  0  0  0
    7.0939   -0.6845   19.8423 C   0  0  0  0  0  0  0  0  0  0  0  0
    7.6083   -4.8815   23.8167 C   0  0  0  0  0  0  0  0  0  0  0  0
   10.1177   -3.4466   24.7545 C   0  0  0  0  0  0  0  0  0  0  0  0
    8.1945   -5.0435   25.2280 C   0  0  0  0  0  0  0  0  0  0  0  0
    9.7181   -4.8513   25.2333 C   0  0  0  0  0  0  0  0  0  0  0  0
    5.5111   -3.8151   20.6857 N   0  0  0  0  0  0  0  0  0  0  0  0
    8.2787   -1.1260   20.4838 N   0  0  0  0  0  0  0  0  0  0  0  0
    5.9485   -1.0120   20.1290 O   0  0  0  0  0  0  0  0  0  0  0  0
    9.7644   -1.7398   22.5600 S   0  0  0  0  0  0  0  0  0  0  0  0
    9.1651   -0.7409   20.1029 H   0  0  0  0  0  0  0  0  0  0  0  0
  1  2  1  0  0  0  0
  1 13  3  0  0  0  0
  2  3  1  0  0  0  0
  2  5  2  0  0  0  0
  3  4  2  0  0  0  0
  3  9  1  0  0  0  0
  4 10  1  0  0  0  0
  4 16  1  0  0  0  0
  5 14  1  0  0  0  0
  5 16  1  0  0  0  0
  6  7  2  0  0  0  0
  7  8  1  0  0  0  0
  8 14  1  0  0  0  0
  8 15  2  0  0  0  0
  9 11  1  0  0  0  0
 10 12  1  0  0  0  0
 11 12  1  0  0  0  0
 14 17  1  0  0  0  0
M  END
> <ref_mols>
x2548_0

> <original SMILES>
C=CC(=O)Nc1sc2CCCCc2c1C#N

> <Chemgauss4>
-8.713833

> <ref_pdb>
x1385_0

$$$$
x2351
  -OEChem-05172015543D

 17 18  0     0  0  0  0  0  0999 V2000
    6.4677   -3.4774   21.2493 C   0  0  0  0  0  0  0  0  0  0  0  0
    7.6473   -3.0610   21.9443 C   0  0  0  0  0  0  0  0  0  0  0  0
    8.1733   -3.6856   23.1148 C   0  0  0  0  0  0  0  0  0  0  0  0
    9.3287   -3.0597   23.5429 C   0  0  0  0  0  0  0  0  0  0  0  0
    8.4143   -1.9907   21.5368 C   0  0  0  0  0  0  0  0  0  0  0  0
    6.3676    0.7828   18.0092 C   0  0  0  0  0  0  0  0  0  0  0  0
    7.3704    0.2650   18.7255 C   0  0  0  0  0  0  0  0  0  0  0  0
    7.0939   -0.6845   19.8423 C   0  0  0  0  0  0  0  0  0  0  0  0
    7.6083   -4.8815   23.8167 C   0  0  0  0  0  0  0  0  0  0  0  0
   10.1177   -3.4466   24.7545 C   0  0  0  0  0  0  0  0  0  0  0  0
    8.1945   -5.0435   25.2280 C   0  0  0  0  0  0  0  0  0  0  0  0
    9.7181   -4.8513   25.2333 C   0  0  0  0  0  0  0  0  0  0  0  0
    5.5111   -3.8151   20.6857 N   0  0  0  0  0  0  0  0  0  0  0  0
    8.2787   -1.1260   20.4838 N   0  0  0  0  0  0  0  0  0  0  0  0
    5.9485   -1.0120   20.1290 O   0  0  0  0  0  0  0  0  0  0  0  0
    9.7644   -1.7398   22.5600 S   0  0  0  0  0  0  0  0  0  0  0  0
    9.1651   -0.7409   20.1029 H   0  0  0  0  0  0  0  0  0  0  0  0
  1  2  1  0  0  0  0
  1 13  3  0  0  0  0
  2  3  1  0  0  0  0
  2  5  2  0  0  0  0
  3  4  2  0  0  0  0
  3  9  1  0  0  0  0
  4 10  1  0  0  0  0
  4 16  1  0  0  0  0
  5 14  1  0  0  0  0
  5 16  1  0  0  0  0
  6  7  2  0  0  0  0
  7  8  1  0  0  0  0
  8 14  1  0  0  0  0
  8 15  2  0  0  0  0
  9 11  1  0  0  0  0
 10 12  1  0  0  0  0
 11 12  1  0  0  0  0
 14 17  1  0  0  0  0
M  END
> <ref_mols>
x2351_0

> <original SMILES>
C=CC(=O)Nc1sc2CCCCc2c1C#N

> <Chemgauss4>
-8.713833

> <ref_pdb>
x1385_0

$$$$
x1229
  -OEChem-05172015543D

 18 19  0     0  0  0  0  0  0999 V2000
   12.9321   -1.7909   22.9256 C   0  0  0  0  0  0  0  0  0  0  0  0
    5.7398    1.0812   21.0928 C   0  0  0  0  0  0  0  0  0  0  0  0
    6.9727    0.6507   21.5830 C   0  0  0  0  0  0  0  0  0  0  0  0
   11.5242   -1.7739   22.7814 C   0  0  0  0  0  0  0  0  0  0  0  0
    7.6592    0.0648   19.3419 C   0  0  0  0  0  0  0  0  0  0  0  0
   13.3474   -0.4885   22.7733 C   0  0  0  0  0  0  0  0  0  0  0  0
    5.4666    1.0034   19.7271 C   0  0  0  0  0  0  0  0  0  0  0  0
    7.9324    0.1425   20.7076 C   0  0  0  0  0  0  0  0  0  0  0  0
    6.4263    0.4952   18.8517 C   0  0  0  0  0  0  0  0  0  0  0  0
   11.1795   -0.4623   22.5514 C   0  0  0  0  0  0  0  0  0  0  0  0
    9.8734    0.1793   22.3236 C   0  0  0  0  0  0  0  0  0  0  0  0
    4.1415    1.4686   19.2203 C   0  0  0  0  0  0  0  0  0  0  0  0
    9.1649   -0.2886   21.1981 N   0  0  0  0  0  0  0  0  0  0  0  0
    9.4735    1.0788   23.0597 O   0  0  0  0  0  0  0  0  0  0  0  0
   12.2852    0.3277   22.5450 O   0  0  0  0  0  0  0  0  0  0  0  0
    6.1752    0.4121   17.5151 O   0  0  0  0  0  0  0  0  0  0  0  0
    9.6150   -1.0457   20.6707 H   0  0  0  0  0  0  0  0  0  0  0  0
    6.9418    0.0386   17.0529 H   0  0  0  0  0  0  0  0  0  0  0  0
  1  4  1  0  0  0  0
  1  6  2  0  0  0  0
  2  3  2  0  0  0  0
  2  7  1  0  0  0  0
  3  8  1  0  0  0  0
  4 10  2  0  0  0  0
  5  8  2  0  0  0  0
  5  9  1  0  0  0  0
  6 15  1  0  0  0  0
  7  9  2  0  0  0  0
  7 12  1  0  0  0  0
  8 13  1  0  0  0  0
  9 16  1  0  0  0  0
 10 11  1  0  0  0  0
 10 15  1  0  0  0  0
 11 13  1  0  0  0  0
 11 14  2  0  0  0  0
 13 17  1  0  0  0  0
 16 18  1  0  0  0  0
M  END
> <ref_mols>
x1229_0

> <original SMILES>
CC=1C=CC(NC(=O)C2=CC=CO2)=CC1O

> <Chemgauss4>
-8.709225

> <ref_pdb>
x1093_0

$$$$
x1078
  -OEChem-05172015543D

 14 14  0     0  0  0  0  0  0999 V2000
   12.2353    0.9598   22.9464 C   0  0  0  0  0  0  0  0  0  0  0  0
   14.5580    1.1796   22.4843 C   0  0  0  0  0  0  0  0  0  0  0  0
   13.4871    0.3676   22.8217 C   0  0  0  0  0  0  0  0  0  0  0  0
   12.0946    2.3266   22.7330 C   0  0  0  0  0  0  0  0  0  0  0  0
   13.2278    3.0509   22.3998 C   0  0  0  0  0  0  0  0  0  0  0  0
   14.2145    5.2716   21.8336 C   0  0  0  0  0  0  0  0  0  0  0  0
   13.6710   -1.0915   23.0434 C   0  0  0  0  0  0  0  0  0  0  0  0
   14.4603    2.5107   22.2694 N   0  0  0  0  0  0  0  0  0  0  0  0
   13.1041    4.4451   22.1787 N   0  0  0  0  0  0  0  0  0  0  0  0
   12.5171   -1.7497   23.3689 F   0  0  0  0  0  0  0  0  0  0  0  0
   14.1605   -1.7569   21.9535 F   0  0  0  0  0  0  0  0  0  0  0  0
   14.5437   -1.3668   24.0582 F   0  0  0  0  0  0  0  0  0  0  0  0
   10.5364    3.0447   22.8915 Cl  0  0  0  0  0  0  0  0  0  0  0  0
   12.1889    4.8346   22.2774 H   0  0  0  0  0  0  0  0  0  0  0  0
  1  3  2  0  0  0  0
  1  4  1  0  0  0  0
  2  3  1  0  0  0  0
  2  8  2  0  0  0  0
  3  7  1  0  0  0  0
  4  5  2  0  0  0  0
  4 13  1  0  0  0  0
  5  8  1  0  0  0  0
  5  9  1  0  0  0  0
  6  9  1  0  0  0  0
  7 10  1  0  0  0  0
  7 11  1  0  0  0  0
  7 12  1  0  0  0  0
  9 14  1  0  0  0  0
M  END
> <ref_mols>
x1078_0

> <original SMILES>
CNC=1N=CC(=CC1Cl)C(F)(F)F

> <Chemgauss4>
-8.708693

> <ref_pdb>
x0195_0

$$$$
x0193
  -OEChem-05172015543D

 14 14  0     0  0  0  0  0  0999 V2000
   12.2353    0.9598   22.9464 C   0  0  0  0  0  0  0  0  0  0  0  0
   14.5580    1.1796   22.4843 C   0  0  0  0  0  0  0  0  0  0  0  0
   13.4871    0.3676   22.8217 C   0  0  0  0  0  0  0  0  0  0  0  0
   12.0946    2.3266   22.7330 C   0  0  0  0  0  0  0  0  0  0  0  0
   13.2278    3.0509   22.3998 C   0  0  0  0  0  0  0  0  0  0  0  0
   14.2145    5.2716   21.8336 C   0  0  0  0  0  0  0  0  0  0  0  0
   13.6710   -1.0915   23.0434 C   0  0  0  0  0  0  0  0  0  0  0  0
   14.4603    2.5107   22.2694 N   0  0  0  0  0  0  0  0  0  0  0  0
   13.1041    4.4451   22.1787 N   0  0  0  0  0  0  0  0  0  0  0  0
   12.5171   -1.7497   23.3689 F   0  0  0  0  0  0  0  0  0  0  0  0
   14.1605   -1.7569   21.9535 F   0  0  0  0  0  0  0  0  0  0  0  0
   14.5437   -1.3668   24.0582 F   0  0  0  0  0  0  0  0  0  0  0  0
   10.5364    3.0447   22.8915 Cl  0  0  0  0  0  0  0  0  0  0  0  0
   12.1889    4.8346   22.2774 H   0  0  0  0  0  0  0  0  0  0  0  0
  1  3  2  0  0  0  0
  1  4  1  0  0  0  0
  2  3  1  0  0  0  0
  2  8  2  0  0  0  0
  3  7  1  0  0  0  0
  4  5  2  0  0  0  0
  4 13  1  0  0  0  0
  5  8  1  0  0  0  0
  5  9  1  0  0  0  0
  6  9  1  0  0  0  0
  7 10  1  0  0  0  0
  7 11  1  0  0  0  0
  7 12  1  0  0  0  0
  9 14  1  0  0  0  0
M  END
> <ref_mols>
x0193_0

> <original SMILES>
CNC=1N=CC(=CC1Cl)C(F)(F)F

> <Chemgauss4>
-8.708693

> <ref_pdb>
x0195_0

$$$$
x0326
  -OEChem-05172015543D

 15 17  0     0  0  0  0  0  0999 V2000
   11.8121    1.7293   23.5345 C   0  0  0  0  0  0  0  0  0  0  0  0
   11.6708    0.3396   23.5403 C   0  0  0  0  0  0  0  0  0  0  0  0
   12.1500    4.6884   22.3683 C   0  0  0  0  0  0  0  0  0  0  0  0
   13.9130    1.5536   22.3165 C   0  0  0  0  0  0  0  0  0  0  0  0
   12.7077    5.9155   22.6323 C   0  0  0  0  0  0  0  0  0  0  0  0
   12.9268    2.3329   22.9261 C   0  0  0  0  0  0  0  0  0  0  0  0
   12.6587   -0.4070   22.9316 C   0  0  0  0  0  0  0  0  0  0  0  0
   13.7497    0.1837   22.3360 C   0  0  0  0  0  0  0  0  0  0  0  0
   13.0510    3.7642   22.9304 C   0  0  0  0  0  0  0  0  0  0  0  0
   13.9247   -1.9619   22.1184 C   0  0  0  0  0  0  0  0  0  0  0  0
   14.1012    4.3538   23.5078 N   0  0  0  0  0  0  0  0  0  0  0  0
   13.8638    5.6616   23.3098 N   0  0  0  0  0  0  0  0  0  0  0  0
   12.6908   -1.7643   22.8385 O   0  0  0  0  0  0  0  0  0  0  0  0
   14.6015   -0.7298   21.7958 O   0  0  0  0  0  0  0  0  0  0  0  0
   14.5358    6.3298   23.6658 H   0  0  0  0  0  0  0  0  0  0  0  0
  1  2  2  0  0  0  0
  1  6  1  0  0  0  0
  2  7  1  0  0  0  0
  3  5  2  0  0  0  0
  3  9  1  0  0  0  0
  4  6  2  0  0  0  0
  4  8  1  0  0  0  0
  5 12  1  0  0  0  0
  6  9  1  0  0  0  0
  7  8  2  0  0  0  0
  7 13  1  0  0  0  0
  8 14  1  0  0  0  0
  9 11  2  0  0  0  0
 10 13  1  0  0  0  0
 10 14  1  0  0  0  0
 11 12  1  0  0  0  0
 12 15  1  0  0  0  0
M  END
> <ref_mols>
x0326_0

> <original SMILES>
C1OC=2C=CC(=CC2O1)C=3C=CNN3

> <Chemgauss4>
-8.701745

> <ref_pdb>
x0195_0

$$$$
x0372
  -OEChem-05172015543D

 16 17  0     0  0  0  0  0  0999 V2000
    5.3613    0.6731   21.0536 C   0  0  0  0  0  0  0  0  0  0  0  0
    6.6433    0.5048   21.5766 C   0  0  0  0  0  0  0  0  0  0  0  0
    5.1420    0.5266   19.6839 C   0  0  0  0  0  0  0  0  0  0  0  0
    7.4870    0.0438   19.3601 C   0  0  0  0  0  0  0  0  0  0  0  0
    7.7062    0.1902   20.7298 C   0  0  0  0  0  0  0  0  0  0  0  0
    6.2048    0.2120   18.8371 C   0  0  0  0  0  0  0  0  0  0  0  0
    8.3808   -2.3917   21.6531 C   0  0  0  0  0  0  0  0  0  0  0  0
   10.7335   -1.6728   22.2124 C   0  0  0  0  0  0  0  0  0  0  0  0
    7.8869   -2.2850   23.0861 C   0  0  0  0  0  0  0  0  0  0  0  0
   10.4495   -1.5023   23.6954 C   0  0  0  0  0  0  0  0  0  0  0  0
    9.0853    0.0098   21.2924 C   0  0  0  0  0  0  0  0  0  0  0  0
    9.5093   -1.4325   21.3632 N   0  3  0  0  0  0  0  0  0  0  0  0
    5.9906    0.0685   17.5005 O   0  0  0  0  0  0  0  0  0  0  0  0
    9.1941   -2.6735   24.2833 S   0  0  0  0  0  0  0  0  0  0  0  0
    9.8194   -1.6667   20.3601 H   0  0  0  0  0  0  0  0  0  0  0  0
    6.8214   -0.1486   17.0483 H   0  0  0  0  0  0  0  0  0  0  0  0
  1  2  1  0  0  0  0
  1  3  2  0  0  0  0
  2  5  2  0  0  0  0
  3  6  1  0  0  0  0
  4  5  1  0  0  0  0
  4  6  2  0  0  0  0
  5 11  1  0  0  0  0
  6 13  1  0  0  0  0
  7  9  1  0  0  0  0
  7 12  1  0  0  0  0
  8 10  1  0  0  0  0
  8 12  1  0  0  0  0
  9 14  1  0  0  0  0
 10 14  1  0  0  0  0
 11 12  1  0  0  0  0
 12 15  1  0  0  0  0
 13 16  1  0  0  0  0
M  CHG  1  12   1
M  END
> <ref_mols>
x0372_0

> <original SMILES>
OC=1C=CC=C(CN2CCSCC2)C1

> <Chemgauss4>
-8.697557

> <ref_pdb>
x0107_0

$$$$
x1125
  -OEChem-05172015543D

 18 19  0     1  0  0  0  0  0999 V2000
   13.3535   -1.1255   24.6684 C   0  0  0  0  0  0  0  0  0  0  0  0
   12.8173   -2.8577   26.2649 C   0  0  0  0  0  0  0  0  0  0  0  0
   12.1534   -1.3695   24.0006 C   0  0  0  0  0  0  0  0  0  0  0  0
   11.6172   -3.1017   25.5971 C   0  0  0  0  0  0  0  0  0  0  0  0
   13.6854   -1.8697   25.8005 C   0  0  0  0  0  0  0  0  0  0  0  0
   11.2853   -2.3575   24.4650 C   0  0  0  0  0  0  0  0  0  0  0  0
    9.5219   -4.0580   23.8514 C   0  0  0  0  0  0  0  0  0  0  0  0
    6.6235   -5.9698   21.1498 C   0  0  0  0  0  0  0  0  0  0  0  0
    7.5086   -6.3356   22.3147 C   0  0  0  0  0  0  0  0  0  0  0  0
    6.1396   -4.5908   21.5454 C   0  0  0  0  0  0  0  0  0  0  0  0
    6.7333   -5.7462   23.4804 C   0  0  1  0  0  0  0  0  0  0  0  0
   14.9682   -1.6095   26.5151 C   0  0  0  0  0  0  0  0  0  0  0  0
    9.9892   -2.6191   23.7445 C   0  0  0  0  0  0  0  0  0  0  0  0
    7.6031   -5.4038   24.6744 C   0  0  0  0  0  0  0  0  0  0  0  0
    8.2684   -4.1589   24.4587 N   0  0  0  0  0  0  0  0  0  0  0  0
   10.1754   -5.0151   23.4444 O   0  0  0  0  0  0  0  0  0  0  0  0
    6.1008   -4.5562   22.9799 O   0  0  0  0  0  0  0  0  0  0  0  0
    7.8042   -3.2992   24.7639 H   0  0  0  0  0  0  0  0  0  0  0  0
  1  3  2  0  0  0  0
  1  5  1  0  0  0  0
  2  4  1  0  0  0  0
  2  5  2  0  0  0  0
  3  6  1  0  0  0  0
  4  6  2  0  0  0  0
  5 12  1  0  0  0  0
  6 13  1  0  0  0  0
  7 13  1  0  0  0  0
  7 15  1  0  0  0  0
  7 16  2  0  0  0  0
  8  9  1  0  0  0  0
  8 10  1  0  0  0  0
  9 11  1  0  0  0  0
 10 17  1  0  0  0  0
 11 14  1  0  0  0  0
 11 17  1  0  0  0  0
 14 15  1  0  0  0  0
 15 18  1  0  0  0  0
M  END
> <ref_mols>
x1125_0

> <original SMILES>
CC=1C=CC(CC(=O)NC[C@@H]2CCCO2)=CC1

> <Chemgauss4>
-8.693243

> <ref_pdb>
x0749_0

$$$$
x0351
  -OEChem-05172015543D

 18 19  0     1  0  0  0  0  0999 V2000
   13.3535   -1.1255   24.6684 C   0  0  0  0  0  0  0  0  0  0  0  0
   12.8173   -2.8577   26.2649 C   0  0  0  0  0  0  0  0  0  0  0  0
   12.1534   -1.3695   24.0006 C   0  0  0  0  0  0  0  0  0  0  0  0
   11.6172   -3.1017   25.5971 C   0  0  0  0  0  0  0  0  0  0  0  0
   13.6854   -1.8697   25.8005 C   0  0  0  0  0  0  0  0  0  0  0  0
   11.2853   -2.3575   24.4650 C   0  0  0  0  0  0  0  0  0  0  0  0
    9.5219   -4.0580   23.8514 C   0  0  0  0  0  0  0  0  0  0  0  0
    6.6235   -5.9698   21.1498 C   0  0  0  0  0  0  0  0  0  0  0  0
    7.5086   -6.3356   22.3147 C   0  0  0  0  0  0  0  0  0  0  0  0
    6.1396   -4.5908   21.5454 C   0  0  0  0  0  0  0  0  0  0  0  0
    6.7333   -5.7462   23.4804 C   0  0  1  0  0  0  0  0  0  0  0  0
   14.9682   -1.6095   26.5151 C   0  0  0  0  0  0  0  0  0  0  0  0
    9.9892   -2.6191   23.7445 C   0  0  0  0  0  0  0  0  0  0  0  0
    7.6031   -5.4038   24.6744 C   0  0  0  0  0  0  0  0  0  0  0  0
    8.2684   -4.1589   24.4587 N   0  0  0  0  0  0  0  0  0  0  0  0
   10.1754   -5.0151   23.4444 O   0  0  0  0  0  0  0  0  0  0  0  0
    6.1008   -4.5562   22.9799 O   0  0  0  0  0  0  0  0  0  0  0  0
    7.8042   -3.2992   24.7639 H   0  0  0  0  0  0  0  0  0  0  0  0
  1  3  2  0  0  0  0
  1  5  1  0  0  0  0
  2  4  1  0  0  0  0
  2  5  2  0  0  0  0
  3  6  1  0  0  0  0
  4  6  2  0  0  0  0
  5 12  1  0  0  0  0
  6 13  1  0  0  0  0
  7 13  1  0  0  0  0
  7 15  1  0  0  0  0
  7 16  2  0  0  0  0
  8  9  1  0  0  0  0
  8 10  1  0  0  0  0
  9 11  1  0  0  0  0
 10 17  1  0  0  0  0
 11 14  1  0  0  0  0
 11 17  1  0  0  0  0
 14 15  1  0  0  0  0
 15 18  1  0  0  0  0
M  END
> <ref_mols>
x0351_0

> <original SMILES>
CC=1C=CC(CC(=O)NC[C@@H]2CCCO2)=CC1

> <Chemgauss4>
-8.693243

> <ref_pdb>
x0749_0

$$$$
x0403
  -OEChem-05172015543D

 18 19  0     0  0  0  0  0  0999 V2000
    9.8602    6.4209   23.8301 C   0  0  0  0  0  0  0  0  0  0  0  0
   10.1490    6.6217   25.1753 C   0  0  0  0  0  0  0  0  0  0  0  0
   10.8273    5.8794   22.9905 C   0  0  0  0  0  0  0  0  0  0  0  0
   11.4097    6.2674   25.6279 C   0  0  0  0  0  0  0  0  0  0  0  0
   12.0577    5.5585   23.5409 C   0  0  0  0  0  0  0  0  0  0  0  0
   11.1344    0.6848   23.9156 C   0  0  0  0  0  0  0  0  0  0  0  0
   12.2138    2.6680   23.2310 C   0  0  0  0  0  0  0  0  0  0  0  0
   13.1057    4.9904   22.7104 C   0  0  0  0  0  0  0  0  0  0  0  0
    9.5700   -2.7671   23.1792 C   0  0  0  0  0  0  0  0  0  0  0  0
   10.7074   -0.7081   24.1554 C   0  0  0  0  0  0  0  0  0  0  0  0
    9.9755   -1.3206   22.9443 C   0  0  0  0  0  0  0  0  0  0  0  0
   12.3749    5.7390   24.8426 N   0  0  0  0  0  0  0  0  0  0  0  0
   10.5366    1.7553   24.3936 N   0  0  0  0  0  0  0  0  0  0  0  0
   11.1692    2.9186   23.9912 N   0  0  0  0  0  0  0  0  0  0  0  0
   13.1124    3.5883   22.6346 N   0  0  0  0  0  0  0  0  0  0  0  0
   13.9477    5.7023   22.1439 O   0  0  0  0  0  0  0  0  0  0  0  0
   12.5110    1.0036   22.9434 S   0  0  0  0  0  0  0  0  0  0  0  0
   13.8597    3.1793   22.0792 H   0  0  0  0  0  0  0  0  0  0  0  0
  1  2  1  0  0  0  0
  1  3  2  0  0  0  0
  2  4  2  0  0  0  0
  3  5  1  0  0  0  0
  4 12  1  0  0  0  0
  5  8  1  0  0  0  0
  5 12  2  0  0  0  0
  6 10  1  0  0  0  0
  6 13  2  0  0  0  0
  6 17  1  0  0  0  0
  7 14  2  0  0  0  0
  7 15  1  0  0  0  0
  7 17  1  0  0  0  0
  8 15  1  0  0  0  0
  8 16  2  0  0  0  0
  9 11  1  0  0  0  0
 10 11  1  0  0  0  0
 13 14  1  0  0  0  0
 15 18  1  0  0  0  0
M  END
> <ref_mols>
x0403_0

> <original SMILES>
CCCC1=NN=C(NC(=O)C=2C=CC=CN2)S1

> <Chemgauss4>
-8.691767

> <ref_pdb>
x0104_0

$$$$
x0366
  -OEChem-05172015543D

 18 19  0     0  0  0  0  0  0999 V2000
    5.1455    1.4293   20.0724 C   0  0  0  0  0  0  0  0  0  0  0  0
   12.7953   -2.1161   23.0920 C   0  0  0  0  0  0  0  0  0  0  0  0
   13.5133   -0.1837   24.3520 C   0  0  0  0  0  0  0  0  0  0  0  0
   11.5290   -1.5499   22.9452 C   0  0  0  0  0  0  0  0  0  0  0  0
   12.2470    0.3826   24.2051 C   0  0  0  0  0  0  0  0  0  0  0  0
    6.3930    1.0009   20.6113 C   0  0  0  0  0  0  0  0  0  0  0  0
    5.0864    1.2602   18.7066 C   0  0  0  0  0  0  0  0  0  0  0  0
   13.7874   -1.4330   23.7955 C   0  0  0  0  0  0  0  0  0  0  0  0
   11.2549   -0.3006   23.5017 C   0  0  0  0  0  0  0  0  0  0  0  0
    7.2398    0.5203   19.6366 C   0  0  0  0  0  0  0  0  0  0  0  0
    9.4074    0.6193   20.9287 C   0  0  0  0  0  0  0  0  0  0  0  0
   15.1415   -2.0376   23.9530 C   0  0  0  0  0  0  0  0  0  0  0  0
    9.9012    0.3049   23.3427 C   0  0  0  0  0  0  0  0  0  0  0  0
    8.6351   -0.0239   19.7929 C   0  0  0  0  0  0  0  0  0  0  0  0
    9.2641   -0.0930   22.1130 N   0  0  0  0  0  0  0  0  0  0  0  0
   10.0760    1.6417   20.8004 O   0  0  0  0  0  0  0  0  0  0  0  0
    6.5307    0.5871   18.0794 S   0  0  0  0  0  0  0  0  0  0  0  0
    8.6856   -0.9298   22.1120 H   0  0  0  0  0  0  0  0  0  0  0  0
  1  6  1  0  0  0  0
  1  7  2  0  0  0  0
  2  4  2  0  0  0  0
  2  8  1  0  0  0  0
  3  5  1  0  0  0  0
  3  8  2  0  0  0  0
  4  9  1  0  0  0  0
  5  9  2  0  0  0  0
  6 10  2  0  0  0  0
  7 17  1  0  0  0  0
  8 12  1  0  0  0  0
  9 13  1  0  0  0  0
 10 14  1  0  0  0  0
 10 17  1  0  0  0  0
 11 14  1  0  0  0  0
 11 15  1  0  0  0  0
 11 16  2  0  0  0  0
 13 15  1  0  0  0  0
 15 18  1  0  0  0  0
M  END
> <ref_mols>
x0366_0

> <original SMILES>
CC=1C=CC(CNC(=O)CC2=CC=CS2)=CC1

> <Chemgauss4>
-8.682387

> <ref_pdb>
x0678_0

$$$$
x0628
  -OEChem-05172015543D

 19 20  0     0  0  0  0  0  0999 V2000
    6.2067    0.3590   19.2847 C   0  0  0  0  0  0  0  0  0  0  0  0
    4.5725    1.6242   19.1941 C   0  0  0  0  0  0  0  0  0  0  0  0
    7.7776   -2.3557   21.4777 C   0  0  0  0  0  0  0  0  0  0  0  0
    7.9291   -2.9637   20.0871 C   0  0  0  0  0  0  0  0  0  0  0  0
    6.9953   -1.0571   21.2906 C   0  0  0  0  0  0  0  0  0  0  0  0
    7.2348   -2.0019   19.1248 C   0  0  0  0  0  0  0  0  0  0  0  0
    7.2260   -0.6296   19.8275 C   0  0  0  0  0  0  0  0  0  0  0  0
    2.2419    4.2813   20.6380 C   0  0  0  0  0  0  0  0  0  0  0  0
    3.9451    2.8621   21.7718 C   0  0  0  0  0  0  0  0  0  0  0  0
    3.3736    2.4521   19.3831 C   0  0  0  0  0  0  0  0  0  0  0  0
    5.1715    0.8260   20.0412 N   0  0  0  0  0  0  0  0  0  0  0  0
    6.2694    0.8263   18.0343 N   0  0  0  0  0  0  0  0  0  0  0  0
    8.6142   -0.0502   19.7278 N   0  3  0  0  0  0  0  0  0  0  0  0
    3.4988    3.4729   20.4723 N   0  3  0  0  0  0  0  0  0  0  0  0
    5.1632    1.6830   17.9718 O   0  0  0  0  0  0  0  0  0  0  0  0
    9.2913   -0.7856   19.5187 H   0  0  0  0  0  0  0  0  0  0  0  0
    8.8767    0.3937   20.6094 H   0  0  0  0  0  0  0  0  0  0  0  0
    8.6536    0.6502   18.9855 H   0  0  0  0  0  0  0  0  0  0  0  0
    4.2377    4.1310   20.1861 H   0  0  0  0  0  0  0  0  0  0  0  0
  1  7  1  0  0  0  0
  1 11  1  0  0  0  0
  1 12  2  0  0  0  0
  2 10  1  0  0  0  0
  2 11  2  0  0  0  0
  2 15  1  0  0  0  0
  3  4  1  0  0  0  0
  3  5  1  0  0  0  0
  4  6  1  0  0  0  0
  5  7  1  0  0  0  0
  6  7  1  0  0  0  0
  7 13  1  0  0  0  0
  8 14  1  0  0  0  0
  9 14  1  0  0  0  0
 10 14  1  0  0  0  0
 12 15  1  0  0  0  0
 13 16  1  0  0  0  0
 13 17  1  0  0  0  0
 13 18  1  0  0  0  0
 14 19  1  0  0  0  0
M  CHG  2  13   1  14   1
M  END
> <ref_mols>
x0628_0

> <original SMILES>
CN(C)CC1=NC(=NO1)C2(N)CCCC2

> <Chemgauss4>
-8.681139

> <ref_pdb>
x0397_0

$$$$
x1050
  -OEChem-05172015543D

 18 19  0     0  0  0  0  0  0999 V2000
   12.1094    0.4273   24.6444 C   0  0  0  0  0  0  0  0  0  0  0  0
   13.4614    1.0982   22.7578 C   0  0  0  0  0  0  0  0  0  0  0  0
   12.6472   -0.8577   24.5729 C   0  0  0  0  0  0  0  0  0  0  0  0
   13.9992   -0.1868   22.6863 C   0  0  0  0  0  0  0  0  0  0  0  0
   12.5165    1.4053   23.7368 C   0  0  0  0  0  0  0  0  0  0  0  0
   13.5921   -1.1648   23.5939 C   0  0  0  0  0  0  0  0  0  0  0  0
   12.2610    3.7963   22.9905 C   0  0  0  0  0  0  0  0  0  0  0  0
    8.0678    6.2063   22.5644 C   0  0  0  0  0  0  0  0  0  0  0  0
    7.8931    5.0299   23.5036 C   0  0  0  0  0  0  0  0  0  0  0  0
    9.5567    6.4683   22.6374 C   0  0  0  0  0  0  0  0  0  0  0  0
    9.0851    4.1381   23.2033 C   0  0  0  0  0  0  0  0  0  0  0  0
   11.4550    5.0042   23.4117 C   0  0  0  0  0  0  0  0  0  0  0  0
   11.9708    2.7090   23.8091 N   0  0  0  0  0  0  0  0  0  0  0  0
   10.1543    5.0790   22.6786 N   0  3  0  0  0  0  0  0  0  0  0  0
   13.0429    3.8335   22.0462 O   0  0  0  0  0  0  0  0  0  0  0  0
   14.1095   -2.3985   23.5257 F   0  0  0  0  0  0  0  0  0  0  0  0
   11.2879    2.8545   24.5498 H   0  0  0  0  0  0  0  0  0  0  0  0
   10.3413    4.8040   21.7044 H   0  0  0  0  0  0  0  0  0  0  0  0
  1  3  2  0  0  0  0
  1  5  1  0  0  0  0
  2  4  1  0  0  0  0
  2  5  2  0  0  0  0
  3  6  1  0  0  0  0
  4  6  2  0  0  0  0
  5 13  1  0  0  0  0
  6 16  1  0  0  0  0
  7 12  1  0  0  0  0
  7 13  1  0  0  0  0
  7 15  2  0  0  0  0
  8  9  1  0  0  0  0
  8 10  1  0  0  0  0
  9 11  1  0  0  0  0
 10 14  1  0  0  0  0
 11 14  1  0  0  0  0
 12 14  1  0  0  0  0
 13 17  1  0  0  0  0
 14 18  1  0  0  0  0
M  CHG  1  14   1
M  END
> <ref_mols>
x1050_0

> <original SMILES>
FC=1C=CC(NC(=O)CN2CCCC2)=CC1

> <Chemgauss4>
-8.676518

> <ref_pdb>
x0161_0

$$$$
x0440
  -OEChem-05172015543D

 18 19  0     0  0  0  0  0  0999 V2000
   12.1094    0.4273   24.6444 C   0  0  0  0  0  0  0  0  0  0  0  0
   13.4614    1.0982   22.7578 C   0  0  0  0  0  0  0  0  0  0  0  0
   12.6472   -0.8577   24.5729 C   0  0  0  0  0  0  0  0  0  0  0  0
   13.9992   -0.1868   22.6863 C   0  0  0  0  0  0  0  0  0  0  0  0
   12.5165    1.4053   23.7368 C   0  0  0  0  0  0  0  0  0  0  0  0
   13.5921   -1.1648   23.5939 C   0  0  0  0  0  0  0  0  0  0  0  0
   12.2610    3.7963   22.9905 C   0  0  0  0  0  0  0  0  0  0  0  0
    8.0678    6.2063   22.5644 C   0  0  0  0  0  0  0  0  0  0  0  0
    7.8931    5.0299   23.5036 C   0  0  0  0  0  0  0  0  0  0  0  0
    9.5567    6.4683   22.6374 C   0  0  0  0  0  0  0  0  0  0  0  0
    9.0851    4.1381   23.2033 C   0  0  0  0  0  0  0  0  0  0  0  0
   11.4550    5.0042   23.4117 C   0  0  0  0  0  0  0  0  0  0  0  0
   11.9708    2.7090   23.8091 N   0  0  0  0  0  0  0  0  0  0  0  0
   10.1543    5.0790   22.6786 N   0  3  0  0  0  0  0  0  0  0  0  0
   13.0429    3.8335   22.0462 O   0  0  0  0  0  0  0  0  0  0  0  0
   14.1095   -2.3985   23.5257 F   0  0  0  0  0  0  0  0  0  0  0  0
   11.2879    2.8545   24.5498 H   0  0  0  0  0  0  0  0  0  0  0  0
   10.3413    4.8040   21.7044 H   0  0  0  0  0  0  0  0  0  0  0  0
  1  3  2  0  0  0  0
  1  5  1  0  0  0  0
  2  4  1  0  0  0  0
  2  5  2  0  0  0  0
  3  6  1  0  0  0  0
  4  6  2  0  0  0  0
  5 13  1  0  0  0  0
  6 16  1  0  0  0  0
  7 12  1  0  0  0  0
  7 13  1  0  0  0  0
  7 15  2  0  0  0  0
  8  9  1  0  0  0  0
  8 10  1  0  0  0  0
  9 11  1  0  0  0  0
 10 14  1  0  0  0  0
 11 14  1  0  0  0  0
 12 14  1  0  0  0  0
 13 17  1  0  0  0  0
 14 18  1  0  0  0  0
M  CHG  1  14   1
M  END
> <ref_mols>
x0440_0

> <original SMILES>
FC=1C=CC(NC(=O)CN2CCCC2)=CC1

> <Chemgauss4>
-8.676518

> <ref_pdb>
x0161_0

$$$$
x0864
  -OEChem-05172015543D

 15 15  0     1  0  0  0  0  0999 V2000
   12.0670    0.6407   23.3409 C   0  0  0  0  0  0  0  0  0  0  0  0
   10.7138    2.6016   24.0668 C   0  0  0  0  0  0  0  0  0  0  0  0
   12.6784    2.9909   22.7936 C   0  0  0  0  0  0  0  0  0  0  0  0
   11.5542    1.9899   22.9565 C   0  0  1  0  0  0  0  0  0  0  0  0
   10.7572    4.1092   23.8139 C   0  0  2  0  0  0  0  0  0  0  0  0
    9.5189    4.6336   23.1014 C   0  0  0  0  0  0  0  0  0  0  0  0
   12.2747   -2.1404   22.7763 C   0  0  0  0  0  0  0  0  0  0  0  0
   14.2502   -1.5161   21.3562 C   0  0  0  0  0  0  0  0  0  0  0  0
   14.2957   -1.0703   23.8275 C   0  0  0  0  0  0  0  0  0  0  0  0
   12.8633    5.4422   23.3342 C   0  0  0  0  0  0  0  0  0  0  0  0
   13.4162   -1.1438   22.5801 C   0  0  0  0  0  0  0  0  0  0  0  0
   11.9699    4.3190   22.9123 N   0  3  1  0  0  0  0  0  0  0  0  0
   11.8046    0.0837   24.3983 O   0  0  0  0  0  0  0  0  0  0  0  0
   12.8546    0.1508   22.3417 O   0  0  0  0  0  0  0  0  0  0  0  0
   11.6122    4.5518   21.9743 H   0  0  0  0  0  0  0  0  0  0  0  0
  1  4  1  0  0  0  0
  1 13  2  0  0  0  0
  1 14  1  0  0  0  0
  2  4  1  0  0  0  0
  2  5  1  0  0  0  0
  3  4  1  0  0  0  0
  3 12  1  0  0  0  0
  5  6  1  0  0  0  0
  5 12  1  0  0  0  0
  7 11  1  0  0  0  0
  8 11  1  0  0  0  0
  9 11  1  0  0  0  0
 10 12  1  0  0  0  0
 11 14  1  0  0  0  0
 12 15  1  0  0  0  0
M  CHG  1  12   1
M  END
> <ref_mols>
x0864_0

> <original SMILES>
CN1C[C@@H](C(OC(C)(C)C)=O)C[C@@H]1C

> <Chemgauss4>
-8.672071

> <ref_pdb>
x0195_0

$$$$
x0474
  -OEChem-05172015543D

 19 20  0     0  0  0  0  0  0999 V2000
   12.5067   -1.5224   22.3638 C   0  0  0  0  0  0  0  0  0  0  0  0
   11.0103   -0.2007   23.7244 C   0  0  0  0  0  0  0  0  0  0  0  0
    6.9530   -0.1098   18.9306 C   0  0  0  0  0  0  0  0  0  0  0  0
    6.4001    0.4992   21.2022 C   0  0  0  0  0  0  0  0  0  0  0  0
   13.6003   -0.8686   22.9314 C   0  0  0  0  0  0  0  0  0  0  0  0
   12.1040    0.4530   24.2921 C   0  0  0  0  0  0  0  0  0  0  0  0
    5.8436    0.5995   18.4704 C   0  0  0  0  0  0  0  0  0  0  0  0
    5.2907    1.2086   20.7421 C   0  0  0  0  0  0  0  0  0  0  0  0
   11.2117   -1.1884   22.7603 C   0  0  0  0  0  0  0  0  0  0  0  0
    7.2312   -0.1601   20.2965 C   0  0  0  0  0  0  0  0  0  0  0  0
   13.3990    0.1191   23.8956 C   0  0  0  0  0  0  0  0  0  0  0  0
    5.0125    1.2587   19.3761 C   0  0  0  0  0  0  0  0  0  0  0  0
    8.7788   -1.0333   22.0818 C   0  0  0  0  0  0  0  0  0  0  0  0
   10.0420   -1.8875   22.1543 C   0  0  0  0  0  0  0  0  0  0  0  0
    8.3566   -0.8799   20.7636 N   0  0  0  0  0  0  0  0  0  0  0  0
    8.2533   -0.5701   23.0889 O   0  0  0  0  0  0  0  0  0  0  0  0
   14.4492    0.7451   24.4428 F   0  0  0  0  0  0  0  0  0  0  0  0
    3.9477    1.9409   18.9343 F   0  0  0  0  0  0  0  0  0  0  0  0
    8.9232   -1.3390   20.0535 H   0  0  0  0  0  0  0  0  0  0  0  0
  1  5  2  0  0  0  0
  1  9  1  0  0  0  0
  2  6  1  0  0  0  0
  2  9  2  0  0  0  0
  3  7  2  0  0  0  0
  3 10  1  0  0  0  0
  4  8  1  0  0  0  0
  4 10  2  0  0  0  0
  5 11  1  0  0  0  0
  6 11  2  0  0  0  0
  7 12  1  0  0  0  0
  8 12  2  0  0  0  0
  9 14  1  0  0  0  0
 10 15  1  0  0  0  0
 11 17  1  0  0  0  0
 12 18  1  0  0  0  0
 13 14  1  0  0  0  0
 13 15  1  0  0  0  0
 13 16  2  0  0  0  0
 15 19  1  0  0  0  0
M  END
> <ref_mols>
x0474_0

> <original SMILES>
FC=1C=CC(CC(=O)NC=2C=CC(F)=CC2)=CC1

> <Chemgauss4>
-8.669066

> <ref_pdb>
x1093_0

$$$$
x2574
  -OEChem-05172015543D

 23 25  0     0  0  0  0  0  0999 V2000
    5.6880   -1.0556   18.4218 C   0  0  0  0  0  0  0  0  0  0  0  0
   12.7403    2.2635   23.3297 C   0  0  0  0  0  0  0  0  0  0  0  0
   11.5364    2.2446   24.0301 C   0  0  0  0  0  0  0  0  0  0  0  0
    5.2390    1.0750   21.4409 C   0  0  0  0  0  0  0  0  0  0  0  0
    5.0682    0.5473   20.1611 C   0  0  0  0  0  0  0  0  0  0  0  0
   13.2666    1.0795   22.8136 C   0  0  0  0  0  0  0  0  0  0  0  0
   10.8533    1.0417   24.2175 C   0  0  0  0  0  0  0  0  0  0  0  0
    6.2058    0.5402   22.2925 C   0  0  0  0  0  0  0  0  0  0  0  0
    6.8308   -1.0500   20.5844 C   0  0  0  0  0  0  0  0  0  0  0  0
   13.0686   -1.3505   22.5013 C   0  0  0  0  0  0  0  0  0  0  0  0
   11.2813   -2.5245   23.3392 C   0  0  0  0  0  0  0  0  0  0  0  0
    5.8640   -0.5152   19.7329 C   0  0  0  0  0  0  0  0  0  0  0  0
   12.5877   -0.1367   22.9961 C   0  0  0  0  0  0  0  0  0  0  0  0
   11.3686   -0.1599   23.7046 C   0  0  0  0  0  0  0  0  0  0  0  0
   10.7077   -1.3818   23.8757 C   0  0  0  0  0  0  0  0  0  0  0  0
    7.0016   -0.5222   21.8643 C   0  0  0  0  0  0  0  0  0  0  0  0
    8.2867   -0.6612   24.0263 C   0  0  0  0  0  0  0  0  0  0  0  0
    9.4138   -1.5087   24.6094 C   0  0  0  0  0  0  0  0  0  0  0  0
    5.5452   -1.4945   17.3571 N   0  0  0  0  0  0  0  0  0  0  0  0
   12.4455   -2.5406   22.6559 N   0  0  0  0  0  0  0  0  0  0  0  0
    7.9833   -1.0636   22.7281 N   0  0  0  0  0  0  0  0  0  0  0  0
    7.7589    0.2426   24.6664 O   0  0  0  0  0  0  0  0  0  0  0  0
    8.5313   -1.8372   22.3573 H   0  0  0  0  0  0  0  0  0  0  0  0
  1 12  1  0  0  0  0
  1 19  3  0  0  0  0
  2  3  1  0  0  0  0
  2  6  2  0  0  0  0
  3  7  2  0  0  0  0
  4  5  1  0  0  0  0
  4  8  2  0  0  0  0
  5 12  2  0  0  0  0
  6 13  1  0  0  0  0
  7 14  1  0  0  0  0
  8 16  1  0  0  0  0
  9 12  1  0  0  0  0
  9 16  2  0  0  0  0
 10 13  2  0  0  0  0
 10 20  1  0  0  0  0
 11 15  1  0  0  0  0
 11 20  2  0  0  0  0
 13 14  1  0  0  0  0
 14 15  2  0  0  0  0
 15 18  1  0  0  0  0
 16 21  1  0  0  0  0
 17 18  1  0  0  0  0
 17 21  1  0  0  0  0
 17 22  2  0  0  0  0
 21 23  1  0  0  0  0
M  END
> <ref_mols>
x2574_0

> <original SMILES>
O=C(CC=1C=NC=C2C=CC=CC12)NC=3C=CC=C(C#N)C3

> <Chemgauss4>
-8.666809

> <ref_pdb>
x0831_0

$$$$
x2064
  -OEChem-05172015543D

 19 21  0     1  0  0  0  0  0999 V2000
   13.4695   -1.9526   25.3073 C   0  0  0  0  0  0  0  0  0  0  0  0
   13.2627   -0.9204   24.3792 C   0  0  0  0  0  0  0  0  0  0  0  0
   12.5476   -2.9933   25.4288 C   0  0  0  0  0  0  0  0  0  0  0  0
   12.1307   -0.9142   23.5596 C   0  0  0  0  0  0  0  0  0  0  0  0
   11.4299   -2.9715   24.6084 C   0  0  0  0  0  0  0  0  0  0  0  0
   11.2183   -1.9495   23.6844 C   0  0  0  0  0  0  0  0  0  0  0  0
   10.3526   -3.9786   24.5926 C   0  0  0  0  0  0  0  0  0  0  0  0
    6.8932   -4.5874   21.4907 C   0  0  0  0  0  0  0  0  0  0  0  0
    7.3353   -4.5080   24.5910 C   0  0  0  0  0  0  0  0  0  0  0  0
    7.3247   -5.9784   21.8474 C   0  0  0  0  0  0  0  0  0  0  0  0
    8.5253   -5.7279   22.7342 C   0  0  0  0  0  0  0  0  0  0  0  0
    8.2117   -4.3864   23.3563 C   0  0  2  0  0  0  0  0  0  0  0  0
    9.3996   -3.6311   23.6445 N   0  0  0  0  0  0  0  0  0  0  0  0
    7.0412   -3.4168   25.1530 O   0  5  0  0  0  0  0  0  0  0  0  0
   10.3603   -4.9514   25.3310 O   0  0  0  0  0  0  0  0  0  0  0  0
    6.1356   -4.2918   20.5797 O   0  0  0  0  0  0  0  0  0  0  0  0
    7.0128   -5.6902   24.8973 O   0  0  0  0  0  0  0  0  0  0  0  0
    7.4463   -3.6903   22.3638 O   0  0  0  0  0  0  0  0  0  0  0  0
    9.7173   -2.1864   22.7816 S   0  0  0  0  0  0  0  0  0  0  0  0
  1  2  1  0  0  0  0
  1  3  2  0  0  0  0
  2  4  2  0  0  0  0
  3  5  1  0  0  0  0
  4  6  1  0  0  0  0
  5  6  2  0  0  0  0
  5  7  1  0  0  0  0
  6 19  1  0  0  0  0
  7 13  1  0  0  0  0
  7 15  2  0  0  0  0
  8 10  1  0  0  0  0
  8 16  2  0  0  0  0
  8 18  1  0  0  0  0
  9 12  1  0  0  0  0
  9 14  1  0  0  0  0
  9 17  2  0  0  0  0
 10 11  1  0  0  0  0
 11 12  1  0  0  0  0
 12 13  1  0  0  0  0
 12 18  1  0  0  0  0
 13 19  1  0  0  0  0
M  CHG  1  14  -1
M  END
> <ref_mols>
x2064_0

> <original SMILES>
O=C1C2=CC=CC=C2SN1C3(C(O)=O)OC(CC3)=O

> <Chemgauss4>
-8.664088

> <ref_pdb>
x0749_0

$$$$
x2655
  -OEChem-05172015543D

 19 20  0     0  0  0  0  0  0999 V2000
    6.6176   -5.5764   21.6466 C   0  0  0  0  0  0  0  0  0  0  0  0
    7.6304   -6.2072   22.3690 C   0  0  0  0  0  0  0  0  0  0  0  0
    6.6685   -4.1992   21.4311 C   0  0  0  0  0  0  0  0  0  0  0  0
    8.6941   -5.4608   22.8760 C   0  0  0  0  0  0  0  0  0  0  0  0
    7.7322   -3.4528   21.9381 C   0  0  0  0  0  0  0  0  0  0  0  0
   13.7606   -1.9521   25.5257 C   0  0  0  0  0  0  0  0  0  0  0  0
   13.5496   -0.6317   25.1289 C   0  0  0  0  0  0  0  0  0  0  0  0
   11.4010   -1.2501   24.2134 C   0  0  0  0  0  0  0  0  0  0  0  0
   11.6120   -2.5706   24.6102 C   0  0  0  0  0  0  0  0  0  0  0  0
    8.7450   -4.0836   22.6606 C   0  0  0  0  0  0  0  0  0  0  0  0
   12.7918   -2.9216   25.2663 C   0  0  0  0  0  0  0  0  0  0  0  0
   12.3698   -0.2806   24.4727 C   0  0  0  0  0  0  0  0  0  0  0  0
   10.5891   -3.5680   24.3277 C   0  0  0  0  0  0  0  0  0  0  0  0
    9.8263   -3.3252   23.1759 N   0  0  0  0  0  0  0  0  0  0  0  0
   10.3982   -4.5330   25.0791 O   0  0  0  0  0  0  0  0  0  0  0  0
   13.0174   -4.2068   25.6600 O   0  0  0  0  0  0  0  0  0  0  0  0
   12.1087    1.3490   23.9850 Cl  0  0  0  0  0  0  0  0  0  0  0  0
   10.0819   -2.4985   22.6415 H   0  0  0  0  0  0  0  0  0  0  0  0
   12.2651   -4.7682   25.4163 H   0  0  0  0  0  0  0  0  0  0  0  0
  1  2  1  0  0  0  0
  1  3  2  0  0  0  0
  2  4  2  0  0  0  0
  3  5  1  0  0  0  0
  4 10  1  0  0  0  0
  5 10  2  0  0  0  0
  6  7  2  0  0  0  0
  6 11  1  0  0  0  0
  7 12  1  0  0  0  0
  8  9  1  0  0  0  0
  8 12  2  0  0  0  0
  9 11  2  0  0  0  0
  9 13  1  0  0  0  0
 10 14  1  0  0  0  0
 11 16  1  0  0  0  0
 12 17  1  0  0  0  0
 13 14  1  0  0  0  0
 13 15  2  0  0  0  0
 14 18  1  0  0  0  0
 16 19  1  0  0  0  0
M  END
> <ref_mols>
x2655_0

> <original SMILES>
OC=1C=CC(Cl)=CC1C(=O)NC=2C=CC=CC2

> <Chemgauss4>
-8.661772

> <ref_pdb>
x0749_0

$$$$
x2487
  -OEChem-05172015543D

 19 20  0     0  0  0  0  0  0999 V2000
    6.6176   -5.5764   21.6466 C   0  0  0  0  0  0  0  0  0  0  0  0
    7.6304   -6.2072   22.3690 C   0  0  0  0  0  0  0  0  0  0  0  0
    6.6685   -4.1992   21.4311 C   0  0  0  0  0  0  0  0  0  0  0  0
    8.6941   -5.4608   22.8760 C   0  0  0  0  0  0  0  0  0  0  0  0
    7.7322   -3.4528   21.9381 C   0  0  0  0  0  0  0  0  0  0  0  0
   13.7606   -1.9521   25.5257 C   0  0  0  0  0  0  0  0  0  0  0  0
   13.5496   -0.6317   25.1289 C   0  0  0  0  0  0  0  0  0  0  0  0
   11.4010   -1.2501   24.2134 C   0  0  0  0  0  0  0  0  0  0  0  0
   11.6120   -2.5706   24.6102 C   0  0  0  0  0  0  0  0  0  0  0  0
    8.7450   -4.0836   22.6606 C   0  0  0  0  0  0  0  0  0  0  0  0
   12.7918   -2.9216   25.2663 C   0  0  0  0  0  0  0  0  0  0  0  0
   12.3698   -0.2806   24.4727 C   0  0  0  0  0  0  0  0  0  0  0  0
   10.5891   -3.5680   24.3277 C   0  0  0  0  0  0  0  0  0  0  0  0
    9.8263   -3.3252   23.1759 N   0  0  0  0  0  0  0  0  0  0  0  0
   10.3982   -4.5330   25.0791 O   0  0  0  0  0  0  0  0  0  0  0  0
   13.0174   -4.2068   25.6600 O   0  0  0  0  0  0  0  0  0  0  0  0
   12.1087    1.3490   23.9850 Cl  0  0  0  0  0  0  0  0  0  0  0  0
   10.0819   -2.4985   22.6415 H   0  0  0  0  0  0  0  0  0  0  0  0
   12.2651   -4.7682   25.4163 H   0  0  0  0  0  0  0  0  0  0  0  0
  1  2  1  0  0  0  0
  1  3  2  0  0  0  0
  2  4  2  0  0  0  0
  3  5  1  0  0  0  0
  4 10  1  0  0  0  0
  5 10  2  0  0  0  0
  6  7  2  0  0  0  0
  6 11  1  0  0  0  0
  7 12  1  0  0  0  0
  8  9  1  0  0  0  0
  8 12  2  0  0  0  0
  9 11  2  0  0  0  0
  9 13  1  0  0  0  0
 10 14  1  0  0  0  0
 11 16  1  0  0  0  0
 12 17  1  0  0  0  0
 13 14  1  0  0  0  0
 13 15  2  0  0  0  0
 14 18  1  0  0  0  0
 16 19  1  0  0  0  0
M  END
> <ref_mols>
x2487_0

> <original SMILES>
OC=1C=CC(Cl)=CC1C(=O)NC=2C=CC=CC2

> <Chemgauss4>
-8.661772

> <ref_pdb>
x0749_0

$$$$
x0410
  -OEChem-05172015543D

 19 20  0     0  0  0  0  0  0999 V2000
   10.3513    0.4318   21.0136 C   0  0  0  0  0  0  0  0  0  0  0  0
    5.4705    0.5730   18.7110 C   0  0  0  0  0  0  0  0  0  0  0  0
    6.8085    0.8362   18.0258 C   0  0  0  0  0  0  0  0  0  0  0  0
    5.4948    0.9990   20.1763 C   0  0  0  0  0  0  0  0  0  0  0  0
    7.9660    0.1844   18.7804 C   0  0  0  0  0  0  0  0  0  0  0  0
    6.6504    0.3468   20.9334 C   0  0  0  0  0  0  0  0  0  0  0  0
   12.6514    0.0484   21.8607 C   0  0  0  0  0  0  0  0  0  0  0  0
   10.9008   -1.6414   22.3772 C   0  0  0  0  0  0  0  0  0  0  0  0
   13.5987   -1.1285   21.6905 C   0  0  0  0  0  0  0  0  0  0  0  0
   11.9514   -2.0934   23.3781 C   0  0  0  0  0  0  0  0  0  0  0  0
    7.9932    0.6237   20.2485 C   0  0  0  0  0  0  0  0  0  0  0  0
   14.5546   -1.2078   24.5290 C   0  0  0  0  0  0  0  0  0  0  0  0
   14.4007   -2.4469   23.6745 C   0  0  0  0  0  0  0  0  0  0  0  0
   11.2559   -0.3724   21.7305 N   0  0  0  0  0  0  0  0  0  0  0  0
    9.0530   -0.0664   20.9481 N   0  0  0  0  0  0  0  0  0  0  0  0
   13.2882   -2.2314   22.6853 N   0  3  0  0  0  0  0  0  0  0  0  0
   10.6761    1.4952   20.4770 O   0  0  0  0  0  0  0  0  0  0  0  0
    8.8512   -0.9475   21.4114 H   0  0  0  0  0  0  0  0  0  0  0  0
   13.2434   -3.1285   22.1333 H   0  0  0  0  0  0  0  0  0  0  0  0
  1 14  1  0  0  0  0
  1 15  1  0  0  0  0
  1 17  2  0  0  0  0
  2  3  1  0  0  0  0
  2  4  1  0  0  0  0
  3  5  1  0  0  0  0
  4  6  1  0  0  0  0
  5 11  1  0  0  0  0
  6 11  1  0  0  0  0
  7  9  1  0  0  0  0
  7 14  1  0  0  0  0
  8 10  1  0  0  0  0
  8 14  1  0  0  0  0
  9 16  1  0  0  0  0
 10 16  1  0  0  0  0
 11 15  1  0  0  0  0
 12 13  1  0  0  0  0
 13 16  1  0  0  0  0
 15 18  1  0  0  0  0
 16 19  1  0  0  0  0
M  CHG  1  16   1
M  END
> <ref_mols>
x0410_0

> <original SMILES>
CCN1CCN(CC1)C(=O)NC2CCCCC2

> <Chemgauss4>
-8.660185

> <ref_pdb>
x0678_0

$$$$
x1107
  -OEChem-05172015543D

 19 20  0     0  0  0  0  0  0999 V2000
   10.3513    0.4318   21.0136 C   0  0  0  0  0  0  0  0  0  0  0  0
    5.4705    0.5730   18.7110 C   0  0  0  0  0  0  0  0  0  0  0  0
    6.8085    0.8362   18.0258 C   0  0  0  0  0  0  0  0  0  0  0  0
    5.4948    0.9990   20.1763 C   0  0  0  0  0  0  0  0  0  0  0  0
    7.9660    0.1844   18.7804 C   0  0  0  0  0  0  0  0  0  0  0  0
    6.6504    0.3468   20.9334 C   0  0  0  0  0  0  0  0  0  0  0  0
   12.6514    0.0484   21.8607 C   0  0  0  0  0  0  0  0  0  0  0  0
   10.9008   -1.6414   22.3772 C   0  0  0  0  0  0  0  0  0  0  0  0
   13.5987   -1.1285   21.6905 C   0  0  0  0  0  0  0  0  0  0  0  0
   11.9514   -2.0934   23.3781 C   0  0  0  0  0  0  0  0  0  0  0  0
    7.9932    0.6237   20.2485 C   0  0  0  0  0  0  0  0  0  0  0  0
   14.5546   -1.2078   24.5290 C   0  0  0  0  0  0  0  0  0  0  0  0
   14.4007   -2.4469   23.6745 C   0  0  0  0  0  0  0  0  0  0  0  0
   11.2559   -0.3724   21.7305 N   0  0  0  0  0  0  0  0  0  0  0  0
    9.0530   -0.0664   20.9481 N   0  0  0  0  0  0  0  0  0  0  0  0
   13.2882   -2.2314   22.6853 N   0  3  0  0  0  0  0  0  0  0  0  0
   10.6761    1.4952   20.4770 O   0  0  0  0  0  0  0  0  0  0  0  0
    8.8512   -0.9475   21.4114 H   0  0  0  0  0  0  0  0  0  0  0  0
   13.2434   -3.1285   22.1333 H   0  0  0  0  0  0  0  0  0  0  0  0
  1 14  1  0  0  0  0
  1 15  1  0  0  0  0
  1 17  2  0  0  0  0
  2  3  1  0  0  0  0
  2  4  1  0  0  0  0
  3  5  1  0  0  0  0
  4  6  1  0  0  0  0
  5 11  1  0  0  0  0
  6 11  1  0  0  0  0
  7  9  1  0  0  0  0
  7 14  1  0  0  0  0
  8 10  1  0  0  0  0
  8 14  1  0  0  0  0
  9 16  1  0  0  0  0
 10 16  1  0  0  0  0
 11 15  1  0  0  0  0
 12 13  1  0  0  0  0
 13 16  1  0  0  0  0
 15 18  1  0  0  0  0
 16 19  1  0  0  0  0
M  CHG  1  16   1
M  END
> <ref_mols>
x1107_0

> <original SMILES>
CCN1CCN(CC1)C(=O)NC2CCCCC2

> <Chemgauss4>
-8.660185

> <ref_pdb>
x0678_0

$$$$
x2623
  -OEChem-05172015543D

 25 27  0     1  0  0  0  0  0999 V2000
   12.2978    4.3987   23.9124 C   0  0  0  0  0  0  0  0  0  0  0  0
   11.0407    4.0810   24.4264 C   0  0  0  0  0  0  0  0  0  0  0  0
   12.8530    3.6204   22.8967 C   0  0  0  0  0  0  0  0  0  0  0  0
   10.3387    2.9849   23.9248 C   0  0  0  0  0  0  0  0  0  0  0  0
   12.1511    2.5243   22.3951 C   0  0  0  0  0  0  0  0  0  0  0  0
   13.9306   -1.0609   23.5523 C   0  0  0  0  0  0  0  0  0  0  0  0
   13.6088   -1.4667   22.2432 C   0  0  0  0  0  0  0  0  0  0  0  0
    6.9464   -0.0073   18.8355 C   0  0  0  0  0  0  0  0  0  0  0  0
   12.7552   -0.5588   24.0549 C   0  0  0  0  0  0  0  0  0  0  0  0
   10.8940    2.2065   22.9092 C   0  0  0  0  0  0  0  0  0  0  0  0
    5.9826    0.7350   19.5321 C   0  0  0  0  0  0  0  0  0  0  0  0
    8.0751    1.9333   21.3215 C   0  0  0  0  0  0  0  0  0  0  0  0
    5.7899    0.8876   21.0187 C   0  0  0  0  0  0  0  0  0  0  0  0
    6.5839    2.0690   21.5730 C   0  0  0  0  0  0  0  0  0  0  0  0
   10.4314   -0.2947   23.1129 C   0  0  0  0  0  0  0  0  0  0  0  0
   10.1318    1.0151   22.3638 C   0  0  1  0  0  0  0  0  0  0  0  0
   12.3291   -1.2420   21.9337 N   0  0  0  0  0  0  0  0  0  0  0  0
    6.7613    0.1314   17.5197 N   0  0  0  0  0  0  0  0  0  0  0  0
    5.1754    1.3546   18.6665 N   0  0  0  0  0  0  0  0  0  0  0  0
    5.6972    0.9501   17.4974 N   0  0  0  0  0  0  0  0  0  0  0  0
   11.8364   -0.6895   23.0554 N   0  0  0  0  0  0  0  0  0  0  0  0
    8.7105    1.2703   22.3613 N   0  0  0  0  0  0  0  0  0  0  0  0
    8.6312    2.3655   20.3155 O   0  0  0  0  0  0  0  0  0  0  0  0
    5.2964    1.2554   16.6177 H   0  0  0  0  0  0  0  0  0  0  0  0
    8.1723    0.9806   23.1727 H   0  0  0  0  0  0  0  0  0  0  0  0
  1  2  1  0  0  0  0
  1  3  2  0  0  0  0
  2  4  2  0  0  0  0
  3  5  1  0  0  0  0
  4 10  1  0  0  0  0
  5 10  2  0  0  0  0
  6  7  1  0  0  0  0
  6  9  2  0  0  0  0
  7 17  2  0  0  0  0
  8 11  1  0  0  0  0
  8 18  2  0  0  0  0
  9 21  1  0  0  0  0
 10 16  1  0  0  0  0
 11 13  1  0  0  0  0
 11 19  2  0  0  0  0
 12 14  1  0  0  0  0
 12 22  1  0  0  0  0
 12 23  2  0  0  0  0
 13 14  1  0  0  0  0
 15 16  1  0  0  0  0
 15 21  1  0  0  0  0
 16 22  1  0  0  0  0
 17 21  1  0  0  0  0
 18 20  1  0  0  0  0
 19 20  1  0  0  0  0
 20 24  1  0  0  0  0
 22 25  1  0  0  0  0
M  END
> <ref_mols>
x2623_0

> <original SMILES>
O=C(CCC1=CNN=N1)NC(CN2C=CC=N2)C=3C=CC=CC3

> <Chemgauss4>
-8.655871

> <ref_pdb>
x0678_0

$$$$
x0371
  -OEChem-05172015543D

 18 19  0     0  0  0  0  0  0999 V2000
   11.6097   -1.9822   22.2425 C   0  0  0  0  0  0  0  0  0  0  0  0
   10.9359    0.1265   23.2101 C   0  0  0  0  0  0  0  0  0  0  0  0
    6.9374    0.3221   21.0332 C   0  0  0  0  0  0  0  0  0  0  0  0
    7.7149    0.0361   18.7636 C   0  0  0  0  0  0  0  0  0  0  0  0
    5.7496    0.8764   20.5564 C   0  0  0  0  0  0  0  0  0  0  0  0
    6.5270    0.5904   18.2869 C   0  0  0  0  0  0  0  0  0  0  0  0
   12.8966   -1.8039   22.7500 C   0  0  0  0  0  0  0  0  0  0  0  0
   12.2228    0.3048   23.7177 C   0  0  0  0  0  0  0  0  0  0  0  0
   10.6293   -1.0170   22.4725 C   0  0  0  0  0  0  0  0  0  0  0  0
    7.9201   -0.0980   20.1367 C   0  0  0  0  0  0  0  0  0  0  0  0
    5.5443    1.0105   19.1833 C   0  0  0  0  0  0  0  0  0  0  0  0
   13.2032   -0.6604   23.4876 C   0  0  0  0  0  0  0  0  0  0  0  0
    3.4234    1.9599   19.6897 C   0  0  0  0  0  0  0  0  0  0  0  0
    9.2530   -1.2074   21.9308 C   0  0  0  0  0  0  0  0  0  0  0  0
    9.1016   -0.6493   20.6109 N   0  0  0  0  0  0  0  0  0  0  0  0
    4.3852    1.5514   18.7181 O   0  0  0  0  0  0  0  0  0  0  0  0
   14.4383   -0.4903   23.9774 F   0  0  0  0  0  0  0  0  0  0  0  0
    9.9054   -0.6579   19.9908 H   0  0  0  0  0  0  0  0  0  0  0  0
  1  7  2  0  0  0  0
  1  9  1  0  0  0  0
  2  8  1  0  0  0  0
  2  9  2  0  0  0  0
  3  5  2  0  0  0  0
  3 10  1  0  0  0  0
  4  6  1  0  0  0  0
  4 10  2  0  0  0  0
  5 11  1  0  0  0  0
  6 11  2  0  0  0  0
  7 12  1  0  0  0  0
  8 12  2  0  0  0  0
  9 14  1  0  0  0  0
 10 15  1  0  0  0  0
 11 16  1  0  0  0  0
 12 17  1  0  0  0  0
 13 16  1  0  0  0  0
 14 15  1  0  0  0  0
 15 18  1  0  0  0  0
M  END
> <ref_mols>
x0371_0

> <original SMILES>
COC=1C=CC(NCC=2C=CC(F)=CC2)=CC1

> <Chemgauss4>
-8.655661

> <ref_pdb>
x1093_0

$$$$
x2607
  -OEChem-05172015543D

 27 29  0     0  0  0  0  0  0999 V2000
   13.5511   -0.8501   23.9290 C   0  0  0  0  0  0  0  0  0  0  0  0
   13.3552   -1.4271   22.6743 C   0  0  0  0  0  0  0  0  0  0  0  0
   12.4533   -0.4661   24.6992 C   0  0  0  0  0  0  0  0  0  0  0  0
    6.0739   -5.3062   25.1156 C   0  0  0  0  0  0  0  0  0  0  0  0
    7.7081   -4.5853   26.7425 C   0  0  0  0  0  0  0  0  0  0  0  0
   12.0615   -1.6199   22.1896 C   0  0  0  0  0  0  0  0  0  0  0  0
    5.4040   -6.0237   26.1065 C   0  0  0  0  0  0  0  0  0  0  0  0
    7.0381   -5.3027   27.7334 C   0  0  0  0  0  0  0  0  0  0  0  0
   11.1596   -0.6589   24.2145 C   0  0  0  0  0  0  0  0  0  0  0  0
    7.2261   -4.5870   25.4335 C   0  0  0  0  0  0  0  0  0  0  0  0
   10.9637   -1.2358   22.9598 C   0  0  0  0  0  0  0  0  0  0  0  0
    5.8860   -6.0220   27.4154 C   0  0  0  0  0  0  0  0  0  0  0  0
    7.6407   -2.7851   22.2663 C   0  0  0  0  0  0  0  0  0  0  0  0
    9.8242   -3.8370   22.9435 C   0  0  0  0  0  0  0  0  0  0  0  0
    7.1989   -2.8049   23.7299 C   0  0  0  0  0  0  0  0  0  0  0  0
    9.3523   -3.8434   24.3997 C   0  0  0  0  0  0  0  0  0  0  0  0
    9.1635   -2.7336   22.1148 C   0  0  0  0  0  0  0  0  0  0  0  0
   10.0023   -0.2382   25.0607 C   0  0  0  0  0  0  0  0  0  0  0  0
    7.8879   -3.8786   24.4557 N   0  0  0  0  0  0  0  0  0  0  0  0
    5.8294   -8.4359   28.5443 N   0  0  0  0  0  0  0  0  0  0  0  0
    9.6892   -1.4344   22.4639 N   0  0  0  0  0  0  0  0  0  0  0  0
    5.3630   -6.3238   29.9469 O   0  0  0  0  0  0  0  0  0  0  0  0
    3.6582   -7.0801   28.2530 O   0  0  0  0  0  0  0  0  0  0  0  0
    5.0484   -6.9203   28.6563 S   0  0  0  0  0  0  0  0  0  0  0  0
    6.4666   -8.7069   29.3033 H   0  0  0  0  0  0  0  0  0  0  0  0
    5.3019   -9.2216   28.1447 H   0  0  0  0  0  0  0  0  0  0  0  0
    9.0871   -0.6330   22.3346 H   0  0  0  0  0  0  0  0  0  0  0  0
  1  2  1  0  0  0  0
  1  3  2  0  0  0  0
  2  6  2  0  0  0  0
  3  9  1  0  0  0  0
  4  7  2  0  0  0  0
  4 10  1  0  0  0  0
  5  8  1  0  0  0  0
  5 10  2  0  0  0  0
  6 11  1  0  0  0  0
  7 12  1  0  0  0  0
  8 12  2  0  0  0  0
  9 11  2  0  0  0  0
  9 18  1  0  0  0  0
 10 19  1  0  0  0  0
 11 21  1  0  0  0  0
 12 24  1  0  0  0  0
 13 15  1  0  0  0  0
 13 17  1  0  0  0  0
 14 16  1  0  0  0  0
 14 17  1  0  0  0  0
 15 19  1  0  0  0  0
 16 19  1  0  0  0  0
 17 21  1  0  0  0  0
 20 24  1  0  0  0  0
 22 24  2  0  0  0  0
 23 24  2  0  0  0  0
 20 25  1  0  0  0  0
 20 26  1  0  0  0  0
 21 27  1  0  0  0  0
M  END
> <ref_mols>
x2607_0

> <original SMILES>
CC=1C=CC=CC1NC2CCN(CC2)C=3C=CC(=CC3)S(=O)(=O)N

> <Chemgauss4>
-8.649417

> <ref_pdb>
x0072_0

$$$$
x2031
  -OEChem-05172015543D

 22 25  0     0  0  0  0  0  0999 V2000
   14.1922   -0.6729   24.8875 C   0  0  0  0  0  0  0  0  0  0  0  0
   13.5872   -0.8760   26.0597 C   0  0  0  0  0  0  0  0  0  0  0  0
   12.1088   -0.9580   26.0969 C   0  0  0  0  0  0  0  0  0  0  0  0
    9.3377   -5.2043   23.9352 C   0  0  0  0  0  0  0  0  0  0  0  0
    6.3350   -4.6051   20.8868 C   0  0  0  0  0  0  0  0  0  0  0  0
    5.1411   -5.4934   22.9060 C   0  0  0  0  0  0  0  0  0  0  0  0
    5.7546   -3.0649   22.7797 C   0  0  0  0  0  0  0  0  0  0  0  0
    7.5322   -6.1213   22.4859 C   0  0  0  0  0  0  0  0  0  0  0  0
    8.1466   -3.6887   22.3594 C   0  0  0  0  0  0  0  0  0  0  0  0
    6.9521   -4.5790   24.3816 C   0  0  0  0  0  0  0  0  0  0  0  0
   12.1616   -3.2611   25.0483 C   0  0  0  0  0  0  0  0  0  0  0  0
   10.2338   -1.7515   24.7043 C   0  0  0  0  0  0  0  0  0  0  0  0
   11.2020   -4.4075   25.3559 C   0  0  0  0  0  0  0  0  0  0  0  0
    9.2772   -2.8999   25.0132 C   0  0  0  0  0  0  0  0  0  0  0  0
    6.1793   -5.8196   21.8182 C   0  0  0  0  0  0  0  0  0  0  0  0
    6.7961   -3.3773   21.6911 C   0  0  0  0  0  0  0  0  0  0  0  0
    5.5962   -4.2709   23.7221 C   0  0  0  0  0  0  0  0  0  0  0  0
    8.0035   -4.9007   23.3015 C   0  0  0  0  0  0  0  0  0  0  0  0
   11.5330   -1.9676   25.3407 N   0  0  0  0  0  0  0  0  0  0  0  0
    9.9049   -4.1930   24.7086 N   0  0  0  0  0  0  0  0  0  0  0  0
   11.5500   -0.1203   26.7927 O   0  0  0  0  0  0  0  0  0  0  0  0
    9.8596   -6.3058   23.7452 O   0  0  0  0  0  0  0  0  0  0  0  0
  1  2  2  0  0  0  0
  2  3  1  0  0  0  0
  3 19  1  0  0  0  0
  3 21  2  0  0  0  0
  4 18  1  0  0  0  0
  4 20  1  0  0  0  0
  4 22  2  0  0  0  0
  5 15  1  0  0  0  0
  5 16  1  0  0  0  0
  6 15  1  0  0  0  0
  6 17  1  0  0  0  0
  7 16  1  0  0  0  0
  7 17  1  0  0  0  0
  8 15  1  0  0  0  0
  8 18  1  0  0  0  0
  9 16  1  0  0  0  0
  9 18  1  0  0  0  0
 10 17  1  0  0  0  0
 10 18  1  0  0  0  0
 11 13  1  0  0  0  0
 11 19  1  0  0  0  0
 12 14  1  0  0  0  0
 12 19  1  0  0  0  0
 13 20  1  0  0  0  0
 14 20  1  0  0  0  0
M  END
> <ref_mols>
x2031_0

> <original SMILES>
C=CC(=O)N1CCN(CC1)C(=O)C23CC4CC(CC(C4)C2)C3

> <Chemgauss4>
-8.649374

> <ref_pdb>
x0749_0

> <CYS145-warhead dist minimum (A)>
7.680996

> <CYS145-warhead dist mean (A)>
9.633186

> <CYS145-warhead dist stddev (A)>
0.42461377

$$$$
x2783
  -OEChem-05172015543D

 22 25  0     0  0  0  0  0  0999 V2000
   14.1922   -0.6729   24.8875 C   0  0  0  0  0  0  0  0  0  0  0  0
   13.5872   -0.8760   26.0597 C   0  0  0  0  0  0  0  0  0  0  0  0
   12.1088   -0.9580   26.0969 C   0  0  0  0  0  0  0  0  0  0  0  0
    9.3377   -5.2043   23.9352 C   0  0  0  0  0  0  0  0  0  0  0  0
    6.3350   -4.6051   20.8868 C   0  0  0  0  0  0  0  0  0  0  0  0
    5.1411   -5.4934   22.9060 C   0  0  0  0  0  0  0  0  0  0  0  0
    5.7546   -3.0649   22.7797 C   0  0  0  0  0  0  0  0  0  0  0  0
    7.5322   -6.1213   22.4859 C   0  0  0  0  0  0  0  0  0  0  0  0
    8.1466   -3.6887   22.3594 C   0  0  0  0  0  0  0  0  0  0  0  0
    6.9521   -4.5790   24.3816 C   0  0  0  0  0  0  0  0  0  0  0  0
   12.1616   -3.2611   25.0483 C   0  0  0  0  0  0  0  0  0  0  0  0
   10.2338   -1.7515   24.7043 C   0  0  0  0  0  0  0  0  0  0  0  0
   11.2020   -4.4075   25.3559 C   0  0  0  0  0  0  0  0  0  0  0  0
    9.2772   -2.8999   25.0132 C   0  0  0  0  0  0  0  0  0  0  0  0
    6.1793   -5.8196   21.8182 C   0  0  0  0  0  0  0  0  0  0  0  0
    6.7961   -3.3773   21.6911 C   0  0  0  0  0  0  0  0  0  0  0  0
    5.5962   -4.2709   23.7221 C   0  0  0  0  0  0  0  0  0  0  0  0
    8.0035   -4.9007   23.3015 C   0  0  0  0  0  0  0  0  0  0  0  0
   11.5330   -1.9676   25.3407 N   0  0  0  0  0  0  0  0  0  0  0  0
    9.9049   -4.1930   24.7086 N   0  0  0  0  0  0  0  0  0  0  0  0
   11.5500   -0.1203   26.7927 O   0  0  0  0  0  0  0  0  0  0  0  0
    9.8596   -6.3058   23.7452 O   0  0  0  0  0  0  0  0  0  0  0  0
  1  2  2  0  0  0  0
  2  3  1  0  0  0  0
  3 19  1  0  0  0  0
  3 21  2  0  0  0  0
  4 18  1  0  0  0  0
  4 20  1  0  0  0  0
  4 22  2  0  0  0  0
  5 15  1  0  0  0  0
  5 16  1  0  0  0  0
  6 15  1  0  0  0  0
  6 17  1  0  0  0  0
  7 16  1  0  0  0  0
  7 17  1  0  0  0  0
  8 15  1  0  0  0  0
  8 18  1  0  0  0  0
  9 16  1  0  0  0  0
  9 18  1  0  0  0  0
 10 17  1  0  0  0  0
 10 18  1  0  0  0  0
 11 13  1  0  0  0  0
 11 19  1  0  0  0  0
 12 14  1  0  0  0  0
 12 19  1  0  0  0  0
 13 20  1  0  0  0  0
 14 20  1  0  0  0  0
M  END
> <ref_mols>
x2783_0

> <original SMILES>
C=CC(=O)N1CCN(CC1)C(=O)C23CC4CC(CC(C4)C2)C3

> <Chemgauss4>
-8.649374

> <ref_pdb>
x0749_0

> <CYS145-warhead dist minimum (A)>
4.855437

> <CYS145-warhead dist mean (A)>
12.535263

> <CYS145-warhead dist stddev (A)>
1.8892566

$$$$
x2772
  -OEChem-05172015543D

 22 25  0     0  0  0  0  0  0999 V2000
   14.1922   -0.6729   24.8875 C   0  0  0  0  0  0  0  0  0  0  0  0
   13.5872   -0.8760   26.0597 C   0  0  0  0  0  0  0  0  0  0  0  0
   12.1088   -0.9580   26.0969 C   0  0  0  0  0  0  0  0  0  0  0  0
    9.3377   -5.2043   23.9352 C   0  0  0  0  0  0  0  0  0  0  0  0
    6.3350   -4.6051   20.8868 C   0  0  0  0  0  0  0  0  0  0  0  0
    5.1411   -5.4934   22.9060 C   0  0  0  0  0  0  0  0  0  0  0  0
    5.7546   -3.0649   22.7797 C   0  0  0  0  0  0  0  0  0  0  0  0
    7.5322   -6.1213   22.4859 C   0  0  0  0  0  0  0  0  0  0  0  0
    8.1466   -3.6887   22.3594 C   0  0  0  0  0  0  0  0  0  0  0  0
    6.9521   -4.5790   24.3816 C   0  0  0  0  0  0  0  0  0  0  0  0
   12.1616   -3.2611   25.0483 C   0  0  0  0  0  0  0  0  0  0  0  0
   10.2338   -1.7515   24.7043 C   0  0  0  0  0  0  0  0  0  0  0  0
   11.2020   -4.4075   25.3559 C   0  0  0  0  0  0  0  0  0  0  0  0
    9.2772   -2.8999   25.0132 C   0  0  0  0  0  0  0  0  0  0  0  0
    6.1793   -5.8196   21.8182 C   0  0  0  0  0  0  0  0  0  0  0  0
    6.7961   -3.3773   21.6911 C   0  0  0  0  0  0  0  0  0  0  0  0
    5.5962   -4.2709   23.7221 C   0  0  0  0  0  0  0  0  0  0  0  0
    8.0035   -4.9007   23.3015 C   0  0  0  0  0  0  0  0  0  0  0  0
   11.5330   -1.9676   25.3407 N   0  0  0  0  0  0  0  0  0  0  0  0
    9.9049   -4.1930   24.7086 N   0  0  0  0  0  0  0  0  0  0  0  0
   11.5500   -0.1203   26.7927 O   0  0  0  0  0  0  0  0  0  0  0  0
    9.8596   -6.3058   23.7452 O   0  0  0  0  0  0  0  0  0  0  0  0
  1  2  2  0  0  0  0
  2  3  1  0  0  0  0
  3 19  1  0  0  0  0
  3 21  2  0  0  0  0
  4 18  1  0  0  0  0
  4 20  1  0  0  0  0
  4 22  2  0  0  0  0
  5 15  1  0  0  0  0
  5 16  1  0  0  0  0
  6 15  1  0  0  0  0
  6 17  1  0  0  0  0
  7 16  1  0  0  0  0
  7 17  1  0  0  0  0
  8 15  1  0  0  0  0
  8 18  1  0  0  0  0
  9 16  1  0  0  0  0
  9 18  1  0  0  0  0
 10 17  1  0  0  0  0
 10 18  1  0  0  0  0
 11 13  1  0  0  0  0
 11 19  1  0  0  0  0
 12 14  1  0  0  0  0
 12 19  1  0  0  0  0
 13 20  1  0  0  0  0
 14 20  1  0  0  0  0
M  END
> <ref_mols>
x2772_0

> <original SMILES>
C=CC(=O)N1CCN(CC1)C(=O)C23CC4CC(CC(C4)C2)C3

> <Chemgauss4>
-8.649374

> <ref_pdb>
x0749_0

> <CYS145-warhead dist minimum (A)>
8.515328

> <CYS145-warhead dist mean (A)>
9.902971

> <CYS145-warhead dist stddev (A)>
0.33822826

$$$$
x2808
  -OEChem-05172015543D

 21 23  0     1  0  0  0  0  0999 V2000
    4.5093    0.9013   18.4950 C   0  0  0  0  0  0  0  0  0  0  0  0
    4.3746    0.9586   19.8821 C   0  0  0  0  0  0  0  0  0  0  0  0
    5.7698    0.7284   17.9232 C   0  0  0  0  0  0  0  0  0  0  0  0
    5.5004    0.8432   20.6975 C   0  0  0  0  0  0  0  0  0  0  0  0
    6.8956    0.6130   18.7386 C   0  0  0  0  0  0  0  0  0  0  0  0
    6.7609    0.6703   20.1258 C   0  0  0  0  0  0  0  0  0  0  0  0
    7.9465    0.5489   20.9845 C   0  0  0  0  0  0  0  0  0  0  0  0
    9.9587   -0.3306   23.1953 C   0  0  0  0  0  0  0  0  0  0  0  0
    7.4019   -2.1222   23.5159 C   0  0  0  0  0  0  0  0  0  0  0  0
    8.7402   -2.5013   22.8859 C   0  0  0  0  0  0  0  0  0  0  0  0
    6.8117   -1.1411   22.5143 C   0  0  0  0  0  0  0  0  0  0  0  0
   12.1590    0.3730   24.0811 C   0  0  0  0  0  0  0  0  0  0  0  0
   12.1253   -1.2206   22.2070 C   0  0  0  0  0  0  0  0  0  0  0  0
   13.2478   -0.4771   24.7203 C   0  0  0  0  0  0  0  0  0  0  0  0
   13.2203   -2.0019   22.9224 C   0  0  0  0  0  0  0  0  0  0  0  0
    9.2012   -1.2054   22.2288 C   0  0  1  0  0  0  0  0  0  0  0  0
    7.9699   -0.5057   21.8868 N   0  0  0  0  0  0  0  0  0  0  0  0
   11.3476   -0.4368   23.1724 N   0  0  0  0  0  0  0  0  0  0  0  0
    8.8256    1.3975   20.8533 O   0  0  0  0  0  0  0  0  0  0  0  0
    9.3345    0.4203   23.9492 O   0  0  0  0  0  0  0  0  0  0  0  0
   14.0273   -1.1224   23.7100 O   0  0  0  0  0  0  0  0  0  0  0  0
  1  2  1  0  0  0  0
  1  3  2  0  0  0  0
  2  4  2  0  0  0  0
  3  5  1  0  0  0  0
  4  6  1  0  0  0  0
  5  6  2  0  0  0  0
  6  7  1  0  0  0  0
  7 17  1  0  0  0  0
  7 19  2  0  0  0  0
  8 16  1  0  0  0  0
  8 18  1  0  0  0  0
  8 20  2  0  0  0  0
  9 10  1  0  0  0  0
  9 11  1  0  0  0  0
 10 16  1  0  0  0  0
 11 17  1  0  0  0  0
 12 14  1  0  0  0  0
 12 18  1  0  0  0  0
 13 15  1  0  0  0  0
 13 18  1  0  0  0  0
 14 21  1  0  0  0  0
 15 21  1  0  0  0  0
 16 17  1  0  0  0  0
M  END
> <ref_mols>
x2808_0

> <original SMILES>
O=C(C1CCCN1C(=O)C=2C=CC=CC2)N3CCOCC3

> <Chemgauss4>
-8.646894

> <ref_pdb>
x1093_0

$$$$
x0914
  -OEChem-05172015543D

 15 16  0     1  0  0  0  0  0999 V2000
   11.0409    2.7356   23.9193 C   0  0  0  0  0  0  0  0  0  0  0  0
   11.9117    3.5164   23.1594 C   0  0  0  0  0  0  0  0  0  0  0  0
   11.2877    1.3723   24.0816 C   0  0  0  0  0  0  0  0  0  0  0  0
   13.0293    2.9340   22.5615 C   0  0  0  0  0  0  0  0  0  0  0  0
   12.4053    0.7899   23.4837 C   0  0  0  0  0  0  0  0  0  0  0  0
   13.2761    1.5708   22.7237 C   0  0  0  0  0  0  0  0  0  0  0  0
   14.1473   -1.0876   23.5899 C   0  0  0  0  0  0  0  0  0  0  0  0
   13.1872   -1.6351   21.5318 C   0  0  0  0  0  0  0  0  0  0  0  0
   12.6709   -0.6955   23.6629 C   0  0  2  0  0  0  0  0  0  0  0  0
   12.0863   -1.6027   22.5795 C   0  0  1  0  0  0  0  0  0  0  0  0
   10.7210   -1.2433   22.0181 C   0  0  0  0  0  0  0  0  0  0  0  0
   14.4281   -1.4628   22.2314 O   0  0  0  0  0  0  0  0  0  0  0  0
    9.7755   -1.2537   23.0746 O   0  0  0  0  0  0  0  0  0  0  0  0
   14.3527    1.0202   22.1456 F   0  0  0  0  0  0  0  0  0  0  0  0
    8.9149   -1.0212   22.6873 H   0  0  0  0  0  0  0  0  0  0  0  0
  1  2  1  0  0  0  0
  1  3  2  0  0  0  0
  2  4  2  0  0  0  0
  3  5  1  0  0  0  0
  4  6  1  0  0  0  0
  5  6  2  0  0  0  0
  5  9  1  0  0  0  0
  6 14  1  0  0  0  0
  7  9  1  0  0  0  0
  7 12  1  0  0  0  0
  8 10  1  0  0  0  0
  8 12  1  0  0  0  0
  9 10  1  0  0  0  0
 10 11  1  0  0  0  0
 11 13  1  0  0  0  0
 13 15  1  0  0  0  0
M  END
> <ref_mols>
x0914_0

> <original SMILES>
OC[C@@H]1[C@H](C2=CC=CC=C2F)COC1

> <Chemgauss4>
-8.640936

> <ref_pdb>
x0195_0

$$$$
x0497
  -OEChem-05172015543D

 20 21  0     0  0  0  0  0  0999 V2000
   13.8939   -2.1251   23.1902 C   0  0  0  0  0  0  0  0  0  0  0  0
   10.9596    7.6783   24.5680 C   0  0  0  0  0  0  0  0  0  0  0  0
   14.2300   -1.2776   22.1346 C   0  0  0  0  0  0  0  0  0  0  0  0
   13.0276   -1.6836   24.1904 C   0  0  0  0  0  0  0  0  0  0  0  0
    9.5973    7.8842   24.3507 C   0  0  0  0  0  0  0  0  0  0  0  0
   11.5750    6.5210   24.0907 C   0  0  0  0  0  0  0  0  0  0  0  0
   13.6998    0.0114   22.0791 C   0  0  0  0  0  0  0  0  0  0  0  0
   12.4975   -0.3947   24.1350 C   0  0  0  0  0  0  0  0  0  0  0  0
    8.8502    6.9328   23.6561 C   0  0  0  0  0  0  0  0  0  0  0  0
   10.8279    5.5696   23.3962 C   0  0  0  0  0  0  0  0  0  0  0  0
   12.8335    0.4529   23.0793 C   0  0  0  0  0  0  0  0  0  0  0  0
    9.4655    5.7755   23.1789 C   0  0  0  0  0  0  0  0  0  0  0  0
   12.8041    4.0522   23.0540 C   0  0  0  0  0  0  0  0  0  0  0  0
   13.1001    2.7177   22.4046 C   0  0  0  0  0  0  0  0  0  0  0  0
   11.4580    4.4154   22.9249 N   0  0  0  0  0  0  0  0  0  0  0  0
   13.6971    4.6876   23.6064 O   0  0  0  0  0  0  0  0  0  0  0  0
    8.7172    4.8583   22.5028 O   0  0  0  0  0  0  0  0  0  0  0  0
   12.3121    1.7236   23.0260 O   0  0  0  0  0  0  0  0  0  0  0  0
   10.8601    3.7512   22.4216 H   0  0  0  0  0  0  0  0  0  0  0  0
    7.7966    5.1571   22.4425 H   0  0  0  0  0  0  0  0  0  0  0  0
  1  3  1  0  0  0  0
  1  4  2  0  0  0  0
  2  5  1  0  0  0  0
  2  6  2  0  0  0  0
  3  7  2  0  0  0  0
  4  8  1  0  0  0  0
  5  9  2  0  0  0  0
  6 10  1  0  0  0  0
  7 11  1  0  0  0  0
  8 11  2  0  0  0  0
  9 12  1  0  0  0  0
 10 12  2  0  0  0  0
 10 15  1  0  0  0  0
 11 18  1  0  0  0  0
 12 17  1  0  0  0  0
 13 14  1  0  0  0  0
 13 15  1  0  0  0  0
 13 16  2  0  0  0  0
 14 18  1  0  0  0  0
 15 19  1  0  0  0  0
 17 20  1  0  0  0  0
M  END
> <ref_mols>
x0497_0

> <original SMILES>
OC=1C=CC=CC1NC(=O)COC=2C=CC=CC2

> <Chemgauss4>
-8.639600

> <ref_pdb>
x0161_0

$$$$
x0136
  -OEChem-05172015543D

 15 15  0     0  0  0  0  0  0999 V2000
   11.3732    2.1103   24.1887 C   0  0  0  0  0  0  0  0  0  0  0  0
   12.9890    2.5050   22.4365 C   0  0  0  0  0  0  0  0  0  0  0  0
   11.5279    0.7342   24.0215 C   0  0  0  0  0  0  0  0  0  0  0  0
   13.1438    1.1288   22.2693 C   0  0  0  0  0  0  0  0  0  0  0  0
   12.1037    2.9957   23.3962 C   0  0  0  0  0  0  0  0  0  0  0  0
   12.4132    0.2434   23.0618 C   0  0  0  0  0  0  0  0  0  0  0  0
   10.5098    6.4655   23.1238 C   0  0  0  0  0  0  0  0  0  0  0  0
   11.9388    4.4671   23.5743 C   0  0  0  0  0  0  0  0  0  0  0  0
   12.5794   -1.2281   22.8848 C   0  0  0  0  0  0  0  0  0  0  0  0
   10.6663    4.9923   23.0067 N   0  3  0  0  0  0  0  0  0  0  0  0
   11.8039   -1.9720   23.7281 F   0  0  0  0  0  0  0  0  0  0  0  0
   12.2635   -1.6670   21.6305 F   0  0  0  0  0  0  0  0  0  0  0  0
   13.8611   -1.6421   23.1055 F   0  0  0  0  0  0  0  0  0  0  0  0
    9.8752    4.5295   23.4736 H   0  0  0  0  0  0  0  0  0  0  0  0
   10.6050    4.7230   22.0159 H   0  0  0  0  0  0  0  0  0  0  0  0
  1  3  2  0  0  0  0
  1  5  1  0  0  0  0
  2  4  1  0  0  0  0
  2  5  2  0  0  0  0
  3  6  1  0  0  0  0
  4  6  2  0  0  0  0
  5  8  1  0  0  0  0
  6  9  1  0  0  0  0
  7 10  1  0  0  0  0
  8 10  1  0  0  0  0
  9 11  1  0  0  0  0
  9 12  1  0  0  0  0
  9 13  1  0  0  0  0
 10 14  1  0  0  0  0
 10 15  1  0  0  0  0
M  CHG  1  10   1
M  END
> <ref_mols>
x0136_0

> <original SMILES>
CNCC=1C=CC(=CC1)C(F)(F)F

> <Chemgauss4>
-8.638557

> <ref_pdb>
x0195_0

$$$$
x0248
  -OEChem-05172015543D

 16 17  0     0  0  0  0  0  0999 V2000
   10.7227    0.8909   21.5485 C   0  0  0  0  0  0  0  0  0  0  0  0
   10.2307   -1.4740   21.5968 C   0  0  0  0  0  0  0  0  0  0  0  0
   11.8034    0.6836   22.4055 C   0  0  0  0  0  0  0  0  0  0  0  0
   11.3115   -1.6813   22.4538 C   0  0  0  0  0  0  0  0  0  0  0  0
    8.9807   -0.0350   18.8870 C   0  0  0  0  0  0  0  0  0  0  0  0
    6.7783    0.4144   18.5488 C   0  0  0  0  0  0  0  0  0  0  0  0
    9.9362   -0.1879   21.1441 C   0  0  0  0  0  0  0  0  0  0  0  0
    8.8147    0.0272   20.2555 C   0  0  0  0  0  0  0  0  0  0  0  0
   12.0979   -0.6025   22.8582 C   0  0  0  0  0  0  0  0  0  0  0  0
    7.5340    0.3016   20.6897 C   0  0  0  0  0  0  0  0  0  0  0  0
    7.9807    0.1541   18.0013 N   0  0  0  0  0  0  0  0  0  0  0  0
    6.4882    0.5016   19.8610 N   0  0  0  0  0  0  0  0  0  0  0  0
    7.2904    0.3803   22.0839 N   0  0  0  0  0  0  0  0  0  0  0  0
   13.4307   -0.8573   23.9169 Cl  0  0  0  0  0  0  0  0  0  0  0  0
    8.0382    0.1892   22.7141 H   0  0  0  0  0  0  0  0  0  0  0  0
    6.3578    0.5314   22.4010 H   0  0  0  0  0  0  0  0  0  0  0  0
  1  3  2  0  0  0  0
  1  7  1  0  0  0  0
  2  4  1  0  0  0  0
  2  7  2  0  0  0  0
  3  9  1  0  0  0  0
  4  9  2  0  0  0  0
  5  8  1  0  0  0  0
  5 11  2  0  0  0  0
  6 11  1  0  0  0  0
  6 12  2  0  0  0  0
  7  8  1  0  0  0  0
  8 10  2  0  0  0  0
  9 14  1  0  0  0  0
 10 12  1  0  0  0  0
 10 13  1  0  0  0  0
 13 15  1  0  0  0  0
 13 16  1  0  0  0  0
M  END
> <ref_mols>
x0248_0

> <original SMILES>
NC=1N=CN=CC1C=2C=CC(Cl)=CC2

> <Chemgauss4>
-8.638306

> <ref_pdb>
x0678_0

$$$$
x0433
  -OEChem-05172015543D

 16 17  0     0  0  0  0  0  0999 V2000
   14.1354   -0.7649   23.1096 C   0  0  0  0  0  0  0  0  0  0  0  0
   13.2214   -1.8185   22.8187 C   0  0  0  0  0  0  0  0  0  0  0  0
    7.0420    0.2124   20.0575 C   0  0  0  0  0  0  0  0  0  0  0  0
    6.9297    0.4077   18.6678 C   0  0  0  0  0  0  0  0  0  0  0  0
   13.4937    0.4392   23.2992 C   0  0  0  0  0  0  0  0  0  0  0  0
    8.3139   -0.2748   20.2340 C   0  0  0  0  0  0  0  0  0  0  0  0
   11.9157   -1.3795   22.7972 C   0  0  0  0  0  0  0  0  0  0  0  0
    8.9656   -0.6487   21.4493 C   0  0  0  0  0  0  0  0  0  0  0  0
   10.1950   -0.7897   18.6499 C   0  0  0  0  0  0  0  0  0  0  0  0
   10.6680   -2.1716   22.5328 C   0  0  0  0  0  0  0  0  0  0  0  0
    8.0417    0.0721   18.0085 N   0  0  0  0  0  0  0  0  0  0  0  0
    8.8649   -0.3389   18.9880 N   0  0  0  0  0  0  0  0  0  0  0  0
    9.9399   -1.6684   21.3903 N   0  0  0  0  0  0  0  0  0  0  0  0
    8.6729   -0.1071   22.5452 O   0  0  0  0  0  0  0  0  0  0  0  0
   11.7960    0.2967   23.1266 S   0  0  0  0  0  0  0  0  0  0  0  0
   10.1045   -2.1264   20.4998 H   0  0  0  0  0  0  0  0  0  0  0  0
  1  2  1  0  0  0  0
  1  5  2  0  0  0  0
  2  7  2  0  0  0  0
  3  4  1  0  0  0  0
  3  6  2  0  0  0  0
  4 11  2  0  0  0  0
  5 15  1  0  0  0  0
  6  8  1  0  0  0  0
  6 12  1  0  0  0  0
  7 10  1  0  0  0  0
  7 15  1  0  0  0  0
  8 13  1  0  0  0  0
  8 14  2  0  0  0  0
  9 12  1  0  0  0  0
 10 13  1  0  0  0  0
 11 12  1  0  0  0  0
 13 16  1  0  0  0  0
M  END
> <ref_mols>
x0433_0

> <original SMILES>
CN1N=CC=C1C(=O)NCC2=CC=CS2

> <Chemgauss4>
-8.637927

> <ref_pdb>
x0678_0

$$$$
x0163
  -OEChem-05172015543D

 15 15  0     1  0  0  0  0  0999 V2000
   13.7327   -1.6929   22.6573 C   0  0  0  0  0  0  0  0  0  0  0  0
   14.0746   -0.7293   23.6061 C   0  0  0  0  0  0  0  0  0  0  0  0
   12.3982   -1.8686   22.2914 C   0  0  0  0  0  0  0  0  0  0  0  0
   13.0820    0.0585   24.1891 C   0  0  0  0  0  0  0  0  0  0  0  0
   11.4056   -1.0809   22.8743 C   0  0  0  0  0  0  0  0  0  0  0  0
   11.7475   -0.1173   23.8232 C   0  0  0  0  0  0  0  0  0  0  0  0
    9.4871   -2.7227   22.7490 C   0  0  0  0  0  0  0  0  0  0  0  0
    8.2904   -0.1991   18.9345 C   0  0  0  0  0  0  0  0  0  0  0  0
    9.9698   -1.3046   22.4513 C   0  0  2  0  0  0  0  0  0  0  0  0
    9.7747   -0.9785   21.0271 N   0  0  0  0  0  0  0  0  0  0  0  0
    9.4078    1.5366   20.5435 O   0  0  0  0  0  0  0  0  0  0  0  0
    7.4921    0.1363   21.3953 O   0  0  0  0  0  0  0  0  0  0  0  0
    8.6968    0.2744   20.5997 S   0  0  0  0  0  0  0  0  0  0  0  0
   10.5471    0.8761   24.5658 Cl  0  0  0  0  0  0  0  0  0  0  0  0
   10.6248   -1.0752   20.4567 H   0  0  0  0  0  0  0  0  0  0  0  0
  1  2  1  0  0  0  0
  1  3  2  0  0  0  0
  2  4  2  0  0  0  0
  3  5  1  0  0  0  0
  4  6  1  0  0  0  0
  5  6  2  0  0  0  0
  5  9  1  0  0  0  0
  6 14  1  0  0  0  0
  7  9  1  0  0  0  0
  8 13  1  0  0  0  0
  9 10  1  0  0  0  0
 10 13  1  0  0  0  0
 11 13  2  0  0  0  0
 12 13  2  0  0  0  0
 10 15  1  0  0  0  0
M  END
> <ref_mols>
x0163_0

> <original SMILES>
CC(NS(=O)(=O)C)C=1C=CC=CC1Cl

> <Chemgauss4>
-8.637293

> <ref_pdb>
x0678_0

$$$$
x1186
  -OEChem-05172015543D

 15 15  0     1  0  0  0  0  0999 V2000
   13.7327   -1.6929   22.6573 C   0  0  0  0  0  0  0  0  0  0  0  0
   14.0746   -0.7293   23.6061 C   0  0  0  0  0  0  0  0  0  0  0  0
   12.3982   -1.8686   22.2914 C   0  0  0  0  0  0  0  0  0  0  0  0
   13.0820    0.0585   24.1891 C   0  0  0  0  0  0  0  0  0  0  0  0
   11.4056   -1.0809   22.8743 C   0  0  0  0  0  0  0  0  0  0  0  0
   11.7475   -0.1173   23.8232 C   0  0  0  0  0  0  0  0  0  0  0  0
    9.4871   -2.7227   22.7490 C   0  0  0  0  0  0  0  0  0  0  0  0
    8.2904   -0.1991   18.9345 C   0  0  0  0  0  0  0  0  0  0  0  0
    9.9698   -1.3046   22.4513 C   0  0  2  0  0  0  0  0  0  0  0  0
    9.7747   -0.9785   21.0271 N   0  0  0  0  0  0  0  0  0  0  0  0
    9.4078    1.5366   20.5435 O   0  0  0  0  0  0  0  0  0  0  0  0
    7.4921    0.1363   21.3953 O   0  0  0  0  0  0  0  0  0  0  0  0
    8.6968    0.2744   20.5997 S   0  0  0  0  0  0  0  0  0  0  0  0
   10.5471    0.8761   24.5658 Cl  0  0  0  0  0  0  0  0  0  0  0  0
   10.6248   -1.0752   20.4567 H   0  0  0  0  0  0  0  0  0  0  0  0
  1  2  1  0  0  0  0
  1  3  2  0  0  0  0
  2  4  2  0  0  0  0
  3  5  1  0  0  0  0
  4  6  1  0  0  0  0
  5  6  2  0  0  0  0
  5  9  1  0  0  0  0
  6 14  1  0  0  0  0
  7  9  1  0  0  0  0
  8 13  1  0  0  0  0
  9 10  1  0  0  0  0
 10 13  1  0  0  0  0
 11 13  2  0  0  0  0
 12 13  2  0  0  0  0
 10 15  1  0  0  0  0
M  END
> <ref_mols>
x1186_0

> <original SMILES>
CC(NS(=O)(=O)C)C=1C=CC=CC1Cl

> <Chemgauss4>
-8.637293

> <ref_pdb>
x0678_0

$$$$
x0679
  -OEChem-05172015543D

 18 19  0     0  0  0  0  0  0999 V2000
   12.7692    0.1522   24.2317 C   0  0  0  0  0  0  0  0  0  0  0  0
   12.1253   -1.2640   22.3833 C   0  0  0  0  0  0  0  0  0  0  0  0
   13.8324   -0.7042   24.5175 C   0  0  0  0  0  0  0  0  0  0  0  0
   13.1886   -2.1204   22.6691 C   0  0  0  0  0  0  0  0  0  0  0  0
    6.6815   -0.0402   18.3669 C   0  0  0  0  0  0  0  0  0  0  0  0
   11.9156   -0.1277   23.1646 C   0  0  0  0  0  0  0  0  0  0  0  0
   14.0422   -1.8405   23.7362 C   0  0  0  0  0  0  0  0  0  0  0  0
    8.3666    0.3292   19.9766 C   0  0  0  0  0  0  0  0  0  0  0  0
   10.3969    0.8292   21.3810 C   0  0  0  0  0  0  0  0  0  0  0  0
   15.9146   -2.3284   25.1188 C   0  0  0  0  0  0  0  0  0  0  0  0
   10.7792    0.7881   22.8585 C   0  0  0  0  0  0  0  0  0  0  0  0
    7.7990    0.3825   17.8150 N   0  0  0  0  0  0  0  0  0  0  0  0
    8.7877    0.5981   18.7591 N   0  0  0  0  0  0  0  0  0  0  0  0
    9.0773    0.4244   21.1967 N   0  0  0  0  0  0  0  0  0  0  0  0
   11.1938    1.1805   20.5169 O   0  0  0  0  0  0  0  0  0  0  0  0
   15.0805   -2.6754   24.0145 O   0  0  0  0  0  0  0  0  0  0  0  0
    6.7403   -0.2070   20.0729 S   0  0  0  0  0  0  0  0  0  0  0  0
    8.5642    0.1671   22.0373 H   0  0  0  0  0  0  0  0  0  0  0  0
  1  3  2  0  0  0  0
  1  6  1  0  0  0  0
  2  4  1  0  0  0  0
  2  6  2  0  0  0  0
  3  7  1  0  0  0  0
  4  7  2  0  0  0  0
  5 12  2  0  0  0  0
  5 17  1  0  0  0  0
  6 11  1  0  0  0  0
  7 16  1  0  0  0  0
  8 13  2  0  0  0  0
  8 14  1  0  0  0  0
  8 17  1  0  0  0  0
  9 11  1  0  0  0  0
  9 14  1  0  0  0  0
  9 15  2  0  0  0  0
 10 16  1  0  0  0  0
 12 13  1  0  0  0  0
 14 18  1  0  0  0  0
M  END
> <ref_mols>
x0679_0

> <original SMILES>
COC=1C=CC(CC(=O)NC2=NN=CS2)=CC1

> <Chemgauss4>
-8.629848

> <ref_pdb>
x0678_0

$$$$
x0491
  -OEChem-05172015543D

 18 19  0     0  0  0  0  0  0999 V2000
   12.7309   -2.8226   26.1323 C   0  0  0  0  0  0  0  0  0  0  0  0
   13.9476   -1.2122   24.8045 C   0  0  0  0  0  0  0  0  0  0  0  0
   11.6375   -2.7039   25.2745 C   0  0  0  0  0  0  0  0  0  0  0  0
   12.8542   -1.0934   23.9466 C   0  0  0  0  0  0  0  0  0  0  0  0
    7.1139   -6.4336   23.0904 C   0  0  0  0  0  0  0  0  0  0  0  0
    6.6386   -6.3563   21.7998 C   0  0  0  0  0  0  0  0  0  0  0  0
   13.8860   -2.0767   25.8974 C   0  0  0  0  0  0  0  0  0  0  0  0
   11.6991   -1.8393   24.1816 C   0  0  0  0  0  0  0  0  0  0  0  0
    7.8731   -5.2831   23.4510 C   0  0  0  0  0  0  0  0  0  0  0  0
    7.9493   -4.3702   22.4220 C   0  0  0  0  0  0  0  0  0  0  0  0
    8.6371   -3.0539   22.3821 C   0  0  0  0  0  0  0  0  0  0  0  0
   15.0554   -2.2031   26.8140 C   0  0  0  0  0  0  0  0  0  0  0  0
    8.5019   -5.1034   24.7820 C   0  0  0  0  0  0  0  0  0  0  0  0
   10.5301   -1.7142   23.2639 C   0  0  0  0  0  0  0  0  0  0  0  0
    9.7691   -2.9346   23.1766 N   0  0  0  0  0  0  0  0  0  0  0  0
    8.1731   -2.1554   21.6851 O   0  0  0  0  0  0  0  0  0  0  0  0
    7.1076   -4.9011   21.0285 S   0  0  0  0  0  0  0  0  0  0  0  0
   10.0548   -3.7055   23.7749 H   0  0  0  0  0  0  0  0  0  0  0  0
  1  3  2  0  0  0  0
  1  7  1  0  0  0  0
  2  4  1  0  0  0  0
  2  7  2  0  0  0  0
  3  8  1  0  0  0  0
  4  8  2  0  0  0  0
  5  6  2  0  0  0  0
  5  9  1  0  0  0  0
  6 17  1  0  0  0  0
  7 12  1  0  0  0  0
  8 14  1  0  0  0  0
  9 10  2  0  0  0  0
  9 13  1  0  0  0  0
 10 11  1  0  0  0  0
 10 17  1  0  0  0  0
 11 15  1  0  0  0  0
 11 16  2  0  0  0  0
 14 15  1  0  0  0  0
 15 18  1  0  0  0  0
M  END
> <ref_mols>
x0491_0

> <original SMILES>
CC=1C=CSC1C(=O)NCC=2C=CC(C)=CC2

> <Chemgauss4>
-8.628611

> <ref_pdb>
x0749_0

$$$$
x0167
  -OEChem-05172015543D

 17 18  0     0  0  0  0  0  0999 V2000
    6.3049    0.5308   18.9170 C   0  0  0  0  0  0  0  0  0  0  0  0
    8.0232    0.3709   20.0579 C   0  0  0  0  0  0  0  0  0  0  0  0
    7.5679   -2.0968   22.4914 C   0  0  0  0  0  0  0  0  0  0  0  0
    9.4917   -1.2010   23.8599 C   0  0  0  0  0  0  0  0  0  0  0  0
    8.4701   -2.1406   21.2646 C   0  0  0  0  0  0  0  0  0  0  0  0
   10.3834   -1.2500   22.6255 C   0  0  0  0  0  0  0  0  0  0  0  0
    8.3389   -2.2127   23.8132 C   0  0  0  0  0  0  0  0  0  0  0  0
    4.8942    0.7150   18.5588 C   0  0  0  0  0  0  0  0  0  0  0  0
    9.1037    0.2962   21.0961 C   0  0  0  0  0  0  0  0  0  0  0  0
    8.8326   -3.6422   24.0544 C   0  0  0  0  0  0  0  0  0  0  0  0
    6.7403    0.5825   20.2092 N   0  0  0  0  0  0  0  0  0  0  0  0
    7.2453    0.3007   17.9959 N   0  0  0  0  0  0  0  0  0  0  0  0
    9.5678   -1.1105   21.3641 N   0  3  0  0  0  0  0  0  0  0  0  0
    8.4093    0.1924   18.7673 O   0  0  0  0  0  0  0  0  0  0  0  0
    7.7094   -4.5016   24.1121 O   0  0  0  0  0  0  0  0  0  0  0  0
   10.2370   -1.3333   20.5692 H   0  0  0  0  0  0  0  0  0  0  0  0
    8.0453   -5.4013   24.2655 H   0  0  0  0  0  0  0  0  0  0  0  0
  1  8  1  0  0  0  0
  1 11  1  0  0  0  0
  1 12  2  0  0  0  0
  2  9  1  0  0  0  0
  2 11  2  0  0  0  0
  2 14  1  0  0  0  0
  3  5  1  0  0  0  0
  3  7  1  0  0  0  0
  4  6  1  0  0  0  0
  4  7  1  0  0  0  0
  5 13  1  0  0  0  0
  6 13  1  0  0  0  0
  7 10  1  0  0  0  0
  9 13  1  0  0  0  0
 10 15  1  0  0  0  0
 12 14  1  0  0  0  0
 13 16  1  0  0  0  0
 15 17  1  0  0  0  0
M  CHG  1  13   1
M  END
> <ref_mols>
x0167_0

> <original SMILES>
CC1=NOC(CN2CCC(CO)CC2)=N1

> <Chemgauss4>
-8.624547

> <ref_pdb>
x0107_0

$$$$
x0648
  -OEChem-05172015543D

 15 16  0     0  0  0  0  0  0999 V2000
    6.6601   -4.2362   21.2105 C   0  0  0  0  0  0  0  0  0  0  0  0
    8.8415   -4.8705   24.1593 C   0  0  0  0  0  0  0  0  0  0  0  0
    7.8203   -5.0091   23.2193 C   0  0  0  0  0  0  0  0  0  0  0  0
    9.7491   -3.8166   24.0529 C   0  0  0  0  0  0  0  0  0  0  0  0
    8.6144   -3.0400   22.0664 C   0  0  0  0  0  0  0  0  0  0  0  0
   12.1760   -1.2097   26.0854 C   0  0  0  0  0  0  0  0  0  0  0  0
   12.0504   -1.9734   24.9490 C   0  0  0  0  0  0  0  0  0  0  0  0
    7.7068   -4.0938   22.1728 C   0  0  0  0  0  0  0  0  0  0  0  0
    9.6356   -2.9014   23.0065 C   0  0  0  0  0  0  0  0  0  0  0  0
   10.6909   -0.2395   24.9092 C   0  0  0  0  0  0  0  0  0  0  0  0
    9.6586    0.6857   24.3988 C   0  0  0  0  0  0  0  0  0  0  0  0
   10.6062   -1.7748   22.8928 C   0  0  0  0  0  0  0  0  0  0  0  0
    5.8099   -4.3518   20.4291 N   0  0  0  0  0  0  0  0  0  0  0  0
   11.3268   -0.1320   26.0546 N   0  0  0  0  0  0  0  0  0  0  0  0
   11.0951   -1.3397   24.2054 N   0  0  0  0  0  0  0  0  0  0  0  0
  1  8  1  0  0  0  0
  1 13  3  0  0  0  0
  2  3  1  0  0  0  0
  2  4  2  0  0  0  0
  3  8  2  0  0  0  0
  4  9  1  0  0  0  0
  5  8  1  0  0  0  0
  5  9  2  0  0  0  0
  6  7  2  0  0  0  0
  6 14  1  0  0  0  0
  7 15  1  0  0  0  0
  9 12  1  0  0  0  0
 10 11  1  0  0  0  0
 10 14  2  0  0  0  0
 10 15  1  0  0  0  0
 12 15  1  0  0  0  0
M  END
> <ref_mols>
x0648_0

> <original SMILES>
CC1=NC=CN1CC=2C=CC=C(C#N)C2

> <Chemgauss4>
-8.624096

> <ref_pdb>
x0749_0

$$$$
x1089
  -OEChem-05172015543D

 18 20  0     0  0  0  0  0  0999 V2000
   10.6416   -4.5828   25.3065 C   0  0  0  0  0  0  0  0  0  0  0  0
   11.8160   -4.1857   25.9525 C   0  0  0  0  0  0  0  0  0  0  0  0
   11.8799   -2.1362   24.6585 C   0  0  0  0  0  0  0  0  0  0  0  0
   10.0694   -3.7511   24.3197 C   0  0  0  0  0  0  0  0  0  0  0  0
   12.4254   -2.9779   25.6312 C   0  0  0  0  0  0  0  0  0  0  0  0
   10.7001   -2.5413   24.0137 C   0  0  0  0  0  0  0  0  0  0  0  0
    8.6789   -3.0228   22.7695 C   0  0  0  0  0  0  0  0  0  0  0  0
    6.5680   -3.7952   21.6418 C   0  0  0  0  0  0  0  0  0  0  0  0
    5.9850   -6.2680   22.0013 C   0  0  0  0  0  0  0  0  0  0  0  0
    7.4801   -6.1612   22.0270 C   0  0  0  0  0  0  0  0  0  0  0  0
    6.6397   -5.0324   22.5013 C   0  0  0  0  0  0  0  0  0  0  0  0
   14.1458   -1.3579   25.8988 C   0  0  0  0  0  0  0  0  0  0  0  0
    8.9131   -4.0125   23.5991 N   0  0  0  0  0  0  0  0  0  0  0  0
    7.6399   -2.9008   21.8854 N   0  0  0  0  0  0  0  0  0  0  0  0
    5.6560   -3.6424   20.8358 O   0  0  0  0  0  0  0  0  0  0  0  0
   13.5695   -2.6072   26.2730 O   0  0  0  0  0  0  0  0  0  0  0  0
    9.7993   -1.7303   22.7875 S   0  0  0  0  0  0  0  0  0  0  0  0
    7.6050   -2.0449   21.2989 H   0  0  0  0  0  0  0  0  0  0  0  0
  1  2  2  0  0  0  0
  1  4  1  0  0  0  0
  2  5  1  0  0  0  0
  3  5  2  0  0  0  0
  3  6  1  0  0  0  0
  4  6  2  0  0  0  0
  4 13  1  0  0  0  0
  5 16  1  0  0  0  0
  6 17  1  0  0  0  0
  7 13  2  0  0  0  0
  7 14  1  0  0  0  0
  7 17  1  0  0  0  0
  8 11  1  0  0  0  0
  8 14  1  0  0  0  0
  8 15  2  0  0  0  0
  9 10  1  0  0  0  0
  9 11  1  0  0  0  0
 10 11  1  0  0  0  0
 12 16  1  0  0  0  0
 14 18  1  0  0  0  0
M  END
> <ref_mols>
x1089_0

> <original SMILES>
COC=1C=CC=2N=C(NC(=O)C3CC3)SC2C1

> <Chemgauss4>
-8.622681

> <ref_pdb>
x0749_0

$$$$
x0363
  -OEChem-05172015543D

 18 20  0     0  0  0  0  0  0999 V2000
   10.6416   -4.5828   25.3065 C   0  0  0  0  0  0  0  0  0  0  0  0
   11.8160   -4.1857   25.9525 C   0  0  0  0  0  0  0  0  0  0  0  0
   11.8799   -2.1362   24.6585 C   0  0  0  0  0  0  0  0  0  0  0  0
   10.0694   -3.7511   24.3197 C   0  0  0  0  0  0  0  0  0  0  0  0
   12.4254   -2.9779   25.6312 C   0  0  0  0  0  0  0  0  0  0  0  0
   10.7001   -2.5413   24.0137 C   0  0  0  0  0  0  0  0  0  0  0  0
    8.6789   -3.0228   22.7695 C   0  0  0  0  0  0  0  0  0  0  0  0
    6.5680   -3.7952   21.6418 C   0  0  0  0  0  0  0  0  0  0  0  0
    5.9850   -6.2680   22.0013 C   0  0  0  0  0  0  0  0  0  0  0  0
    7.4801   -6.1612   22.0270 C   0  0  0  0  0  0  0  0  0  0  0  0
    6.6397   -5.0324   22.5013 C   0  0  0  0  0  0  0  0  0  0  0  0
   14.1458   -1.3579   25.8988 C   0  0  0  0  0  0  0  0  0  0  0  0
    8.9131   -4.0125   23.5991 N   0  0  0  0  0  0  0  0  0  0  0  0
    7.6399   -2.9008   21.8854 N   0  0  0  0  0  0  0  0  0  0  0  0
    5.6560   -3.6424   20.8358 O   0  0  0  0  0  0  0  0  0  0  0  0
   13.5695   -2.6072   26.2730 O   0  0  0  0  0  0  0  0  0  0  0  0
    9.7993   -1.7303   22.7875 S   0  0  0  0  0  0  0  0  0  0  0  0
    7.6050   -2.0449   21.2989 H   0  0  0  0  0  0  0  0  0  0  0  0
  1  2  2  0  0  0  0
  1  4  1  0  0  0  0
  2  5  1  0  0  0  0
  3  5  2  0  0  0  0
  3  6  1  0  0  0  0
  4  6  2  0  0  0  0
  4 13  1  0  0  0  0
  5 16  1  0  0  0  0
  6 17  1  0  0  0  0
  7 13  2  0  0  0  0
  7 14  1  0  0  0  0
  7 17  1  0  0  0  0
  8 11  1  0  0  0  0
  8 14  1  0  0  0  0
  8 15  2  0  0  0  0
  9 10  1  0  0  0  0
  9 11  1  0  0  0  0
 10 11  1  0  0  0  0
 12 16  1  0  0  0  0
 14 18  1  0  0  0  0
M  END
> <ref_mols>
x0363_0

> <original SMILES>
COC=1C=CC=2N=C(NC(=O)C3CC3)SC2C1

> <Chemgauss4>
-8.622681

> <ref_pdb>
x0749_0

$$$$
x2863
  -OEChem-05172015543D

 23 24  0     0  0  0  0  0  0999 V2000
    6.0008   -3.4255   20.2397 C   0  0  0  0  0  0  0  0  0  0  0  0
    6.5313   -6.6131   22.0873 C   0  0  0  0  0  0  0  0  0  0  0  0
    5.9755   -5.6584   21.2358 C   0  0  0  0  0  0  0  0  0  0  0  0
    7.6823   -6.3123   22.8157 C   0  0  0  0  0  0  0  0  0  0  0  0
    7.7215   -4.1020   21.8410 C   0  0  0  0  0  0  0  0  0  0  0  0
   13.2268   -2.7429   25.3252 C   0  0  0  0  0  0  0  0  0  0  0  0
   13.2529   -0.6645   26.4812 C   0  0  0  0  0  0  0  0  0  0  0  0
   11.2377   -1.5251   25.7908 C   0  0  0  0  0  0  0  0  0  0  0  0
    6.5706   -4.4028   21.1126 C   0  0  0  0  0  0  0  0  0  0  0  0
    8.2774   -5.0568   22.6925 C   0  0  0  0  0  0  0  0  0  0  0  0
   13.9526   -1.7401   25.9584 C   0  0  0  0  0  0  0  0  0  0  0  0
   11.8431   -2.6409   25.2354 C   0  0  0  0  0  0  0  0  0  0  0  0
    9.8599   -3.4996   23.9130 C   0  0  0  0  0  0  0  0  0  0  0  0
    5.5381   -2.6317   19.5308 N   0  0  0  0  0  0  0  0  0  0  0  0
   11.9093   -0.5307   26.4135 N   0  0  0  0  0  0  0  0  0  0  0  0
   15.3511   -1.8150   26.0641 N   0  0  0  0  0  0  0  0  0  0  0  0
    9.4277   -4.7559   23.4222 N   0  0  0  0  0  0  0  0  0  0  0  0
   11.0773   -3.6451   24.5973 N   0  0  0  0  0  0  0  0  0  0  0  0
    9.2543   -2.4438   23.7591 O   0  0  0  0  0  0  0  0  0  0  0  0
   15.8296   -2.6260   25.7191 H   0  0  0  0  0  0  0  0  0  0  0  0
   15.8470   -1.1027   26.5666 H   0  0  0  0  0  0  0  0  0  0  0  0
   10.0422   -5.5500   23.6310 H   0  0  0  0  0  0  0  0  0  0  0  0
   11.4618   -4.5853   24.6431 H   0  0  0  0  0  0  0  0  0  0  0  0
  1  9  1  0  0  0  0
  1 14  3  0  0  0  0
  2  3  1  0  0  0  0
  2  4  2  0  0  0  0
  3  9  2  0  0  0  0
  4 10  1  0  0  0  0
  5  9  1  0  0  0  0
  5 10  2  0  0  0  0
  6 11  2  0  0  0  0
  6 12  1  0  0  0  0
  7 11  1  0  0  0  0
  7 15  2  0  0  0  0
  8 12  2  0  0  0  0
  8 15  1  0  0  0  0
 10 17  1  0  0  0  0
 11 16  1  0  0  0  0
 12 18  1  0  0  0  0
 13 17  1  0  0  0  0
 13 18  1  0  0  0  0
 13 19  2  0  0  0  0
 16 20  1  0  0  0  0
 16 21  1  0  0  0  0
 17 22  1  0  0  0  0
 18 23  1  0  0  0  0
M  END
> <ref_mols>
x2863_0

> <original SMILES>
NC=1C=NC=C(NC(=O)NC=2C=CC=C(C#N)C2)C1

> <Chemgauss4>
-8.612061

> <ref_pdb>
x0749_0

> <CYS145-warhead dist minimum (A)>
8.313009

> <CYS145-warhead dist mean (A)>
11.802065

> <CYS145-warhead dist stddev (A)>
1.3658683

$$$$
x1283
  -OEChem-05172015543D

 18 19  0     0  0  0  0  0  0999 V2000
   10.2394   -1.1654   23.2375 C   0  0  0  0  0  0  0  0  0  0  0  0
   11.3663   -1.9650   23.5850 C   0  0  0  0  0  0  0  0  0  0  0  0
    8.0010    0.4047   18.5672 C   0  0  0  0  0  0  0  0  0  0  0  0
    5.9141    1.0673   18.7692 C   0  0  0  0  0  0  0  0  0  0  0  0
    7.0728    0.9198   19.4918 C   0  0  0  0  0  0  0  0  0  0  0  0
   10.5207   -0.2941   22.2083 C   0  0  0  0  0  0  0  0  0  0  0  0
   12.4662   -1.6745   22.8079 C   0  0  0  0  0  0  0  0  0  0  0  0
    9.6285    0.6992   21.5569 C   0  0  0  0  0  0  0  0  0  0  0  0
   14.6549   -1.7658   24.0275 C   0  0  0  0  0  0  0  0  0  0  0  0
    5.3013    0.6155   16.3819 C   0  0  0  0  0  0  0  0  0  0  0  0
    7.2914    1.2288   20.9138 C   0  0  0  0  0  0  0  0  0  0  0  0
   13.8136   -2.2820   22.8568 C   0  0  0  0  0  0  0  0  0  0  0  0
    7.4771    0.2362   17.3501 N   0  0  0  0  0  0  0  0  0  0  0  0
    6.2072    0.6477   17.5050 N   0  0  0  0  0  0  0  0  0  0  0  0
    8.2832    0.3746   21.5344 N   0  0  0  0  0  0  0  0  0  0  0  0
   10.1166    1.7152   21.0689 O   0  0  0  0  0  0  0  0  0  0  0  0
   12.1380   -0.4420   21.6652 S   0  0  0  0  0  0  0  0  0  0  0  0
    7.9589   -0.5122   21.9017 H   0  0  0  0  0  0  0  0  0  0  0  0
  1  2  1  0  0  0  0
  1  6  2  0  0  0  0
  2  7  2  0  0  0  0
  3  5  1  0  0  0  0
  3 13  2  0  0  0  0
  4  5  2  0  0  0  0
  4 14  1  0  0  0  0
  5 11  1  0  0  0  0
  6  8  1  0  0  0  0
  6 17  1  0  0  0  0
  7 12  1  0  0  0  0
  7 17  1  0  0  0  0
  8 15  1  0  0  0  0
  8 16  2  0  0  0  0
  9 12  1  0  0  0  0
 10 14  1  0  0  0  0
 11 15  1  0  0  0  0
 13 14  1  0  0  0  0
 15 18  1  0  0  0  0
M  END
> <ref_mols>
x1283_0

> <original SMILES>
CCC1=CC=C(S1)C(=O)NCC=2C=NN(C)C2

> <Chemgauss4>
-8.609312

> <ref_pdb>
x0678_0

$$$$
x0364
  -OEChem-05172015543D

 18 19  0     0  0  0  0  0  0999 V2000
   10.2394   -1.1654   23.2375 C   0  0  0  0  0  0  0  0  0  0  0  0
   11.3663   -1.9650   23.5850 C   0  0  0  0  0  0  0  0  0  0  0  0
    8.0010    0.4047   18.5672 C   0  0  0  0  0  0  0  0  0  0  0  0
    5.9141    1.0673   18.7692 C   0  0  0  0  0  0  0  0  0  0  0  0
    7.0728    0.9198   19.4918 C   0  0  0  0  0  0  0  0  0  0  0  0
   10.5207   -0.2941   22.2083 C   0  0  0  0  0  0  0  0  0  0  0  0
   12.4662   -1.6745   22.8079 C   0  0  0  0  0  0  0  0  0  0  0  0
    9.6285    0.6992   21.5569 C   0  0  0  0  0  0  0  0  0  0  0  0
   14.6549   -1.7658   24.0275 C   0  0  0  0  0  0  0  0  0  0  0  0
    5.3013    0.6155   16.3819 C   0  0  0  0  0  0  0  0  0  0  0  0
    7.2914    1.2288   20.9138 C   0  0  0  0  0  0  0  0  0  0  0  0
   13.8136   -2.2820   22.8568 C   0  0  0  0  0  0  0  0  0  0  0  0
    7.4771    0.2362   17.3501 N   0  0  0  0  0  0  0  0  0  0  0  0
    6.2072    0.6477   17.5050 N   0  0  0  0  0  0  0  0  0  0  0  0
    8.2832    0.3746   21.5344 N   0  0  0  0  0  0  0  0  0  0  0  0
   10.1166    1.7152   21.0689 O   0  0  0  0  0  0  0  0  0  0  0  0
   12.1380   -0.4420   21.6652 S   0  0  0  0  0  0  0  0  0  0  0  0
    7.9589   -0.5122   21.9017 H   0  0  0  0  0  0  0  0  0  0  0  0
  1  2  1  0  0  0  0
  1  6  2  0  0  0  0
  2  7  2  0  0  0  0
  3  5  1  0  0  0  0
  3 13  2  0  0  0  0
  4  5  2  0  0  0  0
  4 14  1  0  0  0  0
  5 11  1  0  0  0  0
  6  8  1  0  0  0  0
  6 17  1  0  0  0  0
  7 12  1  0  0  0  0
  7 17  1  0  0  0  0
  8 15  1  0  0  0  0
  8 16  2  0  0  0  0
  9 12  1  0  0  0  0
 10 14  1  0  0  0  0
 11 15  1  0  0  0  0
 13 14  1  0  0  0  0
 15 18  1  0  0  0  0
M  END
> <ref_mols>
x0364_0

> <original SMILES>
CCC1=CC=C(S1)C(=O)NCC=2C=NN(C)C2

> <Chemgauss4>
-8.609312

> <ref_pdb>
x0678_0

$$$$
x1054
  -OEChem-05172015543D

 18 19  0     0  0  0  0  0  0999 V2000
   10.2394   -1.1654   23.2375 C   0  0  0  0  0  0  0  0  0  0  0  0
   11.3663   -1.9650   23.5850 C   0  0  0  0  0  0  0  0  0  0  0  0
    8.0010    0.4047   18.5672 C   0  0  0  0  0  0  0  0  0  0  0  0
    5.9141    1.0673   18.7692 C   0  0  0  0  0  0  0  0  0  0  0  0
    7.0728    0.9198   19.4918 C   0  0  0  0  0  0  0  0  0  0  0  0
   10.5207   -0.2941   22.2083 C   0  0  0  0  0  0  0  0  0  0  0  0
   12.4662   -1.6745   22.8079 C   0  0  0  0  0  0  0  0  0  0  0  0
    9.6285    0.6992   21.5569 C   0  0  0  0  0  0  0  0  0  0  0  0
   14.6549   -1.7658   24.0275 C   0  0  0  0  0  0  0  0  0  0  0  0
    5.3013    0.6155   16.3819 C   0  0  0  0  0  0  0  0  0  0  0  0
    7.2914    1.2288   20.9138 C   0  0  0  0  0  0  0  0  0  0  0  0
   13.8136   -2.2820   22.8568 C   0  0  0  0  0  0  0  0  0  0  0  0
    7.4771    0.2362   17.3501 N   0  0  0  0  0  0  0  0  0  0  0  0
    6.2072    0.6477   17.5050 N   0  0  0  0  0  0  0  0  0  0  0  0
    8.2832    0.3746   21.5344 N   0  0  0  0  0  0  0  0  0  0  0  0
   10.1166    1.7152   21.0689 O   0  0  0  0  0  0  0  0  0  0  0  0
   12.1380   -0.4420   21.6652 S   0  0  0  0  0  0  0  0  0  0  0  0
    7.9589   -0.5122   21.9017 H   0  0  0  0  0  0  0  0  0  0  0  0
  1  2  1  0  0  0  0
  1  6  2  0  0  0  0
  2  7  2  0  0  0  0
  3  5  1  0  0  0  0
  3 13  2  0  0  0  0
  4  5  2  0  0  0  0
  4 14  1  0  0  0  0
  5 11  1  0  0  0  0
  6  8  1  0  0  0  0
  6 17  1  0  0  0  0
  7 12  1  0  0  0  0
  7 17  1  0  0  0  0
  8 15  1  0  0  0  0
  8 16  2  0  0  0  0
  9 12  1  0  0  0  0
 10 14  1  0  0  0  0
 11 15  1  0  0  0  0
 13 14  1  0  0  0  0
 15 18  1  0  0  0  0
M  END
> <ref_mols>
x1054_0

> <original SMILES>
CCC1=CC=C(S1)C(=O)NCC=2C=NN(C)C2

> <Chemgauss4>
-8.609312

> <ref_pdb>
x0678_0

$$$$
x0674
  -OEChem-05172015543D

 18 19  0     0  0  0  0  0  0999 V2000
   12.4936   -1.4827   23.3378 C   0  0  0  0  0  0  0  0  0  0  0  0
   13.6187   -1.7963   22.5718 C   0  0  0  0  0  0  0  0  0  0  0  0
   12.1313   -0.1509   23.5758 C   0  0  0  0  0  0  0  0  0  0  0  0
   14.4213   -0.7942   22.0168 C   0  0  0  0  0  0  0  0  0  0  0  0
   12.9265    0.8688   23.0259 C   0  0  0  0  0  0  0  0  0  0  0  0
   14.0415    0.5249   22.2669 C   0  0  0  0  0  0  0  0  0  0  0  0
   13.8006    2.7190   22.4160 C   0  0  0  0  0  0  0  0  0  0  0  0
   12.4569    5.6374   23.2923 C   0  0  0  0  0  0  0  0  0  0  0  0
    8.9994    6.3420   22.2033 C   0  0  0  0  0  0  0  0  0  0  0  0
   14.1144    4.1424   22.1907 C   0  0  0  0  0  0  0  0  0  0  0  0
   11.2156    6.4450   22.9785 C   0  0  0  0  0  0  0  0  0  0  0  0
   12.7928    2.2359   23.1074 N   0  0  0  0  0  0  0  0  0  0  0  0
   14.5814    1.7278   21.8898 N   0  0  0  0  0  0  0  0  0  0  0  0
   12.9368    4.9835   22.1698 N   0  0  0  0  0  0  0  0  0  0  0  0
   12.9521    5.5901   24.4151 O   0  0  0  0  0  0  0  0  0  0  0  0
   10.1817    5.6073   22.5069 O   0  0  0  0  0  0  0  0  0  0  0  0
   15.4091    1.8555   21.3227 H   0  0  0  0  0  0  0  0  0  0  0  0
   12.4401    5.0994   21.2926 H   0  0  0  0  0  0  0  0  0  0  0  0
  1  2  1  0  0  0  0
  1  3  2  0  0  0  0
  2  4  2  0  0  0  0
  3  5  1  0  0  0  0
  4  6  1  0  0  0  0
  5  6  2  0  0  0  0
  5 12  1  0  0  0  0
  6 13  1  0  0  0  0
  7 10  1  0  0  0  0
  7 12  2  0  0  0  0
  7 13  1  0  0  0  0
  8 11  1  0  0  0  0
  8 14  1  0  0  0  0
  8 15  2  0  0  0  0
  9 16  1  0  0  0  0
 10 14  1  0  0  0  0
 11 16  1  0  0  0  0
 13 17  1  0  0  0  0
 14 18  1  0  0  0  0
M  END
> <ref_mols>
x0674_0

> <original SMILES>
COCC(=O)NCC1=NC=2C=CC=CC2N1

> <Chemgauss4>
-8.607532

> <ref_pdb>
x0195_0

$$$$
x0096
  -OEChem-05172015543D

 16 16  0     0  0  0  0  0  0999 V2000
   14.2758   -1.4546   24.0488 C   0  0  0  0  0  0  0  0  0  0  0  0
   14.3403   -1.7531   22.6878 C   0  0  0  0  0  0  0  0  0  0  0  0
   13.2502   -0.6452   24.5375 C   0  0  0  0  0  0  0  0  0  0  0  0
   12.3537   -0.4326   22.3041 C   0  0  0  0  0  0  0  0  0  0  0  0
   13.3793   -1.2421   21.8154 C   0  0  0  0  0  0  0  0  0  0  0  0
   12.2892   -0.1342   23.6651 C   0  0  0  0  0  0  0  0  0  0  0  0
    8.9914   -0.3185   20.6107 C   0  0  0  0  0  0  0  0  0  0  0  0
    6.6417   -1.0594   20.2150 C   0  0  0  0  0  0  0  0  0  0  0  0
   11.3376    0.0992   21.3352 C   0  0  0  0  0  0  0  0  0  0  0  0
    7.9047   -1.1350   20.9122 N   0  0  0  0  0  0  0  0  0  0  0  0
   10.0787   -0.6013   21.4336 N   0  0  0  0  0  0  0  0  0  0  0  0
    8.9926    0.5425   19.7319 O   0  0  0  0  0  0  0  0  0  0  0  0
   13.4516   -1.5350   20.5093 F   0  0  0  0  0  0  0  0  0  0  0  0
   11.0362    0.8645   24.3072 Cl  0  0  0  0  0  0  0  0  0  0  0  0
    8.0047   -1.8165   21.6581 H   0  0  0  0  0  0  0  0  0  0  0  0
    9.9710   -1.2983   22.1638 H   0  0  0  0  0  0  0  0  0  0  0  0
  1  2  1  0  0  0  0
  1  3  2  0  0  0  0
  2  5  2  0  0  0  0
  3  6  1  0  0  0  0
  4  5  1  0  0  0  0
  4  6  2  0  0  0  0
  4  9  1  0  0  0  0
  5 13  1  0  0  0  0
  6 14  1  0  0  0  0
  7 10  1  0  0  0  0
  7 11  1  0  0  0  0
  7 12  2  0  0  0  0
  8 10  1  0  0  0  0
  9 11  1  0  0  0  0
 10 15  1  0  0  0  0
 11 16  1  0  0  0  0
M  END
> <ref_mols>
x0096_0

> <original SMILES>
CNC(=O)NCC=1C(F)=CC=CC1Cl

> <Chemgauss4>
-8.605600

> <ref_pdb>
x0678_0

$$$$
x0603
  -OEChem-05172015543D

 15 16  0     1  0  0  0  0  0999 V2000
   12.5467    0.6108   23.7097 C   0  0  0  0  0  0  0  0  0  0  0  0
   13.9511   -2.1274   22.8918 C   0  0  0  0  0  0  0  0  0  0  0  0
   14.1587   -1.2622   24.1119 C   0  0  0  0  0  0  0  0  0  0  0  0
   10.8825    2.3798   23.2384 C   0  0  0  0  0  0  0  0  0  0  0  0
   13.1698    2.6822   22.3722 C   0  0  0  0  0  0  0  0  0  0  0  0
   10.8889    3.7916   23.8063 C   0  0  0  0  0  0  0  0  0  0  0  0
   13.2099    4.1001   22.9258 C   0  0  0  0  0  0  0  0  0  0  0  0
   14.5036   -1.2543   21.7885 C   0  0  0  0  0  0  0  0  0  0  0  0
   13.9583    0.1393   23.5683 C   0  0  1  0  0  0  0  0  0  0  0  0
   11.7834    6.0901   23.4165 C   0  0  0  0  0  0  0  0  0  0  0  0
   12.2412    1.8463   23.1408 N   0  0  0  0  0  0  0  0  0  0  0  0
   11.8039    4.6559   22.9679 N   0  3  0  0  0  0  0  0  0  0  0  0
   11.7328   -0.0948   24.3112 O   0  0  0  0  0  0  0  0  0  0  0  0
   14.2140    0.0993   22.1613 O   0  0  0  0  0  0  0  0  0  0  0  0
   11.4407    4.6453   22.0048 H   0  0  0  0  0  0  0  0  0  0  0  0
  1  9  1  0  0  0  0
  1 11  1  0  0  0  0
  1 13  2  0  0  0  0
  2  3  1  0  0  0  0
  2  8  1  0  0  0  0
  3  9  1  0  0  0  0
  4  6  1  0  0  0  0
  4 11  1  0  0  0  0
  5  7  1  0  0  0  0
  5 11  1  0  0  0  0
  6 12  1  0  0  0  0
  7 12  1  0  0  0  0
  8 14  1  0  0  0  0
  9 14  1  0  0  0  0
 10 12  1  0  0  0  0
 12 15  1  0  0  0  0
M  CHG  1  12   1
M  END
> <ref_mols>
x0603_0

> <original SMILES>
CN1CCN(CC1)C(=O)C2CCCO2

> <Chemgauss4>
-8.601013

> <ref_pdb>
x0195_0

$$$$
x1263
  -OEChem-05172015543D

 15 16  0     1  0  0  0  0  0999 V2000
   12.5467    0.6108   23.7097 C   0  0  0  0  0  0  0  0  0  0  0  0
   13.9511   -2.1274   22.8918 C   0  0  0  0  0  0  0  0  0  0  0  0
   14.1587   -1.2622   24.1119 C   0  0  0  0  0  0  0  0  0  0  0  0
   10.8825    2.3798   23.2384 C   0  0  0  0  0  0  0  0  0  0  0  0
   13.1698    2.6822   22.3722 C   0  0  0  0  0  0  0  0  0  0  0  0
   10.8889    3.7916   23.8063 C   0  0  0  0  0  0  0  0  0  0  0  0
   13.2099    4.1001   22.9258 C   0  0  0  0  0  0  0  0  0  0  0  0
   14.5036   -1.2543   21.7885 C   0  0  0  0  0  0  0  0  0  0  0  0
   13.9583    0.1393   23.5683 C   0  0  1  0  0  0  0  0  0  0  0  0
   11.7834    6.0901   23.4165 C   0  0  0  0  0  0  0  0  0  0  0  0
   12.2412    1.8463   23.1408 N   0  0  0  0  0  0  0  0  0  0  0  0
   11.8039    4.6559   22.9679 N   0  3  0  0  0  0  0  0  0  0  0  0
   11.7328   -0.0948   24.3112 O   0  0  0  0  0  0  0  0  0  0  0  0
   14.2140    0.0993   22.1613 O   0  0  0  0  0  0  0  0  0  0  0  0
   11.4407    4.6453   22.0048 H   0  0  0  0  0  0  0  0  0  0  0  0
  1  9  1  0  0  0  0
  1 11  1  0  0  0  0
  1 13  2  0  0  0  0
  2  3  1  0  0  0  0
  2  8  1  0  0  0  0
  3  9  1  0  0  0  0
  4  6  1  0  0  0  0
  4 11  1  0  0  0  0
  5  7  1  0  0  0  0
  5 11  1  0  0  0  0
  6 12  1  0  0  0  0
  7 12  1  0  0  0  0
  8 14  1  0  0  0  0
  9 14  1  0  0  0  0
 10 12  1  0  0  0  0
 12 15  1  0  0  0  0
M  CHG  1  12   1
M  END
> <ref_mols>
x1263_0

> <original SMILES>
CN1CCN(CC1)C(=O)C2CCCO2

> <Chemgauss4>
-8.601013

> <ref_pdb>
x0195_0

$$$$
x1246
  -OEChem-05172015543D

 16 17  0     0  0  0  0  0  0999 V2000
   10.6475   -0.6253   25.4802 C   0  0  0  0  0  0  0  0  0  0  0  0
    9.9243   -1.6656   24.8969 C   0  0  0  0  0  0  0  0  0  0  0  0
   11.9866   -0.8131   25.8226 C   0  0  0  0  0  0  0  0  0  0  0  0
    7.7798   -5.7904   22.5547 C   0  0  0  0  0  0  0  0  0  0  0  0
   11.8792   -3.0816   24.9984 C   0  0  0  0  0  0  0  0  0  0  0  0
    6.7199   -6.1229   21.7532 C   0  0  0  0  0  0  0  0  0  0  0  0
   10.5401   -2.8938   24.6560 C   0  0  0  0  0  0  0  0  0  0  0  0
   12.6025   -2.0413   25.5817 C   0  0  0  0  0  0  0  0  0  0  0  0
    7.7870   -4.3850   22.5332 C   0  0  0  0  0  0  0  0  0  0  0  0
    9.7852   -3.9780   24.0484 C   0  0  0  0  0  0  0  0  0  0  0  0
    6.8067   -3.8842   21.7762 N   0  0  0  0  0  0  0  0  0  0  0  0
    8.7198   -3.5748   23.2285 N   0  0  0  0  0  0  0  0  0  0  0  0
   10.0535   -5.1660   24.2759 O   0  0  0  0  0  0  0  0  0  0  0  0
    6.1311   -4.9938   21.2826 O   0  0  0  0  0  0  0  0  0  0  0  0
   14.2550   -2.2721   26.0040 Cl  0  0  0  0  0  0  0  0  0  0  0  0
    8.6014   -2.5707   23.1189 H   0  0  0  0  0  0  0  0  0  0  0  0
  1  2  1  0  0  0  0
  1  3  2  0  0  0  0
  2  7  2  0  0  0  0
  3  8  1  0  0  0  0
  4  6  2  0  0  0  0
  4  9  1  0  0  0  0
  5  7  1  0  0  0  0
  5  8  2  0  0  0  0
  6 14  1  0  0  0  0
  7 10  1  0  0  0  0
  8 15  1  0  0  0  0
  9 11  2  0  0  0  0
  9 12  1  0  0  0  0
 10 12  1  0  0  0  0
 10 13  2  0  0  0  0
 11 14  1  0  0  0  0
 12 16  1  0  0  0  0
M  END
> <ref_mols>
x1246_0

> <original SMILES>
ClC=1C=CC=C(C1)C(=O)NC=2C=CON2

> <Chemgauss4>
-8.600665

> <ref_pdb>
x0749_0

$$$$
x0368
  -OEChem-05172015543D

 16 17  0     0  0  0  0  0  0999 V2000
   10.6475   -0.6253   25.4802 C   0  0  0  0  0  0  0  0  0  0  0  0
    9.9243   -1.6656   24.8969 C   0  0  0  0  0  0  0  0  0  0  0  0
   11.9866   -0.8131   25.8226 C   0  0  0  0  0  0  0  0  0  0  0  0
    7.7798   -5.7904   22.5547 C   0  0  0  0  0  0  0  0  0  0  0  0
   11.8792   -3.0816   24.9984 C   0  0  0  0  0  0  0  0  0  0  0  0
    6.7199   -6.1229   21.7532 C   0  0  0  0  0  0  0  0  0  0  0  0
   10.5401   -2.8938   24.6560 C   0  0  0  0  0  0  0  0  0  0  0  0
   12.6025   -2.0413   25.5817 C   0  0  0  0  0  0  0  0  0  0  0  0
    7.7870   -4.3850   22.5332 C   0  0  0  0  0  0  0  0  0  0  0  0
    9.7852   -3.9780   24.0484 C   0  0  0  0  0  0  0  0  0  0  0  0
    6.8067   -3.8842   21.7762 N   0  0  0  0  0  0  0  0  0  0  0  0
    8.7198   -3.5748   23.2285 N   0  0  0  0  0  0  0  0  0  0  0  0
   10.0535   -5.1660   24.2759 O   0  0  0  0  0  0  0  0  0  0  0  0
    6.1311   -4.9938   21.2826 O   0  0  0  0  0  0  0  0  0  0  0  0
   14.2550   -2.2721   26.0040 Cl  0  0  0  0  0  0  0  0  0  0  0  0
    8.6014   -2.5707   23.1189 H   0  0  0  0  0  0  0  0  0  0  0  0
  1  2  1  0  0  0  0
  1  3  2  0  0  0  0
  2  7  2  0  0  0  0
  3  8  1  0  0  0  0
  4  6  2  0  0  0  0
  4  9  1  0  0  0  0
  5  7  1  0  0  0  0
  5  8  2  0  0  0  0
  6 14  1  0  0  0  0
  7 10  1  0  0  0  0
  8 15  1  0  0  0  0
  9 11  2  0  0  0  0
  9 12  1  0  0  0  0
 10 12  1  0  0  0  0
 10 13  2  0  0  0  0
 11 14  1  0  0  0  0
 12 16  1  0  0  0  0
M  END
> <ref_mols>
x0368_0

> <original SMILES>
ClC=1C=CC=C(C1)C(=O)NC=2C=CON2

> <Chemgauss4>
-8.600665

> <ref_pdb>
x0749_0

$$$$
x0370
  -OEChem-05172015543D

 16 17  0     1  0  0  0  0  0999 V2000
   13.2665   -0.3030   24.2138 C   0  0  0  0  0  0  0  0  0  0  0  0
   14.0998   -1.3099   23.7264 C   0  0  0  0  0  0  0  0  0  0  0  0
   12.3002    0.2652   23.3837 C   0  0  0  0  0  0  0  0  0  0  0  0
   13.9668   -1.7484   22.4090 C   0  0  0  0  0  0  0  0  0  0  0  0
   12.1672   -0.1734   22.0663 C   0  0  0  0  0  0  0  0  0  0  0  0
   13.0005   -1.1802   21.5789 C   0  0  0  0  0  0  0  0  0  0  0  0
    9.7953   -1.6380   21.6746 C   0  0  0  0  0  0  0  0  0  0  0  0
    8.8015   -1.1109   22.6940 C   0  0  0  0  0  0  0  0  0  0  0  0
    7.9336    0.4916   21.2022 C   0  0  0  0  0  0  0  0  0  0  0  0
    8.8804    0.0907   20.0722 C   0  0  2  0  0  0  0  0  0  0  0  0
    8.2316   -0.8730   19.0790 C   0  0  0  0  0  0  0  0  0  0  0  0
   11.1265    0.4401   21.1767 C   0  0  0  0  0  0  0  0  0  0  0  0
   10.1233   -0.5613   20.6634 N   0  3  1  0  0  0  0  0  0  0  0  0
    7.6295   -0.6196   22.0451 O   0  0  0  0  0  0  0  0  0  0  0  0
   12.8801   -1.6083   20.3146 F   0  0  0  0  0  0  0  0  0  0  0  0
   10.6083   -1.0449   19.8576 H   0  0  0  0  0  0  0  0  0  0  0  0
  1  2  1  0  0  0  0
  1  3  2  0  0  0  0
  2  4  2  0  0  0  0
  3  5  1  0  0  0  0
  4  6  1  0  0  0  0
  5  6  2  0  0  0  0
  5 12  1  0  0  0  0
  6 15  1  0  0  0  0
  7  8  1  0  0  0  0
  7 13  1  0  0  0  0
  8 14  1  0  0  0  0
  9 10  1  0  0  0  0
  9 14  1  0  0  0  0
 10 11  1  0  0  0  0
 10 13  1  0  0  0  0
 12 13  1  0  0  0  0
 13 16  1  0  0  0  0
M  CHG  1  13   1
M  END
> <ref_mols>
x0370_0

> <original SMILES>
CC1COCCN1CC=2C=CC=CC2F

> <Chemgauss4>
-8.597687

> <ref_pdb>
x0678_0

$$$$
x0165
  -OEChem-05172015543D

 18 19  0     0  0  0  0  0  0999 V2000
   13.6425   -1.5315   24.9947 C   0  0  0  0  0  0  0  0  0  0  0  0
   12.9211   -0.9673   23.9426 C   0  0  0  0  0  0  0  0  0  0  0  0
   13.1388   -2.6445   25.6680 C   0  0  0  0  0  0  0  0  0  0  0  0
   11.6958   -1.5160   23.5639 C   0  0  0  0  0  0  0  0  0  0  0  0
   11.9135   -3.1931   25.2893 C   0  0  0  0  0  0  0  0  0  0  0  0
   11.1921   -2.6289   24.2372 C   0  0  0  0  0  0  0  0  0  0  0  0
    9.3046   -4.2891   24.4150 C   0  0  0  0  0  0  0  0  0  0  0  0
    7.0116   -5.2091   24.6410 C   0  0  0  0  0  0  0  0  0  0  0  0
    7.6747   -4.3053   22.4308 C   0  0  0  0  0  0  0  0  0  0  0  0
    6.3726   -6.4143   23.9710 C   0  0  0  0  0  0  0  0  0  0  0  0
    7.0184   -5.4989   21.7468 C   0  0  0  0  0  0  0  0  0  0  0  0
    4.6447   -5.2263   22.5597 C   0  0  0  0  0  0  0  0  0  0  0  0
    8.0655   -4.6126   23.8156 N   0  0  0  0  0  0  0  0  0  0  0  0
    9.9473   -3.1863   23.8522 N   0  0  0  0  0  0  0  0  0  0  0  0
    5.8980   -6.0571   22.5850 N   0  3  0  0  0  0  0  0  0  0  0  0
    9.7488   -4.9266   25.3733 O   0  0  0  0  0  0  0  0  0  0  0  0
    9.4535   -2.7109   23.0487 H   0  0  0  0  0  0  0  0  0  0  0  0
    5.6298   -6.9783   22.1285 H   0  0  0  0  0  0  0  0  0  0  0  0
  1  2  1  0  0  0  0
  1  3  2  0  0  0  0
  2  4  2  0  0  0  0
  3  5  1  0  0  0  0
  4  6  1  0  0  0  0
  5  6  2  0  0  0  0
  6 14  1  0  0  0  0
  7 13  1  0  0  0  0
  7 14  1  0  0  0  0
  7 16  2  0  0  0  0
  8 10  1  0  0  0  0
  8 13  1  0  0  0  0
  9 11  1  0  0  0  0
  9 13  1  0  0  0  0
 10 15  1  0  0  0  0
 11 15  1  0  0  0  0
 12 15  1  0  0  0  0
 14 17  1  0  0  0  0
 15 18  1  0  0  0  0
M  CHG  1  15   1
M  END
> <ref_mols>
x0165_0

> <original SMILES>
CN1CCN(CC1)C(=O)NC=2C=CC=CC2

> <Chemgauss4>
-8.596467

> <ref_pdb>
x0749_0

$$$$
x1195
  -OEChem-05172015543D

 15 16  0     1  0  0  0  0  0999 V2000
    6.0993    0.5942   18.3012 C   0  0  0  0  0  0  0  0  0  0  0  0
    5.8679    0.8961   19.6251 C   0  0  0  0  0  0  0  0  0  0  0  0
    8.2491    0.0045   18.8113 C   0  0  0  0  0  0  0  0  0  0  0  0
    8.0180    0.3070   20.1351 C   0  0  0  0  0  0  0  0  0  0  0  0
    9.0604    0.1527   21.1438 C   0  0  0  0  0  0  0  0  0  0  0  0
   10.1726   -1.3056   22.8123 C   0  0  0  0  0  0  0  0  0  0  0  0
    8.3201   -2.2695   21.5081 C   0  0  0  0  0  0  0  0  0  0  0  0
    9.5581   -1.9266   24.0573 C   0  0  0  0  0  0  0  0  0  0  0  0
    7.7832   -2.8657   22.8129 C   0  0  1  0  0  0  0  0  0  0  0  0
    7.0576   -4.1788   22.5576 C   0  0  0  0  0  0  0  0  0  0  0  0
    7.2940    0.1429   17.8705 N   0  0  0  0  0  0  0  0  0  0  0  0
    6.8232    0.7580   20.5658 N   0  0  0  0  0  0  0  0  0  0  0  0
    9.1482   -1.0887   21.7911 N   0  0  0  0  0  0  0  0  0  0  0  0
    9.8090    1.0994   21.3842 O   0  0  0  0  0  0  0  0  0  0  0  0
    8.8656   -3.1295   23.7151 O   0  0  0  0  0  0  0  0  0  0  0  0
  1  2  2  0  0  0  0
  1 11  1  0  0  0  0
  2 12  1  0  0  0  0
  3  4  1  0  0  0  0
  3 11  2  0  0  0  0
  4  5  1  0  0  0  0
  4 12  2  0  0  0  0
  5 13  1  0  0  0  0
  5 14  2  0  0  0  0
  6  8  1  0  0  0  0
  6 13  1  0  0  0  0
  7  9  1  0  0  0  0
  7 13  1  0  0  0  0
  8 15  1  0  0  0  0
  9 10  1  0  0  0  0
  9 15  1  0  0  0  0
M  END
> <ref_mols>
x1195_0

> <original SMILES>
CC1CN(CCO1)C(=O)C=2C=NC=CN2

> <Chemgauss4>
-8.595640

> <ref_pdb>
x0107_0

$$$$
x0196
  -OEChem-05172015543D

 15 16  0     1  0  0  0  0  0999 V2000
    6.0993    0.5942   18.3012 C   0  0  0  0  0  0  0  0  0  0  0  0
    5.8679    0.8961   19.6251 C   0  0  0  0  0  0  0  0  0  0  0  0
    8.2491    0.0045   18.8113 C   0  0  0  0  0  0  0  0  0  0  0  0
    8.0180    0.3070   20.1351 C   0  0  0  0  0  0  0  0  0  0  0  0
    9.0604    0.1527   21.1438 C   0  0  0  0  0  0  0  0  0  0  0  0
   10.1726   -1.3056   22.8123 C   0  0  0  0  0  0  0  0  0  0  0  0
    8.3201   -2.2695   21.5081 C   0  0  0  0  0  0  0  0  0  0  0  0
    9.5581   -1.9266   24.0573 C   0  0  0  0  0  0  0  0  0  0  0  0
    7.7832   -2.8657   22.8129 C   0  0  1  0  0  0  0  0  0  0  0  0
    7.0576   -4.1788   22.5576 C   0  0  0  0  0  0  0  0  0  0  0  0
    7.2940    0.1429   17.8705 N   0  0  0  0  0  0  0  0  0  0  0  0
    6.8232    0.7580   20.5658 N   0  0  0  0  0  0  0  0  0  0  0  0
    9.1482   -1.0887   21.7911 N   0  0  0  0  0  0  0  0  0  0  0  0
    9.8090    1.0994   21.3842 O   0  0  0  0  0  0  0  0  0  0  0  0
    8.8656   -3.1295   23.7151 O   0  0  0  0  0  0  0  0  0  0  0  0
  1  2  2  0  0  0  0
  1 11  1  0  0  0  0
  2 12  1  0  0  0  0
  3  4  1  0  0  0  0
  3 11  2  0  0  0  0
  4  5  1  0  0  0  0
  4 12  2  0  0  0  0
  5 13  1  0  0  0  0
  5 14  2  0  0  0  0
  6  8  1  0  0  0  0
  6 13  1  0  0  0  0
  7  9  1  0  0  0  0
  7 13  1  0  0  0  0
  8 15  1  0  0  0  0
  9 10  1  0  0  0  0
  9 15  1  0  0  0  0
M  END
> <ref_mols>
x0196_0

> <original SMILES>
CC1CN(CCO1)C(=O)C=2C=NC=CN2

> <Chemgauss4>
-8.595640

> <ref_pdb>
x0107_0

$$$$
x1446
  -OEChem-05172015543D

 17 17  0     0  0  0  0  0  0999 V2000
    7.3627   -4.7813   21.9498 C   0  0  0  0  0  0  0  0  0  0  0  0
   11.9373   -2.9466   24.7339 C   0  0  0  0  0  0  0  0  0  0  0  0
    8.6482   -2.8687   22.8438 C   0  0  0  0  0  0  0  0  0  0  0  0
    9.1898   -5.1682   23.6505 C   0  0  0  0  0  0  0  0  0  0  0  0
   10.1360   -2.5897   23.0207 C   0  0  0  0  0  0  0  0  0  0  0  0
    9.9180   -4.3881   24.7394 C   0  0  0  0  0  0  0  0  0  0  0  0
   13.7449   -1.1234   25.9955 C   0  0  0  0  0  0  0  0  0  0  0  0
   13.4729    0.2852   23.9337 C   0  0  0  0  0  0  0  0  0  0  0  0
   11.4853   -0.1933   25.3926 C   0  0  0  0  0  0  0  0  0  0  0  0
    7.1374   -6.2737   21.9610 C   0  0  0  0  0  0  0  0  0  0  0  0
   12.8073   -0.7369   24.8526 C   0  0  0  0  0  0  0  0  0  0  0  0
    8.3703   -4.3052   22.7902 N   0  0  0  0  0  0  0  0  0  0  0  0
   10.7020   -3.2895   24.1779 N   0  0  0  0  0  0  0  0  0  0  0  0
    6.6667   -4.0648   21.2268 O   0  0  0  0  0  0  0  0  0  0  0  0
   12.4429   -3.5099   25.7026 O   0  0  0  0  0  0  0  0  0  0  0  0
   12.5346   -1.9059   24.0717 O   0  0  0  0  0  0  0  0  0  0  0  0
    5.9661   -6.5969   23.2344 Cl  0  0  0  0  0  0  0  0  0  0  0  0
  1 10  1  0  0  0  0
  1 12  1  0  0  0  0
  1 14  2  0  0  0  0
  2 13  1  0  0  0  0
  2 15  2  0  0  0  0
  2 16  1  0  0  0  0
  3  5  1  0  0  0  0
  3 12  1  0  0  0  0
  4  6  1  0  0  0  0
  4 12  1  0  0  0  0
  5 13  1  0  0  0  0
  6 13  1  0  0  0  0
  7 11  1  0  0  0  0
  8 11  1  0  0  0  0
  9 11  1  0  0  0  0
 10 17  1  0  0  0  0
 11 16  1  0  0  0  0
M  END
> <ref_mols>
x1446_0

> <original SMILES>
CC(C)(C)OC(=O)N1CCN(CC1)C(=O)CCl

> <Chemgauss4>
-8.591765

> <ref_pdb>
x0749_0

$$$$
x1305
  -OEChem-05172015543D

 17 17  0     0  0  0  0  0  0999 V2000
    7.3627   -4.7813   21.9498 C   0  0  0  0  0  0  0  0  0  0  0  0
   11.9373   -2.9466   24.7339 C   0  0  0  0  0  0  0  0  0  0  0  0
    8.6482   -2.8687   22.8438 C   0  0  0  0  0  0  0  0  0  0  0  0
    9.1898   -5.1682   23.6505 C   0  0  0  0  0  0  0  0  0  0  0  0
   10.1360   -2.5897   23.0207 C   0  0  0  0  0  0  0  0  0  0  0  0
    9.9180   -4.3881   24.7394 C   0  0  0  0  0  0  0  0  0  0  0  0
   13.7449   -1.1234   25.9955 C   0  0  0  0  0  0  0  0  0  0  0  0
   13.4729    0.2852   23.9337 C   0  0  0  0  0  0  0  0  0  0  0  0
   11.4853   -0.1933   25.3926 C   0  0  0  0  0  0  0  0  0  0  0  0
    7.1374   -6.2737   21.9610 C   0  0  0  0  0  0  0  0  0  0  0  0
   12.8073   -0.7369   24.8526 C   0  0  0  0  0  0  0  0  0  0  0  0
    8.3703   -4.3052   22.7902 N   0  0  0  0  0  0  0  0  0  0  0  0
   10.7020   -3.2895   24.1779 N   0  0  0  0  0  0  0  0  0  0  0  0
    6.6667   -4.0648   21.2268 O   0  0  0  0  0  0  0  0  0  0  0  0
   12.4429   -3.5099   25.7026 O   0  0  0  0  0  0  0  0  0  0  0  0
   12.5346   -1.9059   24.0717 O   0  0  0  0  0  0  0  0  0  0  0  0
    5.9661   -6.5969   23.2344 Cl  0  0  0  0  0  0  0  0  0  0  0  0
  1 10  1  0  0  0  0
  1 12  1  0  0  0  0
  1 14  2  0  0  0  0
  2 13  1  0  0  0  0
  2 15  2  0  0  0  0
  2 16  1  0  0  0  0
  3  5  1  0  0  0  0
  3 12  1  0  0  0  0
  4  6  1  0  0  0  0
  4 12  1  0  0  0  0
  5 13  1  0  0  0  0
  6 13  1  0  0  0  0
  7 11  1  0  0  0  0
  8 11  1  0  0  0  0
  9 11  1  0  0  0  0
 10 17  1  0  0  0  0
 11 16  1  0  0  0  0
M  END
> <ref_mols>
x1305_0

> <original SMILES>
CC(C)(C)OC(=O)N1CCN(CC1)C(=O)CCl

> <Chemgauss4>
-8.591765

> <ref_pdb>
x0749_0

$$$$
x1343
  -OEChem-05172015543D

 17 17  0     0  0  0  0  0  0999 V2000
    7.3627   -4.7813   21.9498 C   0  0  0  0  0  0  0  0  0  0  0  0
   11.9373   -2.9466   24.7339 C   0  0  0  0  0  0  0  0  0  0  0  0
    8.6482   -2.8687   22.8438 C   0  0  0  0  0  0  0  0  0  0  0  0
    9.1898   -5.1682   23.6505 C   0  0  0  0  0  0  0  0  0  0  0  0
   10.1360   -2.5897   23.0207 C   0  0  0  0  0  0  0  0  0  0  0  0
    9.9180   -4.3881   24.7394 C   0  0  0  0  0  0  0  0  0  0  0  0
   13.7449   -1.1234   25.9955 C   0  0  0  0  0  0  0  0  0  0  0  0
   13.4729    0.2852   23.9337 C   0  0  0  0  0  0  0  0  0  0  0  0
   11.4853   -0.1933   25.3926 C   0  0  0  0  0  0  0  0  0  0  0  0
    7.1374   -6.2737   21.9610 C   0  0  0  0  0  0  0  0  0  0  0  0
   12.8073   -0.7369   24.8526 C   0  0  0  0  0  0  0  0  0  0  0  0
    8.3703   -4.3052   22.7902 N   0  0  0  0  0  0  0  0  0  0  0  0
   10.7020   -3.2895   24.1779 N   0  0  0  0  0  0  0  0  0  0  0  0
    6.6667   -4.0648   21.2268 O   0  0  0  0  0  0  0  0  0  0  0  0
   12.4429   -3.5099   25.7026 O   0  0  0  0  0  0  0  0  0  0  0  0
   12.5346   -1.9059   24.0717 O   0  0  0  0  0  0  0  0  0  0  0  0
    5.9661   -6.5969   23.2344 Cl  0  0  0  0  0  0  0  0  0  0  0  0
  1 10  1  0  0  0  0
  1 12  1  0  0  0  0
  1 14  2  0  0  0  0
  2 13  1  0  0  0  0
  2 15  2  0  0  0  0
  2 16  1  0  0  0  0
  3  5  1  0  0  0  0
  3 12  1  0  0  0  0
  4  6  1  0  0  0  0
  4 12  1  0  0  0  0
  5 13  1  0  0  0  0
  6 13  1  0  0  0  0
  7 11  1  0  0  0  0
  8 11  1  0  0  0  0
  9 11  1  0  0  0  0
 10 17  1  0  0  0  0
 11 16  1  0  0  0  0
M  END
> <ref_mols>
x1343_0

> <original SMILES>
CC(C)(C)OC(=O)N1CCN(CC1)C(=O)CCl

> <Chemgauss4>
-8.591765

> <ref_pdb>
x0749_0

$$$$
x0715
  -OEChem-05172015543D

 17 17  0     0  0  0  0  0  0999 V2000
    7.3627   -4.7813   21.9498 C   0  0  0  0  0  0  0  0  0  0  0  0
   11.9373   -2.9466   24.7339 C   0  0  0  0  0  0  0  0  0  0  0  0
    8.6482   -2.8687   22.8438 C   0  0  0  0  0  0  0  0  0  0  0  0
    9.1898   -5.1682   23.6505 C   0  0  0  0  0  0  0  0  0  0  0  0
   10.1360   -2.5897   23.0207 C   0  0  0  0  0  0  0  0  0  0  0  0
    9.9180   -4.3881   24.7394 C   0  0  0  0  0  0  0  0  0  0  0  0
   13.7449   -1.1234   25.9955 C   0  0  0  0  0  0  0  0  0  0  0  0
   13.4729    0.2852   23.9337 C   0  0  0  0  0  0  0  0  0  0  0  0
   11.4853   -0.1933   25.3926 C   0  0  0  0  0  0  0  0  0  0  0  0
    7.1374   -6.2737   21.9610 C   0  0  0  0  0  0  0  0  0  0  0  0
   12.8073   -0.7369   24.8526 C   0  0  0  0  0  0  0  0  0  0  0  0
    8.3703   -4.3052   22.7902 N   0  0  0  0  0  0  0  0  0  0  0  0
   10.7020   -3.2895   24.1779 N   0  0  0  0  0  0  0  0  0  0  0  0
    6.6667   -4.0648   21.2268 O   0  0  0  0  0  0  0  0  0  0  0  0
   12.4429   -3.5099   25.7026 O   0  0  0  0  0  0  0  0  0  0  0  0
   12.5346   -1.9059   24.0717 O   0  0  0  0  0  0  0  0  0  0  0  0
    5.9661   -6.5969   23.2344 Cl  0  0  0  0  0  0  0  0  0  0  0  0
  1 10  1  0  0  0  0
  1 12  1  0  0  0  0
  1 14  2  0  0  0  0
  2 13  1  0  0  0  0
  2 15  2  0  0  0  0
  2 16  1  0  0  0  0
  3  5  1  0  0  0  0
  3 12  1  0  0  0  0
  4  6  1  0  0  0  0
  4 12  1  0  0  0  0
  5 13  1  0  0  0  0
  6 13  1  0  0  0  0
  7 11  1  0  0  0  0
  8 11  1  0  0  0  0
  9 11  1  0  0  0  0
 10 17  1  0  0  0  0
 11 16  1  0  0  0  0
M  END
> <ref_mols>
x0715_0

> <original SMILES>
CC(C)(C)OC(=O)N1CCN(CC1)C(=O)CCl

> <Chemgauss4>
-8.591765

> <ref_pdb>
x0749_0

$$$$
x0789
  -OEChem-05172015543D

 17 17  0     0  0  0  0  0  0999 V2000
    7.3627   -4.7813   21.9498 C   0  0  0  0  0  0  0  0  0  0  0  0
   11.9373   -2.9466   24.7339 C   0  0  0  0  0  0  0  0  0  0  0  0
    8.6482   -2.8687   22.8438 C   0  0  0  0  0  0  0  0  0  0  0  0
    9.1898   -5.1682   23.6505 C   0  0  0  0  0  0  0  0  0  0  0  0
   10.1360   -2.5897   23.0207 C   0  0  0  0  0  0  0  0  0  0  0  0
    9.9180   -4.3881   24.7394 C   0  0  0  0  0  0  0  0  0  0  0  0
   13.7449   -1.1234   25.9955 C   0  0  0  0  0  0  0  0  0  0  0  0
   13.4729    0.2852   23.9337 C   0  0  0  0  0  0  0  0  0  0  0  0
   11.4853   -0.1933   25.3926 C   0  0  0  0  0  0  0  0  0  0  0  0
    7.1374   -6.2737   21.9610 C   0  0  0  0  0  0  0  0  0  0  0  0
   12.8073   -0.7369   24.8526 C   0  0  0  0  0  0  0  0  0  0  0  0
    8.3703   -4.3052   22.7902 N   0  0  0  0  0  0  0  0  0  0  0  0
   10.7020   -3.2895   24.1779 N   0  0  0  0  0  0  0  0  0  0  0  0
    6.6667   -4.0648   21.2268 O   0  0  0  0  0  0  0  0  0  0  0  0
   12.4429   -3.5099   25.7026 O   0  0  0  0  0  0  0  0  0  0  0  0
   12.5346   -1.9059   24.0717 O   0  0  0  0  0  0  0  0  0  0  0  0
    5.9661   -6.5969   23.2344 Cl  0  0  0  0  0  0  0  0  0  0  0  0
  1 10  1  0  0  0  0
  1 12  1  0  0  0  0
  1 14  2  0  0  0  0
  2 13  1  0  0  0  0
  2 15  2  0  0  0  0
  2 16  1  0  0  0  0
  3  5  1  0  0  0  0
  3 12  1  0  0  0  0
  4  6  1  0  0  0  0
  4 12  1  0  0  0  0
  5 13  1  0  0  0  0
  6 13  1  0  0  0  0
  7 11  1  0  0  0  0
  8 11  1  0  0  0  0
  9 11  1  0  0  0  0
 10 17  1  0  0  0  0
 11 16  1  0  0  0  0
M  END
> <ref_mols>
x0789_0

> <original SMILES>
CC(C)(C)OC(=O)N1CCN(CC1)C(=O)CCl

> <Chemgauss4>
-8.591765

> <ref_pdb>
x0749_0

$$$$
x0375
  -OEChem-05172015543D

 17 18  0     1  0  0  0  0  0999 V2000
   13.4360   -0.5825   22.6358 C   0  0  0  0  0  0  0  0  0  0  0  0
    6.8106   -0.0761   18.9357 C   0  0  0  0  0  0  0  0  0  0  0  0
    5.7737   -0.4807   21.2092 C   0  0  0  0  0  0  0  0  0  0  0  0
    8.1971   -0.0152   19.5769 C   0  0  0  0  0  0  0  0  0  0  0  0
    7.1588   -0.4204   21.8536 C   0  0  0  0  0  0  0  0  0  0  0  0
   12.3881   -1.4787   22.0249 C   0  0  0  0  0  0  0  0  0  0  0  0
   12.5905    0.5082   23.2585 C   0  0  0  0  0  0  0  0  0  0  0  0
    5.6828    0.3203   19.9010 C   0  0  0  0  0  0  0  0  0  0  0  0
    8.2428   -0.8361   20.8628 C   0  0  0  0  0  0  0  0  0  0  0  0
   11.2892   -1.4163   23.0716 C   0  0  2  0  0  0  0  0  0  0  0  0
    4.5378    2.2228   21.0556 C   0  0  0  0  0  0  0  0  0  0  0  0
    5.6683    1.8290   20.1630 C   0  0  0  0  0  0  0  0  0  0  0  0
    9.9060   -1.6895   22.5137 C   0  0  0  0  0  0  0  0  0  0  0  0
    9.5735   -0.6545   21.5021 N   0  3  0  0  0  0  0  0  0  0  0  0
   11.3388   -0.0907   23.6258 O   0  0  0  0  0  0  0  0  0  0  0  0
   10.2954   -0.6489   20.7708 H   0  0  0  0  0  0  0  0  0  0  0  0
    9.6072    0.2741   21.9409 H   0  0  0  0  0  0  0  0  0  0  0  0
  1  6  1  0  0  0  0
  1  7  1  0  0  0  0
  2  4  1  0  0  0  0
  2  8  1  0  0  0  0
  3  5  1  0  0  0  0
  3  8  1  0  0  0  0
  4  9  1  0  0  0  0
  5  9  1  0  0  0  0
  6 10  1  0  0  0  0
  7 15  1  0  0  0  0
  8 12  1  0  0  0  0
  9 14  1  0  0  0  0
 10 13  1  0  0  0  0
 10 15  1  0  0  0  0
 11 12  1  0  0  0  0
 13 14  1  0  0  0  0
 14 16  1  0  0  0  0
 14 17  1  0  0  0  0
M  CHG  1  14   1
M  END
> <ref_mols>
x0375_0

> <original SMILES>
CCC1CCC(CC1)NC[C@H]2CCCO2

> <Chemgauss4>
-8.591557

> <ref_pdb>
x1093_0

$$$$
x0263
  -OEChem-05172015543D

 18 19  0     0  0  0  0  0  0999 V2000
   13.0186   -0.7279   25.6336 C   0  0  0  0  0  0  0  0  0  0  0  0
   13.3457   -2.0638   25.4013 C   0  0  0  0  0  0  0  0  0  0  0  0
   11.7187   -0.2778   25.4024 C   0  0  0  0  0  0  0  0  0  0  0  0
   12.3731   -2.9496   24.9377 C   0  0  0  0  0  0  0  0  0  0  0  0
   10.7461   -1.1635   24.9387 C   0  0  0  0  0  0  0  0  0  0  0  0
   10.0893   -4.7569   24.5297 C   0  0  0  0  0  0  0  0  0  0  0  0
   11.0732   -2.4994   24.7064 C   0  0  0  0  0  0  0  0  0  0  0  0
   10.0716   -3.4111   24.2288 C   0  0  0  0  0  0  0  0  0  0  0  0
    8.2656   -4.0159   23.1415 C   0  0  0  0  0  0  0  0  0  0  0  0
    6.4873   -2.9506   21.7174 C   0  0  0  0  0  0  0  0  0  0  0  0
    9.0879   -0.4724   21.1137 C   0  0  0  0  0  0  0  0  0  0  0  0
    7.2027   -1.6305   21.9058 C   0  0  0  0  0  0  0  0  0  0  0  0
    9.0268   -2.9844   23.4325 N   0  0  0  0  0  0  0  0  0  0  0  0
    7.1279   -4.0278   22.3789 N   0  0  0  0  0  0  0  0  0  0  0  0
    5.4640   -3.0136   21.0427 O   0  0  0  0  0  0  0  0  0  0  0  0
    8.5143   -1.7457   21.3942 O   0  0  0  0  0  0  0  0  0  0  0  0
    8.7470   -5.5289   23.7926 S   0  0  0  0  0  0  0  0  0  0  0  0
    6.6719   -4.9540   22.2705 H   0  0  0  0  0  0  0  0  0  0  0  0
  1  2  1  0  0  0  0
  1  3  2  0  0  0  0
  2  4  2  0  0  0  0
  3  5  1  0  0  0  0
  4  7  1  0  0  0  0
  5  7  2  0  0  0  0
  6  8  2  0  0  0  0
  6 17  1  0  0  0  0
  7  8  1  0  0  0  0
  8 13  1  0  0  0  0
  9 13  2  0  0  0  0
  9 14  1  0  0  0  0
  9 17  1  0  0  0  0
 10 12  1  0  0  0  0
 10 14  1  0  0  0  0
 10 15  2  0  0  0  0
 11 16  1  0  0  0  0
 12 16  1  0  0  0  0
 14 18  1  0  0  0  0
M  END
> <ref_mols>
x0263_0

> <original SMILES>
COCC(=O)NC1=NC(=CS1)C=2C=CC=CC2

> <Chemgauss4>
-8.575462

> <ref_pdb>
x0749_0

$$$$
x0458
  -OEChem-05172015543D

 16 17  0     1  0  0  0  0  0999 V2000
   13.2354   -1.3250   25.4904 C   0  0  0  0  0  0  0  0  0  0  0  0
   12.7806   -2.5680   25.9161 C   0  0  0  0  0  0  0  0  0  0  0  0
   12.5356   -0.6906   24.4768 C   0  0  0  0  0  0  0  0  0  0  0  0
   11.6557   -3.1308   25.3235 C   0  0  0  0  0  0  0  0  0  0  0  0
   11.0264   -2.4154   24.3174 C   0  0  0  0  0  0  0  0  0  0  0  0
    8.8039   -2.2153   23.1781 C   0  0  0  0  0  0  0  0  0  0  0  0
    9.7191   -4.4258   23.5682 C   0  0  0  0  0  0  0  0  0  0  0  0
    7.9863   -3.2554   22.4096 C   0  0  1  0  0  0  0  0  0  0  0  0
    8.2303   -4.5645   23.1842 C   0  0  0  0  0  0  0  0  0  0  0  0
    7.9870   -5.7908   22.3000 C   0  0  0  0  0  0  0  0  0  0  0  0
    7.3537   -4.6795   24.4458 C   0  0  0  0  0  0  0  0  0  0  0  0
   11.4388   -1.2056   23.8772 N   0  0  0  0  0  0  0  0  0  0  0  0
    9.9119   -2.9842   23.7376 N   0  0  3  0  0  0  0  0  0  0  0  0
    6.6165   -2.9059   22.3545 O   0  0  0  0  0  0  0  0  0  0  0  0
   11.2072   -4.3278   25.7225 F   0  0  0  0  0  0  0  0  0  0  0  0
    6.5675   -2.0487   21.9033 H   0  0  0  0  0  0  0  0  0  0  0  0
  1  2  2  0  0  0  0
  1  3  1  0  0  0  0
  2  4  1  0  0  0  0
  3 12  2  0  0  0  0
  4  5  2  0  0  0  0
  4 15  1  0  0  0  0
  5 12  1  0  0  0  0
  5 13  1  0  0  0  0
  6  8  1  0  0  0  0
  6 13  1  0  0  0  0
  7  9  1  0  0  0  0
  7 13  1  0  0  0  0
  8  9  1  0  0  0  0
  8 14  1  0  0  0  0
  9 10  1  0  0  0  0
  9 11  1  0  0  0  0
 14 16  1  0  0  0  0
M  END
> <ref_mols>
x0458_0

> <original SMILES>
CC1(C)CN(CC1O)C=2N=CC=CC2F

> <Chemgauss4>
-8.574858

> <ref_pdb>
x0749_0

$$$$
x1197
  -OEChem-05172015543D

 16 17  0     1  0  0  0  0  0999 V2000
   13.2354   -1.3250   25.4904 C   0  0  0  0  0  0  0  0  0  0  0  0
   12.7806   -2.5680   25.9161 C   0  0  0  0  0  0  0  0  0  0  0  0
   12.5356   -0.6906   24.4768 C   0  0  0  0  0  0  0  0  0  0  0  0
   11.6557   -3.1308   25.3235 C   0  0  0  0  0  0  0  0  0  0  0  0
   11.0264   -2.4154   24.3174 C   0  0  0  0  0  0  0  0  0  0  0  0
    8.8039   -2.2153   23.1781 C   0  0  0  0  0  0  0  0  0  0  0  0
    9.7191   -4.4258   23.5682 C   0  0  0  0  0  0  0  0  0  0  0  0
    7.9863   -3.2554   22.4096 C   0  0  1  0  0  0  0  0  0  0  0  0
    8.2303   -4.5645   23.1842 C   0  0  0  0  0  0  0  0  0  0  0  0
    7.9870   -5.7908   22.3000 C   0  0  0  0  0  0  0  0  0  0  0  0
    7.3537   -4.6795   24.4458 C   0  0  0  0  0  0  0  0  0  0  0  0
   11.4388   -1.2056   23.8772 N   0  0  0  0  0  0  0  0  0  0  0  0
    9.9119   -2.9842   23.7376 N   0  0  3  0  0  0  0  0  0  0  0  0
    6.6165   -2.9059   22.3545 O   0  0  0  0  0  0  0  0  0  0  0  0
   11.2072   -4.3278   25.7225 F   0  0  0  0  0  0  0  0  0  0  0  0
    6.5675   -2.0487   21.9033 H   0  0  0  0  0  0  0  0  0  0  0  0
  1  2  2  0  0  0  0
  1  3  1  0  0  0  0
  2  4  1  0  0  0  0
  3 12  2  0  0  0  0
  4  5  2  0  0  0  0
  4 15  1  0  0  0  0
  5 12  1  0  0  0  0
  5 13  1  0  0  0  0
  6  8  1  0  0  0  0
  6 13  1  0  0  0  0
  7  9  1  0  0  0  0
  7 13  1  0  0  0  0
  8  9  1  0  0  0  0
  8 14  1  0  0  0  0
  9 10  1  0  0  0  0
  9 11  1  0  0  0  0
 14 16  1  0  0  0  0
M  END
> <ref_mols>
x1197_0

> <original SMILES>
CC1(C)CN(CC1O)C=2N=CC=CC2F

> <Chemgauss4>
-8.574858

> <ref_pdb>
x0749_0

$$$$
x0768
  -OEChem-05172015543D

 20 21  0     0  0  0  0  0  0999 V2000
   11.4956   -3.4275   24.9689 C   0  0  0  0  0  0  0  0  0  0  0  0
   12.7329   -3.1330   25.5414 C   0  0  0  0  0  0  0  0  0  0  0  0
   12.0555   -0.8309   25.8214 C   0  0  0  0  0  0  0  0  0  0  0  0
   10.5382   -2.4237   24.8225 C   0  0  0  0  0  0  0  0  0  0  0  0
   10.8181   -1.1254   25.2489 C   0  0  0  0  0  0  0  0  0  0  0  0
   13.0129   -1.8347   25.9677 C   0  0  0  0  0  0  0  0  0  0  0  0
    6.0996   -4.3168   22.1841 C   0  0  0  0  0  0  0  0  0  0  0  0
    9.1793   -2.6183   22.7845 C   0  0  0  0  0  0  0  0  0  0  0  0
    8.4482   -3.7572   24.8798 C   0  0  0  0  0  0  0  0  0  0  0  0
    7.7137   -2.4517   22.3893 C   0  0  0  0  0  0  0  0  0  0  0  0
    6.9940   -3.5746   24.4460 C   0  0  0  0  0  0  0  0  0  0  0  0
    5.8598   -5.7215   22.6766 C   0  0  0  0  0  0  0  0  0  0  0  0
    9.3041   -2.7450   24.2456 N   0  0  0  0  0  0  0  0  0  0  0  0
    6.8950   -3.5032   22.9871 N   0  0  0  0  0  0  0  0  0  0  0  0
    9.8587   -0.0831   25.1124 N   0  0  0  0  0  0  0  0  0  0  0  0
    5.5962   -3.9564   21.1171 O   0  0  0  0  0  0  0  0  0  0  0  0
   10.1549    1.0676   25.5108 O   0  0  0  0  0  0  0  0  0  0  0  0
    8.7472   -0.3478   24.5975 O   0  0  0  0  0  0  0  0  0  0  0  0
   14.5413   -1.4714   26.6699 Cl  0  0  0  0  0  0  0  0  0  0  0  0
    7.4366   -6.4971   22.7702 Cl  0  0  0  0  0  0  0  0  0  0  0  0
  1  2  2  0  0  0  0
  1  4  1  0  0  0  0
  2  6  1  0  0  0  0
  3  5  1  0  0  0  0
  3  6  2  0  0  0  0
  4  5  2  0  0  0  0
  4 13  1  0  0  0  0
  5 15  1  0  0  0  0
  6 19  1  0  0  0  0
  7 12  1  0  0  0  0
  7 14  1  0  0  0  0
  7 16  2  0  0  0  0
  8 10  1  0  0  0  0
  8 13  1  0  0  0  0
  9 11  1  0  0  0  0
  9 13  1  0  0  0  0
 10 14  1  0  0  0  0
 11 14  1  0  0  0  0
 12 20  1  0  0  0  0
 15 17  2  0  0  0  0
 15 18  2  0  0  0  0
M  END
> <ref_mols>
x0768_0

> <original SMILES>
[O-][N+](=O)c1cc(Cl)ccc1N2CCN(CC2)C(=O)CCl

> <Chemgauss4>
-8.574430

> <ref_pdb>
x0749_0

$$$$
x1419
  -OEChem-05172015543D

 20 21  0     0  0  0  0  0  0999 V2000
   11.4956   -3.4275   24.9689 C   0  0  0  0  0  0  0  0  0  0  0  0
   12.7329   -3.1330   25.5414 C   0  0  0  0  0  0  0  0  0  0  0  0
   12.0555   -0.8309   25.8214 C   0  0  0  0  0  0  0  0  0  0  0  0
   10.5382   -2.4237   24.8225 C   0  0  0  0  0  0  0  0  0  0  0  0
   10.8181   -1.1254   25.2489 C   0  0  0  0  0  0  0  0  0  0  0  0
   13.0129   -1.8347   25.9677 C   0  0  0  0  0  0  0  0  0  0  0  0
    6.0996   -4.3168   22.1841 C   0  0  0  0  0  0  0  0  0  0  0  0
    9.1793   -2.6183   22.7845 C   0  0  0  0  0  0  0  0  0  0  0  0
    8.4482   -3.7572   24.8798 C   0  0  0  0  0  0  0  0  0  0  0  0
    7.7137   -2.4517   22.3893 C   0  0  0  0  0  0  0  0  0  0  0  0
    6.9940   -3.5746   24.4460 C   0  0  0  0  0  0  0  0  0  0  0  0
    5.8598   -5.7215   22.6766 C   0  0  0  0  0  0  0  0  0  0  0  0
    9.3041   -2.7450   24.2456 N   0  0  0  0  0  0  0  0  0  0  0  0
    6.8950   -3.5032   22.9871 N   0  0  0  0  0  0  0  0  0  0  0  0
    9.8587   -0.0831   25.1124 N   0  0  0  0  0  0  0  0  0  0  0  0
    5.5962   -3.9564   21.1171 O   0  0  0  0  0  0  0  0  0  0  0  0
   10.1549    1.0676   25.5108 O   0  0  0  0  0  0  0  0  0  0  0  0
    8.7472   -0.3478   24.5975 O   0  0  0  0  0  0  0  0  0  0  0  0
   14.5413   -1.4714   26.6699 Cl  0  0  0  0  0  0  0  0  0  0  0  0
    7.4366   -6.4971   22.7702 Cl  0  0  0  0  0  0  0  0  0  0  0  0
  1  2  2  0  0  0  0
  1  4  1  0  0  0  0
  2  6  1  0  0  0  0
  3  5  1  0  0  0  0
  3  6  2  0  0  0  0
  4  5  2  0  0  0  0
  4 13  1  0  0  0  0
  5 15  1  0  0  0  0
  6 19  1  0  0  0  0
  7 12  1  0  0  0  0
  7 14  1  0  0  0  0
  7 16  2  0  0  0  0
  8 10  1  0  0  0  0
  8 13  1  0  0  0  0
  9 11  1  0  0  0  0
  9 13  1  0  0  0  0
 10 14  1  0  0  0  0
 11 14  1  0  0  0  0
 12 20  1  0  0  0  0
 15 17  2  0  0  0  0
 15 18  2  0  0  0  0
M  END
> <ref_mols>
x1419_0

> <original SMILES>
[O-][N+](=O)c1cc(Cl)ccc1N2CCN(CC2)C(=O)CCl

> <Chemgauss4>
-8.574430

> <ref_pdb>
x0749_0

$$$$
x0694
  -OEChem-05172015543D

 20 21  0     0  0  0  0  0  0999 V2000
   11.4956   -3.4275   24.9689 C   0  0  0  0  0  0  0  0  0  0  0  0
   12.7329   -3.1330   25.5414 C   0  0  0  0  0  0  0  0  0  0  0  0
   12.0555   -0.8309   25.8214 C   0  0  0  0  0  0  0  0  0  0  0  0
   10.5382   -2.4237   24.8225 C   0  0  0  0  0  0  0  0  0  0  0  0
   10.8181   -1.1254   25.2489 C   0  0  0  0  0  0  0  0  0  0  0  0
   13.0129   -1.8347   25.9677 C   0  0  0  0  0  0  0  0  0  0  0  0
    6.0996   -4.3168   22.1841 C   0  0  0  0  0  0  0  0  0  0  0  0
    9.1793   -2.6183   22.7845 C   0  0  0  0  0  0  0  0  0  0  0  0
    8.4482   -3.7572   24.8798 C   0  0  0  0  0  0  0  0  0  0  0  0
    7.7137   -2.4517   22.3893 C   0  0  0  0  0  0  0  0  0  0  0  0
    6.9940   -3.5746   24.4460 C   0  0  0  0  0  0  0  0  0  0  0  0
    5.8598   -5.7215   22.6766 C   0  0  0  0  0  0  0  0  0  0  0  0
    9.3041   -2.7450   24.2456 N   0  0  0  0  0  0  0  0  0  0  0  0
    6.8950   -3.5032   22.9871 N   0  0  0  0  0  0  0  0  0  0  0  0
    9.8587   -0.0831   25.1124 N   0  0  0  0  0  0  0  0  0  0  0  0
    5.5962   -3.9564   21.1171 O   0  0  0  0  0  0  0  0  0  0  0  0
   10.1549    1.0676   25.5108 O   0  0  0  0  0  0  0  0  0  0  0  0
    8.7472   -0.3478   24.5975 O   0  0  0  0  0  0  0  0  0  0  0  0
   14.5413   -1.4714   26.6699 Cl  0  0  0  0  0  0  0  0  0  0  0  0
    7.4366   -6.4971   22.7702 Cl  0  0  0  0  0  0  0  0  0  0  0  0
  1  2  2  0  0  0  0
  1  4  1  0  0  0  0
  2  6  1  0  0  0  0
  3  5  1  0  0  0  0
  3  6  2  0  0  0  0
  4  5  2  0  0  0  0
  4 13  1  0  0  0  0
  5 15  1  0  0  0  0
  6 19  1  0  0  0  0
  7 12  1  0  0  0  0
  7 14  1  0  0  0  0
  7 16  2  0  0  0  0
  8 10  1  0  0  0  0
  8 13  1  0  0  0  0
  9 11  1  0  0  0  0
  9 13  1  0  0  0  0
 10 14  1  0  0  0  0
 11 14  1  0  0  0  0
 12 20  1  0  0  0  0
 15 17  2  0  0  0  0
 15 18  2  0  0  0  0
M  END
> <ref_mols>
x0694_0

> <original SMILES>
[O-][N+](=O)c1cc(Cl)ccc1N2CCN(CC2)C(=O)CCl

> <Chemgauss4>
-8.574430

> <ref_pdb>
x0749_0

$$$$
x1048
  -OEChem-05172015543D

 15 16  0     1  0  0  0  0  0999 V2000
    6.5959   -3.8629   21.7614 C   0  0  0  0  0  0  0  0  0  0  0  0
    8.3757   -4.5740   23.2874 C   0  0  0  0  0  0  0  0  0  0  0  0
    9.4986   -4.2237   24.0289 C   0  0  0  0  0  0  0  0  0  0  0  0
    9.2639   -1.9944   23.2339 C   0  0  0  0  0  0  0  0  0  0  0  0
    7.7527   -3.5825   22.5467 C   0  0  0  0  0  0  0  0  0  0  0  0
    9.9576   -2.9114   24.0070 C   0  0  0  0  0  0  0  0  0  0  0  0
   12.1698   -0.3477   24.3981 C   0  0  0  0  0  0  0  0  0  0  0  0
   11.2143   -1.1678   25.2635 C   0  0  0  0  0  0  0  0  0  0  0  0
   12.1146   -3.5263   25.0553 C   0  0  0  0  0  0  0  0  0  0  0  0
   13.6410   -0.6919   24.6110 C   0  0  0  0  0  0  0  0  0  0  0  0
   13.4730   -2.9283   25.4068 C   0  0  0  0  0  0  0  0  0  0  0  0
    5.6545   -4.0910   21.1223 N   0  0  0  0  0  0  0  0  0  0  0  0
    8.1694   -2.2973   22.5005 N   0  0  0  0  0  0  0  0  0  0  0  0
   11.0852   -2.5295   24.7417 N   0  0  3  0  0  0  0  0  0  0  0  0
   13.9372   -2.0647   24.3732 O   0  0  0  0  0  0  0  0  0  0  0  0
  1  5  1  0  0  0  0
  1 12  3  0  0  0  0
  2  3  2  0  0  0  0
  2  5  1  0  0  0  0
  3  6  1  0  0  0  0
  4  6  2  0  0  0  0
  4 13  1  0  0  0  0
  5 13  2  0  0  0  0
  6 14  1  0  0  0  0
  7  8  1  0  0  0  0
  7 10  1  0  0  0  0
  8 14  1  0  0  0  0
  9 11  1  0  0  0  0
  9 14  1  0  0  0  0
 10 15  1  0  0  0  0
 11 15  1  0  0  0  0
M  END
> <ref_mols>
x1048_0

> <original SMILES>
N#CC=1C=CC(=CN1)N2CCCOCC2

> <Chemgauss4>
-8.573239

> <ref_pdb>
x0749_0

> <CYS145-warhead dist minimum (A)>
32.803677

> <CYS145-warhead dist mean (A)>
35.179813

> <CYS145-warhead dist stddev (A)>
0.75054187

$$$$
x1077
  -OEChem-05172015543D

 15 16  0     1  0  0  0  0  0999 V2000
    6.5959   -3.8629   21.7614 C   0  0  0  0  0  0  0  0  0  0  0  0
    8.3757   -4.5740   23.2874 C   0  0  0  0  0  0  0  0  0  0  0  0
    9.4986   -4.2237   24.0289 C   0  0  0  0  0  0  0  0  0  0  0  0
    9.2639   -1.9944   23.2339 C   0  0  0  0  0  0  0  0  0  0  0  0
    7.7527   -3.5825   22.5467 C   0  0  0  0  0  0  0  0  0  0  0  0
    9.9576   -2.9114   24.0070 C   0  0  0  0  0  0  0  0  0  0  0  0
   12.1698   -0.3477   24.3981 C   0  0  0  0  0  0  0  0  0  0  0  0
   11.2143   -1.1678   25.2635 C   0  0  0  0  0  0  0  0  0  0  0  0
   12.1146   -3.5263   25.0553 C   0  0  0  0  0  0  0  0  0  0  0  0
   13.6410   -0.6919   24.6110 C   0  0  0  0  0  0  0  0  0  0  0  0
   13.4730   -2.9283   25.4068 C   0  0  0  0  0  0  0  0  0  0  0  0
    5.6545   -4.0910   21.1223 N   0  0  0  0  0  0  0  0  0  0  0  0
    8.1694   -2.2973   22.5005 N   0  0  0  0  0  0  0  0  0  0  0  0
   11.0852   -2.5295   24.7417 N   0  0  3  0  0  0  0  0  0  0  0  0
   13.9372   -2.0647   24.3732 O   0  0  0  0  0  0  0  0  0  0  0  0
  1  5  1  0  0  0  0
  1 12  3  0  0  0  0
  2  3  2  0  0  0  0
  2  5  1  0  0  0  0
  3  6  1  0  0  0  0
  4  6  2  0  0  0  0
  4 13  1  0  0  0  0
  5 13  2  0  0  0  0
  6 14  1  0  0  0  0
  7  8  1  0  0  0  0
  7 10  1  0  0  0  0
  8 14  1  0  0  0  0
  9 11  1  0  0  0  0
  9 14  1  0  0  0  0
 10 15  1  0  0  0  0
 11 15  1  0  0  0  0
M  END
> <ref_mols>
x1077_0

> <original SMILES>
N#CC=1C=CC(=CN1)N2CCCOCC2

> <Chemgauss4>
-8.573239

> <ref_pdb>
x0749_0

$$$$
x0421
  -OEChem-05172015543D

 15 16  0     1  0  0  0  0  0999 V2000
    6.5959   -3.8629   21.7614 C   0  0  0  0  0  0  0  0  0  0  0  0
    8.3757   -4.5740   23.2874 C   0  0  0  0  0  0  0  0  0  0  0  0
    9.4986   -4.2237   24.0289 C   0  0  0  0  0  0  0  0  0  0  0  0
    9.2639   -1.9944   23.2339 C   0  0  0  0  0  0  0  0  0  0  0  0
    7.7527   -3.5825   22.5467 C   0  0  0  0  0  0  0  0  0  0  0  0
    9.9576   -2.9114   24.0070 C   0  0  0  0  0  0  0  0  0  0  0  0
   12.1698   -0.3477   24.3981 C   0  0  0  0  0  0  0  0  0  0  0  0
   11.2143   -1.1678   25.2635 C   0  0  0  0  0  0  0  0  0  0  0  0
   12.1146   -3.5263   25.0553 C   0  0  0  0  0  0  0  0  0  0  0  0
   13.6410   -0.6919   24.6110 C   0  0  0  0  0  0  0  0  0  0  0  0
   13.4730   -2.9283   25.4068 C   0  0  0  0  0  0  0  0  0  0  0  0
    5.6545   -4.0910   21.1223 N   0  0  0  0  0  0  0  0  0  0  0  0
    8.1694   -2.2973   22.5005 N   0  0  0  0  0  0  0  0  0  0  0  0
   11.0852   -2.5295   24.7417 N   0  0  3  0  0  0  0  0  0  0  0  0
   13.9372   -2.0647   24.3732 O   0  0  0  0  0  0  0  0  0  0  0  0
  1  5  1  0  0  0  0
  1 12  3  0  0  0  0
  2  3  2  0  0  0  0
  2  5  1  0  0  0  0
  3  6  1  0  0  0  0
  4  6  2  0  0  0  0
  4 13  1  0  0  0  0
  5 13  2  0  0  0  0
  6 14  1  0  0  0  0
  7  8  1  0  0  0  0
  7 10  1  0  0  0  0
  8 14  1  0  0  0  0
  9 11  1  0  0  0  0
  9 14  1  0  0  0  0
 10 15  1  0  0  0  0
 11 15  1  0  0  0  0
M  END
> <ref_mols>
x0421_0

> <original SMILES>
N#CC=1C=CC(=CN1)N2CCCOCC2

> <Chemgauss4>
-8.573239

> <ref_pdb>
x0749_0

$$$$
x2578
  -OEChem-05172015543D

 22 23  0     1  0  0  0  0  0999 V2000
   11.9422    1.5429   23.5106 C   0  0  0  0  0  0  0  0  0  0  0  0
   13.8169    1.9695   22.0474 C   0  0  0  0  0  0  0  0  0  0  0  0
   11.6336    2.9032   23.5118 C   0  0  0  0  0  0  0  0  0  0  0  0
   13.5082    3.3298   22.0485 C   0  0  0  0  0  0  0  0  0  0  0  0
   13.0339    1.0761   22.7784 C   0  0  0  0  0  0  0  0  0  0  0  0
   12.4165    3.7966   22.7807 C   0  0  0  0  0  0  0  0  0  0  0  0
    8.9921   -2.4962   23.2423 C   0  0  0  0  0  0  0  0  0  0  0  0
    8.3232   -2.9456   24.2817 C   0  0  0  0  0  0  0  0  0  0  0  0
   11.2745   -1.6507   23.2187 C   0  0  0  0  0  0  0  0  0  0  0  0
    8.9351   -1.7436   22.0532 C   0  0  0  0  0  0  0  0  0  0  0  0
   10.2130   -2.4690   22.5614 C   0  0  2  0  0  0  0  0  0  0  0  0
   14.6019   -0.7182   21.9333 C   0  0  0  0  0  0  0  0  0  0  0  0
   12.3897    5.9660   25.4703 C   0  0  0  0  0  0  0  0  0  0  0  0
   13.3647   -0.3782   22.7776 C   0  0  2  0  0  0  0  0  0  0  0  0
   12.2409   -1.1940   22.3496 N   0  0  0  0  0  0  0  0  0  0  0  0
   12.9318    6.0827   24.1090 N   0  0  0  0  0  0  0  0  0  0  0  0
   11.2200   -1.4473   24.4259 O   0  0  0  0  0  0  0  0  0  0  0  0
   12.5543    6.0993   21.5607 O   0  0  0  0  0  0  0  0  0  0  0  0
   10.6110    5.6323   23.0871 O   0  0  0  0  0  0  0  0  0  0  0  0
   12.0290    5.4989   22.7803 S   0  0  0  0  0  0  0  0  0  0  0  0
   12.1648   -1.4373   21.3702 H   0  0  0  0  0  0  0  0  0  0  0  0
   13.6012    6.8465   23.9545 H   0  0  0  0  0  0  0  0  0  0  0  0
  1  3  2  0  0  0  0
  1  5  1  0  0  0  0
  2  4  1  0  0  0  0
  2  5  2  0  0  0  0
  3  6  1  0  0  0  0
  4  6  2  0  0  0  0
  5 14  1  0  0  0  0
  6 20  1  0  0  0  0
  7  8  2  0  0  0  0
  7 10  1  0  0  0  0
  7 11  1  0  0  0  0
  9 11  1  0  0  0  0
  9 15  1  0  0  0  0
  9 17  2  0  0  0  0
 10 11  1  0  0  0  0
 12 14  1  0  0  0  0
 13 16  1  0  0  0  0
 14 15  1  0  0  0  0
 16 20  1  0  0  0  0
 18 20  2  0  0  0  0
 19 20  2  0  0  0  0
 15 21  1  0  0  0  0
 16 22  1  0  0  0  0
M  END
> <ref_mols>
x2578_0

> <original SMILES>
CNS(=O)(=O)C=1C=CC(=CC1)C(C)NC(=O)C2CC2=C

> <Chemgauss4>
-8.562788

> <ref_pdb>
x0195_0

$$$$
x0529
  -OEChem-05172015543D

 20 21  0     0  0  0  0  0  0999 V2000
   13.4019   -0.6413   24.1944 C   0  0  0  0  0  0  0  0  0  0  0  0
   12.3413   -0.2605   25.0164 C   0  0  0  0  0  0  0  0  0  0  0  0
   11.8477   -1.1036   22.4033 C   0  0  0  0  0  0  0  0  0  0  0  0
    6.2858    0.5785   19.4985 C   0  0  0  0  0  0  0  0  0  0  0  0
    8.0475   -0.3362   18.6216 C   0  0  0  0  0  0  0  0  0  0  0  0
   13.1551   -1.0628   22.8878 C   0  0  0  0  0  0  0  0  0  0  0  0
   10.7871   -0.7228   23.2253 C   0  0  0  0  0  0  0  0  0  0  0  0
   11.0339   -0.3012   24.5318 C   0  0  0  0  0  0  0  0  0  0  0  0
    9.0444   -1.1662   21.4406 C   0  0  0  0  0  0  0  0  0  0  0  0
   14.2897   -1.4699   22.0097 C   0  0  0  0  0  0  0  0  0  0  0  0
    9.4124   -0.9445   26.1483 C   0  0  0  0  0  0  0  0  0  0  0  0
    6.2101    0.7437   18.1972 N   0  0  0  0  0  0  0  0  0  0  0  0
    7.3309    0.1618   17.6393 N   0  0  0  0  0  0  0  0  0  0  0  0
    7.4269   -0.0966   19.8100 N   0  0  0  0  0  0  0  0  0  0  0  0
    9.4833   -0.7693   22.7262 N   0  0  0  0  0  0  0  0  0  0  0  0
    7.8730   -0.4711   21.0994 N   0  0  0  0  0  0  0  0  0  0  0  0
    9.6083   -1.9959   20.7344 O   0  0  0  0  0  0  0  0  0  0  0  0
   10.0115    0.0748   25.3513 O   0  0  0  0  0  0  0  0  0  0  0  0
    8.7383   -0.4800   23.3676 H   0  0  0  0  0  0  0  0  0  0  0  0
    7.2713   -0.2040   21.8744 H   0  0  0  0  0  0  0  0  0  0  0  0
  1  2  2  0  0  0  0
  1  6  1  0  0  0  0
  2  8  1  0  0  0  0
  3  6  2  0  0  0  0
  3  7  1  0  0  0  0
  4 12  2  0  0  0  0
  4 14  1  0  0  0  0
  5 13  2  0  0  0  0
  5 14  1  0  0  0  0
  6 10  1  0  0  0  0
  7  8  2  0  0  0  0
  7 15  1  0  0  0  0
  8 18  1  0  0  0  0
  9 15  1  0  0  0  0
  9 16  1  0  0  0  0
  9 17  2  0  0  0  0
 11 18  1  0  0  0  0
 12 13  1  0  0  0  0
 14 16  1  0  0  0  0
 15 19  1  0  0  0  0
 16 20  1  0  0  0  0
M  END
> <ref_mols>
x0529_0

> <original SMILES>
COC=1C=CC(C)=CC1NC(=O)NN2C=NN=C2

> <Chemgauss4>
-8.562340

> <ref_pdb>
x0678_0

$$$$
x0386
  -OEChem-05172015543D

 16 17  0     0  0  0  0  0  0999 V2000
   12.2540   -3.4927   25.1216 C   0  0  0  0  0  0  0  0  0  0  0  0
   10.7666   -1.5955   25.2812 C   0  0  0  0  0  0  0  0  0  0  0  0
   11.1785   -4.3060   24.7649 C   0  0  0  0  0  0  0  0  0  0  0  0
    9.6910   -2.4088   24.9244 C   0  0  0  0  0  0  0  0  0  0  0  0
   12.0481   -2.1374   25.3798 C   0  0  0  0  0  0  0  0  0  0  0  0
    9.8970   -3.7641   24.6663 C   0  0  0  0  0  0  0  0  0  0  0  0
    7.9421   -6.1388   22.5314 C   0  0  0  0  0  0  0  0  0  0  0  0
    8.3964   -3.7928   22.0205 C   0  0  0  0  0  0  0  0  0  0  0  0
    6.4343   -5.9754   22.6947 C   0  0  0  0  0  0  0  0  0  0  0  0
    6.9472   -3.3268   22.1181 C   0  0  0  0  0  0  0  0  0  0  0  0
   13.1975   -1.2672   25.7612 C   0  0  0  0  0  0  0  0  0  0  0  0
    8.7401   -4.6398   24.2806 C   0  0  0  0  0  0  0  0  0  0  0  0
    8.7421   -4.9508   22.8546 N   0  0  0  0  0  0  0  0  0  0  0  0
    5.9997   -4.9739   20.3095 O   0  0  0  0  0  0  0  0  0  0  0  0
    4.5050   -4.2692   22.2162 O   0  0  0  0  0  0  0  0  0  0  0  0
    5.8123   -4.6334   21.7064 S   0  0  0  0  0  0  0  0  0  0  0  0
  1  3  2  0  0  0  0
  1  5  1  0  0  0  0
  2  4  1  0  0  0  0
  2  5  2  0  0  0  0
  3  6  1  0  0  0  0
  4  6  2  0  0  0  0
  5 11  1  0  0  0  0
  6 12  1  0  0  0  0
  7  9  1  0  0  0  0
  7 13  1  0  0  0  0
  8 10  1  0  0  0  0
  8 13  1  0  0  0  0
  9 16  1  0  0  0  0
 10 16  1  0  0  0  0
 12 13  1  0  0  0  0
 14 16  2  0  0  0  0
 15 16  2  0  0  0  0
M  END
> <ref_mols>
x0386_0

> <original SMILES>
CC=1C=CC(CN2CCS(=O)(=O)CC2)=CC1

> <Chemgauss4>
-8.557223

> <ref_pdb>
x0749_0

$$$$
x2621
  -OEChem-05172015543D

 27 29  0     0  0  0  0  0  0999 V2000
    3.1907    2.7862   21.9416 C   0  0  0  0  0  0  0  0  0  0  0  0
    2.5835    3.1015   20.7285 C   0  0  0  0  0  0  0  0  0  0  0  0
   13.8135   -0.5300   23.0730 C   0  0  0  0  0  0  0  0  0  0  0  0
   13.2310   -1.7547   22.7469 C   0  0  0  0  0  0  0  0  0  0  0  0
    4.3465    1.9996   21.9693 C   0  0  0  0  0  0  0  0  0  0  0  0
    3.1299    2.6317   19.5377 C   0  0  0  0  0  0  0  0  0  0  0  0
   13.0216    0.6139   23.1746 C   0  0  0  0  0  0  0  0  0  0  0  0
   11.8567   -1.8355   22.5223 C   0  0  0  0  0  0  0  0  0  0  0  0
    4.9111    1.5167   20.7814 C   0  0  0  0  0  0  0  0  0  0  0  0
    4.2857    1.8449   19.5680 C   0  0  0  0  0  0  0  0  0  0  0  0
   11.6474    0.5331   22.9500 C   0  0  0  0  0  0  0  0  0  0  0  0
   11.0649   -0.6917   22.6238 C   0  0  0  0  0  0  0  0  0  0  0  0
    6.6124    0.2540   19.5648 C   0  0  0  0  0  0  0  0  0  0  0  0
    6.1233    0.6843   20.7375 C   0  0  0  0  0  0  0  0  0  0  0  0
    5.9549    0.5977   18.2755 C   0  0  0  0  0  0  0  0  0  0  0  0
    6.8881    0.2557   21.9166 C   0  0  0  0  0  0  0  0  0  0  0  0
   10.7111    2.4313   21.8657 C   0  0  0  0  0  0  0  0  0  0  0  0
    7.6548   -1.7782   23.1213 C   0  0  0  0  0  0  0  0  0  0  0  0
    9.0971   -2.0239   22.7175 C   0  0  0  0  0  0  0  0  0  0  0  0
    4.8228    1.3787   18.3552 N   0  0  0  0  0  0  0  0  0  0  0  0
    6.9546   -1.1196   22.0420 N   0  0  0  0  0  0  0  0  0  0  0  0
    6.4265    0.1864   17.2174 O   0  0  0  0  0  0  0  0  0  0  0  0
    7.3938    1.0810   22.6735 O   0  0  0  0  0  0  0  0  0  0  0  0
   10.8851    1.6576   23.0511 O   0  0  0  0  0  0  0  0  0  0  0  0
    9.7162   -0.7839   22.3996 O   0  0  0  0  0  0  0  0  0  0  0  0
    4.3464    1.6318   17.4941 H   0  0  0  0  0  0  0  0  0  0  0  0
    6.4902   -1.6932   21.3437 H   0  0  0  0  0  0  0  0  0  0  0  0
  1  2  1  0  0  0  0
  1  5  2  0  0  0  0
  2  6  2  0  0  0  0
  3  4  1  0  0  0  0
  3  7  2  0  0  0  0
  4  8  2  0  0  0  0
  5  9  1  0  0  0  0
  6 10  1  0  0  0  0
  7 11  1  0  0  0  0
  8 12  1  0  0  0  0
  9 10  2  0  0  0  0
  9 14  1  0  0  0  0
 10 20  1  0  0  0  0
 11 12  2  0  0  0  0
 11 24  1  0  0  0  0
 12 25  1  0  0  0  0
 13 14  2  0  0  0  0
 13 15  1  0  0  0  0
 14 16  1  0  0  0  0
 15 20  1  0  0  0  0
 15 22  2  0  0  0  0
 16 21  1  0  0  0  0
 16 23  2  0  0  0  0
 17 24  1  0  0  0  0
 18 19  1  0  0  0  0
 18 21  1  0  0  0  0
 19 25  1  0  0  0  0
 20 26  1  0  0  0  0
 21 27  1  0  0  0  0
M  END
> <ref_mols>
x2621_0

> <original SMILES>
COC=1C=CC=CC1OCCNC(=O)C2=CC(=O)NC=3C=CC=CC23

> <Chemgauss4>
-8.549057

> <ref_pdb>
x1093_0

$$$$
x1389
  -OEChem-05172015543D

 17 18  0     0  0  0  0  0  0999 V2000
   12.4090    0.6403   23.5940 C   0  0  0  0  0  0  0  0  0  0  0  0
   11.1063    0.0841   23.7478 C   0  0  0  0  0  0  0  0  0  0  0  0
   13.2708   -0.2277   22.9603 C   0  0  0  0  0  0  0  0  0  0  0  0
   11.0219   -1.1880   23.2255 C   0  0  0  0  0  0  0  0  0  0  0  0
    6.3034   -1.2962   18.9959 C   0  0  0  0  0  0  0  0  0  0  0  0
    6.4704   -1.9293   21.3818 C   0  0  0  0  0  0  0  0  0  0  0  0
    7.9028   -0.0966   20.5678 C   0  0  0  0  0  0  0  0  0  0  0  0
    7.6647   -2.5924   22.0524 C   0  0  0  0  0  0  0  0  0  0  0  0
    9.1191   -0.7315   21.2283 C   0  0  0  0  0  0  0  0  0  0  0  0
    9.8348   -2.1046   23.1873 C   0  0  0  0  0  0  0  0  0  0  0  0
    6.2243   -0.0859   18.1002 C   0  0  0  0  0  0  0  0  0  0  0  0
    6.8932   -1.1107   20.2455 N   0  0  0  0  0  0  0  0  0  0  0  0
    8.6699   -1.5283   22.4327 N   0  3  0  0  0  0  0  0  0  0  0  0
    5.8564   -2.3737   18.5944 O   0  0  0  0  0  0  0  0  0  0  0  0
   12.5092   -1.7065   22.5535 S   0  0  0  0  0  0  0  0  0  0  0  0
    5.2401    1.1033   18.9459 Cl  0  0  0  0  0  0  0  0  0  0  0  0
    8.1994   -0.8755   23.0746 H   0  0  0  0  0  0  0  0  0  0  0  0
  1  2  1  0  0  0  0
  1  3  2  0  0  0  0
  2  4  2  0  0  0  0
  3 15  1  0  0  0  0
  4 10  1  0  0  0  0
  4 15  1  0  0  0  0
  5 11  1  0  0  0  0
  5 12  1  0  0  0  0
  5 14  2  0  0  0  0
  6  8  1  0  0  0  0
  6 12  1  0  0  0  0
  7  9  1  0  0  0  0
  7 12  1  0  0  0  0
  8 13  1  0  0  0  0
  9 13  1  0  0  0  0
 10 13  1  0  0  0  0
 11 16  1  0  0  0  0
 13 17  1  0  0  0  0
M  CHG  1  13   1
M  END
> <ref_mols>
x1389_0

> <original SMILES>
ClCC(=O)N1CCN(Cc2cccs2)CC1

> <Chemgauss4>
-8.544258

> <ref_pdb>
x0831_0

$$$$
x2779
  -OEChem-05172015543D

 17 18  0     0  0  0  0  0  0999 V2000
   12.4090    0.6403   23.5940 C   0  0  0  0  0  0  0  0  0  0  0  0
   11.1063    0.0841   23.7478 C   0  0  0  0  0  0  0  0  0  0  0  0
   13.2708   -0.2277   22.9603 C   0  0  0  0  0  0  0  0  0  0  0  0
   11.0219   -1.1880   23.2255 C   0  0  0  0  0  0  0  0  0  0  0  0
    6.3034   -1.2962   18.9959 C   0  0  0  0  0  0  0  0  0  0  0  0
    6.4704   -1.9293   21.3818 C   0  0  0  0  0  0  0  0  0  0  0  0
    7.9028   -0.0966   20.5678 C   0  0  0  0  0  0  0  0  0  0  0  0
    7.6647   -2.5924   22.0524 C   0  0  0  0  0  0  0  0  0  0  0  0
    9.1191   -0.7315   21.2283 C   0  0  0  0  0  0  0  0  0  0  0  0
    9.8348   -2.1046   23.1873 C   0  0  0  0  0  0  0  0  0  0  0  0
    6.2243   -0.0859   18.1002 C   0  0  0  0  0  0  0  0  0  0  0  0
    6.8932   -1.1107   20.2455 N   0  0  0  0  0  0  0  0  0  0  0  0
    8.6699   -1.5283   22.4327 N   0  3  0  0  0  0  0  0  0  0  0  0
    5.8564   -2.3737   18.5944 O   0  0  0  0  0  0  0  0  0  0  0  0
   12.5092   -1.7065   22.5535 S   0  0  0  0  0  0  0  0  0  0  0  0
    5.2401    1.1033   18.9459 Cl  0  0  0  0  0  0  0  0  0  0  0  0
    8.1994   -0.8755   23.0746 H   0  0  0  0  0  0  0  0  0  0  0  0
  1  2  1  0  0  0  0
  1  3  2  0  0  0  0
  2  4  2  0  0  0  0
  3 15  1  0  0  0  0
  4 10  1  0  0  0  0
  4 15  1  0  0  0  0
  5 11  1  0  0  0  0
  5 12  1  0  0  0  0
  5 14  2  0  0  0  0
  6  8  1  0  0  0  0
  6 12  1  0  0  0  0
  7  9  1  0  0  0  0
  7 12  1  0  0  0  0
  8 13  1  0  0  0  0
  9 13  1  0  0  0  0
 10 13  1  0  0  0  0
 11 16  1  0  0  0  0
 13 17  1  0  0  0  0
M  CHG  1  13   1
M  END
> <ref_mols>
x2779_0

> <original SMILES>
Cl.ClCC(=O)N1CCN(CC2=CC=CS2)CC1

> <Chemgauss4>
-8.544258

> <ref_pdb>
x0831_0

> <CYS145-warhead dist minimum (A)>
3.061983

> <CYS145-warhead dist mean (A)>
4.26756

> <CYS145-warhead dist stddev (A)>
0.5915341

$$$$
x2765
  -OEChem-05172015543D

 17 18  0     0  0  0  0  0  0999 V2000
   12.4090    0.6403   23.5940 C   0  0  0  0  0  0  0  0  0  0  0  0
   11.1063    0.0841   23.7478 C   0  0  0  0  0  0  0  0  0  0  0  0
   13.2708   -0.2277   22.9603 C   0  0  0  0  0  0  0  0  0  0  0  0
   11.0219   -1.1880   23.2255 C   0  0  0  0  0  0  0  0  0  0  0  0
    6.3034   -1.2962   18.9959 C   0  0  0  0  0  0  0  0  0  0  0  0
    6.4704   -1.9293   21.3818 C   0  0  0  0  0  0  0  0  0  0  0  0
    7.9028   -0.0966   20.5678 C   0  0  0  0  0  0  0  0  0  0  0  0
    7.6647   -2.5924   22.0524 C   0  0  0  0  0  0  0  0  0  0  0  0
    9.1191   -0.7315   21.2283 C   0  0  0  0  0  0  0  0  0  0  0  0
    9.8348   -2.1046   23.1873 C   0  0  0  0  0  0  0  0  0  0  0  0
    6.2243   -0.0859   18.1002 C   0  0  0  0  0  0  0  0  0  0  0  0
    6.8932   -1.1107   20.2455 N   0  0  0  0  0  0  0  0  0  0  0  0
    8.6699   -1.5283   22.4327 N   0  3  0  0  0  0  0  0  0  0  0  0
    5.8564   -2.3737   18.5944 O   0  0  0  0  0  0  0  0  0  0  0  0
   12.5092   -1.7065   22.5535 S   0  0  0  0  0  0  0  0  0  0  0  0
    5.2401    1.1033   18.9459 Cl  0  0  0  0  0  0  0  0  0  0  0  0
    8.1994   -0.8755   23.0746 H   0  0  0  0  0  0  0  0  0  0  0  0
  1  2  1  0  0  0  0
  1  3  2  0  0  0  0
  2  4  2  0  0  0  0
  3 15  1  0  0  0  0
  4 10  1  0  0  0  0
  4 15  1  0  0  0  0
  5 11  1  0  0  0  0
  5 12  1  0  0  0  0
  5 14  2  0  0  0  0
  6  8  1  0  0  0  0
  6 12  1  0  0  0  0
  7  9  1  0  0  0  0
  7 12  1  0  0  0  0
  8 13  1  0  0  0  0
  9 13  1  0  0  0  0
 10 13  1  0  0  0  0
 11 16  1  0  0  0  0
 13 17  1  0  0  0  0
M  CHG  1  13   1
M  END
> <ref_mols>
x2765_0

> <original SMILES>
Cl.ClCC(=O)N1CCN(CC2=CC=CS2)CC1

> <Chemgauss4>
-8.544258

> <ref_pdb>
x0831_0

> <CYS145-warhead dist minimum (A)>
19.198177

> <CYS145-warhead dist mean (A)>
20.59306

> <CYS145-warhead dist stddev (A)>
0.5906583

$$$$
x0767
  -OEChem-05172015543D

 17 18  0     0  0  0  0  0  0999 V2000
   12.4090    0.6403   23.5940 C   0  0  0  0  0  0  0  0  0  0  0  0
   11.1063    0.0841   23.7478 C   0  0  0  0  0  0  0  0  0  0  0  0
   13.2708   -0.2277   22.9603 C   0  0  0  0  0  0  0  0  0  0  0  0
   11.0219   -1.1880   23.2255 C   0  0  0  0  0  0  0  0  0  0  0  0
    6.3034   -1.2962   18.9959 C   0  0  0  0  0  0  0  0  0  0  0  0
    6.4704   -1.9293   21.3818 C   0  0  0  0  0  0  0  0  0  0  0  0
    7.9028   -0.0966   20.5678 C   0  0  0  0  0  0  0  0  0  0  0  0
    7.6647   -2.5924   22.0524 C   0  0  0  0  0  0  0  0  0  0  0  0
    9.1191   -0.7315   21.2283 C   0  0  0  0  0  0  0  0  0  0  0  0
    9.8348   -2.1046   23.1873 C   0  0  0  0  0  0  0  0  0  0  0  0
    6.2243   -0.0859   18.1002 C   0  0  0  0  0  0  0  0  0  0  0  0
    6.8932   -1.1107   20.2455 N   0  0  0  0  0  0  0  0  0  0  0  0
    8.6699   -1.5283   22.4327 N   0  3  0  0  0  0  0  0  0  0  0  0
    5.8564   -2.3737   18.5944 O   0  0  0  0  0  0  0  0  0  0  0  0
   12.5092   -1.7065   22.5535 S   0  0  0  0  0  0  0  0  0  0  0  0
    5.2401    1.1033   18.9459 Cl  0  0  0  0  0  0  0  0  0  0  0  0
    8.1994   -0.8755   23.0746 H   0  0  0  0  0  0  0  0  0  0  0  0
  1  2  1  0  0  0  0
  1  3  2  0  0  0  0
  2  4  2  0  0  0  0
  3 15  1  0  0  0  0
  4 10  1  0  0  0  0
  4 15  1  0  0  0  0
  5 11  1  0  0  0  0
  5 12  1  0  0  0  0
  5 14  2  0  0  0  0
  6  8  1  0  0  0  0
  6 12  1  0  0  0  0
  7  9  1  0  0  0  0
  7 12  1  0  0  0  0
  8 13  1  0  0  0  0
  9 13  1  0  0  0  0
 10 13  1  0  0  0  0
 11 16  1  0  0  0  0
 13 17  1  0  0  0  0
M  CHG  1  13   1
M  END
> <ref_mols>
x0767_0

> <original SMILES>
ClCC(=O)N1CCN(Cc2cccs2)CC1

> <Chemgauss4>
-8.544258

> <ref_pdb>
x0831_0

$$$$
x2624
  -OEChem-05172015543D

 17 18  0     0  0  0  0  0  0999 V2000
   12.4090    0.6403   23.5940 C   0  0  0  0  0  0  0  0  0  0  0  0
   11.1063    0.0841   23.7478 C   0  0  0  0  0  0  0  0  0  0  0  0
   13.2708   -0.2277   22.9603 C   0  0  0  0  0  0  0  0  0  0  0  0
   11.0219   -1.1880   23.2255 C   0  0  0  0  0  0  0  0  0  0  0  0
    6.3034   -1.2962   18.9959 C   0  0  0  0  0  0  0  0  0  0  0  0
    6.4704   -1.9293   21.3818 C   0  0  0  0  0  0  0  0  0  0  0  0
    7.9028   -0.0966   20.5678 C   0  0  0  0  0  0  0  0  0  0  0  0
    7.6647   -2.5924   22.0524 C   0  0  0  0  0  0  0  0  0  0  0  0
    9.1191   -0.7315   21.2283 C   0  0  0  0  0  0  0  0  0  0  0  0
    9.8348   -2.1046   23.1873 C   0  0  0  0  0  0  0  0  0  0  0  0
    6.2243   -0.0859   18.1002 C   0  0  0  0  0  0  0  0  0  0  0  0
    6.8932   -1.1107   20.2455 N   0  0  0  0  0  0  0  0  0  0  0  0
    8.6699   -1.5283   22.4327 N   0  3  0  0  0  0  0  0  0  0  0  0
    5.8564   -2.3737   18.5944 O   0  0  0  0  0  0  0  0  0  0  0  0
   12.5092   -1.7065   22.5535 S   0  0  0  0  0  0  0  0  0  0  0  0
    5.2401    1.1033   18.9459 Cl  0  0  0  0  0  0  0  0  0  0  0  0
    8.1994   -0.8755   23.0746 H   0  0  0  0  0  0  0  0  0  0  0  0
  1  2  1  0  0  0  0
  1  3  2  0  0  0  0
  2  4  2  0  0  0  0
  3 15  1  0  0  0  0
  4 10  1  0  0  0  0
  4 15  1  0  0  0  0
  5 11  1  0  0  0  0
  5 12  1  0  0  0  0
  5 14  2  0  0  0  0
  6  8  1  0  0  0  0
  6 12  1  0  0  0  0
  7  9  1  0  0  0  0
  7 12  1  0  0  0  0
  8 13  1  0  0  0  0
  9 13  1  0  0  0  0
 10 13  1  0  0  0  0
 11 16  1  0  0  0  0
 13 17  1  0  0  0  0
M  CHG  1  13   1
M  END
> <ref_mols>
x2624_0

> <original SMILES>
Cl.ClCC(=O)N1CCN(CC2=CC=CS2)CC1

> <Chemgauss4>
-8.544258

> <ref_pdb>
x0831_0

$$$$
x1418
  -OEChem-05172015543D

 17 18  0     0  0  0  0  0  0999 V2000
   12.4090    0.6403   23.5940 C   0  0  0  0  0  0  0  0  0  0  0  0
   11.1063    0.0841   23.7478 C   0  0  0  0  0  0  0  0  0  0  0  0
   13.2708   -0.2277   22.9603 C   0  0  0  0  0  0  0  0  0  0  0  0
   11.0219   -1.1880   23.2255 C   0  0  0  0  0  0  0  0  0  0  0  0
    6.3034   -1.2962   18.9959 C   0  0  0  0  0  0  0  0  0  0  0  0
    6.4704   -1.9293   21.3818 C   0  0  0  0  0  0  0  0  0  0  0  0
    7.9028   -0.0966   20.5678 C   0  0  0  0  0  0  0  0  0  0  0  0
    7.6647   -2.5924   22.0524 C   0  0  0  0  0  0  0  0  0  0  0  0
    9.1191   -0.7315   21.2283 C   0  0  0  0  0  0  0  0  0  0  0  0
    9.8348   -2.1046   23.1873 C   0  0  0  0  0  0  0  0  0  0  0  0
    6.2243   -0.0859   18.1002 C   0  0  0  0  0  0  0  0  0  0  0  0
    6.8932   -1.1107   20.2455 N   0  0  0  0  0  0  0  0  0  0  0  0
    8.6699   -1.5283   22.4327 N   0  3  0  0  0  0  0  0  0  0  0  0
    5.8564   -2.3737   18.5944 O   0  0  0  0  0  0  0  0  0  0  0  0
   12.5092   -1.7065   22.5535 S   0  0  0  0  0  0  0  0  0  0  0  0
    5.2401    1.1033   18.9459 Cl  0  0  0  0  0  0  0  0  0  0  0  0
    8.1994   -0.8755   23.0746 H   0  0  0  0  0  0  0  0  0  0  0  0
  1  2  1  0  0  0  0
  1  3  2  0  0  0  0
  2  4  2  0  0  0  0
  3 15  1  0  0  0  0
  4 10  1  0  0  0  0
  4 15  1  0  0  0  0
  5 11  1  0  0  0  0
  5 12  1  0  0  0  0
  5 14  2  0  0  0  0
  6  8  1  0  0  0  0
  6 12  1  0  0  0  0
  7  9  1  0  0  0  0
  7 12  1  0  0  0  0
  8 13  1  0  0  0  0
  9 13  1  0  0  0  0
 10 13  1  0  0  0  0
 11 16  1  0  0  0  0
 13 17  1  0  0  0  0
M  CHG  1  13   1
M  END
> <ref_mols>
x1418_0

> <original SMILES>
ClCC(=O)N1CCN(Cc2cccs2)CC1

> <Chemgauss4>
-8.544258

> <ref_pdb>
x0831_0

$$$$
x2729
  -OEChem-05172015543D

 17 18  0     0  0  0  0  0  0999 V2000
   12.4090    0.6403   23.5940 C   0  0  0  0  0  0  0  0  0  0  0  0
   11.1063    0.0841   23.7478 C   0  0  0  0  0  0  0  0  0  0  0  0
   13.2708   -0.2277   22.9603 C   0  0  0  0  0  0  0  0  0  0  0  0
   11.0219   -1.1880   23.2255 C   0  0  0  0  0  0  0  0  0  0  0  0
    6.3034   -1.2962   18.9959 C   0  0  0  0  0  0  0  0  0  0  0  0
    6.4704   -1.9293   21.3818 C   0  0  0  0  0  0  0  0  0  0  0  0
    7.9028   -0.0966   20.5678 C   0  0  0  0  0  0  0  0  0  0  0  0
    7.6647   -2.5924   22.0524 C   0  0  0  0  0  0  0  0  0  0  0  0
    9.1191   -0.7315   21.2283 C   0  0  0  0  0  0  0  0  0  0  0  0
    9.8348   -2.1046   23.1873 C   0  0  0  0  0  0  0  0  0  0  0  0
    6.2243   -0.0859   18.1002 C   0  0  0  0  0  0  0  0  0  0  0  0
    6.8932   -1.1107   20.2455 N   0  0  0  0  0  0  0  0  0  0  0  0
    8.6699   -1.5283   22.4327 N   0  3  0  0  0  0  0  0  0  0  0  0
    5.8564   -2.3737   18.5944 O   0  0  0  0  0  0  0  0  0  0  0  0
   12.5092   -1.7065   22.5535 S   0  0  0  0  0  0  0  0  0  0  0  0
    5.2401    1.1033   18.9459 Cl  0  0  0  0  0  0  0  0  0  0  0  0
    8.1994   -0.8755   23.0746 H   0  0  0  0  0  0  0  0  0  0  0  0
  1  2  1  0  0  0  0
  1  3  2  0  0  0  0
  2  4  2  0  0  0  0
  3 15  1  0  0  0  0
  4 10  1  0  0  0  0
  4 15  1  0  0  0  0
  5 11  1  0  0  0  0
  5 12  1  0  0  0  0
  5 14  2  0  0  0  0
  6  8  1  0  0  0  0
  6 12  1  0  0  0  0
  7  9  1  0  0  0  0
  7 12  1  0  0  0  0
  8 13  1  0  0  0  0
  9 13  1  0  0  0  0
 10 13  1  0  0  0  0
 11 16  1  0  0  0  0
 13 17  1  0  0  0  0
M  CHG  1  13   1
M  END
> <ref_mols>
x2729_0

> <original SMILES>
Cl.ClCC(=O)N1CCN(CC2=CC=CS2)CC1

> <Chemgauss4>
-8.544258

> <ref_pdb>
x0831_0

> <CYS145-warhead dist minimum (A)>
44.984097

> <CYS145-warhead dist mean (A)>
46.60813

> <CYS145-warhead dist stddev (A)>
0.5465044

$$$$
x1437
  -OEChem-05172015543D

 17 18  0     0  0  0  0  0  0999 V2000
   12.4090    0.6403   23.5940 C   0  0  0  0  0  0  0  0  0  0  0  0
   11.1063    0.0841   23.7478 C   0  0  0  0  0  0  0  0  0  0  0  0
   13.2708   -0.2277   22.9603 C   0  0  0  0  0  0  0  0  0  0  0  0
   11.0219   -1.1880   23.2255 C   0  0  0  0  0  0  0  0  0  0  0  0
    6.3034   -1.2962   18.9959 C   0  0  0  0  0  0  0  0  0  0  0  0
    6.4704   -1.9293   21.3818 C   0  0  0  0  0  0  0  0  0  0  0  0
    7.9028   -0.0966   20.5678 C   0  0  0  0  0  0  0  0  0  0  0  0
    7.6647   -2.5924   22.0524 C   0  0  0  0  0  0  0  0  0  0  0  0
    9.1191   -0.7315   21.2283 C   0  0  0  0  0  0  0  0  0  0  0  0
    9.8348   -2.1046   23.1873 C   0  0  0  0  0  0  0  0  0  0  0  0
    6.2243   -0.0859   18.1002 C   0  0  0  0  0  0  0  0  0  0  0  0
    6.8932   -1.1107   20.2455 N   0  0  0  0  0  0  0  0  0  0  0  0
    8.6699   -1.5283   22.4327 N   0  3  0  0  0  0  0  0  0  0  0  0
    5.8564   -2.3737   18.5944 O   0  0  0  0  0  0  0  0  0  0  0  0
   12.5092   -1.7065   22.5535 S   0  0  0  0  0  0  0  0  0  0  0  0
    5.2401    1.1033   18.9459 Cl  0  0  0  0  0  0  0  0  0  0  0  0
    8.1994   -0.8755   23.0746 H   0  0  0  0  0  0  0  0  0  0  0  0
  1  2  1  0  0  0  0
  1  3  2  0  0  0  0
  2  4  2  0  0  0  0
  3 15  1  0  0  0  0
  4 10  1  0  0  0  0
  4 15  1  0  0  0  0
  5 11  1  0  0  0  0
  5 12  1  0  0  0  0
  5 14  2  0  0  0  0
  6  8  1  0  0  0  0
  6 12  1  0  0  0  0
  7  9  1  0  0  0  0
  7 12  1  0  0  0  0
  8 13  1  0  0  0  0
  9 13  1  0  0  0  0
 10 13  1  0  0  0  0
 11 16  1  0  0  0  0
 13 17  1  0  0  0  0
M  CHG  1  13   1
M  END
> <ref_mols>
x1437_0

> <original SMILES>
ClCC(=O)N1CCN(Cc2cccs2)CC1

> <Chemgauss4>
-8.544258

> <ref_pdb>
x0831_0

$$$$
x1486
  -OEChem-05172015543D

 17 18  0     0  0  0  0  0  0999 V2000
   12.4090    0.6403   23.5940 C   0  0  0  0  0  0  0  0  0  0  0  0
   11.1063    0.0841   23.7478 C   0  0  0  0  0  0  0  0  0  0  0  0
   13.2708   -0.2277   22.9603 C   0  0  0  0  0  0  0  0  0  0  0  0
   11.0219   -1.1880   23.2255 C   0  0  0  0  0  0  0  0  0  0  0  0
    6.3034   -1.2962   18.9959 C   0  0  0  0  0  0  0  0  0  0  0  0
    6.4704   -1.9293   21.3818 C   0  0  0  0  0  0  0  0  0  0  0  0
    7.9028   -0.0966   20.5678 C   0  0  0  0  0  0  0  0  0  0  0  0
    7.6647   -2.5924   22.0524 C   0  0  0  0  0  0  0  0  0  0  0  0
    9.1191   -0.7315   21.2283 C   0  0  0  0  0  0  0  0  0  0  0  0
    9.8348   -2.1046   23.1873 C   0  0  0  0  0  0  0  0  0  0  0  0
    6.2243   -0.0859   18.1002 C   0  0  0  0  0  0  0  0  0  0  0  0
    6.8932   -1.1107   20.2455 N   0  0  0  0  0  0  0  0  0  0  0  0
    8.6699   -1.5283   22.4327 N   0  3  0  0  0  0  0  0  0  0  0  0
    5.8564   -2.3737   18.5944 O   0  0  0  0  0  0  0  0  0  0  0  0
   12.5092   -1.7065   22.5535 S   0  0  0  0  0  0  0  0  0  0  0  0
    5.2401    1.1033   18.9459 Cl  0  0  0  0  0  0  0  0  0  0  0  0
    8.1994   -0.8755   23.0746 H   0  0  0  0  0  0  0  0  0  0  0  0
  1  2  1  0  0  0  0
  1  3  2  0  0  0  0
  2  4  2  0  0  0  0
  3 15  1  0  0  0  0
  4 10  1  0  0  0  0
  4 15  1  0  0  0  0
  5 11  1  0  0  0  0
  5 12  1  0  0  0  0
  5 14  2  0  0  0  0
  6  8  1  0  0  0  0
  6 12  1  0  0  0  0
  7  9  1  0  0  0  0
  7 12  1  0  0  0  0
  8 13  1  0  0  0  0
  9 13  1  0  0  0  0
 10 13  1  0  0  0  0
 11 16  1  0  0  0  0
 13 17  1  0  0  0  0
M  CHG  1  13   1
M  END
> <ref_mols>
x1486_0

> <original SMILES>
ClCC(=O)N1CCN(Cc2cccs2)CC1

> <Chemgauss4>
-8.544258

> <ref_pdb>
x0831_0

$$$$
x0693
  -OEChem-05172015543D

 17 18  0     0  0  0  0  0  0999 V2000
   12.4090    0.6403   23.5940 C   0  0  0  0  0  0  0  0  0  0  0  0
   11.1063    0.0841   23.7478 C   0  0  0  0  0  0  0  0  0  0  0  0
   13.2708   -0.2277   22.9603 C   0  0  0  0  0  0  0  0  0  0  0  0
   11.0219   -1.1880   23.2255 C   0  0  0  0  0  0  0  0  0  0  0  0
    6.3034   -1.2962   18.9959 C   0  0  0  0  0  0  0  0  0  0  0  0
    6.4704   -1.9293   21.3818 C   0  0  0  0  0  0  0  0  0  0  0  0
    7.9028   -0.0966   20.5678 C   0  0  0  0  0  0  0  0  0  0  0  0
    7.6647   -2.5924   22.0524 C   0  0  0  0  0  0  0  0  0  0  0  0
    9.1191   -0.7315   21.2283 C   0  0  0  0  0  0  0  0  0  0  0  0
    9.8348   -2.1046   23.1873 C   0  0  0  0  0  0  0  0  0  0  0  0
    6.2243   -0.0859   18.1002 C   0  0  0  0  0  0  0  0  0  0  0  0
    6.8932   -1.1107   20.2455 N   0  0  0  0  0  0  0  0  0  0  0  0
    8.6699   -1.5283   22.4327 N   0  3  0  0  0  0  0  0  0  0  0  0
    5.8564   -2.3737   18.5944 O   0  0  0  0  0  0  0  0  0  0  0  0
   12.5092   -1.7065   22.5535 S   0  0  0  0  0  0  0  0  0  0  0  0
    5.2401    1.1033   18.9459 Cl  0  0  0  0  0  0  0  0  0  0  0  0
    8.1994   -0.8755   23.0746 H   0  0  0  0  0  0  0  0  0  0  0  0
  1  2  1  0  0  0  0
  1  3  2  0  0  0  0
  2  4  2  0  0  0  0
  3 15  1  0  0  0  0
  4 10  1  0  0  0  0
  4 15  1  0  0  0  0
  5 11  1  0  0  0  0
  5 12  1  0  0  0  0
  5 14  2  0  0  0  0
  6  8  1  0  0  0  0
  6 12  1  0  0  0  0
  7  9  1  0  0  0  0
  7 12  1  0  0  0  0
  8 13  1  0  0  0  0
  9 13  1  0  0  0  0
 10 13  1  0  0  0  0
 11 16  1  0  0  0  0
 13 17  1  0  0  0  0
M  CHG  1  13   1
M  END
> <ref_mols>
x0693_0

> <original SMILES>
ClCC(=O)N1CCN(Cc2cccs2)CC1

> <Chemgauss4>
-8.544258

> <ref_pdb>
x0831_0

> <CYS145-warhead dist minimum (A)>
8.943983

> <CYS145-warhead dist mean (A)>
9.79403

> <CYS145-warhead dist stddev (A)>
0.5516817

$$$$
x0762
  -OEChem-05172015543D

 17 18  0     0  0  0  0  0  0999 V2000
   11.9015   -1.6577   22.5205 C   0  0  0  0  0  0  0  0  0  0  0  0
   12.8129   -0.6386   22.6889 C   0  0  0  0  0  0  0  0  0  0  0  0
   10.6039   -0.0631   23.6048 C   0  0  0  0  0  0  0  0  0  0  0  0
   10.6218   -1.3244   23.0509 C   0  0  0  0  0  0  0  0  0  0  0  0
    5.9006   -1.4215   18.8241 C   0  0  0  0  0  0  0  0  0  0  0  0
    6.0693   -2.0615   21.2080 C   0  0  0  0  0  0  0  0  0  0  0  0
    7.5007   -0.2261   20.3984 C   0  0  0  0  0  0  0  0  0  0  0  0
    7.2641   -2.7262   21.8759 C   0  0  0  0  0  0  0  0  0  0  0  0
    8.7176   -0.8626   21.0562 C   0  0  0  0  0  0  0  0  0  0  0  0
    9.4348   -2.2412   23.0108 C   0  0  0  0  0  0  0  0  0  0  0  0
    5.8206   -0.2086   17.9319 C   0  0  0  0  0  0  0  0  0  0  0  0
    6.4911   -1.2395   20.0738 N   0  0  0  0  0  0  0  0  0  0  0  0
    8.2693   -1.6631   22.2586 N   0  3  0  0  0  0  0  0  0  0  0  0
    5.4535   -2.4979   18.4197 O   0  0  0  0  0  0  0  0  0  0  0  0
   12.1253    0.7133   23.4838 S   0  0  0  0  0  0  0  0  0  0  0  0
    4.8367    0.9779   18.7817 Cl  0  0  0  0  0  0  0  0  0  0  0  0
    7.7991   -1.0121   22.9027 H   0  0  0  0  0  0  0  0  0  0  0  0
  1  2  2  0  0  0  0
  1  4  1  0  0  0  0
  2 15  1  0  0  0  0
  3  4  2  0  0  0  0
  3 15  1  0  0  0  0
  4 10  1  0  0  0  0
  5 11  1  0  0  0  0
  5 12  1  0  0  0  0
  5 14  2  0  0  0  0
  6  8  1  0  0  0  0
  6 12  1  0  0  0  0
  7  9  1  0  0  0  0
  7 12  1  0  0  0  0
  8 13  1  0  0  0  0
  9 13  1  0  0  0  0
 10 13  1  0  0  0  0
 11 16  1  0  0  0  0
 13 17  1  0  0  0  0
M  CHG  1  13   1
M  END
> <ref_mols>
x0762_0

> <original SMILES>
ClCC(=O)N1CCN(Cc2ccsc2)CC1

> <Chemgauss4>
-8.542832

> <ref_pdb>
x0831_0

$$$$
x1386
  -OEChem-05172015543D

 17 18  0     0  0  0  0  0  0999 V2000
   11.9015   -1.6577   22.5205 C   0  0  0  0  0  0  0  0  0  0  0  0
   12.8129   -0.6386   22.6889 C   0  0  0  0  0  0  0  0  0  0  0  0
   10.6039   -0.0631   23.6048 C   0  0  0  0  0  0  0  0  0  0  0  0
   10.6218   -1.3244   23.0509 C   0  0  0  0  0  0  0  0  0  0  0  0
    5.9006   -1.4215   18.8241 C   0  0  0  0  0  0  0  0  0  0  0  0
    6.0693   -2.0615   21.2080 C   0  0  0  0  0  0  0  0  0  0  0  0
    7.5007   -0.2261   20.3984 C   0  0  0  0  0  0  0  0  0  0  0  0
    7.2641   -2.7262   21.8759 C   0  0  0  0  0  0  0  0  0  0  0  0
    8.7176   -0.8626   21.0562 C   0  0  0  0  0  0  0  0  0  0  0  0
    9.4348   -2.2412   23.0108 C   0  0  0  0  0  0  0  0  0  0  0  0
    5.8206   -0.2086   17.9319 C   0  0  0  0  0  0  0  0  0  0  0  0
    6.4911   -1.2395   20.0738 N   0  0  0  0  0  0  0  0  0  0  0  0
    8.2693   -1.6631   22.2586 N   0  3  0  0  0  0  0  0  0  0  0  0
    5.4535   -2.4979   18.4197 O   0  0  0  0  0  0  0  0  0  0  0  0
   12.1253    0.7133   23.4838 S   0  0  0  0  0  0  0  0  0  0  0  0
    4.8367    0.9779   18.7817 Cl  0  0  0  0  0  0  0  0  0  0  0  0
    7.7991   -1.0121   22.9027 H   0  0  0  0  0  0  0  0  0  0  0  0
  1  2  2  0  0  0  0
  1  4  1  0  0  0  0
  2 15  1  0  0  0  0
  3  4  2  0  0  0  0
  3 15  1  0  0  0  0
  4 10  1  0  0  0  0
  5 11  1  0  0  0  0
  5 12  1  0  0  0  0
  5 14  2  0  0  0  0
  6  8  1  0  0  0  0
  6 12  1  0  0  0  0
  7  9  1  0  0  0  0
  7 12  1  0  0  0  0
  8 13  1  0  0  0  0
  9 13  1  0  0  0  0
 10 13  1  0  0  0  0
 11 16  1  0  0  0  0
 13 17  1  0  0  0  0
M  CHG  1  13   1
M  END
> <ref_mols>
x1386_0

> <original SMILES>
ClCC(=O)N1CCN(Cc2ccsc2)CC1

> <Chemgauss4>
-8.542832

> <ref_pdb>
x0831_0

$$$$
x2625
  -OEChem-05172015543D

 17 18  0     0  0  0  0  0  0999 V2000
   11.9015   -1.6577   22.5205 C   0  0  0  0  0  0  0  0  0  0  0  0
   12.8129   -0.6386   22.6889 C   0  0  0  0  0  0  0  0  0  0  0  0
   10.6039   -0.0631   23.6048 C   0  0  0  0  0  0  0  0  0  0  0  0
   10.6218   -1.3244   23.0509 C   0  0  0  0  0  0  0  0  0  0  0  0
    5.9006   -1.4215   18.8241 C   0  0  0  0  0  0  0  0  0  0  0  0
    6.0693   -2.0615   21.2080 C   0  0  0  0  0  0  0  0  0  0  0  0
    7.5007   -0.2261   20.3984 C   0  0  0  0  0  0  0  0  0  0  0  0
    7.2641   -2.7262   21.8759 C   0  0  0  0  0  0  0  0  0  0  0  0
    8.7176   -0.8626   21.0562 C   0  0  0  0  0  0  0  0  0  0  0  0
    9.4348   -2.2412   23.0108 C   0  0  0  0  0  0  0  0  0  0  0  0
    5.8206   -0.2086   17.9319 C   0  0  0  0  0  0  0  0  0  0  0  0
    6.4911   -1.2395   20.0738 N   0  0  0  0  0  0  0  0  0  0  0  0
    8.2693   -1.6631   22.2586 N   0  3  0  0  0  0  0  0  0  0  0  0
    5.4535   -2.4979   18.4197 O   0  0  0  0  0  0  0  0  0  0  0  0
   12.1253    0.7133   23.4838 S   0  0  0  0  0  0  0  0  0  0  0  0
    4.8367    0.9779   18.7817 Cl  0  0  0  0  0  0  0  0  0  0  0  0
    7.7991   -1.0121   22.9027 H   0  0  0  0  0  0  0  0  0  0  0  0
  1  2  2  0  0  0  0
  1  4  1  0  0  0  0
  2 15  1  0  0  0  0
  3  4  2  0  0  0  0
  3 15  1  0  0  0  0
  4 10  1  0  0  0  0
  5 11  1  0  0  0  0
  5 12  1  0  0  0  0
  5 14  2  0  0  0  0
  6  8  1  0  0  0  0
  6 12  1  0  0  0  0
  7  9  1  0  0  0  0
  7 12  1  0  0  0  0
  8 13  1  0  0  0  0
  9 13  1  0  0  0  0
 10 13  1  0  0  0  0
 11 16  1  0  0  0  0
 13 17  1  0  0  0  0
M  CHG  1  13   1
M  END
> <ref_mols>
x2625_0

> <original SMILES>
Cl.ClCC(=O)N1CCN(CC=2C=CSC2)CC1

> <Chemgauss4>
-8.542832

> <ref_pdb>
x0831_0

$$$$
x2743
  -OEChem-05172015543D

 17 18  0     0  0  0  0  0  0999 V2000
   11.9015   -1.6577   22.5205 C   0  0  0  0  0  0  0  0  0  0  0  0
   12.8129   -0.6386   22.6889 C   0  0  0  0  0  0  0  0  0  0  0  0
   10.6039   -0.0631   23.6048 C   0  0  0  0  0  0  0  0  0  0  0  0
   10.6218   -1.3244   23.0509 C   0  0  0  0  0  0  0  0  0  0  0  0
    5.9006   -1.4215   18.8241 C   0  0  0  0  0  0  0  0  0  0  0  0
    6.0693   -2.0615   21.2080 C   0  0  0  0  0  0  0  0  0  0  0  0
    7.5007   -0.2261   20.3984 C   0  0  0  0  0  0  0  0  0  0  0  0
    7.2641   -2.7262   21.8759 C   0  0  0  0  0  0  0  0  0  0  0  0
    8.7176   -0.8626   21.0562 C   0  0  0  0  0  0  0  0  0  0  0  0
    9.4348   -2.2412   23.0108 C   0  0  0  0  0  0  0  0  0  0  0  0
    5.8206   -0.2086   17.9319 C   0  0  0  0  0  0  0  0  0  0  0  0
    6.4911   -1.2395   20.0738 N   0  0  0  0  0  0  0  0  0  0  0  0
    8.2693   -1.6631   22.2586 N   0  3  0  0  0  0  0  0  0  0  0  0
    5.4535   -2.4979   18.4197 O   0  0  0  0  0  0  0  0  0  0  0  0
   12.1253    0.7133   23.4838 S   0  0  0  0  0  0  0  0  0  0  0  0
    4.8367    0.9779   18.7817 Cl  0  0  0  0  0  0  0  0  0  0  0  0
    7.7991   -1.0121   22.9027 H   0  0  0  0  0  0  0  0  0  0  0  0
  1  2  2  0  0  0  0
  1  4  1  0  0  0  0
  2 15  1  0  0  0  0
  3  4  2  0  0  0  0
  3 15  1  0  0  0  0
  4 10  1  0  0  0  0
  5 11  1  0  0  0  0
  5 12  1  0  0  0  0
  5 14  2  0  0  0  0
  6  8  1  0  0  0  0
  6 12  1  0  0  0  0
  7  9  1  0  0  0  0
  7 12  1  0  0  0  0
  8 13  1  0  0  0  0
  9 13  1  0  0  0  0
 10 13  1  0  0  0  0
 11 16  1  0  0  0  0
 13 17  1  0  0  0  0
M  CHG  1  13   1
M  END
> <ref_mols>
x2743_0

> <original SMILES>
Cl.ClCC(=O)N1CCN(CC=2C=CSC2)CC1

> <Chemgauss4>
-8.542832

> <ref_pdb>
x0831_0

> <CYS145-warhead dist minimum (A)>
4.068596

> <CYS145-warhead dist mean (A)>
6.0397835

> <CYS145-warhead dist stddev (A)>
0.5451015

$$$$
x1485
  -OEChem-05172015543D

 17 18  0     0  0  0  0  0  0999 V2000
   11.9015   -1.6577   22.5205 C   0  0  0  0  0  0  0  0  0  0  0  0
   12.8129   -0.6386   22.6889 C   0  0  0  0  0  0  0  0  0  0  0  0
   10.6039   -0.0631   23.6048 C   0  0  0  0  0  0  0  0  0  0  0  0
   10.6218   -1.3244   23.0509 C   0  0  0  0  0  0  0  0  0  0  0  0
    5.9006   -1.4215   18.8241 C   0  0  0  0  0  0  0  0  0  0  0  0
    6.0693   -2.0615   21.2080 C   0  0  0  0  0  0  0  0  0  0  0  0
    7.5007   -0.2261   20.3984 C   0  0  0  0  0  0  0  0  0  0  0  0
    7.2641   -2.7262   21.8759 C   0  0  0  0  0  0  0  0  0  0  0  0
    8.7176   -0.8626   21.0562 C   0  0  0  0  0  0  0  0  0  0  0  0
    9.4348   -2.2412   23.0108 C   0  0  0  0  0  0  0  0  0  0  0  0
    5.8206   -0.2086   17.9319 C   0  0  0  0  0  0  0  0  0  0  0  0
    6.4911   -1.2395   20.0738 N   0  0  0  0  0  0  0  0  0  0  0  0
    8.2693   -1.6631   22.2586 N   0  3  0  0  0  0  0  0  0  0  0  0
    5.4535   -2.4979   18.4197 O   0  0  0  0  0  0  0  0  0  0  0  0
   12.1253    0.7133   23.4838 S   0  0  0  0  0  0  0  0  0  0  0  0
    4.8367    0.9779   18.7817 Cl  0  0  0  0  0  0  0  0  0  0  0  0
    7.7991   -1.0121   22.9027 H   0  0  0  0  0  0  0  0  0  0  0  0
  1  2  2  0  0  0  0
  1  4  1  0  0  0  0
  2 15  1  0  0  0  0
  3  4  2  0  0  0  0
  3 15  1  0  0  0  0
  4 10  1  0  0  0  0
  5 11  1  0  0  0  0
  5 12  1  0  0  0  0
  5 14  2  0  0  0  0
  6  8  1  0  0  0  0
  6 12  1  0  0  0  0
  7  9  1  0  0  0  0
  7 12  1  0  0  0  0
  8 13  1  0  0  0  0
  9 13  1  0  0  0  0
 10 13  1  0  0  0  0
 11 16  1  0  0  0  0
 13 17  1  0  0  0  0
M  CHG  1  13   1
M  END
> <ref_mols>
x1485_0

> <original SMILES>
ClCC(=O)N1CCN(Cc2ccsc2)CC1

> <Chemgauss4>
-8.542832

> <ref_pdb>
x0831_0

> <CYS145-warhead dist minimum (A)>
3.763814

> <CYS145-warhead dist mean (A)>
5.9229593

> <CYS145-warhead dist stddev (A)>
0.54469395

$$$$
x2730
  -OEChem-05172015543D

 17 18  0     0  0  0  0  0  0999 V2000
   11.9015   -1.6577   22.5205 C   0  0  0  0  0  0  0  0  0  0  0  0
   12.8129   -0.6386   22.6889 C   0  0  0  0  0  0  0  0  0  0  0  0
   10.6039   -0.0631   23.6048 C   0  0  0  0  0  0  0  0  0  0  0  0
   10.6218   -1.3244   23.0509 C   0  0  0  0  0  0  0  0  0  0  0  0
    5.9006   -1.4215   18.8241 C   0  0  0  0  0  0  0  0  0  0  0  0
    6.0693   -2.0615   21.2080 C   0  0  0  0  0  0  0  0  0  0  0  0
    7.5007   -0.2261   20.3984 C   0  0  0  0  0  0  0  0  0  0  0  0
    7.2641   -2.7262   21.8759 C   0  0  0  0  0  0  0  0  0  0  0  0
    8.7176   -0.8626   21.0562 C   0  0  0  0  0  0  0  0  0  0  0  0
    9.4348   -2.2412   23.0108 C   0  0  0  0  0  0  0  0  0  0  0  0
    5.8206   -0.2086   17.9319 C   0  0  0  0  0  0  0  0  0  0  0  0
    6.4911   -1.2395   20.0738 N   0  0  0  0  0  0  0  0  0  0  0  0
    8.2693   -1.6631   22.2586 N   0  3  0  0  0  0  0  0  0  0  0  0
    5.4535   -2.4979   18.4197 O   0  0  0  0  0  0  0  0  0  0  0  0
   12.1253    0.7133   23.4838 S   0  0  0  0  0  0  0  0  0  0  0  0
    4.8367    0.9779   18.7817 Cl  0  0  0  0  0  0  0  0  0  0  0  0
    7.7991   -1.0121   22.9027 H   0  0  0  0  0  0  0  0  0  0  0  0
  1  2  2  0  0  0  0
  1  4  1  0  0  0  0
  2 15  1  0  0  0  0
  3  4  2  0  0  0  0
  3 15  1  0  0  0  0
  4 10  1  0  0  0  0
  5 11  1  0  0  0  0
  5 12  1  0  0  0  0
  5 14  2  0  0  0  0
  6  8  1  0  0  0  0
  6 12  1  0  0  0  0
  7  9  1  0  0  0  0
  7 12  1  0  0  0  0
  8 13  1  0  0  0  0
  9 13  1  0  0  0  0
 10 13  1  0  0  0  0
 11 16  1  0  0  0  0
 13 17  1  0  0  0  0
M  CHG  1  13   1
M  END
> <ref_mols>
x2730_0

> <original SMILES>
Cl.ClCC(=O)N1CCN(CC=2C=CSC2)CC1

> <Chemgauss4>
-8.542832

> <ref_pdb>
x0831_0

> <CYS145-warhead dist minimum (A)>
48.335438

> <CYS145-warhead dist mean (A)>
49.579933

> <CYS145-warhead dist stddev (A)>
0.8505092

$$$$
x1415
  -OEChem-05172015543D

 17 18  0     0  0  0  0  0  0999 V2000
   11.9015   -1.6577   22.5205 C   0  0  0  0  0  0  0  0  0  0  0  0
   12.8129   -0.6386   22.6889 C   0  0  0  0  0  0  0  0  0  0  0  0
   10.6039   -0.0631   23.6048 C   0  0  0  0  0  0  0  0  0  0  0  0
   10.6218   -1.3244   23.0509 C   0  0  0  0  0  0  0  0  0  0  0  0
    5.9006   -1.4215   18.8241 C   0  0  0  0  0  0  0  0  0  0  0  0
    6.0693   -2.0615   21.2080 C   0  0  0  0  0  0  0  0  0  0  0  0
    7.5007   -0.2261   20.3984 C   0  0  0  0  0  0  0  0  0  0  0  0
    7.2641   -2.7262   21.8759 C   0  0  0  0  0  0  0  0  0  0  0  0
    8.7176   -0.8626   21.0562 C   0  0  0  0  0  0  0  0  0  0  0  0
    9.4348   -2.2412   23.0108 C   0  0  0  0  0  0  0  0  0  0  0  0
    5.8206   -0.2086   17.9319 C   0  0  0  0  0  0  0  0  0  0  0  0
    6.4911   -1.2395   20.0738 N   0  0  0  0  0  0  0  0  0  0  0  0
    8.2693   -1.6631   22.2586 N   0  3  0  0  0  0  0  0  0  0  0  0
    5.4535   -2.4979   18.4197 O   0  0  0  0  0  0  0  0  0  0  0  0
   12.1253    0.7133   23.4838 S   0  0  0  0  0  0  0  0  0  0  0  0
    4.8367    0.9779   18.7817 Cl  0  0  0  0  0  0  0  0  0  0  0  0
    7.7991   -1.0121   22.9027 H   0  0  0  0  0  0  0  0  0  0  0  0
  1  2  2  0  0  0  0
  1  4  1  0  0  0  0
  2 15  1  0  0  0  0
  3  4  2  0  0  0  0
  3 15  1  0  0  0  0
  4 10  1  0  0  0  0
  5 11  1  0  0  0  0
  5 12  1  0  0  0  0
  5 14  2  0  0  0  0
  6  8  1  0  0  0  0
  6 12  1  0  0  0  0
  7  9  1  0  0  0  0
  7 12  1  0  0  0  0
  8 13  1  0  0  0  0
  9 13  1  0  0  0  0
 10 13  1  0  0  0  0
 11 16  1  0  0  0  0
 13 17  1  0  0  0  0
M  CHG  1  13   1
M  END
> <ref_mols>
x1415_0

> <original SMILES>
ClCC(=O)N1CCN(Cc2ccsc2)CC1

> <Chemgauss4>
-8.542832

> <ref_pdb>
x0831_0

$$$$
x0688
  -OEChem-05172015543D

 17 18  0     0  0  0  0  0  0999 V2000
   11.9015   -1.6577   22.5205 C   0  0  0  0  0  0  0  0  0  0  0  0
   12.8129   -0.6386   22.6889 C   0  0  0  0  0  0  0  0  0  0  0  0
   10.6039   -0.0631   23.6048 C   0  0  0  0  0  0  0  0  0  0  0  0
   10.6218   -1.3244   23.0509 C   0  0  0  0  0  0  0  0  0  0  0  0
    5.9006   -1.4215   18.8241 C   0  0  0  0  0  0  0  0  0  0  0  0
    6.0693   -2.0615   21.2080 C   0  0  0  0  0  0  0  0  0  0  0  0
    7.5007   -0.2261   20.3984 C   0  0  0  0  0  0  0  0  0  0  0  0
    7.2641   -2.7262   21.8759 C   0  0  0  0  0  0  0  0  0  0  0  0
    8.7176   -0.8626   21.0562 C   0  0  0  0  0  0  0  0  0  0  0  0
    9.4348   -2.2412   23.0108 C   0  0  0  0  0  0  0  0  0  0  0  0
    5.8206   -0.2086   17.9319 C   0  0  0  0  0  0  0  0  0  0  0  0
    6.4911   -1.2395   20.0738 N   0  0  0  0  0  0  0  0  0  0  0  0
    8.2693   -1.6631   22.2586 N   0  3  0  0  0  0  0  0  0  0  0  0
    5.4535   -2.4979   18.4197 O   0  0  0  0  0  0  0  0  0  0  0  0
   12.1253    0.7133   23.4838 S   0  0  0  0  0  0  0  0  0  0  0  0
    4.8367    0.9779   18.7817 Cl  0  0  0  0  0  0  0  0  0  0  0  0
    7.7991   -1.0121   22.9027 H   0  0  0  0  0  0  0  0  0  0  0  0
  1  2  2  0  0  0  0
  1  4  1  0  0  0  0
  2 15  1  0  0  0  0
  3  4  2  0  0  0  0
  3 15  1  0  0  0  0
  4 10  1  0  0  0  0
  5 11  1  0  0  0  0
  5 12  1  0  0  0  0
  5 14  2  0  0  0  0
  6  8  1  0  0  0  0
  6 12  1  0  0  0  0
  7  9  1  0  0  0  0
  7 12  1  0  0  0  0
  8 13  1  0  0  0  0
  9 13  1  0  0  0  0
 10 13  1  0  0  0  0
 11 16  1  0  0  0  0
 13 17  1  0  0  0  0
M  CHG  1  13   1
M  END
> <ref_mols>
x0688_0

> <original SMILES>
ClCC(=O)N1CCN(Cc2ccsc2)CC1

> <Chemgauss4>
-8.542832

> <ref_pdb>
x0831_0

$$$$
x1210
  -OEChem-05172015543D

 16 17  0     1  0  0  0  0  0999 V2000
    8.6250   -5.6176   23.1327 C   0  0  0  0  0  0  0  0  0  0  0  0
    9.6181   -4.9202   23.8115 C   0  0  0  0  0  0  0  0  0  0  0  0
    7.9786   -3.5796   22.0909 C   0  0  0  0  0  0  0  0  0  0  0  0
    7.7854   -4.9419   22.2542 C   0  0  0  0  0  0  0  0  0  0  0  0
    9.7294   -3.5590   23.5784 C   0  0  0  0  0  0  0  0  0  0  0  0
   11.6594   -3.3776   25.1803 C   0  0  0  0  0  0  0  0  0  0  0  0
   13.2593   -0.9459   23.8895 C   0  0  0  0  0  0  0  0  0  0  0  0
   13.7523   -2.0644   24.7761 C   0  0  0  0  0  0  0  0  0  0  0  0
   12.3801   -0.1589   24.8342 C   0  0  0  0  0  0  0  0  0  0  0  0
   12.5713   -2.3106   25.6950 C   0  0  1  0  0  0  0  0  0  0  0  0
    6.7147   -5.6606   21.5131 C   0  0  0  0  0  0  0  0  0  0  0  0
    8.9324   -2.8682   22.7327 N   0  0  0  0  0  0  0  0  0  0  0  0
   10.7432   -2.8588   24.2743 N   0  0  0  0  0  0  0  0  0  0  0  0
   11.7752   -4.5389   25.5584 O   0  0  0  0  0  0  0  0  0  0  0  0
   11.7884   -1.1136   25.7251 O   0  0  0  0  0  0  0  0  0  0  0  0
   10.7968   -1.8612   24.0789 H   0  0  0  0  0  0  0  0  0  0  0  0
  1  2  2  0  0  0  0
  1  4  1  0  0  0  0
  2  5  1  0  0  0  0
  3  4  2  0  0  0  0
  3 12  1  0  0  0  0
  4 11  1  0  0  0  0
  5 12  2  0  0  0  0
  5 13  1  0  0  0  0
  6 10  1  0  0  0  0
  6 13  1  0  0  0  0
  6 14  2  0  0  0  0
  7  8  1  0  0  0  0
  7  9  1  0  0  0  0
  8 10  1  0  0  0  0
  9 15  1  0  0  0  0
 10 15  1  0  0  0  0
 13 16  1  0  0  0  0
M  END
> <ref_mols>
x1210_0

> <original SMILES>
CC=1C=CC(NC(=O)C2CCCO2)=NC1

> <Chemgauss4>
-8.540951

> <ref_pdb>
x0749_0

$$$$
x0361
  -OEChem-05172015543D

 16 17  0     1  0  0  0  0  0999 V2000
    8.6250   -5.6176   23.1327 C   0  0  0  0  0  0  0  0  0  0  0  0
    9.6181   -4.9202   23.8115 C   0  0  0  0  0  0  0  0  0  0  0  0
    7.9786   -3.5796   22.0909 C   0  0  0  0  0  0  0  0  0  0  0  0
    7.7854   -4.9419   22.2542 C   0  0  0  0  0  0  0  0  0  0  0  0
    9.7294   -3.5590   23.5784 C   0  0  0  0  0  0  0  0  0  0  0  0
   11.6594   -3.3776   25.1803 C   0  0  0  0  0  0  0  0  0  0  0  0
   13.2593   -0.9459   23.8895 C   0  0  0  0  0  0  0  0  0  0  0  0
   13.7523   -2.0644   24.7761 C   0  0  0  0  0  0  0  0  0  0  0  0
   12.3801   -0.1589   24.8342 C   0  0  0  0  0  0  0  0  0  0  0  0
   12.5713   -2.3106   25.6950 C   0  0  1  0  0  0  0  0  0  0  0  0
    6.7147   -5.6606   21.5131 C   0  0  0  0  0  0  0  0  0  0  0  0
    8.9324   -2.8682   22.7327 N   0  0  0  0  0  0  0  0  0  0  0  0
   10.7432   -2.8588   24.2743 N   0  0  0  0  0  0  0  0  0  0  0  0
   11.7752   -4.5389   25.5584 O   0  0  0  0  0  0  0  0  0  0  0  0
   11.7884   -1.1136   25.7251 O   0  0  0  0  0  0  0  0  0  0  0  0
   10.7968   -1.8612   24.0789 H   0  0  0  0  0  0  0  0  0  0  0  0
  1  2  2  0  0  0  0
  1  4  1  0  0  0  0
  2  5  1  0  0  0  0
  3  4  2  0  0  0  0
  3 12  1  0  0  0  0
  4 11  1  0  0  0  0
  5 12  2  0  0  0  0
  5 13  1  0  0  0  0
  6 10  1  0  0  0  0
  6 13  1  0  0  0  0
  6 14  2  0  0  0  0
  7  8  1  0  0  0  0
  7  9  1  0  0  0  0
  8 10  1  0  0  0  0
  9 15  1  0  0  0  0
 10 15  1  0  0  0  0
 13 16  1  0  0  0  0
M  END
> <ref_mols>
x0361_0

> <original SMILES>
CC=1C=CC(NC(=O)C2CCCO2)=NC1

> <Chemgauss4>
-8.540951

> <ref_pdb>
x0749_0

$$$$
x0087
  -OEChem-05172015543D

 17 17  0     0  0  0  0  0  0999 V2000
   10.3393   -2.8059   23.6057 C   0  0  0  0  0  0  0  0  0  0  0  0
    8.4449   -4.3042   23.5481 C   0  0  0  0  0  0  0  0  0  0  0  0
    9.7851   -2.0650   22.5619 C   0  0  0  0  0  0  0  0  0  0  0  0
    7.8906   -3.5632   22.5043 C   0  0  0  0  0  0  0  0  0  0  0  0
    9.6692   -3.9256   24.0987 C   0  0  0  0  0  0  0  0  0  0  0  0
    8.5607   -2.4436   22.0112 C   0  0  0  0  0  0  0  0  0  0  0  0
    6.7978   -1.9267   20.2940 C   0  0  0  0  0  0  0  0  0  0  0  0
    9.2300   -5.3892   26.1061 C   0  0  0  0  0  0  0  0  0  0  0  0
    6.5555   -0.8945   19.2214 C   0  0  0  0  0  0  0  0  0  0  0  0
   10.2619   -4.7177   25.2147 C   0  0  0  0  0  0  0  0  0  0  0  0
    9.3985   -6.7557   26.1806 N   0  0  0  0  0  0  0  0  0  0  0  0
    8.0060   -1.7025   20.9675 N   0  0  0  0  0  0  0  0  0  0  0  0
    5.9864   -2.8242   20.4966 O   0  0  0  0  0  0  0  0  0  0  0  0
    8.3400   -4.7814   26.6945 O   0  0  0  0  0  0  0  0  0  0  0  0
   10.1549   -7.1953   25.6660 H   0  0  0  0  0  0  0  0  0  0  0  0
    8.7771   -7.3281   26.7424 H   0  0  0  0  0  0  0  0  0  0  0  0
    8.5455   -0.8893   20.6488 H   0  0  0  0  0  0  0  0  0  0  0  0
  1  3  2  0  0  0  0
  1  5  1  0  0  0  0
  2  4  1  0  0  0  0
  2  5  2  0  0  0  0
  3  6  1  0  0  0  0
  4  6  2  0  0  0  0
  5 10  1  0  0  0  0
  6 12  1  0  0  0  0
  7  9  1  0  0  0  0
  7 12  1  0  0  0  0
  7 13  2  0  0  0  0
  8 10  1  0  0  0  0
  8 11  1  0  0  0  0
  8 14  2  0  0  0  0
 11 15  1  0  0  0  0
 11 16  1  0  0  0  0
 12 17  1  0  0  0  0
M  END
> <ref_mols>
x0087_0

> <original SMILES>
CC(=O)NC=1C=CC(CC(=O)N)=CC1

> <Chemgauss4>
-8.540783

> <ref_pdb>
x1385_0

$$$$
x0444
  -OEChem-05172015543D

 18 19  0     0  0  0  0  0  0999 V2000
    6.7485   -0.5102   19.8244 C   0  0  0  0  0  0  0  0  0  0  0  0
   11.1313   -1.1219   23.6953 C   0  0  0  0  0  0  0  0  0  0  0  0
   12.9070    0.4911   23.9819 C   0  0  0  0  0  0  0  0  0  0  0  0
   12.0068   -1.9640   23.0098 C   0  0  0  0  0  0  0  0  0  0  0  0
   13.7826   -0.3509   23.2964 C   0  0  0  0  0  0  0  0  0  0  0  0
    7.2802   -0.1005   21.0705 C   0  0  0  0  0  0  0  0  0  0  0  0
    7.5111    0.1089   18.8616 C   0  0  0  0  0  0  0  0  0  0  0  0
   11.5813    0.1057   24.1813 C   0  0  0  0  0  0  0  0  0  0  0  0
   13.3325   -1.5785   22.8104 C   0  0  0  0  0  0  0  0  0  0  0  0
    8.3300    0.7395   20.7802 C   0  0  0  0  0  0  0  0  0  0  0  0
    9.2711    1.4808   21.6588 C   0  0  0  0  0  0  0  0  0  0  0  0
   10.6460    1.0061   24.9150 C   0  0  0  0  0  0  0  0  0  0  0  0
    9.9006    1.9896   24.0042 C   0  0  0  0  0  0  0  0  0  0  0  0
    9.0861    1.3191   23.0265 N   0  0  0  0  0  0  0  0  0  0  0  0
   10.1297    2.1966   21.1498 O   0  0  0  0  0  0  0  0  0  0  0  0
    8.4774    0.8724   19.4359 O   0  0  0  0  0  0  0  0  0  0  0  0
   14.1741   -2.3883   22.1544 F   0  0  0  0  0  0  0  0  0  0  0  0
    8.3104    0.7564   23.3695 H   0  0  0  0  0  0  0  0  0  0  0  0
  1  6  1  0  0  0  0
  1  7  2  0  0  0  0
  2  4  2  0  0  0  0
  2  8  1  0  0  0  0
  3  5  1  0  0  0  0
  3  8  2  0  0  0  0
  4  9  1  0  0  0  0
  5  9  2  0  0  0  0
  6 10  2  0  0  0  0
  7 16  1  0  0  0  0
  8 12  1  0  0  0  0
  9 17  1  0  0  0  0
 10 11  1  0  0  0  0
 10 16  1  0  0  0  0
 11 14  1  0  0  0  0
 11 15  2  0  0  0  0
 12 13  1  0  0  0  0
 13 14  1  0  0  0  0
 14 18  1  0  0  0  0
M  END
> <ref_mols>
x0444_0

> <original SMILES>
FC=1C=CC(CCNC(=O)C2=CC=CO2)=CC1

> <Chemgauss4>
-8.540394

> <ref_pdb>
x0678_0

$$$$
x2581
  -OEChem-05172015543D

 23 25  0     0  0  0  0  0  0999 V2000
   11.6066   -1.6774   22.9799 C   0  0  0  0  0  0  0  0  0  0  0  0
   12.6188   -1.2295   22.1363 C   0  0  0  0  0  0  0  0  0  0  0  0
   10.9103   -0.7700   23.7787 C   0  0  0  0  0  0  0  0  0  0  0  0
   12.9387    0.1276   22.0884 C   0  0  0  0  0  0  0  0  0  0  0  0
   10.5284    1.5271   24.5404 C   0  0  0  0  0  0  0  0  0  0  0  0
   10.8483    2.8842   24.4925 C   0  0  0  0  0  0  0  0  0  0  0  0
    6.3578    7.4882   22.8186 C   0  0  0  0  0  0  0  0  0  0  0  0
   12.5569    2.4248   22.8501 C   0  0  0  0  0  0  0  0  0  0  0  0
    8.4950    7.1444   23.8669 C   0  0  0  0  0  0  0  0  0  0  0  0
    6.7100    6.5096   21.9030 C   0  0  0  0  0  0  0  0  0  0  0  0
   11.2189    0.5996   23.7433 C   0  0  0  0  0  0  0  0  0  0  0  0
   12.2483    1.0552   22.8855 C   0  0  0  0  0  0  0  0  0  0  0  0
   11.8606    3.3322   23.6490 C   0  0  0  0  0  0  0  0  0  0  0  0
    7.2729    7.8058   23.8161 C   0  0  0  0  0  0  0  0  0  0  0  0
    8.7514    6.1811   22.9046 C   0  0  0  0  0  0  0  0  0  0  0  0
   11.0207    5.7071   23.8896 C   0  0  0  0  0  0  0  0  0  0  0  0
    7.9592    9.0344   25.7332 C   0  0  0  0  0  0  0  0  0  0  0  0
   12.2010    4.7836   23.5989 C   0  0  0  0  0  0  0  0  0  0  0  0
    7.8874    5.8455   21.9204 N   0  0  0  0  0  0  0  0  0  0  0  0
    9.9978    5.5134   22.9647 N   0  0  0  0  0  0  0  0  0  0  0  0
   11.0332    6.4958   24.8292 O   0  0  0  0  0  0  0  0  0  0  0  0
    6.9734    8.7599   24.7385 O   0  0  0  0  0  0  0  0  0  0  0  0
   10.1661    4.8098   22.2487 H   0  0  0  0  0  0  0  0  0  0  0  0
  1  2  1  0  0  0  0
  1  3  2  0  0  0  0
  2  4  2  0  0  0  0
  3 11  1  0  0  0  0
  4 12  1  0  0  0  0
  5  6  2  0  0  0  0
  5 11  1  0  0  0  0
  6 13  1  0  0  0  0
  7 10  2  0  0  0  0
  7 14  1  0  0  0  0
  8 12  1  0  0  0  0
  8 13  2  0  0  0  0
  9 14  2  0  0  0  0
  9 15  1  0  0  0  0
 10 19  1  0  0  0  0
 11 12  2  0  0  0  0
 13 18  1  0  0  0  0
 14 22  1  0  0  0  0
 15 19  2  0  0  0  0
 15 20  1  0  0  0  0
 16 18  1  0  0  0  0
 16 20  1  0  0  0  0
 16 21  2  0  0  0  0
 17 22  1  0  0  0  0
 20 23  1  0  0  0  0
M  END
> <ref_mols>
x2581_0

> <original SMILES>
COC=1C=CN=C(NC(=O)CC=2C=CC=3C=CC=CC3C2)C1

> <Chemgauss4>
-8.538442

> <ref_pdb>
x0104_0

$$$$
x1235
  -OEChem-05172015543D

 18 19  0     0  0  0  0  0  0999 V2000
    4.5597    1.2664   18.6855 C   0  0  0  0  0  0  0  0  0  0  0  0
    4.4853    1.1909   20.0763 C   0  0  0  0  0  0  0  0  0  0  0  0
    5.7357    0.9028   18.0292 C   0  0  0  0  0  0  0  0  0  0  0  0
    5.5868    0.7519   20.8109 C   0  0  0  0  0  0  0  0  0  0  0  0
    6.8372    0.4639   18.7638 C   0  0  0  0  0  0  0  0  0  0  0  0
    6.7628    0.3884   20.1546 C   0  0  0  0  0  0  0  0  0  0  0  0
    7.8971   -0.0633   20.9107 C   0  0  0  0  0  0  0  0  0  0  0  0
    7.8626   -1.1738   21.7278 C   0  0  0  0  0  0  0  0  0  0  0  0
    9.9672   -0.0058   21.6328 C   0  0  0  0  0  0  0  0  0  0  0  0
    6.9247   -3.1943   22.8891 C   0  0  0  0  0  0  0  0  0  0  0  0
   11.3697    0.4222   21.8280 C   0  0  0  0  0  0  0  0  0  0  0  0
    5.6144   -4.9858   23.7396 C   0  0  0  0  0  0  0  0  0  0  0  0
    9.1030    0.6079   20.8552 N   0  0  0  0  0  0  0  0  0  0  0  0
    6.8800   -2.0731   22.0344 N   0  0  0  0  0  0  0  0  0  0  0  0
    7.8940   -3.5755   23.5338 O   0  0  0  0  0  0  0  0  0  0  0  0
    5.7086   -3.8239   22.9073 O   0  0  0  0  0  0  0  0  0  0  0  0
    9.3973   -1.3971   22.4601 S   0  0  0  0  0  0  0  0  0  0  0  0
    5.9663   -1.9064   21.5699 H   0  0  0  0  0  0  0  0  0  0  0  0
  1  2  1  0  0  0  0
  1  3  2  0  0  0  0
  2  4  2  0  0  0  0
  3  5  1  0  0  0  0
  4  6  1  0  0  0  0
  5  6  2  0  0  0  0
  6  7  1  0  0  0  0
  7  8  2  0  0  0  0
  7 13  1  0  0  0  0
  8 14  1  0  0  0  0
  8 17  1  0  0  0  0
  9 11  1  0  0  0  0
  9 13  2  0  0  0  0
  9 17  1  0  0  0  0
 10 14  1  0  0  0  0
 10 15  2  0  0  0  0
 10 16  1  0  0  0  0
 12 16  1  0  0  0  0
 14 18  1  0  0  0  0
M  END
> <ref_mols>
x1235_0

> <original SMILES>
COC(=O)NC=1SC(C)=NC1C=2C=CC=CC2

> <Chemgauss4>
-8.534267

> <ref_pdb>
x0434_0

$$$$
x2592
  -OEChem-05172015543D

 22 23  0     1  0  0  0  0  0999 V2000
    5.4046    1.3167   18.1125 C   0  0  0  0  0  0  0  0  0  0  0  0
    6.2807    0.2482   17.9219 C   0  0  0  0  0  0  0  0  0  0  0  0
    4.9856    1.6540   19.3995 C   0  0  0  0  0  0  0  0  0  0  0  0
    6.7378   -0.4830   19.0182 C   0  0  0  0  0  0  0  0  0  0  0  0
    5.4427    0.9228   20.4958 C   0  0  0  0  0  0  0  0  0  0  0  0
    6.3188   -0.1457   20.3052 C   0  0  0  0  0  0  0  0  0  0  0  0
   11.8736    0.5070   23.2215 C   0  0  0  0  0  0  0  0  0  0  0  0
    9.7585    1.3668   22.2684 C   0  0  0  0  0  0  0  0  0  0  0  0
    9.6208   -0.3695   24.0118 C   0  0  0  0  0  0  0  0  0  0  0  0
    8.7896    0.5898   21.3891 C   0  0  0  0  0  0  0  0  0  0  0  0
    8.6477   -1.1722   23.1590 C   0  0  0  0  0  0  0  0  0  0  0  0
    4.9816    1.3028   21.8647 C   0  0  0  0  0  0  0  0  0  0  0  0
   14.6303   -2.1707   23.2931 C   0  0  0  0  0  0  0  0  0  0  0  0
   13.8284   -0.7999   21.3615 C   0  0  0  0  0  0  0  0  0  0  0  0
    6.8233   -0.9473   21.4688 C   0  0  0  0  0  0  0  0  0  0  0  0
   12.5697   -0.7853   23.5666 C   0  0  2  0  0  0  0  0  0  0  0  0
   13.9359   -0.8690   22.8873 C   0  0  0  0  0  0  0  0  0  0  0  0
   10.4807    0.4721   23.1729 N   0  0  0  0  0  0  0  0  0  0  0  0
    7.8709   -0.2268   22.2702 N   0  3  0  0  0  0  0  0  0  0  0  0
   12.5491    1.5151   22.9995 O   0  0  0  0  0  0  0  0  0  0  0  0
   11.8018   -1.8397   23.2009 F   0  0  0  0  0  0  0  0  0  0  0  0
    7.3694    0.4297   22.8844 H   0  0  0  0  0  0  0  0  0  0  0  0
  1  2  1  0  0  0  0
  1  3  2  0  0  0  0
  2  4  2  0  0  0  0
  3  5  1  0  0  0  0
  4  6  1  0  0  0  0
  5  6  2  0  0  0  0
  5 12  1  0  0  0  0
  6 15  1  0  0  0  0
  7 16  1  0  0  0  0
  7 18  1  0  0  0  0
  7 20  2  0  0  0  0
  8 10  1  0  0  0  0
  8 18  1  0  0  0  0
  9 11  1  0  0  0  0
  9 18  1  0  0  0  0
 10 19  1  0  0  0  0
 11 19  1  0  0  0  0
 13 17  1  0  0  0  0
 14 17  1  0  0  0  0
 15 19  1  0  0  0  0
 16 17  1  0  0  0  0
 16 21  1  0  0  0  0
 19 22  1  0  0  0  0
M  CHG  1  19   1
M  END
> <ref_mols>
x2592_0

> <original SMILES>
CC(C)C(F)C(=O)N1CCN(CC=2C=CC=CC2C)CC1

> <Chemgauss4>
-8.529145

> <ref_pdb>
x1093_0

$$$$
x0681
  -OEChem-05172015543D

 18 19  0     0  0  0  0  0  0999 V2000
   14.0772   -1.2435   22.4329 C   0  0  0  0  0  0  0  0  0  0  0  0
   12.9284   -1.7988   23.0010 C   0  0  0  0  0  0  0  0  0  0  0  0
   14.2296    0.1445   22.3241 C   0  0  0  0  0  0  0  0  0  0  0  0
   11.8921   -0.9905   23.4801 C   0  0  0  0  0  0  0  0  0  0  0  0
   13.1983    0.9716   22.8001 C   0  0  0  0  0  0  0  0  0  0  0  0
   12.0656    0.3888   23.3613 C   0  0  0  0  0  0  0  0  0  0  0  0
   11.9357    2.5974   23.3676 C   0  0  0  0  0  0  0  0  0  0  0  0
   11.9340    5.1150   23.3079 C   0  0  0  0  0  0  0  0  0  0  0  0
    9.6621    6.1914   23.0156 C   0  0  0  0  0  0  0  0  0  0  0  0
    8.7731    2.0081   22.2338 C   0  0  0  0  0  0  0  0  0  0  0  0
   10.9991    6.2373   23.7334 C   0  0  0  0  0  0  0  0  0  0  0  0
    8.8787    0.9896   23.3569 C   0  0  0  0  0  0  0  0  0  0  0  0
    9.9774    1.3666   24.3481 C   0  0  0  0  0  0  0  0  0  0  0  0
   13.0998    2.3441   22.8129 N   0  0  0  0  0  0  0  0  0  0  0  0
   11.2751    1.4520   23.7154 N   0  0  0  0  0  0  0  0  0  0  0  0
   11.3933    3.8375   23.6007 N   0  0  0  0  0  0  0  0  0  0  0  0
   13.0175    5.3369   22.7774 O   0  0  0  0  0  0  0  0  0  0  0  0
   10.4607    3.8728   24.0516 H   0  0  0  0  0  0  0  0  0  0  0  0
  1  2  1  0  0  0  0
  1  3  2  0  0  0  0
  2  4  2  0  0  0  0
  3  5  1  0  0  0  0
  4  6  1  0  0  0  0
  5  6  2  0  0  0  0
  5 14  1  0  0  0  0
  6 15  1  0  0  0  0
  7 14  2  0  0  0  0
  7 15  1  0  0  0  0
  7 16  1  0  0  0  0
  8 11  1  0  0  0  0
  8 16  1  0  0  0  0
  8 17  2  0  0  0  0
  9 11  1  0  0  0  0
 10 12  1  0  0  0  0
 12 13  1  0  0  0  0
 13 15  1  0  0  0  0
 16 18  1  0  0  0  0
M  END
> <ref_mols>
x0681_0

> <original SMILES>
CCCN1C(NC(=O)CC)=NC=2C=CC=CC12

> <Chemgauss4>
-8.521357

> <ref_pdb>
x0195_0

$$$$
x0357
  -OEChem-05172015543D

 19 20  0     0  0  0  0  0  0999 V2000
    6.8360    0.6689   19.8397 C   0  0  0  0  0  0  0  0  0  0  0  0
    5.8944    1.3096   20.6635 C   0  0  0  0  0  0  0  0  0  0  0  0
    6.1768    0.5168   18.6487 C   0  0  0  0  0  0  0  0  0  0  0  0
   12.3431   -0.3958   23.7467 C   0  0  0  0  0  0  0  0  0  0  0  0
   11.8826   -0.5635   22.4948 C   0  0  0  0  0  0  0  0  0  0  0  0
    8.2259    0.2366   20.1370 C   0  0  0  0  0  0  0  0  0  0  0  0
   13.6590   -0.9325   24.2277 C   0  0  0  0  0  0  0  0  0  0  0  0
   12.6826   -1.2889   21.4413 C   0  0  0  0  0  0  0  0  0  0  0  0
   14.2756   -1.9590   23.2773 C   0  0  0  0  0  0  0  0  0  0  0  0
   14.1479   -1.5085   21.8270 C   0  0  0  0  0  0  0  0  0  0  0  0
    6.0498    1.7265   22.0671 C   0  0  0  0  0  0  0  0  0  0  0  0
    6.5379   -0.0652   17.3490 C   0  0  0  0  0  0  0  0  0  0  0  0
   10.5429   -0.0427   22.0657 C   0  0  0  0  0  0  0  0  0  0  0  0
    9.6551   -1.1795   21.5890 C   0  0  0  0  0  0  0  0  0  0  0  0
    4.7395    1.5374   20.0318 N   0  0  0  0  0  0  0  0  0  0  0  0
    8.3664   -0.6819   21.1654 N   0  0  0  0  0  0  0  0  0  0  0  0
    9.1543    0.7152   19.4909 O   0  0  0  0  0  0  0  0  0  0  0  0
    4.9246    1.0313   18.7508 O   0  0  0  0  0  0  0  0  0  0  0  0
    7.5567   -0.9854   21.6968 H   0  0  0  0  0  0  0  0  0  0  0  0
  1  2  1  0  0  0  0
  1  3  2  0  0  0  0
  1  6  1  0  0  0  0
  2 11  1  0  0  0  0
  2 15  2  0  0  0  0
  3 12  1  0  0  0  0
  3 18  1  0  0  0  0
  4  5  2  0  0  0  0
  4  7  1  0  0  0  0
  5  8  1  0  0  0  0
  5 13  1  0  0  0  0
  6 16  1  0  0  0  0
  6 17  2  0  0  0  0
  7  9  1  0  0  0  0
  8 10  1  0  0  0  0
  9 10  1  0  0  0  0
 13 14  1  0  0  0  0
 14 16  1  0  0  0  0
 15 18  1  0  0  0  0
 16 19  1  0  0  0  0
M  END
> <ref_mols>
x0357_0

> <original SMILES>
CC1=NOC(C)=C1C(=O)NCCC2=CCCCC2

> <Chemgauss4>
-8.515441

> <ref_pdb>
x0678_0

$$$$
x1075
  -OEChem-05172015543D

 19 20  0     0  0  0  0  0  0999 V2000
    6.8360    0.6689   19.8397 C   0  0  0  0  0  0  0  0  0  0  0  0
    5.8944    1.3096   20.6635 C   0  0  0  0  0  0  0  0  0  0  0  0
    6.1768    0.5168   18.6487 C   0  0  0  0  0  0  0  0  0  0  0  0
   12.3431   -0.3958   23.7467 C   0  0  0  0  0  0  0  0  0  0  0  0
   11.8826   -0.5635   22.4948 C   0  0  0  0  0  0  0  0  0  0  0  0
    8.2259    0.2366   20.1370 C   0  0  0  0  0  0  0  0  0  0  0  0
   13.6590   -0.9325   24.2277 C   0  0  0  0  0  0  0  0  0  0  0  0
   12.6826   -1.2889   21.4413 C   0  0  0  0  0  0  0  0  0  0  0  0
   14.2756   -1.9590   23.2773 C   0  0  0  0  0  0  0  0  0  0  0  0
   14.1479   -1.5085   21.8270 C   0  0  0  0  0  0  0  0  0  0  0  0
    6.0498    1.7265   22.0671 C   0  0  0  0  0  0  0  0  0  0  0  0
    6.5379   -0.0652   17.3490 C   0  0  0  0  0  0  0  0  0  0  0  0
   10.5429   -0.0427   22.0657 C   0  0  0  0  0  0  0  0  0  0  0  0
    9.6551   -1.1795   21.5890 C   0  0  0  0  0  0  0  0  0  0  0  0
    4.7395    1.5374   20.0318 N   0  0  0  0  0  0  0  0  0  0  0  0
    8.3664   -0.6819   21.1654 N   0  0  0  0  0  0  0  0  0  0  0  0
    9.1543    0.7152   19.4909 O   0  0  0  0  0  0  0  0  0  0  0  0
    4.9246    1.0313   18.7508 O   0  0  0  0  0  0  0  0  0  0  0  0
    7.5567   -0.9854   21.6968 H   0  0  0  0  0  0  0  0  0  0  0  0
  1  2  1  0  0  0  0
  1  3  2  0  0  0  0
  1  6  1  0  0  0  0
  2 11  1  0  0  0  0
  2 15  2  0  0  0  0
  3 12  1  0  0  0  0
  3 18  1  0  0  0  0
  4  5  2  0  0  0  0
  4  7  1  0  0  0  0
  5  8  1  0  0  0  0
  5 13  1  0  0  0  0
  6 16  1  0  0  0  0
  6 17  2  0  0  0  0
  7  9  1  0  0  0  0
  8 10  1  0  0  0  0
  9 10  1  0  0  0  0
 13 14  1  0  0  0  0
 14 16  1  0  0  0  0
 15 18  1  0  0  0  0
 16 19  1  0  0  0  0
M  END
> <ref_mols>
x1075_0

> <original SMILES>
CC1=NOC(C)=C1C(=O)NCCC2=CCCCC2

> <Chemgauss4>
-8.515441

> <ref_pdb>
x0678_0

$$$$
x0225
  -OEChem-05172015543D

 15 16  0     1  0  0  0  0  0999 V2000
   13.8539   -1.6803   22.5137 C   0  0  0  0  0  0  0  0  0  0  0  0
   12.4940   -1.8558   22.7717 C   0  0  0  0  0  0  0  0  0  0  0  0
   14.4046   -0.3986   22.5045 C   0  0  0  0  0  0  0  0  0  0  0  0
   11.6787   -0.7493   23.0103 C   0  0  0  0  0  0  0  0  0  0  0  0
   13.5925    0.7074   22.7566 C   0  0  0  0  0  0  0  0  0  0  0  0
   12.2261    0.5337   22.9876 C   0  0  0  0  0  0  0  0  0  0  0  0
   13.3675    2.9393   23.3557 C   0  0  0  0  0  0  0  0  0  0  0  0
   11.9451    2.8373   22.8211 C   0  0  2  0  0  0  0  0  0  0  0  0
   10.5829    6.3821   23.1406 C   0  0  0  0  0  0  0  0  0  0  0  0
   11.0622    3.9426   23.3816 C   0  0  0  0  0  0  0  0  0  0  0  0
   11.3433    5.1974   22.6513 N   0  3  0  0  0  0  0  0  0  0  0  0
   14.1947    1.9380   22.7545 O   0  0  0  0  0  0  0  0  0  0  0  0
   11.3714    1.5813   23.2088 O   0  0  0  0  0  0  0  0  0  0  0  0
   11.1412    5.0655   21.6480 H   0  0  0  0  0  0  0  0  0  0  0  0
   12.3524    5.4078   22.7019 H   0  0  0  0  0  0  0  0  0  0  0  0
  1  2  1  0  0  0  0
  1  3  2  0  0  0  0
  2  4  2  0  0  0  0
  3  5  1  0  0  0  0
  4  6  1  0  0  0  0
  5  6  2  0  0  0  0
  5 12  1  0  0  0  0
  6 13  1  0  0  0  0
  7  8  1  0  0  0  0
  7 12  1  0  0  0  0
  8 10  1  0  0  0  0
  8 13  1  0  0  0  0
  9 11  1  0  0  0  0
 10 11  1  0  0  0  0
 11 14  1  0  0  0  0
 11 15  1  0  0  0  0
M  CHG  1  11   1
M  END
> <ref_mols>
x0225_0

> <original SMILES>
CNCC1COC=2C=CC=CC2O1

> <Chemgauss4>
-8.505136

> <ref_pdb>
x0195_0

$$$$
x1242
  -OEChem-05172015543D

 15 16  0     1  0  0  0  0  0999 V2000
   13.8539   -1.6803   22.5137 C   0  0  0  0  0  0  0  0  0  0  0  0
   12.4940   -1.8558   22.7717 C   0  0  0  0  0  0  0  0  0  0  0  0
   14.4046   -0.3986   22.5045 C   0  0  0  0  0  0  0  0  0  0  0  0
   11.6787   -0.7493   23.0103 C   0  0  0  0  0  0  0  0  0  0  0  0
   13.5925    0.7074   22.7566 C   0  0  0  0  0  0  0  0  0  0  0  0
   12.2261    0.5337   22.9876 C   0  0  0  0  0  0  0  0  0  0  0  0
   13.3675    2.9393   23.3557 C   0  0  0  0  0  0  0  0  0  0  0  0
   11.9451    2.8373   22.8211 C   0  0  2  0  0  0  0  0  0  0  0  0
   10.5829    6.3821   23.1406 C   0  0  0  0  0  0  0  0  0  0  0  0
   11.0622    3.9426   23.3816 C   0  0  0  0  0  0  0  0  0  0  0  0
   11.3433    5.1974   22.6513 N   0  3  0  0  0  0  0  0  0  0  0  0
   14.1947    1.9380   22.7545 O   0  0  0  0  0  0  0  0  0  0  0  0
   11.3714    1.5813   23.2088 O   0  0  0  0  0  0  0  0  0  0  0  0
   11.1412    5.0655   21.6480 H   0  0  0  0  0  0  0  0  0  0  0  0
   12.3524    5.4078   22.7019 H   0  0  0  0  0  0  0  0  0  0  0  0
  1  2  1  0  0  0  0
  1  3  2  0  0  0  0
  2  4  2  0  0  0  0
  3  5  1  0  0  0  0
  4  6  1  0  0  0  0
  5  6  2  0  0  0  0
  5 12  1  0  0  0  0
  6 13  1  0  0  0  0
  7  8  1  0  0  0  0
  7 12  1  0  0  0  0
  8 10  1  0  0  0  0
  8 13  1  0  0  0  0
  9 11  1  0  0  0  0
 10 11  1  0  0  0  0
 11 14  1  0  0  0  0
 11 15  1  0  0  0  0
M  CHG  1  11   1
M  END
> <ref_mols>
x1242_0

> <original SMILES>
CNCC1COC=2C=CC=CC2O1

> <Chemgauss4>
-8.505136

> <ref_pdb>
x0195_0

$$$$
x0925
  -OEChem-05172015543D

 17 19  0     1  0  0  0  0  0999 V2000
   13.7462    3.7463   22.1772 C   0  0  0  0  0  0  0  0  0  0  0  0
   13.7850    2.3628   22.3102 C   0  0  0  0  0  0  0  0  0  0  0  0
   12.7223    4.4686   22.7799 C   0  0  0  0  0  0  0  0  0  0  0  0
   12.7842    1.7540   23.0502 C   0  0  0  0  0  0  0  0  0  0  0  0
   11.7689    3.7656   23.4987 C   0  0  0  0  0  0  0  0  0  0  0  0
   12.9855   -1.7546   21.8344 C   0  0  0  0  0  0  0  0  0  0  0  0
   13.9900   -0.4329   23.8624 C   0  0  0  0  0  0  0  0  0  0  0  0
   11.7305   -1.8766   22.6952 C   0  0  0  0  0  0  0  0  0  0  0  0
   13.7483   -0.5945   22.3896 C   0  0  2  0  0  0  0  0  0  0  0  0
   12.8062    0.2528   23.2069 C   0  0  2  0  0  0  0  0  0  0  0  0
   10.7441   -0.4155   24.5100 C   0  0  0  0  0  0  0  0  0  0  0  0
    9.8899    6.7030   24.5046 C   0  0  0  0  0  0  0  0  0  0  0  0
   10.6551    4.5081   24.1586 C   0  0  0  0  0  0  0  0  0  0  0  0
   11.7735    2.4222   23.6500 N   0  0  0  0  0  0  0  0  0  0  0  0
   11.4669   -0.4649   23.2045 N   0  3  2  0  0  0  0  0  0  0  0  0
   10.5915    5.8276   23.6325 O   0  0  0  0  0  0  0  0  0  0  0  0
   10.8842    0.0096   22.4984 H   0  0  0  0  0  0  0  0  0  0  0  0
  1  2  2  0  0  0  0
  1  3  1  0  0  0  0
  2  4  1  0  0  0  0
  3  5  2  0  0  0  0
  4 10  1  0  0  0  0
  4 14  2  0  0  0  0
  5 13  1  0  0  0  0
  5 14  1  0  0  0  0
  6  8  1  0  0  0  0
  6  9  1  0  0  0  0
  7  9  1  0  0  0  0
  7 10  1  0  0  0  0
  8 15  1  0  0  0  0
  9 10  1  0  0  0  0
 10 15  1  0  0  0  0
 11 15  1  0  0  0  0
 12 16  1  0  0  0  0
 13 16  1  0  0  0  0
 15 17  1  0  0  0  0
M  CHG  1  15   1
M  END
> <ref_mols>
x0925_0

> <original SMILES>
COCC1=NC(C23N(C)CCC2C3)=CC=C1

> <Chemgauss4>
-8.504783

> <ref_pdb>
x0195_0

$$$$
x0092
  -OEChem-05172015543D

 18 19  0     1  0  0  0  0  0999 V2000
   11.9804    1.1143   23.1766 C   0  0  0  0  0  0  0  0  0  0  0  0
   10.0384    1.8429   24.4154 C   0  0  0  0  0  0  0  0  0  0  0  0
   12.4299    2.4328   23.1056 C   0  0  0  0  0  0  0  0  0  0  0  0
   10.4879    3.1615   24.3445 C   0  0  0  0  0  0  0  0  0  0  0  0
   10.6022   -1.4756   22.9231 C   0  0  0  0  0  0  0  0  0  0  0  0
    9.5602   -1.0103   24.9613 C   0  0  0  0  0  0  0  0  0  0  0  0
    9.4524   -3.0862   24.0416 C   0  0  0  0  0  0  0  0  0  0  0  0
   10.7846    0.8193   23.8314 C   0  0  0  0  0  0  0  0  0  0  0  0
   10.3183   -0.5483   23.9048 C   0  0  0  0  0  0  0  0  0  0  0  0
   11.6837    3.4564   23.6896 C   0  0  0  0  0  0  0  0  0  0  0  0
   13.4777    5.0200   22.8355 C   0  0  0  0  0  0  0  0  0  0  0  0
   12.1642    4.8662   23.6136 C   0  0  1  0  0  0  0  0  0  0  0  0
   10.1838   -2.7578   22.9596 N   0  0  0  0  0  0  0  0  0  0  0  0
    9.1086   -2.2777   25.0622 N   0  0  0  0  0  0  0  0  0  0  0  0
   11.1660    5.8046   22.9951 N   0  3  0  0  0  0  0  0  0  0  0  0
   11.5706    6.2493   22.1727 H   0  0  0  0  0  0  0  0  0  0  0  0
   10.9045    6.5246   23.6670 H   0  0  0  0  0  0  0  0  0  0  0  0
   10.3314    5.2903   22.7178 H   0  0  0  0  0  0  0  0  0  0  0  0
  1  3  2  0  0  0  0
  1  8  1  0  0  0  0
  2  4  1  0  0  0  0
  2  8  2  0  0  0  0
  3 10  1  0  0  0  0
  4 10  2  0  0  0  0
  5  9  1  0  0  0  0
  5 13  2  0  0  0  0
  6  9  2  0  0  0  0
  6 14  1  0  0  0  0
  7 13  1  0  0  0  0
  7 14  2  0  0  0  0
  8  9  1  0  0  0  0
 10 12  1  0  0  0  0
 11 12  1  0  0  0  0
 12 15  1  0  0  0  0
 15 16  1  0  0  0  0
 15 17  1  0  0  0  0
 15 18  1  0  0  0  0
M  CHG  1  15   1
M  END
> <ref_mols>
x0092_0

> <original SMILES>
CC(N)C=1C=CC(=CC1)C=2C=NC=NC2

> <Chemgauss4>
-8.504209

> <ref_pdb>
x0104_0

$$$$
x1190
  -OEChem-05172015543D

 18 19  0     1  0  0  0  0  0999 V2000
   11.9804    1.1143   23.1766 C   0  0  0  0  0  0  0  0  0  0  0  0
   10.0384    1.8429   24.4154 C   0  0  0  0  0  0  0  0  0  0  0  0
   12.4299    2.4328   23.1056 C   0  0  0  0  0  0  0  0  0  0  0  0
   10.4879    3.1615   24.3445 C   0  0  0  0  0  0  0  0  0  0  0  0
   10.6022   -1.4756   22.9231 C   0  0  0  0  0  0  0  0  0  0  0  0
    9.5602   -1.0103   24.9613 C   0  0  0  0  0  0  0  0  0  0  0  0
    9.4524   -3.0862   24.0416 C   0  0  0  0  0  0  0  0  0  0  0  0
   10.7846    0.8193   23.8314 C   0  0  0  0  0  0  0  0  0  0  0  0
   10.3183   -0.5483   23.9048 C   0  0  0  0  0  0  0  0  0  0  0  0
   11.6837    3.4564   23.6896 C   0  0  0  0  0  0  0  0  0  0  0  0
   13.4777    5.0200   22.8355 C   0  0  0  0  0  0  0  0  0  0  0  0
   12.1642    4.8662   23.6136 C   0  0  1  0  0  0  0  0  0  0  0  0
   10.1838   -2.7578   22.9596 N   0  0  0  0  0  0  0  0  0  0  0  0
    9.1086   -2.2777   25.0622 N   0  0  0  0  0  0  0  0  0  0  0  0
   11.1660    5.8046   22.9951 N   0  3  0  0  0  0  0  0  0  0  0  0
   11.5706    6.2493   22.1727 H   0  0  0  0  0  0  0  0  0  0  0  0
   10.9045    6.5246   23.6670 H   0  0  0  0  0  0  0  0  0  0  0  0
   10.3314    5.2903   22.7178 H   0  0  0  0  0  0  0  0  0  0  0  0
  1  3  2  0  0  0  0
  1  8  1  0  0  0  0
  2  4  1  0  0  0  0
  2  8  2  0  0  0  0
  3 10  1  0  0  0  0
  4 10  2  0  0  0  0
  5  9  1  0  0  0  0
  5 13  2  0  0  0  0
  6  9  2  0  0  0  0
  6 14  1  0  0  0  0
  7 13  1  0  0  0  0
  7 14  2  0  0  0  0
  8  9  1  0  0  0  0
 10 12  1  0  0  0  0
 11 12  1  0  0  0  0
 12 15  1  0  0  0  0
 15 16  1  0  0  0  0
 15 17  1  0  0  0  0
 15 18  1  0  0  0  0
M  CHG  1  15   1
M  END
> <ref_mols>
x1190_0

> <original SMILES>
CC(N)C=1C=CC(=CC1)C=2C=NC=NC2

> <Chemgauss4>
-8.504209

> <ref_pdb>
x0104_0

$$$$
x0067
  -OEChem-05172015543D

 16 17  0     1  0  0  0  0  0999 V2000
   12.3845   -1.5209   22.9329 C   0  0  0  0  0  0  0  0  0  0  0  0
   11.5706   -2.5149   23.4473 C   0  0  0  0  0  0  0  0  0  0  0  0
   12.3881   -0.2956   23.5685 C   0  0  0  0  0  0  0  0  0  0  0  0
   10.8144   -2.2177   24.5632 C   0  0  0  0  0  0  0  0  0  0  0  0
    7.7189   -3.9248   25.7515 C   0  0  0  0  0  0  0  0  0  0  0  0
    8.2935   -5.2290   26.2927 C   0  0  0  0  0  0  0  0  0  0  0  0
    8.7559   -2.8031   25.7619 C   0  0  0  0  0  0  0  0  0  0  0  0
   10.5910   -4.4883   25.5281 C   0  0  0  0  0  0  0  0  0  0  0  0
    9.5449   -5.6022   25.5088 C   0  0  1  0  0  0  0  0  0  0  0  0
   10.5584   -6.6737   27.5247 C   0  0  0  0  0  0  0  0  0  0  0  0
   11.6376   -0.0326   24.6592 N   0  0  0  0  0  0  0  0  0  0  0  0
   10.8379   -1.0096   25.1649 N   0  0  0  0  0  0  0  0  0  0  0  0
    9.9902   -3.2238   25.0832 N   0  0  2  0  0  0  0  0  0  0  0  0
   10.1382   -6.8284   26.1071 N   0  3  0  0  0  0  0  0  0  0  0  0
    9.4593   -7.5986   26.0385 H   0  0  0  0  0  0  0  0  0  0  0  0
   10.9493   -7.1186   25.5442 H   0  0  0  0  0  0  0  0  0  0  0  0
  1  2  2  0  0  0  0
  1  3  1  0  0  0  0
  2  4  1  0  0  0  0
  3 11  2  0  0  0  0
  4 12  2  0  0  0  0
  4 13  1  0  0  0  0
  5  6  1  0  0  0  0
  5  7  1  0  0  0  0
  6  9  1  0  0  0  0
  7 13  1  0  0  0  0
  8  9  1  0  0  0  0
  8 13  1  0  0  0  0
  9 14  1  0  0  0  0
 10 14  1  0  0  0  0
 11 12  1  0  0  0  0
 14 15  1  0  0  0  0
 14 16  1  0  0  0  0
M  CHG  1  14   1
M  END
> <ref_mols>
x0067_0

> <original SMILES>
CNC1CCCN(C1)C=2C=CC=NN2

> <Chemgauss4>
-8.504120

> <ref_pdb>
x0387_0

$$$$
x0271
  -OEChem-05172015543D

 17 18  0     0  0  0  0  0  0999 V2000
   13.3471   -2.0291   22.5923 C   0  0  0  0  0  0  0  0  0  0  0  0
   14.2624   -1.1716   21.9482 C   0  0  0  0  0  0  0  0  0  0  0  0
   12.2977   -1.5147   23.3591 C   0  0  0  0  0  0  0  0  0  0  0  0
   14.1460    0.2170   22.0581 C   0  0  0  0  0  0  0  0  0  0  0  0
   12.2023   -0.1416   23.4533 C   0  0  0  0  0  0  0  0  0  0  0  0
   13.1026    0.7022   22.8194 C   0  0  0  0  0  0  0  0  0  0  0  0
   11.2330    0.6862   24.1698 C   0  0  0  0  0  0  0  0  0  0  0  0
   12.7216    2.0817   23.1216 C   0  0  0  0  0  0  0  0  0  0  0  0
   10.6558    5.8777   25.3706 C   0  0  0  0  0  0  0  0  0  0  0  0
   10.1834    6.6210   23.0414 C   0  0  0  0  0  0  0  0  0  0  0  0
   10.8955    3.1420   24.4487 C   0  0  0  0  0  0  0  0  0  0  0  0
   10.9743    4.2992   23.4709 C   0  0  0  0  0  0  0  0  0  0  0  0
   11.6035    1.9917   23.9231 N   0  0  0  0  0  0  0  0  0  0  0  0
   10.2019    5.4522   23.9958 N   0  3  0  0  0  0  0  0  0  0  0  0
   10.3116    0.2433   24.8301 O   0  0  0  0  0  0  0  0  0  0  0  0
   13.3207    3.0583   22.7112 O   0  0  0  0  0  0  0  0  0  0  0  0
    9.2173    5.1523   24.0997 H   0  0  0  0  0  0  0  0  0  0  0  0
  1  2  1  0  0  0  0
  1  3  2  0  0  0  0
  2  4  2  0  0  0  0
  3  5  1  0  0  0  0
  4  6  1  0  0  0  0
  5  6  2  0  0  0  0
  5  7  1  0  0  0  0
  6  8  1  0  0  0  0
  7 13  1  0  0  0  0
  7 15  2  0  0  0  0
  8 13  1  0  0  0  0
  8 16  2  0  0  0  0
  9 14  1  0  0  0  0
 10 14  1  0  0  0  0
 11 12  1  0  0  0  0
 11 13  1  0  0  0  0
 12 14  1  0  0  0  0
 14 17  1  0  0  0  0
M  CHG  1  14   1
M  END
> <ref_mols>
x0271_0

> <original SMILES>
CN(C)CCN1C(=O)C=2C=CC=CC2C1=O

> <Chemgauss4>
-8.498603

> <ref_pdb>
x0195_0

$$$$
x1179
  -OEChem-05172015543D

 18 19  0     1  0  0  0  0  0999 V2000
   11.9608    0.7911   23.8292 C   0  0  0  0  0  0  0  0  0  0  0  0
   13.0440   -0.0771   23.7517 C   0  0  0  0  0  0  0  0  0  0  0  0
   10.8119    0.5280   23.0915 C   0  0  0  0  0  0  0  0  0  0  0  0
   12.9291   -1.1856   22.9283 C   0  0  0  0  0  0  0  0  0  0  0  0
   10.7970   -0.6074   22.2976 C   0  0  0  0  0  0  0  0  0  0  0  0
    8.7244    0.0602   21.0394 C   0  0  0  0  0  0  0  0  0  0  0  0
    5.9611   -0.3029   18.6195 C   0  0  0  0  0  0  0  0  0  0  0  0
    7.4423   -0.1095   18.8848 C   0  0  0  0  0  0  0  0  0  0  0  0
    5.3211    0.1332   19.9194 C   0  0  0  0  0  0  0  0  0  0  0  0
    7.6152   -0.6143   20.3084 C   0  0  2  0  0  0  0  0  0  0  0  0
   14.0721   -2.1390   22.8209 C   0  0  0  0  0  0  0  0  0  0  0  0
   11.8296   -1.4741   22.1967 N   0  0  0  0  0  0  0  0  0  0  0  0
    9.6225   -0.8672   21.5523 N   0  0  0  0  0  0  0  0  0  0  0  0
    6.2927   -0.3175   20.9704 N   0  3  0  0  0  0  0  0  0  0  0  0
    8.7665    1.2830   21.1274 O   0  0  0  0  0  0  0  0  0  0  0  0
    9.4251   -1.8505   21.3785 H   0  0  0  0  0  0  0  0  0  0  0  0
    6.3990    0.4174   21.6835 H   0  0  0  0  0  0  0  0  0  0  0  0
    5.9330   -1.1463   21.4633 H   0  0  0  0  0  0  0  0  0  0  0  0
  1  2  2  0  0  0  0
  1  3  1  0  0  0  0
  2  4  1  0  0  0  0
  3  5  2  0  0  0  0
  4 11  1  0  0  0  0
  4 12  2  0  0  0  0
  5 12  1  0  0  0  0
  5 13  1  0  0  0  0
  6 10  1  0  0  0  0
  6 13  1  0  0  0  0
  6 15  2  0  0  0  0
  7  8  1  0  0  0  0
  7  9  1  0  0  0  0
  8 10  1  0  0  0  0
  9 14  1  0  0  0  0
 10 14  1  0  0  0  0
 13 16  1  0  0  0  0
 14 17  1  0  0  0  0
 14 18  1  0  0  0  0
M  CHG  1  14   1
M  END
> <ref_mols>
x1179_0

> <original SMILES>
CC=1C=CC=C(NC(=O)[C@@H]2CCCN2)N1

> <Chemgauss4>
-8.494068

> <ref_pdb>
x1093_0

$$$$
x0420
  -OEChem-05172015543D

 18 19  0     1  0  0  0  0  0999 V2000
   11.9608    0.7911   23.8292 C   0  0  0  0  0  0  0  0  0  0  0  0
   13.0440   -0.0771   23.7517 C   0  0  0  0  0  0  0  0  0  0  0  0
   10.8119    0.5280   23.0915 C   0  0  0  0  0  0  0  0  0  0  0  0
   12.9291   -1.1856   22.9283 C   0  0  0  0  0  0  0  0  0  0  0  0
   10.7970   -0.6074   22.2976 C   0  0  0  0  0  0  0  0  0  0  0  0
    8.7244    0.0602   21.0394 C   0  0  0  0  0  0  0  0  0  0  0  0
    5.9611   -0.3029   18.6195 C   0  0  0  0  0  0  0  0  0  0  0  0
    7.4423   -0.1095   18.8848 C   0  0  0  0  0  0  0  0  0  0  0  0
    5.3211    0.1332   19.9194 C   0  0  0  0  0  0  0  0  0  0  0  0
    7.6152   -0.6143   20.3084 C   0  0  2  0  0  0  0  0  0  0  0  0
   14.0721   -2.1390   22.8209 C   0  0  0  0  0  0  0  0  0  0  0  0
   11.8296   -1.4741   22.1967 N   0  0  0  0  0  0  0  0  0  0  0  0
    9.6225   -0.8672   21.5523 N   0  0  0  0  0  0  0  0  0  0  0  0
    6.2927   -0.3175   20.9704 N   0  3  0  0  0  0  0  0  0  0  0  0
    8.7665    1.2830   21.1274 O   0  0  0  0  0  0  0  0  0  0  0  0
    9.4251   -1.8505   21.3785 H   0  0  0  0  0  0  0  0  0  0  0  0
    6.3990    0.4174   21.6835 H   0  0  0  0  0  0  0  0  0  0  0  0
    5.9330   -1.1463   21.4633 H   0  0  0  0  0  0  0  0  0  0  0  0
  1  2  2  0  0  0  0
  1  3  1  0  0  0  0
  2  4  1  0  0  0  0
  3  5  2  0  0  0  0
  4 11  1  0  0  0  0
  4 12  2  0  0  0  0
  5 12  1  0  0  0  0
  5 13  1  0  0  0  0
  6 10  1  0  0  0  0
  6 13  1  0  0  0  0
  6 15  2  0  0  0  0
  7  8  1  0  0  0  0
  7  9  1  0  0  0  0
  8 10  1  0  0  0  0
  9 14  1  0  0  0  0
 10 14  1  0  0  0  0
 13 16  1  0  0  0  0
 14 17  1  0  0  0  0
 14 18  1  0  0  0  0
M  CHG  1  14   1
M  END
> <ref_mols>
x0420_0

> <original SMILES>
CC=1C=CC=C(NC(=O)[C@@H]2CCCN2)N1

> <Chemgauss4>
-8.494068

> <ref_pdb>
x1093_0

$$$$
x0068
  -OEChem-05172015543D

 19 20  0     1  0  0  0  0  0999 V2000
   10.7385   -4.3974   24.9050 C   0  0  0  0  0  0  0  0  0  0  0  0
    9.8241   -2.7791   23.3615 C   0  0  0  0  0  0  0  0  0  0  0  0
   11.7768   -3.5180   25.2119 C   0  0  0  0  0  0  0  0  0  0  0  0
   10.8624   -1.8997   23.6685 C   0  0  0  0  0  0  0  0  0  0  0  0
    9.7621   -4.0280   23.9797 C   0  0  0  0  0  0  0  0  0  0  0  0
   11.8387   -2.2691   24.5937 C   0  0  0  0  0  0  0  0  0  0  0  0
    8.8299   -6.2173   23.1209 C   0  0  0  0  0  0  0  0  0  0  0  0
    6.0905   -5.0984   21.8539 C   0  0  0  0  0  0  0  0  0  0  0  0
    7.4461   -6.8208   23.0244 C   0  0  0  0  0  0  0  0  0  0  0  0
    7.3138   -4.6161   23.9655 C   0  0  0  0  0  0  0  0  0  0  0  0
    6.5070   -5.6397   23.1899 C   0  0  1  0  0  0  0  0  0  0  0  0
   13.8161   -1.8526   25.8476 C   0  0  0  0  0  0  0  0  0  0  0  0
    8.6992   -4.9281   23.6654 N   0  0  0  0  0  0  0  0  0  0  0  0
    5.3804   -5.9940   21.0897 N   0  0  0  0  0  0  0  0  0  0  0  0
    9.8348   -6.8375   22.8025 O   0  0  0  0  0  0  0  0  0  0  0  0
    6.3557   -3.9514   21.5028 O   0  0  0  0  0  0  0  0  0  0  0  0
   12.8518   -1.4110   24.8932 O   0  0  0  0  0  0  0  0  0  0  0  0
    5.1963   -6.9177   21.4672 H   0  0  0  0  0  0  0  0  0  0  0  0
    5.0330   -5.7683   20.1633 H   0  0  0  0  0  0  0  0  0  0  0  0
  1  3  2  0  0  0  0
  1  5  1  0  0  0  0
  2  4  1  0  0  0  0
  2  5  2  0  0  0  0
  3  6  1  0  0  0  0
  4  6  2  0  0  0  0
  5 13  1  0  0  0  0
  6 17  1  0  0  0  0
  7  9  1  0  0  0  0
  7 13  1  0  0  0  0
  7 15  2  0  0  0  0
  8 11  1  0  0  0  0
  8 14  1  0  0  0  0
  8 16  2  0  0  0  0
  9 11  1  0  0  0  0
 10 11  1  0  0  0  0
 10 13  1  0  0  0  0
 12 17  1  0  0  0  0
 14 18  1  0  0  0  0
 14 19  1  0  0  0  0
M  END
> <ref_mols>
x0068_0

> <original SMILES>
COC=1C=CC(=CC1)N2CC(CC2=O)C(=O)N

> <Chemgauss4>
-8.492237

> <ref_pdb>
x0749_0

$$$$
x1153
  -OEChem-05172015543D

 19 20  0     1  0  0  0  0  0999 V2000
   10.7385   -4.3974   24.9050 C   0  0  0  0  0  0  0  0  0  0  0  0
    9.8241   -2.7791   23.3615 C   0  0  0  0  0  0  0  0  0  0  0  0
   11.7768   -3.5180   25.2119 C   0  0  0  0  0  0  0  0  0  0  0  0
   10.8624   -1.8997   23.6685 C   0  0  0  0  0  0  0  0  0  0  0  0
    9.7621   -4.0280   23.9797 C   0  0  0  0  0  0  0  0  0  0  0  0
   11.8387   -2.2691   24.5937 C   0  0  0  0  0  0  0  0  0  0  0  0
    8.8299   -6.2173   23.1209 C   0  0  0  0  0  0  0  0  0  0  0  0
    6.0905   -5.0984   21.8539 C   0  0  0  0  0  0  0  0  0  0  0  0
    7.4461   -6.8208   23.0244 C   0  0  0  0  0  0  0  0  0  0  0  0
    7.3138   -4.6161   23.9655 C   0  0  0  0  0  0  0  0  0  0  0  0
    6.5070   -5.6397   23.1899 C   0  0  1  0  0  0  0  0  0  0  0  0
   13.8161   -1.8526   25.8476 C   0  0  0  0  0  0  0  0  0  0  0  0
    8.6992   -4.9281   23.6654 N   0  0  0  0  0  0  0  0  0  0  0  0
    5.3804   -5.9940   21.0897 N   0  0  0  0  0  0  0  0  0  0  0  0
    9.8348   -6.8375   22.8025 O   0  0  0  0  0  0  0  0  0  0  0  0
    6.3557   -3.9514   21.5028 O   0  0  0  0  0  0  0  0  0  0  0  0
   12.8518   -1.4110   24.8932 O   0  0  0  0  0  0  0  0  0  0  0  0
    5.1963   -6.9177   21.4672 H   0  0  0  0  0  0  0  0  0  0  0  0
    5.0330   -5.7683   20.1633 H   0  0  0  0  0  0  0  0  0  0  0  0
  1  3  2  0  0  0  0
  1  5  1  0  0  0  0
  2  4  1  0  0  0  0
  2  5  2  0  0  0  0
  3  6  1  0  0  0  0
  4  6  2  0  0  0  0
  5 13  1  0  0  0  0
  6 17  1  0  0  0  0
  7  9  1  0  0  0  0
  7 13  1  0  0  0  0
  7 15  2  0  0  0  0
  8 11  1  0  0  0  0
  8 14  1  0  0  0  0
  8 16  2  0  0  0  0
  9 11  1  0  0  0  0
 10 11  1  0  0  0  0
 10 13  1  0  0  0  0
 12 17  1  0  0  0  0
 14 18  1  0  0  0  0
 14 19  1  0  0  0  0
M  END
> <ref_mols>
x1153_0

> <original SMILES>
COC=1C=CC(=CC1)N2CC(CC2=O)C(=O)N

> <Chemgauss4>
-8.492237

> <ref_pdb>
x0749_0

$$$$
x0591
  -OEChem-05172015543D

 17 18  0     0  0  0  0  0  0999 V2000
   12.8761   -1.6428   25.4480 C   0  0  0  0  0  0  0  0  0  0  0  0
   11.0177   -1.7699   23.8634 C   0  0  0  0  0  0  0  0  0  0  0  0
    9.9197   -2.4477   23.3336 C   0  0  0  0  0  0  0  0  0  0  0  0
   11.3862   -3.5819   25.4182 C   0  0  0  0  0  0  0  0  0  0  0  0
   11.7510   -2.3370   24.9056 C   0  0  0  0  0  0  0  0  0  0  0  0
    9.5550   -3.6926   23.8462 C   0  0  0  0  0  0  0  0  0  0  0  0
   10.2882   -4.2598   24.8885 C   0  0  0  0  0  0  0  0  0  0  0  0
    8.0944   -4.1751   21.9028 C   0  0  0  0  0  0  0  0  0  0  0  0
    7.3408   -4.6846   24.2251 C   0  0  0  0  0  0  0  0  0  0  0  0
    7.2774   -5.3521   21.3883 C   0  0  0  0  0  0  0  0  0  0  0  0
    6.5314   -5.8604   23.6979 C   0  0  0  0  0  0  0  0  0  0  0  0
   13.7898   -1.0790   25.8883 N   0  0  0  0  0  0  0  0  0  0  0  0
    8.4515   -4.3696   23.3137 N   0  0  0  0  0  0  0  0  0  0  0  0
    6.1148   -5.5762   22.2944 N   0  3  0  0  0  0  0  0  0  0  0  0
    9.9455   -5.4551   25.3895 F   0  0  0  0  0  0  0  0  0  0  0  0
    5.4929   -4.7558   22.2733 H   0  0  0  0  0  0  0  0  0  0  0  0
    5.5531   -6.3625   21.9400 H   0  0  0  0  0  0  0  0  0  0  0  0
  1  5  1  0  0  0  0
  1 12  3  0  0  0  0
  2  3  2  0  0  0  0
  2  5  1  0  0  0  0
  3  6  1  0  0  0  0
  4  5  2  0  0  0  0
  4  7  1  0  0  0  0
  6  7  2  0  0  0  0
  6 13  1  0  0  0  0
  7 15  1  0  0  0  0
  8 10  1  0  0  0  0
  8 13  1  0  0  0  0
  9 11  1  0  0  0  0
  9 13  1  0  0  0  0
 10 14  1  0  0  0  0
 11 14  1  0  0  0  0
 14 16  1  0  0  0  0
 14 17  1  0  0  0  0
M  CHG  1  14   1
M  END
> <ref_mols>
x0591_0

> <original SMILES>
FC=1C=C(C#N)C=CC1N2CCNCC2

> <Chemgauss4>
-8.490660

> <ref_pdb>
x0749_0

$$$$
x0151
  -OEChem-05172015543D

 16 17  0     0  0  0  0  0  0999 V2000
   13.7941   -2.4918   23.9065 C   0  0  0  0  0  0  0  0  0  0  0  0
   13.2841   -1.7302   24.9579 C   0  0  0  0  0  0  0  0  0  0  0  0
   13.9299   -1.9273   22.6382 C   0  0  0  0  0  0  0  0  0  0  0  0
   12.9096   -0.4042   24.7410 C   0  0  0  0  0  0  0  0  0  0  0  0
   13.5555   -0.6012   22.4213 C   0  0  0  0  0  0  0  0  0  0  0  0
   11.6530    2.2403   23.9208 C   0  0  0  0  0  0  0  0  0  0  0  0
   13.0453    0.1603   23.4727 C   0  0  0  0  0  0  0  0  0  0  0  0
   12.6597    1.5255   23.2490 C   0  0  0  0  0  0  0  0  0  0  0  0
   11.6898    3.4796   23.3386 C   0  0  0  0  0  0  0  0  0  0  0  0
   10.9286    4.7190   23.5383 C   0  0  0  0  0  0  0  0  0  0  0  0
   13.2739    2.2649   22.3212 N   0  0  0  0  0  0  0  0  0  0  0  0
    9.6976    4.8272   22.6909 N   0  3  0  0  0  0  0  0  0  0  0  0
   12.6531    3.5068   22.3823 O   0  0  0  0  0  0  0  0  0  0  0  0
    9.3673    5.7924   22.6715 H   0  0  0  0  0  0  0  0  0  0  0  0
    8.9576    4.2347   23.0687 H   0  0  0  0  0  0  0  0  0  0  0  0
    9.9005    4.5304   21.7359 H   0  0  0  0  0  0  0  0  0  0  0  0
  1  2  1  0  0  0  0
  1  3  2  0  0  0  0
  2  4  2  0  0  0  0
  3  5  1  0  0  0  0
  4  7  1  0  0  0  0
  5  7  2  0  0  0  0
  6  8  1  0  0  0  0
  6  9  2  0  0  0  0
  7  8  1  0  0  0  0
  8 11  2  0  0  0  0
  9 10  1  0  0  0  0
  9 13  1  0  0  0  0
 10 12  1  0  0  0  0
 11 13  1  0  0  0  0
 12 14  1  0  0  0  0
 12 15  1  0  0  0  0
 12 16  1  0  0  0  0
M  CHG  1  12   1
M  END
> <ref_mols>
x0151_0

> <original SMILES>
NCC1=CC(=NO1)C=2C=CC=CC2

> <Chemgauss4>
-8.486247

> <ref_pdb>
x0161_0

$$$$
x2750
  -OEChem-05172015543D

 20 21  0     0  0  0  0  0  0999 V2000
   13.6836   -0.9029   25.1734 C   0  0  0  0  0  0  0  0  0  0  0  0
   13.7686   -2.0934   25.8953 C   0  0  0  0  0  0  0  0  0  0  0  0
   12.6595   -0.7227   24.2436 C   0  0  0  0  0  0  0  0  0  0  0  0
   12.8297   -3.1037   25.6874 C   0  0  0  0  0  0  0  0  0  0  0  0
   11.7205   -1.7330   24.0357 C   0  0  0  0  0  0  0  0  0  0  0  0
   11.8056   -2.9235   24.7576 C   0  0  0  0  0  0  0  0  0  0  0  0
    9.7785   -3.9360   23.6667 C   0  0  0  0  0  0  0  0  0  0  0  0
    4.8675   -5.1818   23.0424 C   0  0  0  0  0  0  0  0  0  0  0  0
    7.9383   -5.1314   24.8396 C   0  0  0  0  0  0  0  0  0  0  0  0
    8.4002   -5.5809   22.3804 C   0  0  0  0  0  0  0  0  0  0  0  0
    6.7270   -4.3021   24.4168 C   0  0  0  0  0  0  0  0  0  0  0  0
    7.1623   -4.7522   22.0347 C   0  0  0  0  0  0  0  0  0  0  0  0
    9.0030   -5.2190   23.7416 C   0  0  0  0  0  0  0  0  0  0  0  0
    4.2508   -5.7707   24.2861 C   0  0  0  0  0  0  0  0  0  0  0  0
    6.1971   -4.7730   23.1379 N   0  0  0  0  0  0  0  0  0  0  0  0
   10.8531   -3.9486   24.5469 N   0  0  0  0  0  0  0  0  0  0  0  0
    9.4413   -3.0424   22.8969 O   0  0  0  0  0  0  0  0  0  0  0  0
    4.1858   -5.0870   22.0185 O   0  0  0  0  0  0  0  0  0  0  0  0
    5.1880   -7.2070   24.6815 Cl  0  0  0  0  0  0  0  0  0  0  0  0
   10.9820   -4.7861   25.1109 H   0  0  0  0  0  0  0  0  0  0  0  0
  1  2  1  0  0  0  0
  1  3  2  0  0  0  0
  2  4  2  0  0  0  0
  3  5  1  0  0  0  0
  4  6  1  0  0  0  0
  5  6  2  0  0  0  0
  6 16  1  0  0  0  0
  7 13  1  0  0  0  0
  7 16  1  0  0  0  0
  7 17  2  0  0  0  0
  8 14  1  0  0  0  0
  8 15  1  0  0  0  0
  8 18  2  0  0  0  0
  9 11  1  0  0  0  0
  9 13  1  0  0  0  0
 10 12  1  0  0  0  0
 10 13  1  0  0  0  0
 11 15  1  0  0  0  0
 12 15  1  0  0  0  0
 14 19  1  0  0  0  0
 16 20  1  0  0  0  0
M  END
> <ref_mols>
x2750_0

> <original SMILES>
O=C(C1CCN(C(CCl)=O)CC1)NC2=CC=CC=C2

> <Chemgauss4>
-8.482620

> <ref_pdb>
x0749_0

> <CYS145-warhead dist minimum (A)>
8.919408

> <CYS145-warhead dist mean (A)>
9.969764

> <CYS145-warhead dist stddev (A)>
0.43230453

$$$$
x0814
  -OEChem-05172015543D

 20 21  0     0  0  0  0  0  0999 V2000
   13.6836   -0.9029   25.1734 C   0  0  0  0  0  0  0  0  0  0  0  0
   13.7686   -2.0934   25.8953 C   0  0  0  0  0  0  0  0  0  0  0  0
   12.6595   -0.7227   24.2436 C   0  0  0  0  0  0  0  0  0  0  0  0
   12.8297   -3.1037   25.6874 C   0  0  0  0  0  0  0  0  0  0  0  0
   11.7205   -1.7330   24.0357 C   0  0  0  0  0  0  0  0  0  0  0  0
   11.8056   -2.9235   24.7576 C   0  0  0  0  0  0  0  0  0  0  0  0
    9.7785   -3.9360   23.6667 C   0  0  0  0  0  0  0  0  0  0  0  0
    4.8675   -5.1818   23.0424 C   0  0  0  0  0  0  0  0  0  0  0  0
    7.9383   -5.1314   24.8396 C   0  0  0  0  0  0  0  0  0  0  0  0
    8.4002   -5.5809   22.3804 C   0  0  0  0  0  0  0  0  0  0  0  0
    6.7270   -4.3021   24.4168 C   0  0  0  0  0  0  0  0  0  0  0  0
    7.1623   -4.7522   22.0347 C   0  0  0  0  0  0  0  0  0  0  0  0
    9.0030   -5.2190   23.7416 C   0  0  0  0  0  0  0  0  0  0  0  0
    4.2508   -5.7707   24.2861 C   0  0  0  0  0  0  0  0  0  0  0  0
    6.1971   -4.7730   23.1379 N   0  0  0  0  0  0  0  0  0  0  0  0
   10.8531   -3.9486   24.5469 N   0  0  0  0  0  0  0  0  0  0  0  0
    9.4413   -3.0424   22.8969 O   0  0  0  0  0  0  0  0  0  0  0  0
    4.1858   -5.0870   22.0185 O   0  0  0  0  0  0  0  0  0  0  0  0
    5.1880   -7.2070   24.6815 Cl  0  0  0  0  0  0  0  0  0  0  0  0
   10.9820   -4.7861   25.1109 H   0  0  0  0  0  0  0  0  0  0  0  0
  1  2  1  0  0  0  0
  1  3  2  0  0  0  0
  2  4  2  0  0  0  0
  3  5  1  0  0  0  0
  4  6  1  0  0  0  0
  5  6  2  0  0  0  0
  6 16  1  0  0  0  0
  7 13  1  0  0  0  0
  7 16  1  0  0  0  0
  7 17  2  0  0  0  0
  8 14  1  0  0  0  0
  8 15  1  0  0  0  0
  8 18  2  0  0  0  0
  9 11  1  0  0  0  0
  9 13  1  0  0  0  0
 10 12  1  0  0  0  0
 10 13  1  0  0  0  0
 11 15  1  0  0  0  0
 12 15  1  0  0  0  0
 14 19  1  0  0  0  0
 16 20  1  0  0  0  0
M  END
> <ref_mols>
x0814_0

> <original SMILES>
ClCC(=O)N1CCC(CC1)C(=O)Nc2ccccc2

> <Chemgauss4>
-8.482620

> <ref_pdb>
x0749_0

> <CYS145-warhead dist minimum (A)>
7.832339

> <CYS145-warhead dist mean (A)>
9.071359

> <CYS145-warhead dist stddev (A)>
0.35569856

$$$$
x0760
  -OEChem-05172015543D

 20 21  0     0  0  0  0  0  0999 V2000
   13.6836   -0.9029   25.1734 C   0  0  0  0  0  0  0  0  0  0  0  0
   13.7686   -2.0934   25.8953 C   0  0  0  0  0  0  0  0  0  0  0  0
   12.6595   -0.7227   24.2436 C   0  0  0  0  0  0  0  0  0  0  0  0
   12.8297   -3.1037   25.6874 C   0  0  0  0  0  0  0  0  0  0  0  0
   11.7205   -1.7330   24.0357 C   0  0  0  0  0  0  0  0  0  0  0  0
   11.8056   -2.9235   24.7576 C   0  0  0  0  0  0  0  0  0  0  0  0
    9.7785   -3.9360   23.6667 C   0  0  0  0  0  0  0  0  0  0  0  0
    4.8675   -5.1818   23.0424 C   0  0  0  0  0  0  0  0  0  0  0  0
    7.9383   -5.1314   24.8396 C   0  0  0  0  0  0  0  0  0  0  0  0
    8.4002   -5.5809   22.3804 C   0  0  0  0  0  0  0  0  0  0  0  0
    6.7270   -4.3021   24.4168 C   0  0  0  0  0  0  0  0  0  0  0  0
    7.1623   -4.7522   22.0347 C   0  0  0  0  0  0  0  0  0  0  0  0
    9.0030   -5.2190   23.7416 C   0  0  0  0  0  0  0  0  0  0  0  0
    4.2508   -5.7707   24.2861 C   0  0  0  0  0  0  0  0  0  0  0  0
    6.1971   -4.7730   23.1379 N   0  0  0  0  0  0  0  0  0  0  0  0
   10.8531   -3.9486   24.5469 N   0  0  0  0  0  0  0  0  0  0  0  0
    9.4413   -3.0424   22.8969 O   0  0  0  0  0  0  0  0  0  0  0  0
    4.1858   -5.0870   22.0185 O   0  0  0  0  0  0  0  0  0  0  0  0
    5.1880   -7.2070   24.6815 Cl  0  0  0  0  0  0  0  0  0  0  0  0
   10.9820   -4.7861   25.1109 H   0  0  0  0  0  0  0  0  0  0  0  0
  1  2  1  0  0  0  0
  1  3  2  0  0  0  0
  2  4  2  0  0  0  0
  3  5  1  0  0  0  0
  4  6  1  0  0  0  0
  5  6  2  0  0  0  0
  6 16  1  0  0  0  0
  7 13  1  0  0  0  0
  7 16  1  0  0  0  0
  7 17  2  0  0  0  0
  8 14  1  0  0  0  0
  8 15  1  0  0  0  0
  8 18  2  0  0  0  0
  9 11  1  0  0  0  0
  9 13  1  0  0  0  0
 10 12  1  0  0  0  0
 10 13  1  0  0  0  0
 11 15  1  0  0  0  0
 12 15  1  0  0  0  0
 14 19  1  0  0  0  0
 16 20  1  0  0  0  0
M  END
> <ref_mols>
x0760_0

> <original SMILES>
ClCC(=O)N1CCC(CC1)C(=O)Nc2ccccc2

> <Chemgauss4>
-8.482620

> <ref_pdb>
x0749_0

> <CYS145-warhead dist minimum (A)>
5.9418683

> <CYS145-warhead dist mean (A)>
9.351915

> <CYS145-warhead dist stddev (A)>
0.9861564

$$$$
x2050
  -OEChem-05172015543D

 20 21  0     0  0  0  0  0  0999 V2000
   13.6836   -0.9029   25.1734 C   0  0  0  0  0  0  0  0  0  0  0  0
   13.7686   -2.0934   25.8953 C   0  0  0  0  0  0  0  0  0  0  0  0
   12.6595   -0.7227   24.2436 C   0  0  0  0  0  0  0  0  0  0  0  0
   12.8297   -3.1037   25.6874 C   0  0  0  0  0  0  0  0  0  0  0  0
   11.7205   -1.7330   24.0357 C   0  0  0  0  0  0  0  0  0  0  0  0
   11.8056   -2.9235   24.7576 C   0  0  0  0  0  0  0  0  0  0  0  0
    9.7785   -3.9360   23.6667 C   0  0  0  0  0  0  0  0  0  0  0  0
    4.8675   -5.1818   23.0424 C   0  0  0  0  0  0  0  0  0  0  0  0
    7.9383   -5.1314   24.8396 C   0  0  0  0  0  0  0  0  0  0  0  0
    8.4002   -5.5809   22.3804 C   0  0  0  0  0  0  0  0  0  0  0  0
    6.7270   -4.3021   24.4168 C   0  0  0  0  0  0  0  0  0  0  0  0
    7.1623   -4.7522   22.0347 C   0  0  0  0  0  0  0  0  0  0  0  0
    9.0030   -5.2190   23.7416 C   0  0  0  0  0  0  0  0  0  0  0  0
    4.2508   -5.7707   24.2861 C   0  0  0  0  0  0  0  0  0  0  0  0
    6.1971   -4.7730   23.1379 N   0  0  0  0  0  0  0  0  0  0  0  0
   10.8531   -3.9486   24.5469 N   0  0  0  0  0  0  0  0  0  0  0  0
    9.4413   -3.0424   22.8969 O   0  0  0  0  0  0  0  0  0  0  0  0
    4.1858   -5.0870   22.0185 O   0  0  0  0  0  0  0  0  0  0  0  0
    5.1880   -7.2070   24.6815 Cl  0  0  0  0  0  0  0  0  0  0  0  0
   10.9820   -4.7861   25.1109 H   0  0  0  0  0  0  0  0  0  0  0  0
  1  2  1  0  0  0  0
  1  3  2  0  0  0  0
  2  4  2  0  0  0  0
  3  5  1  0  0  0  0
  4  6  1  0  0  0  0
  5  6  2  0  0  0  0
  6 16  1  0  0  0  0
  7 13  1  0  0  0  0
  7 16  1  0  0  0  0
  7 17  2  0  0  0  0
  8 14  1  0  0  0  0
  8 15  1  0  0  0  0
  8 18  2  0  0  0  0
  9 11  1  0  0  0  0
  9 13  1  0  0  0  0
 10 12  1  0  0  0  0
 10 13  1  0  0  0  0
 11 15  1  0  0  0  0
 12 15  1  0  0  0  0
 14 19  1  0  0  0  0
 16 20  1  0  0  0  0
M  END
> <ref_mols>
x2050_0

> <original SMILES>
O=C(C1CCN(C(CCl)=O)CC1)NC2=CC=CC=C2

> <Chemgauss4>
-8.482620

> <ref_pdb>
x0749_0

$$$$
x1456
  -OEChem-05172015543D

 20 21  0     0  0  0  0  0  0999 V2000
   13.6836   -0.9029   25.1734 C   0  0  0  0  0  0  0  0  0  0  0  0
   13.7686   -2.0934   25.8953 C   0  0  0  0  0  0  0  0  0  0  0  0
   12.6595   -0.7227   24.2436 C   0  0  0  0  0  0  0  0  0  0  0  0
   12.8297   -3.1037   25.6874 C   0  0  0  0  0  0  0  0  0  0  0  0
   11.7205   -1.7330   24.0357 C   0  0  0  0  0  0  0  0  0  0  0  0
   11.8056   -2.9235   24.7576 C   0  0  0  0  0  0  0  0  0  0  0  0
    9.7785   -3.9360   23.6667 C   0  0  0  0  0  0  0  0  0  0  0  0
    4.8675   -5.1818   23.0424 C   0  0  0  0  0  0  0  0  0  0  0  0
    7.9383   -5.1314   24.8396 C   0  0  0  0  0  0  0  0  0  0  0  0
    8.4002   -5.5809   22.3804 C   0  0  0  0  0  0  0  0  0  0  0  0
    6.7270   -4.3021   24.4168 C   0  0  0  0  0  0  0  0  0  0  0  0
    7.1623   -4.7522   22.0347 C   0  0  0  0  0  0  0  0  0  0  0  0
    9.0030   -5.2190   23.7416 C   0  0  0  0  0  0  0  0  0  0  0  0
    4.2508   -5.7707   24.2861 C   0  0  0  0  0  0  0  0  0  0  0  0
    6.1971   -4.7730   23.1379 N   0  0  0  0  0  0  0  0  0  0  0  0
   10.8531   -3.9486   24.5469 N   0  0  0  0  0  0  0  0  0  0  0  0
    9.4413   -3.0424   22.8969 O   0  0  0  0  0  0  0  0  0  0  0  0
    4.1858   -5.0870   22.0185 O   0  0  0  0  0  0  0  0  0  0  0  0
    5.1880   -7.2070   24.6815 Cl  0  0  0  0  0  0  0  0  0  0  0  0
   10.9820   -4.7861   25.1109 H   0  0  0  0  0  0  0  0  0  0  0  0
  1  2  1  0  0  0  0
  1  3  2  0  0  0  0
  2  4  2  0  0  0  0
  3  5  1  0  0  0  0
  4  6  1  0  0  0  0
  5  6  2  0  0  0  0
  6 16  1  0  0  0  0
  7 13  1  0  0  0  0
  7 16  1  0  0  0  0
  7 17  2  0  0  0  0
  8 14  1  0  0  0  0
  8 15  1  0  0  0  0
  8 18  2  0  0  0  0
  9 11  1  0  0  0  0
  9 13  1  0  0  0  0
 10 12  1  0  0  0  0
 10 13  1  0  0  0  0
 11 15  1  0  0  0  0
 12 15  1  0  0  0  0
 14 19  1  0  0  0  0
 16 20  1  0  0  0  0
M  END
> <ref_mols>
x1456_0

> <original SMILES>
ClCC(=O)N1CCC(CC1)C(=O)Nc2ccccc2

> <Chemgauss4>
-8.482620

> <ref_pdb>
x0749_0

$$$$
x2725
  -OEChem-05172015543D

 20 21  0     0  0  0  0  0  0999 V2000
   13.6836   -0.9029   25.1734 C   0  0  0  0  0  0  0  0  0  0  0  0
   13.7686   -2.0934   25.8953 C   0  0  0  0  0  0  0  0  0  0  0  0
   12.6595   -0.7227   24.2436 C   0  0  0  0  0  0  0  0  0  0  0  0
   12.8297   -3.1037   25.6874 C   0  0  0  0  0  0  0  0  0  0  0  0
   11.7205   -1.7330   24.0357 C   0  0  0  0  0  0  0  0  0  0  0  0
   11.8056   -2.9235   24.7576 C   0  0  0  0  0  0  0  0  0  0  0  0
    9.7785   -3.9360   23.6667 C   0  0  0  0  0  0  0  0  0  0  0  0
    4.8675   -5.1818   23.0424 C   0  0  0  0  0  0  0  0  0  0  0  0
    7.9383   -5.1314   24.8396 C   0  0  0  0  0  0  0  0  0  0  0  0
    8.4002   -5.5809   22.3804 C   0  0  0  0  0  0  0  0  0  0  0  0
    6.7270   -4.3021   24.4168 C   0  0  0  0  0  0  0  0  0  0  0  0
    7.1623   -4.7522   22.0347 C   0  0  0  0  0  0  0  0  0  0  0  0
    9.0030   -5.2190   23.7416 C   0  0  0  0  0  0  0  0  0  0  0  0
    4.2508   -5.7707   24.2861 C   0  0  0  0  0  0  0  0  0  0  0  0
    6.1971   -4.7730   23.1379 N   0  0  0  0  0  0  0  0  0  0  0  0
   10.8531   -3.9486   24.5469 N   0  0  0  0  0  0  0  0  0  0  0  0
    9.4413   -3.0424   22.8969 O   0  0  0  0  0  0  0  0  0  0  0  0
    4.1858   -5.0870   22.0185 O   0  0  0  0  0  0  0  0  0  0  0  0
    5.1880   -7.2070   24.6815 Cl  0  0  0  0  0  0  0  0  0  0  0  0
   10.9820   -4.7861   25.1109 H   0  0  0  0  0  0  0  0  0  0  0  0
  1  2  1  0  0  0  0
  1  3  2  0  0  0  0
  2  4  2  0  0  0  0
  3  5  1  0  0  0  0
  4  6  1  0  0  0  0
  5  6  2  0  0  0  0
  6 16  1  0  0  0  0
  7 13  1  0  0  0  0
  7 16  1  0  0  0  0
  7 17  2  0  0  0  0
  8 14  1  0  0  0  0
  8 15  1  0  0  0  0
  8 18  2  0  0  0  0
  9 11  1  0  0  0  0
  9 13  1  0  0  0  0
 10 12  1  0  0  0  0
 10 13  1  0  0  0  0
 11 15  1  0  0  0  0
 12 15  1  0  0  0  0
 14 19  1  0  0  0  0
 16 20  1  0  0  0  0
M  END
> <ref_mols>
x2725_0

> <original SMILES>
O=C(C1CCN(C(CCl)=O)CC1)NC2=CC=CC=C2

> <Chemgauss4>
-8.482620

> <ref_pdb>
x0749_0

> <CYS145-warhead dist minimum (A)>
7.8869715

> <CYS145-warhead dist mean (A)>
8.691767

> <CYS145-warhead dist stddev (A)>
0.31283057

$$$$
x1357
  -OEChem-05172015543D

 20 21  0     0  0  0  0  0  0999 V2000
   13.6836   -0.9029   25.1734 C   0  0  0  0  0  0  0  0  0  0  0  0
   13.7686   -2.0934   25.8953 C   0  0  0  0  0  0  0  0  0  0  0  0
   12.6595   -0.7227   24.2436 C   0  0  0  0  0  0  0  0  0  0  0  0
   12.8297   -3.1037   25.6874 C   0  0  0  0  0  0  0  0  0  0  0  0
   11.7205   -1.7330   24.0357 C   0  0  0  0  0  0  0  0  0  0  0  0
   11.8056   -2.9235   24.7576 C   0  0  0  0  0  0  0  0  0  0  0  0
    9.7785   -3.9360   23.6667 C   0  0  0  0  0  0  0  0  0  0  0  0
    4.8675   -5.1818   23.0424 C   0  0  0  0  0  0  0  0  0  0  0  0
    7.9383   -5.1314   24.8396 C   0  0  0  0  0  0  0  0  0  0  0  0
    8.4002   -5.5809   22.3804 C   0  0  0  0  0  0  0  0  0  0  0  0
    6.7270   -4.3021   24.4168 C   0  0  0  0  0  0  0  0  0  0  0  0
    7.1623   -4.7522   22.0347 C   0  0  0  0  0  0  0  0  0  0  0  0
    9.0030   -5.2190   23.7416 C   0  0  0  0  0  0  0  0  0  0  0  0
    4.2508   -5.7707   24.2861 C   0  0  0  0  0  0  0  0  0  0  0  0
    6.1971   -4.7730   23.1379 N   0  0  0  0  0  0  0  0  0  0  0  0
   10.8531   -3.9486   24.5469 N   0  0  0  0  0  0  0  0  0  0  0  0
    9.4413   -3.0424   22.8969 O   0  0  0  0  0  0  0  0  0  0  0  0
    4.1858   -5.0870   22.0185 O   0  0  0  0  0  0  0  0  0  0  0  0
    5.1880   -7.2070   24.6815 Cl  0  0  0  0  0  0  0  0  0  0  0  0
   10.9820   -4.7861   25.1109 H   0  0  0  0  0  0  0  0  0  0  0  0
  1  2  1  0  0  0  0
  1  3  2  0  0  0  0
  2  4  2  0  0  0  0
  3  5  1  0  0  0  0
  4  6  1  0  0  0  0
  5  6  2  0  0  0  0
  6 16  1  0  0  0  0
  7 13  1  0  0  0  0
  7 16  1  0  0  0  0
  7 17  2  0  0  0  0
  8 14  1  0  0  0  0
  8 15  1  0  0  0  0
  8 18  2  0  0  0  0
  9 11  1  0  0  0  0
  9 13  1  0  0  0  0
 10 12  1  0  0  0  0
 10 13  1  0  0  0  0
 11 15  1  0  0  0  0
 12 15  1  0  0  0  0
 14 19  1  0  0  0  0
 16 20  1  0  0  0  0
M  END
> <ref_mols>
x1357_0

> <original SMILES>
ClCC(=O)N1CCC(CC1)C(=O)Nc2ccccc2

> <Chemgauss4>
-8.482620

> <ref_pdb>
x0749_0

> <CYS145-warhead dist minimum (A)>
3.8386807

> <CYS145-warhead dist mean (A)>
7.1035113

> <CYS145-warhead dist stddev (A)>
0.6113229

$$$$
x0740
  -OEChem-05172015543D

 20 21  0     0  0  0  0  0  0999 V2000
   13.6836   -0.9029   25.1734 C   0  0  0  0  0  0  0  0  0  0  0  0
   13.7686   -2.0934   25.8953 C   0  0  0  0  0  0  0  0  0  0  0  0
   12.6595   -0.7227   24.2436 C   0  0  0  0  0  0  0  0  0  0  0  0
   12.8297   -3.1037   25.6874 C   0  0  0  0  0  0  0  0  0  0  0  0
   11.7205   -1.7330   24.0357 C   0  0  0  0  0  0  0  0  0  0  0  0
   11.8056   -2.9235   24.7576 C   0  0  0  0  0  0  0  0  0  0  0  0
    9.7785   -3.9360   23.6667 C   0  0  0  0  0  0  0  0  0  0  0  0
    4.8675   -5.1818   23.0424 C   0  0  0  0  0  0  0  0  0  0  0  0
    7.9383   -5.1314   24.8396 C   0  0  0  0  0  0  0  0  0  0  0  0
    8.4002   -5.5809   22.3804 C   0  0  0  0  0  0  0  0  0  0  0  0
    6.7270   -4.3021   24.4168 C   0  0  0  0  0  0  0  0  0  0  0  0
    7.1623   -4.7522   22.0347 C   0  0  0  0  0  0  0  0  0  0  0  0
    9.0030   -5.2190   23.7416 C   0  0  0  0  0  0  0  0  0  0  0  0
    4.2508   -5.7707   24.2861 C   0  0  0  0  0  0  0  0  0  0  0  0
    6.1971   -4.7730   23.1379 N   0  0  0  0  0  0  0  0  0  0  0  0
   10.8531   -3.9486   24.5469 N   0  0  0  0  0  0  0  0  0  0  0  0
    9.4413   -3.0424   22.8969 O   0  0  0  0  0  0  0  0  0  0  0  0
    4.1858   -5.0870   22.0185 O   0  0  0  0  0  0  0  0  0  0  0  0
    5.1880   -7.2070   24.6815 Cl  0  0  0  0  0  0  0  0  0  0  0  0
   10.9820   -4.7861   25.1109 H   0  0  0  0  0  0  0  0  0  0  0  0
  1  2  1  0  0  0  0
  1  3  2  0  0  0  0
  2  4  2  0  0  0  0
  3  5  1  0  0  0  0
  4  6  1  0  0  0  0
  5  6  2  0  0  0  0
  6 16  1  0  0  0  0
  7 13  1  0  0  0  0
  7 16  1  0  0  0  0
  7 17  2  0  0  0  0
  8 14  1  0  0  0  0
  8 15  1  0  0  0  0
  8 18  2  0  0  0  0
  9 11  1  0  0  0  0
  9 13  1  0  0  0  0
 10 12  1  0  0  0  0
 10 13  1  0  0  0  0
 11 15  1  0  0  0  0
 12 15  1  0  0  0  0
 14 19  1  0  0  0  0
 16 20  1  0  0  0  0
M  END
> <ref_mols>
x0740_0

> <original SMILES>
ClCC(=O)N1CCC(CC1)C(=O)Nc2ccccc2

> <Chemgauss4>
-8.482620

> <ref_pdb>
x0749_0

> <CYS145-warhead dist minimum (A)>
4.5109205

> <CYS145-warhead dist mean (A)>
7.280983

> <CYS145-warhead dist stddev (A)>
0.5371844

$$$$
x0686
  -OEChem-05172015543D

 20 21  0     0  0  0  0  0  0999 V2000
   13.6836   -0.9029   25.1734 C   0  0  0  0  0  0  0  0  0  0  0  0
   13.7686   -2.0934   25.8953 C   0  0  0  0  0  0  0  0  0  0  0  0
   12.6595   -0.7227   24.2436 C   0  0  0  0  0  0  0  0  0  0  0  0
   12.8297   -3.1037   25.6874 C   0  0  0  0  0  0  0  0  0  0  0  0
   11.7205   -1.7330   24.0357 C   0  0  0  0  0  0  0  0  0  0  0  0
   11.8056   -2.9235   24.7576 C   0  0  0  0  0  0  0  0  0  0  0  0
    9.7785   -3.9360   23.6667 C   0  0  0  0  0  0  0  0  0  0  0  0
    4.8675   -5.1818   23.0424 C   0  0  0  0  0  0  0  0  0  0  0  0
    7.9383   -5.1314   24.8396 C   0  0  0  0  0  0  0  0  0  0  0  0
    8.4002   -5.5809   22.3804 C   0  0  0  0  0  0  0  0  0  0  0  0
    6.7270   -4.3021   24.4168 C   0  0  0  0  0  0  0  0  0  0  0  0
    7.1623   -4.7522   22.0347 C   0  0  0  0  0  0  0  0  0  0  0  0
    9.0030   -5.2190   23.7416 C   0  0  0  0  0  0  0  0  0  0  0  0
    4.2508   -5.7707   24.2861 C   0  0  0  0  0  0  0  0  0  0  0  0
    6.1971   -4.7730   23.1379 N   0  0  0  0  0  0  0  0  0  0  0  0
   10.8531   -3.9486   24.5469 N   0  0  0  0  0  0  0  0  0  0  0  0
    9.4413   -3.0424   22.8969 O   0  0  0  0  0  0  0  0  0  0  0  0
    4.1858   -5.0870   22.0185 O   0  0  0  0  0  0  0  0  0  0  0  0
    5.1880   -7.2070   24.6815 Cl  0  0  0  0  0  0  0  0  0  0  0  0
   10.9820   -4.7861   25.1109 H   0  0  0  0  0  0  0  0  0  0  0  0
  1  2  1  0  0  0  0
  1  3  2  0  0  0  0
  2  4  2  0  0  0  0
  3  5  1  0  0  0  0
  4  6  1  0  0  0  0
  5  6  2  0  0  0  0
  6 16  1  0  0  0  0
  7 13  1  0  0  0  0
  7 16  1  0  0  0  0
  7 17  2  0  0  0  0
  8 14  1  0  0  0  0
  8 15  1  0  0  0  0
  8 18  2  0  0  0  0
  9 11  1  0  0  0  0
  9 13  1  0  0  0  0
 10 12  1  0  0  0  0
 10 13  1  0  0  0  0
 11 15  1  0  0  0  0
 12 15  1  0  0  0  0
 14 19  1  0  0  0  0
 16 20  1  0  0  0  0
M  END
> <ref_mols>
x0686_0

> <original SMILES>
ClCC(=O)N1CCC(CC1)C(=O)Nc2ccccc2

> <Chemgauss4>
-8.482620

> <ref_pdb>
x0749_0

$$$$
x2768
  -OEChem-05172015543D

 20 21  0     0  0  0  0  0  0999 V2000
   13.6836   -0.9029   25.1734 C   0  0  0  0  0  0  0  0  0  0  0  0
   13.7686   -2.0934   25.8953 C   0  0  0  0  0  0  0  0  0  0  0  0
   12.6595   -0.7227   24.2436 C   0  0  0  0  0  0  0  0  0  0  0  0
   12.8297   -3.1037   25.6874 C   0  0  0  0  0  0  0  0  0  0  0  0
   11.7205   -1.7330   24.0357 C   0  0  0  0  0  0  0  0  0  0  0  0
   11.8056   -2.9235   24.7576 C   0  0  0  0  0  0  0  0  0  0  0  0
    9.7785   -3.9360   23.6667 C   0  0  0  0  0  0  0  0  0  0  0  0
    4.8675   -5.1818   23.0424 C   0  0  0  0  0  0  0  0  0  0  0  0
    7.9383   -5.1314   24.8396 C   0  0  0  0  0  0  0  0  0  0  0  0
    8.4002   -5.5809   22.3804 C   0  0  0  0  0  0  0  0  0  0  0  0
    6.7270   -4.3021   24.4168 C   0  0  0  0  0  0  0  0  0  0  0  0
    7.1623   -4.7522   22.0347 C   0  0  0  0  0  0  0  0  0  0  0  0
    9.0030   -5.2190   23.7416 C   0  0  0  0  0  0  0  0  0  0  0  0
    4.2508   -5.7707   24.2861 C   0  0  0  0  0  0  0  0  0  0  0  0
    6.1971   -4.7730   23.1379 N   0  0  0  0  0  0  0  0  0  0  0  0
   10.8531   -3.9486   24.5469 N   0  0  0  0  0  0  0  0  0  0  0  0
    9.4413   -3.0424   22.8969 O   0  0  0  0  0  0  0  0  0  0  0  0
    4.1858   -5.0870   22.0185 O   0  0  0  0  0  0  0  0  0  0  0  0
    5.1880   -7.2070   24.6815 Cl  0  0  0  0  0  0  0  0  0  0  0  0
   10.9820   -4.7861   25.1109 H   0  0  0  0  0  0  0  0  0  0  0  0
  1  2  1  0  0  0  0
  1  3  2  0  0  0  0
  2  4  2  0  0  0  0
  3  5  1  0  0  0  0
  4  6  1  0  0  0  0
  5  6  2  0  0  0  0
  6 16  1  0  0  0  0
  7 13  1  0  0  0  0
  7 16  1  0  0  0  0
  7 17  2  0  0  0  0
  8 14  1  0  0  0  0
  8 15  1  0  0  0  0
  8 18  2  0  0  0  0
  9 11  1  0  0  0  0
  9 13  1  0  0  0  0
 10 12  1  0  0  0  0
 10 13  1  0  0  0  0
 11 15  1  0  0  0  0
 12 15  1  0  0  0  0
 14 19  1  0  0  0  0
 16 20  1  0  0  0  0
M  END
> <ref_mols>
x2768_0

> <original SMILES>
O=C(C1CCN(C(CCl)=O)CC1)NC2=CC=CC=C2

> <Chemgauss4>
-8.482620

> <ref_pdb>
x0749_0

> <CYS145-warhead dist minimum (A)>
11.871162

> <CYS145-warhead dist mean (A)>
13.608398

> <CYS145-warhead dist stddev (A)>
0.5734795

$$$$
x2855
  -OEChem-05172015543D

 23 25  0     1  0  0  0  0  0999 V2000
   12.5073    2.7419   22.9701 C   0  0  0  0  0  0  0  0  0  0  0  0
   11.0290    1.7773   24.6197 C   0  0  0  0  0  0  0  0  0  0  0  0
   11.8777    3.9765   23.1278 C   0  0  0  0  0  0  0  0  0  0  0  0
   10.3995    3.0119   24.7775 C   0  0  0  0  0  0  0  0  0  0  0  0
   12.0829    1.6422   23.7160 C   0  0  0  0  0  0  0  0  0  0  0  0
   10.8238    4.1116   24.0315 C   0  0  0  0  0  0  0  0  0  0  0  0
    8.6859   -3.9723   24.3313 C   0  0  0  0  0  0  0  0  0  0  0  0
    9.4139   -2.8187   23.6883 C   0  0  0  0  0  0  0  0  0  0  0  0
   11.6970   -1.4034   22.2684 C   0  0  0  0  0  0  0  0  0  0  0  0
   11.9547   -1.5623   24.7822 C   0  0  0  0  0  0  0  0  0  0  0  0
   12.7447   -0.2896   22.2727 C   0  0  0  0  0  0  0  0  0  0  0  0
   12.9947   -0.4387   24.7206 C   0  0  0  0  0  0  0  0  0  0  0  0
    9.7498   -4.5438   25.2442 C   0  0  0  0  0  0  0  0  0  0  0  0
   11.8988   -2.3523   23.4629 C   0  0  0  0  0  0  0  0  0  0  0  0
   10.8049   -3.4013   23.5086 C   0  0  1  0  0  0  0  0  0  0  0  0
   12.7104    0.4108   23.5590 N   0  0  0  0  0  0  0  0  0  0  0  0
    8.7981    5.5430   23.0555 N   0  0  0  0  0  0  0  0  0  0  0  0
    9.4256    5.6954   25.5513 O   0  0  0  0  0  0  0  0  0  0  0  0
   10.9633    6.7047   23.8296 O   0  0  0  0  0  0  0  0  0  0  0  0
   11.0180   -4.2805   24.6257 O   0  0  0  0  0  0  0  0  0  0  0  0
   10.0348    5.6564   24.2292 S   0  0  0  0  0  0  0  0  0  0  0  0
    7.8313    5.4289   23.3837 H   0  0  0  0  0  0  0  0  0  0  0  0
    8.8839    6.1170   22.2080 H   0  0  0  0  0  0  0  0  0  0  0  0
  1  3  2  0  0  0  0
  1  5  1  0  0  0  0
  2  4  1  0  0  0  0
  2  5  2  0  0  0  0
  3  6  1  0  0  0  0
  4  6  2  0  0  0  0
  5 16  1  0  0  0  0
  6 21  1  0  0  0  0
  7  8  1  0  0  0  0
  7 13  1  0  0  0  0
  8 15  1  0  0  0  0
  9 11  1  0  0  0  0
  9 14  1  0  0  0  0
 10 12  1  0  0  0  0
 10 14  1  0  0  0  0
 11 16  1  0  0  0  0
 12 16  1  0  0  0  0
 13 20  1  0  0  0  0
 14 15  1  0  0  0  0
 15 20  1  0  0  0  0
 17 21  1  0  0  0  0
 18 21  2  0  0  0  0
 19 21  2  0  0  0  0
 17 22  1  0  0  0  0
 17 23  1  0  0  0  0
M  END
> <ref_mols>
x2855_0

> <original SMILES>
NS(=O)(=O)C=1C=CC(=CC1)N2CCC(CC2)C3CCCO3

> <Chemgauss4>
-8.482540

> <ref_pdb>
x0161_0

$$$$
x0111
  -OEChem-05172015543D

 16 17  0     0  0  0  0  0  0999 V2000
   12.2246   -3.6049   25.4818 C   0  0  0  0  0  0  0  0  0  0  0  0
   13.0460   -2.6175   24.9379 C   0  0  0  0  0  0  0  0  0  0  0  0
   10.9254   -3.7733   25.0025 C   0  0  0  0  0  0  0  0  0  0  0  0
   12.5684   -1.7984   23.9148 C   0  0  0  0  0  0  0  0  0  0  0  0
    7.4413   -4.6966   21.3556 C   0  0  0  0  0  0  0  0  0  0  0  0
    6.9763   -6.2236   22.8679 C   0  0  0  0  0  0  0  0  0  0  0  0
   10.4478   -2.9543   23.9795 C   0  0  0  0  0  0  0  0  0  0  0  0
    7.7429   -5.1013   22.6698 C   0  0  0  0  0  0  0  0  0  0  0  0
   11.2692   -1.9668   23.4356 C   0  0  0  0  0  0  0  0  0  0  0  0
    9.0581   -3.1375   23.4696 C   0  0  0  0  0  0  0  0  0  0  0  0
    6.5526   -5.4968   20.7608 N   0  0  0  0  0  0  0  0  0  0  0  0
    6.2892   -6.4156   21.7055 N   0  0  0  0  0  0  0  0  0  0  0  0
    8.6138   -4.5045   23.5699 N   0  0  0  0  0  0  0  0  0  0  0  0
   10.8192   -1.1751   22.4522 F   0  0  0  0  0  0  0  0  0  0  0  0
    5.6243   -7.1481   21.4902 H   0  0  0  0  0  0  0  0  0  0  0  0
    8.9577   -5.0659   24.3428 H   0  0  0  0  0  0  0  0  0  0  0  0
  1  2  1  0  0  0  0
  1  3  2  0  0  0  0
  2  4  2  0  0  0  0
  3  7  1  0  0  0  0
  4  9  1  0  0  0  0
  5  8  1  0  0  0  0
  5 11  2  0  0  0  0
  6  8  2  0  0  0  0
  6 12  1  0  0  0  0
  7  9  2  0  0  0  0
  7 10  1  0  0  0  0
  8 13  1  0  0  0  0
  9 14  1  0  0  0  0
 10 13  1  0  0  0  0
 11 12  1  0  0  0  0
 12 15  1  0  0  0  0
 13 16  1  0  0  0  0
M  END
> <ref_mols>
x0111_0

> <original SMILES>
FC=1C=CC=CC1CNC=2C=NNC2

> <Chemgauss4>
-8.482352

> <ref_pdb>
x0749_0

$$$$
x1339
  -OEChem-05172015543D

 17 17  0     0  0  0  0  0  0999 V2000
   10.0507   -1.9715   22.6987 C   0  0  0  0  0  0  0  0  0  0  0  0
    9.2890   -3.1077   22.9716 C   0  0  0  0  0  0  0  0  0  0  0  0
   11.2155   -1.7218   23.4245 C   0  0  0  0  0  0  0  0  0  0  0  0
   10.8566   -3.7444   24.6962 C   0  0  0  0  0  0  0  0  0  0  0  0
    9.6919   -3.9941   23.9703 C   0  0  0  0  0  0  0  0  0  0  0  0
   11.6184   -2.6082   24.4232 C   0  0  0  0  0  0  0  0  0  0  0  0
    6.6383   -4.8994   23.2567 C   0  0  0  0  0  0  0  0  0  0  0  0
    8.3765   -6.3899   22.1524 C   0  0  0  0  0  0  0  0  0  0  0  0
    8.8723   -5.2176   24.2625 C   0  0  0  0  0  0  0  0  0  0  0  0
    6.3826   -4.0032   24.4519 C   0  0  0  0  0  0  0  0  0  0  0  0
   12.8635   -2.3407   25.1998 C   0  0  0  0  0  0  0  0  0  0  0  0
    7.9065   -5.4925   23.2055 N   0  0  0  0  0  0  0  0  0  0  0  0
    5.7747   -5.0829   22.3952 O   0  0  0  0  0  0  0  0  0  0  0  0
   13.5060   -1.1947   24.8261 F   0  0  0  0  0  0  0  0  0  0  0  0
   12.6524   -2.2089   26.5427 F   0  0  0  0  0  0  0  0  0  0  0  0
   13.7871   -3.3371   25.0703 F   0  0  0  0  0  0  0  0  0  0  0  0
    4.7331   -3.3495   24.4081 Cl  0  0  0  0  0  0  0  0  0  0  0  0
  1  2  2  0  0  0  0
  1  3  1  0  0  0  0
  2  5  1  0  0  0  0
  3  6  2  0  0  0  0
  4  5  2  0  0  0  0
  4  6  1  0  0  0  0
  5  9  1  0  0  0  0
  6 11  1  0  0  0  0
  7 10  1  0  0  0  0
  7 12  1  0  0  0  0
  7 13  2  0  0  0  0
  8 12  1  0  0  0  0
  9 12  1  0  0  0  0
 10 17  1  0  0  0  0
 11 14  1  0  0  0  0
 11 15  1  0  0  0  0
 11 16  1  0  0  0  0
M  END
> <ref_mols>
x1339_0

> <original SMILES>
CN(Cc1cccc(c1)C(F)(F)F)C(=O)CCl

> <Chemgauss4>
-8.473181

> <ref_pdb>
x0749_0

$$$$
x0704
  -OEChem-05172015543D

 17 17  0     0  0  0  0  0  0999 V2000
   10.0507   -1.9715   22.6987 C   0  0  0  0  0  0  0  0  0  0  0  0
    9.2890   -3.1077   22.9716 C   0  0  0  0  0  0  0  0  0  0  0  0
   11.2155   -1.7218   23.4245 C   0  0  0  0  0  0  0  0  0  0  0  0
   10.8566   -3.7444   24.6962 C   0  0  0  0  0  0  0  0  0  0  0  0
    9.6919   -3.9941   23.9703 C   0  0  0  0  0  0  0  0  0  0  0  0
   11.6184   -2.6082   24.4232 C   0  0  0  0  0  0  0  0  0  0  0  0
    6.6383   -4.8994   23.2567 C   0  0  0  0  0  0  0  0  0  0  0  0
    8.3765   -6.3899   22.1524 C   0  0  0  0  0  0  0  0  0  0  0  0
    8.8723   -5.2176   24.2625 C   0  0  0  0  0  0  0  0  0  0  0  0
    6.3826   -4.0032   24.4519 C   0  0  0  0  0  0  0  0  0  0  0  0
   12.8635   -2.3407   25.1998 C   0  0  0  0  0  0  0  0  0  0  0  0
    7.9065   -5.4925   23.2055 N   0  0  0  0  0  0  0  0  0  0  0  0
    5.7747   -5.0829   22.3952 O   0  0  0  0  0  0  0  0  0  0  0  0
   13.5060   -1.1947   24.8261 F   0  0  0  0  0  0  0  0  0  0  0  0
   12.6524   -2.2089   26.5427 F   0  0  0  0  0  0  0  0  0  0  0  0
   13.7871   -3.3371   25.0703 F   0  0  0  0  0  0  0  0  0  0  0  0
    4.7331   -3.3495   24.4081 Cl  0  0  0  0  0  0  0  0  0  0  0  0
  1  2  2  0  0  0  0
  1  3  1  0  0  0  0
  2  5  1  0  0  0  0
  3  6  2  0  0  0  0
  4  5  2  0  0  0  0
  4  6  1  0  0  0  0
  5  9  1  0  0  0  0
  6 11  1  0  0  0  0
  7 10  1  0  0  0  0
  7 12  1  0  0  0  0
  7 13  2  0  0  0  0
  8 12  1  0  0  0  0
  9 12  1  0  0  0  0
 10 17  1  0  0  0  0
 11 14  1  0  0  0  0
 11 15  1  0  0  0  0
 11 16  1  0  0  0  0
M  END
> <ref_mols>
x0704_0

> <original SMILES>
CN(Cc1cccc(c1)C(F)(F)F)C(=O)CCl

> <Chemgauss4>
-8.473181

> <ref_pdb>
x0749_0

> <CYS145-warhead dist minimum (A)>
7.0957656

> <CYS145-warhead dist mean (A)>
8.020674

> <CYS145-warhead dist stddev (A)>
0.30079755

$$$$
x1422
  -OEChem-05172015543D

 17 17  0     0  0  0  0  0  0999 V2000
   10.0507   -1.9715   22.6987 C   0  0  0  0  0  0  0  0  0  0  0  0
    9.2890   -3.1077   22.9716 C   0  0  0  0  0  0  0  0  0  0  0  0
   11.2155   -1.7218   23.4245 C   0  0  0  0  0  0  0  0  0  0  0  0
   10.8566   -3.7444   24.6962 C   0  0  0  0  0  0  0  0  0  0  0  0
    9.6919   -3.9941   23.9703 C   0  0  0  0  0  0  0  0  0  0  0  0
   11.6184   -2.6082   24.4232 C   0  0  0  0  0  0  0  0  0  0  0  0
    6.6383   -4.8994   23.2567 C   0  0  0  0  0  0  0  0  0  0  0  0
    8.3765   -6.3899   22.1524 C   0  0  0  0  0  0  0  0  0  0  0  0
    8.8723   -5.2176   24.2625 C   0  0  0  0  0  0  0  0  0  0  0  0
    6.3826   -4.0032   24.4519 C   0  0  0  0  0  0  0  0  0  0  0  0
   12.8635   -2.3407   25.1998 C   0  0  0  0  0  0  0  0  0  0  0  0
    7.9065   -5.4925   23.2055 N   0  0  0  0  0  0  0  0  0  0  0  0
    5.7747   -5.0829   22.3952 O   0  0  0  0  0  0  0  0  0  0  0  0
   13.5060   -1.1947   24.8261 F   0  0  0  0  0  0  0  0  0  0  0  0
   12.6524   -2.2089   26.5427 F   0  0  0  0  0  0  0  0  0  0  0  0
   13.7871   -3.3371   25.0703 F   0  0  0  0  0  0  0  0  0  0  0  0
    4.7331   -3.3495   24.4081 Cl  0  0  0  0  0  0  0  0  0  0  0  0
  1  2  2  0  0  0  0
  1  3  1  0  0  0  0
  2  5  1  0  0  0  0
  3  6  2  0  0  0  0
  4  5  2  0  0  0  0
  4  6  1  0  0  0  0
  5  9  1  0  0  0  0
  6 11  1  0  0  0  0
  7 10  1  0  0  0  0
  7 12  1  0  0  0  0
  7 13  2  0  0  0  0
  8 12  1  0  0  0  0
  9 12  1  0  0  0  0
 10 17  1  0  0  0  0
 11 14  1  0  0  0  0
 11 15  1  0  0  0  0
 11 16  1  0  0  0  0
M  END
> <ref_mols>
x1422_0

> <original SMILES>
CN(Cc1cccc(c1)C(F)(F)F)C(=O)CCl

> <Chemgauss4>
-8.473181

> <ref_pdb>
x0749_0

$$$$
x1441
  -OEChem-05172015543D

 17 17  0     0  0  0  0  0  0999 V2000
   10.0507   -1.9715   22.6987 C   0  0  0  0  0  0  0  0  0  0  0  0
    9.2890   -3.1077   22.9716 C   0  0  0  0  0  0  0  0  0  0  0  0
   11.2155   -1.7218   23.4245 C   0  0  0  0  0  0  0  0  0  0  0  0
   10.8566   -3.7444   24.6962 C   0  0  0  0  0  0  0  0  0  0  0  0
    9.6919   -3.9941   23.9703 C   0  0  0  0  0  0  0  0  0  0  0  0
   11.6184   -2.6082   24.4232 C   0  0  0  0  0  0  0  0  0  0  0  0
    6.6383   -4.8994   23.2567 C   0  0  0  0  0  0  0  0  0  0  0  0
    8.3765   -6.3899   22.1524 C   0  0  0  0  0  0  0  0  0  0  0  0
    8.8723   -5.2176   24.2625 C   0  0  0  0  0  0  0  0  0  0  0  0
    6.3826   -4.0032   24.4519 C   0  0  0  0  0  0  0  0  0  0  0  0
   12.8635   -2.3407   25.1998 C   0  0  0  0  0  0  0  0  0  0  0  0
    7.9065   -5.4925   23.2055 N   0  0  0  0  0  0  0  0  0  0  0  0
    5.7747   -5.0829   22.3952 O   0  0  0  0  0  0  0  0  0  0  0  0
   13.5060   -1.1947   24.8261 F   0  0  0  0  0  0  0  0  0  0  0  0
   12.6524   -2.2089   26.5427 F   0  0  0  0  0  0  0  0  0  0  0  0
   13.7871   -3.3371   25.0703 F   0  0  0  0  0  0  0  0  0  0  0  0
    4.7331   -3.3495   24.4081 Cl  0  0  0  0  0  0  0  0  0  0  0  0
  1  2  2  0  0  0  0
  1  3  1  0  0  0  0
  2  5  1  0  0  0  0
  3  6  2  0  0  0  0
  4  5  2  0  0  0  0
  4  6  1  0  0  0  0
  5  9  1  0  0  0  0
  6 11  1  0  0  0  0
  7 10  1  0  0  0  0
  7 12  1  0  0  0  0
  7 13  2  0  0  0  0
  8 12  1  0  0  0  0
  9 12  1  0  0  0  0
 10 17  1  0  0  0  0
 11 14  1  0  0  0  0
 11 15  1  0  0  0  0
 11 16  1  0  0  0  0
M  END
> <ref_mols>
x1441_0

> <original SMILES>
CN(Cc1cccc(c1)C(F)(F)F)C(=O)CCl

> <Chemgauss4>
-8.473181

> <ref_pdb>
x0749_0

> <CYS145-warhead dist minimum (A)>
6.4604096

> <CYS145-warhead dist mean (A)>
7.198221

> <CYS145-warhead dist stddev (A)>
0.25291935

$$$$
x0778
  -OEChem-05172015543D

 17 17  0     0  0  0  0  0  0999 V2000
   10.0507   -1.9715   22.6987 C   0  0  0  0  0  0  0  0  0  0  0  0
    9.2890   -3.1077   22.9716 C   0  0  0  0  0  0  0  0  0  0  0  0
   11.2155   -1.7218   23.4245 C   0  0  0  0  0  0  0  0  0  0  0  0
   10.8566   -3.7444   24.6962 C   0  0  0  0  0  0  0  0  0  0  0  0
    9.6919   -3.9941   23.9703 C   0  0  0  0  0  0  0  0  0  0  0  0
   11.6184   -2.6082   24.4232 C   0  0  0  0  0  0  0  0  0  0  0  0
    6.6383   -4.8994   23.2567 C   0  0  0  0  0  0  0  0  0  0  0  0
    8.3765   -6.3899   22.1524 C   0  0  0  0  0  0  0  0  0  0  0  0
    8.8723   -5.2176   24.2625 C   0  0  0  0  0  0  0  0  0  0  0  0
    6.3826   -4.0032   24.4519 C   0  0  0  0  0  0  0  0  0  0  0  0
   12.8635   -2.3407   25.1998 C   0  0  0  0  0  0  0  0  0  0  0  0
    7.9065   -5.4925   23.2055 N   0  0  0  0  0  0  0  0  0  0  0  0
    5.7747   -5.0829   22.3952 O   0  0  0  0  0  0  0  0  0  0  0  0
   13.5060   -1.1947   24.8261 F   0  0  0  0  0  0  0  0  0  0  0  0
   12.6524   -2.2089   26.5427 F   0  0  0  0  0  0  0  0  0  0  0  0
   13.7871   -3.3371   25.0703 F   0  0  0  0  0  0  0  0  0  0  0  0
    4.7331   -3.3495   24.4081 Cl  0  0  0  0  0  0  0  0  0  0  0  0
  1  2  2  0  0  0  0
  1  3  1  0  0  0  0
  2  5  1  0  0  0  0
  3  6  2  0  0  0  0
  4  5  2  0  0  0  0
  4  6  1  0  0  0  0
  5  9  1  0  0  0  0
  6 11  1  0  0  0  0
  7 10  1  0  0  0  0
  7 12  1  0  0  0  0
  7 13  2  0  0  0  0
  8 12  1  0  0  0  0
  9 12  1  0  0  0  0
 10 17  1  0  0  0  0
 11 14  1  0  0  0  0
 11 15  1  0  0  0  0
 11 16  1  0  0  0  0
M  END
> <ref_mols>
x0778_0

> <original SMILES>
CN(Cc1cccc(c1)C(F)(F)F)C(=O)CCl

> <Chemgauss4>
-8.473181

> <ref_pdb>
x0749_0

$$$$
ver_1.2
  -OEChem-05172015543D

 17 17  0     0  0  0  0  0  0999 V2000
   10.0507   -1.9715   22.6987 C   0  0  0  0  0  0  0  0  0  0  0  0
    9.2890   -3.1077   22.9716 C   0  0  0  0  0  0  0  0  0  0  0  0
   11.2155   -1.7218   23.4245 C   0  0  0  0  0  0  0  0  0  0  0  0
   10.8566   -3.7444   24.6962 C   0  0  0  0  0  0  0  0  0  0  0  0
    9.6919   -3.9941   23.9703 C   0  0  0  0  0  0  0  0  0  0  0  0
   11.6184   -2.6082   24.4232 C   0  0  0  0  0  0  0  0  0  0  0  0
    6.6383   -4.8994   23.2567 C   0  0  0  0  0  0  0  0  0  0  0  0
    8.3765   -6.3899   22.1524 C   0  0  0  0  0  0  0  0  0  0  0  0
    8.8723   -5.2176   24.2625 C   0  0  0  0  0  0  0  0  0  0  0  0
    6.3826   -4.0032   24.4519 C   0  0  0  0  0  0  0  0  0  0  0  0
   12.8635   -2.3407   25.1998 C   0  0  0  0  0  0  0  0  0  0  0  0
    7.9065   -5.4925   23.2055 N   0  0  0  0  0  0  0  0  0  0  0  0
    5.7747   -5.0829   22.3952 O   0  0  0  0  0  0  0  0  0  0  0  0
   13.5060   -1.1947   24.8261 F   0  0  0  0  0  0  0  0  0  0  0  0
   12.6524   -2.2089   26.5427 F   0  0  0  0  0  0  0  0  0  0  0  0
   13.7871   -3.3371   25.0703 F   0  0  0  0  0  0  0  0  0  0  0  0
    4.7331   -3.3495   24.4081 Cl  0  0  0  0  0  0  0  0  0  0  0  0
  1  2  2  0  0  0  0
  1  3  1  0  0  0  0
  2  5  1  0  0  0  0
  3  6  2  0  0  0  0
  4  5  2  0  0  0  0
  4  6  1  0  0  0  0
  5  9  1  0  0  0  0
  6 11  1  0  0  0  0
  7 10  1  0  0  0  0
  7 12  1  0  0  0  0
  7 13  2  0  0  0  0
  8 12  1  0  0  0  0
  9 12  1  0  0  0  0
 10 17  1  0  0  0  0
 11 14  1  0  0  0  0
 11 15  1  0  0  0  0
 11 16  1  0  0  0  0
M  END
> <ref_mols>
a comma separated list of the fragments that inspired the design of the new molecule (codes as they appear in fragalysis - e.g. x0104_0,x0692_0)

> <original SMILES>
the original SMILES of the compound before any computation was carried out

> <Chemgauss4>
The [Chemgauss4 docking score](https://docs.eyesopen.com/toolkits/cpp/dockingtk/scoring.html#section-scoring-chemgauss4) of the best scoring pose and protonation/tautomeric state to any Mpro structure; more negative is better, and fragments score ~ -10

> <ref_pdb>
The name of the fragment (and corresponding Mpro fragment structure) with the best scoring hybrid docking pose

> <ref_url>
https://discuss.postera.ai/t/ensemble-oedocking-ensemble-hybrid-docking-to-fragment-bound-mpro-structures/1291

> <submitter_name>
John D. Chodera

> <submitter_email>
john.chodera@choderalab.org

> <submitter_institution>
MSKCC

> <generation_date>
2020-05-17

> <method>
ensemble-hybrid-oedocking

$$$$
x0374
  -OEChem-05172015543D

 19 20  0     0  0  0  0  0  0999 V2000
   14.0035   -1.1723   22.2799 C   0  0  0  0  0  0  0  0  0  0  0  0
   13.4885    0.1270   24.2506 C   0  0  0  0  0  0  0  0  0  0  0  0
   14.1881   -2.3039   23.0742 C   0  0  0  0  0  0  0  0  0  0  0  0
   13.6730   -1.0047   25.0449 C   0  0  0  0  0  0  0  0  0  0  0  0
   10.5868    3.8541   24.2505 C   0  0  0  0  0  0  0  0  0  0  0  0
   11.5864    5.6432   23.4537 C   0  0  0  0  0  0  0  0  0  0  0  0
   11.7104    4.2767   23.5151 C   0  0  0  0  0  0  0  0  0  0  0  0
   13.6537    0.0432   22.8681 C   0  0  0  0  0  0  0  0  0  0  0  0
   14.0228   -2.2201   24.4567 C   0  0  0  0  0  0  0  0  0  0  0  0
   12.8095    3.4724   22.9217 C   0  0  0  0  0  0  0  0  0  0  0  0
   10.6241    8.0316   25.4183 C   0  0  0  0  0  0  0  0  0  0  0  0
   13.4555    1.2533   22.0193 C   0  0  0  0  0  0  0  0  0  0  0  0
    9.8889    7.2620   24.3345 C   0  0  0  0  0  0  0  0  0  0  0  0
    9.8067    4.8699   24.6294 N   0  0  0  0  0  0  0  0  0  0  0  0
   10.4410    5.9444   24.1301 N   0  0  0  0  0  0  0  0  0  0  0  0
   12.4913    2.1648   22.5815 N   0  0  0  0  0  0  0  0  0  0  0  0
   13.9188    3.9815   22.7842 O   0  0  0  0  0  0  0  0  0  0  0  0
   14.1974   -3.3074   25.2193 F   0  0  0  0  0  0  0  0  0  0  0  0
   11.5656    1.7968   22.7845 H   0  0  0  0  0  0  0  0  0  0  0  0
  1  3  2  0  0  0  0
  1  8  1  0  0  0  0
  2  4  1  0  0  0  0
  2  8  2  0  0  0  0
  3  9  1  0  0  0  0
  4  9  2  0  0  0  0
  5  7  1  0  0  0  0
  5 14  2  0  0  0  0
  6  7  2  0  0  0  0
  6 15  1  0  0  0  0
  7 10  1  0  0  0  0
  8 12  1  0  0  0  0
  9 18  1  0  0  0  0
 10 16  1  0  0  0  0
 10 17  2  0  0  0  0
 11 13  1  0  0  0  0
 12 16  1  0  0  0  0
 13 15  1  0  0  0  0
 14 15  1  0  0  0  0
 16 19  1  0  0  0  0
M  END
> <ref_mols>
x0374_0

> <original SMILES>
CCN1C=C(C=N1)C(=O)NCC=2C=CC(F)=CC2

> <Chemgauss4>
-8.473101

> <ref_pdb>
x0161_0

$$$$
x0515
  -OEChem-05172015543D

 20 21  0     0  0  0  0  0  0999 V2000
    5.8831    0.5582   18.3442 C   0  0  0  0  0  0  0  0  0  0  0  0
    4.9365    1.4140   18.9073 C   0  0  0  0  0  0  0  0  0  0  0  0
    6.8697   -0.0152   19.1464 C   0  0  0  0  0  0  0  0  0  0  0  0
    4.9765    1.6966   20.2726 C   0  0  0  0  0  0  0  0  0  0  0  0
   11.8599   -1.6323   22.9095 C   0  0  0  0  0  0  0  0  0  0  0  0
   10.6862   -1.2827   22.2419 C   0  0  0  0  0  0  0  0  0  0  0  0
   12.3220    0.7032   23.3204 C   0  0  0  0  0  0  0  0  0  0  0  0
    6.9097    0.2674   20.5118 C   0  0  0  0  0  0  0  0  0  0  0  0
   12.6778   -0.6394   23.4489 C   0  0  0  0  0  0  0  0  0  0  0  0
    5.9631    1.1232   21.0749 C   0  0  0  0  0  0  0  0  0  0  0  0
   10.3304    0.0599   22.1134 C   0  0  0  0  0  0  0  0  0  0  0  0
   11.1483    1.0529   22.6527 C   0  0  0  0  0  0  0  0  0  0  0  0
    7.9510   -0.3442   21.3263 C   0  0  0  0  0  0  0  0  0  0  0  0
   13.9326   -1.0136   24.1626 C   0  0  0  0  0  0  0  0  0  0  0  0
    5.9830    1.4435   22.5338 C   0  0  0  0  0  0  0  0  0  0  0  0
    9.1356    0.3994   21.4300 N   0  0  0  0  0  0  0  0  0  0  0  0
    7.7963   -1.4545   21.8510 O   0  0  0  0  0  0  0  0  0  0  0  0
   10.8190    2.3706   22.5377 O   0  0  0  0  0  0  0  0  0  0  0  0
    9.1377    1.2980   20.9536 H   0  0  0  0  0  0  0  0  0  0  0  0
   11.4924    2.9220   22.9654 H   0  0  0  0  0  0  0  0  0  0  0  0
  1  2  1  0  0  0  0
  1  3  2  0  0  0  0
  2  4  2  0  0  0  0
  3  8  1  0  0  0  0
  4 10  1  0  0  0  0
  5  6  2  0  0  0  0
  5  9  1  0  0  0  0
  6 11  1  0  0  0  0
  7  9  2  0  0  0  0
  7 12  1  0  0  0  0
  8 10  2  0  0  0  0
  8 13  1  0  0  0  0
  9 14  1  0  0  0  0
 10 15  1  0  0  0  0
 11 12  2  0  0  0  0
 11 16  1  0  0  0  0
 12 18  1  0  0  0  0
 13 16  1  0  0  0  0
 13 17  2  0  0  0  0
 16 19  1  0  0  0  0
 18 20  1  0  0  0  0
M  END
> <ref_mols>
x0515_0

> <original SMILES>
CC=1C=CC(NC(=O)C=2C=CC=CC2C)=C(O)C1

> <Chemgauss4>
-8.473072

> <ref_pdb>
x1093_0

$$$$
x0537
  -OEChem-05172015543D

 16 17  0     1  0  0  0  0  0999 V2000
   14.1286   -1.0495   22.9092 C   0  0  0  0  0  0  0  0  0  0  0  0
   12.9190   -1.7347   22.8831 C   0  0  0  0  0  0  0  0  0  0  0  0
   14.1341    0.3409   22.8952 C   0  0  0  0  0  0  0  0  0  0  0  0
   11.7519   -0.9889   22.8437 C   0  0  0  0  0  0  0  0  0  0  0  0
   12.9126    0.9937   22.8550 C   0  0  0  0  0  0  0  0  0  0  0  0
   13.6126    3.0994   21.7506 C   0  0  0  0  0  0  0  0  0  0  0  0
   11.8000    3.0966   23.4569 C   0  0  0  0  0  0  0  0  0  0  0  0
   14.0504    4.4839   22.2039 C   0  0  0  0  0  0  0  0  0  0  0  0
   12.2029    4.4969   23.9213 C   0  0  1  0  0  0  0  0  0  0  0  0
   10.4357   -1.6919   22.8145 C   0  0  0  0  0  0  0  0  0  0  0  0
   13.0909    4.4934   25.1612 C   0  0  0  0  0  0  0  0  0  0  0  0
   11.7174    0.3624   22.8289 N   0  0  0  0  0  0  0  0  0  0  0  0
   12.9347    2.3923   22.8416 N   0  0  1  0  0  0  0  0  0  0  0  0
   12.8877    5.2096   22.7937 N   0  3  0  0  0  0  0  0  0  0  0  0
   13.1947    6.1528   23.1081 H   0  0  0  0  0  0  0  0  0  0  0  0
   12.1980    5.4017   22.0396 H   0  0  0  0  0  0  0  0  0  0  0  0
  1  2  1  0  0  0  0
  1  3  2  0  0  0  0
  2  4  2  0  0  0  0
  3  5  1  0  0  0  0
  4 10  1  0  0  0  0
  4 12  1  0  0  0  0
  5 12  2  0  0  0  0
  5 13  1  0  0  0  0
  6  8  1  0  0  0  0
  6 13  1  0  0  0  0
  7  9  1  0  0  0  0
  7 13  1  0  0  0  0
  8 14  1  0  0  0  0
  9 11  1  0  0  0  0
  9 14  1  0  0  0  0
 14 15  1  0  0  0  0
 14 16  1  0  0  0  0
M  CHG  1  14   1
M  END
> <ref_mols>
x0537_0

> <original SMILES>
CC1CN(CCN1)C=2C=CC=C(C)N2

> <Chemgauss4>
-8.469460

> <ref_pdb>
x0195_0

$$$$
x1188
  -OEChem-05172015543D

 16 17  0     1  0  0  0  0  0999 V2000
   14.1286   -1.0495   22.9092 C   0  0  0  0  0  0  0  0  0  0  0  0
   12.9190   -1.7347   22.8831 C   0  0  0  0  0  0  0  0  0  0  0  0
   14.1341    0.3409   22.8952 C   0  0  0  0  0  0  0  0  0  0  0  0
   11.7519   -0.9889   22.8437 C   0  0  0  0  0  0  0  0  0  0  0  0
   12.9126    0.9937   22.8550 C   0  0  0  0  0  0  0  0  0  0  0  0
   13.6126    3.0994   21.7506 C   0  0  0  0  0  0  0  0  0  0  0  0
   11.8000    3.0966   23.4569 C   0  0  0  0  0  0  0  0  0  0  0  0
   14.0504    4.4839   22.2039 C   0  0  0  0  0  0  0  0  0  0  0  0
   12.2029    4.4969   23.9213 C   0  0  1  0  0  0  0  0  0  0  0  0
   10.4357   -1.6919   22.8145 C   0  0  0  0  0  0  0  0  0  0  0  0
   13.0909    4.4934   25.1612 C   0  0  0  0  0  0  0  0  0  0  0  0
   11.7174    0.3624   22.8289 N   0  0  0  0  0  0  0  0  0  0  0  0
   12.9347    2.3923   22.8416 N   0  0  1  0  0  0  0  0  0  0  0  0
   12.8877    5.2096   22.7937 N   0  3  0  0  0  0  0  0  0  0  0  0
   13.1947    6.1528   23.1081 H   0  0  0  0  0  0  0  0  0  0  0  0
   12.1980    5.4017   22.0396 H   0  0  0  0  0  0  0  0  0  0  0  0
  1  2  1  0  0  0  0
  1  3  2  0  0  0  0
  2  4  2  0  0  0  0
  3  5  1  0  0  0  0
  4 10  1  0  0  0  0
  4 12  1  0  0  0  0
  5 12  2  0  0  0  0
  5 13  1  0  0  0  0
  6  8  1  0  0  0  0
  6 13  1  0  0  0  0
  7  9  1  0  0  0  0
  7 13  1  0  0  0  0
  8 14  1  0  0  0  0
  9 11  1  0  0  0  0
  9 14  1  0  0  0  0
 14 15  1  0  0  0  0
 14 16  1  0  0  0  0
M  CHG  1  14   1
M  END
> <ref_mols>
x1188_0

> <original SMILES>
CC1CN(CCN1)C=2C=CC=C(C)N2

> <Chemgauss4>
-8.469460

> <ref_pdb>
x0195_0

$$$$
x0194
  -OEChem-05172015543D

 18 19  0     0  0  0  0  0  0999 V2000
    8.5226   -4.5467   24.5364 C   0  0  0  0  0  0  0  0  0  0  0  0
    6.8301   -3.3255   23.3193 C   0  0  0  0  0  0  0  0  0  0  0  0
    9.5175   -3.8230   23.8792 C   0  0  0  0  0  0  0  0  0  0  0  0
    7.8251   -2.6017   22.6621 C   0  0  0  0  0  0  0  0  0  0  0  0
   13.2145   -0.6960   24.5393 C   0  0  0  0  0  0  0  0  0  0  0  0
   11.9029   -0.3353   24.7714 C   0  0  0  0  0  0  0  0  0  0  0  0
   13.4155   -1.5795   23.4985 C   0  0  0  0  0  0  0  0  0  0  0  0
    7.1789   -4.2980   24.2564 C   0  0  0  0  0  0  0  0  0  0  0  0
    9.1687   -2.8505   22.9421 C   0  0  0  0  0  0  0  0  0  0  0  0
   11.1858   -1.6508   23.0619 C   0  0  0  0  0  0  0  0  0  0  0  0
    6.3385   -6.0280   25.8767 C   0  0  0  0  0  0  0  0  0  0  0  0
    5.0087   -6.5639   26.3443 C   0  0  0  0  0  0  0  0  0  0  0  0
   10.8600   -0.7952   24.0495 N   0  0  0  0  0  0  0  0  0  0  0  0
   12.4205   -2.0789   22.7363 N   0  0  0  0  0  0  0  0  0  0  0  0
    6.1836   -5.0219   24.9137 N   0  0  0  0  0  0  0  0  0  0  0  0
    7.3887   -6.4677   26.3336 O   0  0  0  0  0  0  0  0  0  0  0  0
   10.1395   -2.1442   22.3007 O   0  0  0  0  0  0  0  0  0  0  0  0
    5.2142   -4.7928   24.6656 H   0  0  0  0  0  0  0  0  0  0  0  0
  1  3  2  0  0  0  0
  1  8  1  0  0  0  0
  2  4  1  0  0  0  0
  2  8  2  0  0  0  0
  3  9  1  0  0  0  0
  4  9  2  0  0  0  0
  5  6  1  0  0  0  0
  5  7  2  0  0  0  0
  6 13  2  0  0  0  0
  7 14  1  0  0  0  0
  8 15  1  0  0  0  0
  9 17  1  0  0  0  0
 10 13  1  0  0  0  0
 10 14  2  0  0  0  0
 10 17  1  0  0  0  0
 11 12  1  0  0  0  0
 11 15  1  0  0  0  0
 11 16  2  0  0  0  0
 15 18  1  0  0  0  0
M  END
> <ref_mols>
x0194_0

> <original SMILES>
CC(=O)NC=1C=CC(OC=2N=CC=CN2)=CC1

> <Chemgauss4>
-8.469294

> <ref_pdb>
x0072_0

$$$$
x2806
  -OEChem-05172015543D

 21 22  0     0  0  0  0  0  0999 V2000
   10.3143   -2.7363   23.6316 C   0  0  0  0  0  0  0  0  0  0  0  0
   10.7899   -4.3086   25.4032 C   0  0  0  0  0  0  0  0  0  0  0  0
   11.5398   -2.1101   23.8583 C   0  0  0  0  0  0  0  0  0  0  0  0
   12.0155   -3.6824   25.6299 C   0  0  0  0  0  0  0  0  0  0  0  0
    9.9393   -3.8356   24.4041 C   0  0  0  0  0  0  0  0  0  0  0  0
   12.3904   -2.5831   24.8575 C   0  0  0  0  0  0  0  0  0  0  0  0
    7.3542   -4.0458   22.1895 C   0  0  0  0  0  0  0  0  0  0  0  0
    8.4594   -6.2903   22.5821 C   0  0  0  0  0  0  0  0  0  0  0  0
    7.5507   -3.7330   23.6738 C   0  0  0  0  0  0  0  0  0  0  0  0
    8.6323   -5.9192   24.0597 C   0  0  0  0  0  0  0  0  0  0  0  0
    7.2807   -5.5591   21.9139 C   0  0  0  0  0  0  0  0  0  0  0  0
    4.5435   -6.4609   24.2138 C   0  0  0  0  0  0  0  0  0  0  0  0
    5.9352   -6.1481   22.3460 C   0  0  0  0  0  0  0  0  0  0  0  0
    8.7175   -4.4602   24.1785 N   0  0  0  0  0  0  0  0  0  0  0  0
   14.9406   -2.6798   24.0879 N   0  0  0  0  0  0  0  0  0  0  0  0
   13.8334   -0.4254   24.6688 O   0  0  0  0  0  0  0  0  0  0  0  0
   14.3321   -2.0659   26.5148 O   0  0  0  0  0  0  0  0  0  0  0  0
    5.7781   -5.9372   23.7369 O   0  0  0  0  0  0  0  0  0  0  0  0
   13.9244   -1.7995   25.1424 S   0  0  0  0  0  0  0  0  0  0  0  0
   15.2815   -2.2078   23.2415 H   0  0  0  0  0  0  0  0  0  0  0  0
   15.6198   -3.3289   24.5034 H   0  0  0  0  0  0  0  0  0  0  0  0
  1  3  2  0  0  0  0
  1  5  1  0  0  0  0
  2  4  1  0  0  0  0
  2  5  2  0  0  0  0
  3  6  1  0  0  0  0
  4  6  2  0  0  0  0
  5 14  1  0  0  0  0
  6 19  1  0  0  0  0
  7  9  1  0  0  0  0
  7 11  1  0  0  0  0
  8 10  1  0  0  0  0
  8 11  1  0  0  0  0
  9 14  1  0  0  0  0
 10 14  1  0  0  0  0
 11 13  1  0  0  0  0
 12 18  1  0  0  0  0
 13 18  1  0  0  0  0
 15 19  1  0  0  0  0
 16 19  2  0  0  0  0
 17 19  2  0  0  0  0
 15 20  1  0  0  0  0
 15 21  1  0  0  0  0
M  END
> <ref_mols>
x2806_0

> <original SMILES>
COCC1CCN(CC1)C=2C=CC(=CC2)S(=O)(=O)N

> <Chemgauss4>
-8.468962

> <ref_pdb>
x0749_0

$$$$
x0278
  -OEChem-05172015543D

 16 17  0     0  0  0  0  0  0999 V2000
    7.3461    0.2023   18.6125 C   0  0  0  0  0  0  0  0  0  0  0  0
    9.1947    0.2314   19.7726 C   0  0  0  0  0  0  0  0  0  0  0  0
   12.2420   -0.6256   21.7821 C   0  0  0  0  0  0  0  0  0  0  0  0
    5.8971    0.3359   18.3148 C   0  0  0  0  0  0  0  0  0  0  0  0
    5.0500    0.2598   19.5897 C   0  0  0  0  0  0  0  0  0  0  0  0
    5.6480    1.1265   20.7025 C   0  0  0  0  0  0  0  0  0  0  0  0
    7.0665    0.6696   21.0493 C   0  0  0  0  0  0  0  0  0  0  0  0
   14.4277   -1.7120   22.4307 C   0  0  0  0  0  0  0  0  0  0  0  0
   10.1166    0.3427   20.9169 C   0  0  0  0  0  0  0  0  0  0  0  0
   13.3379   -1.5955   21.3805 C   0  0  0  0  0  0  0  0  0  0  0  0
    8.3387   -0.0663   17.7901 N   0  0  0  0  0  0  0  0  0  0  0  0
    9.5099   -0.0487   18.5268 N   0  0  0  0  0  0  0  0  0  0  0  0
    7.8527    0.3991   19.8668 N   0  0  0  0  0  0  0  0  0  0  0  0
   11.2772   -0.5138   20.7936 N   0  0  0  0  0  0  0  0  0  0  0  0
   12.2329   -0.0291   22.8555 O   0  0  0  0  0  0  0  0  0  0  0  0
   11.3895   -1.0572   19.9442 H   0  0  0  0  0  0  0  0  0  0  0  0
  1  4  1  0  0  0  0
  1 11  2  0  0  0  0
  1 13  1  0  0  0  0
  2  9  1  0  0  0  0
  2 12  2  0  0  0  0
  2 13  1  0  0  0  0
  3 10  1  0  0  0  0
  3 14  1  0  0  0  0
  3 15  2  0  0  0  0
  4  5  1  0  0  0  0
  5  6  1  0  0  0  0
  6  7  1  0  0  0  0
  7 13  1  0  0  0  0
  8 10  1  0  0  0  0
  9 14  1  0  0  0  0
 11 12  1  0  0  0  0
 14 16  1  0  0  0  0
M  END
> <ref_mols>
x0278_0

> <original SMILES>
CCC(=O)NCC1=NN=C2CCCCN12

> <Chemgauss4>
-8.462798

> <ref_pdb>
x0678_0

$$$$
x0589
  -OEChem-05172015543D

 19 20  0     1  0  0  0  0  0999 V2000
    7.8784   -4.2940   22.2308 C   0  0  0  0  0  0  0  0  0  0  0  0
    8.8507   -6.0338   23.5964 C   0  0  0  0  0  0  0  0  0  0  0  0
    8.7947   -3.3773   22.7461 C   0  0  0  0  0  0  0  0  0  0  0  0
    9.7671   -5.1171   24.1117 C   0  0  0  0  0  0  0  0  0  0  0  0
    7.9063   -5.6223   22.6559 C   0  0  0  0  0  0  0  0  0  0  0  0
    9.7391   -3.7889   23.6866 C   0  0  0  0  0  0  0  0  0  0  0  0
   11.6686   -3.0980   25.1440 C   0  0  0  0  0  0  0  0  0  0  0  0
   13.9219   -1.8762   25.2585 C   0  0  0  0  0  0  0  0  0  0  0  0
   13.0597   -1.1175   24.2951 C   0  0  0  0  0  0  0  0  0  0  0  0
   12.4484   -1.8411   25.4387 C   0  0  0  0  0  0  0  0  0  0  0  0
    7.0752   -8.0098   22.6975 C   0  0  0  0  0  0  0  0  0  0  0  0
    6.9265   -6.6023   22.1049 C   0  0  1  0  0  0  0  0  0  0  0  0
   10.6559   -2.8723   24.2020 N   0  0  0  0  0  0  0  0  0  0  0  0
    5.4946   -6.1863   22.2954 N   0  3  0  0  0  0  0  0  0  0  0  0
   11.9483   -4.1554   25.6993 O   0  0  0  0  0  0  0  0  0  0  0  0
   10.5855   -1.9103   23.8505 H   0  0  0  0  0  0  0  0  0  0  0  0
    5.3562   -5.2433   21.9357 H   0  0  0  0  0  0  0  0  0  0  0  0
    5.2580   -6.2017   23.2863 H   0  0  0  0  0  0  0  0  0  0  0  0
    4.8779   -6.8258   21.7967 H   0  0  0  0  0  0  0  0  0  0  0  0
  1  3  2  0  0  0  0
  1  5  1  0  0  0  0
  2  4  1  0  0  0  0
  2  5  2  0  0  0  0
  3  6  1  0  0  0  0
  4  6  2  0  0  0  0
  5 12  1  0  0  0  0
  6 13  1  0  0  0  0
  7 10  1  0  0  0  0
  7 13  1  0  0  0  0
  7 15  2  0  0  0  0
  8  9  1  0  0  0  0
  8 10  1  0  0  0  0
  9 10  1  0  0  0  0
 11 12  1  0  0  0  0
 12 14  1  0  0  0  0
 13 16  1  0  0  0  0
 14 17  1  0  0  0  0
 14 18  1  0  0  0  0
 14 19  1  0  0  0  0
M  CHG  1  14   1
M  END
> <ref_mols>
x0589_0

> <original SMILES>
CC(N)C=1C=CC(NC(=O)C2CC2)=CC1

> <Chemgauss4>
-8.462635

> <ref_pdb>
x0749_0

$$$$
x1135
  -OEChem-05172015543D

 19 20  0     1  0  0  0  0  0999 V2000
    7.8784   -4.2940   22.2308 C   0  0  0  0  0  0  0  0  0  0  0  0
    8.8507   -6.0338   23.5964 C   0  0  0  0  0  0  0  0  0  0  0  0
    8.7947   -3.3773   22.7461 C   0  0  0  0  0  0  0  0  0  0  0  0
    9.7671   -5.1171   24.1117 C   0  0  0  0  0  0  0  0  0  0  0  0
    7.9063   -5.6223   22.6559 C   0  0  0  0  0  0  0  0  0  0  0  0
    9.7391   -3.7889   23.6866 C   0  0  0  0  0  0  0  0  0  0  0  0
   11.6686   -3.0980   25.1440 C   0  0  0  0  0  0  0  0  0  0  0  0
   13.9219   -1.8762   25.2585 C   0  0  0  0  0  0  0  0  0  0  0  0
   13.0597   -1.1175   24.2951 C   0  0  0  0  0  0  0  0  0  0  0  0
   12.4484   -1.8411   25.4387 C   0  0  0  0  0  0  0  0  0  0  0  0
    7.0752   -8.0098   22.6975 C   0  0  0  0  0  0  0  0  0  0  0  0
    6.9265   -6.6023   22.1049 C   0  0  1  0  0  0  0  0  0  0  0  0
   10.6559   -2.8723   24.2020 N   0  0  0  0  0  0  0  0  0  0  0  0
    5.4946   -6.1863   22.2954 N   0  3  0  0  0  0  0  0  0  0  0  0
   11.9483   -4.1554   25.6993 O   0  0  0  0  0  0  0  0  0  0  0  0
   10.5855   -1.9103   23.8505 H   0  0  0  0  0  0  0  0  0  0  0  0
    5.3562   -5.2433   21.9357 H   0  0  0  0  0  0  0  0  0  0  0  0
    5.2580   -6.2017   23.2863 H   0  0  0  0  0  0  0  0  0  0  0  0
    4.8779   -6.8258   21.7967 H   0  0  0  0  0  0  0  0  0  0  0  0
  1  3  2  0  0  0  0
  1  5  1  0  0  0  0
  2  4  1  0  0  0  0
  2  5  2  0  0  0  0
  3  6  1  0  0  0  0
  4  6  2  0  0  0  0
  5 12  1  0  0  0  0
  6 13  1  0  0  0  0
  7 10  1  0  0  0  0
  7 13  1  0  0  0  0
  7 15  2  0  0  0  0
  8  9  1  0  0  0  0
  8 10  1  0  0  0  0
  9 10  1  0  0  0  0
 11 12  1  0  0  0  0
 12 14  1  0  0  0  0
 13 16  1  0  0  0  0
 14 17  1  0  0  0  0
 14 18  1  0  0  0  0
 14 19  1  0  0  0  0
M  CHG  1  14   1
M  END
> <ref_mols>
x1135_0

> <original SMILES>
CC(N)C=1C=CC(NC(=O)C2CC2)=CC1

> <Chemgauss4>
-8.462635

> <ref_pdb>
x0749_0

$$$$
x0316
  -OEChem-05172015543D

 18 19  0     0  0  0  0  0  0999 V2000
    8.9340   -5.7566   23.4576 C   0  0  0  0  0  0  0  0  0  0  0  0
    8.1191   -3.5269   23.0088 C   0  0  0  0  0  0  0  0  0  0  0  0
    7.9668   -6.2825   22.6012 C   0  0  0  0  0  0  0  0  0  0  0  0
    7.1519   -4.0528   22.1523 C   0  0  0  0  0  0  0  0  0  0  0  0
    9.0101   -4.3787   23.6615 C   0  0  0  0  0  0  0  0  0  0  0  0
    7.0757   -5.4306   21.9485 C   0  0  0  0  0  0  0  0  0  0  0  0
   10.2110   -2.5024   24.8498 C   0  0  0  0  0  0  0  0  0  0  0  0
   12.0855   -0.8706   24.8496 C   0  0  0  0  0  0  0  0  0  0  0  0
   12.5087   -3.1248   25.7808 C   0  0  0  0  0  0  0  0  0  0  0  0
   13.5540   -0.9725   24.4612 C   0  0  0  0  0  0  0  0  0  0  0  0
   13.6648   -2.3652   26.4187 C   0  0  0  0  0  0  0  0  0  0  0  0
   11.5554   -2.1996   25.1552 N   0  0  0  0  0  0  0  0  0  0  0  0
    9.9926   -3.8444   24.5315 N   0  0  0  0  0  0  0  0  0  0  0  0
    9.3363   -1.6336   24.8553 O   0  0  0  0  0  0  0  0  0  0  0  0
   14.3695   -1.5493   25.4831 O   0  0  0  0  0  0  0  0  0  0  0  0
    6.1319   -5.9437   21.1128 O   0  0  0  0  0  0  0  0  0  0  0  0
   10.6352   -4.5476   24.9931 H   0  0  0  0  0  0  0  0  0  0  0  0
    6.2057   -6.9107   21.0754 H   0  0  0  0  0  0  0  0  0  0  0  0
  1  3  2  0  0  0  0
  1  5  1  0  0  0  0
  2  4  1  0  0  0  0
  2  5  2  0  0  0  0
  3  6  1  0  0  0  0
  4  6  2  0  0  0  0
  5 13  1  0  0  0  0
  6 16  1  0  0  0  0
  7 12  1  0  0  0  0
  7 13  1  0  0  0  0
  7 14  2  0  0  0  0
  8 10  1  0  0  0  0
  8 12  1  0  0  0  0
  9 11  1  0  0  0  0
  9 12  1  0  0  0  0
 10 15  1  0  0  0  0
 11 15  1  0  0  0  0
 13 17  1  0  0  0  0
 16 18  1  0  0  0  0
M  END
> <ref_mols>
x0316_0

> <original SMILES>
OC=1C=CC(NC(=O)N2CCOCC2)=CC1

> <Chemgauss4>
-8.454274

> <ref_pdb>
x0749_0

$$$$
x2900
  -OEChem-05172015543D

 21 22  0     0  0  0  0  0  0999 V2000
   14.7222   -0.6025   24.5670 C   0  0  0  0  0  0  0  0  0  0  0  0
   13.7724   -0.8906   25.2425 C   0  0  0  0  0  0  0  0  0  0  0  0
    9.7064   -2.3931   23.1613 C   0  0  0  0  0  0  0  0  0  0  0  0
    8.6191   -2.6878   22.3317 C   0  0  0  0  0  0  0  0  0  0  0  0
    9.5932   -4.6003   24.0923 C   0  0  0  0  0  0  0  0  0  0  0  0
   10.1920   -3.3470   24.0439 C   0  0  0  0  0  0  0  0  0  0  0  0
    8.4912   -4.9054   23.2720 C   0  0  0  0  0  0  0  0  0  0  0  0
    7.9791   -3.9398   22.3744 C   0  0  0  0  0  0  0  0  0  0  0  0
    6.1288   -0.8782   20.4799 C   0  0  0  0  0  0  0  0  0  0  0  0
    6.1738   -1.9181   21.3154 C   0  0  0  0  0  0  0  0  0  0  0  0
   11.3289   -3.0441   24.8985 C   0  0  0  0  0  0  0  0  0  0  0  0
    6.1917   -3.2881   20.7523 C   0  0  0  0  0  0  0  0  0  0  0  0
    7.9238   -6.2976   23.3618 C   0  0  0  0  0  0  0  0  0  0  0  0
    6.5059   -6.3432   22.8304 C   0  0  0  0  0  0  0  0  0  0  0  0
    6.4551   -5.6826   21.4639 C   0  0  0  0  0  0  0  0  0  0  0  0
   12.6160   -1.2403   26.0711 C   0  0  0  0  0  0  0  0  0  0  0  0
    6.8629   -4.2642   21.5074 N   0  0  0  0  0  0  0  0  0  0  0  0
   11.5207   -1.7026   25.2493 N   0  0  0  0  0  0  0  0  0  0  0  0
   12.0964   -3.9487   25.2726 O   0  0  0  0  0  0  0  0  0  0  0  0
    5.6255   -3.4531   19.6723 O   0  0  0  0  0  0  0  0  0  0  0  0
   10.9016   -0.9961   24.8653 H   0  0  0  0  0  0  0  0  0  0  0  0
  1  2  3  0  0  0  0
  2 16  1  0  0  0  0
  3  4  1  0  0  0  0
  3  6  2  0  0  0  0
  4  8  2  0  0  0  0
  5  6  1  0  0  0  0
  5  7  2  0  0  0  0
  6 11  1  0  0  0  0
  7  8  1  0  0  0  0
  7 13  1  0  0  0  0
  8 17  1  0  0  0  0
  9 10  2  0  0  0  0
 10 12  1  0  0  0  0
 11 18  1  0  0  0  0
 11 19  2  0  0  0  0
 12 17  1  0  0  0  0
 12 20  2  0  0  0  0
 13 14  1  0  0  0  0
 14 15  1  0  0  0  0
 15 17  1  0  0  0  0
 16 18  1  0  0  0  0
 18 21  1  0  0  0  0
M  END
> <ref_mols>
x2900_0

> <original SMILES>
O=C(NCC#C)C1=CC2=C(N(C(C=C)=O)CCC2)C=C1

> <Chemgauss4>
-8.446719

> <ref_pdb>
x0749_0

$$$$
x0984
  -OEChem-05172015543D

 21 21  0     1  0  0  0  0  0999 V2000
   10.4150   -0.9449   22.6417 C   0  0  0  0  0  0  0  0  0  0  0  0
   11.3757   -0.5397   23.2369 C   0  0  0  0  0  0  0  0  0  0  0  0
    7.0449    0.3918   18.7198 C   0  0  0  0  0  0  0  0  0  0  0  0
    5.7202    1.3126   17.3314 C   0  0  0  0  0  0  0  0  0  0  0  0
    6.0386    0.9399   19.4799 C   0  0  0  0  0  0  0  0  0  0  0  0
    7.7549    3.8858   22.2311 C   0  0  0  0  0  0  0  0  0  0  0  0
    8.2335    0.7978   21.5004 C   0  0  0  0  0  0  0  0  0  0  0  0
    7.9307    5.2388   21.6255 C   0  0  0  0  0  0  0  0  0  0  0  0
    9.2474   -1.4423   21.9152 C   0  0  0  0  0  0  0  0  0  0  0  0
    5.7868    0.9683   20.9677 C   0  0  0  0  0  0  0  0  0  0  0  0
    6.9509    1.5817   21.7543 C   0  0  2  0  0  0  0  0  0  0  0  0
    6.8409    0.6276   17.3833 N   0  0  0  0  0  0  0  0  0  0  0  0
    5.1978    1.5267   18.5766 N   0  0  0  0  0  0  0  0  0  0  0  0
    8.1527   -0.5011   21.9828 N   0  0  0  0  0  0  0  0  0  0  0  0
    7.2043    2.9487   21.3742 N   0  0  0  0  0  0  0  0  0  0  0  0
    8.0937    3.6954   23.3932 O   0  0  0  0  0  0  0  0  0  0  0  0
    9.2257    1.2920   20.9692 O   0  0  0  0  0  0  0  0  0  0  0  0
   12.8962    0.1017   24.1788 Br  0  0  0  0  0  0  0  0  0  0  0  0
    4.3442    2.0271   18.7872 H   0  0  0  0  0  0  0  0  0  0  0  0
    7.2802   -0.8056   22.4046 H   0  0  0  0  0  0  0  0  0  0  0  0
    6.9666    3.2393   20.4286 H   0  0  0  0  0  0  0  0  0  0  0  0
  1  2  3  0  0  0  0
  1  9  1  0  0  0  0
  2 18  1  0  0  0  0
  3  5  2  0  0  0  0
  3 12  1  0  0  0  0
  4 12  2  0  0  0  0
  4 13  1  0  0  0  0
  5 10  1  0  0  0  0
  5 13  1  0  0  0  0
  6  8  1  0  0  0  0
  6 15  1  0  0  0  0
  6 16  2  0  0  0  0
  7 11  1  0  0  0  0
  7 14  1  0  0  0  0
  7 17  2  0  0  0  0
  9 14  1  0  0  0  0
 10 11  1  0  0  0  0
 11 15  1  0  0  0  0
 13 19  1  0  0  0  0
 14 20  1  0  0  0  0
 15 21  1  0  0  0  0
M  END
> <ref_mols>
x0984_0

> <original SMILES>
CC(N[C@@H](CC1=C[NH2+]C=N1)C(NCC#CBr)=O)=O.O=C([O-])C(F)(F)F

> <Chemgauss4>
-8.446019

> <ref_pdb>
x0678_0

$$$$
x2039
  -OEChem-05172015543D

 20 21  0     0  0  0  0  0  0999 V2000
   14.1219   -0.8972   25.3691 C   0  0  0  0  0  0  0  0  0  0  0  0
   13.0289   -0.7092   24.5232 C   0  0  0  0  0  0  0  0  0  0  0  0
   14.2070   -2.0473   26.1538 C   0  0  0  0  0  0  0  0  0  0  0  0
   12.0208   -1.6713   24.4621 C   0  0  0  0  0  0  0  0  0  0  0  0
   13.1989   -3.0094   26.0927 C   0  0  0  0  0  0  0  0  0  0  0  0
   12.1058   -2.8214   25.2469 C   0  0  0  0  0  0  0  0  0  0  0  0
    9.7256   -3.4692   24.8907 C   0  0  0  0  0  0  0  0  0  0  0  0
    5.4805   -4.1395   22.1359 C   0  0  0  0  0  0  0  0  0  0  0  0
    7.3586   -4.1882   25.1579 C   0  0  0  0  0  0  0  0  0  0  0  0
    8.7763   -5.1134   23.2613 C   0  0  0  0  0  0  0  0  0  0  0  0
    6.6577   -3.2908   24.1395 C   0  0  0  0  0  0  0  0  0  0  0  0
    8.0174   -4.1998   22.2979 C   0  0  0  0  0  0  0  0  0  0  0  0
    8.7619   -4.6052   24.7065 C   0  0  0  0  0  0  0  0  0  0  0  0
   11.4757   -5.2226   25.3413 C   0  0  0  0  0  0  0  0  0  0  0  0
    4.2678   -4.4171   22.9882 C   0  0  0  0  0  0  0  0  0  0  0  0
    6.6770   -3.9010   22.8108 N   0  0  0  0  0  0  0  0  0  0  0  0
   11.0584   -3.8209   25.1831 N   0  0  0  0  0  0  0  0  0  0  0  0
    9.2985   -2.3213   24.7436 O   0  0  0  0  0  0  0  0  0  0  0  0
    5.3652   -4.1332   20.9076 O   0  0  0  0  0  0  0  0  0  0  0  0
    4.6219   -5.8752   23.9082 Cl  0  0  0  0  0  0  0  0  0  0  0  0
  1  2  1  0  0  0  0
  1  3  2  0  0  0  0
  2  4  2  0  0  0  0
  3  5  1  0  0  0  0
  4  6  1  0  0  0  0
  5  6  2  0  0  0  0
  6 17  1  0  0  0  0
  7 13  1  0  0  0  0
  7 17  1  0  0  0  0
  7 18  2  0  0  0  0
  8 15  1  0  0  0  0
  8 16  1  0  0  0  0
  8 19  2  0  0  0  0
  9 11  1  0  0  0  0
  9 13  1  0  0  0  0
 10 12  1  0  0  0  0
 10 13  1  0  0  0  0
 11 16  1  0  0  0  0
 12 16  1  0  0  0  0
 14 17  1  0  0  0  0
 15 20  1  0  0  0  0
M  END
> <ref_mols>
x2039_0

> <original SMILES>
O=C(C1CCN(C(CCl)=O)CC1)N(C)C2=CC=CC=C2

> <Chemgauss4>
-8.441025

> <ref_pdb>
x0749_0

$$$$
x2754
  -OEChem-05172015543D

 20 21  0     0  0  0  0  0  0999 V2000
   14.1219   -0.8972   25.3691 C   0  0  0  0  0  0  0  0  0  0  0  0
   13.0289   -0.7092   24.5232 C   0  0  0  0  0  0  0  0  0  0  0  0
   14.2070   -2.0473   26.1538 C   0  0  0  0  0  0  0  0  0  0  0  0
   12.0208   -1.6713   24.4621 C   0  0  0  0  0  0  0  0  0  0  0  0
   13.1989   -3.0094   26.0927 C   0  0  0  0  0  0  0  0  0  0  0  0
   12.1058   -2.8214   25.2469 C   0  0  0  0  0  0  0  0  0  0  0  0
    9.7256   -3.4692   24.8907 C   0  0  0  0  0  0  0  0  0  0  0  0
    5.4805   -4.1395   22.1359 C   0  0  0  0  0  0  0  0  0  0  0  0
    7.3586   -4.1882   25.1579 C   0  0  0  0  0  0  0  0  0  0  0  0
    8.7763   -5.1134   23.2613 C   0  0  0  0  0  0  0  0  0  0  0  0
    6.6577   -3.2908   24.1395 C   0  0  0  0  0  0  0  0  0  0  0  0
    8.0174   -4.1998   22.2979 C   0  0  0  0  0  0  0  0  0  0  0  0
    8.7619   -4.6052   24.7065 C   0  0  0  0  0  0  0  0  0  0  0  0
   11.4757   -5.2226   25.3413 C   0  0  0  0  0  0  0  0  0  0  0  0
    4.2678   -4.4171   22.9882 C   0  0  0  0  0  0  0  0  0  0  0  0
    6.6770   -3.9010   22.8108 N   0  0  0  0  0  0  0  0  0  0  0  0
   11.0584   -3.8209   25.1831 N   0  0  0  0  0  0  0  0  0  0  0  0
    9.2985   -2.3213   24.7436 O   0  0  0  0  0  0  0  0  0  0  0  0
    5.3652   -4.1332   20.9076 O   0  0  0  0  0  0  0  0  0  0  0  0
    4.6219   -5.8752   23.9082 Cl  0  0  0  0  0  0  0  0  0  0  0  0
  1  2  1  0  0  0  0
  1  3  2  0  0  0  0
  2  4  2  0  0  0  0
  3  5  1  0  0  0  0
  4  6  1  0  0  0  0
  5  6  2  0  0  0  0
  6 17  1  0  0  0  0
  7 13  1  0  0  0  0
  7 17  1  0  0  0  0
  7 18  2  0  0  0  0
  8 15  1  0  0  0  0
  8 16  1  0  0  0  0
  8 19  2  0  0  0  0
  9 11  1  0  0  0  0
  9 13  1  0  0  0  0
 10 12  1  0  0  0  0
 10 13  1  0  0  0  0
 11 16  1  0  0  0  0
 12 16  1  0  0  0  0
 14 17  1  0  0  0  0
 15 20  1  0  0  0  0
M  END
> <ref_mols>
x2754_0

> <original SMILES>
O=C(C1CCN(C(CCl)=O)CC1)N(C)C2=CC=CC=C2

> <Chemgauss4>
-8.441025

> <ref_pdb>
x0749_0

> <CYS145-warhead dist minimum (A)>
8.773478

> <CYS145-warhead dist mean (A)>
11.65798

> <CYS145-warhead dist stddev (A)>
0.7540283

$$$$
x2739
  -OEChem-05172015543D

 20 21  0     0  0  0  0  0  0999 V2000
   14.1219   -0.8972   25.3691 C   0  0  0  0  0  0  0  0  0  0  0  0
   13.0289   -0.7092   24.5232 C   0  0  0  0  0  0  0  0  0  0  0  0
   14.2070   -2.0473   26.1538 C   0  0  0  0  0  0  0  0  0  0  0  0
   12.0208   -1.6713   24.4621 C   0  0  0  0  0  0  0  0  0  0  0  0
   13.1989   -3.0094   26.0927 C   0  0  0  0  0  0  0  0  0  0  0  0
   12.1058   -2.8214   25.2469 C   0  0  0  0  0  0  0  0  0  0  0  0
    9.7256   -3.4692   24.8907 C   0  0  0  0  0  0  0  0  0  0  0  0
    5.4805   -4.1395   22.1359 C   0  0  0  0  0  0  0  0  0  0  0  0
    7.3586   -4.1882   25.1579 C   0  0  0  0  0  0  0  0  0  0  0  0
    8.7763   -5.1134   23.2613 C   0  0  0  0  0  0  0  0  0  0  0  0
    6.6577   -3.2908   24.1395 C   0  0  0  0  0  0  0  0  0  0  0  0
    8.0174   -4.1998   22.2979 C   0  0  0  0  0  0  0  0  0  0  0  0
    8.7619   -4.6052   24.7065 C   0  0  0  0  0  0  0  0  0  0  0  0
   11.4757   -5.2226   25.3413 C   0  0  0  0  0  0  0  0  0  0  0  0
    4.2678   -4.4171   22.9882 C   0  0  0  0  0  0  0  0  0  0  0  0
    6.6770   -3.9010   22.8108 N   0  0  0  0  0  0  0  0  0  0  0  0
   11.0584   -3.8209   25.1831 N   0  0  0  0  0  0  0  0  0  0  0  0
    9.2985   -2.3213   24.7436 O   0  0  0  0  0  0  0  0  0  0  0  0
    5.3652   -4.1332   20.9076 O   0  0  0  0  0  0  0  0  0  0  0  0
    4.6219   -5.8752   23.9082 Cl  0  0  0  0  0  0  0  0  0  0  0  0
  1  2  1  0  0  0  0
  1  3  2  0  0  0  0
  2  4  2  0  0  0  0
  3  5  1  0  0  0  0
  4  6  1  0  0  0  0
  5  6  2  0  0  0  0
  6 17  1  0  0  0  0
  7 13  1  0  0  0  0
  7 17  1  0  0  0  0
  7 18  2  0  0  0  0
  8 15  1  0  0  0  0
  8 16  1  0  0  0  0
  8 19  2  0  0  0  0
  9 11  1  0  0  0  0
  9 13  1  0  0  0  0
 10 12  1  0  0  0  0
 10 13  1  0  0  0  0
 11 16  1  0  0  0  0
 12 16  1  0  0  0  0
 14 17  1  0  0  0  0
 15 20  1  0  0  0  0
M  END
> <ref_mols>
x2739_0

> <original SMILES>
O=C(C1CCN(C(CCl)=O)CC1)N(C)C2=CC=CC=C2

> <Chemgauss4>
-8.441025

> <ref_pdb>
x0749_0

> <CYS145-warhead dist minimum (A)>
4.974721

> <CYS145-warhead dist mean (A)>
6.237459

> <CYS145-warhead dist stddev (A)>
0.42569244

$$$$
x2845
  -OEChem-05172015543D

 21 23  0     0  0  0  0  0  0999 V2000
   12.0243   -2.0986   22.9321 C   0  0  0  0  0  0  0  0  0  0  0  0
   11.8667   -0.0532   24.1949 C   0  0  0  0  0  0  0  0  0  0  0  0
   13.4064   -1.9832   22.9759 C   0  0  0  0  0  0  0  0  0  0  0  0
   13.2528    0.0104   24.2069 C   0  0  0  0  0  0  0  0  0  0  0  0
   11.2501   -1.1210   23.5495 C   0  0  0  0  0  0  0  0  0  0  0  0
    7.8866   -3.5120   25.3804 C   0  0  0  0  0  0  0  0  0  0  0  0
    8.3399   -3.0286   22.9690 C   0  0  0  0  0  0  0  0  0  0  0  0
    7.6120   -1.1810   24.5816 C   0  0  0  0  0  0  0  0  0  0  0  0
    9.1284   -1.8389   22.4238 C   0  0  0  0  0  0  0  0  0  0  0  0
    9.0666   -0.6960   24.6418 C   0  0  0  0  0  0  0  0  0  0  0  0
    7.0020   -5.2980   26.8463 C   0  0  0  0  0  0  0  0  0  0  0  0
    6.8056   -5.5996   24.4125 C   0  0  0  0  0  0  0  0  0  0  0  0
    5.5739   -5.8082   26.9755 C   0  0  0  0  0  0  0  0  0  0  0  0
    5.3863   -6.1027   24.6439 C   0  0  0  0  0  0  0  0  0  0  0  0
    7.4953   -2.6605   24.1992 C   0  0  0  0  0  0  0  0  0  0  0  0
   13.9741   -0.9447   23.6043 N   0  3  0  0  0  0  0  0  0  0  0  0
    9.8615   -1.2096   23.5195 N   0  0  0  0  0  0  0  0  0  0  0  0
    7.2217   -4.7287   25.5168 N   0  0  0  0  0  0  0  0  0  0  0  0
    8.7531   -3.1059   26.1588 O   0  0  0  0  0  0  0  0  0  0  0  0
    5.2826   -6.7323   25.9237 O   0  0  0  0  0  0  0  0  0  0  0  0
   14.9914   -0.8785   23.6243 H   0  0  0  0  0  0  0  0  0  0  0  0
  1  3  2  0  0  0  0
  1  5  1  0  0  0  0
  2  4  1  0  0  0  0
  2  5  2  0  0  0  0
  3 16  1  0  0  0  0
  4 16  2  0  0  0  0
  5 17  1  0  0  0  0
  6 15  1  0  0  0  0
  6 18  1  0  0  0  0
  6 19  2  0  0  0  0
  7  9  1  0  0  0  0
  7 15  1  0  0  0  0
  8 10  1  0  0  0  0
  8 15  1  0  0  0  0
  9 17  1  0  0  0  0
 10 17  1  0  0  0  0
 11 13  1  0  0  0  0
 11 18  1  0  0  0  0
 12 14  1  0  0  0  0
 12 18  1  0  0  0  0
 13 20  1  0  0  0  0
 14 20  1  0  0  0  0
 16 21  1  0  0  0  0
M  CHG  1  16   1
M  END
> <ref_mols>
x2845_0

> <original SMILES>
O=C(C1CCN(CC1)C=2C=CN=CC2)N3CCOCC3

> <Chemgauss4>
-8.439287

> <ref_pdb>
x0072_0

$$$$
x2897
  -OEChem-05172015543D

 21 22  0     0  0  0  0  0  0999 V2000
   13.1071    1.0862   23.2705 C   0  0  0  0  0  0  0  0  0  0  0  0
   12.9578    0.0666   22.6544 C   0  0  0  0  0  0  0  0  0  0  0  0
    6.5279   -0.7422   20.0543 C   0  0  0  0  0  0  0  0  0  0  0  0
    7.5871    0.0489   20.4661 C   0  0  0  0  0  0  0  0  0  0  0  0
    6.4035   -2.0511   20.5283 C   0  0  0  0  0  0  0  0  0  0  0  0
    8.5188   -0.4657   21.3614 C   0  0  0  0  0  0  0  0  0  0  0  0
    7.3449   -2.6131   21.4114 C   0  0  0  0  0  0  0  0  0  0  0  0
    8.4191   -1.7885   21.8354 C   0  0  0  0  0  0  0  0  0  0  0  0
    5.2701   -5.9115   23.1195 C   0  0  0  0  0  0  0  0  0  0  0  0
    5.9977   -6.1171   22.0196 C   0  0  0  0  0  0  0  0  0  0  0  0
    6.4357   -4.9460   21.2209 C   0  0  0  0  0  0  0  0  0  0  0  0
   10.6584   -1.8232   23.0282 C   0  0  0  0  0  0  0  0  0  0  0  0
    8.1325   -4.3845   22.9761 C   0  0  0  0  0  0  0  0  0  0  0  0
    8.7648   -3.2384   23.7332 C   0  0  0  0  0  0  0  0  0  0  0  0
   12.7810   -1.1780   21.9021 C   0  0  0  0  0  0  0  0  0  0  0  0
    7.2483   -3.9898   21.8673 N   0  0  0  0  0  0  0  0  0  0  0  0
    9.3420   -2.2757   22.8106 N   0  0  0  0  0  0  0  0  0  0  0  0
   11.3886   -1.5627   21.8727 N   0  0  0  0  0  0  0  0  0  0  0  0
    6.0637   -4.9372   20.0478 O   0  0  0  0  0  0  0  0  0  0  0  0
   11.1610   -1.7403   24.1534 O   0  0  0  0  0  0  0  0  0  0  0  0
   10.9260   -1.6458   20.9713 H   0  0  0  0  0  0  0  0  0  0  0  0
  1  2  3  0  0  0  0
  2 15  1  0  0  0  0
  3  4  2  0  0  0  0
  3  5  1  0  0  0  0
  4  6  1  0  0  0  0
  5  7  2  0  0  0  0
  6  8  2  0  0  0  0
  7  8  1  0  0  0  0
  7 16  1  0  0  0  0
  8 17  1  0  0  0  0
  9 10  2  0  0  0  0
 10 11  1  0  0  0  0
 11 16  1  0  0  0  0
 11 19  2  0  0  0  0
 12 17  1  0  0  0  0
 12 18  1  0  0  0  0
 12 20  2  0  0  0  0
 13 14  1  0  0  0  0
 13 16  1  0  0  0  0
 14 17  1  0  0  0  0
 15 18  1  0  0  0  0
 18 21  1  0  0  0  0
M  END
> <ref_mols>
x2897_0

> <original SMILES>
O=C(C=C)N(CCN1C(NCC#C)=O)C2=C1C=CC=C2

> <Chemgauss4>
-8.436320

> <ref_pdb>
x0831_0

$$$$
x0808
  -OEChem-05172015543D

 19 20  0     0  0  0  0  0  0999 V2000
    8.0200   -6.2611   23.4916 C   0  0  0  0  0  0  0  0  0  0  0  0
    6.8994   -6.4183   22.6761 C   0  0  0  0  0  0  0  0  0  0  0  0
    8.6107   -5.0052   23.6308 C   0  0  0  0  0  0  0  0  0  0  0  0
    6.3695   -5.3195   21.9996 C   0  0  0  0  0  0  0  0  0  0  0  0
    8.0808   -3.9064   22.9544 C   0  0  0  0  0  0  0  0  0  0  0  0
    6.9602   -4.0636   22.1388 C   0  0  0  0  0  0  0  0  0  0  0  0
   11.4892   -0.7108   25.5054 C   0  0  0  0  0  0  0  0  0  0  0  0
    8.2616   -1.7527   24.1788 C   0  0  0  0  0  0  0  0  0  0  0  0
   10.0153   -2.3667   22.5680 C   0  0  0  0  0  0  0  0  0  0  0  0
    9.2834   -1.8174   25.3172 C   0  0  0  0  0  0  0  0  0  0  0  0
   11.0513   -2.4392   23.6898 C   0  0  0  0  0  0  0  0  0  0  0  0
   12.9673   -1.0033   25.4434 C   0  0  0  0  0  0  0  0  0  0  0  0
    8.6868   -2.6649   23.1106 N   0  0  0  0  0  0  0  0  0  0  0  0
   10.6489   -1.5930   24.8260 N   0  0  0  0  0  0  0  0  0  0  0  0
    6.3990   -2.9596   21.4375 N   0  0  0  0  0  0  0  0  0  0  0  0
   11.0951    0.2734   26.1362 O   0  0  0  0  0  0  0  0  0  0  0  0
    5.3916   -3.1499   20.7166 O   0  0  0  0  0  0  0  0  0  0  0  0
    6.9291   -1.8309   21.5625 O   0  0  0  0  0  0  0  0  0  0  0  0
   13.1982   -2.5837   26.1819 Cl  0  0  0  0  0  0  0  0  0  0  0  0
  1  2  1  0  0  0  0
  1  3  2  0  0  0  0
  2  4  2  0  0  0  0
  3  5  1  0  0  0  0
  4  6  1  0  0  0  0
  5  6  2  0  0  0  0
  5 13  1  0  0  0  0
  6 15  1  0  0  0  0
  7 12  1  0  0  0  0
  7 14  1  0  0  0  0
  7 16  2  0  0  0  0
  8 10  1  0  0  0  0
  8 13  1  0  0  0  0
  9 11  1  0  0  0  0
  9 13  1  0  0  0  0
 10 14  1  0  0  0  0
 11 14  1  0  0  0  0
 12 19  1  0  0  0  0
 15 17  2  0  0  0  0
 15 18  2  0  0  0  0
M  END
> <ref_mols>
x0808_0

> <original SMILES>
[O-][N+](=O)c1ccccc1N2CCN(CC2)C(=O)CCl

> <Chemgauss4>
-8.431313

> <ref_pdb>
x0749_0

$$$$
x0734
  -OEChem-05172015543D

 19 20  0     0  0  0  0  0  0999 V2000
    8.0200   -6.2611   23.4916 C   0  0  0  0  0  0  0  0  0  0  0  0
    6.8994   -6.4183   22.6761 C   0  0  0  0  0  0  0  0  0  0  0  0
    8.6107   -5.0052   23.6308 C   0  0  0  0  0  0  0  0  0  0  0  0
    6.3695   -5.3195   21.9996 C   0  0  0  0  0  0  0  0  0  0  0  0
    8.0808   -3.9064   22.9544 C   0  0  0  0  0  0  0  0  0  0  0  0
    6.9602   -4.0636   22.1388 C   0  0  0  0  0  0  0  0  0  0  0  0
   11.4892   -0.7108   25.5054 C   0  0  0  0  0  0  0  0  0  0  0  0
    8.2616   -1.7527   24.1788 C   0  0  0  0  0  0  0  0  0  0  0  0
   10.0153   -2.3667   22.5680 C   0  0  0  0  0  0  0  0  0  0  0  0
    9.2834   -1.8174   25.3172 C   0  0  0  0  0  0  0  0  0  0  0  0
   11.0513   -2.4392   23.6898 C   0  0  0  0  0  0  0  0  0  0  0  0
   12.9673   -1.0033   25.4434 C   0  0  0  0  0  0  0  0  0  0  0  0
    8.6868   -2.6649   23.1106 N   0  0  0  0  0  0  0  0  0  0  0  0
   10.6489   -1.5930   24.8260 N   0  0  0  0  0  0  0  0  0  0  0  0
    6.3990   -2.9596   21.4375 N   0  0  0  0  0  0  0  0  0  0  0  0
   11.0951    0.2734   26.1362 O   0  0  0  0  0  0  0  0  0  0  0  0
    5.3916   -3.1499   20.7166 O   0  0  0  0  0  0  0  0  0  0  0  0
    6.9291   -1.8309   21.5625 O   0  0  0  0  0  0  0  0  0  0  0  0
   13.1982   -2.5837   26.1819 Cl  0  0  0  0  0  0  0  0  0  0  0  0
  1  2  1  0  0  0  0
  1  3  2  0  0  0  0
  2  4  2  0  0  0  0
  3  5  1  0  0  0  0
  4  6  1  0  0  0  0
  5  6  2  0  0  0  0
  5 13  1  0  0  0  0
  6 15  1  0  0  0  0
  7 12  1  0  0  0  0
  7 14  1  0  0  0  0
  7 16  2  0  0  0  0
  8 10  1  0  0  0  0
  8 13  1  0  0  0  0
  9 11  1  0  0  0  0
  9 13  1  0  0  0  0
 10 14  1  0  0  0  0
 11 14  1  0  0  0  0
 12 19  1  0  0  0  0
 15 17  2  0  0  0  0
 15 18  2  0  0  0  0
M  END
> <ref_mols>
x0734_0

> <original SMILES>
[O-][N+](=O)c1ccccc1N2CCN(CC2)C(=O)CCl

> <Chemgauss4>
-8.431313

> <ref_pdb>
x0749_0

> <CYS145-warhead dist minimum (A)>
7.2510886

> <CYS145-warhead dist mean (A)>
9.313277

> <CYS145-warhead dist stddev (A)>
0.3321918

$$$$
x2566
  -OEChem-05172015543D

 29 31  0     1  0  0  0  0  0999 V2000
   14.0033   -1.9636   22.3955 C   0  0  0  0  0  0  0  0  0  0  0  0
   14.3203   -0.6087   22.2995 C   0  0  0  0  0  0  0  0  0  0  0  0
   12.8192   -2.3606   23.0168 C   0  0  0  0  0  0  0  0  0  0  0  0
   13.4532    0.3493   22.8249 C   0  0  0  0  0  0  0  0  0  0  0  0
    8.0709    2.0153   21.2528 C   0  0  0  0  0  0  0  0  0  0  0  0
    8.9452    0.3225   20.3999 C   0  0  0  0  0  0  0  0  0  0  0  0
   11.9521   -1.4026   23.5422 C   0  0  0  0  0  0  0  0  0  0  0  0
   12.2691   -0.0476   23.4462 C   0  0  0  0  0  0  0  0  0  0  0  0
   10.7752    3.1540   24.4319 C   0  0  0  0  0  0  0  0  0  0  0  0
    8.9695   -2.1054   22.4219 C   0  0  0  0  0  0  0  0  0  0  0  0
   10.9224    6.7980   24.9012 C   0  0  0  0  0  0  0  0  0  0  0  0
   11.8527    6.6225   23.7076 C   0  0  0  0  0  0  0  0  0  0  0  0
   10.1194    5.5065   24.8965 C   0  0  0  0  0  0  0  0  0  0  0  0
   12.2087    5.1438   23.7668 C   0  0  0  0  0  0  0  0  0  0  0  0
    9.3171   -1.8199   26.3709 C   0  0  0  0  0  0  0  0  0  0  0  0
    7.1033   -2.2217   20.7094 C   0  0  0  0  0  0  0  0  0  0  0  0
   11.8227    2.2581   23.8208 C   0  0  0  0  0  0  0  0  0  0  0  0
   10.6128   -1.4049   25.6845 C   0  0  0  0  0  0  0  0  0  0  0  0
   10.6894   -1.8457   24.2040 C   0  0  1  0  0  0  0  0  0  0  0  0
    7.7470   -1.4061   21.8310 C   0  0  2  0  0  0  0  0  0  0  0  0
    8.9647    1.6310   20.2947 N   0  0  0  0  0  0  0  0  0  0  0  0
    7.4995    1.0269   21.9442 N   0  0  0  0  0  0  0  0  0  0  0  0
    8.0758   -0.0449   21.3792 N   0  0  0  0  0  0  0  0  0  0  0  0
   11.0347    4.5104   24.3593 N   0  0  0  0  0  0  0  0  0  0  0  0
    9.5190   -1.3913   23.4709 N   0  0  0  0  0  0  0  0  0  0  0  0
    9.7655    2.6718   24.9476 O   0  0  0  0  0  0  0  0  0  0  0  0
    9.3913   -3.1782   21.9953 O   0  0  0  0  0  0  0  0  0  0  0  0
   11.4263    0.9092   23.9593 O   0  0  0  0  0  0  0  0  0  0  0  0
    9.0886   -0.5161   23.7394 H   0  0  0  0  0  0  0  0  0  0  0  0
  1  2  1  0  0  0  0
  1  3  2  0  0  0  0
  2  4  2  0  0  0  0
  3  7  1  0  0  0  0
  4  8  1  0  0  0  0
  5 21  1  0  0  0  0
  5 22  2  0  0  0  0
  6 21  2  0  0  0  0
  6 23  1  0  0  0  0
  7  8  2  0  0  0  0
  7 19  1  0  0  0  0
  8 28  1  0  0  0  0
  9 17  1  0  0  0  0
  9 24  1  0  0  0  0
  9 26  2  0  0  0  0
 10 20  1  0  0  0  0
 10 25  1  0  0  0  0
 10 27  2  0  0  0  0
 11 12  1  0  0  0  0
 11 13  1  0  0  0  0
 12 14  1  0  0  0  0
 13 24  1  0  0  0  0
 14 24  1  0  0  0  0
 15 18  1  0  0  0  0
 16 20  1  0  0  0  0
 17 28  1  0  0  0  0
 18 19  1  0  0  0  0
 19 25  1  0  0  0  0
 20 23  1  0  0  0  0
 22 23  1  0  0  0  0
 25 29  1  0  0  0  0
M  END
> <ref_mols>
x2566_0

> <original SMILES>
CCC(NC(=O)C(C)N1C=NC=N1)C=2C=CC=CC2OCC(=O)N3CCCC3

> <Chemgauss4>
-8.428527

> <ref_pdb>
x0195_0

$$$$
x0861
  -OEChem-05172015543D

 14 15  0     1  0  0  0  0  0999 V2000
   12.9243    1.8888   22.6713 C   0  0  0  0  0  0  0  0  0  0  0  0
   12.3637    3.1471   22.6815 C   0  0  0  0  0  0  0  0  0  0  0  0
   11.3070    1.6518   24.3238 C   0  0  0  0  0  0  0  0  0  0  0  0
   12.3121    1.0225   23.6226 C   0  0  0  0  0  0  0  0  0  0  0  0
   10.5524   -1.1487   22.6954 C   0  0  0  0  0  0  0  0  0  0  0  0
   14.2608   -1.3077   22.1266 C   0  0  0  0  0  0  0  0  0  0  0  0
   14.2022   -0.7237   23.5413 C   0  0  0  0  0  0  0  0  0  0  0  0
   12.8179   -1.5133   21.6761 C   0  0  0  0  0  0  0  0  0  0  0  0
   12.7223   -0.4258   23.8376 C   0  0  2  0  0  0  0  0  0  0  0  0
   11.9940   -1.4553   22.9560 C   0  0  1  0  0  0  0  0  0  0  0  0
    8.4754   -0.8225   23.7742 C   0  0  0  0  0  0  0  0  0  0  0  0
   10.0814   -0.9659   21.5810 O   0  0  0  0  0  0  0  0  0  0  0  0
    9.8739   -1.1085   23.8773 O   0  0  0  0  0  0  0  0  0  0  0  0
   11.1047    3.2803   23.8345 S   0  0  0  0  0  0  0  0  0  0  0  0
  1  2  2  0  0  0  0
  1  4  1  0  0  0  0
  2 14  1  0  0  0  0
  3  4  2  0  0  0  0
  3 14  1  0  0  0  0
  4  9  1  0  0  0  0
  5 10  1  0  0  0  0
  5 12  2  0  0  0  0
  5 13  1  0  0  0  0
  6  7  1  0  0  0  0
  6  8  1  0  0  0  0
  7  9  1  0  0  0  0
  8 10  1  0  0  0  0
  9 10  1  0  0  0  0
 11 13  1  0  0  0  0
M  END
> <ref_mols>
x0861_0

> <original SMILES>
O=C([C@@H]1[C@H](C2=CSC=C2)CCC1)OC

> <Chemgauss4>
-8.425566

> <ref_pdb>
x0195_0

$$$$
x2801
  -OEChem-05172015543D

 28 30  0     0  0  0  0  0  0999 V2000
   10.3688    7.1862   24.1075 C   0  0  0  0  0  0  0  0  0  0  0  0
   11.5934    6.6185   24.4590 C   0  0  0  0  0  0  0  0  0  0  0  0
    9.3436    6.3810   23.6111 C   0  0  0  0  0  0  0  0  0  0  0  0
    5.6391    0.9700   19.7444 C   0  0  0  0  0  0  0  0  0  0  0  0
    5.7171    1.7165   18.5739 C   0  0  0  0  0  0  0  0  0  0  0  0
   11.7929    5.2456   24.3141 C   0  0  0  0  0  0  0  0  0  0  0  0
    9.5431    5.0081   23.4663 C   0  0  0  0  0  0  0  0  0  0  0  0
    6.3433   -0.2243   19.8488 C   0  0  0  0  0  0  0  0  0  0  0  0
    6.5070    1.2291   17.5452 C   0  0  0  0  0  0  0  0  0  0  0  0
   10.7678    4.4404   23.8178 C   0  0  0  0  0  0  0  0  0  0  0  0
    7.1050   -0.6251   18.7629 C   0  0  0  0  0  0  0  0  0  0  0  0
    9.0805   -2.0633   21.0219 C   0  0  0  0  0  0  0  0  0  0  0  0
   12.0487    2.6220   22.7811 C   0  0  0  0  0  0  0  0  0  0  0  0
    9.8287    2.1481   23.8019 C   0  0  0  0  0  0  0  0  0  0  0  0
   12.5185    1.2235   23.1577 C   0  0  0  0  0  0  0  0  0  0  0  0
   10.3019    0.7481   24.1718 C   0  0  0  0  0  0  0  0  0  0  0  0
    7.8784   -1.9096   18.8406 C   0  0  0  0  0  0  0  0  0  0  0  0
   10.6459   -2.0723   22.9593 C   0  0  0  0  0  0  0  0  0  0  0  0
   11.7496   -1.1354   23.4126 C   0  0  0  0  0  0  0  0  0  0  0  0
    7.2054    0.0734   17.6098 N   0  0  0  0  0  0  0  0  0  0  0  0
   10.9676    3.0626   23.6724 N   0  0  0  0  0  0  0  0  0  0  0  0
    9.0618   -1.7795   19.6590 N   0  0  0  0  0  0  0  0  0  0  0  0
   10.3386   -1.8481   21.5290 N   0  0  0  0  0  0  0  0  0  0  0  0
   11.3352    0.2895   23.1750 N   0  3  0  0  0  0  0  0  0  0  0  0
    8.1061   -2.4500   21.6659 O   0  0  0  0  0  0  0  0  0  0  0  0
    9.9213   -1.4659   19.2190 H   0  0  0  0  0  0  0  0  0  0  0  0
   11.1028   -1.5777   20.9459 H   0  0  0  0  0  0  0  0  0  0  0  0
   10.9019    0.3168   22.2415 H   0  0  0  0  0  0  0  0  0  0  0  0
  1  2  1  0  0  0  0
  1  3  2  0  0  0  0
  2  6  2  0  0  0  0
  3  7  1  0  0  0  0
  4  5  1  0  0  0  0
  4  8  2  0  0  0  0
  5  9  2  0  0  0  0
  6 10  1  0  0  0  0
  7 10  2  0  0  0  0
  8 11  1  0  0  0  0
  9 20  1  0  0  0  0
 10 21  1  0  0  0  0
 11 17  1  0  0  0  0
 11 20  2  0  0  0  0
 12 22  1  0  0  0  0
 12 23  1  0  0  0  0
 12 25  2  0  0  0  0
 13 15  1  0  0  0  0
 13 21  1  0  0  0  0
 14 16  1  0  0  0  0
 14 21  1  0  0  0  0
 15 24  1  0  0  0  0
 16 24  1  0  0  0  0
 17 22  1  0  0  0  0
 18 19  1  0  0  0  0
 18 23  1  0  0  0  0
 19 24  1  0  0  0  0
 22 26  1  0  0  0  0
 23 27  1  0  0  0  0
 24 28  1  0  0  0  0
M  CHG  1  24   1
M  END
> <ref_mols>
x2801_0

> <original SMILES>
O=C(NCCN1CCN(CC1)C=2C=CC=CC2)NCC=3C=CC=CN3

> <Chemgauss4>
-8.423624

> <ref_pdb>
x0678_0

$$$$
x0318
  -OEChem-05172015543D

 20 20  0     1  0  0  0  0  0999 V2000
   11.7883    0.3503   23.9787 C   0  0  0  0  0  0  0  0  0  0  0  0
   13.0562   -0.2268   23.7755 C   0  0  0  0  0  0  0  0  0  0  0  0
   11.9732    1.6860   23.7177 C   0  0  0  0  0  0  0  0  0  0  0  0
   11.3654    4.1165   23.4627 C   0  0  0  0  0  0  0  0  0  0  0  0
   10.4146    6.4303   23.2273 C   0  0  0  0  0  0  0  0  0  0  0  0
   10.1257    4.9872   23.6111 C   0  0  1  0  0  0  0  0  0  0  0  0
   13.4306   -1.6436   23.9196 C   0  0  0  0  0  0  0  0  0  0  0  0
   13.9784    0.6690   23.4132 N   0  0  0  0  0  0  0  0  0  0  0  0
   13.2892    1.8225   23.3866 N   0  0  0  0  0  0  0  0  0  0  0  0
   11.0812    2.7843   23.7473 N   0  0  0  0  0  0  0  0  0  0  0  0
    9.0283    4.4806   22.7384 N   0  3  0  0  0  0  0  0  0  0  0  0
   12.4486    4.5917   23.1345 O   0  0  0  0  0  0  0  0  0  0  0  0
   12.3977   -2.4668   24.2969 F   0  0  0  0  0  0  0  0  0  0  0  0
   13.9202   -2.2187   22.7724 F   0  0  0  0  0  0  0  0  0  0  0  0
   14.4069   -1.8553   24.8604 F   0  0  0  0  0  0  0  0  0  0  0  0
   13.7813    2.6699   23.1325 H   0  0  0  0  0  0  0  0  0  0  0  0
   10.1238    2.5584   24.0083 H   0  0  0  0  0  0  0  0  0  0  0  0
    9.2582    3.5530   22.3734 H   0  0  0  0  0  0  0  0  0  0  0  0
    8.8796    5.1107   21.9461 H   0  0  0  0  0  0  0  0  0  0  0  0
    8.1533    4.4121   23.2642 H   0  0  0  0  0  0  0  0  0  0  0  0
  1  2  1  0  0  0  0
  1  3  2  0  0  0  0
  2  7  1  0  0  0  0
  2  8  2  0  0  0  0
  3  9  1  0  0  0  0
  3 10  1  0  0  0  0
  4  6  1  0  0  0  0
  4 10  1  0  0  0  0
  4 12  2  0  0  0  0
  5  6  1  0  0  0  0
  6 11  1  0  0  0  0
  7 13  1  0  0  0  0
  7 14  1  0  0  0  0
  7 15  1  0  0  0  0
  8  9  1  0  0  0  0
  9 16  1  0  0  0  0
 10 17  1  0  0  0  0
 11 18  1  0  0  0  0
 11 19  1  0  0  0  0
 11 20  1  0  0  0  0
M  CHG  1  11   1
M  END
> <ref_mols>
x0318_0

> <original SMILES>
CC(N)C(=O)NC1=CC(=NN1)C(F)(F)F

> <Chemgauss4>
-8.421195

> <ref_pdb>
x0161_0

$$$$
x1142
  -OEChem-05172015543D

 20 20  0     1  0  0  0  0  0999 V2000
   11.7883    0.3503   23.9787 C   0  0  0  0  0  0  0  0  0  0  0  0
   13.0562   -0.2268   23.7755 C   0  0  0  0  0  0  0  0  0  0  0  0
   11.9732    1.6860   23.7177 C   0  0  0  0  0  0  0  0  0  0  0  0
   11.3654    4.1165   23.4627 C   0  0  0  0  0  0  0  0  0  0  0  0
   10.4146    6.4303   23.2273 C   0  0  0  0  0  0  0  0  0  0  0  0
   10.1257    4.9872   23.6111 C   0  0  1  0  0  0  0  0  0  0  0  0
   13.4306   -1.6436   23.9196 C   0  0  0  0  0  0  0  0  0  0  0  0
   13.9784    0.6690   23.4132 N   0  0  0  0  0  0  0  0  0  0  0  0
   13.2892    1.8225   23.3866 N   0  0  0  0  0  0  0  0  0  0  0  0
   11.0812    2.7843   23.7473 N   0  0  0  0  0  0  0  0  0  0  0  0
    9.0283    4.4806   22.7384 N   0  3  0  0  0  0  0  0  0  0  0  0
   12.4486    4.5917   23.1345 O   0  0  0  0  0  0  0  0  0  0  0  0
   12.3977   -2.4668   24.2969 F   0  0  0  0  0  0  0  0  0  0  0  0
   13.9202   -2.2187   22.7724 F   0  0  0  0  0  0  0  0  0  0  0  0
   14.4069   -1.8553   24.8604 F   0  0  0  0  0  0  0  0  0  0  0  0
   13.7813    2.6699   23.1325 H   0  0  0  0  0  0  0  0  0  0  0  0
   10.1238    2.5584   24.0083 H   0  0  0  0  0  0  0  0  0  0  0  0
    9.2582    3.5530   22.3734 H   0  0  0  0  0  0  0  0  0  0  0  0
    8.8796    5.1107   21.9461 H   0  0  0  0  0  0  0  0  0  0  0  0
    8.1533    4.4121   23.2642 H   0  0  0  0  0  0  0  0  0  0  0  0
  1  2  1  0  0  0  0
  1  3  2  0  0  0  0
  2  7  1  0  0  0  0
  2  8  2  0  0  0  0
  3  9  1  0  0  0  0
  3 10  1  0  0  0  0
  4  6  1  0  0  0  0
  4 10  1  0  0  0  0
  4 12  2  0  0  0  0
  5  6  1  0  0  0  0
  6 11  1  0  0  0  0
  7 13  1  0  0  0  0
  7 14  1  0  0  0  0
  7 15  1  0  0  0  0
  8  9  1  0  0  0  0
  9 16  1  0  0  0  0
 10 17  1  0  0  0  0
 11 18  1  0  0  0  0
 11 19  1  0  0  0  0
 11 20  1  0  0  0  0
M  CHG  1  11   1
M  END
> <ref_mols>
x1142_0

> <original SMILES>
CC(N)C(=O)NC1=CC(=NN1)C(F)(F)F

> <Chemgauss4>
-8.421195

> <ref_pdb>
x0161_0

$$$$
x0878
  -OEChem-05172015543D

 16 16  0     1  0  0  0  0  0999 V2000
   10.5280   -3.0685   24.5058 C   0  0  0  0  0  0  0  0  0  0  0  0
    6.6521   -2.7213   21.5090 C   0  0  0  0  0  0  0  0  0  0  0  0
    8.5400   -4.5323   24.0926 C   0  0  0  0  0  0  0  0  0  0  0  0
    8.9158   -2.6566   22.6492 C   0  0  0  0  0  0  0  0  0  0  0  0
    9.6614   -3.7034   23.4681 C   0  0  1  0  0  0  0  0  0  0  0  0
    7.4547   -4.5454   23.0147 C   0  0  2  0  0  0  0  0  0  0  0  0
    6.9677   -1.3627   20.9355 C   0  0  0  0  0  0  0  0  0  0  0  0
    7.6095   -5.7283   22.0602 C   0  0  0  0  0  0  0  0  0  0  0  0
   13.1216   -2.6738   25.6076 C   0  0  0  0  0  0  0  0  0  0  0  0
   13.3548   -0.8267   23.9214 C   0  0  0  0  0  0  0  0  0  0  0  0
   11.5724   -0.6918   25.6858 C   0  0  0  0  0  0  0  0  0  0  0  0
   12.3779   -1.6245   24.7825 C   0  0  0  0  0  0  0  0  0  0  0  0
    7.6346   -3.2727   22.3162 N   0  0  0  0  0  0  0  0  0  0  0  0
   10.3876   -3.2332   25.7101 O   0  0  0  0  0  0  0  0  0  0  0  0
    5.5807   -3.2717   21.2494 O   0  0  0  0  0  0  0  0  0  0  0  0
   11.4741   -2.2964   23.8994 O   0  0  0  0  0  0  0  0  0  0  0  0
  1  5  1  0  0  0  0
  1 14  2  0  0  0  0
  1 16  1  0  0  0  0
  2  7  1  0  0  0  0
  2 13  1  0  0  0  0
  2 15  2  0  0  0  0
  3  5  1  0  0  0  0
  3  6  1  0  0  0  0
  4  5  1  0  0  0  0
  4 13  1  0  0  0  0
  6  8  1  0  0  0  0
  6 13  1  0  0  0  0
  9 12  1  0  0  0  0
 10 12  1  0  0  0  0
 11 12  1  0  0  0  0
 12 16  1  0  0  0  0
M  END
> <ref_mols>
x0878_0

> <original SMILES>
O=C(OC(C)(C)C)[C@@H]1CN(C(C)=O)[C@@H](C)C1

> <Chemgauss4>
-8.419034

> <ref_pdb>
x0749_0

$$$$
x0538
  -OEChem-05172015543D

 17 18  0     0  0  0  0  0  0999 V2000
   13.1480   -1.8540   22.7916 C   0  0  0  0  0  0  0  0  0  0  0  0
   14.2529   -1.1076   22.4012 C   0  0  0  0  0  0  0  0  0  0  0  0
   12.0180   -1.2045   23.2799 C   0  0  0  0  0  0  0  0  0  0  0  0
   10.8662    0.8764   23.8672 C   0  0  0  0  0  0  0  0  0  0  0  0
   14.2254    0.2857   22.4999 C   0  0  0  0  0  0  0  0  0  0  0  0
   10.8702    2.2612   23.9527 C   0  0  0  0  0  0  0  0  0  0  0  0
   11.9905    0.1970   23.3791 C   0  0  0  0  0  0  0  0  0  0  0  0
   13.1086    0.9612   22.9844 C   0  0  0  0  0  0  0  0  0  0  0  0
   12.0102    2.9225   23.5428 C   0  0  0  0  0  0  0  0  0  0  0  0
   12.0788    4.3721   23.6070 C   0  0  0  0  0  0  0  0  0  0  0  0
   11.3154    7.0344   24.8009 C   0  0  0  0  0  0  0  0  0  0  0  0
    9.3343    6.9200   23.2490 C   0  0  0  0  0  0  0  0  0  0  0  0
   10.7844    6.5163   23.4721 C   0  0  0  0  0  0  0  0  0  0  0  0
   13.1155    2.3051   23.0663 N   0  0  0  0  0  0  0  0  0  0  0  0
   10.8765    5.0741   23.4555 N   0  0  0  0  0  0  0  0  0  0  0  0
   13.1705    4.9476   23.7692 O   0  0  0  0  0  0  0  0  0  0  0  0
   10.0235    4.5594   23.2626 H   0  0  0  0  0  0  0  0  0  0  0  0
  1  2  1  0  0  0  0
  1  3  2  0  0  0  0
  2  5  2  0  0  0  0
  3  7  1  0  0  0  0
  4  6  2  0  0  0  0
  4  7  1  0  0  0  0
  5  8  1  0  0  0  0
  6  9  1  0  0  0  0
  7  8  2  0  0  0  0
  8 14  1  0  0  0  0
  9 10  1  0  0  0  0
  9 14  2  0  0  0  0
 10 15  1  0  0  0  0
 10 16  2  0  0  0  0
 11 13  1  0  0  0  0
 12 13  1  0  0  0  0
 13 15  1  0  0  0  0
 15 17  1  0  0  0  0
M  END
> <ref_mols>
x0538_0

> <original SMILES>
CC(C)NC(=O)C=1C=CC=2C=CC=CC2N1

> <Chemgauss4>
-8.411561

> <ref_pdb>
x0195_0

$$$$
x1256
  -OEChem-05172015543D

 17 18  0     0  0  0  0  0  0999 V2000
   13.1480   -1.8540   22.7916 C   0  0  0  0  0  0  0  0  0  0  0  0
   14.2529   -1.1076   22.4012 C   0  0  0  0  0  0  0  0  0  0  0  0
   12.0180   -1.2045   23.2799 C   0  0  0  0  0  0  0  0  0  0  0  0
   10.8662    0.8764   23.8672 C   0  0  0  0  0  0  0  0  0  0  0  0
   14.2254    0.2857   22.4999 C   0  0  0  0  0  0  0  0  0  0  0  0
   10.8702    2.2612   23.9527 C   0  0  0  0  0  0  0  0  0  0  0  0
   11.9905    0.1970   23.3791 C   0  0  0  0  0  0  0  0  0  0  0  0
   13.1086    0.9612   22.9844 C   0  0  0  0  0  0  0  0  0  0  0  0
   12.0102    2.9225   23.5428 C   0  0  0  0  0  0  0  0  0  0  0  0
   12.0788    4.3721   23.6070 C   0  0  0  0  0  0  0  0  0  0  0  0
   11.3154    7.0344   24.8009 C   0  0  0  0  0  0  0  0  0  0  0  0
    9.3343    6.9200   23.2490 C   0  0  0  0  0  0  0  0  0  0  0  0
   10.7844    6.5163   23.4721 C   0  0  0  0  0  0  0  0  0  0  0  0
   13.1155    2.3051   23.0663 N   0  0  0  0  0  0  0  0  0  0  0  0
   10.8765    5.0741   23.4555 N   0  0  0  0  0  0  0  0  0  0  0  0
   13.1705    4.9476   23.7692 O   0  0  0  0  0  0  0  0  0  0  0  0
   10.0235    4.5594   23.2626 H   0  0  0  0  0  0  0  0  0  0  0  0
  1  2  1  0  0  0  0
  1  3  2  0  0  0  0
  2  5  2  0  0  0  0
  3  7  1  0  0  0  0
  4  6  2  0  0  0  0
  4  7  1  0  0  0  0
  5  8  1  0  0  0  0
  6  9  1  0  0  0  0
  7  8  2  0  0  0  0
  8 14  1  0  0  0  0
  9 10  1  0  0  0  0
  9 14  2  0  0  0  0
 10 15  1  0  0  0  0
 10 16  2  0  0  0  0
 11 13  1  0  0  0  0
 12 13  1  0  0  0  0
 13 15  1  0  0  0  0
 15 17  1  0  0  0  0
M  END
> <ref_mols>
x1256_0

> <original SMILES>
CC(C)NC(=O)C=1C=CC=2C=CC=CC2N1

> <Chemgauss4>
-8.411561

> <ref_pdb>
x0195_0

$$$$
x0159
  -OEChem-05172015543D

 19 20  0     0  0  0  0  0  0999 V2000
   10.8337   -4.4605   24.6411 C   0  0  0  0  0  0  0  0  0  0  0  0
    9.1486   -3.2047   23.4493 C   0  0  0  0  0  0  0  0  0  0  0  0
   11.6662   -3.3413   24.6434 C   0  0  0  0  0  0  0  0  0  0  0  0
    9.9811   -2.0855   23.4516 C   0  0  0  0  0  0  0  0  0  0  0  0
    7.6376   -5.6588   21.7517 C   0  0  0  0  0  0  0  0  0  0  0  0
    6.2366   -5.1530   23.6401 C   0  0  0  0  0  0  0  0  0  0  0  0
    6.5129   -5.5335   20.9522 C   0  0  0  0  0  0  0  0  0  0  0  0
    5.1747   -5.0501   22.7560 C   0  0  0  0  0  0  0  0  0  0  0  0
    9.5749   -4.3922   24.0440 C   0  0  0  0  0  0  0  0  0  0  0  0
    7.4883   -5.4634   23.1202 C   0  0  0  0  0  0  0  0  0  0  0  0
   11.2399   -2.1538   24.0487 C   0  0  0  0  0  0  0  0  0  0  0  0
   11.7171    0.3126   24.0608 C   0  0  0  0  0  0  0  0  0  0  0  0
   12.6513    2.4981   24.0681 C   0  0  0  0  0  0  0  0  0  0  0  0
    8.6849   -5.5889   24.0416 C   0  0  0  0  0  0  0  0  0  0  0  0
    5.2809   -5.2331   21.4208 N   0  0  0  0  0  0  0  0  0  0  0  0
   12.0722   -1.0341   24.0510 N   0  0  0  0  0  0  0  0  0  0  0  0
   10.5844    0.7789   24.0687 O   0  0  0  0  0  0  0  0  0  0  0  0
   12.8514    1.0799   24.0596 O   0  0  0  0  0  0  0  0  0  0  0  0
   13.0789   -1.2285   24.0448 H   0  0  0  0  0  0  0  0  0  0  0  0
  1  3  2  0  0  0  0
  1  9  1  0  0  0  0
  2  4  1  0  0  0  0
  2  9  2  0  0  0  0
  3 11  1  0  0  0  0
  4 11  2  0  0  0  0
  5  7  2  0  0  0  0
  5 10  1  0  0  0  0
  6  8  1  0  0  0  0
  6 10  2  0  0  0  0
  7 15  1  0  0  0  0
  8 15  2  0  0  0  0
  9 14  1  0  0  0  0
 10 14  1  0  0  0  0
 11 16  1  0  0  0  0
 12 16  1  0  0  0  0
 12 17  2  0  0  0  0
 12 18  1  0  0  0  0
 13 18  1  0  0  0  0
 16 19  1  0  0  0  0
M  END
> <ref_mols>
x0159_0

> <original SMILES>
COC(=O)NC=1C=CC(CC=2C=CN=CC2)=CC1

> <Chemgauss4>
-8.405703

> <ref_pdb>
x0749_0

$$$$
x0411
  -OEChem-05172015543D

 15 16  0     1  0  0  0  0  0999 V2000
    4.9357    0.9426   19.2751 C   0  0  0  0  0  0  0  0  0  0  0  0
    5.4669    1.1402   17.9864 C   0  0  0  0  0  0  0  0  0  0  0  0
    5.5226   -0.2190   19.7140 C   0  0  0  0  0  0  0  0  0  0  0  0
    6.7574   -2.7501   19.8046 C   0  0  0  0  0  0  0  0  0  0  0  0
    7.0367   -3.4342   22.1655 C   0  0  0  0  0  0  0  0  0  0  0  0
    8.4913   -1.6477   21.3040 C   0  0  0  0  0  0  0  0  0  0  0  0
    6.8357   -2.6006   23.4225 C   0  0  0  0  0  0  0  0  0  0  0  0
    8.2342   -0.8795   22.6029 C   0  0  2  0  0  0  0  0  0  0  0  0
    9.4350   -0.0252   22.9825 C   0  0  0  0  0  0  0  0  0  0  0  0
    7.1735   -1.8156   18.6970 C   0  0  0  0  0  0  0  0  0  0  0  0
    6.3254    0.1810   17.6300 N   0  0  0  0  0  0  0  0  0  0  0  0
    6.3381   -0.6304   18.7012 N   0  0  0  0  0  0  0  0  0  0  0  0
    7.3847   -2.5734   21.0359 N   0  0  0  0  0  0  0  0  0  0  0  0
    5.8989   -3.6075   19.5822 O   0  0  0  0  0  0  0  0  0  0  0  0
    7.9938   -1.8009   23.6755 O   0  0  0  0  0  0  0  0  0  0  0  0
  1  2  1  0  0  0  0
  1  3  2  0  0  0  0
  2 11  2  0  0  0  0
  3 12  1  0  0  0  0
  4 10  1  0  0  0  0
  4 13  1  0  0  0  0
  4 14  2  0  0  0  0
  5  7  1  0  0  0  0
  5 13  1  0  0  0  0
  6  8  1  0  0  0  0
  6 13  1  0  0  0  0
  7 15  1  0  0  0  0
  8  9  1  0  0  0  0
  8 15  1  0  0  0  0
 10 12  1  0  0  0  0
 11 12  1  0  0  0  0
M  END
> <ref_mols>
x0411_0

> <original SMILES>
CC1CN(CCO1)C(=O)CN2C=CC=N2

> <Chemgauss4>
-8.403324

> <ref_pdb>
x0397_0

$$$$
x1132
  -OEChem-05172015543D

 15 16  0     1  0  0  0  0  0999 V2000
    4.9357    0.9426   19.2751 C   0  0  0  0  0  0  0  0  0  0  0  0
    5.4669    1.1402   17.9864 C   0  0  0  0  0  0  0  0  0  0  0  0
    5.5226   -0.2190   19.7140 C   0  0  0  0  0  0  0  0  0  0  0  0
    6.7574   -2.7501   19.8046 C   0  0  0  0  0  0  0  0  0  0  0  0
    7.0367   -3.4342   22.1655 C   0  0  0  0  0  0  0  0  0  0  0  0
    8.4913   -1.6477   21.3040 C   0  0  0  0  0  0  0  0  0  0  0  0
    6.8357   -2.6006   23.4225 C   0  0  0  0  0  0  0  0  0  0  0  0
    8.2342   -0.8795   22.6029 C   0  0  2  0  0  0  0  0  0  0  0  0
    9.4350   -0.0252   22.9825 C   0  0  0  0  0  0  0  0  0  0  0  0
    7.1735   -1.8156   18.6970 C   0  0  0  0  0  0  0  0  0  0  0  0
    6.3254    0.1810   17.6300 N   0  0  0  0  0  0  0  0  0  0  0  0
    6.3381   -0.6304   18.7012 N   0  0  0  0  0  0  0  0  0  0  0  0
    7.3847   -2.5734   21.0359 N   0  0  0  0  0  0  0  0  0  0  0  0
    5.8989   -3.6075   19.5822 O   0  0  0  0  0  0  0  0  0  0  0  0
    7.9938   -1.8009   23.6755 O   0  0  0  0  0  0  0  0  0  0  0  0
  1  2  1  0  0  0  0
  1  3  2  0  0  0  0
  2 11  2  0  0  0  0
  3 12  1  0  0  0  0
  4 10  1  0  0  0  0
  4 13  1  0  0  0  0
  4 14  2  0  0  0  0
  5  7  1  0  0  0  0
  5 13  1  0  0  0  0
  6  8  1  0  0  0  0
  6 13  1  0  0  0  0
  7 15  1  0  0  0  0
  8  9  1  0  0  0  0
  8 15  1  0  0  0  0
 10 12  1  0  0  0  0
 11 12  1  0  0  0  0
M  END
> <ref_mols>
x1132_0

> <original SMILES>
CC1CN(CCO1)C(=O)CN2C=CC=N2

> <Chemgauss4>
-8.403324

> <ref_pdb>
x0397_0

$$$$
x0171
  -OEChem-05172015543D

 15 15  0     0  0  0  0  0  0999 V2000
   13.7259    0.5055   22.3123 C   0  0  0  0  0  0  0  0  0  0  0  0
   12.1201    0.6136   24.1142 C   0  0  0  0  0  0  0  0  0  0  0  0
   13.9859   -0.8290   22.6240 C   0  0  0  0  0  0  0  0  0  0  0  0
   12.3800   -0.7209   24.4259 C   0  0  0  0  0  0  0  0  0  0  0  0
   12.7931    1.2268   23.0575 C   0  0  0  0  0  0  0  0  0  0  0  0
   13.3129   -1.4422   23.6808 C   0  0  0  0  0  0  0  0  0  0  0  0
   10.0182    6.9947   23.2596 C   0  0  0  0  0  0  0  0  0  0  0  0
   12.5108    2.6703   22.7203 C   0  0  0  0  0  0  0  0  0  0  0  0
   11.0817    3.0914   23.0539 C   0  0  0  0  0  0  0  0  0  0  0  0
   10.8075    4.4948   22.6966 N   0  0  0  0  0  0  0  0  0  0  0  0
   12.4734    6.2017   23.6997 O   0  0  0  0  0  0  0  0  0  0  0  0
   10.6151    5.2801   25.1329 O   0  0  0  0  0  0  0  0  0  0  0  0
   13.5604   -2.7246   23.9784 F   0  0  0  0  0  0  0  0  0  0  0  0
   11.1131    5.7213   23.8442 S   0  0  0  0  0  0  0  0  0  0  0  0
   11.0015    4.7203   21.7123 H   0  0  0  0  0  0  0  0  0  0  0  0
  1  3  2  0  0  0  0
  1  5  1  0  0  0  0
  2  4  1  0  0  0  0
  2  5  2  0  0  0  0
  3  6  1  0  0  0  0
  4  6  2  0  0  0  0
  5  8  1  0  0  0  0
  6 13  1  0  0  0  0
  7 14  1  0  0  0  0
  8  9  1  0  0  0  0
  9 10  1  0  0  0  0
 10 14  1  0  0  0  0
 11 14  2  0  0  0  0
 12 14  2  0  0  0  0
 10 15  1  0  0  0  0
M  END
> <ref_mols>
x0171_0

> <original SMILES>
CS(=O)(=O)NCCC=1C=CC(F)=CC1

> <Chemgauss4>
-8.401482

> <ref_pdb>
x0161_0

$$$$
x1243
  -OEChem-05172015543D

 18 18  0     0  0  0  0  0  0999 V2000
   10.0174   -1.8522   22.6534 C   0  0  0  0  0  0  0  0  0  0  0  0
    9.2391   -3.9149   23.6416 C   0  0  0  0  0  0  0  0  0  0  0  0
   11.0792   -1.8198   23.5572 C   0  0  0  0  0  0  0  0  0  0  0  0
   10.3010   -3.8826   24.5454 C   0  0  0  0  0  0  0  0  0  0  0  0
    9.0972   -2.8997   22.6956 C   0  0  0  0  0  0  0  0  0  0  0  0
   11.2211   -2.8350   24.5032 C   0  0  0  0  0  0  0  0  0  0  0  0
    6.7474   -3.4295   21.8973 C   0  0  0  0  0  0  0  0  0  0  0  0
   13.1741   -1.7176   25.3092 C   0  0  0  0  0  0  0  0  0  0  0  0
    6.1351   -3.4410   23.1132 N   0  0  0  0  0  0  0  0  0  0  0  0
    8.0350   -2.9322   21.7916 N   0  0  0  0  0  0  0  0  0  0  0  0
   12.2573   -2.8035   25.3852 O   0  0  0  0  0  0  0  0  0  0  0  0
   12.5469   -0.5379   25.5027 F   0  0  0  0  0  0  0  0  0  0  0  0
   13.7253   -1.6984   24.0743 F   0  0  0  0  0  0  0  0  0  0  0  0
   14.1716   -1.8600   26.2075 F   0  0  0  0  0  0  0  0  0  0  0  0
    5.9682   -4.0774   20.5603 S   0  0  0  0  0  0  0  0  0  0  0  0
    6.5892   -3.0295   23.9221 H   0  0  0  0  0  0  0  0  0  0  0  0
    5.1721   -3.7237   23.2473 H   0  0  0  0  0  0  0  0  0  0  0  0
    8.2192   -2.4979   20.8797 H   0  0  0  0  0  0  0  0  0  0  0  0
  1  3  2  0  0  0  0
  1  5  1  0  0  0  0
  2  4  1  0  0  0  0
  2  5  2  0  0  0  0
  3  6  1  0  0  0  0
  4  6  2  0  0  0  0
  5 10  1  0  0  0  0
  6 11  1  0  0  0  0
  7  9  1  0  0  0  0
  7 10  1  0  0  0  0
  7 15  2  0  0  0  0
  8 11  1  0  0  0  0
  8 12  1  0  0  0  0
  8 13  1  0  0  0  0
  8 14  1  0  0  0  0
  9 16  1  0  0  0  0
  9 17  1  0  0  0  0
 10 18  1  0  0  0  0
M  END
> <ref_mols>
x1243_0

> <original SMILES>
NC(=S)NC=1C=CC(OC(F)(F)F)=CC1

> <Chemgauss4>
-8.400145

> <ref_pdb>
x0749_0

$$$$
x0230
  -OEChem-05172015543D

 18 18  0     0  0  0  0  0  0999 V2000
   10.0174   -1.8522   22.6534 C   0  0  0  0  0  0  0  0  0  0  0  0
    9.2391   -3.9149   23.6416 C   0  0  0  0  0  0  0  0  0  0  0  0
   11.0792   -1.8198   23.5572 C   0  0  0  0  0  0  0  0  0  0  0  0
   10.3010   -3.8826   24.5454 C   0  0  0  0  0  0  0  0  0  0  0  0
    9.0972   -2.8997   22.6956 C   0  0  0  0  0  0  0  0  0  0  0  0
   11.2211   -2.8350   24.5032 C   0  0  0  0  0  0  0  0  0  0  0  0
    6.7474   -3.4295   21.8973 C   0  0  0  0  0  0  0  0  0  0  0  0
   13.1741   -1.7176   25.3092 C   0  0  0  0  0  0  0  0  0  0  0  0
    6.1351   -3.4410   23.1132 N   0  0  0  0  0  0  0  0  0  0  0  0
    8.0350   -2.9322   21.7916 N   0  0  0  0  0  0  0  0  0  0  0  0
   12.2573   -2.8035   25.3852 O   0  0  0  0  0  0  0  0  0  0  0  0
   12.5469   -0.5379   25.5027 F   0  0  0  0  0  0  0  0  0  0  0  0
   13.7253   -1.6984   24.0743 F   0  0  0  0  0  0  0  0  0  0  0  0
   14.1716   -1.8600   26.2075 F   0  0  0  0  0  0  0  0  0  0  0  0
    5.9682   -4.0774   20.5603 S   0  0  0  0  0  0  0  0  0  0  0  0
    6.5892   -3.0295   23.9221 H   0  0  0  0  0  0  0  0  0  0  0  0
    5.1721   -3.7237   23.2473 H   0  0  0  0  0  0  0  0  0  0  0  0
    8.2192   -2.4979   20.8797 H   0  0  0  0  0  0  0  0  0  0  0  0
  1  3  2  0  0  0  0
  1  5  1  0  0  0  0
  2  4  1  0  0  0  0
  2  5  2  0  0  0  0
  3  6  1  0  0  0  0
  4  6  2  0  0  0  0
  5 10  1  0  0  0  0
  6 11  1  0  0  0  0
  7  9  1  0  0  0  0
  7 10  1  0  0  0  0
  7 15  2  0  0  0  0
  8 11  1  0  0  0  0
  8 12  1  0  0  0  0
  8 13  1  0  0  0  0
  8 14  1  0  0  0  0
  9 16  1  0  0  0  0
  9 17  1  0  0  0  0
 10 18  1  0  0  0  0
M  END
> <ref_mols>
x0230_0

> <original SMILES>
NC(=S)NC=1C=CC(OC(F)(F)F)=CC1

> <Chemgauss4>
-8.400145

> <ref_pdb>
x0749_0

$$$$
x2622
  -OEChem-05172015543D

 33 36  0     0  0  0  0  0  0999 V2000
    4.5799    2.6342   21.9569 C   0  0  0  0  0  0  0  0  0  0  0  0
    3.5786    2.7514   20.9961 C   0  0  0  0  0  0  0  0  0  0  0  0
    5.7344    1.8927   21.6870 C   0  0  0  0  0  0  0  0  0  0  0  0
    3.7278    2.1278   19.7607 C   0  0  0  0  0  0  0  0  0  0  0  0
    5.0198   -5.5365   26.8401 C   0  0  0  0  0  0  0  0  0  0  0  0
    5.9026    1.2571   20.4498 C   0  0  0  0  0  0  0  0  0  0  0  0
    6.2217   -4.8766   27.0959 C   0  0  0  0  0  0  0  0  0  0  0  0
    4.7547   -6.0332   25.5639 C   0  0  0  0  0  0  0  0  0  0  0  0
    7.1585   -4.7132   26.0754 C   0  0  0  0  0  0  0  0  0  0  0  0
    5.6915   -5.8698   24.5434 C   0  0  0  0  0  0  0  0  0  0  0  0
    4.8831    1.3865   19.4931 C   0  0  0  0  0  0  0  0  0  0  0  0
    6.8934   -5.2098   24.7991 C   0  0  0  0  0  0  0  0  0  0  0  0
    7.1879   -0.1220   18.8958 C   0  0  0  0  0  0  0  0  0  0  0  0
    7.0894    0.4614   20.0998 C   0  0  0  0  0  0  0  0  0  0  0  0
    6.1117    0.0107   17.8775 C   0  0  0  0  0  0  0  0  0  0  0  0
    8.2466    0.2294   20.9978 C   0  0  0  0  0  0  0  0  0  0  0  0
    7.0201   -1.8039   21.8347 C   0  0  0  0  0  0  0  0  0  0  0  0
    9.2778   -1.2154   22.7037 C   0  0  0  0  0  0  0  0  0  0  0  0
    6.9156   -2.5560   23.1545 C   0  0  0  0  0  0  0  0  0  0  0  0
    9.4159   -2.7209   22.8807 C   0  0  0  0  0  0  0  0  0  0  0  0
    6.4800   -4.3557   28.4719 C   0  0  0  0  0  0  0  0  0  0  0  0
    3.4597   -6.7358   25.3176 C   0  0  0  0  0  0  0  0  0  0  0  0
    8.4433   -4.0019   26.3636 C   0  0  0  0  0  0  0  0  0  0  0  0
    5.3937   -6.4079   23.1790 C   0  0  0  0  0  0  0  0  0  0  0  0
    5.0159    0.7630   18.2400 N   0  0  0  0  0  0  0  0  0  0  0  0
    8.1656   -0.8895   21.8143 N   0  0  0  0  0  0  0  0  0  0  0  0
    8.1709   -3.3004   23.4589 N   0  0  0  0  0  0  0  0  0  0  0  0
    6.2308   -0.5378   16.7839 O   0  0  0  0  0  0  0  0  0  0  0  0
    9.1585    1.0414   20.9167 O   0  0  0  0  0  0  0  0  0  0  0  0
    9.3420   -5.5302   23.9774 O   0  0  0  0  0  0  0  0  0  0  0  0
    7.4843   -5.4760   22.2764 O   0  0  0  0  0  0  0  0  0  0  0  0
    8.0790   -5.0032   23.5078 S   0  0  0  0  0  0  0  0  0  0  0  0
    4.2604    0.8739   17.5697 H   0  0  0  0  0  0  0  0  0  0  0  0
  1  2  1  0  0  0  0
  1  3  2  0  0  0  0
  2  4  2  0  0  0  0
  3  6  1  0  0  0  0
  4 11  1  0  0  0  0
  5  7  1  0  0  0  0
  5  8  2  0  0  0  0
  6 11  2  0  0  0  0
  6 14  1  0  0  0  0
  7  9  2  0  0  0  0
  7 21  1  0  0  0  0
  8 10  1  0  0  0  0
  8 22  1  0  0  0  0
  9 12  1  0  0  0  0
  9 23  1  0  0  0  0
 10 12  2  0  0  0  0
 10 24  1  0  0  0  0
 11 25  1  0  0  0  0
 12 32  1  0  0  0  0
 13 14  2  0  0  0  0
 13 15  1  0  0  0  0
 14 16  1  0  0  0  0
 15 25  1  0  0  0  0
 15 28  2  0  0  0  0
 16 26  1  0  0  0  0
 16 29  2  0  0  0  0
 17 19  1  0  0  0  0
 17 26  1  0  0  0  0
 18 20  1  0  0  0  0
 18 26  1  0  0  0  0
 19 27  1  0  0  0  0
 20 27  1  0  0  0  0
 27 32  1  0  0  0  0
 30 32  2  0  0  0  0
 31 32  2  0  0  0  0
 25 33  1  0  0  0  0
M  END
> <ref_mols>
x2622_0

> <original SMILES>
CC=1C=C(C)C(C)=C(C1C)S(=O)(=O)N2CCN(CC2)C(=O)C3=CC(=O)NC=4C=CC=CC34

> <Chemgauss4>
-8.398966

> <ref_pdb>
x0434_0

$$$$
x0660
  -OEChem-05172015543D

 17 18  0     0  0  0  0  0  0999 V2000
   10.8882   -1.2345   21.5484 C   0  0  0  0  0  0  0  0  0  0  0  0
    8.9434   -0.3900   20.5132 C   0  0  0  0  0  0  0  0  0  0  0  0
    7.0812    0.1906   18.9302 C   0  0  0  0  0  0  0  0  0  0  0  0
   13.8913   -0.6463   24.4793 C   0  0  0  0  0  0  0  0  0  0  0  0
   14.4482   -2.0536   24.2652 C   0  0  0  0  0  0  0  0  0  0  0  0
   13.5230   -0.1202   23.0953 C   0  0  0  0  0  0  0  0  0  0  0  0
   14.3825   -2.3129   22.7630 C   0  0  0  0  0  0  0  0  0  0  0  0
   13.3011   -1.3681   22.2433 C   0  0  0  0  0  0  0  0  0  0  0  0
    5.0299    0.7034   17.8445 C   0  0  0  0  0  0  0  0  0  0  0  0
   11.8971   -1.9447   22.4139 C   0  0  0  0  0  0  0  0  0  0  0  0
   11.1782   -0.4074   20.5667 N   0  0  0  0  0  0  0  0  0  0  0  0
   10.0374    0.0887   19.9601 N   0  0  0  0  0  0  0  0  0  0  0  0
    7.6407   -0.1356   20.1826 N   0  0  0  0  0  0  0  0  0  0  0  0
    7.6891    0.3085   17.8732 O   0  0  0  0  0  0  0  0  0  0  0  0
    5.7281    0.3654   19.0487 O   0  0  0  0  0  0  0  0  0  0  0  0
    9.2109   -1.4778   21.8118 S   0  0  0  0  0  0  0  0  0  0  0  0
    6.9652   -0.1908   20.9688 H   0  0  0  0  0  0  0  0  0  0  0  0
  1 10  1  0  0  0  0
  1 11  2  0  0  0  0
  1 16  1  0  0  0  0
  2 12  2  0  0  0  0
  2 13  1  0  0  0  0
  2 16  1  0  0  0  0
  3 13  1  0  0  0  0
  3 14  2  0  0  0  0
  3 15  1  0  0  0  0
  4  5  1  0  0  0  0
  4  6  1  0  0  0  0
  5  7  1  0  0  0  0
  6  8  1  0  0  0  0
  7  8  1  0  0  0  0
  8 10  1  0  0  0  0
  9 15  1  0  0  0  0
 11 12  1  0  0  0  0
 13 17  1  0  0  0  0
M  END
> <ref_mols>
x0660_0

> <original SMILES>
COC(=O)NC1=NN=C(CC2CCCC2)S1

> <Chemgauss4>
-8.395270

> <ref_pdb>
x0678_0

$$$$
x2509
  -OEChem-05172015543D

 23 25  0     0  0  0  0  0  0999 V2000
    6.0614   -2.9882   19.5855 C   0  0  0  0  0  0  0  0  0  0  0  0
    6.9145   -3.7532   23.1271 C   0  0  0  0  0  0  0  0  0  0  0  0
    9.2109    1.5922   25.6047 C   0  0  0  0  0  0  0  0  0  0  0  0
    6.2185   -3.6997   21.9196 C   0  0  0  0  0  0  0  0  0  0  0  0
    9.9240    0.6151   24.9125 C   0  0  0  0  0  0  0  0  0  0  0  0
    8.1669   -3.1489   23.2377 C   0  0  0  0  0  0  0  0  0  0  0  0
    8.0272   -2.4378   20.9330 C   0  0  0  0  0  0  0  0  0  0  0  0
    9.6824    2.8981   25.5915 C   0  0  0  0  0  0  0  0  0  0  0  0
   12.9886    1.3179   23.0539 C   0  0  0  0  0  0  0  0  0  0  0  0
    6.7748   -3.0421   20.8225 C   0  0  0  0  0  0  0  0  0  0  0  0
   11.0889    1.0099   24.2351 C   0  0  0  0  0  0  0  0  0  0  0  0
   12.0723    0.3636   23.4402 C   0  0  0  0  0  0  0  0  0  0  0  0
    8.7232   -2.4912   22.1406 C   0  0  0  0  0  0  0  0  0  0  0  0
   11.4466    2.3531   24.3054 C   0  0  0  0  0  0  0  0  0  0  0  0
   10.8183   -1.8333   23.3746 C   0  0  0  0  0  0  0  0  0  0  0  0
   12.1153   -1.0694   23.0864 C   0  0  0  0  0  0  0  0  0  0  0  0
    5.4820   -2.9444   18.5810 N   0  0  0  0  0  0  0  0  0  0  0  0
   10.7957    3.3347   24.9579 N   0  0  0  0  0  0  0  0  0  0  0  0
   12.5996    2.5205   23.5845 N   0  0  0  0  0  0  0  0  0  0  0  0
    9.9932   -1.8771   22.2536 N   0  0  0  0  0  0  0  0  0  0  0  0
   10.5973   -2.3195   24.4791 O   0  0  0  0  0  0  0  0  0  0  0  0
   13.0886    3.3966   23.4640 H   0  0  0  0  0  0  0  0  0  0  0  0
   10.3445   -1.4135   21.4182 H   0  0  0  0  0  0  0  0  0  0  0  0
  1 10  1  0  0  0  0
  1 17  3  0  0  0  0
  2  4  1  0  0  0  0
  2  6  2  0  0  0  0
  3  5  2  0  0  0  0
  3  8  1  0  0  0  0
  4 10  2  0  0  0  0
  5 11  1  0  0  0  0
  6 13  1  0  0  0  0
  7 10  1  0  0  0  0
  7 13  2  0  0  0  0
  8 18  2  0  0  0  0
  9 12  2  0  0  0  0
  9 19  1  0  0  0  0
 11 12  1  0  0  0  0
 11 14  2  0  0  0  0
 12 16  1  0  0  0  0
 13 20  1  0  0  0  0
 14 18  1  0  0  0  0
 14 19  1  0  0  0  0
 15 16  1  0  0  0  0
 15 20  1  0  0  0  0
 15 21  2  0  0  0  0
 19 22  1  0  0  0  0
 20 23  1  0  0  0  0
M  END
> <ref_mols>
x2509_0

> <original SMILES>
O=C(CC1=CNC=2N=CC=CC12)NC=3C=CC=C(C#N)C3

> <Chemgauss4>
-8.394180

> <ref_pdb>
x0830_0

$$$$
x2677
  -OEChem-05172015543D

 23 25  0     0  0  0  0  0  0999 V2000
    6.0614   -2.9882   19.5855 C   0  0  0  0  0  0  0  0  0  0  0  0
    6.9145   -3.7532   23.1271 C   0  0  0  0  0  0  0  0  0  0  0  0
    9.2109    1.5922   25.6047 C   0  0  0  0  0  0  0  0  0  0  0  0
    6.2185   -3.6997   21.9196 C   0  0  0  0  0  0  0  0  0  0  0  0
    9.9240    0.6151   24.9125 C   0  0  0  0  0  0  0  0  0  0  0  0
    8.1669   -3.1489   23.2377 C   0  0  0  0  0  0  0  0  0  0  0  0
    8.0272   -2.4378   20.9330 C   0  0  0  0  0  0  0  0  0  0  0  0
    9.6824    2.8981   25.5915 C   0  0  0  0  0  0  0  0  0  0  0  0
   12.9886    1.3179   23.0539 C   0  0  0  0  0  0  0  0  0  0  0  0
    6.7748   -3.0421   20.8225 C   0  0  0  0  0  0  0  0  0  0  0  0
   11.0889    1.0099   24.2351 C   0  0  0  0  0  0  0  0  0  0  0  0
   12.0723    0.3636   23.4402 C   0  0  0  0  0  0  0  0  0  0  0  0
    8.7232   -2.4912   22.1406 C   0  0  0  0  0  0  0  0  0  0  0  0
   11.4466    2.3531   24.3054 C   0  0  0  0  0  0  0  0  0  0  0  0
   10.8183   -1.8333   23.3746 C   0  0  0  0  0  0  0  0  0  0  0  0
   12.1153   -1.0694   23.0864 C   0  0  0  0  0  0  0  0  0  0  0  0
    5.4820   -2.9444   18.5810 N   0  0  0  0  0  0  0  0  0  0  0  0
   10.7957    3.3347   24.9579 N   0  0  0  0  0  0  0  0  0  0  0  0
   12.5996    2.5205   23.5845 N   0  0  0  0  0  0  0  0  0  0  0  0
    9.9932   -1.8771   22.2536 N   0  0  0  0  0  0  0  0  0  0  0  0
   10.5973   -2.3195   24.4791 O   0  0  0  0  0  0  0  0  0  0  0  0
   13.0886    3.3966   23.4640 H   0  0  0  0  0  0  0  0  0  0  0  0
   10.3445   -1.4135   21.4182 H   0  0  0  0  0  0  0  0  0  0  0  0
  1 10  1  0  0  0  0
  1 17  3  0  0  0  0
  2  4  1  0  0  0  0
  2  6  2  0  0  0  0
  3  5  2  0  0  0  0
  3  8  1  0  0  0  0
  4 10  2  0  0  0  0
  5 11  1  0  0  0  0
  6 13  1  0  0  0  0
  7 10  1  0  0  0  0
  7 13  2  0  0  0  0
  8 18  2  0  0  0  0
  9 12  2  0  0  0  0
  9 19  1  0  0  0  0
 11 12  1  0  0  0  0
 11 14  2  0  0  0  0
 12 16  1  0  0  0  0
 13 20  1  0  0  0  0
 14 18  1  0  0  0  0
 14 19  1  0  0  0  0
 15 16  1  0  0  0  0
 15 20  1  0  0  0  0
 15 21  2  0  0  0  0
 19 22  1  0  0  0  0
 20 23  1  0  0  0  0
M  END
> <ref_mols>
x2677_0

> <original SMILES>
O=C(CC1=CNC=2N=CC=CC12)NC=3C=CC=C(C#N)C3

> <Chemgauss4>
-8.394180

> <ref_pdb>
x0830_0

> <CYS145-warhead dist minimum (A)>
7.3946447

> <CYS145-warhead dist mean (A)>
9.602009

> <CYS145-warhead dist stddev (A)>
0.7174107

$$$$
x0158
  -OEChem-05172015543D

 12 12  0     0  0  0  0  0  0999 V2000
   12.7652   -1.6329   22.8729 C   0  0  0  0  0  0  0  0  0  0  0  0
   11.8519   -0.7359   23.7026 C   0  0  0  0  0  0  0  0  0  0  0  0
   14.1759   -1.0607   22.7755 C   0  0  0  0  0  0  0  0  0  0  0  0
   11.8397    0.6972   23.1755 C   0  0  0  0  0  0  0  0  0  0  0  0
   14.1677    0.3720   22.2470 C   0  0  0  0  0  0  0  0  0  0  0  0
   13.2567    1.2796   23.0846 C   0  0  0  0  0  0  0  0  0  0  0  0
   11.6460    5.9935   23.5587 C   0  0  0  0  0  0  0  0  0  0  0  0
   13.2230    2.6926   22.5052 C   0  0  0  0  0  0  0  0  0  0  0  0
   12.4225    3.6251   23.3956 C   0  0  0  0  0  0  0  0  0  0  0  0
   12.3798    4.9676   22.7679 N   0  3  0  0  0  0  0  0  0  0  0  0
   11.9490    4.8944   21.8344 H   0  0  0  0  0  0  0  0  0  0  0  0
   13.3420    5.2984   22.6032 H   0  0  0  0  0  0  0  0  0  0  0  0
  1  2  1  0  0  0  0
  1  3  1  0  0  0  0
  2  4  1  0  0  0  0
  3  5  1  0  0  0  0
  4  6  1  0  0  0  0
  5  6  1  0  0  0  0
  6  8  1  0  0  0  0
  7 10  1  0  0  0  0
  8  9  1  0  0  0  0
  9 10  1  0  0  0  0
 10 11  1  0  0  0  0
 10 12  1  0  0  0  0
M  CHG  1  10   1
M  END
> <ref_mols>
x0158_0

> <original SMILES>
CNCCC1CCCCC1

> <Chemgauss4>
-8.391209

> <ref_pdb>
x0195_0

$$$$
x2839
  -OEChem-05172015543D

 16 16  0     0  0  0  0  0  0999 V2000
   14.1734   -1.1905   22.1614 C   0  0  0  0  0  0  0  0  0  0  0  0
   13.2525   -2.0120   22.8116 C   0  0  0  0  0  0  0  0  0  0  0  0
   14.0406    0.1964   22.2292 C   0  0  0  0  0  0  0  0  0  0  0  0
   12.1986   -1.4466   23.5294 C   0  0  0  0  0  0  0  0  0  0  0  0
   12.9867    0.7618   22.9471 C   0  0  0  0  0  0  0  0  0  0  0  0
   12.0657   -0.0597   23.5972 C   0  0  0  0  0  0  0  0  0  0  0  0
   10.6842    6.5550   23.6362 C   0  0  0  0  0  0  0  0  0  0  0  0
   12.8586    2.2641   23.0092 C   0  0  0  0  0  0  0  0  0  0  0  0
   11.5274    2.7714   22.4601 C   0  0  0  0  0  0  0  0  0  0  0  0
   11.4223    4.2410   22.5002 N   0  0  0  0  0  0  0  0  0  0  0  0
   12.9347    5.3764   24.2660 O   0  0  0  0  0  0  0  0  0  0  0  0
   10.7594    4.3196   24.9788 O   0  0  0  0  0  0  0  0  0  0  0  0
   11.0302    0.4764   24.3019 O   0  0  0  0  0  0  0  0  0  0  0  0
   11.5484    5.0444   24.0013 S   0  0  0  0  0  0  0  0  0  0  0  0
   11.8365    4.7114   21.6849 H   0  0  0  0  0  0  0  0  0  0  0  0
   10.4874   -0.2286   24.6883 H   0  0  0  0  0  0  0  0  0  0  0  0
  1  2  1  0  0  0  0
  1  3  2  0  0  0  0
  2  4  2  0  0  0  0
  3  5  1  0  0  0  0
  4  6  1  0  0  0  0
  5  6  2  0  0  0  0
  5  8  1  0  0  0  0
  6 13  1  0  0  0  0
  7 14  1  0  0  0  0
  8  9  1  0  0  0  0
  9 10  1  0  0  0  0
 10 14  1  0  0  0  0
 11 14  2  0  0  0  0
 12 14  2  0  0  0  0
 10 15  1  0  0  0  0
 13 16  1  0  0  0  0
M  END
> <ref_mols>
x2839_0

> <original SMILES>
CS(=O)(=O)NCCC=1C=CC=CC1O

> <Chemgauss4>
-8.386959

> <ref_pdb>
x0195_0

$$$$
x0503
  -OEChem-05172015543D

 16 17  0     1  0  0  0  0  0999 V2000
    8.5867   -5.9749   23.6368 C   0  0  0  0  0  0  0  0  0  0  0  0
    7.7441   -6.2444   22.5861 C   0  0  0  0  0  0  0  0  0  0  0  0
    8.7803   -4.5815   23.5843 C   0  0  0  0  0  0  0  0  0  0  0  0
    9.6098   -3.7496   24.4936 C   0  0  0  0  0  0  0  0  0  0  0  0
   13.1294   -0.8950   26.1704 C   0  0  0  0  0  0  0  0  0  0  0  0
   13.7024   -2.2894   26.1208 C   0  0  0  0  0  0  0  0  0  0  0  0
   12.5899   -0.7309   24.7678 C   0  0  0  0  0  0  0  0  0  0  0  0
   12.7294   -3.0204   25.2078 C   0  0  1  0  0  0  0  0  0  0  0  0
    6.6572   -4.8159   20.8374 C   0  0  0  0  0  0  0  0  0  0  0  0
   11.6045   -3.7083   25.9687 C   0  0  0  0  0  0  0  0  0  0  0  0
    8.1145   -4.0059   22.5796 N   0  0  0  0  0  0  0  0  0  0  0  0
    7.4944   -5.0428   21.9910 N   0  0  0  0  0  0  0  0  0  0  0  0
   10.7254   -4.3690   25.0579 N   0  0  0  0  0  0  0  0  0  0  0  0
    9.2743   -2.5898   24.7189 O   0  0  0  0  0  0  0  0  0  0  0  0
   12.1493   -2.0276   24.3432 O   0  0  0  0  0  0  0  0  0  0  0  0
   10.8936   -5.3589   24.8628 H   0  0  0  0  0  0  0  0  0  0  0  0
  1  2  2  0  0  0  0
  1  3  1  0  0  0  0
  2 12  1  0  0  0  0
  3  4  1  0  0  0  0
  3 11  2  0  0  0  0
  4 13  1  0  0  0  0
  4 14  2  0  0  0  0
  5  6  1  0  0  0  0
  5  7  1  0  0  0  0
  6  8  1  0  0  0  0
  7 15  1  0  0  0  0
  8 10  1  0  0  0  0
  8 15  1  0  0  0  0
  9 12  1  0  0  0  0
 10 13  1  0  0  0  0
 11 12  1  0  0  0  0
 13 16  1  0  0  0  0
M  END
> <ref_mols>
x0503_0

> <original SMILES>
CN1C=CC(=N1)C(=O)NC[C@@H]2CCCO2

> <Chemgauss4>
-8.386631

> <ref_pdb>
x0749_0

$$$$
x1187
  -OEChem-05172015543D

 16 17  0     1  0  0  0  0  0999 V2000
    8.5867   -5.9749   23.6368 C   0  0  0  0  0  0  0  0  0  0  0  0
    7.7441   -6.2444   22.5861 C   0  0  0  0  0  0  0  0  0  0  0  0
    8.7803   -4.5815   23.5843 C   0  0  0  0  0  0  0  0  0  0  0  0
    9.6098   -3.7496   24.4936 C   0  0  0  0  0  0  0  0  0  0  0  0
   13.1294   -0.8950   26.1704 C   0  0  0  0  0  0  0  0  0  0  0  0
   13.7024   -2.2894   26.1208 C   0  0  0  0  0  0  0  0  0  0  0  0
   12.5899   -0.7309   24.7678 C   0  0  0  0  0  0  0  0  0  0  0  0
   12.7294   -3.0204   25.2078 C   0  0  1  0  0  0  0  0  0  0  0  0
    6.6572   -4.8159   20.8374 C   0  0  0  0  0  0  0  0  0  0  0  0
   11.6045   -3.7083   25.9687 C   0  0  0  0  0  0  0  0  0  0  0  0
    8.1145   -4.0059   22.5796 N   0  0  0  0  0  0  0  0  0  0  0  0
    7.4944   -5.0428   21.9910 N   0  0  0  0  0  0  0  0  0  0  0  0
   10.7254   -4.3690   25.0579 N   0  0  0  0  0  0  0  0  0  0  0  0
    9.2743   -2.5898   24.7189 O   0  0  0  0  0  0  0  0  0  0  0  0
   12.1493   -2.0276   24.3432 O   0  0  0  0  0  0  0  0  0  0  0  0
   10.8936   -5.3589   24.8628 H   0  0  0  0  0  0  0  0  0  0  0  0
  1  2  2  0  0  0  0
  1  3  1  0  0  0  0
  2 12  1  0  0  0  0
  3  4  1  0  0  0  0
  3 11  2  0  0  0  0
  4 13  1  0  0  0  0
  4 14  2  0  0  0  0
  5  6  1  0  0  0  0
  5  7  1  0  0  0  0
  6  8  1  0  0  0  0
  7 15  1  0  0  0  0
  8 10  1  0  0  0  0
  8 15  1  0  0  0  0
  9 12  1  0  0  0  0
 10 13  1  0  0  0  0
 11 12  1  0  0  0  0
 13 16  1  0  0  0  0
M  END
> <ref_mols>
x1187_0

> <original SMILES>
CN1C=CC(=N1)C(=O)NC[C@@H]2CCCO2

> <Chemgauss4>
-8.386631

> <ref_pdb>
x0749_0

$$$$
x1106
  -OEChem-05172015543D

 18 19  0     0  0  0  0  0  0999 V2000
   13.3351   -2.3959   25.4516 C   0  0  0  0  0  0  0  0  0  0  0  0
   12.4136   -3.4089   25.7169 C   0  0  0  0  0  0  0  0  0  0  0  0
   13.0544   -1.4345   24.4807 C   0  0  0  0  0  0  0  0  0  0  0  0
   11.2116   -3.4607   25.0111 C   0  0  0  0  0  0  0  0  0  0  0  0
   11.8524   -1.4863   23.7749 C   0  0  0  0  0  0  0  0  0  0  0  0
   10.9310   -2.4993   24.0401 C   0  0  0  0  0  0  0  0  0  0  0  0
    7.7442   -3.4459   22.2351 C   0  0  0  0  0  0  0  0  0  0  0  0
    6.7661   -4.2842   21.7386 C   0  0  0  0  0  0  0  0  0  0  0  0
    8.9619   -3.7094   23.0207 C   0  0  0  0  0  0  0  0  0  0  0  0
    6.7104   -5.7517   21.8937 C   0  0  0  0  0  0  0  0  0  0  0  0
   11.1585    0.8867   23.3580 C   0  0  0  0  0  0  0  0  0  0  0  0
   11.5786   -0.4433   22.7404 C   0  0  0  0  0  0  0  0  0  0  0  0
    5.7477   -3.6618   21.0340 N   0  0  0  0  0  0  0  0  0  0  0  0
    5.9257   -2.3514   20.9793 N   0  0  0  0  0  0  0  0  0  0  0  0
    9.7217   -2.5683   23.3437 N   0  0  0  0  0  0  0  0  0  0  0  0
    9.2818   -4.8562   23.3263 O   0  0  0  0  0  0  0  0  0  0  0  0
    7.3146   -1.8507   21.7709 S   0  0  0  0  0  0  0  0  0  0  0  0
    9.3374   -1.6718   23.0267 H   0  0  0  0  0  0  0  0  0  0  0  0
  1  2  1  0  0  0  0
  1  3  2  0  0  0  0
  2  4  2  0  0  0  0
  3  5  1  0  0  0  0
  4  6  1  0  0  0  0
  5  6  2  0  0  0  0
  5 12  1  0  0  0  0
  6 15  1  0  0  0  0
  7  8  2  0  0  0  0
  7  9  1  0  0  0  0
  7 17  1  0  0  0  0
  8 10  1  0  0  0  0
  8 13  1  0  0  0  0
  9 15  1  0  0  0  0
  9 16  2  0  0  0  0
 11 12  1  0  0  0  0
 13 14  2  0  0  0  0
 14 17  1  0  0  0  0
 15 18  1  0  0  0  0
M  END
> <ref_mols>
x1106_0

> <original SMILES>
CCC=1C=CC=CC1NC(=O)C=2SN=NC2C

> <Chemgauss4>
-8.385263

> <ref_pdb>
x0749_0

$$$$
x0359
  -OEChem-05172015543D

 18 19  0     0  0  0  0  0  0999 V2000
   13.3351   -2.3959   25.4516 C   0  0  0  0  0  0  0  0  0  0  0  0
   12.4136   -3.4089   25.7169 C   0  0  0  0  0  0  0  0  0  0  0  0
   13.0544   -1.4345   24.4807 C   0  0  0  0  0  0  0  0  0  0  0  0
   11.2116   -3.4607   25.0111 C   0  0  0  0  0  0  0  0  0  0  0  0
   11.8524   -1.4863   23.7749 C   0  0  0  0  0  0  0  0  0  0  0  0
   10.9310   -2.4993   24.0401 C   0  0  0  0  0  0  0  0  0  0  0  0
    7.7442   -3.4459   22.2351 C   0  0  0  0  0  0  0  0  0  0  0  0
    6.7661   -4.2842   21.7386 C   0  0  0  0  0  0  0  0  0  0  0  0
    8.9619   -3.7094   23.0207 C   0  0  0  0  0  0  0  0  0  0  0  0
    6.7104   -5.7517   21.8937 C   0  0  0  0  0  0  0  0  0  0  0  0
   11.1585    0.8867   23.3580 C   0  0  0  0  0  0  0  0  0  0  0  0
   11.5786   -0.4433   22.7404 C   0  0  0  0  0  0  0  0  0  0  0  0
    5.7477   -3.6618   21.0340 N   0  0  0  0  0  0  0  0  0  0  0  0
    5.9257   -2.3514   20.9793 N   0  0  0  0  0  0  0  0  0  0  0  0
    9.7217   -2.5683   23.3437 N   0  0  0  0  0  0  0  0  0  0  0  0
    9.2818   -4.8562   23.3263 O   0  0  0  0  0  0  0  0  0  0  0  0
    7.3146   -1.8507   21.7709 S   0  0  0  0  0  0  0  0  0  0  0  0
    9.3374   -1.6718   23.0267 H   0  0  0  0  0  0  0  0  0  0  0  0
  1  2  1  0  0  0  0
  1  3  2  0  0  0  0
  2  4  2  0  0  0  0
  3  5  1  0  0  0  0
  4  6  1  0  0  0  0
  5  6  2  0  0  0  0
  5 12  1  0  0  0  0
  6 15  1  0  0  0  0
  7  8  2  0  0  0  0
  7  9  1  0  0  0  0
  7 17  1  0  0  0  0
  8 10  1  0  0  0  0
  8 13  1  0  0  0  0
  9 15  1  0  0  0  0
  9 16  2  0  0  0  0
 11 12  1  0  0  0  0
 13 14  2  0  0  0  0
 14 17  1  0  0  0  0
 15 18  1  0  0  0  0
M  END
> <ref_mols>
x0359_0

> <original SMILES>
CCC=1C=CC=CC1NC(=O)C=2SN=NC2C

> <Chemgauss4>
-8.385263

> <ref_pdb>
x0749_0

$$$$
x0312
  -OEChem-05172015543D

 15 15  0     0  0  0  0  0  0999 V2000
    6.2931   -3.1529   22.5169 C   0  0  0  0  0  0  0  0  0  0  0  0
    6.4025   -5.3057   21.4257 C   0  0  0  0  0  0  0  0  0  0  0  0
    6.3156   -3.7825   23.7613 C   0  0  0  0  0  0  0  0  0  0  0  0
    6.4251   -5.9353   22.6702 C   0  0  0  0  0  0  0  0  0  0  0  0
    6.3365   -3.9145   21.3490 C   0  0  0  0  0  0  0  0  0  0  0  0
    6.3816   -5.1737   23.8380 C   0  0  0  0  0  0  0  0  0  0  0  0
    6.3131   -3.2578   20.0517 C   0  0  0  0  0  0  0  0  0  0  0  0
    6.6144   -0.3726   18.6220 C   0  0  0  0  0  0  0  0  0  0  0  0
    8.4160   -2.0362   20.6572 C   0  0  0  0  0  0  0  0  0  0  0  0
    7.3937   -1.6643   18.4401 C   0  0  0  0  0  0  0  0  0  0  0  0
    7.3393   -2.3511   19.7288 N   0  0  0  0  0  0  0  0  0  0  0  0
    6.5542    0.3669   17.5992 O   0  5  0  0  0  0  0  0  0  0  0  0
    5.3817   -3.5512   19.2904 O   0  0  0  0  0  0  0  0  0  0  0  0
    6.1137   -0.2042   19.7698 O   0  0  0  0  0  0  0  0  0  0  0  0
    6.4034   -5.7784   25.0330 F   0  0  0  0  0  0  0  0  0  0  0  0
  1  3  2  0  0  0  0
  1  5  1  0  0  0  0
  2  4  1  0  0  0  0
  2  5  2  0  0  0  0
  3  6  1  0  0  0  0
  4  6  2  0  0  0  0
  5  7  1  0  0  0  0
  6 15  1  0  0  0  0
  7 11  1  0  0  0  0
  7 13  2  0  0  0  0
  8 10  1  0  0  0  0
  8 12  1  0  0  0  0
  8 14  2  0  0  0  0
  9 11  1  0  0  0  0
 10 11  1  0  0  0  0
M  CHG  1  12  -1
M  END
> <ref_mols>
x0312_0

> <original SMILES>
CN(CC(=O)O)C(=O)C=1C=CC(F)=CC1

> <Chemgauss4>
-8.384836

> <ref_pdb>
x0397_0

$$$$
x1391
  -OEChem-05172015543D

 21 22  0     0  0  0  0  0  0999 V2000
   12.1584   -1.3605   22.5743 C   0  0  0  0  0  0  0  0  0  0  0  0
   12.5711    2.1763   23.6256 C   0  0  0  0  0  0  0  0  0  0  0  0
   11.4464    2.3637   24.4291 C   0  0  0  0  0  0  0  0  0  0  0  0
   12.7960    0.9412   23.0177 C   0  0  0  0  0  0  0  0  0  0  0  0
   10.5466    1.3159   24.6247 C   0  0  0  0  0  0  0  0  0  0  0  0
   11.8963   -0.1066   23.2134 C   0  0  0  0  0  0  0  0  0  0  0  0
   10.7716    0.0807   24.0169 C   0  0  0  0  0  0  0  0  0  0  0  0
    6.2133   -1.9756   19.4980 C   0  0  0  0  0  0  0  0  0  0  0  0
    7.9254   -0.5358   20.6698 C   0  0  0  0  0  0  0  0  0  0  0  0
    6.9831   -2.5542   21.7755 C   0  0  0  0  0  0  0  0  0  0  0  0
    8.3465   -0.2207   22.0996 C   0  0  0  0  0  0  0  0  0  0  0  0
    8.3680   -2.7228   22.3863 C   0  0  0  0  0  0  0  0  0  0  0  0
    6.3125   -1.0214   18.3329 C   0  0  0  0  0  0  0  0  0  0  0  0
   12.3709   -2.3770   22.0562 N   0  0  0  0  0  0  0  0  0  0  0  0
    7.0170   -1.6844   20.6007 N   0  0  0  0  0  0  0  0  0  0  0  0
    8.9935   -1.4092   22.7163 N   0  0  0  0  0  0  0  0  0  0  0  0
    5.4472   -2.9397   19.4333 O   0  0  0  0  0  0  0  0  0  0  0  0
   10.3369   -2.4003   24.6718 O   0  0  0  0  0  0  0  0  0  0  0  0
    8.5512   -0.6863   25.1421 O   0  0  0  0  0  0  0  0  0  0  0  0
    9.6021   -1.2114   24.2973 S   0  0  0  0  0  0  0  0  0  0  0  0
    5.0800    0.2099   18.5838 Cl  0  0  0  0  0  0  0  0  0  0  0  0
  1  6  1  0  0  0  0
  1 14  3  0  0  0  0
  2  3  1  0  0  0  0
  2  4  2  0  0  0  0
  3  5  2  0  0  0  0
  4  6  1  0  0  0  0
  5  7  1  0  0  0  0
  6  7  2  0  0  0  0
  7 20  1  0  0  0  0
  8 13  1  0  0  0  0
  8 15  1  0  0  0  0
  8 17  2  0  0  0  0
  9 11  1  0  0  0  0
  9 15  1  0  0  0  0
 10 12  1  0  0  0  0
 10 15  1  0  0  0  0
 11 16  1  0  0  0  0
 12 16  1  0  0  0  0
 13 21  1  0  0  0  0
 16 20  1  0  0  0  0
 18 20  2  0  0  0  0
 19 20  2  0  0  0  0
M  END
> <ref_mols>
x1391_0

> <original SMILES>
ClCC(=O)N1CCN(CC1)S(=O)(=O)c2ccccc2C#N

> <Chemgauss4>
-8.382928

> <ref_pdb>
x0831_0

$$$$
x0700
  -OEChem-05172015543D

 21 22  0     0  0  0  0  0  0999 V2000
   12.1584   -1.3605   22.5743 C   0  0  0  0  0  0  0  0  0  0  0  0
   12.5711    2.1763   23.6256 C   0  0  0  0  0  0  0  0  0  0  0  0
   11.4464    2.3637   24.4291 C   0  0  0  0  0  0  0  0  0  0  0  0
   12.7960    0.9412   23.0177 C   0  0  0  0  0  0  0  0  0  0  0  0
   10.5466    1.3159   24.6247 C   0  0  0  0  0  0  0  0  0  0  0  0
   11.8963   -0.1066   23.2134 C   0  0  0  0  0  0  0  0  0  0  0  0
   10.7716    0.0807   24.0169 C   0  0  0  0  0  0  0  0  0  0  0  0
    6.2133   -1.9756   19.4980 C   0  0  0  0  0  0  0  0  0  0  0  0
    7.9254   -0.5358   20.6698 C   0  0  0  0  0  0  0  0  0  0  0  0
    6.9831   -2.5542   21.7755 C   0  0  0  0  0  0  0  0  0  0  0  0
    8.3465   -0.2207   22.0996 C   0  0  0  0  0  0  0  0  0  0  0  0
    8.3680   -2.7228   22.3863 C   0  0  0  0  0  0  0  0  0  0  0  0
    6.3125   -1.0214   18.3329 C   0  0  0  0  0  0  0  0  0  0  0  0
   12.3709   -2.3770   22.0562 N   0  0  0  0  0  0  0  0  0  0  0  0
    7.0170   -1.6844   20.6007 N   0  0  0  0  0  0  0  0  0  0  0  0
    8.9935   -1.4092   22.7163 N   0  0  0  0  0  0  0  0  0  0  0  0
    5.4472   -2.9397   19.4333 O   0  0  0  0  0  0  0  0  0  0  0  0
   10.3369   -2.4003   24.6718 O   0  0  0  0  0  0  0  0  0  0  0  0
    8.5512   -0.6863   25.1421 O   0  0  0  0  0  0  0  0  0  0  0  0
    9.6021   -1.2114   24.2973 S   0  0  0  0  0  0  0  0  0  0  0  0
    5.0800    0.2099   18.5838 Cl  0  0  0  0  0  0  0  0  0  0  0  0
  1  6  1  0  0  0  0
  1 14  3  0  0  0  0
  2  3  1  0  0  0  0
  2  4  2  0  0  0  0
  3  5  2  0  0  0  0
  4  6  1  0  0  0  0
  5  7  1  0  0  0  0
  6  7  2  0  0  0  0
  7 20  1  0  0  0  0
  8 13  1  0  0  0  0
  8 15  1  0  0  0  0
  8 17  2  0  0  0  0
  9 11  1  0  0  0  0
  9 15  1  0  0  0  0
 10 12  1  0  0  0  0
 10 15  1  0  0  0  0
 11 16  1  0  0  0  0
 12 16  1  0  0  0  0
 13 21  1  0  0  0  0
 16 20  1  0  0  0  0
 18 20  2  0  0  0  0
 19 20  2  0  0  0  0
M  END
> <ref_mols>
x0700_0

> <original SMILES>
ClCC(=O)N1CCN(CC1)S(=O)(=O)c2ccccc2C#N

> <Chemgauss4>
-8.382928

> <ref_pdb>
x0831_0

$$$$
x1335
  -OEChem-05172015543D

 21 22  0     0  0  0  0  0  0999 V2000
   12.1584   -1.3605   22.5743 C   0  0  0  0  0  0  0  0  0  0  0  0
   12.5711    2.1763   23.6256 C   0  0  0  0  0  0  0  0  0  0  0  0
   11.4464    2.3637   24.4291 C   0  0  0  0  0  0  0  0  0  0  0  0
   12.7960    0.9412   23.0177 C   0  0  0  0  0  0  0  0  0  0  0  0
   10.5466    1.3159   24.6247 C   0  0  0  0  0  0  0  0  0  0  0  0
   11.8963   -0.1066   23.2134 C   0  0  0  0  0  0  0  0  0  0  0  0
   10.7716    0.0807   24.0169 C   0  0  0  0  0  0  0  0  0  0  0  0
    6.2133   -1.9756   19.4980 C   0  0  0  0  0  0  0  0  0  0  0  0
    7.9254   -0.5358   20.6698 C   0  0  0  0  0  0  0  0  0  0  0  0
    6.9831   -2.5542   21.7755 C   0  0  0  0  0  0  0  0  0  0  0  0
    8.3465   -0.2207   22.0996 C   0  0  0  0  0  0  0  0  0  0  0  0
    8.3680   -2.7228   22.3863 C   0  0  0  0  0  0  0  0  0  0  0  0
    6.3125   -1.0214   18.3329 C   0  0  0  0  0  0  0  0  0  0  0  0
   12.3709   -2.3770   22.0562 N   0  0  0  0  0  0  0  0  0  0  0  0
    7.0170   -1.6844   20.6007 N   0  0  0  0  0  0  0  0  0  0  0  0
    8.9935   -1.4092   22.7163 N   0  0  0  0  0  0  0  0  0  0  0  0
    5.4472   -2.9397   19.4333 O   0  0  0  0  0  0  0  0  0  0  0  0
   10.3369   -2.4003   24.6718 O   0  0  0  0  0  0  0  0  0  0  0  0
    8.5512   -0.6863   25.1421 O   0  0  0  0  0  0  0  0  0  0  0  0
    9.6021   -1.2114   24.2973 S   0  0  0  0  0  0  0  0  0  0  0  0
    5.0800    0.2099   18.5838 Cl  0  0  0  0  0  0  0  0  0  0  0  0
  1  6  1  0  0  0  0
  1 14  3  0  0  0  0
  2  3  1  0  0  0  0
  2  4  2  0  0  0  0
  3  5  2  0  0  0  0
  4  6  1  0  0  0  0
  5  7  1  0  0  0  0
  6  7  2  0  0  0  0
  7 20  1  0  0  0  0
  8 13  1  0  0  0  0
  8 15  1  0  0  0  0
  8 17  2  0  0  0  0
  9 11  1  0  0  0  0
  9 15  1  0  0  0  0
 10 12  1  0  0  0  0
 10 15  1  0  0  0  0
 11 16  1  0  0  0  0
 12 16  1  0  0  0  0
 13 21  1  0  0  0  0
 16 20  1  0  0  0  0
 18 20  2  0  0  0  0
 19 20  2  0  0  0  0
M  END
> <ref_mols>
x1335_0

> <original SMILES>
ClCC(=O)N1CCN(CC1)S(=O)(=O)c2ccccc2C#N

> <Chemgauss4>
-8.382928

> <ref_pdb>
x0831_0

> <CYS145-warhead dist minimum (A)>
5.636774

> <CYS145-warhead dist mean (A)>
6.6329875

> <CYS145-warhead dist stddev (A)>
0.3746341

$$$$
x1371
  -OEChem-05172015543D

 21 22  0     0  0  0  0  0  0999 V2000
   12.1584   -1.3605   22.5743 C   0  0  0  0  0  0  0  0  0  0  0  0
   12.5711    2.1763   23.6256 C   0  0  0  0  0  0  0  0  0  0  0  0
   11.4464    2.3637   24.4291 C   0  0  0  0  0  0  0  0  0  0  0  0
   12.7960    0.9412   23.0177 C   0  0  0  0  0  0  0  0  0  0  0  0
   10.5466    1.3159   24.6247 C   0  0  0  0  0  0  0  0  0  0  0  0
   11.8963   -0.1066   23.2134 C   0  0  0  0  0  0  0  0  0  0  0  0
   10.7716    0.0807   24.0169 C   0  0  0  0  0  0  0  0  0  0  0  0
    6.2133   -1.9756   19.4980 C   0  0  0  0  0  0  0  0  0  0  0  0
    7.9254   -0.5358   20.6698 C   0  0  0  0  0  0  0  0  0  0  0  0
    6.9831   -2.5542   21.7755 C   0  0  0  0  0  0  0  0  0  0  0  0
    8.3465   -0.2207   22.0996 C   0  0  0  0  0  0  0  0  0  0  0  0
    8.3680   -2.7228   22.3863 C   0  0  0  0  0  0  0  0  0  0  0  0
    6.3125   -1.0214   18.3329 C   0  0  0  0  0  0  0  0  0  0  0  0
   12.3709   -2.3770   22.0562 N   0  0  0  0  0  0  0  0  0  0  0  0
    7.0170   -1.6844   20.6007 N   0  0  0  0  0  0  0  0  0  0  0  0
    8.9935   -1.4092   22.7163 N   0  0  0  0  0  0  0  0  0  0  0  0
    5.4472   -2.9397   19.4333 O   0  0  0  0  0  0  0  0  0  0  0  0
   10.3369   -2.4003   24.6718 O   0  0  0  0  0  0  0  0  0  0  0  0
    8.5512   -0.6863   25.1421 O   0  0  0  0  0  0  0  0  0  0  0  0
    9.6021   -1.2114   24.2973 S   0  0  0  0  0  0  0  0  0  0  0  0
    5.0800    0.2099   18.5838 Cl  0  0  0  0  0  0  0  0  0  0  0  0
  1  6  1  0  0  0  0
  1 14  3  0  0  0  0
  2  3  1  0  0  0  0
  2  4  2  0  0  0  0
  3  5  2  0  0  0  0
  4  6  1  0  0  0  0
  5  7  1  0  0  0  0
  6  7  2  0  0  0  0
  7 20  1  0  0  0  0
  8 13  1  0  0  0  0
  8 15  1  0  0  0  0
  8 17  2  0  0  0  0
  9 11  1  0  0  0  0
  9 15  1  0  0  0  0
 10 12  1  0  0  0  0
 10 15  1  0  0  0  0
 11 16  1  0  0  0  0
 12 16  1  0  0  0  0
 13 21  1  0  0  0  0
 16 20  1  0  0  0  0
 18 20  2  0  0  0  0
 19 20  2  0  0  0  0
M  END
> <ref_mols>
x1371_0

> <original SMILES>
ClCC(=O)N1CCN(CC1)S(=O)(=O)c2ccccc2C#N

> <Chemgauss4>
-8.382928

> <ref_pdb>
x0831_0

$$$$
x1439
  -OEChem-05172015543D

 21 22  0     0  0  0  0  0  0999 V2000
   12.1584   -1.3605   22.5743 C   0  0  0  0  0  0  0  0  0  0  0  0
   12.5711    2.1763   23.6256 C   0  0  0  0  0  0  0  0  0  0  0  0
   11.4464    2.3637   24.4291 C   0  0  0  0  0  0  0  0  0  0  0  0
   12.7960    0.9412   23.0177 C   0  0  0  0  0  0  0  0  0  0  0  0
   10.5466    1.3159   24.6247 C   0  0  0  0  0  0  0  0  0  0  0  0
   11.8963   -0.1066   23.2134 C   0  0  0  0  0  0  0  0  0  0  0  0
   10.7716    0.0807   24.0169 C   0  0  0  0  0  0  0  0  0  0  0  0
    6.2133   -1.9756   19.4980 C   0  0  0  0  0  0  0  0  0  0  0  0
    7.9254   -0.5358   20.6698 C   0  0  0  0  0  0  0  0  0  0  0  0
    6.9831   -2.5542   21.7755 C   0  0  0  0  0  0  0  0  0  0  0  0
    8.3465   -0.2207   22.0996 C   0  0  0  0  0  0  0  0  0  0  0  0
    8.3680   -2.7228   22.3863 C   0  0  0  0  0  0  0  0  0  0  0  0
    6.3125   -1.0214   18.3329 C   0  0  0  0  0  0  0  0  0  0  0  0
   12.3709   -2.3770   22.0562 N   0  0  0  0  0  0  0  0  0  0  0  0
    7.0170   -1.6844   20.6007 N   0  0  0  0  0  0  0  0  0  0  0  0
    8.9935   -1.4092   22.7163 N   0  0  0  0  0  0  0  0  0  0  0  0
    5.4472   -2.9397   19.4333 O   0  0  0  0  0  0  0  0  0  0  0  0
   10.3369   -2.4003   24.6718 O   0  0  0  0  0  0  0  0  0  0  0  0
    8.5512   -0.6863   25.1421 O   0  0  0  0  0  0  0  0  0  0  0  0
    9.6021   -1.2114   24.2973 S   0  0  0  0  0  0  0  0  0  0  0  0
    5.0800    0.2099   18.5838 Cl  0  0  0  0  0  0  0  0  0  0  0  0
  1  6  1  0  0  0  0
  1 14  3  0  0  0  0
  2  3  1  0  0  0  0
  2  4  2  0  0  0  0
  3  5  2  0  0  0  0
  4  6  1  0  0  0  0
  5  7  1  0  0  0  0
  6  7  2  0  0  0  0
  7 20  1  0  0  0  0
  8 13  1  0  0  0  0
  8 15  1  0  0  0  0
  8 17  2  0  0  0  0
  9 11  1  0  0  0  0
  9 15  1  0  0  0  0
 10 12  1  0  0  0  0
 10 15  1  0  0  0  0
 11 16  1  0  0  0  0
 12 16  1  0  0  0  0
 13 21  1  0  0  0  0
 16 20  1  0  0  0  0
 18 20  2  0  0  0  0
 19 20  2  0  0  0  0
M  END
> <ref_mols>
x1439_0

> <original SMILES>
ClCC(=O)N1CCN(CC1)S(=O)(=O)c2ccccc2C#N

> <Chemgauss4>
-8.382928

> <ref_pdb>
x0831_0

$$$$
x0774
  -OEChem-05172015543D

 21 22  0     0  0  0  0  0  0999 V2000
   12.1584   -1.3605   22.5743 C   0  0  0  0  0  0  0  0  0  0  0  0
   12.5711    2.1763   23.6256 C   0  0  0  0  0  0  0  0  0  0  0  0
   11.4464    2.3637   24.4291 C   0  0  0  0  0  0  0  0  0  0  0  0
   12.7960    0.9412   23.0177 C   0  0  0  0  0  0  0  0  0  0  0  0
   10.5466    1.3159   24.6247 C   0  0  0  0  0  0  0  0  0  0  0  0
   11.8963   -0.1066   23.2134 C   0  0  0  0  0  0  0  0  0  0  0  0
   10.7716    0.0807   24.0169 C   0  0  0  0  0  0  0  0  0  0  0  0
    6.2133   -1.9756   19.4980 C   0  0  0  0  0  0  0  0  0  0  0  0
    7.9254   -0.5358   20.6698 C   0  0  0  0  0  0  0  0  0  0  0  0
    6.9831   -2.5542   21.7755 C   0  0  0  0  0  0  0  0  0  0  0  0
    8.3465   -0.2207   22.0996 C   0  0  0  0  0  0  0  0  0  0  0  0
    8.3680   -2.7228   22.3863 C   0  0  0  0  0  0  0  0  0  0  0  0
    6.3125   -1.0214   18.3329 C   0  0  0  0  0  0  0  0  0  0  0  0
   12.3709   -2.3770   22.0562 N   0  0  0  0  0  0  0  0  0  0  0  0
    7.0170   -1.6844   20.6007 N   0  0  0  0  0  0  0  0  0  0  0  0
    8.9935   -1.4092   22.7163 N   0  0  0  0  0  0  0  0  0  0  0  0
    5.4472   -2.9397   19.4333 O   0  0  0  0  0  0  0  0  0  0  0  0
   10.3369   -2.4003   24.6718 O   0  0  0  0  0  0  0  0  0  0  0  0
    8.5512   -0.6863   25.1421 O   0  0  0  0  0  0  0  0  0  0  0  0
    9.6021   -1.2114   24.2973 S   0  0  0  0  0  0  0  0  0  0  0  0
    5.0800    0.2099   18.5838 Cl  0  0  0  0  0  0  0  0  0  0  0  0
  1  6  1  0  0  0  0
  1 14  3  0  0  0  0
  2  3  1  0  0  0  0
  2  4  2  0  0  0  0
  3  5  2  0  0  0  0
  4  6  1  0  0  0  0
  5  7  1  0  0  0  0
  6  7  2  0  0  0  0
  7 20  1  0  0  0  0
  8 13  1  0  0  0  0
  8 15  1  0  0  0  0
  8 17  2  0  0  0  0
  9 11  1  0  0  0  0
  9 15  1  0  0  0  0
 10 12  1  0  0  0  0
 10 15  1  0  0  0  0
 11 16  1  0  0  0  0
 12 16  1  0  0  0  0
 13 21  1  0  0  0  0
 16 20  1  0  0  0  0
 18 20  2  0  0  0  0
 19 20  2  0  0  0  0
M  END
> <ref_mols>
x0774_0

> <original SMILES>
ClCC(=O)N1CCN(CC1)S(=O)(=O)c2ccccc2C#N

> <Chemgauss4>
-8.382928

> <ref_pdb>
x0831_0

$$$$
x1490
  -OEChem-05172015543D

 21 22  0     0  0  0  0  0  0999 V2000
   12.1584   -1.3605   22.5743 C   0  0  0  0  0  0  0  0  0  0  0  0
   12.5711    2.1763   23.6256 C   0  0  0  0  0  0  0  0  0  0  0  0
   11.4464    2.3637   24.4291 C   0  0  0  0  0  0  0  0  0  0  0  0
   12.7960    0.9412   23.0177 C   0  0  0  0  0  0  0  0  0  0  0  0
   10.5466    1.3159   24.6247 C   0  0  0  0  0  0  0  0  0  0  0  0
   11.8963   -0.1066   23.2134 C   0  0  0  0  0  0  0  0  0  0  0  0
   10.7716    0.0807   24.0169 C   0  0  0  0  0  0  0  0  0  0  0  0
    6.2133   -1.9756   19.4980 C   0  0  0  0  0  0  0  0  0  0  0  0
    7.9254   -0.5358   20.6698 C   0  0  0  0  0  0  0  0  0  0  0  0
    6.9831   -2.5542   21.7755 C   0  0  0  0  0  0  0  0  0  0  0  0
    8.3465   -0.2207   22.0996 C   0  0  0  0  0  0  0  0  0  0  0  0
    8.3680   -2.7228   22.3863 C   0  0  0  0  0  0  0  0  0  0  0  0
    6.3125   -1.0214   18.3329 C   0  0  0  0  0  0  0  0  0  0  0  0
   12.3709   -2.3770   22.0562 N   0  0  0  0  0  0  0  0  0  0  0  0
    7.0170   -1.6844   20.6007 N   0  0  0  0  0  0  0  0  0  0  0  0
    8.9935   -1.4092   22.7163 N   0  0  0  0  0  0  0  0  0  0  0  0
    5.4472   -2.9397   19.4333 O   0  0  0  0  0  0  0  0  0  0  0  0
   10.3369   -2.4003   24.6718 O   0  0  0  0  0  0  0  0  0  0  0  0
    8.5512   -0.6863   25.1421 O   0  0  0  0  0  0  0  0  0  0  0  0
    9.6021   -1.2114   24.2973 S   0  0  0  0  0  0  0  0  0  0  0  0
    5.0800    0.2099   18.5838 Cl  0  0  0  0  0  0  0  0  0  0  0  0
  1  6  1  0  0  0  0
  1 14  3  0  0  0  0
  2  3  1  0  0  0  0
  2  4  2  0  0  0  0
  3  5  2  0  0  0  0
  4  6  1  0  0  0  0
  5  7  1  0  0  0  0
  6  7  2  0  0  0  0
  7 20  1  0  0  0  0
  8 13  1  0  0  0  0
  8 15  1  0  0  0  0
  8 17  2  0  0  0  0
  9 11  1  0  0  0  0
  9 15  1  0  0  0  0
 10 12  1  0  0  0  0
 10 15  1  0  0  0  0
 11 16  1  0  0  0  0
 12 16  1  0  0  0  0
 13 21  1  0  0  0  0
 16 20  1  0  0  0  0
 18 20  2  0  0  0  0
 19 20  2  0  0  0  0
M  END
> <ref_mols>
x1490_0

> <original SMILES>
ClCC(=O)N1CCN(CC1)S(=O)(=O)c2ccccc2C#N

> <Chemgauss4>
-8.382928

> <ref_pdb>
x0831_0

$$$$
x0144
  -OEChem-05172015543D

 16 17  0     0  0  0  0  0  0999 V2000
   14.5794   -0.0972   22.3758 C   0  0  0  0  0  0  0  0  0  0  0  0
   14.5819   -1.2292   21.5704 C   0  0  0  0  0  0  0  0  0  0  0  0
   13.4451    0.2140   23.1201 C   0  0  0  0  0  0  0  0  0  0  0  0
   11.1525   -0.3192   23.7990 C   0  0  0  0  0  0  0  0  0  0  0  0
   13.4509   -2.0472   21.5111 C   0  0  0  0  0  0  0  0  0  0  0  0
   10.0455   -1.1517   23.7184 C   0  0  0  0  0  0  0  0  0  0  0  0
   12.3076   -0.6089   23.0603 C   0  0  0  0  0  0  0  0  0  0  0  0
   12.3031   -1.7600   22.2449 C   0  0  0  0  0  0  0  0  0  0  0  0
   10.1353   -2.2547   22.8937 C   0  0  0  0  0  0  0  0  0  0  0  0
    9.0114   -3.1661   22.7649 C   0  0  0  0  0  0  0  0  0  0  0  0
   11.2304   -2.5697   22.1647 N   0  0  0  0  0  0  0  0  0  0  0  0
    7.7396   -2.6315   22.9220 N   0  0  0  0  0  0  0  0  0  0  0  0
    9.1942   -4.3719   22.5118 O   0  0  0  0  0  0  0  0  0  0  0  0
    6.6592   -3.5146   22.7825 O   0  0  0  0  0  0  0  0  0  0  0  0
    7.5989   -1.6498   23.1278 H   0  0  0  0  0  0  0  0  0  0  0  0
    7.1362   -4.3410   22.5958 H   0  0  0  0  0  0  0  0  0  0  0  0
  1  2  1  0  0  0  0
  1  3  2  0  0  0  0
  2  5  2  0  0  0  0
  3  7  1  0  0  0  0
  4  6  2  0  0  0  0
  4  7  1  0  0  0  0
  5  8  1  0  0  0  0
  6  9  1  0  0  0  0
  7  8  2  0  0  0  0
  8 11  1  0  0  0  0
  9 10  1  0  0  0  0
  9 11  2  0  0  0  0
 10 12  1  0  0  0  0
 10 13  2  0  0  0  0
 12 14  1  0  0  0  0
 12 15  1  0  0  0  0
 14 16  1  0  0  0  0
M  END
> <ref_mols>
x0144_0

> <original SMILES>
ONC(=O)C=1C=CC=2C=CC=CC2N1

> <Chemgauss4>
-8.380999

> <ref_pdb>
x1382_0

$$$$
x1211
  -OEChem-05172015543D

 11 11  0     0  0  0  0  0  0999 V2000
    5.2256    1.8258   18.8713 C   0  0  0  0  0  0  0  0  0  0  0  0
    6.2729    0.1612   20.2557 C   0  0  0  0  0  0  0  0  0  0  0  0
    5.9167    1.2894   17.7969 C   0  0  0  0  0  0  0  0  0  0  0  0
    6.9169   -0.3009   19.1193 C   0  0  0  0  0  0  0  0  0  0  0  0
    5.4127    1.2452   20.1208 C   0  0  0  0  0  0  0  0  0  0  0  0
    4.5922    3.5895   23.0335 C   0  0  0  0  0  0  0  0  0  0  0  0
    4.6942    1.7833   21.3113 C   0  0  0  0  0  0  0  0  0  0  0  0
    6.7605    0.2372   17.8890 N   0  0  0  0  0  0  0  0  0  0  0  0
    5.2592    3.0667   21.8128 N   0  3  0  0  0  0  0  0  0  0  0  0
    5.2014    3.7721   21.0666 H   0  0  0  0  0  0  0  0  0  0  0  0
    6.2620    2.9395   22.0029 H   0  0  0  0  0  0  0  0  0  0  0  0
  1  3  2  0  0  0  0
  1  5  1  0  0  0  0
  2  4  1  0  0  0  0
  2  5  2  0  0  0  0
  3  8  1  0  0  0  0
  4  8  2  0  0  0  0
  5  7  1  0  0  0  0
  6  9  1  0  0  0  0
  7  9  1  0  0  0  0
  9 10  1  0  0  0  0
  9 11  1  0  0  0  0
M  CHG  1   9   1
M  END
> <ref_mols>
x1211_0

> <original SMILES>
CNCC=1C=CN=CC1

> <Chemgauss4>
-8.380624

> <ref_pdb>
x0540_0

$$$$
x0382
  -OEChem-05172015543D

 16 18  0     0  0  0  0  0  0999 V2000
    7.6801    0.1926   19.3945 C   0  0  0  0  0  0  0  0  0  0  0  0
    9.5641    0.2596   20.2464 C   0  0  0  0  0  0  0  0  0  0  0  0
    5.4513    1.2090   18.4612 C   0  0  0  0  0  0  0  0  0  0  0  0
    5.3232    1.1963   19.9524 C   0  0  0  0  0  0  0  0  0  0  0  0
   10.8819   -2.0554   22.0014 C   0  0  0  0  0  0  0  0  0  0  0  0
   13.0043   -0.8704   21.4632 C   0  0  0  0  0  0  0  0  0  0  0  0
   11.1711   -1.7714   23.4657 C   0  0  0  0  0  0  0  0  0  0  0  0
   13.1822   -0.6483   22.9558 C   0  0  0  0  0  0  0  0  0  0  0  0
    6.1555    0.1354   19.2636 C   0  0  0  0  0  0  0  0  0  0  0  0
   10.7967    0.3036   21.1007 C   0  0  0  0  0  0  0  0  0  0  0  0
    8.3065    0.2093   20.6066 N   0  0  0  0  0  0  0  0  0  0  0  0
    8.4816    0.2292   18.3258 N   0  0  0  0  0  0  0  0  0  0  0  0
   11.5363   -1.0051   21.1358 N   0  3  0  0  0  0  0  0  0  0  0  0
    9.7576    0.2748   18.9015 O   0  0  0  0  0  0  0  0  0  0  0  0
   12.5788   -1.7094   23.6965 O   0  0  0  0  0  0  0  0  0  0  0  0
   11.4937   -1.3775   20.1469 H   0  0  0  0  0  0  0  0  0  0  0  0
  1  9  1  0  0  0  0
  1 11  1  0  0  0  0
  1 12  2  0  0  0  0
  2 10  1  0  0  0  0
  2 11  2  0  0  0  0
  2 14  1  0  0  0  0
  3  4  1  0  0  0  0
  3  9  1  0  0  0  0
  4  9  1  0  0  0  0
  5  7  1  0  0  0  0
  5 13  1  0  0  0  0
  6  8  1  0  0  0  0
  6 13  1  0  0  0  0
  7 15  1  0  0  0  0
  8 15  1  0  0  0  0
 10 13  1  0  0  0  0
 12 14  1  0  0  0  0
 13 16  1  0  0  0  0
M  CHG  1  13   1
M  END
> <ref_mols>
x0382_0

> <original SMILES>
C(N1CCOCC1)C2=NC(=NO2)C3CC3

> <Chemgauss4>
-8.379877

> <ref_pdb>
x0678_0

$$$$
x0886
  -OEChem-05172015543D

 17 17  0     1  0  0  0  0  0999 V2000
   11.0088   -3.4821   24.5830 C   0  0  0  0  0  0  0  0  0  0  0  0
    9.8212   -2.6191   22.5606 C   0  0  0  0  0  0  0  0  0  0  0  0
    8.8739   -4.4775   23.7631 C   0  0  0  0  0  0  0  0  0  0  0  0
    9.6795   -3.1944   23.9632 C   0  0  1  0  0  0  0  0  0  0  0  0
    8.4944   -2.9724   21.8890 C   0  0  2  0  0  0  0  0  0  0  0  0
    7.3979   -1.9610   22.2054 C   0  0  0  0  0  0  0  0  0  0  0  0
   13.2662   -2.7013   26.1292 C   0  0  0  0  0  0  0  0  0  0  0  0
   13.5282   -0.8371   24.4663 C   0  0  0  0  0  0  0  0  0  0  0  0
   11.4512   -0.9769   25.8714 C   0  0  0  0  0  0  0  0  0  0  0  0
    7.1529   -6.7514   22.4659 C   0  0  0  0  0  0  0  0  0  0  0  0
   12.5395   -1.7752   25.1551 C   0  0  0  0  0  0  0  0  0  0  0  0
    8.1932   -4.3186   22.4491 N   0  0  2  0  0  0  0  0  0  0  0  0
   11.2154   -4.3990   25.3664 O   0  0  0  0  0  0  0  0  0  0  0  0
    6.3120   -4.9099   20.8139 O   0  0  0  0  0  0  0  0  0  0  0  0
    5.7943   -4.6715   23.2757 O   0  0  0  0  0  0  0  0  0  0  0  0
   11.9245   -2.5745   24.1397 O   0  0  0  0  0  0  0  0  0  0  0  0
    6.6922   -5.0565   22.2049 S   0  0  0  0  0  0  0  0  0  0  0  0
  1  4  1  0  0  0  0
  1 13  2  0  0  0  0
  1 16  1  0  0  0  0
  2  4  1  0  0  0  0
  2  5  1  0  0  0  0
  3  4  1  0  0  0  0
  3 12  1  0  0  0  0
  5  6  1  0  0  0  0
  5 12  1  0  0  0  0
  7 11  1  0  0  0  0
  8 11  1  0  0  0  0
  9 11  1  0  0  0  0
 10 17  1  0  0  0  0
 11 16  1  0  0  0  0
 12 17  1  0  0  0  0
 14 17  2  0  0  0  0
 15 17  2  0  0  0  0
M  END
> <ref_mols>
x0886_0

> <original SMILES>
O=C(OC(C)(C)C)[C@@H]1CN(S(C)(=O)=O)[C@@H](C)C1

> <Chemgauss4>
-8.379017

> <ref_pdb>
x0749_0

$$$$
x0110
  -OEChem-05172015543D

 18 19  0     0  0  0  0  0  0999 V2000
    9.8415   -4.6305   24.5770 C   0  0  0  0  0  0  0  0  0  0  0  0
   11.0248   -4.1370   25.1383 C   0  0  0  0  0  0  0  0  0  0  0  0
   10.9178   -2.2086   23.6986 C   0  0  0  0  0  0  0  0  0  0  0  0
    9.1774   -3.9210   23.5675 C   0  0  0  0  0  0  0  0  0  0  0  0
    9.7384   -2.7137   23.1484 C   0  0  0  0  0  0  0  0  0  0  0  0
   11.5619   -2.9279   24.6997 C   0  0  0  0  0  0  0  0  0  0  0  0
    7.3790   -3.6212   21.9743 C   0  0  0  0  0  0  0  0  0  0  0  0
    7.9333   -4.3769   22.9326 C   0  0  0  0  0  0  0  0  0  0  0  0
    7.9586   -2.3455   21.5211 C   0  0  0  0  0  0  0  0  0  0  0  0
   12.5773   -1.1980   25.8676 C   0  0  0  0  0  0  0  0  0  0  0  0
   13.8933   -0.7635   26.4415 C   0  0  0  0  0  0  0  0  0  0  0  0
    7.4515   -6.6708   21.0355 C   0  0  0  0  0  0  0  0  0  0  0  0
    7.3065   -5.6719   23.3608 C   0  0  0  0  0  0  0  0  0  0  0  0
    6.5481   -6.3095   22.2063 C   0  0  0  0  0  0  0  0  0  0  0  0
    7.4234   -1.6811   20.6406 O   0  0  0  0  0  0  0  0  0  0  0  0
   11.5469   -0.5410   25.9346 O   0  0  0  0  0  0  0  0  0  0  0  0
    9.1322   -1.9407   22.1379 O   0  0  0  0  0  0  0  0  0  0  0  0
   12.7116   -2.4529   25.2506 O   0  0  0  0  0  0  0  0  0  0  0  0
  1  2  2  0  0  0  0
  1  4  1  0  0  0  0
  2  6  1  0  0  0  0
  3  5  1  0  0  0  0
  3  6  2  0  0  0  0
  4  5  2  0  0  0  0
  4  8  1  0  0  0  0
  5 17  1  0  0  0  0
  6 18  1  0  0  0  0
  7  8  2  0  0  0  0
  7  9  1  0  0  0  0
  8 13  1  0  0  0  0
  9 15  2  0  0  0  0
  9 17  1  0  0  0  0
 10 11  1  0  0  0  0
 10 16  2  0  0  0  0
 10 18  1  0  0  0  0
 12 14  1  0  0  0  0
 13 14  1  0  0  0  0
M  END
> <ref_mols>
x0110_0

> <original SMILES>
CCCC1=CC(=O)OC=2C=C(OC(=O)C)C=CC12

> <Chemgauss4>
-8.377654

> <ref_pdb>
x0749_0

$$$$
x2742
  -OEChem-05172015543D

 20 21  0     0  0  0  0  0  0999 V2000
    9.9006    2.0956   25.9853 C   0  0  0  0  0  0  0  0  0  0  0  0
   13.4898   -1.0000   21.7641 C   0  0  0  0  0  0  0  0  0  0  0  0
   13.8189    0.2247   22.3451 C   0  0  0  0  0  0  0  0  0  0  0  0
   12.2080   -1.5262   21.9248 C   0  0  0  0  0  0  0  0  0  0  0  0
   12.8662    0.9231   23.0869 C   0  0  0  0  0  0  0  0  0  0  0  0
    6.3183   -3.1514   19.9631 C   0  0  0  0  0  0  0  0  0  0  0  0
    7.4076   -1.1296   20.0015 C   0  0  0  0  0  0  0  0  0  0  0  0
   11.2553   -0.8277   22.6666 C   0  0  0  0  0  0  0  0  0  0  0  0
    7.3150   -2.3639   20.6072 C   0  0  0  0  0  0  0  0  0  0  0  0
   11.5844    0.3969   23.2476 C   0  0  0  0  0  0  0  0  0  0  0  0
    9.9231   -1.3950   22.8221 C   0  0  0  0  0  0  0  0  0  0  0  0
   10.9885    1.3632   25.3374 C   0  0  0  0  0  0  0  0  0  0  0  0
    8.1435   -2.8143   21.7754 C   0  0  0  0  0  0  0  0  0  0  0  0
    9.0382    2.6767   26.5000 N   0  0  0  0  0  0  0  0  0  0  0  0
    5.6733   -2.5987   18.9385 N   0  0  0  0  0  0  0  0  0  0  0  0
    9.4517   -2.2000   21.7796 N   0  0  0  0  0  0  0  0  0  0  0  0
    9.2465   -1.1443   23.8340 O   0  0  0  0  0  0  0  0  0  0  0  0
   10.6667    1.0952   23.9743 O   0  0  0  0  0  0  0  0  0  0  0  0
    6.2738   -1.0647   18.7193 S   0  0  0  0  0  0  0  0  0  0  0  0
   10.0208   -2.3203   20.9481 H   0  0  0  0  0  0  0  0  0  0  0  0
  1 12  1  0  0  0  0
  1 14  3  0  0  0  0
  2  3  1  0  0  0  0
  2  4  2  0  0  0  0
  3  5  2  0  0  0  0
  4  8  1  0  0  0  0
  5 10  1  0  0  0  0
  6  9  1  0  0  0  0
  6 15  2  0  0  0  0
  7  9  2  0  0  0  0
  7 19  1  0  0  0  0
  8 10  2  0  0  0  0
  8 11  1  0  0  0  0
  9 13  1  0  0  0  0
 10 18  1  0  0  0  0
 11 16  1  0  0  0  0
 11 17  2  0  0  0  0
 12 18  1  0  0  0  0
 13 16  1  0  0  0  0
 15 19  1  0  0  0  0
 16 20  1  0  0  0  0
M  END
> <ref_mols>
x2742_0

> <original SMILES>
O=C(NCC=1C=NSC1)C=2C=CC=CC2OCC#N

> <Chemgauss4>
-8.371911

> <ref_pdb>
x0830_0

> <CYS145-warhead dist minimum (A)>
8.122679

> <CYS145-warhead dist mean (A)>
12.479316

> <CYS145-warhead dist stddev (A)>
1.1265451

$$$$
x2764
  -OEChem-05172015543D

 20 21  0     0  0  0  0  0  0999 V2000
    9.9006    2.0956   25.9853 C   0  0  0  0  0  0  0  0  0  0  0  0
   13.4898   -1.0000   21.7641 C   0  0  0  0  0  0  0  0  0  0  0  0
   13.8189    0.2247   22.3451 C   0  0  0  0  0  0  0  0  0  0  0  0
   12.2080   -1.5262   21.9248 C   0  0  0  0  0  0  0  0  0  0  0  0
   12.8662    0.9231   23.0869 C   0  0  0  0  0  0  0  0  0  0  0  0
    6.3183   -3.1514   19.9631 C   0  0  0  0  0  0  0  0  0  0  0  0
    7.4076   -1.1296   20.0015 C   0  0  0  0  0  0  0  0  0  0  0  0
   11.2553   -0.8277   22.6666 C   0  0  0  0  0  0  0  0  0  0  0  0
    7.3150   -2.3639   20.6072 C   0  0  0  0  0  0  0  0  0  0  0  0
   11.5844    0.3969   23.2476 C   0  0  0  0  0  0  0  0  0  0  0  0
    9.9231   -1.3950   22.8221 C   0  0  0  0  0  0  0  0  0  0  0  0
   10.9885    1.3632   25.3374 C   0  0  0  0  0  0  0  0  0  0  0  0
    8.1435   -2.8143   21.7754 C   0  0  0  0  0  0  0  0  0  0  0  0
    9.0382    2.6767   26.5000 N   0  0  0  0  0  0  0  0  0  0  0  0
    5.6733   -2.5987   18.9385 N   0  0  0  0  0  0  0  0  0  0  0  0
    9.4517   -2.2000   21.7796 N   0  0  0  0  0  0  0  0  0  0  0  0
    9.2465   -1.1443   23.8340 O   0  0  0  0  0  0  0  0  0  0  0  0
   10.6667    1.0952   23.9743 O   0  0  0  0  0  0  0  0  0  0  0  0
    6.2738   -1.0647   18.7193 S   0  0  0  0  0  0  0  0  0  0  0  0
   10.0208   -2.3203   20.9481 H   0  0  0  0  0  0  0  0  0  0  0  0
  1 12  1  0  0  0  0
  1 14  3  0  0  0  0
  2  3  1  0  0  0  0
  2  4  2  0  0  0  0
  3  5  2  0  0  0  0
  4  8  1  0  0  0  0
  5 10  1  0  0  0  0
  6  9  1  0  0  0  0
  6 15  2  0  0  0  0
  7  9  2  0  0  0  0
  7 19  1  0  0  0  0
  8 10  2  0  0  0  0
  8 11  1  0  0  0  0
  9 13  1  0  0  0  0
 10 18  1  0  0  0  0
 11 16  1  0  0  0  0
 11 17  2  0  0  0  0
 12 18  1  0  0  0  0
 13 16  1  0  0  0  0
 15 19  1  0  0  0  0
 16 20  1  0  0  0  0
M  END
> <ref_mols>
x2764_0

> <original SMILES>
O=C(NCC=1C=NSC1)C=2C=CC=CC2OCC#N

> <Chemgauss4>
-8.371911

> <ref_pdb>
x0830_0

> <CYS145-warhead dist minimum (A)>
8.178546

> <CYS145-warhead dist mean (A)>
10.222263

> <CYS145-warhead dist stddev (A)>
0.5307657

$$$$
x2565
  -OEChem-05172015543D

 20 21  0     0  0  0  0  0  0999 V2000
    9.9006    2.0956   25.9853 C   0  0  0  0  0  0  0  0  0  0  0  0
   13.4898   -1.0000   21.7641 C   0  0  0  0  0  0  0  0  0  0  0  0
   13.8189    0.2247   22.3451 C   0  0  0  0  0  0  0  0  0  0  0  0
   12.2080   -1.5262   21.9248 C   0  0  0  0  0  0  0  0  0  0  0  0
   12.8662    0.9231   23.0869 C   0  0  0  0  0  0  0  0  0  0  0  0
    6.3183   -3.1514   19.9631 C   0  0  0  0  0  0  0  0  0  0  0  0
    7.4076   -1.1296   20.0015 C   0  0  0  0  0  0  0  0  0  0  0  0
   11.2553   -0.8277   22.6666 C   0  0  0  0  0  0  0  0  0  0  0  0
    7.3150   -2.3639   20.6072 C   0  0  0  0  0  0  0  0  0  0  0  0
   11.5844    0.3969   23.2476 C   0  0  0  0  0  0  0  0  0  0  0  0
    9.9231   -1.3950   22.8221 C   0  0  0  0  0  0  0  0  0  0  0  0
   10.9885    1.3632   25.3374 C   0  0  0  0  0  0  0  0  0  0  0  0
    8.1435   -2.8143   21.7754 C   0  0  0  0  0  0  0  0  0  0  0  0
    9.0382    2.6767   26.5000 N   0  0  0  0  0  0  0  0  0  0  0  0
    5.6733   -2.5987   18.9385 N   0  0  0  0  0  0  0  0  0  0  0  0
    9.4517   -2.2000   21.7796 N   0  0  0  0  0  0  0  0  0  0  0  0
    9.2465   -1.1443   23.8340 O   0  0  0  0  0  0  0  0  0  0  0  0
   10.6667    1.0952   23.9743 O   0  0  0  0  0  0  0  0  0  0  0  0
    6.2738   -1.0647   18.7193 S   0  0  0  0  0  0  0  0  0  0  0  0
   10.0208   -2.3203   20.9481 H   0  0  0  0  0  0  0  0  0  0  0  0
  1 12  1  0  0  0  0
  1 14  3  0  0  0  0
  2  3  1  0  0  0  0
  2  4  2  0  0  0  0
  3  5  2  0  0  0  0
  4  8  1  0  0  0  0
  5 10  1  0  0  0  0
  6  9  1  0  0  0  0
  6 15  2  0  0  0  0
  7  9  2  0  0  0  0
  7 19  1  0  0  0  0
  8 10  2  0  0  0  0
  8 11  1  0  0  0  0
  9 13  1  0  0  0  0
 10 18  1  0  0  0  0
 11 16  1  0  0  0  0
 11 17  2  0  0  0  0
 12 18  1  0  0  0  0
 13 16  1  0  0  0  0
 15 19  1  0  0  0  0
 16 20  1  0  0  0  0
M  END
> <ref_mols>
x2565_0

> <original SMILES>
O=C(NCC=1C=NSC1)C=2C=CC=CC2OCC#N

> <Chemgauss4>
-8.371911

> <ref_pdb>
x0830_0

$$$$
x2572
  -OEChem-05172015543D

 20 21  0     0  0  0  0  0  0999 V2000
   10.1524   -0.6706   25.1140 C   0  0  0  0  0  0  0  0  0  0  0  0
    9.8372   -4.2595   24.1778 C   0  0  0  0  0  0  0  0  0  0  0  0
   10.3835   -3.0533   24.6164 C   0  0  0  0  0  0  0  0  0  0  0  0
    8.4993   -4.3182   23.7878 C   0  0  0  0  0  0  0  0  0  0  0  0
    6.8869    0.7959   18.8540 C   0  0  0  0  0  0  0  0  0  0  0  0
    8.2538   -1.9647   24.2751 C   0  0  0  0  0  0  0  0  0  0  0  0
    6.3369    0.0395   17.8316 C   0  0  0  0  0  0  0  0  0  0  0  0
    5.9306   -1.7305   19.2388 C   0  0  0  0  0  0  0  0  0  0  0  0
    9.5918   -1.9059   24.6650 C   0  0  0  0  0  0  0  0  0  0  0  0
    7.7076   -3.1708   23.8365 C   0  0  0  0  0  0  0  0  0  0  0  0
    6.9469    0.2298   20.1225 C   0  0  0  0  0  0  0  0  0  0  0  0
    6.4618   -1.0572   20.3270 C   0  0  0  0  0  0  0  0  0  0  0  0
    6.0506   -2.9506   21.9367 C   0  0  0  0  0  0  0  0  0  0  0  0
    7.5354    1.0226   21.2431 C   0  0  0  0  0  0  0  0  0  0  0  0
    6.2770   -3.2340   23.4195 C   0  0  0  0  0  0  0  0  0  0  0  0
   10.6077    0.3327   25.4785 N   0  0  0  0  0  0  0  0  0  0  0  0
    5.8555   -1.2135   17.9919 N   0  0  0  0  0  0  0  0  0  0  0  0
    6.5001   -1.6765   21.5990 N   0  0  0  0  0  0  0  0  0  0  0  0
    5.5338   -3.7775   21.1922 O   0  0  0  0  0  0  0  0  0  0  0  0
    6.9031   -1.1268   22.3550 H   0  0  0  0  0  0  0  0  0  0  0  0
  1  9  1  0  0  0  0
  1 16  3  0  0  0  0
  2  3  1  0  0  0  0
  2  4  2  0  0  0  0
  3  9  2  0  0  0  0
  4 10  1  0  0  0  0
  5  7  2  0  0  0  0
  5 11  1  0  0  0  0
  6  9  1  0  0  0  0
  6 10  2  0  0  0  0
  7 17  1  0  0  0  0
  8 12  1  0  0  0  0
  8 17  2  0  0  0  0
 10 15  1  0  0  0  0
 11 12  2  0  0  0  0
 11 14  1  0  0  0  0
 12 18  1  0  0  0  0
 13 15  1  0  0  0  0
 13 18  1  0  0  0  0
 13 19  2  0  0  0  0
 18 20  1  0  0  0  0
M  END
> <ref_mols>
x2572_0

> <original SMILES>
CC=1C=CN=CC1NC(=O)CC=2C=CC=C(C#N)C2

> <Chemgauss4>
-8.371187

> <ref_pdb>
x1385_0

$$$$
x0253
  -OEChem-05172015543D

 19 20  0     0  0  0  0  0  0999 V2000
    7.9499   -3.8271   26.9505 C   0  0  0  0  0  0  0  0  0  0  0  0
    7.9338   -5.3072   25.0410 C   0  0  0  0  0  0  0  0  0  0  0  0
    8.4676   -2.8056   26.1544 C   0  0  0  0  0  0  0  0  0  0  0  0
    8.4515   -4.2856   24.2448 C   0  0  0  0  0  0  0  0  0  0  0  0
    7.6830   -5.0780   26.3939 C   0  0  0  0  0  0  0  0  0  0  0  0
    8.7184   -3.0348   24.8015 C   0  0  0  0  0  0  0  0  0  0  0  0
    6.8513   -6.0585   28.5552 C   0  0  0  0  0  0  0  0  0  0  0  0
   10.4699   -2.3182   23.4228 C   0  0  0  0  0  0  0  0  0  0  0  0
   12.5618    0.4956   24.5985 C   0  0  0  0  0  0  0  0  0  0  0  0
   13.5953   -0.5804   24.2851 C   0  0  0  0  0  0  0  0  0  0  0  0
   11.2672   -0.2962   24.7141 C   0  0  0  0  0  0  0  0  0  0  0  0
   12.8350   -1.5254   23.3669 C   0  0  0  0  0  0  0  0  0  0  0  0
    6.3114   -7.3786   29.0452 C   0  0  0  0  0  0  0  0  0  0  0  0
   11.4545   -1.4273   23.8140 N   0  0  0  0  0  0  0  0  0  0  0  0
    7.1652   -6.0999   27.1901 N   0  0  0  0  0  0  0  0  0  0  0  0
    6.9697   -5.1058   29.3190 O   0  0  0  0  0  0  0  0  0  0  0  0
   10.6595   -3.2643   22.6607 O   0  0  0  0  0  0  0  0  0  0  0  0
    9.2374   -2.0108   24.0034 O   0  0  0  0  0  0  0  0  0  0  0  0
    6.9892   -6.9970   26.7230 H   0  0  0  0  0  0  0  0  0  0  0  0
  1  3  2  0  0  0  0
  1  5  1  0  0  0  0
  2  4  1  0  0  0  0
  2  5  2  0  0  0  0
  3  6  1  0  0  0  0
  4  6  2  0  0  0  0
  5 15  1  0  0  0  0
  6 18  1  0  0  0  0
  7 13  1  0  0  0  0
  7 15  1  0  0  0  0
  7 16  2  0  0  0  0
  8 14  1  0  0  0  0
  8 17  2  0  0  0  0
  8 18  1  0  0  0  0
  9 10  1  0  0  0  0
  9 11  1  0  0  0  0
 10 12  1  0  0  0  0
 11 14  1  0  0  0  0
 12 14  1  0  0  0  0
 15 19  1  0  0  0  0
M  END
> <ref_mols>
x0253_0

> <original SMILES>
CC(=O)NC=1C=CC(OC(=O)N2CCCC2)=CC1

> <Chemgauss4>
-8.369528

> <ref_pdb>
x0072_0

$$$$
x0449
  -OEChem-05172015543D

 17 18  0     0  0  0  0  0  0999 V2000
   13.5746   -0.8635   24.7007 C   0  0  0  0  0  0  0  0  0  0  0  0
   12.3860   -0.2122   25.0303 C   0  0  0  0  0  0  0  0  0  0  0  0
   13.6284   -2.2574   24.6974 C   0  0  0  0  0  0  0  0  0  0  0  0
   11.2512   -0.9547   25.3568 C   0  0  0  0  0  0  0  0  0  0  0  0
   12.4936   -2.9999   25.0239 C   0  0  0  0  0  0  0  0  0  0  0  0
   11.3050   -2.3485   25.3535 C   0  0  0  0  0  0  0  0  0  0  0  0
    8.9479   -3.6203   22.9409 C   0  0  0  0  0  0  0  0  0  0  0  0
    6.6424   -3.7668   22.0555 C   0  0  0  0  0  0  0  0  0  0  0  0
    7.7268   -5.8457   22.8004 C   0  0  0  0  0  0  0  0  0  0  0  0
    6.1325   -4.5264   20.8391 C   0  0  0  0  0  0  0  0  0  0  0  0
    7.1667   -6.5205   21.5547 C   0  0  0  0  0  0  0  0  0  0  0  0
   10.0781   -3.1522   25.7067 C   0  0  0  0  0  0  0  0  0  0  0  0
   10.1527   -4.3564   23.4701 C   0  0  0  0  0  0  0  0  0  0  0  0
   10.0648   -4.5029   24.9806 C   0  0  0  0  0  0  0  0  0  0  0  0
    7.8508   -4.4005   22.5826 N   0  0  0  0  0  0  0  0  0  0  0  0
    8.9834   -2.3909   22.8456 O   0  0  0  0  0  0  0  0  0  0  0  0
    5.9363   -5.9050   21.1644 O   0  0  0  0  0  0  0  0  0  0  0  0
  1  2  1  0  0  0  0
  1  3  2  0  0  0  0
  2  4  2  0  0  0  0
  3  5  1  0  0  0  0
  4  6  1  0  0  0  0
  5  6  2  0  0  0  0
  6 12  1  0  0  0  0
  7 13  1  0  0  0  0
  7 15  1  0  0  0  0
  7 16  2  0  0  0  0
  8 10  1  0  0  0  0
  8 15  1  0  0  0  0
  9 11  1  0  0  0  0
  9 15  1  0  0  0  0
 10 17  1  0  0  0  0
 11 17  1  0  0  0  0
 12 14  1  0  0  0  0
 13 14  1  0  0  0  0
M  END
> <ref_mols>
x0449_0

> <original SMILES>
O=C(CCCC=1C=CC=CC1)N2CCOCC2

> <Chemgauss4>
-8.367527

> <ref_pdb>
x0749_0

$$$$
x2880
  -OEChem-05172015543D

 17 18  0     0  0  0  0  0  0999 V2000
    7.8724   -1.4419   19.9010 C   0  0  0  0  0  0  0  0  0  0  0  0
    8.9843   -0.8729   20.5313 C   0  0  0  0  0  0  0  0  0  0  0  0
    7.6108   -2.9624   21.7369 C   0  0  0  0  0  0  0  0  0  0  0  0
    7.1872   -2.4883   20.5011 C   0  0  0  0  0  0  0  0  0  0  0  0
    8.7351   -2.4073   22.3758 C   0  0  0  0  0  0  0  0  0  0  0  0
    9.4494   -1.3465   21.7716 C   0  0  0  0  0  0  0  0  0  0  0  0
   13.5711   -0.9765   22.1266 C   0  0  0  0  0  0  0  0  0  0  0  0
   12.8620    0.1476   22.2482 C   0  0  0  0  0  0  0  0  0  0  0  0
    6.0126   -3.0806   19.8422 C   0  0  0  0  0  0  0  0  0  0  0  0
   11.4490    0.1539   21.8035 C   0  0  0  0  0  0  0  0  0  0  0  0
    9.1059   -2.9559   23.7284 C   0  0  0  0  0  0  0  0  0  0  0  0
   10.5489   -2.6424   24.0664 C   0  0  0  0  0  0  0  0  0  0  0  0
   10.8116   -1.1632   23.8452 C   0  0  0  0  0  0  0  0  0  0  0  0
   10.5895   -0.7541   22.4439 N   0  0  0  0  0  0  0  0  0  0  0  0
    5.3981   -4.0513   20.4249 O   0  5  0  0  0  0  0  0  0  0  0  0
    5.6367   -2.6096   18.7036 O   0  0  0  0  0  0  0  0  0  0  0  0
   11.1505    0.9457   20.9101 O   0  0  0  0  0  0  0  0  0  0  0  0
  1  2  1  0  0  0  0
  1  4  2  0  0  0  0
  2  6  2  0  0  0  0
  3  4  1  0  0  0  0
  3  5  2  0  0  0  0
  4  9  1  0  0  0  0
  5  6  1  0  0  0  0
  5 11  1  0  0  0  0
  6 14  1  0  0  0  0
  7  8  2  0  0  0  0
  8 10  1  0  0  0  0
  9 15  1  0  0  0  0
  9 16  2  0  0  0  0
 10 14  1  0  0  0  0
 10 17  2  0  0  0  0
 11 12  1  0  0  0  0
 12 13  1  0  0  0  0
 13 14  1  0  0  0  0
M  CHG  1  15  -1
M  END
> <ref_mols>
x2880_0

> <original SMILES>
C=CC(N(CCC1)c(cc2)c1cc2C(O)=O)=O

> <Chemgauss4>
-8.366425

> <ref_pdb>
x0830_0

$$$$
x0509
  -OEChem-05172015543D

 19 20  0     0  0  0  0  0  0999 V2000
   13.8938   -0.0365   22.5965 C   0  0  0  0  0  0  0  0  0  0  0  0
   12.4092   -0.2278   24.4929 C   0  0  0  0  0  0  0  0  0  0  0  0
   13.4176    1.2518   22.3536 C   0  0  0  0  0  0  0  0  0  0  0  0
   11.9330    1.0606   24.2500 C   0  0  0  0  0  0  0  0  0  0  0  0
   13.3896   -0.7763   23.6661 C   0  0  0  0  0  0  0  0  0  0  0  0
   12.4372    1.8004   23.1803 C   0  0  0  0  0  0  0  0  0  0  0  0
   10.6800    3.6069   23.2110 C   0  0  0  0  0  0  0  0  0  0  0  0
   11.7104    5.7675   24.1446 C   0  0  0  0  0  0  0  0  0  0  0  0
    9.5185    5.7921   23.0132 C   0  0  0  0  0  0  0  0  0  0  0  0
   11.1281    6.7548   25.1508 C   0  0  0  0  0  0  0  0  0  0  0  0
    9.0325    6.7539   24.0859 C   0  0  0  0  0  0  0  0  0  0  0  0
   12.7969   -3.2228   23.7980 C   0  0  0  0  0  0  0  0  0  0  0  0
   14.5900   -2.2776   25.2968 C   0  0  0  0  0  0  0  0  0  0  0  0
   13.8988   -2.1538   23.9257 C   0  0  0  0  0  0  0  0  0  0  0  0
   10.6436    4.9890   23.4980 N   0  0  0  0  0  0  0  0  0  0  0  0
   11.9534    3.1095   22.9340 N   0  0  0  0  0  0  0  0  0  0  0  0
    9.6540    2.9222   23.1893 O   0  0  0  0  0  0  0  0  0  0  0  0
   10.1182    7.5616   24.5443 O   0  0  0  0  0  0  0  0  0  0  0  0
   12.6370    3.7818   22.4904 H   0  0  0  0  0  0  0  0  0  0  0  0
  1  3  2  0  0  0  0
  1  5  1  0  0  0  0
  2  4  1  0  0  0  0
  2  5  2  0  0  0  0
  3  6  1  0  0  0  0
  4  6  2  0  0  0  0
  5 14  1  0  0  0  0
  6 16  1  0  0  0  0
  7 15  1  0  0  0  0
  7 16  1  0  0  0  0
  7 17  2  0  0  0  0
  8 10  1  0  0  0  0
  8 15  1  0  0  0  0
  9 11  1  0  0  0  0
  9 15  1  0  0  0  0
 10 18  1  0  0  0  0
 11 18  1  0  0  0  0
 12 14  1  0  0  0  0
 13 14  1  0  0  0  0
 16 19  1  0  0  0  0
M  END
> <ref_mols>
x0509_0

> <original SMILES>
CC(C)C=1C=CC(NC(=O)N2CCOCC2)=CC1

> <Chemgauss4>
-8.365993

> <ref_pdb>
x0161_0

$$$$
x0244
  -OEChem-05172015543D

 13 14  0     0  0  0  0  0  0999 V2000
   14.4016   -1.2014   23.7108 C   0  0  0  0  0  0  0  0  0  0  0  0
   14.5798   -1.6141   22.3904 C   0  0  0  0  0  0  0  0  0  0  0  0
   13.2332   -0.5359   24.0819 C   0  0  0  0  0  0  0  0  0  0  0  0
   13.5897   -1.3612   21.4410 C   0  0  0  0  0  0  0  0  0  0  0  0
   12.2431   -0.2830   23.1325 C   0  0  0  0  0  0  0  0  0  0  0  0
    7.7331   -0.4826   21.5030 C   0  0  0  0  0  0  0  0  0  0  0  0
   12.4214   -0.6956   21.8120 C   0  0  0  0  0  0  0  0  0  0  0  0
   10.0195   -0.3212   20.9434 C   0  0  0  0  0  0  0  0  0  0  0  0
    7.9310    0.3352   20.4910 N   0  0  0  0  0  0  0  0  0  0  0  0
    9.2721    0.4291   20.1622 N   0  0  0  0  0  0  0  0  0  0  0  0
   11.4200   -0.4398   20.8523 N   0  0  0  0  0  0  0  0  0  0  0  0
    9.1563   -1.1998   22.1369 S   0  0  0  0  0  0  0  0  0  0  0  0
   11.7808   -0.3180   19.9107 H   0  0  0  0  0  0  0  0  0  0  0  0
  1  2  1  0  0  0  0
  1  3  2  0  0  0  0
  2  4  2  0  0  0  0
  3  5  1  0  0  0  0
  4  7  1  0  0  0  0
  5  7  2  0  0  0  0
  6  9  2  0  0  0  0
  6 12  1  0  0  0  0
  7 11  1  0  0  0  0
  8 10  2  0  0  0  0
  8 11  1  0  0  0  0
  8 12  1  0  0  0  0
  9 10  1  0  0  0  0
 11 13  1  0  0  0  0
M  END
> <ref_mols>
x0244_0

> <original SMILES>
N(C1=NN=CS1)C=2C=CC=CC2

> <Chemgauss4>
-8.357056

> <ref_pdb>
x0678_0

$$$$
x0405
  -OEChem-05172015543D

 18 19  0     0  0  0  0  0  0999 V2000
   13.8877   -0.7445   22.8364 C   0  0  0  0  0  0  0  0  0  0  0  0
   13.3289    0.3899   22.2478 C   0  0  0  0  0  0  0  0  0  0  0  0
   12.4580   -0.4500   24.7616 C   0  0  0  0  0  0  0  0  0  0  0  0
   13.4522   -1.1645   24.0933 C   0  0  0  0  0  0  0  0  0  0  0  0
   11.8991    0.6844   24.1730 C   0  0  0  0  0  0  0  0  0  0  0  0
   12.3346    1.1044   22.9161 C   0  0  0  0  0  0  0  0  0  0  0  0
   12.7505    4.2265   23.1893 C   0  0  0  0  0  0  0  0  0  0  0  0
   11.5317    5.7589   24.7018 C   0  0  0  0  0  0  0  0  0  0  0  0
   10.2285    4.5064   23.0328 C   0  0  0  0  0  0  0  0  0  0  0  0
   10.7049    6.9882   24.3529 C   0  0  0  0  0  0  0  0  0  0  0  0
    9.4518    5.7877   22.7571 C   0  0  0  0  0  0  0  0  0  0  0  0
   14.0491   -2.3783   24.7214 C   0  0  0  0  0  0  0  0  0  0  0  0
   10.8349    1.4366   24.9018 C   0  0  0  0  0  0  0  0  0  0  0  0
   12.6813    3.2792   22.0184 C   0  0  0  0  0  0  0  0  0  0  0  0
   11.5529    4.8230   23.5778 N   0  0  0  0  0  0  0  0  0  0  0  0
   13.8359    4.4323   23.7382 O   0  0  0  0  0  0  0  0  0  0  0  0
    9.3944    6.5991   23.9333 O   0  0  0  0  0  0  0  0  0  0  0  0
   11.7963    2.2208   22.3220 O   0  0  0  0  0  0  0  0  0  0  0  0
  1  2  2  0  0  0  0
  1  4  1  0  0  0  0
  2  6  1  0  0  0  0
  3  4  2  0  0  0  0
  3  5  1  0  0  0  0
  4 12  1  0  0  0  0
  5  6  2  0  0  0  0
  5 13  1  0  0  0  0
  6 18  1  0  0  0  0
  7 14  1  0  0  0  0
  7 15  1  0  0  0  0
  7 16  2  0  0  0  0
  8 10  1  0  0  0  0
  8 15  1  0  0  0  0
  9 11  1  0  0  0  0
  9 15  1  0  0  0  0
 10 17  1  0  0  0  0
 11 17  1  0  0  0  0
 14 18  1  0  0  0  0
M  END
> <ref_mols>
x0405_0

> <original SMILES>
CC=1C=CC(OCC(=O)N2CCOCC2)=C(C)C1

> <Chemgauss4>
-8.356479

> <ref_pdb>
x0161_0

$$$$
x0317
  -OEChem-05172015543D

 15 15  0     0  0  0  0  0  0999 V2000
   12.3800   -0.2118   23.3551 C   0  0  0  0  0  0  0  0  0  0  0  0
   12.0333    1.1308   23.2038 C   0  0  0  0  0  0  0  0  0  0  0  0
   14.5304    0.2298   22.3463 C   0  0  0  0  0  0  0  0  0  0  0  0
   13.6286   -0.6623   22.9264 C   0  0  0  0  0  0  0  0  0  0  0  0
   12.9351    2.0229   22.6237 C   0  0  0  0  0  0  0  0  0  0  0  0
   14.1837    1.5724   22.1950 C   0  0  0  0  0  0  0  0  0  0  0  0
   13.4060    4.4928   22.4839 C   0  0  0  0  0  0  0  0  0  0  0  0
   13.9989   -2.0978   23.0883 C   0  0  0  0  0  0  0  0  0  0  0  0
   11.5413    5.9623   23.3611 C   0  0  0  0  0  0  0  0  0  0  0  0
   12.6012    5.7696   22.2914 C   0  0  0  0  0  0  0  0  0  0  0  0
   12.5727    3.3639   22.4769 N   0  0  0  0  0  0  0  0  0  0  0  0
   14.6246    4.5066   22.6221 O   0  0  0  0  0  0  0  0  0  0  0  0
   15.0792    2.4277   21.6251 O   0  0  0  0  0  0  0  0  0  0  0  0
   11.5724    3.5514   22.3472 H   0  0  0  0  0  0  0  0  0  0  0  0
   15.8903    1.9524   21.3868 H   0  0  0  0  0  0  0  0  0  0  0  0
  1  2  2  0  0  0  0
  1  4  1  0  0  0  0
  2  5  1  0  0  0  0
  3  4  2  0  0  0  0
  3  6  1  0  0  0  0
  4  8  1  0  0  0  0
  5  6  2  0  0  0  0
  5 11  1  0  0  0  0
  6 13  1  0  0  0  0
  7 10  1  0  0  0  0
  7 11  1  0  0  0  0
  7 12  2  0  0  0  0
  9 10  1  0  0  0  0
 11 14  1  0  0  0  0
 13 15  1  0  0  0  0
M  END
> <ref_mols>
x0317_0

> <original SMILES>
CCC(=O)NC=1C=CC(C)=CC1O

> <Chemgauss4>
-8.354318

> <ref_pdb>
x0195_0

$$$$
x0552
  -OEChem-05172015543D

 16 17  0     0  0  0  0  0  0999 V2000
   13.6578   -1.9566   22.5362 C   0  0  0  0  0  0  0  0  0  0  0  0
   12.3870   -2.0919   23.0842 C   0  0  0  0  0  0  0  0  0  0  0  0
   14.1948   -0.6935   22.2748 C   0  0  0  0  0  0  0  0  0  0  0  0
   11.6192   -0.9632   23.3852 C   0  0  0  0  0  0  0  0  0  0  0  0
   12.1380    0.3249   23.1310 C   0  0  0  0  0  0  0  0  0  0  0  0
   13.4182    0.4359   22.5797 C   0  0  0  0  0  0  0  0  0  0  0  0
   12.2728    2.5241   23.0188 C   0  0  0  0  0  0  0  0  0  0  0  0
   10.8537    4.5200   23.5787 C   0  0  0  0  0  0  0  0  0  0  0  0
   10.2589   -1.1674   23.9735 C   0  0  0  0  0  0  0  0  0  0  0  0
    9.9046    6.6705   23.9312 C   0  0  0  0  0  0  0  0  0  0  0  0
   11.4950    1.5293   23.3769 N   0  0  0  0  0  0  0  0  0  0  0  0
   12.0057    3.8649   23.1005 N   0  0  0  0  0  0  0  0  0  0  0  0
    9.8463    3.9842   24.0241 O   0  0  0  0  0  0  0  0  0  0  0  0
   11.0079    5.8771   23.4783 O   0  0  0  0  0  0  0  0  0  0  0  0
   13.8009    2.1045   22.3747 S   0  0  0  0  0  0  0  0  0  0  0  0
   12.7614    4.4888   22.7609 H   0  0  0  0  0  0  0  0  0  0  0  0
  1  2  1  0  0  0  0
  1  3  2  0  0  0  0
  2  4  2  0  0  0  0
  3  6  1  0  0  0  0
  4  5  1  0  0  0  0
  4  9  1  0  0  0  0
  5  6  2  0  0  0  0
  5 11  1  0  0  0  0
  6 15  1  0  0  0  0
  7 11  2  0  0  0  0
  7 12  1  0  0  0  0
  7 15  1  0  0  0  0
  8 12  1  0  0  0  0
  8 13  2  0  0  0  0
  8 14  1  0  0  0  0
 10 14  1  0  0  0  0
 12 16  1  0  0  0  0
M  END
> <ref_mols>
x0552_0

> <original SMILES>
COC(=O)NC1=NC=2C(C)=CC=CC2S1

> <Chemgauss4>
-8.350819

> <ref_pdb>
x0195_0

$$$$
x2816
  -OEChem-05172015543D

 20 21  0     0  0  0  0  0  0999 V2000
   14.1852    1.4409   22.3632 C   0  0  0  0  0  0  0  0  0  0  0  0
   14.6759    0.1565   22.1157 C   0  0  0  0  0  0  0  0  0  0  0  0
   12.7215   -0.7801   23.1547 C   0  0  0  0  0  0  0  0  0  0  0  0
   10.5413    2.0059   24.2799 C   0  0  0  0  0  0  0  0  0  0  0  0
   12.2281    0.5119   23.4035 C   0  0  0  0  0  0  0  0  0  0  0  0
   11.0012    0.7174   24.0489 C   0  0  0  0  0  0  0  0  0  0  0  0
   12.9663    1.6456   23.0040 C   0  0  0  0  0  0  0  0  0  0  0  0
   13.9434   -0.9556   22.5118 C   0  0  0  0  0  0  0  0  0  0  0  0
   11.3334    3.0523   23.8527 C   0  0  0  0  0  0  0  0  0  0  0  0
   10.1569   -0.3829   24.5044 C   0  0  0  0  0  0  0  0  0  0  0  0
   10.8789    4.4554   24.0795 C   0  0  0  0  0  0  0  0  0  0  0  0
   13.6126   -3.3025   22.7075 C   0  0  0  0  0  0  0  0  0  0  0  0
   12.5226    2.8972   23.2269 N   0  0  0  0  0  0  0  0  0  0  0  0
    9.0782   -1.4190   26.3786 N   0  0  0  0  0  0  0  0  0  0  0  0
    9.8919   -0.4214   25.8735 N   0  0  0  0  0  0  0  0  0  0  0  0
    9.6802   -1.2225   23.7283 O   0  0  0  0  0  0  0  0  0  0  0  0
   14.4183   -2.2076   22.2729 O   0  0  0  0  0  0  0  0  0  0  0  0
    8.5659   -1.0133   27.1607 H   0  0  0  0  0  0  0  0  0  0  0  0
    8.3823   -1.6221   25.6624 H   0  0  0  0  0  0  0  0  0  0  0  0
   10.2920    0.2755   26.4924 H   0  0  0  0  0  0  0  0  0  0  0  0
  1  2  2  0  0  0  0
  1  7  1  0  0  0  0
  2  8  1  0  0  0  0
  3  5  1  0  0  0  0
  3  8  2  0  0  0  0
  4  6  2  0  0  0  0
  4  9  1  0  0  0  0
  5  6  1  0  0  0  0
  5  7  2  0  0  0  0
  6 10  1  0  0  0  0
  7 13  1  0  0  0  0
  8 17  1  0  0  0  0
  9 11  1  0  0  0  0
  9 13  2  0  0  0  0
 10 15  1  0  0  0  0
 10 16  2  0  0  0  0
 12 17  1  0  0  0  0
 14 15  1  0  0  0  0
 14 18  1  0  0  0  0
 14 19  1  0  0  0  0
 15 20  1  0  0  0  0
M  END
> <ref_mols>
x2816_0

> <original SMILES>
COC=1C=CC=2N=C(C)C=C(C(=O)NN)C2C1

> <Chemgauss4>
-8.344446

> <ref_pdb>
x0195_0

$$$$
x0633
  -OEChem-05172015543D

 19 20  0     0  0  0  0  0  0999 V2000
    9.3189   -1.2131   25.3249 C   0  0  0  0  0  0  0  0  0  0  0  0
   10.6589   -1.5136   23.3372 C   0  0  0  0  0  0  0  0  0  0  0  0
    8.7183   -2.4531   25.1076 C   0  0  0  0  0  0  0  0  0  0  0  0
   10.0584   -2.7537   23.1198 C   0  0  0  0  0  0  0  0  0  0  0  0
   10.2891   -0.7433   24.4397 C   0  0  0  0  0  0  0  0  0  0  0  0
    9.0880   -3.2234   24.0050 C   0  0  0  0  0  0  0  0  0  0  0  0
   11.8785    1.1295   23.8788 C   0  0  0  0  0  0  0  0  0  0  0  0
   10.1303    2.8023   23.0121 C   0  0  0  0  0  0  0  0  0  0  0  0
   12.5390    3.3567   23.0035 C   0  0  0  0  0  0  0  0  0  0  0  0
    9.8139    4.1782   23.5873 C   0  0  0  0  0  0  0  0  0  0  0  0
   12.2444    4.7228   23.6008 C   0  0  0  0  0  0  0  0  0  0  0  0
   10.5556    6.5600   23.6089 C   0  0  0  0  0  0  0  0  0  0  0  0
   11.5003    2.3805   23.3422 N   0  0  0  0  0  0  0  0  0  0  0  0
   10.8993    0.5167   24.6603 N   0  0  0  0  0  0  0  0  0  0  0  0
   10.8712    5.1630   23.1537 N   0  3  0  0  0  0  0  0  0  0  0  0
   12.9800    0.6273   23.6412 O   0  0  0  0  0  0  0  0  0  0  0  0
    8.5122   -4.4148   23.7967 F   0  0  0  0  0  0  0  0  0  0  0  0
   10.5736    1.0482   25.5127 H   0  0  0  0  0  0  0  0  0  0  0  0
   10.8720    5.1828   22.1241 H   0  0  0  0  0  0  0  0  0  0  0  0
  1  3  2  0  0  0  0
  1  5  1  0  0  0  0
  2  4  1  0  0  0  0
  2  5  2  0  0  0  0
  3  6  1  0  0  0  0
  4  6  2  0  0  0  0
  5 14  1  0  0  0  0
  6 17  1  0  0  0  0
  7 13  1  0  0  0  0
  7 14  1  0  0  0  0
  7 16  2  0  0  0  0
  8 10  1  0  0  0  0
  8 13  1  0  0  0  0
  9 11  1  0  0  0  0
  9 13  1  0  0  0  0
 10 15  1  0  0  0  0
 11 15  1  0  0  0  0
 12 15  1  0  0  0  0
 14 18  1  0  0  0  0
 15 19  1  0  0  0  0
M  CHG  1  15   1
M  END
> <ref_mols>
x0633_0

> <original SMILES>
CN1CCN(CC1)C(=O)NC=2C=CC(F)=CC2

> <Chemgauss4>
-8.338463

> <ref_pdb>
x0104_0

$$$$
x1066
  -OEChem-05172015543D

 19 20  0     0  0  0  0  0  0999 V2000
    9.3189   -1.2131   25.3249 C   0  0  0  0  0  0  0  0  0  0  0  0
   10.6589   -1.5136   23.3372 C   0  0  0  0  0  0  0  0  0  0  0  0
    8.7183   -2.4531   25.1076 C   0  0  0  0  0  0  0  0  0  0  0  0
   10.0584   -2.7537   23.1198 C   0  0  0  0  0  0  0  0  0  0  0  0
   10.2891   -0.7433   24.4397 C   0  0  0  0  0  0  0  0  0  0  0  0
    9.0880   -3.2234   24.0050 C   0  0  0  0  0  0  0  0  0  0  0  0
   11.8785    1.1295   23.8788 C   0  0  0  0  0  0  0  0  0  0  0  0
   10.1303    2.8023   23.0121 C   0  0  0  0  0  0  0  0  0  0  0  0
   12.5390    3.3567   23.0035 C   0  0  0  0  0  0  0  0  0  0  0  0
    9.8139    4.1782   23.5873 C   0  0  0  0  0  0  0  0  0  0  0  0
   12.2444    4.7228   23.6008 C   0  0  0  0  0  0  0  0  0  0  0  0
   10.5556    6.5600   23.6089 C   0  0  0  0  0  0  0  0  0  0  0  0
   11.5003    2.3805   23.3422 N   0  0  0  0  0  0  0  0  0  0  0  0
   10.8993    0.5167   24.6603 N   0  0  0  0  0  0  0  0  0  0  0  0
   10.8712    5.1630   23.1537 N   0  3  0  0  0  0  0  0  0  0  0  0
   12.9800    0.6273   23.6412 O   0  0  0  0  0  0  0  0  0  0  0  0
    8.5122   -4.4148   23.7967 F   0  0  0  0  0  0  0  0  0  0  0  0
   10.5736    1.0482   25.5127 H   0  0  0  0  0  0  0  0  0  0  0  0
   10.8720    5.1828   22.1241 H   0  0  0  0  0  0  0  0  0  0  0  0
  1  3  2  0  0  0  0
  1  5  1  0  0  0  0
  2  4  1  0  0  0  0
  2  5  2  0  0  0  0
  3  6  1  0  0  0  0
  4  6  2  0  0  0  0
  5 14  1  0  0  0  0
  6 17  1  0  0  0  0
  7 13  1  0  0  0  0
  7 14  1  0  0  0  0
  7 16  2  0  0  0  0
  8 10  1  0  0  0  0
  8 13  1  0  0  0  0
  9 11  1  0  0  0  0
  9 13  1  0  0  0  0
 10 15  1  0  0  0  0
 11 15  1  0  0  0  0
 12 15  1  0  0  0  0
 14 18  1  0  0  0  0
 15 19  1  0  0  0  0
M  CHG  1  15   1
M  END
> <ref_mols>
x1066_0

> <original SMILES>
CN1CCN(CC1)C(=O)NC=2C=CC(F)=CC2

> <Chemgauss4>
-8.338463

> <ref_pdb>
x0104_0

$$$$
x1351
  -OEChem-05172015543D

 20 21  0     0  0  0  0  0  0999 V2000
   13.4441   -1.0099   25.7420 C   0  0  0  0  0  0  0  0  0  0  0  0
   12.2009   -0.3795   25.7937 C   0  0  0  0  0  0  0  0  0  0  0  0
   13.5409   -2.3250   25.2872 C   0  0  0  0  0  0  0  0  0  0  0  0
   11.0545   -1.0643   25.3907 C   0  0  0  0  0  0  0  0  0  0  0  0
   12.3944   -3.0097   24.8841 C   0  0  0  0  0  0  0  0  0  0  0  0
   11.1512   -2.3794   24.9359 C   0  0  0  0  0  0  0  0  0  0  0  0
    9.9301   -3.1086   24.5067 C   0  0  0  0  0  0  0  0  0  0  0  0
    4.9656   -5.3384   22.6747 C   0  0  0  0  0  0  0  0  0  0  0  0
    7.6273   -5.0203   25.0532 C   0  0  0  0  0  0  0  0  0  0  0  0
    8.5946   -5.1922   22.7325 C   0  0  0  0  0  0  0  0  0  0  0  0
    6.4398   -5.8609   24.5917 C   0  0  0  0  0  0  0  0  0  0  0  0
    7.3869   -6.0297   22.3168 C   0  0  0  0  0  0  0  0  0  0  0  0
    8.8810   -5.3354   24.2311 C   0  0  0  0  0  0  0  0  0  0  0  0
    3.7759   -5.7639   23.4977 C   0  0  0  0  0  0  0  0  0  0  0  0
    6.2214   -5.7131   23.1514 N   0  0  0  0  0  0  0  0  0  0  0  0
    9.9776   -4.4873   24.6286 N   0  0  0  0  0  0  0  0  0  0  0  0
    8.9780   -2.4740   24.0603 O   0  0  0  0  0  0  0  0  0  0  0  0
    4.7821   -4.6945   21.6385 O   0  0  0  0  0  0  0  0  0  0  0  0
    2.4284   -5.9435   22.3798 Cl  0  0  0  0  0  0  0  0  0  0  0  0
   10.8229   -4.9478   24.9476 H   0  0  0  0  0  0  0  0  0  0  0  0
  1  2  1  0  0  0  0
  1  3  2  0  0  0  0
  2  4  2  0  0  0  0
  3  5  1  0  0  0  0
  4  6  1  0  0  0  0
  5  6  2  0  0  0  0
  6  7  1  0  0  0  0
  7 16  1  0  0  0  0
  7 17  2  0  0  0  0
  8 14  1  0  0  0  0
  8 15  1  0  0  0  0
  8 18  2  0  0  0  0
  9 11  1  0  0  0  0
  9 13  1  0  0  0  0
 10 12  1  0  0  0  0
 10 13  1  0  0  0  0
 11 15  1  0  0  0  0
 12 15  1  0  0  0  0
 13 16  1  0  0  0  0
 14 19  1  0  0  0  0
 16 20  1  0  0  0  0
M  END
> <ref_mols>
x1351_0

> <original SMILES>
ClCC(=O)N1CCC(CC1)NC(=O)c2ccccc2

> <Chemgauss4>
-8.333139

> <ref_pdb>
x0749_0

$$$$
x1426
  -OEChem-05172015543D

 20 21  0     0  0  0  0  0  0999 V2000
   13.4441   -1.0099   25.7420 C   0  0  0  0  0  0  0  0  0  0  0  0
   12.2009   -0.3795   25.7937 C   0  0  0  0  0  0  0  0  0  0  0  0
   13.5409   -2.3250   25.2872 C   0  0  0  0  0  0  0  0  0  0  0  0
   11.0545   -1.0643   25.3907 C   0  0  0  0  0  0  0  0  0  0  0  0
   12.3944   -3.0097   24.8841 C   0  0  0  0  0  0  0  0  0  0  0  0
   11.1512   -2.3794   24.9359 C   0  0  0  0  0  0  0  0  0  0  0  0
    9.9301   -3.1086   24.5067 C   0  0  0  0  0  0  0  0  0  0  0  0
    4.9656   -5.3384   22.6747 C   0  0  0  0  0  0  0  0  0  0  0  0
    7.6273   -5.0203   25.0532 C   0  0  0  0  0  0  0  0  0  0  0  0
    8.5946   -5.1922   22.7325 C   0  0  0  0  0  0  0  0  0  0  0  0
    6.4398   -5.8609   24.5917 C   0  0  0  0  0  0  0  0  0  0  0  0
    7.3869   -6.0297   22.3168 C   0  0  0  0  0  0  0  0  0  0  0  0
    8.8810   -5.3354   24.2311 C   0  0  0  0  0  0  0  0  0  0  0  0
    3.7759   -5.7639   23.4977 C   0  0  0  0  0  0  0  0  0  0  0  0
    6.2214   -5.7131   23.1514 N   0  0  0  0  0  0  0  0  0  0  0  0
    9.9776   -4.4873   24.6286 N   0  0  0  0  0  0  0  0  0  0  0  0
    8.9780   -2.4740   24.0603 O   0  0  0  0  0  0  0  0  0  0  0  0
    4.7821   -4.6945   21.6385 O   0  0  0  0  0  0  0  0  0  0  0  0
    2.4284   -5.9435   22.3798 Cl  0  0  0  0  0  0  0  0  0  0  0  0
   10.8229   -4.9478   24.9476 H   0  0  0  0  0  0  0  0  0  0  0  0
  1  2  1  0  0  0  0
  1  3  2  0  0  0  0
  2  4  2  0  0  0  0
  3  5  1  0  0  0  0
  4  6  1  0  0  0  0
  5  6  2  0  0  0  0
  6  7  1  0  0  0  0
  7 16  1  0  0  0  0
  7 17  2  0  0  0  0
  8 14  1  0  0  0  0
  8 15  1  0  0  0  0
  8 18  2  0  0  0  0
  9 11  1  0  0  0  0
  9 13  1  0  0  0  0
 10 12  1  0  0  0  0
 10 13  1  0  0  0  0
 11 15  1  0  0  0  0
 12 15  1  0  0  0  0
 13 16  1  0  0  0  0
 14 19  1  0  0  0  0
 16 20  1  0  0  0  0
M  END
> <ref_mols>
x1426_0

> <original SMILES>
ClCC(=O)N1CCC(CC1)NC(=O)c2ccccc2

> <Chemgauss4>
-8.333139

> <ref_pdb>
x0749_0

$$$$
x1451
  -OEChem-05172015543D

 20 21  0     0  0  0  0  0  0999 V2000
   13.4441   -1.0099   25.7420 C   0  0  0  0  0  0  0  0  0  0  0  0
   12.2009   -0.3795   25.7937 C   0  0  0  0  0  0  0  0  0  0  0  0
   13.5409   -2.3250   25.2872 C   0  0  0  0  0  0  0  0  0  0  0  0
   11.0545   -1.0643   25.3907 C   0  0  0  0  0  0  0  0  0  0  0  0
   12.3944   -3.0097   24.8841 C   0  0  0  0  0  0  0  0  0  0  0  0
   11.1512   -2.3794   24.9359 C   0  0  0  0  0  0  0  0  0  0  0  0
    9.9301   -3.1086   24.5067 C   0  0  0  0  0  0  0  0  0  0  0  0
    4.9656   -5.3384   22.6747 C   0  0  0  0  0  0  0  0  0  0  0  0
    7.6273   -5.0203   25.0532 C   0  0  0  0  0  0  0  0  0  0  0  0
    8.5946   -5.1922   22.7325 C   0  0  0  0  0  0  0  0  0  0  0  0
    6.4398   -5.8609   24.5917 C   0  0  0  0  0  0  0  0  0  0  0  0
    7.3869   -6.0297   22.3168 C   0  0  0  0  0  0  0  0  0  0  0  0
    8.8810   -5.3354   24.2311 C   0  0  0  0  0  0  0  0  0  0  0  0
    3.7759   -5.7639   23.4977 C   0  0  0  0  0  0  0  0  0  0  0  0
    6.2214   -5.7131   23.1514 N   0  0  0  0  0  0  0  0  0  0  0  0
    9.9776   -4.4873   24.6286 N   0  0  0  0  0  0  0  0  0  0  0  0
    8.9780   -2.4740   24.0603 O   0  0  0  0  0  0  0  0  0  0  0  0
    4.7821   -4.6945   21.6385 O   0  0  0  0  0  0  0  0  0  0  0  0
    2.4284   -5.9435   22.3798 Cl  0  0  0  0  0  0  0  0  0  0  0  0
   10.8229   -4.9478   24.9476 H   0  0  0  0  0  0  0  0  0  0  0  0
  1  2  1  0  0  0  0
  1  3  2  0  0  0  0
  2  4  2  0  0  0  0
  3  5  1  0  0  0  0
  4  6  1  0  0  0  0
  5  6  2  0  0  0  0
  6  7  1  0  0  0  0
  7 16  1  0  0  0  0
  7 17  2  0  0  0  0
  8 14  1  0  0  0  0
  8 15  1  0  0  0  0
  8 18  2  0  0  0  0
  9 11  1  0  0  0  0
  9 13  1  0  0  0  0
 10 12  1  0  0  0  0
 10 13  1  0  0  0  0
 11 15  1  0  0  0  0
 12 15  1  0  0  0  0
 13 16  1  0  0  0  0
 14 19  1  0  0  0  0
 16 20  1  0  0  0  0
M  END
> <ref_mols>
x1451_0

> <original SMILES>
ClCC(=O)N1CCC(CC1)NC(=O)c2ccccc2

> <Chemgauss4>
-8.333139

> <ref_pdb>
x0749_0

$$$$
x1313
  -OEChem-05172015543D

 20 21  0     0  0  0  0  0  0999 V2000
   13.4441   -1.0099   25.7420 C   0  0  0  0  0  0  0  0  0  0  0  0
   12.2009   -0.3795   25.7937 C   0  0  0  0  0  0  0  0  0  0  0  0
   13.5409   -2.3250   25.2872 C   0  0  0  0  0  0  0  0  0  0  0  0
   11.0545   -1.0643   25.3907 C   0  0  0  0  0  0  0  0  0  0  0  0
   12.3944   -3.0097   24.8841 C   0  0  0  0  0  0  0  0  0  0  0  0
   11.1512   -2.3794   24.9359 C   0  0  0  0  0  0  0  0  0  0  0  0
    9.9301   -3.1086   24.5067 C   0  0  0  0  0  0  0  0  0  0  0  0
    4.9656   -5.3384   22.6747 C   0  0  0  0  0  0  0  0  0  0  0  0
    7.6273   -5.0203   25.0532 C   0  0  0  0  0  0  0  0  0  0  0  0
    8.5946   -5.1922   22.7325 C   0  0  0  0  0  0  0  0  0  0  0  0
    6.4398   -5.8609   24.5917 C   0  0  0  0  0  0  0  0  0  0  0  0
    7.3869   -6.0297   22.3168 C   0  0  0  0  0  0  0  0  0  0  0  0
    8.8810   -5.3354   24.2311 C   0  0  0  0  0  0  0  0  0  0  0  0
    3.7759   -5.7639   23.4977 C   0  0  0  0  0  0  0  0  0  0  0  0
    6.2214   -5.7131   23.1514 N   0  0  0  0  0  0  0  0  0  0  0  0
    9.9776   -4.4873   24.6286 N   0  0  0  0  0  0  0  0  0  0  0  0
    8.9780   -2.4740   24.0603 O   0  0  0  0  0  0  0  0  0  0  0  0
    4.7821   -4.6945   21.6385 O   0  0  0  0  0  0  0  0  0  0  0  0
    2.4284   -5.9435   22.3798 Cl  0  0  0  0  0  0  0  0  0  0  0  0
   10.8229   -4.9478   24.9476 H   0  0  0  0  0  0  0  0  0  0  0  0
  1  2  1  0  0  0  0
  1  3  2  0  0  0  0
  2  4  2  0  0  0  0
  3  5  1  0  0  0  0
  4  6  1  0  0  0  0
  5  6  2  0  0  0  0
  6  7  1  0  0  0  0
  7 16  1  0  0  0  0
  7 17  2  0  0  0  0
  8 14  1  0  0  0  0
  8 15  1  0  0  0  0
  8 18  2  0  0  0  0
  9 11  1  0  0  0  0
  9 13  1  0  0  0  0
 10 12  1  0  0  0  0
 10 13  1  0  0  0  0
 11 15  1  0  0  0  0
 12 15  1  0  0  0  0
 13 16  1  0  0  0  0
 14 19  1  0  0  0  0
 16 20  1  0  0  0  0
M  END
> <ref_mols>
x1313_0

> <original SMILES>
ClCC(=O)N1CCC(CC1)NC(=O)c2ccccc2

> <Chemgauss4>
-8.333139

> <ref_pdb>
x0749_0

> <CYS145-warhead dist minimum (A)>
6.0491962

> <CYS145-warhead dist mean (A)>
8.542993

> <CYS145-warhead dist stddev (A)>
1.1650062

$$$$
x0799
  -OEChem-05172015543D

 20 21  0     0  0  0  0  0  0999 V2000
   13.4441   -1.0099   25.7420 C   0  0  0  0  0  0  0  0  0  0  0  0
   12.2009   -0.3795   25.7937 C   0  0  0  0  0  0  0  0  0  0  0  0
   13.5409   -2.3250   25.2872 C   0  0  0  0  0  0  0  0  0  0  0  0
   11.0545   -1.0643   25.3907 C   0  0  0  0  0  0  0  0  0  0  0  0
   12.3944   -3.0097   24.8841 C   0  0  0  0  0  0  0  0  0  0  0  0
   11.1512   -2.3794   24.9359 C   0  0  0  0  0  0  0  0  0  0  0  0
    9.9301   -3.1086   24.5067 C   0  0  0  0  0  0  0  0  0  0  0  0
    4.9656   -5.3384   22.6747 C   0  0  0  0  0  0  0  0  0  0  0  0
    7.6273   -5.0203   25.0532 C   0  0  0  0  0  0  0  0  0  0  0  0
    8.5946   -5.1922   22.7325 C   0  0  0  0  0  0  0  0  0  0  0  0
    6.4398   -5.8609   24.5917 C   0  0  0  0  0  0  0  0  0  0  0  0
    7.3869   -6.0297   22.3168 C   0  0  0  0  0  0  0  0  0  0  0  0
    8.8810   -5.3354   24.2311 C   0  0  0  0  0  0  0  0  0  0  0  0
    3.7759   -5.7639   23.4977 C   0  0  0  0  0  0  0  0  0  0  0  0
    6.2214   -5.7131   23.1514 N   0  0  0  0  0  0  0  0  0  0  0  0
    9.9776   -4.4873   24.6286 N   0  0  0  0  0  0  0  0  0  0  0  0
    8.9780   -2.4740   24.0603 O   0  0  0  0  0  0  0  0  0  0  0  0
    4.7821   -4.6945   21.6385 O   0  0  0  0  0  0  0  0  0  0  0  0
    2.4284   -5.9435   22.3798 Cl  0  0  0  0  0  0  0  0  0  0  0  0
   10.8229   -4.9478   24.9476 H   0  0  0  0  0  0  0  0  0  0  0  0
  1  2  1  0  0  0  0
  1  3  2  0  0  0  0
  2  4  2  0  0  0  0
  3  5  1  0  0  0  0
  4  6  1  0  0  0  0
  5  6  2  0  0  0  0
  6  7  1  0  0  0  0
  7 16  1  0  0  0  0
  7 17  2  0  0  0  0
  8 14  1  0  0  0  0
  8 15  1  0  0  0  0
  8 18  2  0  0  0  0
  9 11  1  0  0  0  0
  9 13  1  0  0  0  0
 10 12  1  0  0  0  0
 10 13  1  0  0  0  0
 11 15  1  0  0  0  0
 12 15  1  0  0  0  0
 13 16  1  0  0  0  0
 14 19  1  0  0  0  0
 16 20  1  0  0  0  0
M  END
> <ref_mols>
x0799_0

> <original SMILES>
ClCC(=O)N1CCC(CC1)NC(=O)c2ccccc2

> <Chemgauss4>
-8.333139

> <ref_pdb>
x0749_0

$$$$
x0725
  -OEChem-05172015543D

 20 21  0     0  0  0  0  0  0999 V2000
   13.4441   -1.0099   25.7420 C   0  0  0  0  0  0  0  0  0  0  0  0
   12.2009   -0.3795   25.7937 C   0  0  0  0  0  0  0  0  0  0  0  0
   13.5409   -2.3250   25.2872 C   0  0  0  0  0  0  0  0  0  0  0  0
   11.0545   -1.0643   25.3907 C   0  0  0  0  0  0  0  0  0  0  0  0
   12.3944   -3.0097   24.8841 C   0  0  0  0  0  0  0  0  0  0  0  0
   11.1512   -2.3794   24.9359 C   0  0  0  0  0  0  0  0  0  0  0  0
    9.9301   -3.1086   24.5067 C   0  0  0  0  0  0  0  0  0  0  0  0
    4.9656   -5.3384   22.6747 C   0  0  0  0  0  0  0  0  0  0  0  0
    7.6273   -5.0203   25.0532 C   0  0  0  0  0  0  0  0  0  0  0  0
    8.5946   -5.1922   22.7325 C   0  0  0  0  0  0  0  0  0  0  0  0
    6.4398   -5.8609   24.5917 C   0  0  0  0  0  0  0  0  0  0  0  0
    7.3869   -6.0297   22.3168 C   0  0  0  0  0  0  0  0  0  0  0  0
    8.8810   -5.3354   24.2311 C   0  0  0  0  0  0  0  0  0  0  0  0
    3.7759   -5.7639   23.4977 C   0  0  0  0  0  0  0  0  0  0  0  0
    6.2214   -5.7131   23.1514 N   0  0  0  0  0  0  0  0  0  0  0  0
    9.9776   -4.4873   24.6286 N   0  0  0  0  0  0  0  0  0  0  0  0
    8.9780   -2.4740   24.0603 O   0  0  0  0  0  0  0  0  0  0  0  0
    4.7821   -4.6945   21.6385 O   0  0  0  0  0  0  0  0  0  0  0  0
    2.4284   -5.9435   22.3798 Cl  0  0  0  0  0  0  0  0  0  0  0  0
   10.8229   -4.9478   24.9476 H   0  0  0  0  0  0  0  0  0  0  0  0
  1  2  1  0  0  0  0
  1  3  2  0  0  0  0
  2  4  2  0  0  0  0
  3  5  1  0  0  0  0
  4  6  1  0  0  0  0
  5  6  2  0  0  0  0
  6  7  1  0  0  0  0
  7 16  1  0  0  0  0
  7 17  2  0  0  0  0
  8 14  1  0  0  0  0
  8 15  1  0  0  0  0
  8 18  2  0  0  0  0
  9 11  1  0  0  0  0
  9 13  1  0  0  0  0
 10 12  1  0  0  0  0
 10 13  1  0  0  0  0
 11 15  1  0  0  0  0
 12 15  1  0  0  0  0
 13 16  1  0  0  0  0
 14 19  1  0  0  0  0
 16 20  1  0  0  0  0
M  END
> <ref_mols>
x0725_0

> <original SMILES>
ClCC(=O)N1CCC(CC1)NC(=O)c2ccccc2

> <Chemgauss4>
-8.333139

> <ref_pdb>
x0749_0

> <CYS145-warhead dist minimum (A)>
8.283195

> <CYS145-warhead dist mean (A)>
11.659152

> <CYS145-warhead dist stddev (A)>
0.85851586

$$$$
x0381
  -OEChem-05172015543D

 18 19  0     0  0  0  0  0  0999 V2000
   12.6059    0.9346   22.9886 C   0  0  0  0  0  0  0  0  0  0  0  0
   12.5609   -0.7560   21.2632 C   0  0  0  0  0  0  0  0  0  0  0  0
   13.3495    0.0822   23.8046 C   0  0  0  0  0  0  0  0  0  0  0  0
   13.3047   -1.6085   22.0792 C   0  0  0  0  0  0  0  0  0  0  0  0
    5.3105    0.2783   19.1291 C   0  0  0  0  0  0  0  0  0  0  0  0
    5.7926    0.6450   20.3691 C   0  0  0  0  0  0  0  0  0  0  0  0
    6.2591    0.1423   18.1362 C   0  0  0  0  0  0  0  0  0  0  0  0
   12.2115    0.5155   21.7179 C   0  0  0  0  0  0  0  0  0  0  0  0
   13.6990   -1.1894   23.3499 C   0  0  0  0  0  0  0  0  0  0  0  0
    7.9238    0.6993   19.5803 C   0  0  0  0  0  0  0  0  0  0  0  0
    9.9070    1.2904   21.0163 C   0  0  0  0  0  0  0  0  0  0  0  0
   11.4177    1.4273   20.8444 C   0  0  0  0  0  0  0  0  0  0  0  0
    7.0978    0.8644   20.6310 N   0  0  0  0  0  0  0  0  0  0  0  0
    7.5790    0.3459   18.3274 N   0  0  0  0  0  0  0  0  0  0  0  0
    9.3012    0.9204   19.8182 N   0  0  0  0  0  0  0  0  0  0  0  0
    9.3581    1.4948   22.0943 O   0  0  0  0  0  0  0  0  0  0  0  0
   14.6165   -2.2407   24.3566 Cl  0  0  0  0  0  0  0  0  0  0  0  0
    9.9213    0.7943   19.0209 H   0  0  0  0  0  0  0  0  0  0  0  0
  1  3  2  0  0  0  0
  1  8  1  0  0  0  0
  2  4  1  0  0  0  0
  2  8  2  0  0  0  0
  3  9  1  0  0  0  0
  4  9  2  0  0  0  0
  5  6  1  0  0  0  0
  5  7  2  0  0  0  0
  6 13  2  0  0  0  0
  7 14  1  0  0  0  0
  8 12  1  0  0  0  0
  9 17  1  0  0  0  0
 10 13  1  0  0  0  0
 10 14  2  0  0  0  0
 10 15  1  0  0  0  0
 11 12  1  0  0  0  0
 11 15  1  0  0  0  0
 11 16  2  0  0  0  0
 15 18  1  0  0  0  0
M  END
> <ref_mols>
x0381_0

> <original SMILES>
ClC=1C=CC(CC(=O)NC=2N=CC=CN2)=CC1

> <Chemgauss4>
-8.331869

> <ref_pdb>
x0678_0

$$$$
x0896
  -OEChem-05172015543D

 19 20  0     1  0  0  0  0  0999 V2000
   11.8334   -1.9428   22.1773 C   0  0  0  0  0  0  0  0  0  0  0  0
   11.1368   -0.4068   23.9072 C   0  0  0  0  0  0  0  0  0  0  0  0
   13.1233   -1.9554   22.7078 C   0  0  0  0  0  0  0  0  0  0  0  0
   12.4267   -0.4194   24.4378 C   0  0  0  0  0  0  0  0  0  0  0  0
   10.8401   -1.1685   22.7769 C   0  0  0  0  0  0  0  0  0  0  0  0
   13.4200   -1.1937   23.8381 C   0  0  0  0  0  0  0  0  0  0  0  0
    8.8984   -2.5689   22.2355 C   0  0  0  0  0  0  0  0  0  0  0  0
    7.4643    0.2487   19.3832 C   0  0  0  0  0  0  0  0  0  0  0  0
    8.4410   -0.2197   22.9292 C   0  0  0  0  0  0  0  0  0  0  0  0
    7.3420    0.0425   21.9065 C   0  0  0  0  0  0  0  0  0  0  0  0
    9.3495   -0.6136   20.7570 C   0  0  0  0  0  0  0  0  0  0  0  0
    9.4329   -1.1541   22.1989 C   0  0  1  0  0  0  0  0  0  0  0  0
   14.7991   -1.2091   24.4058 C   0  0  0  0  0  0  0  0  0  0  0  0
    6.0609    0.7994   19.4105 C   0  0  0  0  0  0  0  0  0  0  0  0
    7.1563   -3.8974   23.1210 C   0  0  0  0  0  0  0  0  0  0  0  0
    7.9997   -0.0836   20.6152 N   0  0  0  0  0  0  0  0  0  0  0  0
    9.4189   -3.5131   21.6571 O   0  0  0  0  0  0  0  0  0  0  0  0
    8.0639    0.1229   18.3142 O   0  0  0  0  0  0  0  0  0  0  0  0
    7.7705   -2.6104   23.0004 O   0  0  0  0  0  0  0  0  0  0  0  0
  1  3  1  0  0  0  0
  1  5  2  0  0  0  0
  2  4  2  0  0  0  0
  2  5  1  0  0  0  0
  3  6  2  0  0  0  0
  4  6  1  0  0  0  0
  5 12  1  0  0  0  0
  6 13  1  0  0  0  0
  7 12  1  0  0  0  0
  7 17  2  0  0  0  0
  7 19  1  0  0  0  0
  8 14  1  0  0  0  0
  8 16  1  0  0  0  0
  8 18  2  0  0  0  0
  9 10  1  0  0  0  0
  9 12  1  0  0  0  0
 10 16  1  0  0  0  0
 11 12  1  0  0  0  0
 11 16  1  0  0  0  0
 15 19  1  0  0  0  0
M  END
> <ref_mols>
x0896_0

> <original SMILES>
CC(C=C1)=CC=C1C2(C(OC)=O)CN(C(C)=O)CC2

> <Chemgauss4>
-8.331729

> <ref_pdb>
x0678_0

$$$$
x2875
  -OEChem-05172015543D

 22 24  0     0  0  0  0  0  0999 V2000
    7.2371   -4.7305   22.9402 C   0  0  0  0  0  0  0  0  0  0  0  0
   11.0730   -4.1647   24.7725 C   0  0  0  0  0  0  0  0  0  0  0  0
   12.2259   -3.8951   25.5104 C   0  0  0  0  0  0  0  0  0  0  0  0
    8.3691   -4.5198   23.7196 C   0  0  0  0  0  0  0  0  0  0  0  0
    6.9180   -3.8302   21.9298 C   0  0  0  0  0  0  0  0  0  0  0  0
   10.7403   -1.7969   24.4135 C   0  0  0  0  0  0  0  0  0  0  0  0
   10.3343   -3.1177   24.2206 C   0  0  0  0  0  0  0  0  0  0  0  0
   12.6401   -2.5753   25.6927 C   0  0  0  0  0  0  0  0  0  0  0  0
   11.8855   -1.5256   25.1628 C   0  0  0  0  0  0  0  0  0  0  0  0
    9.1429   -3.4024   23.4505 C   0  0  0  0  0  0  0  0  0  0  0  0
    7.7567   -2.7436   21.7409 C   0  0  0  0  0  0  0  0  0  0  0  0
    7.3650   -0.5540   18.0640 C   0  0  0  0  0  0  0  0  0  0  0  0
    6.3386   -0.7455   18.8987 C   0  0  0  0  0  0  0  0  0  0  0  0
    6.3363   -1.8970   19.8471 C   0  0  0  0  0  0  0  0  0  0  0  0
   14.3003   -1.0490   26.2407 C   0  0  0  0  0  0  0  0  0  0  0  0
   13.1816   -0.0351   26.3811 C   0  0  0  0  0  0  0  0  0  0  0  0
    8.8649   -2.5057   22.4778 N   0  0  0  0  0  0  0  0  0  0  0  0
    7.4272   -1.8430   20.7209 N   0  0  0  0  0  0  0  0  0  0  0  0
    5.4569   -2.7494   19.8094 O   0  0  0  0  0  0  0  0  0  0  0  0
   13.7911   -2.3750   26.4091 O   0  0  0  0  0  0  0  0  0  0  0  0
   12.2219   -0.2082   25.3350 O   0  0  0  0  0  0  0  0  0  0  0  0
    8.0623   -1.0475   20.5999 H   0  0  0  0  0  0  0  0  0  0  0  0
  1  4  2  0  0  0  0
  1  5  1  0  0  0  0
  2  3  1  0  0  0  0
  2  7  2  0  0  0  0
  3  8  2  0  0  0  0
  4 10  1  0  0  0  0
  5 11  2  0  0  0  0
  6  7  1  0  0  0  0
  6  9  2  0  0  0  0
  7 10  1  0  0  0  0
  8  9  1  0  0  0  0
  8 20  1  0  0  0  0
  9 21  1  0  0  0  0
 10 17  2  0  0  0  0
 11 17  1  0  0  0  0
 11 18  1  0  0  0  0
 12 13  2  0  0  0  0
 13 14  1  0  0  0  0
 14 18  1  0  0  0  0
 14 19  2  0  0  0  0
 15 16  1  0  0  0  0
 15 20  1  0  0  0  0
 16 21  1  0  0  0  0
 18 22  1  0  0  0  0
M  END
> <ref_mols>
x2875_0

> <original SMILES>
C=CC(Nc1nc(-c(cc2)cc3c2OCCO3)ccc1)=O

> <Chemgauss4>
-8.325779

> <ref_pdb>
x0749_0

$$$$
x0652
  -OEChem-05172015543D

 15 16  0     0  0  0  0  0  0999 V2000
   14.4490   -0.8542   22.2482 C   0  0  0  0  0  0  0  0  0  0  0  0
   13.4899   -1.8034   22.6197 C   0  0  0  0  0  0  0  0  0  0  0  0
   14.1717    0.5090   22.3284 C   0  0  0  0  0  0  0  0  0  0  0  0
   11.0545   -2.0279   23.5268 C   0  0  0  0  0  0  0  0  0  0  0  0
   10.1300   -1.0629   23.8541 C   0  0  0  0  0  0  0  0  0  0  0  0
   12.2318   -1.3657   23.0791 C   0  0  0  0  0  0  0  0  0  0  0  0
   12.9310    0.9668   22.7810 C   0  0  0  0  0  0  0  0  0  0  0  0
   11.9819    0.0065   23.1490 C   0  0  0  0  0  0  0  0  0  0  0  0
   12.6513    2.3893   22.8606 C   0  0  0  0  0  0  0  0  0  0  0  0
   13.6162    4.6741   23.2387 C   0  0  0  0  0  0  0  0  0  0  0  0
   10.6985    0.1609   23.6226 N   0  0  0  0  0  0  0  0  0  0  0  0
   13.7364    3.2397   23.1088 N   0  0  0  0  0  0  0  0  0  0  0  0
   11.4882    2.8146   22.7322 O   0  0  0  0  0  0  0  0  0  0  0  0
   10.2412    1.0487   23.7779 H   0  0  0  0  0  0  0  0  0  0  0  0
   14.6541    2.8371   23.2685 H   0  0  0  0  0  0  0  0  0  0  0  0
  1  2  1  0  0  0  0
  1  3  2  0  0  0  0
  2  6  2  0  0  0  0
  3  7  1  0  0  0  0
  4  5  2  0  0  0  0
  4  6  1  0  0  0  0
  5 11  1  0  0  0  0
  6  8  1  0  0  0  0
  7  8  2  0  0  0  0
  7  9  1  0  0  0  0
  8 11  1  0  0  0  0
  9 12  1  0  0  0  0
  9 13  2  0  0  0  0
 10 12  1  0  0  0  0
 11 14  1  0  0  0  0
 12 15  1  0  0  0  0
M  END
> <ref_mols>
x0652_0

> <original SMILES>
CNC(=O)C=1C=CC=C2C=CNC12

> <Chemgauss4>
-8.324838

> <ref_pdb>
x0195_0

$$$$
x0482
  -OEChem-05172015543D

 16 17  0     1  0  0  0  0  0999 V2000
   12.3356   -0.1604   24.3640 C   0  0  0  0  0  0  0  0  0  0  0  0
   13.6311   -0.5595   24.0547 C   0  0  0  0  0  0  0  0  0  0  0  0
   11.2547   -0.8343   23.8062 C   0  0  0  0  0  0  0  0  0  0  0  0
   13.7910   -1.6298   23.1894 C   0  0  0  0  0  0  0  0  0  0  0  0
   11.5209   -1.8921   22.9518 C   0  0  0  0  0  0  0  0  0  0  0  0
    8.9707   -2.4465   25.1887 C   0  0  0  0  0  0  0  0  0  0  0  0
    8.0378   -3.1388   26.1630 C   0  0  0  0  0  0  0  0  0  0  0  0
    7.0271   -3.0070   23.9452 C   0  0  0  0  0  0  0  0  0  0  0  0
    8.5443   -3.0165   23.8426 C   0  0  1  0  0  0  0  0  0  0  0  0
    9.0646   -2.2189   22.6599 C   0  0  0  0  0  0  0  0  0  0  0  0
   12.7656   -2.3087   22.6280 N   0  0  0  0  0  0  0  0  0  0  0  0
   10.4263   -2.5580   22.4001 N   0  0  0  0  0  0  0  0  0  0  0  0
    6.7608   -3.3135   25.3919 N   0  3  0  0  0  0  0  0  0  0  0  0
   10.6300   -3.3378   21.7720 H   0  0  0  0  0  0  0  0  0  0  0  0
    6.4109   -4.2755   25.5001 H   0  0  0  0  0  0  0  0  0  0  0  0
    6.0255   -2.6929   25.7572 H   0  0  0  0  0  0  0  0  0  0  0  0
  1  2  1  0  0  0  0
  1  3  2  0  0  0  0
  2  4  2  0  0  0  0
  3  5  1  0  0  0  0
  4 11  1  0  0  0  0
  5 11  2  0  0  0  0
  5 12  1  0  0  0  0
  6  7  1  0  0  0  0
  6  9  1  0  0  0  0
  7 13  1  0  0  0  0
  8  9  1  0  0  0  0
  8 13  1  0  0  0  0
  9 10  1  0  0  0  0
 10 12  1  0  0  0  0
 12 14  1  0  0  0  0
 13 15  1  0  0  0  0
 13 16  1  0  0  0  0
M  CHG  1  13   1
M  END
> <ref_mols>
x0482_0

> <original SMILES>
C(NC=1C=CC=CN1)C2CCNC2

> <Chemgauss4>
-8.319512

> <ref_pdb>
x0072_0

$$$$
x1193
  -OEChem-05172015543D

 16 17  0     1  0  0  0  0  0999 V2000
   12.3356   -0.1604   24.3640 C   0  0  0  0  0  0  0  0  0  0  0  0
   13.6311   -0.5595   24.0547 C   0  0  0  0  0  0  0  0  0  0  0  0
   11.2547   -0.8343   23.8062 C   0  0  0  0  0  0  0  0  0  0  0  0
   13.7910   -1.6298   23.1894 C   0  0  0  0  0  0  0  0  0  0  0  0
   11.5209   -1.8921   22.9518 C   0  0  0  0  0  0  0  0  0  0  0  0
    8.9707   -2.4465   25.1887 C   0  0  0  0  0  0  0  0  0  0  0  0
    8.0378   -3.1388   26.1630 C   0  0  0  0  0  0  0  0  0  0  0  0
    7.0271   -3.0070   23.9452 C   0  0  0  0  0  0  0  0  0  0  0  0
    8.5443   -3.0165   23.8426 C   0  0  1  0  0  0  0  0  0  0  0  0
    9.0646   -2.2189   22.6599 C   0  0  0  0  0  0  0  0  0  0  0  0
   12.7656   -2.3087   22.6280 N   0  0  0  0  0  0  0  0  0  0  0  0
   10.4263   -2.5580   22.4001 N   0  0  0  0  0  0  0  0  0  0  0  0
    6.7608   -3.3135   25.3919 N   0  3  0  0  0  0  0  0  0  0  0  0
   10.6300   -3.3378   21.7720 H   0  0  0  0  0  0  0  0  0  0  0  0
    6.4109   -4.2755   25.5001 H   0  0  0  0  0  0  0  0  0  0  0  0
    6.0255   -2.6929   25.7572 H   0  0  0  0  0  0  0  0  0  0  0  0
  1  2  1  0  0  0  0
  1  3  2  0  0  0  0
  2  4  2  0  0  0  0
  3  5  1  0  0  0  0
  4 11  1  0  0  0  0
  5 11  2  0  0  0  0
  5 12  1  0  0  0  0
  6  7  1  0  0  0  0
  6  9  1  0  0  0  0
  7 13  1  0  0  0  0
  8  9  1  0  0  0  0
  8 13  1  0  0  0  0
  9 10  1  0  0  0  0
 10 12  1  0  0  0  0
 12 14  1  0  0  0  0
 13 15  1  0  0  0  0
 13 16  1  0  0  0  0
M  CHG  1  13   1
M  END
> <ref_mols>
x1193_0

> <original SMILES>
C(NC=1C=CC=CN1)C2CCNC2

> <Chemgauss4>
-8.319512

> <ref_pdb>
x0072_0

$$$$
x2573
  -OEChem-05172015543D

 24 25  0     1  0  0  0  0  0999 V2000
    9.4139   -0.5565   24.8832 C   0  0  0  0  0  0  0  0  0  0  0  0
   10.6831   -1.8229   23.2638 C   0  0  0  0  0  0  0  0  0  0  0  0
    8.8482   -1.7376   25.3635 C   0  0  0  0  0  0  0  0  0  0  0  0
   10.1174   -3.0040   23.7441 C   0  0  0  0  0  0  0  0  0  0  0  0
   10.3313   -0.5992   23.8333 C   0  0  0  0  0  0  0  0  0  0  0  0
    9.2000   -2.9613   24.7939 C   0  0  0  0  0  0  0  0  0  0  0  0
   12.9348    1.9374   23.0184 C   0  0  0  0  0  0  0  0  0  0  0  0
   10.8107    2.5260   21.8339 C   0  0  0  0  0  0  0  0  0  0  0  0
   12.1497    1.0404   23.9750 C   0  0  0  0  0  0  0  0  0  0  0  0
   10.0290    1.6256   22.7912 C   0  0  0  0  0  0  0  0  0  0  0  0
   12.0949    3.0885   22.4527 C   0  0  0  0  0  0  0  0  0  0  0  0
    9.3708    5.6652   24.0772 C   0  0  0  0  0  0  0  0  0  0  0  0
   12.7000    6.1279   22.2740 C   0  0  0  0  0  0  0  0  0  0  0  0
   11.8028    4.1589   23.5062 C   0  0  0  0  0  0  0  0  0  0  0  0
   10.6517    6.3608   23.6711 C   0  0  0  0  0  0  0  0  0  0  0  0
   10.8996    0.5864   23.3508 N   0  0  0  0  0  0  0  0  0  0  0  0
    9.6141   -4.8688   26.6091 N   0  0  0  0  0  0  0  0  0  0  0  0
   11.4775    5.4249   22.8184 N   0  3  1  0  0  0  0  0  0  0  0  0
    7.2187   -4.1178   26.0229 O   0  0  0  0  0  0  0  0  0  0  0  0
    8.5436   -5.4401   24.3365 O   0  0  0  0  0  0  0  0  0  0  0  0
    8.4919   -4.4401   25.3940 S   0  0  0  0  0  0  0  0  0  0  0  0
    9.3231   -4.7722   27.5896 H   0  0  0  0  0  0  0  0  0  0  0  0
   10.2282   -5.6739   26.4357 H   0  0  0  0  0  0  0  0  0  0  0  0
   10.8899    5.2029   21.9939 H   0  0  0  0  0  0  0  0  0  0  0  0
  1  3  2  0  0  0  0
  1  5  1  0  0  0  0
  2  4  1  0  0  0  0
  2  5  2  0  0  0  0
  3  6  1  0  0  0  0
  4  6  2  0  0  0  0
  5 16  1  0  0  0  0
  6 21  1  0  0  0  0
  7  9  1  0  0  0  0
  7 11  1  0  0  0  0
  8 10  1  0  0  0  0
  8 11  1  0  0  0  0
  9 16  1  0  0  0  0
 10 16  1  0  0  0  0
 11 14  1  0  0  0  0
 12 15  1  0  0  0  0
 13 18  1  0  0  0  0
 14 18  1  0  0  0  0
 15 18  1  0  0  0  0
 17 21  1  0  0  0  0
 19 21  2  0  0  0  0
 20 21  2  0  0  0  0
 17 22  1  0  0  0  0
 17 23  1  0  0  0  0
 18 24  1  0  0  0  0
M  CHG  1  18   1
M  END
> <ref_mols>
x2573_0

> <original SMILES>
CCN(C)CC1CCN(CC1)C=2C=CC(=CC2)S(=O)(=O)N

> <Chemgauss4>
-8.318925

> <ref_pdb>
x0104_0

$$$$
x0185
  -OEChem-05172015543D

 16 17  0     0  0  0  0  0  0999 V2000
   14.1128   -1.6968   22.7587 C   0  0  0  0  0  0  0  0  0  0  0  0
   12.7619   -1.8395   23.0835 C   0  0  0  0  0  0  0  0  0  0  0  0
   14.6651   -0.4344   22.5079 C   0  0  0  0  0  0  0  0  0  0  0  0
   11.9149   -0.7296   23.1696 C   0  0  0  0  0  0  0  0  0  0  0  0
   13.8286    0.6917   22.5897 C   0  0  0  0  0  0  0  0  0  0  0  0
   12.4865    0.5176   22.9157 C   0  0  0  0  0  0  0  0  0  0  0  0
   12.9784    2.6504   22.5934 C   0  0  0  0  0  0  0  0  0  0  0  0
   13.6905    5.0304   22.2027 C   0  0  0  0  0  0  0  0  0  0  0  0
   13.0570    6.3990   22.2120 C   0  0  0  0  0  0  0  0  0  0  0  0
    9.6697    1.8461   22.0273 C   0  0  0  0  0  0  0  0  0  0  0  0
   10.5939    2.1391   23.1967 C   0  0  0  0  0  0  0  0  0  0  0  0
   14.1156    2.0230   22.3933 N   0  0  0  0  0  0  0  0  0  0  0  0
   11.9672    1.7868   22.9108 N   0  0  0  0  0  0  0  0  0  0  0  0
   12.7663    4.0049   22.5123 N   0  0  0  0  0  0  0  0  0  0  0  0
   14.8815    4.8914   21.9437 O   0  0  0  0  0  0  0  0  0  0  0  0
   11.8068    4.3500   22.6978 H   0  0  0  0  0  0  0  0  0  0  0  0
  1  2  1  0  0  0  0
  1  3  2  0  0  0  0
  2  4  2  0  0  0  0
  3  5  1  0  0  0  0
  4  6  1  0  0  0  0
  5  6  2  0  0  0  0
  5 12  1  0  0  0  0
  6 13  1  0  0  0  0
  7 12  2  0  0  0  0
  7 13  1  0  0  0  0
  7 14  1  0  0  0  0
  8  9  1  0  0  0  0
  8 14  1  0  0  0  0
  8 15  2  0  0  0  0
 10 11  1  0  0  0  0
 11 13  1  0  0  0  0
 14 16  1  0  0  0  0
M  END
> <ref_mols>
x0185_0

> <original SMILES>
CCN1C(NC(=O)C)=NC=2C=CC=CC12

> <Chemgauss4>
-8.318187

> <ref_pdb>
x0195_0

$$$$
x2887
  -OEChem-05172015543D

 17 18  0     0  0  0  0  0  0999 V2000
   10.2044   -2.7104   23.9307 C   0  0  0  0  0  0  0  0  0  0  0  0
   10.2099   -4.0667   24.1728 C   0  0  0  0  0  0  0  0  0  0  0  0
   11.9049   -3.1900   25.2239 C   0  0  0  0  0  0  0  0  0  0  0  0
    5.7748   -1.6918   20.2392 C   0  0  0  0  0  0  0  0  0  0  0  0
    6.8371   -2.3776   20.6720 C   0  0  0  0  0  0  0  0  0  0  0  0
    6.6684   -3.4980   21.6354 C   0  0  0  0  0  0  0  0  0  0  0  0
   11.8102   -0.8590   24.7965 C   0  0  0  0  0  0  0  0  0  0  0  0
   13.2326   -1.0177   25.3817 C   0  0  0  0  0  0  0  0  0  0  0  0
    9.3074   -5.1284   23.7175 C   0  0  0  0  0  0  0  0  0  0  0  0
    7.8541   -4.6688   23.4708 C   0  0  0  0  0  0  0  0  0  0  0  0
   11.2827   -2.1971   24.6049 N   0  0  0  0  0  0  0  0  0  0  0  0
   11.2910   -4.3377   24.9929 N   0  3  0  0  0  0  0  0  0  0  0  0
    7.7757   -3.6503   22.4582 N   0  0  0  0  0  0  0  0  0  0  0  0
    5.6566   -4.1909   21.6715 O   0  0  0  0  0  0  0  0  0  0  0  0
   13.3289   -2.7058   26.1409 S   0  0  0  0  0  0  0  0  0  0  0  0
   11.5610   -5.2510   25.3469 H   0  0  0  0  0  0  0  0  0  0  0  0
    8.5838   -3.0430   22.3303 H   0  0  0  0  0  0  0  0  0  0  0  0
  1  2  2  0  0  0  0
  1 11  1  0  0  0  0
  2  9  1  0  0  0  0
  2 12  1  0  0  0  0
  3 11  1  0  0  0  0
  3 12  2  0  0  0  0
  3 15  1  0  0  0  0
  4  5  2  0  0  0  0
  5  6  1  0  0  0  0
  6 13  1  0  0  0  0
  6 14  2  0  0  0  0
  7  8  1  0  0  0  0
  7 11  1  0  0  0  0
  8 15  1  0  0  0  0
  9 10  1  0  0  0  0
 10 13  1  0  0  0  0
 12 16  1  0  0  0  0
 13 17  1  0  0  0  0
M  CHG  1  12   1
M  END
> <ref_mols>
x2887_0

> <original SMILES>
C=CC(NCCc1cn(CCS2)c2n1)=O

> <Chemgauss4>
-8.316319

> <ref_pdb>
x0749_0

$$$$
x0477
  -OEChem-05172015543D

 16 17  0     1  0  0  0  0  0999 V2000
   12.5417   -2.3120   23.8647 C   0  0  0  0  0  0  0  0  0  0  0  0
   13.6740   -1.6085   24.2751 C   0  0  0  0  0  0  0  0  0  0  0  0
   11.6119   -1.7056   23.0200 C   0  0  0  0  0  0  0  0  0  0  0  0
   13.8766   -0.2986   23.8408 C   0  0  0  0  0  0  0  0  0  0  0  0
   11.8145   -0.3957   22.5857 C   0  0  0  0  0  0  0  0  0  0  0  0
   12.9469    0.3079   22.9961 C   0  0  0  0  0  0  0  0  0  0  0  0
   11.9904    4.1755   23.9921 C   0  0  0  0  0  0  0  0  0  0  0  0
   11.3036    5.2466   23.1640 C   0  0  0  0  0  0  0  0  0  0  0  0
    9.8800    3.2703   23.3712 C   0  0  0  0  0  0  0  0  0  0  0  0
   11.3398    2.8809   23.5292 C   0  0  1  0  0  0  0  0  0  0  0  0
   13.1642    1.7180   22.5285 C   0  0  0  0  0  0  0  0  0  0  0  0
   11.9085    2.4117   22.2891 N   0  0  0  0  0  0  0  0  0  0  0  0
    9.9243    4.7052   22.9224 N   0  3  0  0  0  0  0  0  0  0  0  0
   12.0722    3.2095   21.6790 H   0  0  0  0  0  0  0  0  0  0  0  0
    9.2188    5.2587   23.4276 H   0  0  0  0  0  0  0  0  0  0  0  0
    9.6894    4.7762   21.9228 H   0  0  0  0  0  0  0  0  0  0  0  0
  1  2  1  0  0  0  0
  1  3  2  0  0  0  0
  2  4  2  0  0  0  0
  3  5  1  0  0  0  0
  4  6  1  0  0  0  0
  5  6  2  0  0  0  0
  6 11  1  0  0  0  0
  7  8  1  0  0  0  0
  7 10  1  0  0  0  0
  8 13  1  0  0  0  0
  9 10  1  0  0  0  0
  9 13  1  0  0  0  0
 10 12  1  0  0  0  0
 11 12  1  0  0  0  0
 12 14  1  0  0  0  0
 13 15  1  0  0  0  0
 13 16  1  0  0  0  0
M  CHG  1  13   1
M  END
> <ref_mols>
x0477_0

> <original SMILES>
C(NC1CCNC1)C=2C=CC=CC2

> <Chemgauss4>
-8.310785

> <ref_pdb>
x0161_0

$$$$
x1209
  -OEChem-05172015543D

 16 17  0     1  0  0  0  0  0999 V2000
   12.5417   -2.3120   23.8647 C   0  0  0  0  0  0  0  0  0  0  0  0
   13.6740   -1.6085   24.2751 C   0  0  0  0  0  0  0  0  0  0  0  0
   11.6119   -1.7056   23.0200 C   0  0  0  0  0  0  0  0  0  0  0  0
   13.8766   -0.2986   23.8408 C   0  0  0  0  0  0  0  0  0  0  0  0
   11.8145   -0.3957   22.5857 C   0  0  0  0  0  0  0  0  0  0  0  0
   12.9469    0.3079   22.9961 C   0  0  0  0  0  0  0  0  0  0  0  0
   11.9904    4.1755   23.9921 C   0  0  0  0  0  0  0  0  0  0  0  0
   11.3036    5.2466   23.1640 C   0  0  0  0  0  0  0  0  0  0  0  0
    9.8800    3.2703   23.3712 C   0  0  0  0  0  0  0  0  0  0  0  0
   11.3398    2.8809   23.5292 C   0  0  1  0  0  0  0  0  0  0  0  0
   13.1642    1.7180   22.5285 C   0  0  0  0  0  0  0  0  0  0  0  0
   11.9085    2.4117   22.2891 N   0  0  0  0  0  0  0  0  0  0  0  0
    9.9243    4.7052   22.9224 N   0  3  0  0  0  0  0  0  0  0  0  0
   12.0722    3.2095   21.6790 H   0  0  0  0  0  0  0  0  0  0  0  0
    9.2188    5.2587   23.4276 H   0  0  0  0  0  0  0  0  0  0  0  0
    9.6894    4.7762   21.9228 H   0  0  0  0  0  0  0  0  0  0  0  0
  1  2  1  0  0  0  0
  1  3  2  0  0  0  0
  2  4  2  0  0  0  0
  3  5  1  0  0  0  0
  4  6  1  0  0  0  0
  5  6  2  0  0  0  0
  6 11  1  0  0  0  0
  7  8  1  0  0  0  0
  7 10  1  0  0  0  0
  8 13  1  0  0  0  0
  9 10  1  0  0  0  0
  9 13  1  0  0  0  0
 10 12  1  0  0  0  0
 11 12  1  0  0  0  0
 12 14  1  0  0  0  0
 13 15  1  0  0  0  0
 13 16  1  0  0  0  0
M  CHG  1  13   1
M  END
> <ref_mols>
x1209_0

> <original SMILES>
C(NC1CCNC1)C=2C=CC=CC2

> <Chemgauss4>
-8.310785

> <ref_pdb>
x0161_0

$$$$
x0669
  -OEChem-05172015543D

 15 16  0     0  0  0  0  0  0999 V2000
   13.9483   -1.5225   22.2790 C   0  0  0  0  0  0  0  0  0  0  0  0
   12.9362   -1.0086   21.4685 C   0  0  0  0  0  0  0  0  0  0  0  0
   14.1122   -1.0431   23.5787 C   0  0  0  0  0  0  0  0  0  0  0  0
   12.2518    0.4644   23.2571 C   0  0  0  0  0  0  0  0  0  0  0  0
   12.0879   -0.0151   21.9574 C   0  0  0  0  0  0  0  0  0  0  0  0
   13.2639   -0.0496   24.0676 C   0  0  0  0  0  0  0  0  0  0  0  0
    8.7319    0.0595   20.0802 C   0  0  0  0  0  0  0  0  0  0  0  0
    9.7398   -1.5726   21.6674 C   0  0  0  0  0  0  0  0  0  0  0  0
    7.8348    0.5137   21.2193 C   0  0  0  0  0  0  0  0  0  0  0  0
    8.7900   -1.0326   22.7234 C   0  0  0  0  0  0  0  0  0  0  0  0
   11.0003    0.5381   21.0846 C   0  0  0  0  0  0  0  0  0  0  0  0
   10.0176   -0.5070   20.6340 N   0  3  0  0  0  0  0  0  0  0  0  0
    7.5831   -0.5647   22.1207 O   0  0  0  0  0  0  0  0  0  0  0  0
   13.4672    0.5424   25.6708 Cl  0  0  0  0  0  0  0  0  0  0  0  0
   10.4868   -1.0031   19.8263 H   0  0  0  0  0  0  0  0  0  0  0  0
  1  2  1  0  0  0  0
  1  3  2  0  0  0  0
  2  5  2  0  0  0  0
  3  6  1  0  0  0  0
  4  5  1  0  0  0  0
  4  6  2  0  0  0  0
  5 11  1  0  0  0  0
  6 14  1  0  0  0  0
  7  9  1  0  0  0  0
  7 12  1  0  0  0  0
  8 10  1  0  0  0  0
  8 12  1  0  0  0  0
  9 13  1  0  0  0  0
 10 13  1  0  0  0  0
 11 12  1  0  0  0  0
 12 15  1  0  0  0  0
M  CHG  1  12   1
M  END
> <ref_mols>
x0669_0

> <original SMILES>
ClC=1C=CC=C(CN2CCOCC2)C1

> <Chemgauss4>
-8.308483

> <ref_pdb>
x0678_0

$$$$
x2606
  -OEChem-05172015543D

 25 27  0     0  0  0  0  0  0999 V2000
    8.4856    7.9617   24.1432 C   0  0  0  0  0  0  0  0  0  0  0  0
    7.9206    7.4239   22.9907 C   0  0  0  0  0  0  0  0  0  0  0  0
    9.7112    7.4844   24.6085 C   0  0  0  0  0  0  0  0  0  0  0  0
    8.5790    6.4067   22.2991 C   0  0  0  0  0  0  0  0  0  0  0  0
   11.6223    5.9686   24.3791 C   0  0  0  0  0  0  0  0  0  0  0  0
   12.2806    4.9514   23.6876 C   0  0  0  0  0  0  0  0  0  0  0  0
   13.3014   -2.6295   24.2096 C   0  0  0  0  0  0  0  0  0  0  0  0
   10.4900    4.8907   22.0696 C   0  0  0  0  0  0  0  0  0  0  0  0
   12.0435   -0.7994   23.2861 C   0  0  0  0  0  0  0  0  0  0  0  0
   14.4295   -1.8304   24.1167 C   0  0  0  0  0  0  0  0  0  0  0  0
   10.3879    6.4611   23.9251 C   0  0  0  0  0  0  0  0  0  0  0  0
    9.8133    5.9141   22.7531 C   0  0  0  0  0  0  0  0  0  0  0  0
   11.7156    4.4135   22.5350 C   0  0  0  0  0  0  0  0  0  0  0  0
   12.0896   -2.0967   23.7843 C   0  0  0  0  0  0  0  0  0  0  0  0
   13.2278   -0.0822   23.2347 C   0  0  0  0  0  0  0  0  0  0  0  0
   12.0497    1.9202   22.2612 C   0  0  0  0  0  0  0  0  0  0  0  0
   12.4211    3.3262   21.7969 C   0  0  0  0  0  0  0  0  0  0  0  0
   10.8450   -2.9137   23.8623 C   0  0  0  0  0  0  0  0  0  0  0  0
   14.4239   -0.5659   23.6385 N   0  0  0  0  0  0  0  0  0  0  0  0
   13.1708    1.2374   22.7263 N   0  0  0  0  0  0  0  0  0  0  0  0
   10.8969    1.5042   22.2049 O   0  0  0  0  0  0  0  0  0  0  0  0
   11.0424   -4.1660   24.3715 F   0  0  0  0  0  0  0  0  0  0  0  0
    9.8748   -2.3594   24.6483 F   0  0  0  0  0  0  0  0  0  0  0  0
   10.2630   -3.1030   22.6420 F   0  0  0  0  0  0  0  0  0  0  0  0
   14.0517    1.7465   22.6971 H   0  0  0  0  0  0  0  0  0  0  0  0
  1  2  1  0  0  0  0
  1  3  2  0  0  0  0
  2  4  2  0  0  0  0
  3 11  1  0  0  0  0
  4 12  1  0  0  0  0
  5  6  2  0  0  0  0
  5 11  1  0  0  0  0
  6 13  1  0  0  0  0
  7 10  2  0  0  0  0
  7 14  1  0  0  0  0
  8 12  1  0  0  0  0
  8 13  2  0  0  0  0
  9 14  2  0  0  0  0
  9 15  1  0  0  0  0
 10 19  1  0  0  0  0
 11 12  2  0  0  0  0
 13 17  1  0  0  0  0
 14 18  1  0  0  0  0
 15 19  2  0  0  0  0
 15 20  1  0  0  0  0
 16 17  1  0  0  0  0
 16 20  1  0  0  0  0
 16 21  2  0  0  0  0
 18 22  1  0  0  0  0
 18 23  1  0  0  0  0
 18 24  1  0  0  0  0
 20 25  1  0  0  0  0
M  END
> <ref_mols>
x2606_0

> <original SMILES>
FC(F)(F)C=1C=CN=C(NC(=O)CC=2C=CC=3C=CC=CC3C2)C1

> <Chemgauss4>
-8.308216

> <ref_pdb>
x0161_0

$$$$
x1178
  -OEChem-05172015543D

 15 16  0     1  0  0  0  0  0999 V2000
   13.2136   -2.7025   25.4265 C   0  0  0  0  0  0  0  0  0  0  0  0
   11.9857   -3.3427   25.2594 C   0  0  0  0  0  0  0  0  0  0  0  0
   13.3272   -1.3352   25.1751 C   0  0  0  0  0  0  0  0  0  0  0  0
   10.9850   -1.2483   24.5893 C   0  0  0  0  0  0  0  0  0  0  0  0
   10.8714   -2.6156   24.8408 C   0  0  0  0  0  0  0  0  0  0  0  0
   12.2129   -0.6081   24.7565 C   0  0  0  0  0  0  0  0  0  0  0  0
    8.5685   -4.0386   22.6544 C   0  0  0  0  0  0  0  0  0  0  0  0
    9.0978   -5.5819   24.3872 C   0  0  0  0  0  0  0  0  0  0  0  0
    8.4460   -6.3262   23.2387 C   0  0  0  0  0  0  0  0  0  0  0  0
    9.5971   -4.2948   23.7396 C   0  0  2  0  0  0  0  0  0  0  0  0
    6.9620   -5.5035   21.3690 C   0  0  0  0  0  0  0  0  0  0  0  0
    7.9429   -5.2595   22.4038 N   0  0  0  0  0  0  0  0  0  0  0  0
    8.3673   -2.9604   22.1166 O   0  0  0  0  0  0  0  0  0  0  0  0
    9.6583   -3.2483   24.6743 O   0  0  0  0  0  0  0  0  0  0  0  0
   12.3219    0.7052   24.5164 F   0  0  0  0  0  0  0  0  0  0  0  0
  1  2  2  0  0  0  0
  1  3  1  0  0  0  0
  2  5  1  0  0  0  0
  3  6  2  0  0  0  0
  4  5  2  0  0  0  0
  4  6  1  0  0  0  0
  5 14  1  0  0  0  0
  6 15  1  0  0  0  0
  7 10  1  0  0  0  0
  7 12  1  0  0  0  0
  7 13  2  0  0  0  0
  8  9  1  0  0  0  0
  8 10  1  0  0  0  0
  9 12  1  0  0  0  0
 10 14  1  0  0  0  0
 11 12  1  0  0  0  0
M  END
> <ref_mols>
x1178_0

> <original SMILES>
CN1CCC(OC=2C=CC=C(F)C2)C1=O

> <Chemgauss4>
-8.303802

> <ref_pdb>
x0749_0

$$$$
x0544
  -OEChem-05172015543D

 15 16  0     1  0  0  0  0  0999 V2000
   13.2136   -2.7025   25.4265 C   0  0  0  0  0  0  0  0  0  0  0  0
   11.9857   -3.3427   25.2594 C   0  0  0  0  0  0  0  0  0  0  0  0
   13.3272   -1.3352   25.1751 C   0  0  0  0  0  0  0  0  0  0  0  0
   10.9850   -1.2483   24.5893 C   0  0  0  0  0  0  0  0  0  0  0  0
   10.8714   -2.6156   24.8408 C   0  0  0  0  0  0  0  0  0  0  0  0
   12.2129   -0.6081   24.7565 C   0  0  0  0  0  0  0  0  0  0  0  0
    8.5685   -4.0386   22.6544 C   0  0  0  0  0  0  0  0  0  0  0  0
    9.0978   -5.5819   24.3872 C   0  0  0  0  0  0  0  0  0  0  0  0
    8.4460   -6.3262   23.2387 C   0  0  0  0  0  0  0  0  0  0  0  0
    9.5971   -4.2948   23.7396 C   0  0  2  0  0  0  0  0  0  0  0  0
    6.9620   -5.5035   21.3690 C   0  0  0  0  0  0  0  0  0  0  0  0
    7.9429   -5.2595   22.4038 N   0  0  0  0  0  0  0  0  0  0  0  0
    8.3673   -2.9604   22.1166 O   0  0  0  0  0  0  0  0  0  0  0  0
    9.6583   -3.2483   24.6743 O   0  0  0  0  0  0  0  0  0  0  0  0
   12.3219    0.7052   24.5164 F   0  0  0  0  0  0  0  0  0  0  0  0
  1  2  2  0  0  0  0
  1  3  1  0  0  0  0
  2  5  1  0  0  0  0
  3  6  2  0  0  0  0
  4  5  2  0  0  0  0
  4  6  1  0  0  0  0
  5 14  1  0  0  0  0
  6 15  1  0  0  0  0
  7 10  1  0  0  0  0
  7 12  1  0  0  0  0
  7 13  2  0  0  0  0
  8  9  1  0  0  0  0
  8 10  1  0  0  0  0
  9 12  1  0  0  0  0
 10 14  1  0  0  0  0
 11 12  1  0  0  0  0
M  END
> <ref_mols>
x0544_0

> <original SMILES>
CN1CCC(OC=2C=CC=C(F)C2)C1=O

> <Chemgauss4>
-8.303802

> <ref_pdb>
x0749_0

$$$$
x0409
  -OEChem-05172015543D

 19 20  0     0  0  0  0  0  0999 V2000
   14.2872   -1.0716   22.8189 C   0  0  0  0  0  0  0  0  0  0  0  0
    6.5214    0.7664   20.5411 C   0  0  0  0  0  0  0  0  0  0  0  0
    5.6046    0.8740   19.5013 C   0  0  0  0  0  0  0  0  0  0  0  0
   13.1095   -0.8536   22.0471 C   0  0  0  0  0  0  0  0  0  0  0  0
    8.1591    0.0841   18.9571 C   0  0  0  0  0  0  0  0  0  0  0  0
   14.0815   -0.8235   24.1582 C   0  0  0  0  0  0  0  0  0  0  0  0
    7.8251    0.3646   20.2722 C   0  0  0  0  0  0  0  0  0  0  0  0
    6.0381    0.5709   18.2207 C   0  0  0  0  0  0  0  0  0  0  0  0
   12.0483   -0.4473   22.8261 C   0  0  0  0  0  0  0  0  0  0  0  0
   10.1255   -0.1432   21.2046 C   0  0  0  0  0  0  0  0  0  0  0  0
    3.8301    1.0824   17.5003 C   0  0  0  0  0  0  0  0  0  0  0  0
    7.2962    0.1773   17.9207 N   0  0  0  0  0  0  0  0  0  0  0  0
    8.7657    0.2484   21.2928 N   0  0  0  0  0  0  0  0  0  0  0  0
   10.7150   -0.1253   22.4788 N   0  0  0  0  0  0  0  0  0  0  0  0
   10.6961   -0.4512   20.1631 O   0  0  0  0  0  0  0  0  0  0  0  0
    5.1528    0.6687   17.1792 O   0  0  0  0  0  0  0  0  0  0  0  0
   12.4738   -0.3299   24.4807 S   0  0  0  0  0  0  0  0  0  0  0  0
    8.4292    0.4770   22.2354 H   0  0  0  0  0  0  0  0  0  0  0  0
   10.1152    0.1517   23.2518 H   0  0  0  0  0  0  0  0  0  0  0  0
  1  4  1  0  0  0  0
  1  6  2  0  0  0  0
  2  3  2  0  0  0  0
  2  7  1  0  0  0  0
  3  8  1  0  0  0  0
  4  9  2  0  0  0  0
  5  7  2  0  0  0  0
  5 12  1  0  0  0  0
  6 17  1  0  0  0  0
  7 13  1  0  0  0  0
  8 12  2  0  0  0  0
  8 16  1  0  0  0  0
  9 14  1  0  0  0  0
  9 17  1  0  0  0  0
 10 13  1  0  0  0  0
 10 14  1  0  0  0  0
 10 15  2  0  0  0  0
 11 16  1  0  0  0  0
 13 18  1  0  0  0  0
 14 19  1  0  0  0  0
M  END
> <ref_mols>
x0409_0

> <original SMILES>
COC=1C=CC(NC(=O)NC2=CC=CS2)=CN1

> <Chemgauss4>
-8.302752

> <ref_pdb>
x0678_0

$$$$
x0448
  -OEChem-05172015543D

 20 21  0     0  0  0  0  0  0999 V2000
   13.4335   -1.5962   21.2335 C   0  0  0  0  0  0  0  0  0  0  0  0
   12.0192   -0.8642   23.0504 C   0  0  0  0  0  0  0  0  0  0  0  0
   14.4506   -1.8874   22.1425 C   0  0  0  0  0  0  0  0  0  0  0  0
   13.0363   -1.1554   23.9595 C   0  0  0  0  0  0  0  0  0  0  0  0
    7.3391    0.4217   18.3677 C   0  0  0  0  0  0  0  0  0  0  0  0
    7.1285    0.7559   20.7401 C   0  0  0  0  0  0  0  0  0  0  0  0
    6.0455    0.9013   18.2398 C   0  0  0  0  0  0  0  0  0  0  0  0
    5.8444    1.2208   20.5060 C   0  0  0  0  0  0  0  0  0  0  0  0
   12.2178   -1.0846   21.6875 C   0  0  0  0  0  0  0  0  0  0  0  0
    7.8836    0.3508   19.6451 C   0  0  0  0  0  0  0  0  0  0  0  0
   14.2520   -1.6670   23.5055 C   0  0  0  0  0  0  0  0  0  0  0  0
    9.9081   -0.2734   21.0346 C   0  0  0  0  0  0  0  0  0  0  0  0
   14.9742   -1.7017   25.7711 C   0  0  0  0  0  0  0  0  0  0  0  0
    5.2813    1.3041   19.2797 N   0  0  0  0  0  0  0  0  0  0  0  0
   11.2004   -0.7933   20.7783 N   0  0  0  0  0  0  0  0  0  0  0  0
    9.2007   -0.1317   19.8300 N   0  0  0  0  0  0  0  0  0  0  0  0
    9.4771    0.0092   22.1479 O   0  0  0  0  0  0  0  0  0  0  0  0
   15.2445   -1.9510   24.3925 O   0  0  0  0  0  0  0  0  0  0  0  0
   11.4170   -0.9805   19.7936 H   0  0  0  0  0  0  0  0  0  0  0  0
    9.6893   -0.4088   18.9823 H   0  0  0  0  0  0  0  0  0  0  0  0
  1  3  2  0  0  0  0
  1  9  1  0  0  0  0
  2  4  1  0  0  0  0
  2  9  2  0  0  0  0
  3 11  1  0  0  0  0
  4 11  2  0  0  0  0
  5  7  2  0  0  0  0
  5 10  1  0  0  0  0
  6  8  1  0  0  0  0
  6 10  2  0  0  0  0
  7 14  1  0  0  0  0
  8 14  2  0  0  0  0
  9 15  1  0  0  0  0
 10 16  1  0  0  0  0
 11 18  1  0  0  0  0
 12 15  1  0  0  0  0
 12 16  1  0  0  0  0
 12 17  2  0  0  0  0
 13 18  1  0  0  0  0
 15 19  1  0  0  0  0
 16 20  1  0  0  0  0
M  END
> <ref_mols>
x0448_0

> <original SMILES>
COC=1C=CC(NC(=O)NC=2C=CN=CC2)=CC1

> <Chemgauss4>
-8.300281

> <ref_pdb>
x0678_0

$$$$
x0539
  -OEChem-05172015543D

 18 19  0     0  0  0  0  0  0999 V2000
   10.3002   -2.9256   23.2767 C   0  0  0  0  0  0  0  0  0  0  0  0
   11.0433   -4.3097   25.1122 C   0  0  0  0  0  0  0  0  0  0  0  0
   11.0910   -1.8773   23.7470 C   0  0  0  0  0  0  0  0  0  0  0  0
   11.8341   -3.2614   25.5825 C   0  0  0  0  0  0  0  0  0  0  0  0
   10.2763   -4.1419   23.9593 C   0  0  0  0  0  0  0  0  0  0  0  0
   11.8580   -2.0452   24.8999 C   0  0  0  0  0  0  0  0  0  0  0  0
    7.3338   -3.9106   23.5932 C   0  0  0  0  0  0  0  0  0  0  0  0
    7.3900   -5.9525   22.1758 C   0  0  0  0  0  0  0  0  0  0  0  0
    6.1484   -3.4459   22.7643 C   0  0  0  0  0  0  0  0  0  0  0  0
    6.2013   -5.3826   21.4204 C   0  0  0  0  0  0  0  0  0  0  0  0
    9.4259   -5.2700   23.4541 C   0  0  0  0  0  0  0  0  0  0  0  0
   12.7046   -0.9243   25.4011 C   0  0  0  0  0  0  0  0  0  0  0  0
    8.1962   -4.8016   22.7305 N   0  3  0  0  0  0  0  0  0  0  0  0
    5.4056   -4.5660   22.2807 O   0  0  0  0  0  0  0  0  0  0  0  0
   12.6307    0.2033   24.6336 F   0  0  0  0  0  0  0  0  0  0  0  0
   12.3809   -0.5171   26.6640 F   0  0  0  0  0  0  0  0  0  0  0  0
   14.0297   -1.2480   25.4492 F   0  0  0  0  0  0  0  0  0  0  0  0
    8.5209   -4.2387   21.9320 H   0  0  0  0  0  0  0  0  0  0  0  0
  1  3  2  0  0  0  0
  1  5  1  0  0  0  0
  2  4  1  0  0  0  0
  2  5  2  0  0  0  0
  3  6  1  0  0  0  0
  4  6  2  0  0  0  0
  5 11  1  0  0  0  0
  6 12  1  0  0  0  0
  7  9  1  0  0  0  0
  7 13  1  0  0  0  0
  8 10  1  0  0  0  0
  8 13  1  0  0  0  0
  9 14  1  0  0  0  0
 10 14  1  0  0  0  0
 11 13  1  0  0  0  0
 12 15  1  0  0  0  0
 12 16  1  0  0  0  0
 12 17  1  0  0  0  0
 13 18  1  0  0  0  0
M  CHG  1  13   1
M  END
> <ref_mols>
x0539_0

> <original SMILES>
FC(F)(F)C=1C=CC(CN2CCOCC2)=CC1

> <Chemgauss4>
-8.298043

> <ref_pdb>
x0749_0

$$$$
x0658
  -OEChem-05172015543D

 17 18  0     0  0  0  0  0  0999 V2000
   10.7868    0.9961   24.1751 C   0  0  0  0  0  0  0  0  0  0  0  0
   12.3898    2.6045   23.3709 C   0  0  0  0  0  0  0  0  0  0  0  0
    9.9856    2.0493   24.5926 C   0  0  0  0  0  0  0  0  0  0  0  0
   12.0010    1.2815   23.5581 C   0  0  0  0  0  0  0  0  0  0  0  0
   11.5480    3.6170   23.8087 C   0  0  0  0  0  0  0  0  0  0  0  0
   11.8696    5.0222   23.6571 C   0  0  0  0  0  0  0  0  0  0  0  0
   13.8485   -1.9001   22.9444 C   0  0  0  0  0  0  0  0  0  0  0  0
   14.4813   -0.9751   21.9246 C   0  0  0  0  0  0  0  0  0  0  0  0
   12.5351   -1.1969   23.2674 C   0  0  0  0  0  0  0  0  0  0  0  0
   14.1343    0.4078   22.4638 C   0  0  0  0  0  0  0  0  0  0  0  0
   10.3842    3.3140   24.3999 N   0  3  0  0  0  0  0  0  0  0  0  0
   12.8352    0.2332   23.1250 N   0  0  0  0  0  0  0  0  0  0  0  0
   11.4551    5.6642   22.4911 N   0  0  0  0  0  0  0  0  0  0  0  0
   12.5106    5.6430   24.5268 O   0  0  0  0  0  0  0  0  0  0  0  0
    9.7751    4.0684   24.7169 H   0  0  0  0  0  0  0  0  0  0  0  0
   10.9462    5.1365   21.7902 H   0  0  0  0  0  0  0  0  0  0  0  0
   11.6498    6.6465   22.3263 H   0  0  0  0  0  0  0  0  0  0  0  0
  1  3  2  0  0  0  0
  1  4  1  0  0  0  0
  2  4  2  0  0  0  0
  2  5  1  0  0  0  0
  3 11  1  0  0  0  0
  4 12  1  0  0  0  0
  5  6  1  0  0  0  0
  5 11  2  0  0  0  0
  6 13  1  0  0  0  0
  6 14  2  0  0  0  0
  7  8  1  0  0  0  0
  7  9  1  0  0  0  0
  8 10  1  0  0  0  0
  9 12  1  0  0  0  0
 10 12  1  0  0  0  0
 11 15  1  0  0  0  0
 13 16  1  0  0  0  0
 13 17  1  0  0  0  0
M  CHG  1  11   1
M  END
> <ref_mols>
x0658_0

> <original SMILES>
NC(=O)C=1C=C(C=CN1)N2CCCC2

> <Chemgauss4>
-8.296037

> <ref_pdb>
x0195_0

$$$$
x0654
  -OEChem-05172015543D

 16 17  0     1  0  0  0  0  0999 V2000
   11.1176   -4.1520   25.3031 C   0  0  0  0  0  0  0  0  0  0  0  0
    9.9894   -2.4494   24.0126 C   0  0  0  0  0  0  0  0  0  0  0  0
   12.2853   -3.3894   25.2885 C   0  0  0  0  0  0  0  0  0  0  0  0
   11.1572   -1.6867   23.9980 C   0  0  0  0  0  0  0  0  0  0  0  0
    9.9696   -3.6821   24.6651 C   0  0  0  0  0  0  0  0  0  0  0  0
   12.3052   -2.1567   24.6360 C   0  0  0  0  0  0  0  0  0  0  0  0
    7.1930   -5.9380   21.8539 C   0  0  0  0  0  0  0  0  0  0  0  0
    8.3444   -5.0289   22.2345 C   0  0  0  0  0  0  0  0  0  0  0  0
    6.4072   -4.6571   23.6826 C   0  0  0  0  0  0  0  0  0  0  0  0
    5.9664   -5.1855   22.3324 C   0  0  2  0  0  0  0  0  0  0  0  0
    8.7128   -4.5014   24.6820 C   0  0  0  0  0  0  0  0  0  0  0  0
    7.8606   -4.2921   23.4708 N   0  3  1  0  0  0  0  0  0  0  0  0
    4.8633   -6.0618   22.4518 O   0  0  0  0  0  0  0  0  0  0  0  0
   13.7458   -1.2160   24.6183 Cl  0  0  0  0  0  0  0  0  0  0  0  0
    7.8884   -3.2891   23.2514 H   0  0  0  0  0  0  0  0  0  0  0  0
    4.1144   -5.5266   22.7591 H   0  0  0  0  0  0  0  0  0  0  0  0
  1  3  2  0  0  0  0
  1  5  1  0  0  0  0
  2  4  1  0  0  0  0
  2  5  2  0  0  0  0
  3  6  1  0  0  0  0
  4  6  2  0  0  0  0
  5 11  1  0  0  0  0
  6 14  1  0  0  0  0
  7  8  1  0  0  0  0
  7 10  1  0  0  0  0
  8 12  1  0  0  0  0
  9 10  1  0  0  0  0
  9 12  1  0  0  0  0
 10 13  1  0  0  0  0
 11 12  1  0  0  0  0
 12 15  1  0  0  0  0
 13 16  1  0  0  0  0
M  CHG  1  12   1
M  END
> <ref_mols>
x0654_0

> <original SMILES>
O[C@@H]1CCN(CC=2C=CC(Cl)=CC2)C1

> <Chemgauss4>
-8.292242

> <ref_pdb>
x0749_0

$$$$
x1198
  -OEChem-05172015543D

 16 17  0     1  0  0  0  0  0999 V2000
   11.1176   -4.1520   25.3031 C   0  0  0  0  0  0  0  0  0  0  0  0
    9.9894   -2.4494   24.0126 C   0  0  0  0  0  0  0  0  0  0  0  0
   12.2853   -3.3894   25.2885 C   0  0  0  0  0  0  0  0  0  0  0  0
   11.1572   -1.6867   23.9980 C   0  0  0  0  0  0  0  0  0  0  0  0
    9.9696   -3.6821   24.6651 C   0  0  0  0  0  0  0  0  0  0  0  0
   12.3052   -2.1567   24.6360 C   0  0  0  0  0  0  0  0  0  0  0  0
    7.1930   -5.9380   21.8539 C   0  0  0  0  0  0  0  0  0  0  0  0
    8.3444   -5.0289   22.2345 C   0  0  0  0  0  0  0  0  0  0  0  0
    6.4072   -4.6571   23.6826 C   0  0  0  0  0  0  0  0  0  0  0  0
    5.9664   -5.1855   22.3324 C   0  0  2  0  0  0  0  0  0  0  0  0
    8.7128   -4.5014   24.6820 C   0  0  0  0  0  0  0  0  0  0  0  0
    7.8606   -4.2921   23.4708 N   0  3  1  0  0  0  0  0  0  0  0  0
    4.8633   -6.0618   22.4518 O   0  0  0  0  0  0  0  0  0  0  0  0
   13.7458   -1.2160   24.6183 Cl  0  0  0  0  0  0  0  0  0  0  0  0
    7.8884   -3.2891   23.2514 H   0  0  0  0  0  0  0  0  0  0  0  0
    4.1144   -5.5266   22.7591 H   0  0  0  0  0  0  0  0  0  0  0  0
  1  3  2  0  0  0  0
  1  5  1  0  0  0  0
  2  4  1  0  0  0  0
  2  5  2  0  0  0  0
  3  6  1  0  0  0  0
  4  6  2  0  0  0  0
  5 11  1  0  0  0  0
  6 14  1  0  0  0  0
  7  8  1  0  0  0  0
  7 10  1  0  0  0  0
  8 12  1  0  0  0  0
  9 10  1  0  0  0  0
  9 12  1  0  0  0  0
 10 13  1  0  0  0  0
 11 12  1  0  0  0  0
 12 15  1  0  0  0  0
 13 16  1  0  0  0  0
M  CHG  1  12   1
M  END
> <ref_mols>
x1198_0

> <original SMILES>
O[C@@H]1CCN(CC=2C=CC(Cl)=CC2)C1

> <Chemgauss4>
-8.292242

> <ref_pdb>
x0749_0

$$$$
x0534
  -OEChem-05172015543D

 15 16  0     1  0  0  0  0  0999 V2000
    5.2433    0.1148   19.7677 C   0  0  0  0  0  0  0  0  0  0  0  0
    5.7261    1.4695   17.8353 C   0  0  0  0  0  0  0  0  0  0  0  0
    6.1375   -0.4224   18.8655 C   0  0  0  0  0  0  0  0  0  0  0  0
    6.7794   -1.7354   19.0324 C   0  0  0  0  0  0  0  0  0  0  0  0
    8.2442   -1.4467   22.5674 C   0  0  0  0  0  0  0  0  0  0  0  0
    7.2514   -2.3848   23.2556 C   0  0  0  0  0  0  0  0  0  0  0  0
    7.3754   -4.1318   21.3530 C   0  0  0  0  0  0  0  0  0  0  0  0
    7.8089   -0.9180   21.2001 C   0  0  0  0  0  0  0  0  0  0  0  0
    8.1694   -3.2629   20.3720 C   0  0  0  0  0  0  0  0  0  0  0  0
    6.4903   -3.3732   22.3576 C   0  0  1  0  0  0  0  0  0  0  0  0
    5.7199   -4.3720   23.2292 C   0  0  0  0  0  0  0  0  0  0  0  0
    6.4152    0.3529   17.7566 N   0  0  0  0  0  0  0  0  0  0  0  0
    7.5756   -1.9431   20.1676 N   0  0  0  0  0  0  0  0  0  0  0  0
    6.5627   -2.5664   18.1514 O   0  0  0  0  0  0  0  0  0  0  0  0
    4.7241    1.6536   19.2163 S   0  0  0  0  0  0  0  0  0  0  0  0
  1  3  2  0  0  0  0
  1 15  1  0  0  0  0
  2 12  2  0  0  0  0
  2 15  1  0  0  0  0
  3  4  1  0  0  0  0
  3 12  1  0  0  0  0
  4 13  1  0  0  0  0
  4 14  2  0  0  0  0
  5  6  1  0  0  0  0
  5  8  1  0  0  0  0
  6 10  1  0  0  0  0
  7  9  1  0  0  0  0
  7 10  1  0  0  0  0
  8 13  1  0  0  0  0
  9 13  1  0  0  0  0
 10 11  1  0  0  0  0
M  END
> <ref_mols>
x0534_0

> <original SMILES>
CC1CCCN(CC1)C(=O)C2=CSC=N2

> <Chemgauss4>
-8.291144

> <ref_pdb>
x0397_0

$$$$
x2838
  -OEChem-05172015543D

 21 23  0     0  0  0  0  0  0999 V2000
   11.5732   -1.4651   24.2234 C   0  0  0  0  0  0  0  0  0  0  0  0
   13.8915   -0.8714   24.5002 C   0  0  0  0  0  0  0  0  0  0  0  0
   11.9262   -2.7967   24.3899 C   0  0  0  0  0  0  0  0  0  0  0  0
   14.1858   -2.2181   24.6597 C   0  0  0  0  0  0  0  0  0  0  0  0
   12.5698   -0.4955   24.2800 C   0  0  0  0  0  0  0  0  0  0  0  0
   11.6254    5.0752   23.9831 C   0  0  0  0  0  0  0  0  0  0  0  0
    8.0042    7.2083   24.2225 C   0  0  0  0  0  0  0  0  0  0  0  0
    9.3097    7.6615   24.8741 C   0  0  0  0  0  0  0  0  0  0  0  0
    8.0512    5.7191   23.8835 C   0  0  0  0  0  0  0  0  0  0  0  0
   10.9558    2.8369   24.8084 C   0  0  0  0  0  0  0  0  0  0  0  0
   12.9209    3.0721   23.2777 C   0  0  0  0  0  0  0  0  0  0  0  0
   10.5146    7.2859   24.0159 C   0  0  0  0  0  0  0  0  0  0  0  0
    9.2809    5.3791   23.0443 C   0  0  0  0  0  0  0  0  0  0  0  0
   10.9204    1.3349   24.5291 C   0  0  0  0  0  0  0  0  0  0  0  0
   12.8758    1.5717   22.9959 C   0  0  0  0  0  0  0  0  0  0  0  0
   11.5365    3.6123   23.6283 C   0  0  0  0  0  0  0  0  0  0  0  0
   13.2066   -3.1310   24.6006 N   0  3  0  0  0  0  0  0  0  0  0  0
   12.2434    0.8558   24.1132 N   0  0  0  0  0  0  0  0  0  0  0  0
   10.5059    5.8563   23.6982 N   0  0  0  0  0  0  0  0  0  0  0  0
   12.6587    5.5083   24.4995 O   0  0  0  0  0  0  0  0  0  0  0  0
   13.4447   -4.1153   24.7198 H   0  0  0  0  0  0  0  0  0  0  0  0
  1  3  2  0  0  0  0
  1  5  1  0  0  0  0
  2  4  1  0  0  0  0
  2  5  2  0  0  0  0
  3 17  1  0  0  0  0
  4 17  2  0  0  0  0
  5 18  1  0  0  0  0
  6 16  1  0  0  0  0
  6 19  1  0  0  0  0
  6 20  2  0  0  0  0
  7  8  1  0  0  0  0
  7  9  1  0  0  0  0
  8 12  1  0  0  0  0
  9 13  1  0  0  0  0
 10 14  1  0  0  0  0
 10 16  1  0  0  0  0
 11 15  1  0  0  0  0
 11 16  1  0  0  0  0
 12 19  1  0  0  0  0
 13 19  1  0  0  0  0
 14 18  1  0  0  0  0
 15 18  1  0  0  0  0
 17 21  1  0  0  0  0
M  CHG  1  17   1
M  END
> <ref_mols>
x2838_0

> <original SMILES>
O=C(C1CCN(CC1)C=2C=CN=CC2)N3CCCCC3

> <Chemgauss4>
-8.284107

> <ref_pdb>
x0161_0

$$$$
x0676
  -OEChem-05172015543D

 17 17  0     0  0  0  0  0  0999 V2000
    7.9935   -5.7801   23.4081 C   0  0  0  0  0  0  0  0  0  0  0  0
    7.4400   -4.8346   22.5448 C   0  0  0  0  0  0  0  0  0  0  0  0
    9.1614   -5.4837   24.1109 C   0  0  0  0  0  0  0  0  0  0  0  0
    9.2223   -3.2962   23.0871 C   0  0  0  0  0  0  0  0  0  0  0  0
    8.0544   -3.5927   22.3843 C   0  0  0  0  0  0  0  0  0  0  0  0
    9.7757   -4.2418   23.9504 C   0  0  0  0  0  0  0  0  0  0  0  0
    6.3189   -2.7988   20.7421 C   0  0  0  0  0  0  0  0  0  0  0  0
    9.8725   -1.9588   22.9062 C   0  0  0  0  0  0  0  0  0  0  0  0
    6.0509   -1.5468   19.9379 C   0  0  0  0  0  0  0  0  0  0  0  0
    7.4808   -2.6607   21.5151 N   0  0  0  0  0  0  0  0  0  0  0  0
    5.8408   -0.3704   20.8156 N   0  3  0  0  0  0  0  0  0  0  0  0
    5.5797   -3.7761   20.6891 O   0  0  0  0  0  0  0  0  0  0  0  0
   11.2200   -3.9158   24.8392 Cl  0  0  0  0  0  0  0  0  0  0  0  0
    7.9675   -1.7620   21.4294 H   0  0  0  0  0  0  0  0  0  0  0  0
    6.3364   -0.4832   21.7067 H   0  0  0  0  0  0  0  0  0  0  0  0
    4.8444   -0.2405   21.0231 H   0  0  0  0  0  0  0  0  0  0  0  0
    6.1847    0.4872   20.3696 H   0  0  0  0  0  0  0  0  0  0  0  0
  1  2  2  0  0  0  0
  1  3  1  0  0  0  0
  2  5  1  0  0  0  0
  3  6  2  0  0  0  0
  4  5  2  0  0  0  0
  4  6  1  0  0  0  0
  4  8  1  0  0  0  0
  5 10  1  0  0  0  0
  6 13  1  0  0  0  0
  7  9  1  0  0  0  0
  7 10  1  0  0  0  0
  7 12  2  0  0  0  0
  9 11  1  0  0  0  0
 10 14  1  0  0  0  0
 11 15  1  0  0  0  0
 11 16  1  0  0  0  0
 11 17  1  0  0  0  0
M  CHG  1  11   1
M  END
> <ref_mols>
x0676_0

> <original SMILES>
CC=1C(Cl)=CC=CC1NC(=O)CN

> <Chemgauss4>
-8.277519

> <ref_pdb>
x0749_0

$$$$
x1288
  -OEChem-05172015543D

 17 17  0     0  0  0  0  0  0999 V2000
    7.9935   -5.7801   23.4081 C   0  0  0  0  0  0  0  0  0  0  0  0
    7.4400   -4.8346   22.5448 C   0  0  0  0  0  0  0  0  0  0  0  0
    9.1614   -5.4837   24.1109 C   0  0  0  0  0  0  0  0  0  0  0  0
    9.2223   -3.2962   23.0871 C   0  0  0  0  0  0  0  0  0  0  0  0
    8.0544   -3.5927   22.3843 C   0  0  0  0  0  0  0  0  0  0  0  0
    9.7757   -4.2418   23.9504 C   0  0  0  0  0  0  0  0  0  0  0  0
    6.3189   -2.7988   20.7421 C   0  0  0  0  0  0  0  0  0  0  0  0
    9.8725   -1.9588   22.9062 C   0  0  0  0  0  0  0  0  0  0  0  0
    6.0509   -1.5468   19.9379 C   0  0  0  0  0  0  0  0  0  0  0  0
    7.4808   -2.6607   21.5151 N   0  0  0  0  0  0  0  0  0  0  0  0
    5.8408   -0.3704   20.8156 N   0  3  0  0  0  0  0  0  0  0  0  0
    5.5797   -3.7761   20.6891 O   0  0  0  0  0  0  0  0  0  0  0  0
   11.2200   -3.9158   24.8392 Cl  0  0  0  0  0  0  0  0  0  0  0  0
    7.9675   -1.7620   21.4294 H   0  0  0  0  0  0  0  0  0  0  0  0
    6.3364   -0.4832   21.7067 H   0  0  0  0  0  0  0  0  0  0  0  0
    4.8444   -0.2405   21.0231 H   0  0  0  0  0  0  0  0  0  0  0  0
    6.1847    0.4872   20.3696 H   0  0  0  0  0  0  0  0  0  0  0  0
  1  2  2  0  0  0  0
  1  3  1  0  0  0  0
  2  5  1  0  0  0  0
  3  6  2  0  0  0  0
  4  5  2  0  0  0  0
  4  6  1  0  0  0  0
  4  8  1  0  0  0  0
  5 10  1  0  0  0  0
  6 13  1  0  0  0  0
  7  9  1  0  0  0  0
  7 10  1  0  0  0  0
  7 12  2  0  0  0  0
  9 11  1  0  0  0  0
 10 14  1  0  0  0  0
 11 15  1  0  0  0  0
 11 16  1  0  0  0  0
 11 17  1  0  0  0  0
M  CHG  1  11   1
M  END
> <ref_mols>
x1288_0

> <original SMILES>
CC=1C(Cl)=CC=CC1NC(=O)CN

> <Chemgauss4>
-8.277519

> <ref_pdb>
x0749_0

$$$$
x2891
  -OEChem-05172015543D

 18 19  0     1  0  0  0  0  0999 V2000
   13.3807   -0.5541   24.3060 C   0  0  0  0  0  0  0  0  0  0  0  0
   13.6871   -1.4103   25.2854 C   0  0  0  0  0  0  0  0  0  0  0  0
   13.2406   -2.8272   25.2137 C   0  0  0  0  0  0  0  0  0  0  0  0
    6.4278   -5.2455   20.6367 C   0  0  0  0  0  0  0  0  0  0  0  0
    6.2607   -6.2528   21.7677 C   0  0  0  0  0  0  0  0  0  0  0  0
    7.0480   -3.9470   21.1404 C   0  0  0  0  0  0  0  0  0  0  0  0
    7.5725   -6.5042   22.4950 C   0  0  0  0  0  0  0  0  0  0  0  0
    9.3977   -5.4068   23.7988 C   0  0  0  0  0  0  0  0  0  0  0  0
    8.9127   -2.9086   22.4934 C   0  0  0  0  0  0  0  0  0  0  0  0
    8.3647   -4.1931   21.8761 C   0  0  1  0  0  0  0  0  0  0  0  0
    9.8754   -4.0556   24.3186 C   0  0  1  0  0  0  0  0  0  0  0  0
   11.1840   -4.2051   25.0826 C   0  0  0  0  0  0  0  0  0  0  0  0
   11.8524   -2.9478   25.1537 N   0  0  0  0  0  0  0  0  0  0  0  0
    8.1325   -5.1933   22.9954 N   0  3  1  0  0  0  0  0  0  0  0  0
   14.0278   -3.7681   25.2122 O   0  0  0  0  0  0  0  0  0  0  0  0
   10.1123   -3.1682   23.2220 O   0  0  0  0  0  0  0  0  0  0  0  0
   11.2857   -2.0946   25.1928 H   0  0  0  0  0  0  0  0  0  0  0  0
    7.4327   -4.7914   23.6351 H   0  0  0  0  0  0  0  0  0  0  0  0
  1  2  2  0  0  0  0
  2  3  1  0  0  0  0
  3 13  1  0  0  0  0
  3 15  2  0  0  0  0
  4  5  1  0  0  0  0
  4  6  1  0  0  0  0
  5  7  1  0  0  0  0
  6 10  1  0  0  0  0
  7 14  1  0  0  0  0
  8 11  1  0  0  0  0
  8 14  1  0  0  0  0
  9 10  1  0  0  0  0
  9 16  1  0  0  0  0
 10 14  1  0  0  0  0
 11 12  1  0  0  0  0
 11 16  1  0  0  0  0
 12 13  1  0  0  0  0
 13 17  1  0  0  0  0
 14 18  1  0  0  0  0
M  CHG  1  14   1
M  END
> <ref_mols>
x2891_0

> <original SMILES>
C=CC(NCC1OCC(CCCC2)N2C1)=O

> <Chemgauss4>
-8.270644

> <ref_pdb>
x0749_0

$$$$
x0506
  -OEChem-05172015543D

 17 18  0     0  0  0  0  0  0999 V2000
    8.1752   -5.6257   22.6055 C   0  0  0  0  0  0  0  0  0  0  0  0
    8.5332   -5.6225   23.9536 C   0  0  0  0  0  0  0  0  0  0  0  0
    8.2660   -4.4522   21.8569 C   0  0  0  0  0  0  0  0  0  0  0  0
    9.0728   -3.2723   23.8047 C   0  0  0  0  0  0  0  0  0  0  0  0
    8.9819   -4.4458   24.5532 C   0  0  0  0  0  0  0  0  0  0  0  0
    8.7148   -3.2755   22.4565 C   0  0  0  0  0  0  0  0  0  0  0  0
    9.5430   -2.0401   24.4325 C   0  0  0  0  0  0  0  0  0  0  0  0
   13.5410   -0.4377   24.3718 C   0  0  0  0  0  0  0  0  0  0  0  0
   13.6604   -1.8798   23.8807 C   0  0  0  0  0  0  0  0  0  0  0  0
   12.1143    0.0451   24.6232 C   0  0  0  0  0  0  0  0  0  0  0  0
   13.2407   -2.9053   24.9320 C   0  0  0  0  0  0  0  0  0  0  0  0
   11.3311   -0.8150   25.6111 C   0  0  0  0  0  0  0  0  0  0  0  0
   11.7420   -3.2064   24.9355 C   0  0  0  0  0  0  0  0  0  0  0  0
   10.8423   -2.0454   24.9857 N   0  0  0  0  0  0  0  0  0  0  0  0
    8.8041   -1.0554   24.4503 O   0  0  0  0  0  0  0  0  0  0  0  0
    9.3234   -4.4538   25.8496 F   0  0  0  0  0  0  0  0  0  0  0  0
    8.7983   -2.1532   21.7280 F   0  0  0  0  0  0  0  0  0  0  0  0
  1  2  2  0  0  0  0
  1  3  1  0  0  0  0
  2  5  1  0  0  0  0
  3  6  2  0  0  0  0
  4  5  2  0  0  0  0
  4  6  1  0  0  0  0
  4  7  1  0  0  0  0
  5 16  1  0  0  0  0
  6 17  1  0  0  0  0
  7 14  1  0  0  0  0
  7 15  2  0  0  0  0
  8  9  1  0  0  0  0
  8 10  1  0  0  0  0
  9 11  1  0  0  0  0
 10 12  1  0  0  0  0
 11 13  1  0  0  0  0
 12 14  1  0  0  0  0
 13 14  1  0  0  0  0
M  END
> <ref_mols>
x0506_0

> <original SMILES>
FC=1C=CC=C(F)C1C(=O)N2CCCCCC2

> <Chemgauss4>
-8.268783

> <ref_pdb>
x0749_0

$$$$
x1091
  -OEChem-05172015543D

 14 15  0     0  0  0  0  0  0999 V2000
   11.9664   -1.5336   23.5545 C   0  0  0  0  0  0  0  0  0  0  0  0
   10.3998   -0.1018   24.6860 C   0  0  0  0  0  0  0  0  0  0  0  0
    9.1472   -2.4818   22.2917 C   0  0  0  0  0  0  0  0  0  0  0  0
   12.9678   -0.6634   23.9541 C   0  0  0  0  0  0  0  0  0  0  0  0
   11.4714    0.7042   25.0351 C   0  0  0  0  0  0  0  0  0  0  0  0
    8.0642   -3.3474   22.5360 C   0  0  0  0  0  0  0  0  0  0  0  0
   10.6606   -1.2403   23.9315 C   0  0  0  0  0  0  0  0  0  0  0  0
    9.5810   -2.1133   23.5417 C   0  0  0  0  0  0  0  0  0  0  0  0
    8.4146   -5.1638   26.1259 C   0  0  0  0  0  0  0  0  0  0  0  0
    7.9512   -3.7710   26.5199 C   0  0  0  0  0  0  0  0  0  0  0  0
    8.8135   -2.6927   25.8675 C   0  0  0  0  0  0  0  0  0  0  0  0
   12.7532    0.4519   24.6873 N   0  0  0  0  0  0  0  0  0  0  0  0
    7.8248   -3.5187   23.8389 N   0  0  0  0  0  0  0  0  0  0  0  0
    8.7636   -2.7558   24.4244 N   0  0  0  0  0  0  0  0  0  0  0  0
  1  4  2  0  0  0  0
  1  7  1  0  0  0  0
  2  5  1  0  0  0  0
  2  7  2  0  0  0  0
  3  6  1  0  0  0  0
  3  8  2  0  0  0  0
  4 12  1  0  0  0  0
  5 12  2  0  0  0  0
  6 13  2  0  0  0  0
  7  8  1  0  0  0  0
  8 14  1  0  0  0  0
  9 10  1  0  0  0  0
 10 11  1  0  0  0  0
 11 14  1  0  0  0  0
 13 14  1  0  0  0  0
M  END
> <ref_mols>
x1091_0

> <original SMILES>
CCCN1N=CC=C1C=2C=CN=CC2

> <Chemgauss4>
-8.268024

> <ref_pdb>
x0072_0

$$$$
x0162
  -OEChem-05172015543D

 14 15  0     0  0  0  0  0  0999 V2000
   11.9664   -1.5336   23.5545 C   0  0  0  0  0  0  0  0  0  0  0  0
   10.3998   -0.1018   24.6860 C   0  0  0  0  0  0  0  0  0  0  0  0
    9.1472   -2.4818   22.2917 C   0  0  0  0  0  0  0  0  0  0  0  0
   12.9678   -0.6634   23.9541 C   0  0  0  0  0  0  0  0  0  0  0  0
   11.4714    0.7042   25.0351 C   0  0  0  0  0  0  0  0  0  0  0  0
    8.0642   -3.3474   22.5360 C   0  0  0  0  0  0  0  0  0  0  0  0
   10.6606   -1.2403   23.9315 C   0  0  0  0  0  0  0  0  0  0  0  0
    9.5810   -2.1133   23.5417 C   0  0  0  0  0  0  0  0  0  0  0  0
    8.4146   -5.1638   26.1259 C   0  0  0  0  0  0  0  0  0  0  0  0
    7.9512   -3.7710   26.5199 C   0  0  0  0  0  0  0  0  0  0  0  0
    8.8135   -2.6927   25.8675 C   0  0  0  0  0  0  0  0  0  0  0  0
   12.7532    0.4519   24.6873 N   0  0  0  0  0  0  0  0  0  0  0  0
    7.8248   -3.5187   23.8389 N   0  0  0  0  0  0  0  0  0  0  0  0
    8.7636   -2.7558   24.4244 N   0  0  0  0  0  0  0  0  0  0  0  0
  1  4  2  0  0  0  0
  1  7  1  0  0  0  0
  2  5  1  0  0  0  0
  2  7  2  0  0  0  0
  3  6  1  0  0  0  0
  3  8  2  0  0  0  0
  4 12  1  0  0  0  0
  5 12  2  0  0  0  0
  6 13  2  0  0  0  0
  7  8  1  0  0  0  0
  8 14  1  0  0  0  0
  9 10  1  0  0  0  0
 10 11  1  0  0  0  0
 11 14  1  0  0  0  0
 13 14  1  0  0  0  0
M  END
> <ref_mols>
x0162_0

> <original SMILES>
CCCN1N=CC=C1C=2C=CN=CC2

> <Chemgauss4>
-8.268024

> <ref_pdb>
x0072_0

$$$$
x1317
  -OEChem-05172015543D

 17 18  0     0  0  0  0  0  0999 V2000
   12.9097    0.6403   24.3755 C   0  0  0  0  0  0  0  0  0  0  0  0
   13.2006   -0.7343   24.5466 C   0  0  0  0  0  0  0  0  0  0  0  0
   11.5388    0.7362   24.3170 C   0  0  0  0  0  0  0  0  0  0  0  0
   11.9866   -1.3802   24.5807 C   0  0  0  0  0  0  0  0  0  0  0  0
   11.6415   -2.8028   24.7347 C   0  0  0  0  0  0  0  0  0  0  0  0
    6.7377   -4.6749   22.5251 C   0  0  0  0  0  0  0  0  0  0  0  0
   10.1076   -4.6765   24.2704 C   0  0  0  0  0  0  0  0  0  0  0  0
    9.5931   -2.4444   23.2813 C   0  0  0  0  0  0  0  0  0  0  0  0
    8.5985   -4.8863   24.2218 C   0  0  0  0  0  0  0  0  0  0  0  0
    8.7721   -3.2895   22.3136 C   0  0  0  0  0  0  0  0  0  0  0  0
    5.9991   -5.7334   23.3072 C   0  0  0  0  0  0  0  0  0  0  0  0
   10.4696   -3.2663   24.1275 N   0  0  0  0  0  0  0  0  0  0  0  0
    7.9917   -4.3092   23.0162 N   0  0  0  0  0  0  0  0  0  0  0  0
   12.4181   -3.4902   25.3965 O   0  0  0  0  0  0  0  0  0  0  0  0
    6.2228   -4.1937   21.5130 O   0  0  0  0  0  0  0  0  0  0  0  0
   10.9686   -0.4910   24.4414 O   0  0  0  0  0  0  0  0  0  0  0  0
    4.2828   -5.3889   23.1248 Cl  0  0  0  0  0  0  0  0  0  0  0  0
  1  2  1  0  0  0  0
  1  3  2  0  0  0  0
  2  4  2  0  0  0  0
  3 16  1  0  0  0  0
  4  5  1  0  0  0  0
  4 16  1  0  0  0  0
  5 12  1  0  0  0  0
  5 14  2  0  0  0  0
  6 11  1  0  0  0  0
  6 13  1  0  0  0  0
  6 15  2  0  0  0  0
  7  9  1  0  0  0  0
  7 12  1  0  0  0  0
  8 10  1  0  0  0  0
  8 12  1  0  0  0  0
  9 13  1  0  0  0  0
 10 13  1  0  0  0  0
 11 17  1  0  0  0  0
M  END
> <ref_mols>
x1317_0

> <original SMILES>
ClCC(=O)N1CCN(CC1)C(=O)c2occc2

> <Chemgauss4>
-8.267857

> <ref_pdb>
x0749_0

$$$$
x1454
  -OEChem-05172015543D

 17 18  0     0  0  0  0  0  0999 V2000
   12.9097    0.6403   24.3755 C   0  0  0  0  0  0  0  0  0  0  0  0
   13.2006   -0.7343   24.5466 C   0  0  0  0  0  0  0  0  0  0  0  0
   11.5388    0.7362   24.3170 C   0  0  0  0  0  0  0  0  0  0  0  0
   11.9866   -1.3802   24.5807 C   0  0  0  0  0  0  0  0  0  0  0  0
   11.6415   -2.8028   24.7347 C   0  0  0  0  0  0  0  0  0  0  0  0
    6.7377   -4.6749   22.5251 C   0  0  0  0  0  0  0  0  0  0  0  0
   10.1076   -4.6765   24.2704 C   0  0  0  0  0  0  0  0  0  0  0  0
    9.5931   -2.4444   23.2813 C   0  0  0  0  0  0  0  0  0  0  0  0
    8.5985   -4.8863   24.2218 C   0  0  0  0  0  0  0  0  0  0  0  0
    8.7721   -3.2895   22.3136 C   0  0  0  0  0  0  0  0  0  0  0  0
    5.9991   -5.7334   23.3072 C   0  0  0  0  0  0  0  0  0  0  0  0
   10.4696   -3.2663   24.1275 N   0  0  0  0  0  0  0  0  0  0  0  0
    7.9917   -4.3092   23.0162 N   0  0  0  0  0  0  0  0  0  0  0  0
   12.4181   -3.4902   25.3965 O   0  0  0  0  0  0  0  0  0  0  0  0
    6.2228   -4.1937   21.5130 O   0  0  0  0  0  0  0  0  0  0  0  0
   10.9686   -0.4910   24.4414 O   0  0  0  0  0  0  0  0  0  0  0  0
    4.2828   -5.3889   23.1248 Cl  0  0  0  0  0  0  0  0  0  0  0  0
  1  2  1  0  0  0  0
  1  3  2  0  0  0  0
  2  4  2  0  0  0  0
  3 16  1  0  0  0  0
  4  5  1  0  0  0  0
  4 16  1  0  0  0  0
  5 12  1  0  0  0  0
  5 14  2  0  0  0  0
  6 11  1  0  0  0  0
  6 13  1  0  0  0  0
  6 15  2  0  0  0  0
  7  9  1  0  0  0  0
  7 12  1  0  0  0  0
  8 10  1  0  0  0  0
  8 12  1  0  0  0  0
  9 13  1  0  0  0  0
 10 13  1  0  0  0  0
 11 17  1  0  0  0  0
M  END
> <ref_mols>
x1454_0

> <original SMILES>
ClCC(=O)N1CCN(CC1)C(=O)c2occc2

> <Chemgauss4>
-8.267857

> <ref_pdb>
x0749_0

$$$$
x1481
  -OEChem-05172015543D

 17 18  0     0  0  0  0  0  0999 V2000
   12.9097    0.6403   24.3755 C   0  0  0  0  0  0  0  0  0  0  0  0
   13.2006   -0.7343   24.5466 C   0  0  0  0  0  0  0  0  0  0  0  0
   11.5388    0.7362   24.3170 C   0  0  0  0  0  0  0  0  0  0  0  0
   11.9866   -1.3802   24.5807 C   0  0  0  0  0  0  0  0  0  0  0  0
   11.6415   -2.8028   24.7347 C   0  0  0  0  0  0  0  0  0  0  0  0
    6.7377   -4.6749   22.5251 C   0  0  0  0  0  0  0  0  0  0  0  0
   10.1076   -4.6765   24.2704 C   0  0  0  0  0  0  0  0  0  0  0  0
    9.5931   -2.4444   23.2813 C   0  0  0  0  0  0  0  0  0  0  0  0
    8.5985   -4.8863   24.2218 C   0  0  0  0  0  0  0  0  0  0  0  0
    8.7721   -3.2895   22.3136 C   0  0  0  0  0  0  0  0  0  0  0  0
    5.9991   -5.7334   23.3072 C   0  0  0  0  0  0  0  0  0  0  0  0
   10.4696   -3.2663   24.1275 N   0  0  0  0  0  0  0  0  0  0  0  0
    7.9917   -4.3092   23.0162 N   0  0  0  0  0  0  0  0  0  0  0  0
   12.4181   -3.4902   25.3965 O   0  0  0  0  0  0  0  0  0  0  0  0
    6.2228   -4.1937   21.5130 O   0  0  0  0  0  0  0  0  0  0  0  0
   10.9686   -0.4910   24.4414 O   0  0  0  0  0  0  0  0  0  0  0  0
    4.2828   -5.3889   23.1248 Cl  0  0  0  0  0  0  0  0  0  0  0  0
  1  2  1  0  0  0  0
  1  3  2  0  0  0  0
  2  4  2  0  0  0  0
  3 16  1  0  0  0  0
  4  5  1  0  0  0  0
  4 16  1  0  0  0  0
  5 12  1  0  0  0  0
  5 14  2  0  0  0  0
  6 11  1  0  0  0  0
  6 13  1  0  0  0  0
  6 15  2  0  0  0  0
  7  9  1  0  0  0  0
  7 12  1  0  0  0  0
  8 10  1  0  0  0  0
  8 12  1  0  0  0  0
  9 13  1  0  0  0  0
 10 13  1  0  0  0  0
 11 17  1  0  0  0  0
M  END
> <ref_mols>
x1481_0

> <original SMILES>
ClCC(=O)N1CCN(CC1)C(=O)c2occc2

> <Chemgauss4>
-8.267857

> <ref_pdb>
x0749_0

> <CYS145-warhead dist minimum (A)>
6.6852517

> <CYS145-warhead dist mean (A)>
9.909489

> <CYS145-warhead dist stddev (A)>
1.1073422

$$$$
x1431
  -OEChem-05172015543D

 17 18  0     0  0  0  0  0  0999 V2000
   12.9097    0.6403   24.3755 C   0  0  0  0  0  0  0  0  0  0  0  0
   13.2006   -0.7343   24.5466 C   0  0  0  0  0  0  0  0  0  0  0  0
   11.5388    0.7362   24.3170 C   0  0  0  0  0  0  0  0  0  0  0  0
   11.9866   -1.3802   24.5807 C   0  0  0  0  0  0  0  0  0  0  0  0
   11.6415   -2.8028   24.7347 C   0  0  0  0  0  0  0  0  0  0  0  0
    6.7377   -4.6749   22.5251 C   0  0  0  0  0  0  0  0  0  0  0  0
   10.1076   -4.6765   24.2704 C   0  0  0  0  0  0  0  0  0  0  0  0
    9.5931   -2.4444   23.2813 C   0  0  0  0  0  0  0  0  0  0  0  0
    8.5985   -4.8863   24.2218 C   0  0  0  0  0  0  0  0  0  0  0  0
    8.7721   -3.2895   22.3136 C   0  0  0  0  0  0  0  0  0  0  0  0
    5.9991   -5.7334   23.3072 C   0  0  0  0  0  0  0  0  0  0  0  0
   10.4696   -3.2663   24.1275 N   0  0  0  0  0  0  0  0  0  0  0  0
    7.9917   -4.3092   23.0162 N   0  0  0  0  0  0  0  0  0  0  0  0
   12.4181   -3.4902   25.3965 O   0  0  0  0  0  0  0  0  0  0  0  0
    6.2228   -4.1937   21.5130 O   0  0  0  0  0  0  0  0  0  0  0  0
   10.9686   -0.4910   24.4414 O   0  0  0  0  0  0  0  0  0  0  0  0
    4.2828   -5.3889   23.1248 Cl  0  0  0  0  0  0  0  0  0  0  0  0
  1  2  1  0  0  0  0
  1  3  2  0  0  0  0
  2  4  2  0  0  0  0
  3 16  1  0  0  0  0
  4  5  1  0  0  0  0
  4 16  1  0  0  0  0
  5 12  1  0  0  0  0
  5 14  2  0  0  0  0
  6 11  1  0  0  0  0
  6 13  1  0  0  0  0
  6 15  2  0  0  0  0
  7  9  1  0  0  0  0
  7 12  1  0  0  0  0
  8 10  1  0  0  0  0
  8 12  1  0  0  0  0
  9 13  1  0  0  0  0
 10 13  1  0  0  0  0
 11 17  1  0  0  0  0
M  END
> <ref_mols>
x1431_0

> <original SMILES>
ClCC(=O)N1CCN(CC1)C(=O)c2occc2

> <Chemgauss4>
-8.267857

> <ref_pdb>
x0749_0

$$$$
x0810
  -OEChem-05172015543D

 17 18  0     0  0  0  0  0  0999 V2000
   12.9097    0.6403   24.3755 C   0  0  0  0  0  0  0  0  0  0  0  0
   13.2006   -0.7343   24.5466 C   0  0  0  0  0  0  0  0  0  0  0  0
   11.5388    0.7362   24.3170 C   0  0  0  0  0  0  0  0  0  0  0  0
   11.9866   -1.3802   24.5807 C   0  0  0  0  0  0  0  0  0  0  0  0
   11.6415   -2.8028   24.7347 C   0  0  0  0  0  0  0  0  0  0  0  0
    6.7377   -4.6749   22.5251 C   0  0  0  0  0  0  0  0  0  0  0  0
   10.1076   -4.6765   24.2704 C   0  0  0  0  0  0  0  0  0  0  0  0
    9.5931   -2.4444   23.2813 C   0  0  0  0  0  0  0  0  0  0  0  0
    8.5985   -4.8863   24.2218 C   0  0  0  0  0  0  0  0  0  0  0  0
    8.7721   -3.2895   22.3136 C   0  0  0  0  0  0  0  0  0  0  0  0
    5.9991   -5.7334   23.3072 C   0  0  0  0  0  0  0  0  0  0  0  0
   10.4696   -3.2663   24.1275 N   0  0  0  0  0  0  0  0  0  0  0  0
    7.9917   -4.3092   23.0162 N   0  0  0  0  0  0  0  0  0  0  0  0
   12.4181   -3.4902   25.3965 O   0  0  0  0  0  0  0  0  0  0  0  0
    6.2228   -4.1937   21.5130 O   0  0  0  0  0  0  0  0  0  0  0  0
   10.9686   -0.4910   24.4414 O   0  0  0  0  0  0  0  0  0  0  0  0
    4.2828   -5.3889   23.1248 Cl  0  0  0  0  0  0  0  0  0  0  0  0
  1  2  1  0  0  0  0
  1  3  2  0  0  0  0
  2  4  2  0  0  0  0
  3 16  1  0  0  0  0
  4  5  1  0  0  0  0
  4 16  1  0  0  0  0
  5 12  1  0  0  0  0
  5 14  2  0  0  0  0
  6 11  1  0  0  0  0
  6 13  1  0  0  0  0
  6 15  2  0  0  0  0
  7  9  1  0  0  0  0
  7 12  1  0  0  0  0
  8 10  1  0  0  0  0
  8 12  1  0  0  0  0
  9 13  1  0  0  0  0
 10 13  1  0  0  0  0
 11 17  1  0  0  0  0
M  END
> <ref_mols>
x0810_0

> <original SMILES>
ClCC(=O)N1CCN(CC1)C(=O)c2occc2

> <Chemgauss4>
-8.267857

> <ref_pdb>
x0749_0

$$$$
x0736
  -OEChem-05172015543D

 17 18  0     0  0  0  0  0  0999 V2000
   12.9097    0.6403   24.3755 C   0  0  0  0  0  0  0  0  0  0  0  0
   13.2006   -0.7343   24.5466 C   0  0  0  0  0  0  0  0  0  0  0  0
   11.5388    0.7362   24.3170 C   0  0  0  0  0  0  0  0  0  0  0  0
   11.9866   -1.3802   24.5807 C   0  0  0  0  0  0  0  0  0  0  0  0
   11.6415   -2.8028   24.7347 C   0  0  0  0  0  0  0  0  0  0  0  0
    6.7377   -4.6749   22.5251 C   0  0  0  0  0  0  0  0  0  0  0  0
   10.1076   -4.6765   24.2704 C   0  0  0  0  0  0  0  0  0  0  0  0
    9.5931   -2.4444   23.2813 C   0  0  0  0  0  0  0  0  0  0  0  0
    8.5985   -4.8863   24.2218 C   0  0  0  0  0  0  0  0  0  0  0  0
    8.7721   -3.2895   22.3136 C   0  0  0  0  0  0  0  0  0  0  0  0
    5.9991   -5.7334   23.3072 C   0  0  0  0  0  0  0  0  0  0  0  0
   10.4696   -3.2663   24.1275 N   0  0  0  0  0  0  0  0  0  0  0  0
    7.9917   -4.3092   23.0162 N   0  0  0  0  0  0  0  0  0  0  0  0
   12.4181   -3.4902   25.3965 O   0  0  0  0  0  0  0  0  0  0  0  0
    6.2228   -4.1937   21.5130 O   0  0  0  0  0  0  0  0  0  0  0  0
   10.9686   -0.4910   24.4414 O   0  0  0  0  0  0  0  0  0  0  0  0
    4.2828   -5.3889   23.1248 Cl  0  0  0  0  0  0  0  0  0  0  0  0
  1  2  1  0  0  0  0
  1  3  2  0  0  0  0
  2  4  2  0  0  0  0
  3 16  1  0  0  0  0
  4  5  1  0  0  0  0
  4 16  1  0  0  0  0
  5 12  1  0  0  0  0
  5 14  2  0  0  0  0
  6 11  1  0  0  0  0
  6 13  1  0  0  0  0
  6 15  2  0  0  0  0
  7  9  1  0  0  0  0
  7 12  1  0  0  0  0
  8 10  1  0  0  0  0
  8 12  1  0  0  0  0
  9 13  1  0  0  0  0
 10 13  1  0  0  0  0
 11 17  1  0  0  0  0
M  END
> <ref_mols>
x0736_0

> <original SMILES>
ClCC(=O)N1CCN(CC1)C(=O)c2occc2

> <Chemgauss4>
-8.267857

> <ref_pdb>
x0749_0

> <CYS145-warhead dist minimum (A)>
10.184232

> <CYS145-warhead dist mean (A)>
11.469561

> <CYS145-warhead dist stddev (A)>
0.41386932

$$$$
x0438
  -OEChem-05172015543D

 17 17  0     0  0  0  0  0  0999 V2000
   14.1611   -1.2871   22.2482 C   0  0  0  0  0  0  0  0  0  0  0  0
   12.9473   -1.9222   22.5111 C   0  0  0  0  0  0  0  0  0  0  0  0
   14.2663    0.0977   22.3789 C   0  0  0  0  0  0  0  0  0  0  0  0
   11.9440    0.2123   23.0353 C   0  0  0  0  0  0  0  0  0  0  0  0
   11.8388   -1.1725   22.9046 C   0  0  0  0  0  0  0  0  0  0  0  0
   13.1578    0.8473   22.7724 C   0  0  0  0  0  0  0  0  0  0  0  0
   10.5741   -1.8359   23.1785 C   0  0  0  0  0  0  0  0  0  0  0  0
   12.2706    3.1438   23.2835 C   0  0  0  0  0  0  0  0  0  0  0  0
    9.6676   -1.2078   24.1970 C   0  0  0  0  0  0  0  0  0  0  0  0
   12.7914    4.5539   23.3024 C   0  0  0  0  0  0  0  0  0  0  0  0
   13.2634    2.2324   22.9033 N   0  0  0  0  0  0  0  0  0  0  0  0
   10.1918   -2.8777   22.6412 O   0  0  0  0  0  0  0  0  0  0  0  0
   11.1044    2.8991   23.5737 O   0  0  0  0  0  0  0  0  0  0  0  0
   14.1001    4.6183   22.9476 F   0  0  0  0  0  0  0  0  0  0  0  0
   12.1101    5.3566   22.4455 F   0  0  0  0  0  0  0  0  0  0  0  0
   12.6906    5.1187   24.5324 F   0  0  0  0  0  0  0  0  0  0  0  0
   14.1848    2.6339   22.6947 H   0  0  0  0  0  0  0  0  0  0  0  0
  1  2  2  0  0  0  0
  1  3  1  0  0  0  0
  2  5  1  0  0  0  0
  3  6  2  0  0  0  0
  4  5  2  0  0  0  0
  4  6  1  0  0  0  0
  5  7  1  0  0  0  0
  6 11  1  0  0  0  0
  7  9  1  0  0  0  0
  7 12  2  0  0  0  0
  8 10  1  0  0  0  0
  8 11  1  0  0  0  0
  8 13  2  0  0  0  0
 10 14  1  0  0  0  0
 10 15  1  0  0  0  0
 10 16  1  0  0  0  0
 11 17  1  0  0  0  0
M  END
> <ref_mols>
x0438_0

> <original SMILES>
CC(=O)C=1C=CC=C(NC(=O)C(F)(F)F)C1

> <Chemgauss4>
-8.266839

> <ref_pdb>
x0195_0

$$$$
x1138
  -OEChem-05172015543D

 14 15  0     1  0  0  0  0  0999 V2000
   13.5453   -1.5100   23.8486 C   0  0  0  0  0  0  0  0  0  0  0  0
   14.2563   -1.8242   22.5286 C   0  0  0  0  0  0  0  0  0  0  0  0
    6.5889    0.3679   19.8380 C   0  0  0  0  0  0  0  0  0  0  0  0
   12.2051   -0.8846   23.4709 C   0  0  0  0  0  0  0  0  0  0  0  0
   13.3157   -1.3609   21.4198 C   0  0  0  0  0  0  0  0  0  0  0  0
    7.1787   -0.1768   21.1145 C   0  0  0  0  0  0  0  0  0  0  0  0
    7.6185   -0.0555   18.8120 C   0  0  0  0  0  0  0  0  0  0  0  0
   11.9472   -1.4196   22.0739 C   0  0  0  0  0  0  0  0  0  0  0  0
    8.6607    0.0705   20.8926 C   0  0  1  0  0  0  0  0  0  0  0  0
    9.5549   -0.8749   21.6708 C   0  0  0  0  0  0  0  0  0  0  0  0
   10.9766   -0.5773   21.3528 N   0  3  0  0  0  0  0  0  0  0  0  0
    8.8871   -0.0932   19.4826 O   0  0  0  0  0  0  0  0  0  0  0  0
   11.1686    0.4120   21.5613 H   0  0  0  0  0  0  0  0  0  0  0  0
   11.1251   -0.6840   20.3399 H   0  0  0  0  0  0  0  0  0  0  0  0
  1  2  1  0  0  0  0
  1  4  1  0  0  0  0
  2  5  1  0  0  0  0
  3  6  1  0  0  0  0
  3  7  1  0  0  0  0
  4  8  1  0  0  0  0
  5  8  1  0  0  0  0
  6  9  1  0  0  0  0
  7 12  1  0  0  0  0
  8 11  1  0  0  0  0
  9 10  1  0  0  0  0
  9 12  1  0  0  0  0
 10 11  1  0  0  0  0
 11 13  1  0  0  0  0
 11 14  1  0  0  0  0
M  CHG  1  11   1
M  END
> <ref_mols>
x1138_0

> <original SMILES>
C(NC1CCCC1)C2CCCO2

> <Chemgauss4>
-8.265560

> <ref_pdb>
x0678_0

$$$$
x0562
  -OEChem-05172015543D

 14 15  0     1  0  0  0  0  0999 V2000
   13.5453   -1.5100   23.8486 C   0  0  0  0  0  0  0  0  0  0  0  0
   14.2563   -1.8242   22.5286 C   0  0  0  0  0  0  0  0  0  0  0  0
    6.5889    0.3679   19.8380 C   0  0  0  0  0  0  0  0  0  0  0  0
   12.2051   -0.8846   23.4709 C   0  0  0  0  0  0  0  0  0  0  0  0
   13.3157   -1.3609   21.4198 C   0  0  0  0  0  0  0  0  0  0  0  0
    7.1787   -0.1768   21.1145 C   0  0  0  0  0  0  0  0  0  0  0  0
    7.6185   -0.0555   18.8120 C   0  0  0  0  0  0  0  0  0  0  0  0
   11.9472   -1.4196   22.0739 C   0  0  0  0  0  0  0  0  0  0  0  0
    8.6607    0.0705   20.8926 C   0  0  1  0  0  0  0  0  0  0  0  0
    9.5549   -0.8749   21.6708 C   0  0  0  0  0  0  0  0  0  0  0  0
   10.9766   -0.5773   21.3528 N   0  3  0  0  0  0  0  0  0  0  0  0
    8.8871   -0.0932   19.4826 O   0  0  0  0  0  0  0  0  0  0  0  0
   11.1686    0.4120   21.5613 H   0  0  0  0  0  0  0  0  0  0  0  0
   11.1251   -0.6840   20.3399 H   0  0  0  0  0  0  0  0  0  0  0  0
  1  2  1  0  0  0  0
  1  4  1  0  0  0  0
  2  5  1  0  0  0  0
  3  6  1  0  0  0  0
  3  7  1  0  0  0  0
  4  8  1  0  0  0  0
  5  8  1  0  0  0  0
  6  9  1  0  0  0  0
  7 12  1  0  0  0  0
  8 11  1  0  0  0  0
  9 10  1  0  0  0  0
  9 12  1  0  0  0  0
 10 11  1  0  0  0  0
 11 13  1  0  0  0  0
 11 14  1  0  0  0  0
M  CHG  1  11   1
M  END
> <ref_mols>
x0562_0

> <original SMILES>
C(NC1CCCC1)C2CCCO2

> <Chemgauss4>
-8.265560

> <ref_pdb>
x0678_0

$$$$
x1250
  -OEChem-05172015543D

 18 19  0     1  0  0  0  0  0999 V2000
   13.2940   -2.8114   25.2076 C   0  0  0  0  0  0  0  0  0  0  0  0
   12.2898   -3.6423   25.7041 C   0  0  0  0  0  0  0  0  0  0  0  0
   13.0159   -1.9275   24.1649 C   0  0  0  0  0  0  0  0  0  0  0  0
   11.0074   -3.5896   25.1580 C   0  0  0  0  0  0  0  0  0  0  0  0
   11.7335   -1.8748   23.6187 C   0  0  0  0  0  0  0  0  0  0  0  0
   10.7292   -2.7058   24.1152 C   0  0  0  0  0  0  0  0  0  0  0  0
    7.5615   -5.9745   22.3677 C   0  0  0  0  0  0  0  0  0  0  0  0
    8.8815   -5.2435   22.5884 C   0  0  0  0  0  0  0  0  0  0  0  0
    7.2116   -4.4673   24.1663 C   0  0  0  0  0  0  0  0  0  0  0  0
    6.9119   -5.8922   23.7341 C   0  0  1  0  0  0  0  0  0  0  0  0
    8.6000   -4.2451   23.6659 N   0  0  2  0  0  0  0  0  0  0  0  0
    5.4620   -6.1356   23.6539 N   0  3  0  0  0  0  0  0  0  0  0  0
    8.3120   -1.7506   24.2491 O   0  0  0  0  0  0  0  0  0  0  0  0
    9.2451   -2.3906   21.9980 O   0  0  0  0  0  0  0  0  0  0  0  0
    9.1046   -2.6416   23.4211 S   0  0  0  0  0  0  0  0  0  0  0  0
    5.1422   -6.1941   22.6770 H   0  0  0  0  0  0  0  0  0  0  0  0
    4.9272   -5.3816   24.1074 H   0  0  0  0  0  0  0  0  0  0  0  0
    5.2010   -7.0180   24.1158 H   0  0  0  0  0  0  0  0  0  0  0  0
  1  2  1  0  0  0  0
  1  3  2  0  0  0  0
  2  4  2  0  0  0  0
  3  5  1  0  0  0  0
  4  6  1  0  0  0  0
  5  6  2  0  0  0  0
  6 15  1  0  0  0  0
  7  8  1  0  0  0  0
  7 10  1  0  0  0  0
  8 11  1  0  0  0  0
  9 10  1  0  0  0  0
  9 11  1  0  0  0  0
 10 12  1  0  0  0  0
 11 15  1  0  0  0  0
 13 15  2  0  0  0  0
 14 15  2  0  0  0  0
 12 16  1  0  0  0  0
 12 17  1  0  0  0  0
 12 18  1  0  0  0  0
M  CHG  1  12   1
M  END
> <ref_mols>
x1250_0

> <original SMILES>
N[C@H]1CCN(C1)S(=O)(=O)C=2C=CC=CC2

> <Chemgauss4>
-8.265256

> <ref_pdb>
x0749_0

$$$$
x0489
  -OEChem-05172015543D

 18 19  0     1  0  0  0  0  0999 V2000
   13.2940   -2.8114   25.2076 C   0  0  0  0  0  0  0  0  0  0  0  0
   12.2898   -3.6423   25.7041 C   0  0  0  0  0  0  0  0  0  0  0  0
   13.0159   -1.9275   24.1649 C   0  0  0  0  0  0  0  0  0  0  0  0
   11.0074   -3.5896   25.1580 C   0  0  0  0  0  0  0  0  0  0  0  0
   11.7335   -1.8748   23.6187 C   0  0  0  0  0  0  0  0  0  0  0  0
   10.7292   -2.7058   24.1152 C   0  0  0  0  0  0  0  0  0  0  0  0
    7.5615   -5.9745   22.3677 C   0  0  0  0  0  0  0  0  0  0  0  0
    8.8815   -5.2435   22.5884 C   0  0  0  0  0  0  0  0  0  0  0  0
    7.2116   -4.4673   24.1663 C   0  0  0  0  0  0  0  0  0  0  0  0
    6.9119   -5.8922   23.7341 C   0  0  1  0  0  0  0  0  0  0  0  0
    8.6000   -4.2451   23.6659 N   0  0  2  0  0  0  0  0  0  0  0  0
    5.4620   -6.1356   23.6539 N   0  3  0  0  0  0  0  0  0  0  0  0
    8.3120   -1.7506   24.2491 O   0  0  0  0  0  0  0  0  0  0  0  0
    9.2451   -2.3906   21.9980 O   0  0  0  0  0  0  0  0  0  0  0  0
    9.1046   -2.6416   23.4211 S   0  0  0  0  0  0  0  0  0  0  0  0
    5.1422   -6.1941   22.6770 H   0  0  0  0  0  0  0  0  0  0  0  0
    4.9272   -5.3816   24.1074 H   0  0  0  0  0  0  0  0  0  0  0  0
    5.2010   -7.0180   24.1158 H   0  0  0  0  0  0  0  0  0  0  0  0
  1  2  1  0  0  0  0
  1  3  2  0  0  0  0
  2  4  2  0  0  0  0
  3  5  1  0  0  0  0
  4  6  1  0  0  0  0
  5  6  2  0  0  0  0
  6 15  1  0  0  0  0
  7  8  1  0  0  0  0
  7 10  1  0  0  0  0
  8 11  1  0  0  0  0
  9 10  1  0  0  0  0
  9 11  1  0  0  0  0
 10 12  1  0  0  0  0
 11 15  1  0  0  0  0
 13 15  2  0  0  0  0
 14 15  2  0  0  0  0
 12 16  1  0  0  0  0
 12 17  1  0  0  0  0
 12 18  1  0  0  0  0
M  CHG  1  12   1
M  END
> <ref_mols>
x0489_0

> <original SMILES>
N[C@H]1CCN(C1)S(=O)(=O)C=2C=CC=CC2

> <Chemgauss4>
-8.265256

> <ref_pdb>
x0749_0

$$$$
x0397
  -OEChem-05172015543D

 16 17  0     0  0  0  0  0  0999 V2000
    5.8469    0.4253   19.8683 C   0  0  0  0  0  0  0  0  0  0  0  0
    6.7013   -0.1203   18.8947 C   0  0  0  0  0  0  0  0  0  0  0  0
    5.0446    1.2775   19.1569 C   0  0  0  0  0  0  0  0  0  0  0  0
    7.0141   -2.9841   20.5821 C   0  0  0  0  0  0  0  0  0  0  0  0
    7.0548   -6.0449   22.0606 C   0  0  0  0  0  0  0  0  0  0  0  0
    6.8282   -5.5119   23.4438 C   0  0  0  0  0  0  0  0  0  0  0  0
    6.3800   -4.7140   22.2502 C   0  0  0  0  0  0  0  0  0  0  0  0
    3.9392    2.1730   19.5194 C   0  0  0  0  0  0  0  0  0  0  0  0
    8.3986   -1.1045   21.4924 C   0  0  0  0  0  0  0  0  0  0  0  0
    7.8002   -1.1239   19.0931 C   0  0  0  0  0  0  0  0  0  0  0  0
    6.4483    0.3570   17.6729 N   0  0  0  0  0  0  0  0  0  0  0  0
    7.0381   -3.4807   21.8825 N   0  0  0  0  0  0  0  0  0  0  0  0
    7.7144   -1.7780   20.3965 N   0  0  0  0  0  0  0  0  0  0  0  0
    6.4279   -3.5708   19.6673 O   0  0  0  0  0  0  0  0  0  0  0  0
    5.3938    1.2456   17.8453 O   0  0  0  0  0  0  0  0  0  0  0  0
    7.5339   -2.9596   22.5958 H   0  0  0  0  0  0  0  0  0  0  0  0
  1  2  1  0  0  0  0
  1  3  2  0  0  0  0
  2 10  1  0  0  0  0
  2 11  2  0  0  0  0
  3  8  1  0  0  0  0
  3 15  1  0  0  0  0
  4 12  1  0  0  0  0
  4 13  1  0  0  0  0
  4 14  2  0  0  0  0
  5  6  1  0  0  0  0
  5  7  1  0  0  0  0
  6  7  1  0  0  0  0
  7 12  1  0  0  0  0
  9 13  1  0  0  0  0
 10 13  1  0  0  0  0
 11 15  1  0  0  0  0
 12 16  1  0  0  0  0
M  END
> <ref_mols>
x0397_0

> <original SMILES>
CN(CC=1C=C(C)ON1)C(=O)NC2CC2

> <Chemgauss4>
-8.257285

> <ref_pdb>
x0397_0

$$$$
x0118
  -OEChem-05172015543D

 17 17  0     0  0  0  0  0  0999 V2000
   14.1051    1.4619   22.3914 C   0  0  0  0  0  0  0  0  0  0  0  0
   11.9563    2.3924   22.9860 C   0  0  0  0  0  0  0  0  0  0  0  0
   13.2705    2.5678   22.5525 C   0  0  0  0  0  0  0  0  0  0  0  0
   13.6255    0.1806   22.6636 C   0  0  0  0  0  0  0  0  0  0  0  0
   11.4767    1.1112   23.2582 C   0  0  0  0  0  0  0  0  0  0  0  0
   12.3113    0.0053   23.0970 C   0  0  0  0  0  0  0  0  0  0  0  0
   14.4609   -1.5139   21.2191 C   0  0  0  0  0  0  0  0  0  0  0  0
    9.9626    0.9921   25.0883 C   0  0  0  0  0  0  0  0  0  0  0  0
   10.7238   -1.6946   22.6011 C   0  0  0  0  0  0  0  0  0  0  0  0
   13.7831    3.9377   22.2619 C   0  0  0  0  0  0  0  0  0  0  0  0
   14.3976    4.6021   23.4444 N   0  3  0  0  0  0  0  0  0  0  0  0
   14.4510   -0.8911   22.5021 O   0  0  0  0  0  0  0  0  0  0  0  0
   10.1912    0.9538   23.6810 O   0  0  0  0  0  0  0  0  0  0  0  0
   11.8426   -1.2471   23.3631 O   0  0  0  0  0  0  0  0  0  0  0  0
   14.4212    3.9650   24.2452 H   0  0  0  0  0  0  0  0  0  0  0  0
   13.8613    5.4324   23.7110 H   0  0  0  0  0  0  0  0  0  0  0  0
   15.3571    4.8928   23.2374 H   0  0  0  0  0  0  0  0  0  0  0  0
  1  3  2  0  0  0  0
  1  4  1  0  0  0  0
  2  3  1  0  0  0  0
  2  5  2  0  0  0  0
  3 10  1  0  0  0  0
  4  6  2  0  0  0  0
  4 12  1  0  0  0  0
  5  6  1  0  0  0  0
  5 13  1  0  0  0  0
  6 14  1  0  0  0  0
  7 12  1  0  0  0  0
  8 13  1  0  0  0  0
  9 14  1  0  0  0  0
 10 11  1  0  0  0  0
 11 15  1  0  0  0  0
 11 16  1  0  0  0  0
 11 17  1  0  0  0  0
M  CHG  1  11   1
M  END
> <ref_mols>
x0118_0

> <original SMILES>
COC=1C=C(CN)C=C(OC)C1OC

> <Chemgauss4>
-8.253920

> <ref_pdb>
x0195_0

$$$$
x2558
  -OEChem-05172015543D

 20 21  0     0  0  0  0  0  0999 V2000
   12.9678    0.0977   22.8564 C   0  0  0  0  0  0  0  0  0  0  0  0
   12.7698    1.2568   23.6065 C   0  0  0  0  0  0  0  0  0  0  0  0
   12.0733   -0.9668   22.9682 C   0  0  0  0  0  0  0  0  0  0  0  0
   10.7827    0.2871   24.5803 C   0  0  0  0  0  0  0  0  0  0  0  0
   11.6773    1.3516   24.4685 C   0  0  0  0  0  0  0  0  0  0  0  0
   10.9807   -0.8720   23.8302 C   0  0  0  0  0  0  0  0  0  0  0  0
    6.2744   -2.1505   19.3796 C   0  0  0  0  0  0  0  0  0  0  0  0
    8.2833   -1.0126   20.4477 C   0  0  0  0  0  0  0  0  0  0  0  0
    6.4404   -1.8804   21.8341 C   0  0  0  0  0  0  0  0  0  0  0  0
    9.2962   -1.6887   21.3669 C   0  0  0  0  0  0  0  0  0  0  0  0
    7.4459   -2.5616   22.7555 C   0  0  0  0  0  0  0  0  0  0  0  0
    6.4347   -1.3480   18.1132 C   0  0  0  0  0  0  0  0  0  0  0  0
    6.9948   -1.7137   20.4900 N   0  0  0  0  0  0  0  0  0  0  0  0
    8.7272   -1.7930   22.7447 N   0  0  0  0  0  0  0  0  0  0  0  0
    5.5332   -3.1366   19.3794 O   0  0  0  0  0  0  0  0  0  0  0  0
   10.5418   -3.4246   23.5756 O   0  0  0  0  0  0  0  0  0  0  0  0
    9.1941   -2.1194   25.2571 O   0  0  0  0  0  0  0  0  0  0  0  0
   11.4875    2.4648   25.1890 F   0  0  0  0  0  0  0  0  0  0  0  0
    9.8473   -2.2180   23.9697 S   0  0  0  0  0  0  0  0  0  0  0  0
    5.8646    0.2781   18.4715 Cl  0  0  0  0  0  0  0  0  0  0  0  0
  1  2  2  0  0  0  0
  1  3  1  0  0  0  0
  2  5  1  0  0  0  0
  3  6  2  0  0  0  0
  4  5  2  0  0  0  0
  4  6  1  0  0  0  0
  5 18  1  0  0  0  0
  6 19  1  0  0  0  0
  7 12  1  0  0  0  0
  7 13  1  0  0  0  0
  7 15  2  0  0  0  0
  8 10  1  0  0  0  0
  8 13  1  0  0  0  0
  9 11  1  0  0  0  0
  9 13  1  0  0  0  0
 10 14  1  0  0  0  0
 11 14  1  0  0  0  0
 12 20  1  0  0  0  0
 14 19  1  0  0  0  0
 16 19  2  0  0  0  0
 17 19  2  0  0  0  0
M  END
> <ref_mols>
x2558_0

> <original SMILES>
FC=1C=CC=C(C1)S(=O)(=O)N2CCN(CC2)C(=O)CCl

> <Chemgauss4>
-8.249612

> <ref_pdb>
x0830_0

$$$$
x1387
  -OEChem-05172015543D

 20 21  0     0  0  0  0  0  0999 V2000
   12.9678    0.0977   22.8564 C   0  0  0  0  0  0  0  0  0  0  0  0
   12.7698    1.2568   23.6065 C   0  0  0  0  0  0  0  0  0  0  0  0
   12.0733   -0.9668   22.9682 C   0  0  0  0  0  0  0  0  0  0  0  0
   10.7827    0.2871   24.5803 C   0  0  0  0  0  0  0  0  0  0  0  0
   11.6773    1.3516   24.4685 C   0  0  0  0  0  0  0  0  0  0  0  0
   10.9807   -0.8720   23.8302 C   0  0  0  0  0  0  0  0  0  0  0  0
    6.2744   -2.1505   19.3796 C   0  0  0  0  0  0  0  0  0  0  0  0
    8.2833   -1.0126   20.4477 C   0  0  0  0  0  0  0  0  0  0  0  0
    6.4404   -1.8804   21.8341 C   0  0  0  0  0  0  0  0  0  0  0  0
    9.2962   -1.6887   21.3669 C   0  0  0  0  0  0  0  0  0  0  0  0
    7.4459   -2.5616   22.7555 C   0  0  0  0  0  0  0  0  0  0  0  0
    6.4347   -1.3480   18.1132 C   0  0  0  0  0  0  0  0  0  0  0  0
    6.9948   -1.7137   20.4900 N   0  0  0  0  0  0  0  0  0  0  0  0
    8.7272   -1.7930   22.7447 N   0  0  0  0  0  0  0  0  0  0  0  0
    5.5332   -3.1366   19.3794 O   0  0  0  0  0  0  0  0  0  0  0  0
   10.5418   -3.4246   23.5756 O   0  0  0  0  0  0  0  0  0  0  0  0
    9.1941   -2.1194   25.2571 O   0  0  0  0  0  0  0  0  0  0  0  0
   11.4875    2.4648   25.1890 F   0  0  0  0  0  0  0  0  0  0  0  0
    9.8473   -2.2180   23.9697 S   0  0  0  0  0  0  0  0  0  0  0  0
    5.8646    0.2781   18.4715 Cl  0  0  0  0  0  0  0  0  0  0  0  0
  1  2  2  0  0  0  0
  1  3  1  0  0  0  0
  2  5  1  0  0  0  0
  3  6  2  0  0  0  0
  4  5  2  0  0  0  0
  4  6  1  0  0  0  0
  5 18  1  0  0  0  0
  6 19  1  0  0  0  0
  7 12  1  0  0  0  0
  7 13  1  0  0  0  0
  7 15  2  0  0  0  0
  8 10  1  0  0  0  0
  8 13  1  0  0  0  0
  9 11  1  0  0  0  0
  9 13  1  0  0  0  0
 10 14  1  0  0  0  0
 11 14  1  0  0  0  0
 12 20  1  0  0  0  0
 14 19  1  0  0  0  0
 16 19  2  0  0  0  0
 17 19  2  0  0  0  0
M  END
> <ref_mols>
x1387_0

> <original SMILES>
Fc1cccc(c1)S(=O)(=O)N2CCN(CC2)C(=O)CCl

> <Chemgauss4>
-8.249612

> <ref_pdb>
x0830_0

$$$$
x0691
  -OEChem-05172015543D

 20 21  0     0  0  0  0  0  0999 V2000
   12.9678    0.0977   22.8564 C   0  0  0  0  0  0  0  0  0  0  0  0
   12.7698    1.2568   23.6065 C   0  0  0  0  0  0  0  0  0  0  0  0
   12.0733   -0.9668   22.9682 C   0  0  0  0  0  0  0  0  0  0  0  0
   10.7827    0.2871   24.5803 C   0  0  0  0  0  0  0  0  0  0  0  0
   11.6773    1.3516   24.4685 C   0  0  0  0  0  0  0  0  0  0  0  0
   10.9807   -0.8720   23.8302 C   0  0  0  0  0  0  0  0  0  0  0  0
    6.2744   -2.1505   19.3796 C   0  0  0  0  0  0  0  0  0  0  0  0
    8.2833   -1.0126   20.4477 C   0  0  0  0  0  0  0  0  0  0  0  0
    6.4404   -1.8804   21.8341 C   0  0  0  0  0  0  0  0  0  0  0  0
    9.2962   -1.6887   21.3669 C   0  0  0  0  0  0  0  0  0  0  0  0
    7.4459   -2.5616   22.7555 C   0  0  0  0  0  0  0  0  0  0  0  0
    6.4347   -1.3480   18.1132 C   0  0  0  0  0  0  0  0  0  0  0  0
    6.9948   -1.7137   20.4900 N   0  0  0  0  0  0  0  0  0  0  0  0
    8.7272   -1.7930   22.7447 N   0  0  0  0  0  0  0  0  0  0  0  0
    5.5332   -3.1366   19.3794 O   0  0  0  0  0  0  0  0  0  0  0  0
   10.5418   -3.4246   23.5756 O   0  0  0  0  0  0  0  0  0  0  0  0
    9.1941   -2.1194   25.2571 O   0  0  0  0  0  0  0  0  0  0  0  0
   11.4875    2.4648   25.1890 F   0  0  0  0  0  0  0  0  0  0  0  0
    9.8473   -2.2180   23.9697 S   0  0  0  0  0  0  0  0  0  0  0  0
    5.8646    0.2781   18.4715 Cl  0  0  0  0  0  0  0  0  0  0  0  0
  1  2  2  0  0  0  0
  1  3  1  0  0  0  0
  2  5  1  0  0  0  0
  3  6  2  0  0  0  0
  4  5  2  0  0  0  0
  4  6  1  0  0  0  0
  5 18  1  0  0  0  0
  6 19  1  0  0  0  0
  7 12  1  0  0  0  0
  7 13  1  0  0  0  0
  7 15  2  0  0  0  0
  8 10  1  0  0  0  0
  8 13  1  0  0  0  0
  9 11  1  0  0  0  0
  9 13  1  0  0  0  0
 10 14  1  0  0  0  0
 11 14  1  0  0  0  0
 12 20  1  0  0  0  0
 14 19  1  0  0  0  0
 16 19  2  0  0  0  0
 17 19  2  0  0  0  0
M  END
> <ref_mols>
x0691_0

> <original SMILES>
Fc1cccc(c1)S(=O)(=O)N2CCN(CC2)C(=O)CCl

> <Chemgauss4>
-8.249612

> <ref_pdb>
x0830_0

> <CYS145-warhead dist minimum (A)>
3.8333807

> <CYS145-warhead dist mean (A)>
5.2726836

> <CYS145-warhead dist stddev (A)>
0.4465003

$$$$
x1466
  -OEChem-05172015543D

 20 21  0     0  0  0  0  0  0999 V2000
   12.9678    0.0977   22.8564 C   0  0  0  0  0  0  0  0  0  0  0  0
   12.7698    1.2568   23.6065 C   0  0  0  0  0  0  0  0  0  0  0  0
   12.0733   -0.9668   22.9682 C   0  0  0  0  0  0  0  0  0  0  0  0
   10.7827    0.2871   24.5803 C   0  0  0  0  0  0  0  0  0  0  0  0
   11.6773    1.3516   24.4685 C   0  0  0  0  0  0  0  0  0  0  0  0
   10.9807   -0.8720   23.8302 C   0  0  0  0  0  0  0  0  0  0  0  0
    6.2744   -2.1505   19.3796 C   0  0  0  0  0  0  0  0  0  0  0  0
    8.2833   -1.0126   20.4477 C   0  0  0  0  0  0  0  0  0  0  0  0
    6.4404   -1.8804   21.8341 C   0  0  0  0  0  0  0  0  0  0  0  0
    9.2962   -1.6887   21.3669 C   0  0  0  0  0  0  0  0  0  0  0  0
    7.4459   -2.5616   22.7555 C   0  0  0  0  0  0  0  0  0  0  0  0
    6.4347   -1.3480   18.1132 C   0  0  0  0  0  0  0  0  0  0  0  0
    6.9948   -1.7137   20.4900 N   0  0  0  0  0  0  0  0  0  0  0  0
    8.7272   -1.7930   22.7447 N   0  0  0  0  0  0  0  0  0  0  0  0
    5.5332   -3.1366   19.3794 O   0  0  0  0  0  0  0  0  0  0  0  0
   10.5418   -3.4246   23.5756 O   0  0  0  0  0  0  0  0  0  0  0  0
    9.1941   -2.1194   25.2571 O   0  0  0  0  0  0  0  0  0  0  0  0
   11.4875    2.4648   25.1890 F   0  0  0  0  0  0  0  0  0  0  0  0
    9.8473   -2.2180   23.9697 S   0  0  0  0  0  0  0  0  0  0  0  0
    5.8646    0.2781   18.4715 Cl  0  0  0  0  0  0  0  0  0  0  0  0
  1  2  2  0  0  0  0
  1  3  1  0  0  0  0
  2  5  1  0  0  0  0
  3  6  2  0  0  0  0
  4  5  2  0  0  0  0
  4  6  1  0  0  0  0
  5 18  1  0  0  0  0
  6 19  1  0  0  0  0
  7 12  1  0  0  0  0
  7 13  1  0  0  0  0
  7 15  2  0  0  0  0
  8 10  1  0  0  0  0
  8 13  1  0  0  0  0
  9 11  1  0  0  0  0
  9 13  1  0  0  0  0
 10 14  1  0  0  0  0
 11 14  1  0  0  0  0
 12 20  1  0  0  0  0
 14 19  1  0  0  0  0
 16 19  2  0  0  0  0
 17 19  2  0  0  0  0
M  END
> <ref_mols>
x1466_0

> <original SMILES>
Fc1cccc(c1)S(=O)(=O)N2CCN(CC2)C(=O)CCl

> <Chemgauss4>
-8.249612

> <ref_pdb>
x0830_0

$$$$
x2791
  -OEChem-05172015543D

 20 21  0     0  0  0  0  0  0999 V2000
   12.9678    0.0977   22.8564 C   0  0  0  0  0  0  0  0  0  0  0  0
   12.7698    1.2568   23.6065 C   0  0  0  0  0  0  0  0  0  0  0  0
   12.0733   -0.9668   22.9682 C   0  0  0  0  0  0  0  0  0  0  0  0
   10.7827    0.2871   24.5803 C   0  0  0  0  0  0  0  0  0  0  0  0
   11.6773    1.3516   24.4685 C   0  0  0  0  0  0  0  0  0  0  0  0
   10.9807   -0.8720   23.8302 C   0  0  0  0  0  0  0  0  0  0  0  0
    6.2744   -2.1505   19.3796 C   0  0  0  0  0  0  0  0  0  0  0  0
    8.2833   -1.0126   20.4477 C   0  0  0  0  0  0  0  0  0  0  0  0
    6.4404   -1.8804   21.8341 C   0  0  0  0  0  0  0  0  0  0  0  0
    9.2962   -1.6887   21.3669 C   0  0  0  0  0  0  0  0  0  0  0  0
    7.4459   -2.5616   22.7555 C   0  0  0  0  0  0  0  0  0  0  0  0
    6.4347   -1.3480   18.1132 C   0  0  0  0  0  0  0  0  0  0  0  0
    6.9948   -1.7137   20.4900 N   0  0  0  0  0  0  0  0  0  0  0  0
    8.7272   -1.7930   22.7447 N   0  0  0  0  0  0  0  0  0  0  0  0
    5.5332   -3.1366   19.3794 O   0  0  0  0  0  0  0  0  0  0  0  0
   10.5418   -3.4246   23.5756 O   0  0  0  0  0  0  0  0  0  0  0  0
    9.1941   -2.1194   25.2571 O   0  0  0  0  0  0  0  0  0  0  0  0
   11.4875    2.4648   25.1890 F   0  0  0  0  0  0  0  0  0  0  0  0
    9.8473   -2.2180   23.9697 S   0  0  0  0  0  0  0  0  0  0  0  0
    5.8646    0.2781   18.4715 Cl  0  0  0  0  0  0  0  0  0  0  0  0
  1  2  2  0  0  0  0
  1  3  1  0  0  0  0
  2  5  1  0  0  0  0
  3  6  2  0  0  0  0
  4  5  2  0  0  0  0
  4  6  1  0  0  0  0
  5 18  1  0  0  0  0
  6 19  1  0  0  0  0
  7 12  1  0  0  0  0
  7 13  1  0  0  0  0
  7 15  2  0  0  0  0
  8 10  1  0  0  0  0
  8 13  1  0  0  0  0
  9 11  1  0  0  0  0
  9 13  1  0  0  0  0
 10 14  1  0  0  0  0
 11 14  1  0  0  0  0
 12 20  1  0  0  0  0
 14 19  1  0  0  0  0
 16 19  2  0  0  0  0
 17 19  2  0  0  0  0
M  END
> <ref_mols>
x2791_0

> <original SMILES>
FC=1C=CC=C(C1)S(=O)(=O)N2CCN(CC2)C(=O)CCl

> <Chemgauss4>
-8.249612

> <ref_pdb>
x0830_0

> <CYS145-warhead dist minimum (A)>
8.026757

> <CYS145-warhead dist mean (A)>
8.715711

> <CYS145-warhead dist stddev (A)>
0.23810796

$$$$
x0765
  -OEChem-05172015543D

 20 21  0     0  0  0  0  0  0999 V2000
   12.9678    0.0977   22.8564 C   0  0  0  0  0  0  0  0  0  0  0  0
   12.7698    1.2568   23.6065 C   0  0  0  0  0  0  0  0  0  0  0  0
   12.0733   -0.9668   22.9682 C   0  0  0  0  0  0  0  0  0  0  0  0
   10.7827    0.2871   24.5803 C   0  0  0  0  0  0  0  0  0  0  0  0
   11.6773    1.3516   24.4685 C   0  0  0  0  0  0  0  0  0  0  0  0
   10.9807   -0.8720   23.8302 C   0  0  0  0  0  0  0  0  0  0  0  0
    6.2744   -2.1505   19.3796 C   0  0  0  0  0  0  0  0  0  0  0  0
    8.2833   -1.0126   20.4477 C   0  0  0  0  0  0  0  0  0  0  0  0
    6.4404   -1.8804   21.8341 C   0  0  0  0  0  0  0  0  0  0  0  0
    9.2962   -1.6887   21.3669 C   0  0  0  0  0  0  0  0  0  0  0  0
    7.4459   -2.5616   22.7555 C   0  0  0  0  0  0  0  0  0  0  0  0
    6.4347   -1.3480   18.1132 C   0  0  0  0  0  0  0  0  0  0  0  0
    6.9948   -1.7137   20.4900 N   0  0  0  0  0  0  0  0  0  0  0  0
    8.7272   -1.7930   22.7447 N   0  0  0  0  0  0  0  0  0  0  0  0
    5.5332   -3.1366   19.3794 O   0  0  0  0  0  0  0  0  0  0  0  0
   10.5418   -3.4246   23.5756 O   0  0  0  0  0  0  0  0  0  0  0  0
    9.1941   -2.1194   25.2571 O   0  0  0  0  0  0  0  0  0  0  0  0
   11.4875    2.4648   25.1890 F   0  0  0  0  0  0  0  0  0  0  0  0
    9.8473   -2.2180   23.9697 S   0  0  0  0  0  0  0  0  0  0  0  0
    5.8646    0.2781   18.4715 Cl  0  0  0  0  0  0  0  0  0  0  0  0
  1  2  2  0  0  0  0
  1  3  1  0  0  0  0
  2  5  1  0  0  0  0
  3  6  2  0  0  0  0
  4  5  2  0  0  0  0
  4  6  1  0  0  0  0
  5 18  1  0  0  0  0
  6 19  1  0  0  0  0
  7 12  1  0  0  0  0
  7 13  1  0  0  0  0
  7 15  2  0  0  0  0
  8 10  1  0  0  0  0
  8 13  1  0  0  0  0
  9 11  1  0  0  0  0
  9 13  1  0  0  0  0
 10 14  1  0  0  0  0
 11 14  1  0  0  0  0
 12 20  1  0  0  0  0
 14 19  1  0  0  0  0
 16 19  2  0  0  0  0
 17 19  2  0  0  0  0
M  END
> <ref_mols>
x0765_0

> <original SMILES>
Fc1cccc(c1)S(=O)(=O)N2CCN(CC2)C(=O)CCl

> <Chemgauss4>
-8.249612

> <ref_pdb>
x0830_0

$$$$
x2556
  -OEChem-05172015543D

 21 22  0     0  0  0  0  0  0999 V2000
   11.6262    2.3089   25.2401 C   0  0  0  0  0  0  0  0  0  0  0  0
   10.4493    1.5828   25.4224 C   0  0  0  0  0  0  0  0  0  0  0  0
   12.5674    1.8872   24.3009 C   0  0  0  0  0  0  0  0  0  0  0  0
   10.2136    0.4350   24.6657 C   0  0  0  0  0  0  0  0  0  0  0  0
   12.3318    0.7395   23.5441 C   0  0  0  0  0  0  0  0  0  0  0  0
   11.1549    0.0133   23.7265 C   0  0  0  0  0  0  0  0  0  0  0  0
    6.3412   -0.9278   19.1370 C   0  0  0  0  0  0  0  0  0  0  0  0
    8.2653    0.3297   20.2271 C   0  0  0  0  0  0  0  0  0  0  0  0
    7.0395   -1.4160   21.4606 C   0  0  0  0  0  0  0  0  0  0  0  0
    9.5900   -0.2887   20.6638 C   0  0  0  0  0  0  0  0  0  0  0  0
    8.3589   -2.0418   21.8986 C   0  0  0  0  0  0  0  0  0  0  0  0
    6.0166    0.2461   18.2482 C   0  0  0  0  0  0  0  0  0  0  0  0
    7.2023   -0.6819   20.2050 N   0  0  0  0  0  0  0  0  0  0  0  0
    9.4085   -0.9812   21.9755 N   0  0  0  0  0  0  0  0  0  0  0  0
    5.8460   -2.0295   18.8866 O   0  0  0  0  0  0  0  0  0  0  0  0
   11.9162   -1.5493   21.7895 O   0  0  0  0  0  0  0  0  0  0  0  0
   10.5682   -2.5241   23.6817 O   0  0  0  0  0  0  0  0  0  0  0  0
    9.0793   -0.2548   24.8505 F   0  0  0  0  0  0  0  0  0  0  0  0
   13.2434    0.3448   22.6443 F   0  0  0  0  0  0  0  0  0  0  0  0
   10.8566   -1.4392   22.7687 S   0  0  0  0  0  0  0  0  0  0  0  0
    5.2231    1.4437   19.2651 Cl  0  0  0  0  0  0  0  0  0  0  0  0
  1  2  2  0  0  0  0
  1  3  1  0  0  0  0
  2  4  1  0  0  0  0
  3  5  2  0  0  0  0
  4  6  2  0  0  0  0
  4 18  1  0  0  0  0
  5  6  1  0  0  0  0
  5 19  1  0  0  0  0
  6 20  1  0  0  0  0
  7 12  1  0  0  0  0
  7 13  1  0  0  0  0
  7 15  2  0  0  0  0
  8 10  1  0  0  0  0
  8 13  1  0  0  0  0
  9 11  1  0  0  0  0
  9 13  1  0  0  0  0
 10 14  1  0  0  0  0
 11 14  1  0  0  0  0
 12 21  1  0  0  0  0
 14 20  1  0  0  0  0
 16 20  2  0  0  0  0
 17 20  2  0  0  0  0
M  END
> <ref_mols>
x2556_0

> <original SMILES>
FC=1C=CC=C(F)C1S(=O)(=O)N2CCN(CC2)C(=O)CCl

> <Chemgauss4>
-8.249490

> <ref_pdb>
x0830_0

$$$$
x0829
  -OEChem-05172015543D

 21 22  0     0  0  0  0  0  0999 V2000
   11.6262    2.3089   25.2401 C   0  0  0  0  0  0  0  0  0  0  0  0
   10.4493    1.5828   25.4224 C   0  0  0  0  0  0  0  0  0  0  0  0
   12.5674    1.8872   24.3009 C   0  0  0  0  0  0  0  0  0  0  0  0
   10.2136    0.4350   24.6657 C   0  0  0  0  0  0  0  0  0  0  0  0
   12.3318    0.7395   23.5441 C   0  0  0  0  0  0  0  0  0  0  0  0
   11.1549    0.0133   23.7265 C   0  0  0  0  0  0  0  0  0  0  0  0
    6.3412   -0.9278   19.1370 C   0  0  0  0  0  0  0  0  0  0  0  0
    8.2653    0.3297   20.2271 C   0  0  0  0  0  0  0  0  0  0  0  0
    7.0395   -1.4160   21.4606 C   0  0  0  0  0  0  0  0  0  0  0  0
    9.5900   -0.2887   20.6638 C   0  0  0  0  0  0  0  0  0  0  0  0
    8.3589   -2.0418   21.8986 C   0  0  0  0  0  0  0  0  0  0  0  0
    6.0166    0.2461   18.2482 C   0  0  0  0  0  0  0  0  0  0  0  0
    7.2023   -0.6819   20.2050 N   0  0  0  0  0  0  0  0  0  0  0  0
    9.4085   -0.9812   21.9755 N   0  0  0  0  0  0  0  0  0  0  0  0
    5.8460   -2.0295   18.8866 O   0  0  0  0  0  0  0  0  0  0  0  0
   11.9162   -1.5493   21.7895 O   0  0  0  0  0  0  0  0  0  0  0  0
   10.5682   -2.5241   23.6817 O   0  0  0  0  0  0  0  0  0  0  0  0
    9.0793   -0.2548   24.8505 F   0  0  0  0  0  0  0  0  0  0  0  0
   13.2434    0.3448   22.6443 F   0  0  0  0  0  0  0  0  0  0  0  0
   10.8566   -1.4392   22.7687 S   0  0  0  0  0  0  0  0  0  0  0  0
    5.2231    1.4437   19.2651 Cl  0  0  0  0  0  0  0  0  0  0  0  0
  1  2  2  0  0  0  0
  1  3  1  0  0  0  0
  2  4  1  0  0  0  0
  3  5  2  0  0  0  0
  4  6  2  0  0  0  0
  4 18  1  0  0  0  0
  5  6  1  0  0  0  0
  5 19  1  0  0  0  0
  6 20  1  0  0  0  0
  7 12  1  0  0  0  0
  7 13  1  0  0  0  0
  7 15  2  0  0  0  0
  8 10  1  0  0  0  0
  8 13  1  0  0  0  0
  9 11  1  0  0  0  0
  9 13  1  0  0  0  0
 10 14  1  0  0  0  0
 11 14  1  0  0  0  0
 12 21  1  0  0  0  0
 14 20  1  0  0  0  0
 16 20  2  0  0  0  0
 17 20  2  0  0  0  0
M  END
> <ref_mols>
x0829_0

> <original SMILES>
Fc1cccc(F)c1S(=O)(=O)N2CCN(CC2)C(=O)CCl

> <Chemgauss4>
-8.249490

> <ref_pdb>
x0830_0

$$$$
x0755
  -OEChem-05172015543D

 21 22  0     0  0  0  0  0  0999 V2000
   11.6262    2.3089   25.2401 C   0  0  0  0  0  0  0  0  0  0  0  0
   10.4493    1.5828   25.4224 C   0  0  0  0  0  0  0  0  0  0  0  0
   12.5674    1.8872   24.3009 C   0  0  0  0  0  0  0  0  0  0  0  0
   10.2136    0.4350   24.6657 C   0  0  0  0  0  0  0  0  0  0  0  0
   12.3318    0.7395   23.5441 C   0  0  0  0  0  0  0  0  0  0  0  0
   11.1549    0.0133   23.7265 C   0  0  0  0  0  0  0  0  0  0  0  0
    6.3412   -0.9278   19.1370 C   0  0  0  0  0  0  0  0  0  0  0  0
    8.2653    0.3297   20.2271 C   0  0  0  0  0  0  0  0  0  0  0  0
    7.0395   -1.4160   21.4606 C   0  0  0  0  0  0  0  0  0  0  0  0
    9.5900   -0.2887   20.6638 C   0  0  0  0  0  0  0  0  0  0  0  0
    8.3589   -2.0418   21.8986 C   0  0  0  0  0  0  0  0  0  0  0  0
    6.0166    0.2461   18.2482 C   0  0  0  0  0  0  0  0  0  0  0  0
    7.2023   -0.6819   20.2050 N   0  0  0  0  0  0  0  0  0  0  0  0
    9.4085   -0.9812   21.9755 N   0  0  0  0  0  0  0  0  0  0  0  0
    5.8460   -2.0295   18.8866 O   0  0  0  0  0  0  0  0  0  0  0  0
   11.9162   -1.5493   21.7895 O   0  0  0  0  0  0  0  0  0  0  0  0
   10.5682   -2.5241   23.6817 O   0  0  0  0  0  0  0  0  0  0  0  0
    9.0793   -0.2548   24.8505 F   0  0  0  0  0  0  0  0  0  0  0  0
   13.2434    0.3448   22.6443 F   0  0  0  0  0  0  0  0  0  0  0  0
   10.8566   -1.4392   22.7687 S   0  0  0  0  0  0  0  0  0  0  0  0
    5.2231    1.4437   19.2651 Cl  0  0  0  0  0  0  0  0  0  0  0  0
  1  2  2  0  0  0  0
  1  3  1  0  0  0  0
  2  4  1  0  0  0  0
  3  5  2  0  0  0  0
  4  6  2  0  0  0  0
  4 18  1  0  0  0  0
  5  6  1  0  0  0  0
  5 19  1  0  0  0  0
  6 20  1  0  0  0  0
  7 12  1  0  0  0  0
  7 13  1  0  0  0  0
  7 15  2  0  0  0  0
  8 10  1  0  0  0  0
  8 13  1  0  0  0  0
  9 11  1  0  0  0  0
  9 13  1  0  0  0  0
 10 14  1  0  0  0  0
 11 14  1  0  0  0  0
 12 21  1  0  0  0  0
 14 20  1  0  0  0  0
 16 20  2  0  0  0  0
 17 20  2  0  0  0  0
M  END
> <ref_mols>
x0755_0

> <original SMILES>
Fc1cccc(F)c1S(=O)(=O)N2CCN(CC2)C(=O)CCl

> <Chemgauss4>
-8.249490

> <ref_pdb>
x0830_0

$$$$
x1484
  -OEChem-05172015543D

 21 22  0     0  0  0  0  0  0999 V2000
   11.6262    2.3089   25.2401 C   0  0  0  0  0  0  0  0  0  0  0  0
   10.4493    1.5828   25.4224 C   0  0  0  0  0  0  0  0  0  0  0  0
   12.5674    1.8872   24.3009 C   0  0  0  0  0  0  0  0  0  0  0  0
   10.2136    0.4350   24.6657 C   0  0  0  0  0  0  0  0  0  0  0  0
   12.3318    0.7395   23.5441 C   0  0  0  0  0  0  0  0  0  0  0  0
   11.1549    0.0133   23.7265 C   0  0  0  0  0  0  0  0  0  0  0  0
    6.3412   -0.9278   19.1370 C   0  0  0  0  0  0  0  0  0  0  0  0
    8.2653    0.3297   20.2271 C   0  0  0  0  0  0  0  0  0  0  0  0
    7.0395   -1.4160   21.4606 C   0  0  0  0  0  0  0  0  0  0  0  0
    9.5900   -0.2887   20.6638 C   0  0  0  0  0  0  0  0  0  0  0  0
    8.3589   -2.0418   21.8986 C   0  0  0  0  0  0  0  0  0  0  0  0
    6.0166    0.2461   18.2482 C   0  0  0  0  0  0  0  0  0  0  0  0
    7.2023   -0.6819   20.2050 N   0  0  0  0  0  0  0  0  0  0  0  0
    9.4085   -0.9812   21.9755 N   0  0  0  0  0  0  0  0  0  0  0  0
    5.8460   -2.0295   18.8866 O   0  0  0  0  0  0  0  0  0  0  0  0
   11.9162   -1.5493   21.7895 O   0  0  0  0  0  0  0  0  0  0  0  0
   10.5682   -2.5241   23.6817 O   0  0  0  0  0  0  0  0  0  0  0  0
    9.0793   -0.2548   24.8505 F   0  0  0  0  0  0  0  0  0  0  0  0
   13.2434    0.3448   22.6443 F   0  0  0  0  0  0  0  0  0  0  0  0
   10.8566   -1.4392   22.7687 S   0  0  0  0  0  0  0  0  0  0  0  0
    5.2231    1.4437   19.2651 Cl  0  0  0  0  0  0  0  0  0  0  0  0
  1  2  2  0  0  0  0
  1  3  1  0  0  0  0
  2  4  1  0  0  0  0
  3  5  2  0  0  0  0
  4  6  2  0  0  0  0
  4 18  1  0  0  0  0
  5  6  1  0  0  0  0
  5 19  1  0  0  0  0
  6 20  1  0  0  0  0
  7 12  1  0  0  0  0
  7 13  1  0  0  0  0
  7 15  2  0  0  0  0
  8 10  1  0  0  0  0
  8 13  1  0  0  0  0
  9 11  1  0  0  0  0
  9 13  1  0  0  0  0
 10 14  1  0  0  0  0
 11 14  1  0  0  0  0
 12 21  1  0  0  0  0
 14 20  1  0  0  0  0
 16 20  2  0  0  0  0
 17 20  2  0  0  0  0
M  END
> <ref_mols>
x1484_0

> <original SMILES>
Fc1cccc(F)c1S(=O)(=O)N2CCN(CC2)C(=O)CCl

> <Chemgauss4>
-8.249490

> <ref_pdb>
x0830_0

$$$$
x1411
  -OEChem-05172015543D

 21 22  0     0  0  0  0  0  0999 V2000
   11.6262    2.3089   25.2401 C   0  0  0  0  0  0  0  0  0  0  0  0
   10.4493    1.5828   25.4224 C   0  0  0  0  0  0  0  0  0  0  0  0
   12.5674    1.8872   24.3009 C   0  0  0  0  0  0  0  0  0  0  0  0
   10.2136    0.4350   24.6657 C   0  0  0  0  0  0  0  0  0  0  0  0
   12.3318    0.7395   23.5441 C   0  0  0  0  0  0  0  0  0  0  0  0
   11.1549    0.0133   23.7265 C   0  0  0  0  0  0  0  0  0  0  0  0
    6.3412   -0.9278   19.1370 C   0  0  0  0  0  0  0  0  0  0  0  0
    8.2653    0.3297   20.2271 C   0  0  0  0  0  0  0  0  0  0  0  0
    7.0395   -1.4160   21.4606 C   0  0  0  0  0  0  0  0  0  0  0  0
    9.5900   -0.2887   20.6638 C   0  0  0  0  0  0  0  0  0  0  0  0
    8.3589   -2.0418   21.8986 C   0  0  0  0  0  0  0  0  0  0  0  0
    6.0166    0.2461   18.2482 C   0  0  0  0  0  0  0  0  0  0  0  0
    7.2023   -0.6819   20.2050 N   0  0  0  0  0  0  0  0  0  0  0  0
    9.4085   -0.9812   21.9755 N   0  0  0  0  0  0  0  0  0  0  0  0
    5.8460   -2.0295   18.8866 O   0  0  0  0  0  0  0  0  0  0  0  0
   11.9162   -1.5493   21.7895 O   0  0  0  0  0  0  0  0  0  0  0  0
   10.5682   -2.5241   23.6817 O   0  0  0  0  0  0  0  0  0  0  0  0
    9.0793   -0.2548   24.8505 F   0  0  0  0  0  0  0  0  0  0  0  0
   13.2434    0.3448   22.6443 F   0  0  0  0  0  0  0  0  0  0  0  0
   10.8566   -1.4392   22.7687 S   0  0  0  0  0  0  0  0  0  0  0  0
    5.2231    1.4437   19.2651 Cl  0  0  0  0  0  0  0  0  0  0  0  0
  1  2  2  0  0  0  0
  1  3  1  0  0  0  0
  2  4  1  0  0  0  0
  3  5  2  0  0  0  0
  4  6  2  0  0  0  0
  4 18  1  0  0  0  0
  5  6  1  0  0  0  0
  5 19  1  0  0  0  0
  6 20  1  0  0  0  0
  7 12  1  0  0  0  0
  7 13  1  0  0  0  0
  7 15  2  0  0  0  0
  8 10  1  0  0  0  0
  8 13  1  0  0  0  0
  9 11  1  0  0  0  0
  9 13  1  0  0  0  0
 10 14  1  0  0  0  0
 11 14  1  0  0  0  0
 12 21  1  0  0  0  0
 14 20  1  0  0  0  0
 16 20  2  0  0  0  0
 17 20  2  0  0  0  0
M  END
> <ref_mols>
x1411_0

> <original SMILES>
Fc1cccc(F)c1S(=O)(=O)N2CCN(CC2)C(=O)CCl

> <Chemgauss4>
-8.249490

> <ref_pdb>
x0830_0

$$$$
x0772
  -OEChem-05172015543D

 18 19  0     0  0  0  0  0  0999 V2000
   11.9686   -0.2210   24.7169 C   0  0  0  0  0  0  0  0  0  0  0  0
   12.8694   -0.3056   25.8176 C   0  0  0  0  0  0  0  0  0  0  0  0
   12.0779   -1.3051   23.8742 C   0  0  0  0  0  0  0  0  0  0  0  0
   13.6329   -1.4515   25.7743 C   0  0  0  0  0  0  0  0  0  0  0  0
    6.6669   -4.5527   22.0424 C   0  0  0  0  0  0  0  0  0  0  0  0
    8.4082   -3.8477   23.6523 C   0  0  0  0  0  0  0  0  0  0  0  0
    7.5781   -2.1783   22.0407 C   0  0  0  0  0  0  0  0  0  0  0  0
    9.8478   -3.4870   23.3158 C   0  0  0  0  0  0  0  0  0  0  0  0
    9.0062   -1.7909   21.6810 C   0  0  0  0  0  0  0  0  0  0  0  0
   11.3131   -1.5903   22.6154 C   0  0  0  0  0  0  0  0  0  0  0  0
    7.1418   -5.9770   22.1818 C   0  0  0  0  0  0  0  0  0  0  0  0
    7.5177   -3.5606   22.5277 N   0  0  0  0  0  0  0  0  0  0  0  0
    9.9031   -2.0421   22.8725 N   0  3  0  0  0  0  0  0  0  0  0  0
    5.5715   -4.3307   21.5200 O   0  0  0  0  0  0  0  0  0  0  0  0
   13.2628   -2.4190   24.4107 S   0  0  0  0  0  0  0  0  0  0  0  0
   14.8348   -1.9558   26.8871 Cl  0  0  0  0  0  0  0  0  0  0  0  0
    6.5869   -6.5414   23.7539 Cl  0  0  0  0  0  0  0  0  0  0  0  0
    9.5489   -1.4677   23.6499 H   0  0  0  0  0  0  0  0  0  0  0  0
  1  2  1  0  0  0  0
  1  3  2  0  0  0  0
  2  4  2  0  0  0  0
  3 10  1  0  0  0  0
  3 15  1  0  0  0  0
  4 15  1  0  0  0  0
  4 16  1  0  0  0  0
  5 11  1  0  0  0  0
  5 12  1  0  0  0  0
  5 14  2  0  0  0  0
  6  8  1  0  0  0  0
  6 12  1  0  0  0  0
  7  9  1  0  0  0  0
  7 12  1  0  0  0  0
  8 13  1  0  0  0  0
  9 13  1  0  0  0  0
 10 13  1  0  0  0  0
 11 17  1  0  0  0  0
 13 18  1  0  0  0  0
M  CHG  1  13   1
M  END
> <ref_mols>
x0772_0

> <original SMILES>
ClCC(=O)N1CCN(Cc2ccc(Cl)s2)CC1

> <Chemgauss4>
-8.249142

> <ref_pdb>
x0749_0

$$$$
x1438
  -OEChem-05172015543D

 18 19  0     0  0  0  0  0  0999 V2000
   11.9686   -0.2210   24.7169 C   0  0  0  0  0  0  0  0  0  0  0  0
   12.8694   -0.3056   25.8176 C   0  0  0  0  0  0  0  0  0  0  0  0
   12.0779   -1.3051   23.8742 C   0  0  0  0  0  0  0  0  0  0  0  0
   13.6329   -1.4515   25.7743 C   0  0  0  0  0  0  0  0  0  0  0  0
    6.6669   -4.5527   22.0424 C   0  0  0  0  0  0  0  0  0  0  0  0
    8.4082   -3.8477   23.6523 C   0  0  0  0  0  0  0  0  0  0  0  0
    7.5781   -2.1783   22.0407 C   0  0  0  0  0  0  0  0  0  0  0  0
    9.8478   -3.4870   23.3158 C   0  0  0  0  0  0  0  0  0  0  0  0
    9.0062   -1.7909   21.6810 C   0  0  0  0  0  0  0  0  0  0  0  0
   11.3131   -1.5903   22.6154 C   0  0  0  0  0  0  0  0  0  0  0  0
    7.1418   -5.9770   22.1818 C   0  0  0  0  0  0  0  0  0  0  0  0
    7.5177   -3.5606   22.5277 N   0  0  0  0  0  0  0  0  0  0  0  0
    9.9031   -2.0421   22.8725 N   0  3  0  0  0  0  0  0  0  0  0  0
    5.5715   -4.3307   21.5200 O   0  0  0  0  0  0  0  0  0  0  0  0
   13.2628   -2.4190   24.4107 S   0  0  0  0  0  0  0  0  0  0  0  0
   14.8348   -1.9558   26.8871 Cl  0  0  0  0  0  0  0  0  0  0  0  0
    6.5869   -6.5414   23.7539 Cl  0  0  0  0  0  0  0  0  0  0  0  0
    9.5489   -1.4677   23.6499 H   0  0  0  0  0  0  0  0  0  0  0  0
  1  2  1  0  0  0  0
  1  3  2  0  0  0  0
  2  4  2  0  0  0  0
  3 10  1  0  0  0  0
  3 15  1  0  0  0  0
  4 15  1  0  0  0  0
  4 16  1  0  0  0  0
  5 11  1  0  0  0  0
  5 12  1  0  0  0  0
  5 14  2  0  0  0  0
  6  8  1  0  0  0  0
  6 12  1  0  0  0  0
  7  9  1  0  0  0  0
  7 12  1  0  0  0  0
  8 13  1  0  0  0  0
  9 13  1  0  0  0  0
 10 13  1  0  0  0  0
 11 17  1  0  0  0  0
 13 18  1  0  0  0  0
M  CHG  1  13   1
M  END
> <ref_mols>
x1438_0

> <original SMILES>
ClCC(=O)N1CCN(Cc2ccc(Cl)s2)CC1

> <Chemgauss4>
-8.249142

> <ref_pdb>
x0749_0

$$$$
x1334
  -OEChem-05172015543D

 18 19  0     0  0  0  0  0  0999 V2000
   11.9686   -0.2210   24.7169 C   0  0  0  0  0  0  0  0  0  0  0  0
   12.8694   -0.3056   25.8176 C   0  0  0  0  0  0  0  0  0  0  0  0
   12.0779   -1.3051   23.8742 C   0  0  0  0  0  0  0  0  0  0  0  0
   13.6329   -1.4515   25.7743 C   0  0  0  0  0  0  0  0  0  0  0  0
    6.6669   -4.5527   22.0424 C   0  0  0  0  0  0  0  0  0  0  0  0
    8.4082   -3.8477   23.6523 C   0  0  0  0  0  0  0  0  0  0  0  0
    7.5781   -2.1783   22.0407 C   0  0  0  0  0  0  0  0  0  0  0  0
    9.8478   -3.4870   23.3158 C   0  0  0  0  0  0  0  0  0  0  0  0
    9.0062   -1.7909   21.6810 C   0  0  0  0  0  0  0  0  0  0  0  0
   11.3131   -1.5903   22.6154 C   0  0  0  0  0  0  0  0  0  0  0  0
    7.1418   -5.9770   22.1818 C   0  0  0  0  0  0  0  0  0  0  0  0
    7.5177   -3.5606   22.5277 N   0  0  0  0  0  0  0  0  0  0  0  0
    9.9031   -2.0421   22.8725 N   0  3  0  0  0  0  0  0  0  0  0  0
    5.5715   -4.3307   21.5200 O   0  0  0  0  0  0  0  0  0  0  0  0
   13.2628   -2.4190   24.4107 S   0  0  0  0  0  0  0  0  0  0  0  0
   14.8348   -1.9558   26.8871 Cl  0  0  0  0  0  0  0  0  0  0  0  0
    6.5869   -6.5414   23.7539 Cl  0  0  0  0  0  0  0  0  0  0  0  0
    9.5489   -1.4677   23.6499 H   0  0  0  0  0  0  0  0  0  0  0  0
  1  2  1  0  0  0  0
  1  3  2  0  0  0  0
  2  4  2  0  0  0  0
  3 10  1  0  0  0  0
  3 15  1  0  0  0  0
  4 15  1  0  0  0  0
  4 16  1  0  0  0  0
  5 11  1  0  0  0  0
  5 12  1  0  0  0  0
  5 14  2  0  0  0  0
  6  8  1  0  0  0  0
  6 12  1  0  0  0  0
  7  9  1  0  0  0  0
  7 12  1  0  0  0  0
  8 13  1  0  0  0  0
  9 13  1  0  0  0  0
 10 13  1  0  0  0  0
 11 17  1  0  0  0  0
 13 18  1  0  0  0  0
M  CHG  1  13   1
M  END
> <ref_mols>
x1334_0

> <original SMILES>
ClCC(=O)N1CCN(Cc2ccc(Cl)s2)CC1

> <Chemgauss4>
-8.249142

> <ref_pdb>
x0749_0

> <CYS145-warhead dist minimum (A)>
9.487189

> <CYS145-warhead dist mean (A)>
10.767603

> <CYS145-warhead dist stddev (A)>
0.39414605

$$$$
x1489
  -OEChem-05172015543D

 18 19  0     0  0  0  0  0  0999 V2000
   11.9686   -0.2210   24.7169 C   0  0  0  0  0  0  0  0  0  0  0  0
   12.8694   -0.3056   25.8176 C   0  0  0  0  0  0  0  0  0  0  0  0
   12.0779   -1.3051   23.8742 C   0  0  0  0  0  0  0  0  0  0  0  0
   13.6329   -1.4515   25.7743 C   0  0  0  0  0  0  0  0  0  0  0  0
    6.6669   -4.5527   22.0424 C   0  0  0  0  0  0  0  0  0  0  0  0
    8.4082   -3.8477   23.6523 C   0  0  0  0  0  0  0  0  0  0  0  0
    7.5781   -2.1783   22.0407 C   0  0  0  0  0  0  0  0  0  0  0  0
    9.8478   -3.4870   23.3158 C   0  0  0  0  0  0  0  0  0  0  0  0
    9.0062   -1.7909   21.6810 C   0  0  0  0  0  0  0  0  0  0  0  0
   11.3131   -1.5903   22.6154 C   0  0  0  0  0  0  0  0  0  0  0  0
    7.1418   -5.9770   22.1818 C   0  0  0  0  0  0  0  0  0  0  0  0
    7.5177   -3.5606   22.5277 N   0  0  0  0  0  0  0  0  0  0  0  0
    9.9031   -2.0421   22.8725 N   0  3  0  0  0  0  0  0  0  0  0  0
    5.5715   -4.3307   21.5200 O   0  0  0  0  0  0  0  0  0  0  0  0
   13.2628   -2.4190   24.4107 S   0  0  0  0  0  0  0  0  0  0  0  0
   14.8348   -1.9558   26.8871 Cl  0  0  0  0  0  0  0  0  0  0  0  0
    6.5869   -6.5414   23.7539 Cl  0  0  0  0  0  0  0  0  0  0  0  0
    9.5489   -1.4677   23.6499 H   0  0  0  0  0  0  0  0  0  0  0  0
  1  2  1  0  0  0  0
  1  3  2  0  0  0  0
  2  4  2  0  0  0  0
  3 10  1  0  0  0  0
  3 15  1  0  0  0  0
  4 15  1  0  0  0  0
  4 16  1  0  0  0  0
  5 11  1  0  0  0  0
  5 12  1  0  0  0  0
  5 14  2  0  0  0  0
  6  8  1  0  0  0  0
  6 12  1  0  0  0  0
  7  9  1  0  0  0  0
  7 12  1  0  0  0  0
  8 13  1  0  0  0  0
  9 13  1  0  0  0  0
 10 13  1  0  0  0  0
 11 17  1  0  0  0  0
 13 18  1  0  0  0  0
M  CHG  1  13   1
M  END
> <ref_mols>
x1489_0

> <original SMILES>
ClCC(=O)N1CCN(Cc2ccc(Cl)s2)CC1

> <Chemgauss4>
-8.249142

> <ref_pdb>
x0749_0

$$$$
x0698
  -OEChem-05172015543D

 18 19  0     0  0  0  0  0  0999 V2000
   11.9686   -0.2210   24.7169 C   0  0  0  0  0  0  0  0  0  0  0  0
   12.8694   -0.3056   25.8176 C   0  0  0  0  0  0  0  0  0  0  0  0
   12.0779   -1.3051   23.8742 C   0  0  0  0  0  0  0  0  0  0  0  0
   13.6329   -1.4515   25.7743 C   0  0  0  0  0  0  0  0  0  0  0  0
    6.6669   -4.5527   22.0424 C   0  0  0  0  0  0  0  0  0  0  0  0
    8.4082   -3.8477   23.6523 C   0  0  0  0  0  0  0  0  0  0  0  0
    7.5781   -2.1783   22.0407 C   0  0  0  0  0  0  0  0  0  0  0  0
    9.8478   -3.4870   23.3158 C   0  0  0  0  0  0  0  0  0  0  0  0
    9.0062   -1.7909   21.6810 C   0  0  0  0  0  0  0  0  0  0  0  0
   11.3131   -1.5903   22.6154 C   0  0  0  0  0  0  0  0  0  0  0  0
    7.1418   -5.9770   22.1818 C   0  0  0  0  0  0  0  0  0  0  0  0
    7.5177   -3.5606   22.5277 N   0  0  0  0  0  0  0  0  0  0  0  0
    9.9031   -2.0421   22.8725 N   0  3  0  0  0  0  0  0  0  0  0  0
    5.5715   -4.3307   21.5200 O   0  0  0  0  0  0  0  0  0  0  0  0
   13.2628   -2.4190   24.4107 S   0  0  0  0  0  0  0  0  0  0  0  0
   14.8348   -1.9558   26.8871 Cl  0  0  0  0  0  0  0  0  0  0  0  0
    6.5869   -6.5414   23.7539 Cl  0  0  0  0  0  0  0  0  0  0  0  0
    9.5489   -1.4677   23.6499 H   0  0  0  0  0  0  0  0  0  0  0  0
  1  2  1  0  0  0  0
  1  3  2  0  0  0  0
  2  4  2  0  0  0  0
  3 10  1  0  0  0  0
  3 15  1  0  0  0  0
  4 15  1  0  0  0  0
  4 16  1  0  0  0  0
  5 11  1  0  0  0  0
  5 12  1  0  0  0  0
  5 14  2  0  0  0  0
  6  8  1  0  0  0  0
  6 12  1  0  0  0  0
  7  9  1  0  0  0  0
  7 12  1  0  0  0  0
  8 13  1  0  0  0  0
  9 13  1  0  0  0  0
 10 13  1  0  0  0  0
 11 17  1  0  0  0  0
 13 18  1  0  0  0  0
M  CHG  1  13   1
M  END
> <ref_mols>
x0698_0

> <original SMILES>
ClCC(=O)N1CCN(Cc2ccc(Cl)s2)CC1

> <Chemgauss4>
-8.249142

> <ref_pdb>
x0749_0

> <CYS145-warhead dist minimum (A)>
12.499762

> <CYS145-warhead dist mean (A)>
16.628353

> <CYS145-warhead dist stddev (A)>
1.1365628

$$$$
x0616
  -OEChem-05172015543D

 18 18  0     0  0  0  0  0  0999 V2000
   10.7757   -1.7631   23.8999 C   0  0  0  0  0  0  0  0  0  0  0  0
   11.6484   -3.5513   25.2701 C   0  0  0  0  0  0  0  0  0  0  0  0
    9.7741   -2.6122   23.4295 C   0  0  0  0  0  0  0  0  0  0  0  0
   10.6467   -4.4005   24.7998 C   0  0  0  0  0  0  0  0  0  0  0  0
   11.7129   -2.2326   24.8201 C   0  0  0  0  0  0  0  0  0  0  0  0
    9.7096   -3.9309   23.8795 C   0  0  0  0  0  0  0  0  0  0  0  0
   12.7574   -1.3473   25.3104 C   0  0  0  0  0  0  0  0  0  0  0  0
    7.6884   -4.4902   22.4924 C   0  0  0  0  0  0  0  0  0  0  0  0
   14.6482   -1.2119   26.7591 C   0  0  0  0  0  0  0  0  0  0  0  0
    6.8075   -5.6839   22.2488 C   0  0  0  0  0  0  0  0  0  0  0  0
    8.7072   -4.7794   23.4086 N   0  0  0  0  0  0  0  0  0  0  0  0
   12.8915   -0.1652   24.9673 O   0  0  0  0  0  0  0  0  0  0  0  0
    7.4758   -3.4242   21.9246 O   0  0  0  0  0  0  0  0  0  0  0  0
   13.5775   -1.9824   26.2026 O   0  0  0  0  0  0  0  0  0  0  0  0
    7.2017   -6.7636   22.9710 F   0  0  0  0  0  0  0  0  0  0  0  0
    5.5153   -5.4359   22.5828 F   0  0  0  0  0  0  0  0  0  0  0  0
    6.8097   -6.0623   20.9453 F   0  0  0  0  0  0  0  0  0  0  0  0
    8.7178   -5.7361   23.7805 H   0  0  0  0  0  0  0  0  0  0  0  0
  1  3  2  0  0  0  0
  1  5  1  0  0  0  0
  2  4  1  0  0  0  0
  2  5  2  0  0  0  0
  3  6  1  0  0  0  0
  4  6  2  0  0  0  0
  5  7  1  0  0  0  0
  6 11  1  0  0  0  0
  7 12  2  0  0  0  0
  7 14  1  0  0  0  0
  8 10  1  0  0  0  0
  8 11  1  0  0  0  0
  8 13  2  0  0  0  0
  9 14  1  0  0  0  0
 10 15  1  0  0  0  0
 10 16  1  0  0  0  0
 10 17  1  0  0  0  0
 11 18  1  0  0  0  0
M  END
> <ref_mols>
x0616_0

> <original SMILES>
COC(=O)C=1C=CC(NC(=O)C(F)(F)F)=CC1

> <Chemgauss4>
-8.248976

> <ref_pdb>
x0749_0

$$$$
x2860
  -OEChem-05172015543D

 23 24  0     1  0  0  0  0  0999 V2000
    9.6834    3.4402   24.3598 C   0  0  0  0  0  0  0  0  0  0  0  0
   10.8141    2.7543   23.9165 C   0  0  0  0  0  0  0  0  0  0  0  0
   10.7524   -1.9685   22.0600 C   0  0  0  0  0  0  0  0  0  0  0  0
    9.6671    4.8350   24.3546 C   0  0  0  0  0  0  0  0  0  0  0  0
    9.5840   -2.3124   22.7398 C   0  0  0  0  0  0  0  0  0  0  0  0
   11.6627   -1.0379   24.0953 C   0  0  0  0  0  0  0  0  0  0  0  0
   11.9124    4.8579   23.4630 C   0  0  0  0  0  0  0  0  0  0  0  0
   11.7918   -1.3313   22.7378 C   0  0  0  0  0  0  0  0  0  0  0  0
   11.9286    3.4631   23.4682 C   0  0  0  0  0  0  0  0  0  0  0  0
   10.7816    5.5438   23.9062 C   0  0  0  0  0  0  0  0  0  0  0  0
    9.4549   -2.0190   24.0973 C   0  0  0  0  0  0  0  0  0  0  0  0
   10.4942   -1.3817   24.7751 C   0  0  0  0  0  0  0  0  0  0  0  0
   13.6806    0.3198   22.5707 C   0  0  0  0  0  0  0  0  0  0  0  0
   14.0682   -2.1127   22.0113 C   0  0  0  0  0  0  0  0  0  0  0  0
   13.9320    3.4940   21.9261 C   0  0  0  0  0  0  0  0  0  0  0  0
   13.0641   -0.9574   21.9993 C   0  0  1  0  0  0  0  0  0  0  0  0
   13.1549    2.7176   22.9874 C   0  0  2  0  0  0  0  0  0  0  0  0
   12.8117    1.4002   22.5039 N   0  0  0  0  0  0  0  0  0  0  0  0
   14.8168    0.3581   23.0383 O   0  0  0  0  0  0  0  0  0  0  0  0
   10.7663    6.8832   23.9016 F   0  0  0  0  0  0  0  0  0  0  0  0
    8.3323   -2.3485   24.7494 F   0  0  0  0  0  0  0  0  0  0  0  0
   10.3709   -1.1010   26.0789 F   0  0  0  0  0  0  0  0  0  0  0  0
   11.8921    1.2580   22.0963 H   0  0  0  0  0  0  0  0  0  0  0  0
  1  2  2  0  0  0  0
  1  4  1  0  0  0  0
  2  9  1  0  0  0  0
  3  5  2  0  0  0  0
  3  8  1  0  0  0  0
  4 10  2  0  0  0  0
  5 11  1  0  0  0  0
  6  8  2  0  0  0  0
  6 12  1  0  0  0  0
  7  9  2  0  0  0  0
  7 10  1  0  0  0  0
  8 16  1  0  0  0  0
  9 17  1  0  0  0  0
 10 20  1  0  0  0  0
 11 12  2  0  0  0  0
 11 21  1  0  0  0  0
 12 22  1  0  0  0  0
 13 16  1  0  0  0  0
 13 18  1  0  0  0  0
 13 19  2  0  0  0  0
 14 16  1  0  0  0  0
 15 17  1  0  0  0  0
 17 18  1  0  0  0  0
 18 23  1  0  0  0  0
M  END
> <ref_mols>
x2860_0

> <original SMILES>
CC(NC(=O)C(C)C=1C=CC(F)=C(F)C1)C=2C=CC=C(F)C2

> <Chemgauss4>
-8.247419

> <ref_pdb>
x0195_0

$$$$
x0285
  -OEChem-05172015543D

 19 20  0     0  0  0  0  0  0999 V2000
    7.9393   -5.8615   23.2020 C   0  0  0  0  0  0  0  0  0  0  0  0
    7.1371   -5.2282   22.2528 C   0  0  0  0  0  0  0  0  0  0  0  0
    9.0244   -5.1859   23.7607 C   0  0  0  0  0  0  0  0  0  0  0  0
   13.3594   -2.8642   26.2492 C   0  0  0  0  0  0  0  0  0  0  0  0
    8.5051   -3.2438   22.4207 C   0  0  0  0  0  0  0  0  0  0  0  0
   14.0184   -1.6594   26.2733 C   0  0  0  0  0  0  0  0  0  0  0  0
    7.4200   -3.9194   21.8621 C   0  0  0  0  0  0  0  0  0  0  0  0
    9.3072   -3.8771   23.3699 C   0  0  0  0  0  0  0  0  0  0  0  0
   12.3259   -2.6813   25.3109 C   0  0  0  0  0  0  0  0  0  0  0  0
    6.5735   -3.2523   20.8596 C   0  0  0  0  0  0  0  0  0  0  0  0
   11.3104   -3.6633   24.8938 C   0  0  0  0  0  0  0  0  0  0  0  0
   13.6921    0.5091   25.0605 C   0  0  0  0  0  0  0  0  0  0  0  0
   12.3244   -1.4567   24.7776 N   0  0  0  0  0  0  0  0  0  0  0  0
   13.3649   -0.8592   25.3829 N   0  0  0  0  0  0  0  0  0  0  0  0
   10.3920   -3.2011   23.9296 N   0  0  0  0  0  0  0  0  0  0  0  0
    6.8555   -2.0436   20.5160 O   0  5  0  0  0  0  0  0  0  0  0  0
    5.5786   -3.8992   20.3593 O   0  0  0  0  0  0  0  0  0  0  0  0
   11.2721   -4.7853   25.3944 O   0  0  0  0  0  0  0  0  0  0  0  0
   10.5405   -2.2420   23.5956 H   0  0  0  0  0  0  0  0  0  0  0  0
  1  2  1  0  0  0  0
  1  3  2  0  0  0  0
  2  7  2  0  0  0  0
  3  8  1  0  0  0  0
  4  6  2  0  0  0  0
  4  9  1  0  0  0  0
  5  7  1  0  0  0  0
  5  8  2  0  0  0  0
  6 14  1  0  0  0  0
  7 10  1  0  0  0  0
  8 15  1  0  0  0  0
  9 11  1  0  0  0  0
  9 13  2  0  0  0  0
 10 16  1  0  0  0  0
 10 17  2  0  0  0  0
 11 15  1  0  0  0  0
 11 18  2  0  0  0  0
 12 14  1  0  0  0  0
 13 14  1  0  0  0  0
 15 19  1  0  0  0  0
M  CHG  1  16  -1
M  END
> <ref_mols>
x0285_0

> <original SMILES>
CN1C=CC(=N1)C(=O)NC=2C=CC=C(C2)C(=O)[O-]

> <Chemgauss4>
-8.240463

> <ref_pdb>
x0749_0

$$$$
x0560
  -OEChem-05172015543D

 16 16  0     0  0  0  0  0  0999 V2000
   11.6847    1.7119   24.4294 C   0  0  0  0  0  0  0  0  0  0  0  0
   11.7888    0.3278   24.5672 C   0  0  0  0  0  0  0  0  0  0  0  0
   13.4264    1.6764   22.7554 C   0  0  0  0  0  0  0  0  0  0  0  0
   12.5035    2.3862   23.5235 C   0  0  0  0  0  0  0  0  0  0  0  0
   12.7118   -0.3820   23.7992 C   0  0  0  0  0  0  0  0  0  0  0  0
   13.5306    0.2922   22.8933 C   0  0  0  0  0  0  0  0  0  0  0  0
   12.3956    3.8293   23.3790 C   0  0  0  0  0  0  0  0  0  0  0  0
    9.4820    6.1349   23.9562 C   0  0  0  0  0  0  0  0  0  0  0  0
   11.6735   -2.6329   23.6746 C   0  0  0  0  0  0  0  0  0  0  0  0
   14.0702   -2.3874   24.3409 C   0  0  0  0  0  0  0  0  0  0  0  0
   10.8861    5.8222   23.5649 C   0  0  0  0  0  0  0  0  0  0  0  0
   11.1572    4.4074   23.6813 N   0  0  0  0  0  0  0  0  0  0  0  0
   12.8157   -1.7814   23.9408 N   0  0  0  0  0  0  0  0  0  0  0  0
   13.3664    4.4985   22.9830 O   0  0  0  0  0  0  0  0  0  0  0  0
   14.4213   -0.3799   22.1501 F   0  0  0  0  0  0  0  0  0  0  0  0
   10.3799    3.8083   23.9394 H   0  0  0  0  0  0  0  0  0  0  0  0
  1  2  2  0  0  0  0
  1  4  1  0  0  0  0
  2  5  1  0  0  0  0
  3  4  2  0  0  0  0
  3  6  1  0  0  0  0
  4  7  1  0  0  0  0
  5  6  2  0  0  0  0
  5 13  1  0  0  0  0
  6 15  1  0  0  0  0
  7 12  1  0  0  0  0
  7 14  2  0  0  0  0
  8 11  1  0  0  0  0
  9 13  1  0  0  0  0
 10 13  1  0  0  0  0
 11 12  1  0  0  0  0
 12 16  1  0  0  0  0
M  END
> <ref_mols>
x0560_0

> <original SMILES>
CCNC(=O)C=1C=CC(N(C)C)=C(F)C1

> <Chemgauss4>
-8.238508

> <ref_pdb>
x0161_0

$$$$
x0101
  -OEChem-05172015543D

 19 20  0     0  0  0  0  0  0999 V2000
   10.5915   -4.3077   25.3189 C   0  0  0  0  0  0  0  0  0  0  0  0
    9.5202   -2.1877   24.8773 C   0  0  0  0  0  0  0  0  0  0  0  0
   11.8161   -3.6573   25.4704 C   0  0  0  0  0  0  0  0  0  0  0  0
   10.7448   -1.5373   25.0288 C   0  0  0  0  0  0  0  0  0  0  0  0
    9.4435   -3.5729   25.0223 C   0  0  0  0  0  0  0  0  0  0  0  0
   11.8928   -2.2721   25.3253 C   0  0  0  0  0  0  0  0  0  0  0  0
    5.6035   -5.6789   23.5652 C   0  0  0  0  0  0  0  0  0  0  0  0
    7.7912   -6.3464   22.4939 C   0  0  0  0  0  0  0  0  0  0  0  0
    6.0155   -4.2135   23.4761 C   0  0  0  0  0  0  0  0  0  0  0  0
    8.1892   -4.8770   22.4095 C   0  0  0  0  0  0  0  0  0  0  0  0
    6.2746   -6.5350   22.4930 C   0  0  0  0  0  0  0  0  0  0  0  0
   13.2814   -0.2710   24.6765 C   0  0  0  0  0  0  0  0  0  0  0  0
   14.3977   -2.4835   25.1391 C   0  0  0  0  0  0  0  0  0  0  0  0
    8.1259   -4.2717   24.8592 C   0  0  0  0  0  0  0  0  0  0  0  0
   13.2022   -1.5773   25.4892 C   0  0  0  0  0  0  0  0  0  0  0  0
    7.5181   -4.0736   23.4968 N   0  3  0  0  0  0  0  0  0  0  0  0
    5.7448   -6.1691   21.2201 O   0  0  0  0  0  0  0  0  0  0  0  0
    7.7096   -3.0574   23.2558 H   0  0  0  0  0  0  0  0  0  0  0  0
    4.7898   -6.3371   21.2572 H   0  0  0  0  0  0  0  0  0  0  0  0
  1  3  2  0  0  0  0
  1  5  1  0  0  0  0
  2  4  1  0  0  0  0
  2  5  2  0  0  0  0
  3  6  1  0  0  0  0
  4  6  2  0  0  0  0
  5 14  1  0  0  0  0
  6 15  1  0  0  0  0
  7  9  1  0  0  0  0
  7 11  1  0  0  0  0
  8 10  1  0  0  0  0
  8 11  1  0  0  0  0
  9 16  1  0  0  0  0
 10 16  1  0  0  0  0
 11 17  1  0  0  0  0
 12 15  1  0  0  0  0
 13 15  1  0  0  0  0
 14 16  1  0  0  0  0
 16 18  1  0  0  0  0
 17 19  1  0  0  0  0
M  CHG  1  16   1
M  END
> <ref_mols>
x0101_0

> <original SMILES>
CC(C)C=1C=CC(CN2CCC(O)CC2)=CC1

> <Chemgauss4>
-8.233604

> <ref_pdb>
x0749_0

$$$$
x2817
  -OEChem-05172015543D

 17 18  0     0  0  0  0  0  0999 V2000
   11.7975   -0.7837   24.6064 C   0  0  0  0  0  0  0  0  0  0  0  0
   13.1704   -0.6777   24.5666 C   0  0  0  0  0  0  0  0  0  0  0  0
   12.2680   -1.7545   22.5476 C   0  0  0  0  0  0  0  0  0  0  0  0
   11.2747   -1.4076   23.4369 C   0  0  0  0  0  0  0  0  0  0  0  0
    7.2054   -5.4300   26.9557 C   0  0  0  0  0  0  0  0  0  0  0  0
    8.9418   -3.5923   26.6743 C   0  0  0  0  0  0  0  0  0  0  0  0
    8.5071   -5.2050   24.8628 C   0  0  0  0  0  0  0  0  0  0  0  0
    8.8577   -2.4430   25.6744 C   0  0  0  0  0  0  0  0  0  0  0  0
    8.4183   -4.0619   23.8579 C   0  0  0  0  0  0  0  0  0  0  0  0
    6.0749   -6.0646   26.1858 C   0  0  0  0  0  0  0  0  0  0  0  0
    8.1613   -4.7443   26.2082 N   0  0  0  0  0  0  0  0  0  0  0  0
    9.2716   -2.9269   24.3226 N   0  0  0  0  0  0  0  0  0  0  0  0
    7.2378   -5.5436   28.1836 O   0  0  0  0  0  0  0  0  0  0  0  0
    8.8356   -0.5068   23.5488 O   0  0  0  0  0  0  0  0  0  0  0  0
    9.4068   -2.2646   21.8366 O   0  0  0  0  0  0  0  0  0  0  0  0
   13.8234   -1.3286   23.1236 S   0  0  0  0  0  0  0  0  0  0  0  0
    9.5560   -1.7001   23.1606 S   0  0  0  0  0  0  0  0  0  0  0  0
  1  2  2  0  0  0  0
  1  4  1  0  0  0  0
  2 16  1  0  0  0  0
  3  4  2  0  0  0  0
  3 16  1  0  0  0  0
  4 17  1  0  0  0  0
  5 10  1  0  0  0  0
  5 11  1  0  0  0  0
  5 13  2  0  0  0  0
  6  8  1  0  0  0  0
  6 11  1  0  0  0  0
  7  9  1  0  0  0  0
  7 11  1  0  0  0  0
  8 12  1  0  0  0  0
  9 12  1  0  0  0  0
 12 17  1  0  0  0  0
 14 17  2  0  0  0  0
 15 17  2  0  0  0  0
M  END
> <ref_mols>
x2817_0

> <original SMILES>
CC(=O)N1CCN(CC1)S(=O)(=O)C=2C=CSC2

> <Chemgauss4>
-8.231065

> <ref_pdb>
x0072_0

$$$$
x0241
  -OEChem-05172015543D

 13 13  0     0  0  0  0  0  0999 V2000
   13.0131   -1.3167   21.8613 C   0  0  0  0  0  0  0  0  0  0  0  0
   14.0662   -1.7378   22.6733 C   0  0  0  0  0  0  0  0  0  0  0  0
   13.1614   -0.4567   24.5110 C   0  0  0  0  0  0  0  0  0  0  0  0
   12.0342   -0.4655   22.3741 C   0  0  0  0  0  0  0  0  0  0  0  0
   14.1403   -1.3078   23.9981 C   0  0  0  0  0  0  0  0  0  0  0  0
   12.1083   -0.0355   23.6989 C   0  0  0  0  0  0  0  0  0  0  0  0
   10.9575   -0.0520   21.4824 C   0  0  0  0  0  0  0  0  0  0  0  0
    8.6587   -0.4706   20.5801 C   0  0  0  0  0  0  0  0  0  0  0  0
    9.6172   -2.0366   22.2316 C   0  0  0  0  0  0  0  0  0  0  0  0
    9.7851   -0.8250   21.4321 N   0  0  0  0  0  0  0  0  0  0  0  0
   11.1425    0.9786   20.8246 O   0  0  0  0  0  0  0  0  0  0  0  0
   15.1516   -1.7121   24.7779 F   0  0  0  0  0  0  0  0  0  0  0  0
   10.8033    1.1215   24.4465 Br  0  0  0  0  0  0  0  0  0  0  0  0
  1  2  2  0  0  0  0
  1  4  1  0  0  0  0
  2  5  1  0  0  0  0
  3  5  2  0  0  0  0
  3  6  1  0  0  0  0
  4  6  2  0  0  0  0
  4  7  1  0  0  0  0
  5 12  1  0  0  0  0
  6 13  1  0  0  0  0
  7 10  1  0  0  0  0
  7 11  2  0  0  0  0
  8 10  1  0  0  0  0
  9 10  1  0  0  0  0
M  END
> <ref_mols>
x0241_0

> <original SMILES>
CN(C)C(=O)C=1C=CC(F)=CC1Br

> <Chemgauss4>
-8.230582

> <ref_pdb>
x0678_0

$$$$
x0395
  -OEChem-05172015543D

 15 16  0     1  0  0  0  0  0999 V2000
    7.2246    0.5431   18.7009 C   0  0  0  0  0  0  0  0  0  0  0  0
    9.2150    0.2028   19.9214 C   0  0  0  0  0  0  0  0  0  0  0  0
   11.7287   -1.9271   23.4315 C   0  0  0  0  0  0  0  0  0  0  0  0
   12.6748   -1.1951   22.8298 C   0  0  0  0  0  0  0  0  0  0  0  0
   10.5275   -2.4518   22.7010 C   0  0  0  0  0  0  0  0  0  0  0  0
   12.5968   -0.8169   21.3871 C   0  0  0  0  0  0  0  0  0  0  0  0
   10.6391   -2.3567   21.1788 C   0  0  0  0  0  0  0  0  0  0  0  0
    5.8656    0.8892   18.2376 C   0  0  0  0  0  0  0  0  0  0  0  0
   10.2955    0.1326   20.9599 C   0  0  0  0  0  0  0  0  0  0  0  0
    8.1592   -0.0177   17.9633 N   0  0  0  0  0  0  0  0  0  0  0  0
    9.3263   -0.2182   18.6795 N   0  0  0  0  0  0  0  0  0  0  0  0
   11.2303   -1.0305   20.7610 N   0  3  1  0  0  0  0  0  0  0  0  0
   13.7261   -0.7627   23.5604 F   0  0  0  0  0  0  0  0  0  0  0  0
    7.6875    0.8737   20.3190 S   0  0  0  0  0  0  0  0  0  0  0  0
   11.3887   -1.0971   19.7300 H   0  0  0  0  0  0  0  0  0  0  0  0
  1  8  1  0  0  0  0
  1 10  2  0  0  0  0
  1 14  1  0  0  0  0
  2  9  1  0  0  0  0
  2 11  2  0  0  0  0
  2 14  1  0  0  0  0
  3  4  2  0  0  0  0
  3  5  1  0  0  0  0
  4  6  1  0  0  0  0
  4 13  1  0  0  0  0
  5  7  1  0  0  0  0
  6 12  1  0  0  0  0
  7 12  1  0  0  0  0
  9 12  1  0  0  0  0
 10 11  1  0  0  0  0
 12 15  1  0  0  0  0
M  CHG  1  12   1
M  END
> <ref_mols>
x0395_0

> <original SMILES>
CC1=NN=C(CN2CCC=C(F)C2)S1

> <Chemgauss4>
-8.229791

> <ref_pdb>
x0678_0

$$$$
x0289
  -OEChem-05172015543D

 13 13  0     1  0  0  0  0  0999 V2000
    6.9316    0.1237   20.0978 C   0  0  0  0  0  0  0  0  0  0  0  0
    5.1628    1.3978   19.0818 C   0  0  0  0  0  0  0  0  0  0  0  0
    7.3429   -0.2223   18.8207 C   0  0  0  0  0  0  0  0  0  0  0  0
    5.6534    0.9950   17.8502 C   0  0  0  0  0  0  0  0  0  0  0  0
    5.8199    0.9495   20.2222 C   0  0  0  0  0  0  0  0  0  0  0  0
    3.3770    1.4638   23.2345 C   0  0  0  0  0  0  0  0  0  0  0  0
    6.8475    3.3376   21.6819 C   0  0  0  0  0  0  0  0  0  0  0  0
    3.8644    0.9752   21.8758 C   0  0  0  0  0  0  0  0  0  0  0  0
    5.3268    1.3581   21.5931 C   0  0  2  0  0  0  0  0  0  0  0  0
    6.7302    0.1936   17.6897 N   0  0  0  0  0  0  0  0  0  0  0  0
    5.4596    2.8352   21.8138 N   0  3  0  0  0  0  0  0  0  0  0  0
    5.0982    3.0576   22.7471 H   0  0  0  0  0  0  0  0  0  0  0  0
    4.8513    3.3194   21.1454 H   0  0  0  0  0  0  0  0  0  0  0  0
  1  3  2  0  0  0  0
  1  5  1  0  0  0  0
  2  4  1  0  0  0  0
  2  5  2  0  0  0  0
  3 10  1  0  0  0  0
  4 10  2  0  0  0  0
  5  9  1  0  0  0  0
  6  8  1  0  0  0  0
  7 11  1  0  0  0  0
  8  9  1  0  0  0  0
  9 11  1  0  0  0  0
 11 12  1  0  0  0  0
 11 13  1  0  0  0  0
M  CHG  1  11   1
M  END
> <ref_mols>
x0289_0

> <original SMILES>
CCC(NC)C=1C=CN=CC1

> <Chemgauss4>
-8.228788

> <ref_pdb>
x0540_0

$$$$
x1491
  -OEChem-05172015543D

 21 22  0     0  0  0  0  0  0999 V2000
   12.0999    0.9896   24.5725 C   0  0  0  0  0  0  0  0  0  0  0  0
   10.9162    0.6322   25.2180 C   0  0  0  0  0  0  0  0  0  0  0  0
   11.7390   -0.7574   22.9432 C   0  0  0  0  0  0  0  0  0  0  0  0
   12.5113    0.2949   23.4351 C   0  0  0  0  0  0  0  0  0  0  0  0
   10.1439   -0.4200   24.7261 C   0  0  0  0  0  0  0  0  0  0  0  0
   10.5552   -1.1148   23.5887 C   0  0  0  0  0  0  0  0  0  0  0  0
    6.3227   -1.8656   18.7247 C   0  0  0  0  0  0  0  0  0  0  0  0
    8.3548   -1.1029   20.0511 C   0  0  0  0  0  0  0  0  0  0  0  0
    6.9706   -2.9971   20.8278 C   0  0  0  0  0  0  0  0  0  0  0  0
    8.3480   -0.5226   21.4613 C   0  0  0  0  0  0  0  0  0  0  0  0
    6.9604   -2.4147   22.2357 C   0  0  0  0  0  0  0  0  0  0  0  0
   13.7763    0.6784   22.7446 C   0  0  0  0  0  0  0  0  0  0  0  0
    8.8818   -0.7774   25.4409 C   0  0  0  0  0  0  0  0  0  0  0  0
    6.1726   -0.5081   18.0858 C   0  0  0  0  0  0  0  0  0  0  0  0
    7.1730   -1.9464   19.8268 N   0  0  0  0  0  0  0  0  0  0  0  0
    8.1917   -1.6080   22.4709 N   0  0  0  0  0  0  0  0  0  0  0  0
    5.7003   -2.8235   18.2590 O   0  0  0  0  0  0  0  0  0  0  0  0
   10.2732   -2.9388   21.7538 O   0  0  0  0  0  0  0  0  0  0  0  0
    9.2751   -3.3395   24.0322 O   0  0  0  0  0  0  0  0  0  0  0  0
    9.6012   -2.4501   22.9384 S   0  0  0  0  0  0  0  0  0  0  0  0
    5.4994    0.5559   19.3156 Cl  0  0  0  0  0  0  0  0  0  0  0  0
  1  2  2  0  0  0  0
  1  4  1  0  0  0  0
  2  5  1  0  0  0  0
  3  4  2  0  0  0  0
  3  6  1  0  0  0  0
  4 12  1  0  0  0  0
  5  6  2  0  0  0  0
  5 13  1  0  0  0  0
  6 20  1  0  0  0  0
  7 14  1  0  0  0  0
  7 15  1  0  0  0  0
  7 17  2  0  0  0  0
  8 10  1  0  0  0  0
  8 15  1  0  0  0  0
  9 11  1  0  0  0  0
  9 15  1  0  0  0  0
 10 16  1  0  0  0  0
 11 16  1  0  0  0  0
 14 21  1  0  0  0  0
 16 20  1  0  0  0  0
 18 20  2  0  0  0  0
 19 20  2  0  0  0  0
M  END
> <ref_mols>
x1491_0

> <original SMILES>
Cc1ccc(C)c(c1)S(=O)(=O)N2CCN(CC2)C(=O)CCl

> <Chemgauss4>
-8.226967

> <ref_pdb>
x0830_0

> <CYS145-warhead dist minimum (A)>
6.008606

> <CYS145-warhead dist mean (A)>
11.043249

> <CYS145-warhead dist stddev (A)>
1.0933074

$$$$
x1372
  -OEChem-05172015543D

 21 22  0     0  0  0  0  0  0999 V2000
   12.0999    0.9896   24.5725 C   0  0  0  0  0  0  0  0  0  0  0  0
   10.9162    0.6322   25.2180 C   0  0  0  0  0  0  0  0  0  0  0  0
   11.7390   -0.7574   22.9432 C   0  0  0  0  0  0  0  0  0  0  0  0
   12.5113    0.2949   23.4351 C   0  0  0  0  0  0  0  0  0  0  0  0
   10.1439   -0.4200   24.7261 C   0  0  0  0  0  0  0  0  0  0  0  0
   10.5552   -1.1148   23.5887 C   0  0  0  0  0  0  0  0  0  0  0  0
    6.3227   -1.8656   18.7247 C   0  0  0  0  0  0  0  0  0  0  0  0
    8.3548   -1.1029   20.0511 C   0  0  0  0  0  0  0  0  0  0  0  0
    6.9706   -2.9971   20.8278 C   0  0  0  0  0  0  0  0  0  0  0  0
    8.3480   -0.5226   21.4613 C   0  0  0  0  0  0  0  0  0  0  0  0
    6.9604   -2.4147   22.2357 C   0  0  0  0  0  0  0  0  0  0  0  0
   13.7763    0.6784   22.7446 C   0  0  0  0  0  0  0  0  0  0  0  0
    8.8818   -0.7774   25.4409 C   0  0  0  0  0  0  0  0  0  0  0  0
    6.1726   -0.5081   18.0858 C   0  0  0  0  0  0  0  0  0  0  0  0
    7.1730   -1.9464   19.8268 N   0  0  0  0  0  0  0  0  0  0  0  0
    8.1917   -1.6080   22.4709 N   0  0  0  0  0  0  0  0  0  0  0  0
    5.7003   -2.8235   18.2590 O   0  0  0  0  0  0  0  0  0  0  0  0
   10.2732   -2.9388   21.7538 O   0  0  0  0  0  0  0  0  0  0  0  0
    9.2751   -3.3395   24.0322 O   0  0  0  0  0  0  0  0  0  0  0  0
    9.6012   -2.4501   22.9384 S   0  0  0  0  0  0  0  0  0  0  0  0
    5.4994    0.5559   19.3156 Cl  0  0  0  0  0  0  0  0  0  0  0  0
  1  2  2  0  0  0  0
  1  4  1  0  0  0  0
  2  5  1  0  0  0  0
  3  4  2  0  0  0  0
  3  6  1  0  0  0  0
  4 12  1  0  0  0  0
  5  6  2  0  0  0  0
  5 13  1  0  0  0  0
  6 20  1  0  0  0  0
  7 14  1  0  0  0  0
  7 15  1  0  0  0  0
  7 17  2  0  0  0  0
  8 10  1  0  0  0  0
  8 15  1  0  0  0  0
  9 11  1  0  0  0  0
  9 15  1  0  0  0  0
 10 16  1  0  0  0  0
 11 16  1  0  0  0  0
 14 21  1  0  0  0  0
 16 20  1  0  0  0  0
 18 20  2  0  0  0  0
 19 20  2  0  0  0  0
M  END
> <ref_mols>
x1372_0

> <original SMILES>
Cc1ccc(C)c(c1)S(=O)(=O)N2CCN(CC2)C(=O)CCl

> <Chemgauss4>
-8.226967

> <ref_pdb>
x0830_0

$$$$
x1469
  -OEChem-05172015543D

 21 22  0     0  0  0  0  0  0999 V2000
   12.0999    0.9896   24.5725 C   0  0  0  0  0  0  0  0  0  0  0  0
   10.9162    0.6322   25.2180 C   0  0  0  0  0  0  0  0  0  0  0  0
   11.7390   -0.7574   22.9432 C   0  0  0  0  0  0  0  0  0  0  0  0
   12.5113    0.2949   23.4351 C   0  0  0  0  0  0  0  0  0  0  0  0
   10.1439   -0.4200   24.7261 C   0  0  0  0  0  0  0  0  0  0  0  0
   10.5552   -1.1148   23.5887 C   0  0  0  0  0  0  0  0  0  0  0  0
    6.3227   -1.8656   18.7247 C   0  0  0  0  0  0  0  0  0  0  0  0
    8.3548   -1.1029   20.0511 C   0  0  0  0  0  0  0  0  0  0  0  0
    6.9706   -2.9971   20.8278 C   0  0  0  0  0  0  0  0  0  0  0  0
    8.3480   -0.5226   21.4613 C   0  0  0  0  0  0  0  0  0  0  0  0
    6.9604   -2.4147   22.2357 C   0  0  0  0  0  0  0  0  0  0  0  0
   13.7763    0.6784   22.7446 C   0  0  0  0  0  0  0  0  0  0  0  0
    8.8818   -0.7774   25.4409 C   0  0  0  0  0  0  0  0  0  0  0  0
    6.1726   -0.5081   18.0858 C   0  0  0  0  0  0  0  0  0  0  0  0
    7.1730   -1.9464   19.8268 N   0  0  0  0  0  0  0  0  0  0  0  0
    8.1917   -1.6080   22.4709 N   0  0  0  0  0  0  0  0  0  0  0  0
    5.7003   -2.8235   18.2590 O   0  0  0  0  0  0  0  0  0  0  0  0
   10.2732   -2.9388   21.7538 O   0  0  0  0  0  0  0  0  0  0  0  0
    9.2751   -3.3395   24.0322 O   0  0  0  0  0  0  0  0  0  0  0  0
    9.6012   -2.4501   22.9384 S   0  0  0  0  0  0  0  0  0  0  0  0
    5.4994    0.5559   19.3156 Cl  0  0  0  0  0  0  0  0  0  0  0  0
  1  2  2  0  0  0  0
  1  4  1  0  0  0  0
  2  5  1  0  0  0  0
  3  4  2  0  0  0  0
  3  6  1  0  0  0  0
  4 12  1  0  0  0  0
  5  6  2  0  0  0  0
  5 13  1  0  0  0  0
  6 20  1  0  0  0  0
  7 14  1  0  0  0  0
  7 15  1  0  0  0  0
  7 17  2  0  0  0  0
  8 10  1  0  0  0  0
  8 15  1  0  0  0  0
  9 11  1  0  0  0  0
  9 15  1  0  0  0  0
 10 16  1  0  0  0  0
 11 16  1  0  0  0  0
 14 21  1  0  0  0  0
 16 20  1  0  0  0  0
 18 20  2  0  0  0  0
 19 20  2  0  0  0  0
M  END
> <ref_mols>
x1469_0

> <original SMILES>
Cc1ccc(C)c(c1)S(=O)(=O)N2CCN(CC2)C(=O)CCl

> <Chemgauss4>
-8.226967

> <ref_pdb>
x0830_0

$$$$
x1336
  -OEChem-05172015543D

 21 22  0     0  0  0  0  0  0999 V2000
   12.0999    0.9896   24.5725 C   0  0  0  0  0  0  0  0  0  0  0  0
   10.9162    0.6322   25.2180 C   0  0  0  0  0  0  0  0  0  0  0  0
   11.7390   -0.7574   22.9432 C   0  0  0  0  0  0  0  0  0  0  0  0
   12.5113    0.2949   23.4351 C   0  0  0  0  0  0  0  0  0  0  0  0
   10.1439   -0.4200   24.7261 C   0  0  0  0  0  0  0  0  0  0  0  0
   10.5552   -1.1148   23.5887 C   0  0  0  0  0  0  0  0  0  0  0  0
    6.3227   -1.8656   18.7247 C   0  0  0  0  0  0  0  0  0  0  0  0
    8.3548   -1.1029   20.0511 C   0  0  0  0  0  0  0  0  0  0  0  0
    6.9706   -2.9971   20.8278 C   0  0  0  0  0  0  0  0  0  0  0  0
    8.3480   -0.5226   21.4613 C   0  0  0  0  0  0  0  0  0  0  0  0
    6.9604   -2.4147   22.2357 C   0  0  0  0  0  0  0  0  0  0  0  0
   13.7763    0.6784   22.7446 C   0  0  0  0  0  0  0  0  0  0  0  0
    8.8818   -0.7774   25.4409 C   0  0  0  0  0  0  0  0  0  0  0  0
    6.1726   -0.5081   18.0858 C   0  0  0  0  0  0  0  0  0  0  0  0
    7.1730   -1.9464   19.8268 N   0  0  0  0  0  0  0  0  0  0  0  0
    8.1917   -1.6080   22.4709 N   0  0  0  0  0  0  0  0  0  0  0  0
    5.7003   -2.8235   18.2590 O   0  0  0  0  0  0  0  0  0  0  0  0
   10.2732   -2.9388   21.7538 O   0  0  0  0  0  0  0  0  0  0  0  0
    9.2751   -3.3395   24.0322 O   0  0  0  0  0  0  0  0  0  0  0  0
    9.6012   -2.4501   22.9384 S   0  0  0  0  0  0  0  0  0  0  0  0
    5.4994    0.5559   19.3156 Cl  0  0  0  0  0  0  0  0  0  0  0  0
  1  2  2  0  0  0  0
  1  4  1  0  0  0  0
  2  5  1  0  0  0  0
  3  4  2  0  0  0  0
  3  6  1  0  0  0  0
  4 12  1  0  0  0  0
  5  6  2  0  0  0  0
  5 13  1  0  0  0  0
  6 20  1  0  0  0  0
  7 14  1  0  0  0  0
  7 15  1  0  0  0  0
  7 17  2  0  0  0  0
  8 10  1  0  0  0  0
  8 15  1  0  0  0  0
  9 11  1  0  0  0  0
  9 15  1  0  0  0  0
 10 16  1  0  0  0  0
 11 16  1  0  0  0  0
 14 21  1  0  0  0  0
 16 20  1  0  0  0  0
 18 20  2  0  0  0  0
 19 20  2  0  0  0  0
M  END
> <ref_mols>
x1336_0

> <original SMILES>
Cc1ccc(C)c(c1)S(=O)(=O)N2CCN(CC2)C(=O)CCl

> <Chemgauss4>
-8.226967

> <ref_pdb>
x0830_0

$$$$
x0775
  -OEChem-05172015543D

 21 22  0     0  0  0  0  0  0999 V2000
   12.0999    0.9896   24.5725 C   0  0  0  0  0  0  0  0  0  0  0  0
   10.9162    0.6322   25.2180 C   0  0  0  0  0  0  0  0  0  0  0  0
   11.7390   -0.7574   22.9432 C   0  0  0  0  0  0  0  0  0  0  0  0
   12.5113    0.2949   23.4351 C   0  0  0  0  0  0  0  0  0  0  0  0
   10.1439   -0.4200   24.7261 C   0  0  0  0  0  0  0  0  0  0  0  0
   10.5552   -1.1148   23.5887 C   0  0  0  0  0  0  0  0  0  0  0  0
    6.3227   -1.8656   18.7247 C   0  0  0  0  0  0  0  0  0  0  0  0
    8.3548   -1.1029   20.0511 C   0  0  0  0  0  0  0  0  0  0  0  0
    6.9706   -2.9971   20.8278 C   0  0  0  0  0  0  0  0  0  0  0  0
    8.3480   -0.5226   21.4613 C   0  0  0  0  0  0  0  0  0  0  0  0
    6.9604   -2.4147   22.2357 C   0  0  0  0  0  0  0  0  0  0  0  0
   13.7763    0.6784   22.7446 C   0  0  0  0  0  0  0  0  0  0  0  0
    8.8818   -0.7774   25.4409 C   0  0  0  0  0  0  0  0  0  0  0  0
    6.1726   -0.5081   18.0858 C   0  0  0  0  0  0  0  0  0  0  0  0
    7.1730   -1.9464   19.8268 N   0  0  0  0  0  0  0  0  0  0  0  0
    8.1917   -1.6080   22.4709 N   0  0  0  0  0  0  0  0  0  0  0  0
    5.7003   -2.8235   18.2590 O   0  0  0  0  0  0  0  0  0  0  0  0
   10.2732   -2.9388   21.7538 O   0  0  0  0  0  0  0  0  0  0  0  0
    9.2751   -3.3395   24.0322 O   0  0  0  0  0  0  0  0  0  0  0  0
    9.6012   -2.4501   22.9384 S   0  0  0  0  0  0  0  0  0  0  0  0
    5.4994    0.5559   19.3156 Cl  0  0  0  0  0  0  0  0  0  0  0  0
  1  2  2  0  0  0  0
  1  4  1  0  0  0  0
  2  5  1  0  0  0  0
  3  4  2  0  0  0  0
  3  6  1  0  0  0  0
  4 12  1  0  0  0  0
  5  6  2  0  0  0  0
  5 13  1  0  0  0  0
  6 20  1  0  0  0  0
  7 14  1  0  0  0  0
  7 15  1  0  0  0  0
  7 17  2  0  0  0  0
  8 10  1  0  0  0  0
  8 15  1  0  0  0  0
  9 11  1  0  0  0  0
  9 15  1  0  0  0  0
 10 16  1  0  0  0  0
 11 16  1  0  0  0  0
 14 21  1  0  0  0  0
 16 20  1  0  0  0  0
 18 20  2  0  0  0  0
 19 20  2  0  0  0  0
M  END
> <ref_mols>
x0775_0

> <original SMILES>
Cc1ccc(C)c(c1)S(=O)(=O)N2CCN(CC2)C(=O)CCl

> <Chemgauss4>
-8.226967

> <ref_pdb>
x0830_0

$$$$
x0701
  -OEChem-05172015543D

 21 22  0     0  0  0  0  0  0999 V2000
   12.0999    0.9896   24.5725 C   0  0  0  0  0  0  0  0  0  0  0  0
   10.9162    0.6322   25.2180 C   0  0  0  0  0  0  0  0  0  0  0  0
   11.7390   -0.7574   22.9432 C   0  0  0  0  0  0  0  0  0  0  0  0
   12.5113    0.2949   23.4351 C   0  0  0  0  0  0  0  0  0  0  0  0
   10.1439   -0.4200   24.7261 C   0  0  0  0  0  0  0  0  0  0  0  0
   10.5552   -1.1148   23.5887 C   0  0  0  0  0  0  0  0  0  0  0  0
    6.3227   -1.8656   18.7247 C   0  0  0  0  0  0  0  0  0  0  0  0
    8.3548   -1.1029   20.0511 C   0  0  0  0  0  0  0  0  0  0  0  0
    6.9706   -2.9971   20.8278 C   0  0  0  0  0  0  0  0  0  0  0  0
    8.3480   -0.5226   21.4613 C   0  0  0  0  0  0  0  0  0  0  0  0
    6.9604   -2.4147   22.2357 C   0  0  0  0  0  0  0  0  0  0  0  0
   13.7763    0.6784   22.7446 C   0  0  0  0  0  0  0  0  0  0  0  0
    8.8818   -0.7774   25.4409 C   0  0  0  0  0  0  0  0  0  0  0  0
    6.1726   -0.5081   18.0858 C   0  0  0  0  0  0  0  0  0  0  0  0
    7.1730   -1.9464   19.8268 N   0  0  0  0  0  0  0  0  0  0  0  0
    8.1917   -1.6080   22.4709 N   0  0  0  0  0  0  0  0  0  0  0  0
    5.7003   -2.8235   18.2590 O   0  0  0  0  0  0  0  0  0  0  0  0
   10.2732   -2.9388   21.7538 O   0  0  0  0  0  0  0  0  0  0  0  0
    9.2751   -3.3395   24.0322 O   0  0  0  0  0  0  0  0  0  0  0  0
    9.6012   -2.4501   22.9384 S   0  0  0  0  0  0  0  0  0  0  0  0
    5.4994    0.5559   19.3156 Cl  0  0  0  0  0  0  0  0  0  0  0  0
  1  2  2  0  0  0  0
  1  4  1  0  0  0  0
  2  5  1  0  0  0  0
  3  4  2  0  0  0  0
  3  6  1  0  0  0  0
  4 12  1  0  0  0  0
  5  6  2  0  0  0  0
  5 13  1  0  0  0  0
  6 20  1  0  0  0  0
  7 14  1  0  0  0  0
  7 15  1  0  0  0  0
  7 17  2  0  0  0  0
  8 10  1  0  0  0  0
  8 15  1  0  0  0  0
  9 11  1  0  0  0  0
  9 15  1  0  0  0  0
 10 16  1  0  0  0  0
 11 16  1  0  0  0  0
 14 21  1  0  0  0  0
 16 20  1  0  0  0  0
 18 20  2  0  0  0  0
 19 20  2  0  0  0  0
M  END
> <ref_mols>
x0701_0

> <original SMILES>
Cc1ccc(C)c(c1)S(=O)(=O)N2CCN(CC2)C(=O)CCl

> <Chemgauss4>
-8.226967

> <ref_pdb>
x0830_0

> <CYS145-warhead dist minimum (A)>
5.6551666

> <CYS145-warhead dist mean (A)>
6.8964286

> <CYS145-warhead dist stddev (A)>
0.43851373

$$$$
x0555
  -OEChem-05172015543D

 15 16  0     1  0  0  0  0  0999 V2000
   12.9277    0.2884   23.7545 C   0  0  0  0  0  0  0  0  0  0  0  0
   13.5552   -1.5437   22.5642 C   0  0  0  0  0  0  0  0  0  0  0  0
   11.5945   -0.0387   23.6133 C   0  0  0  0  0  0  0  0  0  0  0  0
   11.3348   -1.1896   22.8976 C   0  0  0  0  0  0  0  0  0  0  0  0
    7.3904   -0.1787   21.6076 C   0  0  0  0  0  0  0  0  0  0  0  0
    6.8192    0.8758   20.6830 C   0  0  0  0  0  0  0  0  0  0  0  0
    8.4594   -0.3046   19.5234 C   0  0  0  0  0  0  0  0  0  0  0  0
    8.7619   -0.4019   21.0085 C   0  0  2  0  0  0  0  0  0  0  0  0
    9.1682   -1.8714   23.8982 C   0  0  0  0  0  0  0  0  0  0  0  0
    9.4128   -1.7098   21.4158 C   0  0  0  0  0  0  0  0  0  0  0  0
   13.9377   -0.4442   23.2412 N   0  0  0  0  0  0  0  0  0  0  0  0
   12.2943   -1.9688   22.3569 N   0  0  0  0  0  0  0  0  0  0  0  0
    9.9942   -1.5875   22.7140 N   0  0  3  0  0  0  0  0  0  0  0  0
    7.3936    0.6480   19.3875 O   0  0  0  0  0  0  0  0  0  0  0  0
   10.3794    0.9580   24.3023 Cl  0  0  0  0  0  0  0  0  0  0  0  0
  1  3  1  0  0  0  0
  1 11  2  0  0  0  0
  2 11  1  0  0  0  0
  2 12  2  0  0  0  0
  3  4  2  0  0  0  0
  3 15  1  0  0  0  0
  4 12  1  0  0  0  0
  4 13  1  0  0  0  0
  5  6  1  0  0  0  0
  5  8  1  0  0  0  0
  6 14  1  0  0  0  0
  7  8  1  0  0  0  0
  7 14  1  0  0  0  0
  8 10  1  0  0  0  0
  9 13  1  0  0  0  0
 10 13  1  0  0  0  0
M  END
> <ref_mols>
x0555_0

> <original SMILES>
CN(CC1CCOC1)C=2N=CN=CC2Cl

> <Chemgauss4>
-8.226234

> <ref_pdb>
x1093_0

$$$$
x1166
  -OEChem-05172015543D

 15 16  0     1  0  0  0  0  0999 V2000
   12.9277    0.2884   23.7545 C   0  0  0  0  0  0  0  0  0  0  0  0
   13.5552   -1.5437   22.5642 C   0  0  0  0  0  0  0  0  0  0  0  0
   11.5945   -0.0387   23.6133 C   0  0  0  0  0  0  0  0  0  0  0  0
   11.3348   -1.1896   22.8976 C   0  0  0  0  0  0  0  0  0  0  0  0
    7.3904   -0.1787   21.6076 C   0  0  0  0  0  0  0  0  0  0  0  0
    6.8192    0.8758   20.6830 C   0  0  0  0  0  0  0  0  0  0  0  0
    8.4594   -0.3046   19.5234 C   0  0  0  0  0  0  0  0  0  0  0  0
    8.7619   -0.4019   21.0085 C   0  0  2  0  0  0  0  0  0  0  0  0
    9.1682   -1.8714   23.8982 C   0  0  0  0  0  0  0  0  0  0  0  0
    9.4128   -1.7098   21.4158 C   0  0  0  0  0  0  0  0  0  0  0  0
   13.9377   -0.4442   23.2412 N   0  0  0  0  0  0  0  0  0  0  0  0
   12.2943   -1.9688   22.3569 N   0  0  0  0  0  0  0  0  0  0  0  0
    9.9942   -1.5875   22.7140 N   0  0  3  0  0  0  0  0  0  0  0  0
    7.3936    0.6480   19.3875 O   0  0  0  0  0  0  0  0  0  0  0  0
   10.3794    0.9580   24.3023 Cl  0  0  0  0  0  0  0  0  0  0  0  0
  1  3  1  0  0  0  0
  1 11  2  0  0  0  0
  2 11  1  0  0  0  0
  2 12  2  0  0  0  0
  3  4  2  0  0  0  0
  3 15  1  0  0  0  0
  4 12  1  0  0  0  0
  4 13  1  0  0  0  0
  5  6  1  0  0  0  0
  5  8  1  0  0  0  0
  6 14  1  0  0  0  0
  7  8  1  0  0  0  0
  7 14  1  0  0  0  0
  8 10  1  0  0  0  0
  9 13  1  0  0  0  0
 10 13  1  0  0  0  0
M  END
> <ref_mols>
x1166_0

> <original SMILES>
CN(CC1CCOC1)C=2N=CN=CC2Cl

> <Chemgauss4>
-8.226234

> <ref_pdb>
x1093_0

$$$$
x1410
  -OEChem-05172015543D

 18 19  0     0  0  0  0  0  0999 V2000
    8.0012   -5.6697   22.9907 C   0  0  0  0  0  0  0  0  0  0  0  0
    7.4141   -4.6611   22.2268 C   0  0  0  0  0  0  0  0  0  0  0  0
    9.0855   -5.3766   23.8179 C   0  0  0  0  0  0  0  0  0  0  0  0
    8.9955   -3.0663   23.1171 C   0  0  0  0  0  0  0  0  0  0  0  0
    7.9112   -3.3594   22.2899 C   0  0  0  0  0  0  0  0  0  0  0  0
    9.5826   -4.0749   23.8810 C   0  0  0  0  0  0  0  0  0  0  0  0
    6.2159   -2.4676   20.6327 C   0  0  0  0  0  0  0  0  0  0  0  0
   11.2618   -2.5359   24.8683 C   0  0  0  0  0  0  0  0  0  0  0  0
    6.0089   -1.1302   19.9587 C   0  0  0  0  0  0  0  0  0  0  0  0
    6.7077   -0.1577   20.8876 C   0  0  0  0  0  0  0  0  0  0  0  0
    7.8395   -0.9790   21.4689 C   0  0  0  0  0  0  0  0  0  0  0  0
   12.4138   -2.5850   25.8449 C   0  0  0  0  0  0  0  0  0  0  0  0
    7.3100   -2.3284   21.5089 N   0  0  0  0  0  0  0  0  0  0  0  0
   10.6671   -3.7823   24.7086 N   0  0  0  0  0  0  0  0  0  0  0  0
    5.5458   -3.4527   20.3589 O   0  0  0  0  0  0  0  0  0  0  0  0
   10.9686   -1.4811   24.3119 O   0  0  0  0  0  0  0  0  0  0  0  0
   13.8735   -2.0705   24.9846 Cl  0  0  0  0  0  0  0  0  0  0  0  0
   11.0595   -4.5534   25.2456 H   0  0  0  0  0  0  0  0  0  0  0  0
  1  2  1  0  0  0  0
  1  3  2  0  0  0  0
  2  5  2  0  0  0  0
  3  6  1  0  0  0  0
  4  5  1  0  0  0  0
  4  6  2  0  0  0  0
  5 13  1  0  0  0  0
  6 14  1  0  0  0  0
  7  9  1  0  0  0  0
  7 13  1  0  0  0  0
  7 15  2  0  0  0  0
  8 12  1  0  0  0  0
  8 14  1  0  0  0  0
  8 16  2  0  0  0  0
  9 10  1  0  0  0  0
 10 11  1  0  0  0  0
 11 13  1  0  0  0  0
 12 17  1  0  0  0  0
 14 18  1  0  0  0  0
M  END
> <ref_mols>
x1410_0

> <original SMILES>
ClCC(=O)Nc1cccc(c1)N2CCCC2=O

> <Chemgauss4>
-8.221556

> <ref_pdb>
x0749_0

$$$$
x1460
  -OEChem-05172015543D

 18 19  0     0  0  0  0  0  0999 V2000
    8.0012   -5.6697   22.9907 C   0  0  0  0  0  0  0  0  0  0  0  0
    7.4141   -4.6611   22.2268 C   0  0  0  0  0  0  0  0  0  0  0  0
    9.0855   -5.3766   23.8179 C   0  0  0  0  0  0  0  0  0  0  0  0
    8.9955   -3.0663   23.1171 C   0  0  0  0  0  0  0  0  0  0  0  0
    7.9112   -3.3594   22.2899 C   0  0  0  0  0  0  0  0  0  0  0  0
    9.5826   -4.0749   23.8810 C   0  0  0  0  0  0  0  0  0  0  0  0
    6.2159   -2.4676   20.6327 C   0  0  0  0  0  0  0  0  0  0  0  0
   11.2618   -2.5359   24.8683 C   0  0  0  0  0  0  0  0  0  0  0  0
    6.0089   -1.1302   19.9587 C   0  0  0  0  0  0  0  0  0  0  0  0
    6.7077   -0.1577   20.8876 C   0  0  0  0  0  0  0  0  0  0  0  0
    7.8395   -0.9790   21.4689 C   0  0  0  0  0  0  0  0  0  0  0  0
   12.4138   -2.5850   25.8449 C   0  0  0  0  0  0  0  0  0  0  0  0
    7.3100   -2.3284   21.5089 N   0  0  0  0  0  0  0  0  0  0  0  0
   10.6671   -3.7823   24.7086 N   0  0  0  0  0  0  0  0  0  0  0  0
    5.5458   -3.4527   20.3589 O   0  0  0  0  0  0  0  0  0  0  0  0
   10.9686   -1.4811   24.3119 O   0  0  0  0  0  0  0  0  0  0  0  0
   13.8735   -2.0705   24.9846 Cl  0  0  0  0  0  0  0  0  0  0  0  0
   11.0595   -4.5534   25.2456 H   0  0  0  0  0  0  0  0  0  0  0  0
  1  2  1  0  0  0  0
  1  3  2  0  0  0  0
  2  5  2  0  0  0  0
  3  6  1  0  0  0  0
  4  5  1  0  0  0  0
  4  6  2  0  0  0  0
  5 13  1  0  0  0  0
  6 14  1  0  0  0  0
  7  9  1  0  0  0  0
  7 13  1  0  0  0  0
  7 15  2  0  0  0  0
  8 12  1  0  0  0  0
  8 14  1  0  0  0  0
  8 16  2  0  0  0  0
  9 10  1  0  0  0  0
 10 11  1  0  0  0  0
 11 13  1  0  0  0  0
 12 17  1  0  0  0  0
 14 18  1  0  0  0  0
M  END
> <ref_mols>
x1460_0

> <original SMILES>
ClCC(=O)Nc1cccc(c1)N2CCCC2=O

> <Chemgauss4>
-8.221556

> <ref_pdb>
x0749_0

$$$$
x1327
  -OEChem-05172015543D

 18 19  0     0  0  0  0  0  0999 V2000
    8.0012   -5.6697   22.9907 C   0  0  0  0  0  0  0  0  0  0  0  0
    7.4141   -4.6611   22.2268 C   0  0  0  0  0  0  0  0  0  0  0  0
    9.0855   -5.3766   23.8179 C   0  0  0  0  0  0  0  0  0  0  0  0
    8.9955   -3.0663   23.1171 C   0  0  0  0  0  0  0  0  0  0  0  0
    7.9112   -3.3594   22.2899 C   0  0  0  0  0  0  0  0  0  0  0  0
    9.5826   -4.0749   23.8810 C   0  0  0  0  0  0  0  0  0  0  0  0
    6.2159   -2.4676   20.6327 C   0  0  0  0  0  0  0  0  0  0  0  0
   11.2618   -2.5359   24.8683 C   0  0  0  0  0  0  0  0  0  0  0  0
    6.0089   -1.1302   19.9587 C   0  0  0  0  0  0  0  0  0  0  0  0
    6.7077   -0.1577   20.8876 C   0  0  0  0  0  0  0  0  0  0  0  0
    7.8395   -0.9790   21.4689 C   0  0  0  0  0  0  0  0  0  0  0  0
   12.4138   -2.5850   25.8449 C   0  0  0  0  0  0  0  0  0  0  0  0
    7.3100   -2.3284   21.5089 N   0  0  0  0  0  0  0  0  0  0  0  0
   10.6671   -3.7823   24.7086 N   0  0  0  0  0  0  0  0  0  0  0  0
    5.5458   -3.4527   20.3589 O   0  0  0  0  0  0  0  0  0  0  0  0
   10.9686   -1.4811   24.3119 O   0  0  0  0  0  0  0  0  0  0  0  0
   13.8735   -2.0705   24.9846 Cl  0  0  0  0  0  0  0  0  0  0  0  0
   11.0595   -4.5534   25.2456 H   0  0  0  0  0  0  0  0  0  0  0  0
  1  2  1  0  0  0  0
  1  3  2  0  0  0  0
  2  5  2  0  0  0  0
  3  6  1  0  0  0  0
  4  5  1  0  0  0  0
  4  6  2  0  0  0  0
  5 13  1  0  0  0  0
  6 14  1  0  0  0  0
  7  9  1  0  0  0  0
  7 13  1  0  0  0  0
  7 15  2  0  0  0  0
  8 12  1  0  0  0  0
  8 14  1  0  0  0  0
  8 16  2  0  0  0  0
  9 10  1  0  0  0  0
 10 11  1  0  0  0  0
 11 13  1  0  0  0  0
 12 17  1  0  0  0  0
 14 18  1  0  0  0  0
M  END
> <ref_mols>
x1327_0

> <original SMILES>
ClCC(=O)Nc1cccc(c1)N2CCCC2=O

> <Chemgauss4>
-8.221556

> <ref_pdb>
x0749_0

$$$$
x2555
  -OEChem-05172015543D

 18 19  0     0  0  0  0  0  0999 V2000
    8.0012   -5.6697   22.9907 C   0  0  0  0  0  0  0  0  0  0  0  0
    7.4141   -4.6611   22.2268 C   0  0  0  0  0  0  0  0  0  0  0  0
    9.0855   -5.3766   23.8179 C   0  0  0  0  0  0  0  0  0  0  0  0
    8.9955   -3.0663   23.1171 C   0  0  0  0  0  0  0  0  0  0  0  0
    7.9112   -3.3594   22.2899 C   0  0  0  0  0  0  0  0  0  0  0  0
    9.5826   -4.0749   23.8810 C   0  0  0  0  0  0  0  0  0  0  0  0
    6.2159   -2.4676   20.6327 C   0  0  0  0  0  0  0  0  0  0  0  0
   11.2618   -2.5359   24.8683 C   0  0  0  0  0  0  0  0  0  0  0  0
    6.0089   -1.1302   19.9587 C   0  0  0  0  0  0  0  0  0  0  0  0
    6.7077   -0.1577   20.8876 C   0  0  0  0  0  0  0  0  0  0  0  0
    7.8395   -0.9790   21.4689 C   0  0  0  0  0  0  0  0  0  0  0  0
   12.4138   -2.5850   25.8449 C   0  0  0  0  0  0  0  0  0  0  0  0
    7.3100   -2.3284   21.5089 N   0  0  0  0  0  0  0  0  0  0  0  0
   10.6671   -3.7823   24.7086 N   0  0  0  0  0  0  0  0  0  0  0  0
    5.5458   -3.4527   20.3589 O   0  0  0  0  0  0  0  0  0  0  0  0
   10.9686   -1.4811   24.3119 O   0  0  0  0  0  0  0  0  0  0  0  0
   13.8735   -2.0705   24.9846 Cl  0  0  0  0  0  0  0  0  0  0  0  0
   11.0595   -4.5534   25.2456 H   0  0  0  0  0  0  0  0  0  0  0  0
  1  2  1  0  0  0  0
  1  3  2  0  0  0  0
  2  5  2  0  0  0  0
  3  6  1  0  0  0  0
  4  5  1  0  0  0  0
  4  6  2  0  0  0  0
  5 13  1  0  0  0  0
  6 14  1  0  0  0  0
  7  9  1  0  0  0  0
  7 13  1  0  0  0  0
  7 15  2  0  0  0  0
  8 12  1  0  0  0  0
  8 14  1  0  0  0  0
  8 16  2  0  0  0  0
  9 10  1  0  0  0  0
 10 11  1  0  0  0  0
 11 13  1  0  0  0  0
 12 17  1  0  0  0  0
 14 18  1  0  0  0  0
M  END
> <ref_mols>
x2555_0

> <original SMILES>
ClCC(=O)NC=1C=CC=C(C1)N2CCCC2=O

> <Chemgauss4>
-8.221556

> <ref_pdb>
x0749_0

$$$$
x1384
  -OEChem-05172015543D

 18 19  0     0  0  0  0  0  0999 V2000
    8.0012   -5.6697   22.9907 C   0  0  0  0  0  0  0  0  0  0  0  0
    7.4141   -4.6611   22.2268 C   0  0  0  0  0  0  0  0  0  0  0  0
    9.0855   -5.3766   23.8179 C   0  0  0  0  0  0  0  0  0  0  0  0
    8.9955   -3.0663   23.1171 C   0  0  0  0  0  0  0  0  0  0  0  0
    7.9112   -3.3594   22.2899 C   0  0  0  0  0  0  0  0  0  0  0  0
    9.5826   -4.0749   23.8810 C   0  0  0  0  0  0  0  0  0  0  0  0
    6.2159   -2.4676   20.6327 C   0  0  0  0  0  0  0  0  0  0  0  0
   11.2618   -2.5359   24.8683 C   0  0  0  0  0  0  0  0  0  0  0  0
    6.0089   -1.1302   19.9587 C   0  0  0  0  0  0  0  0  0  0  0  0
    6.7077   -0.1577   20.8876 C   0  0  0  0  0  0  0  0  0  0  0  0
    7.8395   -0.9790   21.4689 C   0  0  0  0  0  0  0  0  0  0  0  0
   12.4138   -2.5850   25.8449 C   0  0  0  0  0  0  0  0  0  0  0  0
    7.3100   -2.3284   21.5089 N   0  0  0  0  0  0  0  0  0  0  0  0
   10.6671   -3.7823   24.7086 N   0  0  0  0  0  0  0  0  0  0  0  0
    5.5458   -3.4527   20.3589 O   0  0  0  0  0  0  0  0  0  0  0  0
   10.9686   -1.4811   24.3119 O   0  0  0  0  0  0  0  0  0  0  0  0
   13.8735   -2.0705   24.9846 Cl  0  0  0  0  0  0  0  0  0  0  0  0
   11.0595   -4.5534   25.2456 H   0  0  0  0  0  0  0  0  0  0  0  0
  1  2  1  0  0  0  0
  1  3  2  0  0  0  0
  2  5  2  0  0  0  0
  3  6  1  0  0  0  0
  4  5  1  0  0  0  0
  4  6  2  0  0  0  0
  5 13  1  0  0  0  0
  6 14  1  0  0  0  0
  7  9  1  0  0  0  0
  7 13  1  0  0  0  0
  7 15  2  0  0  0  0
  8 12  1  0  0  0  0
  8 14  1  0  0  0  0
  8 16  2  0  0  0  0
  9 10  1  0  0  0  0
 10 11  1  0  0  0  0
 11 13  1  0  0  0  0
 12 17  1  0  0  0  0
 14 18  1  0  0  0  0
M  END
> <ref_mols>
x1384_0

> <original SMILES>
ClCC(=O)Nc1cccc(c1)N2CCCC2=O

> <Chemgauss4>
-8.221556

> <ref_pdb>
x0749_0

$$$$
x0753
  -OEChem-05172015543D

 18 19  0     0  0  0  0  0  0999 V2000
    8.0012   -5.6697   22.9907 C   0  0  0  0  0  0  0  0  0  0  0  0
    7.4141   -4.6611   22.2268 C   0  0  0  0  0  0  0  0  0  0  0  0
    9.0855   -5.3766   23.8179 C   0  0  0  0  0  0  0  0  0  0  0  0
    8.9955   -3.0663   23.1171 C   0  0  0  0  0  0  0  0  0  0  0  0
    7.9112   -3.3594   22.2899 C   0  0  0  0  0  0  0  0  0  0  0  0
    9.5826   -4.0749   23.8810 C   0  0  0  0  0  0  0  0  0  0  0  0
    6.2159   -2.4676   20.6327 C   0  0  0  0  0  0  0  0  0  0  0  0
   11.2618   -2.5359   24.8683 C   0  0  0  0  0  0  0  0  0  0  0  0
    6.0089   -1.1302   19.9587 C   0  0  0  0  0  0  0  0  0  0  0  0
    6.7077   -0.1577   20.8876 C   0  0  0  0  0  0  0  0  0  0  0  0
    7.8395   -0.9790   21.4689 C   0  0  0  0  0  0  0  0  0  0  0  0
   12.4138   -2.5850   25.8449 C   0  0  0  0  0  0  0  0  0  0  0  0
    7.3100   -2.3284   21.5089 N   0  0  0  0  0  0  0  0  0  0  0  0
   10.6671   -3.7823   24.7086 N   0  0  0  0  0  0  0  0  0  0  0  0
    5.5458   -3.4527   20.3589 O   0  0  0  0  0  0  0  0  0  0  0  0
   10.9686   -1.4811   24.3119 O   0  0  0  0  0  0  0  0  0  0  0  0
   13.8735   -2.0705   24.9846 Cl  0  0  0  0  0  0  0  0  0  0  0  0
   11.0595   -4.5534   25.2456 H   0  0  0  0  0  0  0  0  0  0  0  0
  1  2  1  0  0  0  0
  1  3  2  0  0  0  0
  2  5  2  0  0  0  0
  3  6  1  0  0  0  0
  4  5  1  0  0  0  0
  4  6  2  0  0  0  0
  5 13  1  0  0  0  0
  6 14  1  0  0  0  0
  7  9  1  0  0  0  0
  7 13  1  0  0  0  0
  7 15  2  0  0  0  0
  8 12  1  0  0  0  0
  8 14  1  0  0  0  0
  8 16  2  0  0  0  0
  9 10  1  0  0  0  0
 10 11  1  0  0  0  0
 11 13  1  0  0  0  0
 12 17  1  0  0  0  0
 14 18  1  0  0  0  0
M  END
> <ref_mols>
x0753_0

> <original SMILES>
ClCC(=O)Nc1cccc(c1)N2CCCC2=O

> <Chemgauss4>
-8.221556

> <ref_pdb>
x0749_0

> <CYS145-warhead dist minimum (A)>
6.4401608

> <CYS145-warhead dist mean (A)>
7.812241

> <CYS145-warhead dist stddev (A)>
0.35652804

$$$$
x1483
  -OEChem-05172015543D

 18 19  0     0  0  0  0  0  0999 V2000
    8.0012   -5.6697   22.9907 C   0  0  0  0  0  0  0  0  0  0  0  0
    7.4141   -4.6611   22.2268 C   0  0  0  0  0  0  0  0  0  0  0  0
    9.0855   -5.3766   23.8179 C   0  0  0  0  0  0  0  0  0  0  0  0
    8.9955   -3.0663   23.1171 C   0  0  0  0  0  0  0  0  0  0  0  0
    7.9112   -3.3594   22.2899 C   0  0  0  0  0  0  0  0  0  0  0  0
    9.5826   -4.0749   23.8810 C   0  0  0  0  0  0  0  0  0  0  0  0
    6.2159   -2.4676   20.6327 C   0  0  0  0  0  0  0  0  0  0  0  0
   11.2618   -2.5359   24.8683 C   0  0  0  0  0  0  0  0  0  0  0  0
    6.0089   -1.1302   19.9587 C   0  0  0  0  0  0  0  0  0  0  0  0
    6.7077   -0.1577   20.8876 C   0  0  0  0  0  0  0  0  0  0  0  0
    7.8395   -0.9790   21.4689 C   0  0  0  0  0  0  0  0  0  0  0  0
   12.4138   -2.5850   25.8449 C   0  0  0  0  0  0  0  0  0  0  0  0
    7.3100   -2.3284   21.5089 N   0  0  0  0  0  0  0  0  0  0  0  0
   10.6671   -3.7823   24.7086 N   0  0  0  0  0  0  0  0  0  0  0  0
    5.5458   -3.4527   20.3589 O   0  0  0  0  0  0  0  0  0  0  0  0
   10.9686   -1.4811   24.3119 O   0  0  0  0  0  0  0  0  0  0  0  0
   13.8735   -2.0705   24.9846 Cl  0  0  0  0  0  0  0  0  0  0  0  0
   11.0595   -4.5534   25.2456 H   0  0  0  0  0  0  0  0  0  0  0  0
  1  2  1  0  0  0  0
  1  3  2  0  0  0  0
  2  5  2  0  0  0  0
  3  6  1  0  0  0  0
  4  5  1  0  0  0  0
  4  6  2  0  0  0  0
  5 13  1  0  0  0  0
  6 14  1  0  0  0  0
  7  9  1  0  0  0  0
  7 13  1  0  0  0  0
  7 15  2  0  0  0  0
  8 12  1  0  0  0  0
  8 14  1  0  0  0  0
  8 16  2  0  0  0  0
  9 10  1  0  0  0  0
 10 11  1  0  0  0  0
 11 13  1  0  0  0  0
 12 17  1  0  0  0  0
 14 18  1  0  0  0  0
M  END
> <ref_mols>
x1483_0

> <original SMILES>
ClCC(=O)Nc1cccc(c1)N2CCCC2=O

> <Chemgauss4>
-8.221556

> <ref_pdb>
x0749_0

$$$$
x0827
  -OEChem-05172015543D

 18 19  0     0  0  0  0  0  0999 V2000
    8.0012   -5.6697   22.9907 C   0  0  0  0  0  0  0  0  0  0  0  0
    7.4141   -4.6611   22.2268 C   0  0  0  0  0  0  0  0  0  0  0  0
    9.0855   -5.3766   23.8179 C   0  0  0  0  0  0  0  0  0  0  0  0
    8.9955   -3.0663   23.1171 C   0  0  0  0  0  0  0  0  0  0  0  0
    7.9112   -3.3594   22.2899 C   0  0  0  0  0  0  0  0  0  0  0  0
    9.5826   -4.0749   23.8810 C   0  0  0  0  0  0  0  0  0  0  0  0
    6.2159   -2.4676   20.6327 C   0  0  0  0  0  0  0  0  0  0  0  0
   11.2618   -2.5359   24.8683 C   0  0  0  0  0  0  0  0  0  0  0  0
    6.0089   -1.1302   19.9587 C   0  0  0  0  0  0  0  0  0  0  0  0
    6.7077   -0.1577   20.8876 C   0  0  0  0  0  0  0  0  0  0  0  0
    7.8395   -0.9790   21.4689 C   0  0  0  0  0  0  0  0  0  0  0  0
   12.4138   -2.5850   25.8449 C   0  0  0  0  0  0  0  0  0  0  0  0
    7.3100   -2.3284   21.5089 N   0  0  0  0  0  0  0  0  0  0  0  0
   10.6671   -3.7823   24.7086 N   0  0  0  0  0  0  0  0  0  0  0  0
    5.5458   -3.4527   20.3589 O   0  0  0  0  0  0  0  0  0  0  0  0
   10.9686   -1.4811   24.3119 O   0  0  0  0  0  0  0  0  0  0  0  0
   13.8735   -2.0705   24.9846 Cl  0  0  0  0  0  0  0  0  0  0  0  0
   11.0595   -4.5534   25.2456 H   0  0  0  0  0  0  0  0  0  0  0  0
  1  2  1  0  0  0  0
  1  3  2  0  0  0  0
  2  5  2  0  0  0  0
  3  6  1  0  0  0  0
  4  5  1  0  0  0  0
  4  6  2  0  0  0  0
  5 13  1  0  0  0  0
  6 14  1  0  0  0  0
  7  9  1  0  0  0  0
  7 13  1  0  0  0  0
  7 15  2  0  0  0  0
  8 12  1  0  0  0  0
  8 14  1  0  0  0  0
  8 16  2  0  0  0  0
  9 10  1  0  0  0  0
 10 11  1  0  0  0  0
 11 13  1  0  0  0  0
 12 17  1  0  0  0  0
 14 18  1  0  0  0  0
M  END
> <ref_mols>
x0827_0

> <original SMILES>
ClCC(=O)Nc1cccc(c1)N2CCCC2=O

> <Chemgauss4>
-8.221556

> <ref_pdb>
x0749_0

$$$$
x0588
  -OEChem-05172015543D

 15 16  0     0  0  0  0  0  0999 V2000
   13.0065    2.2460   22.7971 C   0  0  0  0  0  0  0  0  0  0  0  0
   14.1025   -1.0659   21.7839 C   0  0  0  0  0  0  0  0  0  0  0  0
   13.0352   -1.9475   22.4305 C   0  0  0  0  0  0  0  0  0  0  0  0
   10.6940   -1.0054   21.8151 C   0  0  0  0  0  0  0  0  0  0  0  0
   10.5245   -1.8303   23.0585 C   0  0  0  0  0  0  0  0  0  0  0  0
   14.4297    0.1413   22.6625 C   0  0  0  0  0  0  0  0  0  0  0  0
   12.1592    0.0867   23.6577 C   0  0  0  0  0  0  0  0  0  0  0  0
   11.8307   -1.1157   22.8057 C   0  0  0  0  0  0  0  0  0  0  0  0
   11.6769    2.8094   23.2310 C   0  0  0  0  0  0  0  0  0  0  0  0
   12.3194    4.9809   23.9050 C   0  0  0  0  0  0  0  0  0  0  0  0
   13.2074    0.8817   23.0100 N   0  0  0  0  0  0  0  0  0  0  0  0
   13.8411    2.9976   22.2866 O   0  0  0  0  0  0  0  0  0  0  0  0
   11.6346    4.1910   22.9396 O   0  0  0  0  0  0  0  0  0  0  0  0
   13.6482    4.9569   23.6445 F   0  0  0  0  0  0  0  0  0  0  0  0
   11.8997    6.2655   23.8141 F   0  0  0  0  0  0  0  0  0  0  0  0
  1  9  1  0  0  0  0
  1 11  1  0  0  0  0
  1 12  2  0  0  0  0
  2  3  1  0  0  0  0
  2  6  1  0  0  0  0
  3  8  1  0  0  0  0
  4  5  1  0  0  0  0
  4  8  1  0  0  0  0
  5  8  1  0  0  0  0
  6 11  1  0  0  0  0
  7  8  1  0  0  0  0
  7 11  1  0  0  0  0
  9 13  1  0  0  0  0
 10 13  1  0  0  0  0
 10 14  1  0  0  0  0
 10 15  1  0  0  0  0
M  END
> <ref_mols>
x0588_0

> <original SMILES>
FC(F)OCC(=O)N1CCCC2(CC2)C1

> <Chemgauss4>
-8.221041

> <ref_pdb>
x0195_0

$$$$
x0324
  -OEChem-05172015543D

 15 16  0     0  0  0  0  0  0999 V2000
    6.3941   -6.1644   22.1867 C   0  0  0  0  0  0  0  0  0  0  0  0
    7.6964   -5.8486   21.7997 C   0  0  0  0  0  0  0  0  0  0  0  0
    5.8528   -5.5984   23.3410 C   0  0  0  0  0  0  0  0  0  0  0  0
    8.4575   -4.9668   22.5670 C   0  0  0  0  0  0  0  0  0  0  0  0
    6.6139   -4.7166   24.1083 C   0  0  0  0  0  0  0  0  0  0  0  0
    7.9163   -4.4008   23.7213 C   0  0  0  0  0  0  0  0  0  0  0  0
   10.7400   -2.4843   23.9436 C   0  0  0  0  0  0  0  0  0  0  0  0
   13.9319   -1.0114   25.0224 C   0  0  0  0  0  0  0  0  0  0  0  0
   14.1494   -2.4738   25.3903 C   0  0  0  0  0  0  0  0  0  0  0  0
   12.7911   -1.0815   24.0191 C   0  0  0  0  0  0  0  0  0  0  0  0
   12.7337   -3.0323   25.4207 C   0  0  0  0  0  0  0  0  0  0  0  0
   10.0664   -3.7227   24.4783 C   0  0  0  0  0  0  0  0  0  0  0  0
   12.0061   -2.2327   24.4400 N   0  0  0  0  0  0  0  0  0  0  0  0
   10.1700   -1.7719   23.1157 O   0  0  0  0  0  0  0  0  0  0  0  0
    8.6665   -3.5331   24.4787 O   0  0  0  0  0  0  0  0  0  0  0  0
  1  2  1  0  0  0  0
  1  3  2  0  0  0  0
  2  4  2  0  0  0  0
  3  5  1  0  0  0  0
  4  6  1  0  0  0  0
  5  6  2  0  0  0  0
  6 15  1  0  0  0  0
  7 12  1  0  0  0  0
  7 13  1  0  0  0  0
  7 14  2  0  0  0  0
  8  9  1  0  0  0  0
  8 10  1  0  0  0  0
  9 11  1  0  0  0  0
 10 13  1  0  0  0  0
 11 13  1  0  0  0  0
 12 15  1  0  0  0  0
M  END
> <ref_mols>
x0324_0

> <original SMILES>
O=C(COC=1C=CC=CC1)N2CCCC2

> <Chemgauss4>
-8.217861

> <ref_pdb>
x0749_0

$$$$
x0624
  -OEChem-05172015543D

 16 17  0     0  0  0  0  0  0999 V2000
   12.7737   -0.3951   24.3563 C   0  0  0  0  0  0  0  0  0  0  0  0
   13.9564   -0.8502   23.7736 C   0  0  0  0  0  0  0  0  0  0  0  0
   11.5492   -0.6483   23.7381 C   0  0  0  0  0  0  0  0  0  0  0  0
   13.9147   -1.5584   22.5727 C   0  0  0  0  0  0  0  0  0  0  0  0
   11.5074   -1.3564   22.5371 C   0  0  0  0  0  0  0  0  0  0  0  0
   12.6902   -1.8115   21.9544 C   0  0  0  0  0  0  0  0  0  0  0  0
   10.4885    0.6481   20.8145 C   0  0  0  0  0  0  0  0  0  0  0  0
    8.4900   -0.7203   20.2386 C   0  0  0  0  0  0  0  0  0  0  0  0
    9.5791    1.4859   21.6976 C   0  0  0  0  0  0  0  0  0  0  0  0
    7.6853    0.1890   21.1521 C   0  0  0  0  0  0  0  0  0  0  0  0
   10.1814   -1.6191   21.8862 C   0  0  0  0  0  0  0  0  0  0  0  0
    9.9324   -0.7499   20.6848 N   0  3  0  0  0  0  0  0  0  0  0  0
    8.2493    1.5005   21.1780 O   0  0  0  0  0  0  0  0  0  0  0  0
   12.6671   -2.5040   20.7812 O   0  0  0  0  0  0  0  0  0  0  0  0
   10.4701   -1.2030   19.8948 H   0  0  0  0  0  0  0  0  0  0  0  0
   13.5688   -2.7441   20.5162 H   0  0  0  0  0  0  0  0  0  0  0  0
  1  2  1  0  0  0  0
  1  3  2  0  0  0  0
  2  4  2  0  0  0  0
  3  5  1  0  0  0  0
  4  6  1  0  0  0  0
  5  6  2  0  0  0  0
  5 11  1  0  0  0  0
  6 14  1  0  0  0  0
  7  9  1  0  0  0  0
  7 12  1  0  0  0  0
  8 10  1  0  0  0  0
  8 12  1  0  0  0  0
  9 13  1  0  0  0  0
 10 13  1  0  0  0  0
 11 12  1  0  0  0  0
 12 15  1  0  0  0  0
 14 16  1  0  0  0  0
M  CHG  1  12   1
M  END
> <ref_mols>
x0624_0

> <original SMILES>
OC=1C=CC=CC1CN2CCOCC2

> <Chemgauss4>
-8.217443

> <ref_pdb>
x0678_0

$$$$
x0623
  -OEChem-05172015543D

 14 14  0     0  0  0  0  0  0999 V2000
    7.0122    0.3940   20.1616 C   0  0  0  0  0  0  0  0  0  0  0  0
    5.9887    0.7665   19.3311 C   0  0  0  0  0  0  0  0  0  0  0  0
    8.0579    0.0716   19.2794 C   0  0  0  0  0  0  0  0  0  0  0  0
    9.8062   -0.5761   20.9837 C   0  0  0  0  0  0  0  0  0  0  0  0
    4.6114    1.2227   19.5566 C   0  0  0  0  0  0  0  0  0  0  0  0
   13.2671   -1.7713   21.8204 C   0  0  0  0  0  0  0  0  0  0  0  0
   11.8867   -1.3177   22.1544 C   0  0  0  0  0  0  0  0  0  0  0  0
    7.7095    0.2318   17.9997 N   0  0  0  0  0  0  0  0  0  0  0  0
    9.3386   -0.3736   19.6822 N   0  0  0  0  0  0  0  0  0  0  0  0
   11.1316   -1.0219   20.9586 N   0  0  0  0  0  0  0  0  0  0  0  0
    9.1765   -0.4002   22.0240 O   0  0  0  0  0  0  0  0  0  0  0  0
    6.3926    0.6739   18.0383 O   0  0  0  0  0  0  0  0  0  0  0  0
    9.9947   -0.5692   18.9303 H   0  0  0  0  0  0  0  0  0  0  0  0
   11.5843   -1.1433   20.0582 H   0  0  0  0  0  0  0  0  0  0  0  0
  1  2  2  0  0  0  0
  1  3  1  0  0  0  0
  2  5  1  0  0  0  0
  2 12  1  0  0  0  0
  3  8  2  0  0  0  0
  3  9  1  0  0  0  0
  4  9  1  0  0  0  0
  4 10  1  0  0  0  0
  4 11  2  0  0  0  0
  6  7  1  0  0  0  0
  7 10  1  0  0  0  0
  8 12  1  0  0  0  0
  9 13  1  0  0  0  0
 10 14  1  0  0  0  0
M  END
> <ref_mols>
x0623_0

> <original SMILES>
CCNC(=O)NC=1C=C(C)ON1

> <Chemgauss4>
-8.216379

> <ref_pdb>
x0678_0

$$$$
x0921
  -OEChem-05172015543D

 15 16  0     1  0  0  0  0  0999 V2000
   13.5046    1.8792   22.6133 C   0  0  0  0  0  0  0  0  0  0  0  0
   11.7111    1.4648   23.8161 C   0  0  0  0  0  0  0  0  0  0  0  0
   12.8482    0.8637   23.3342 C   0  0  0  0  0  0  0  0  0  0  0  0
   10.8805   -1.3175   23.1325 C   0  0  0  0  0  0  0  0  0  0  0  0
   14.2597   -1.6255   21.5238 C   0  0  0  0  0  0  0  0  0  0  0  0
   14.6208   -0.9379   22.8439 C   0  0  0  0  0  0  0  0  0  0  0  0
   12.7467   -1.8215   21.5301 C   0  0  0  0  0  0  0  0  0  0  0  0
   13.2941   -0.5763   23.5336 C   0  0  2  0  0  0  0  0  0  0  0  0
   12.3334   -1.6460   22.9858 C   0  0  1  0  0  0  0  0  0  0  0  0
   10.7701    3.7791   23.6238 C   0  0  0  0  0  0  0  0  0  0  0  0
    9.2117   -0.8530   24.7398 C   0  0  0  0  0  0  0  0  0  0  0  0
   12.8397    3.0375   22.6327 N   0  0  0  0  0  0  0  0  0  0  0  0
   11.7537    2.7535   23.3716 N   0  0  0  0  0  0  0  0  0  0  0  0
   10.1055   -1.2033   22.1926 O   0  0  0  0  0  0  0  0  0  0  0  0
   10.5774   -1.1712   24.4538 O   0  0  0  0  0  0  0  0  0  0  0  0
  1  3  1  0  0  0  0
  1 12  2  0  0  0  0
  2  3  2  0  0  0  0
  2 13  1  0  0  0  0
  3  8  1  0  0  0  0
  4  9  1  0  0  0  0
  4 14  2  0  0  0  0
  4 15  1  0  0  0  0
  5  6  1  0  0  0  0
  5  7  1  0  0  0  0
  6  8  1  0  0  0  0
  7  9  1  0  0  0  0
  8  9  1  0  0  0  0
 10 13  1  0  0  0  0
 11 15  1  0  0  0  0
 12 13  1  0  0  0  0
M  END
> <ref_mols>
x0921_0

> <original SMILES>
CN(N=C1)C=C1[C@H]2[C@@H](C(OC)=O)CCC2

> <Chemgauss4>
-8.214624

> <ref_pdb>
x0195_0

$$$$
x0590
  -OEChem-05172015543D

 17 17  0     1  0  0  0  0  0999 V2000
   14.4099   -0.9511   23.0818 C   0  0  0  0  0  0  0  0  0  0  0  0
   14.0502   -1.6862   21.9522 C   0  0  0  0  0  0  0  0  0  0  0  0
   13.4264   -0.3323   23.8535 C   0  0  0  0  0  0  0  0  0  0  0  0
   11.7235   -1.1836   22.3661 C   0  0  0  0  0  0  0  0  0  0  0  0
   12.7070   -1.8024   21.5944 C   0  0  0  0  0  0  0  0  0  0  0  0
   12.0833   -0.4486   23.4957 C   0  0  0  0  0  0  0  0  0  0  0  0
    6.7669    0.2098   18.6800 C   0  0  0  0  0  0  0  0  0  0  0  0
   10.2788   -1.3093   21.9814 C   0  0  0  0  0  0  0  0  0  0  0  0
    8.5031   -0.6155   20.3677 C   0  0  0  0  0  0  0  0  0  0  0  0
    8.1933    0.3188   19.2026 C   0  0  1  0  0  0  0  0  0  0  0  0
    9.9119   -0.4673   20.8105 N   0  3  0  0  0  0  0  0  0  0  0  0
    9.1107    0.0569   18.1433 O   0  0  0  0  0  0  0  0  0  0  0  0
   12.3065   -2.7223   20.1888 Cl  0  0  0  0  0  0  0  0  0  0  0  0
   10.8985    0.3299   24.4818 Cl  0  0  0  0  0  0  0  0  0  0  0  0
   10.0945    0.5207   21.0379 H   0  0  0  0  0  0  0  0  0  0  0  0
   10.5404   -0.6925   20.0259 H   0  0  0  0  0  0  0  0  0  0  0  0
    8.9408    0.7238   17.4602 H   0  0  0  0  0  0  0  0  0  0  0  0
  1  2  1  0  0  0  0
  1  3  2  0  0  0  0
  2  5  2  0  0  0  0
  3  6  1  0  0  0  0
  4  5  1  0  0  0  0
  4  6  2  0  0  0  0
  4  8  1  0  0  0  0
  5 13  1  0  0  0  0
  6 14  1  0  0  0  0
  7 10  1  0  0  0  0
  8 11  1  0  0  0  0
  9 10  1  0  0  0  0
  9 11  1  0  0  0  0
 10 12  1  0  0  0  0
 11 15  1  0  0  0  0
 11 16  1  0  0  0  0
 12 17  1  0  0  0  0
M  CHG  1  11   1
M  END
> <ref_mols>
x0590_0

> <original SMILES>
C[C@H](O)CNCC=1C(Cl)=CC=CC1Cl

> <Chemgauss4>
-8.209663

> <ref_pdb>
x0678_0

$$$$
x1199
  -OEChem-05172015543D

 17 17  0     1  0  0  0  0  0999 V2000
   14.4099   -0.9511   23.0818 C   0  0  0  0  0  0  0  0  0  0  0  0
   14.0502   -1.6862   21.9522 C   0  0  0  0  0  0  0  0  0  0  0  0
   13.4264   -0.3323   23.8535 C   0  0  0  0  0  0  0  0  0  0  0  0
   11.7235   -1.1836   22.3661 C   0  0  0  0  0  0  0  0  0  0  0  0
   12.7070   -1.8024   21.5944 C   0  0  0  0  0  0  0  0  0  0  0  0
   12.0833   -0.4486   23.4957 C   0  0  0  0  0  0  0  0  0  0  0  0
    6.7669    0.2098   18.6800 C   0  0  0  0  0  0  0  0  0  0  0  0
   10.2788   -1.3093   21.9814 C   0  0  0  0  0  0  0  0  0  0  0  0
    8.5031   -0.6155   20.3677 C   0  0  0  0  0  0  0  0  0  0  0  0
    8.1933    0.3188   19.2026 C   0  0  1  0  0  0  0  0  0  0  0  0
    9.9119   -0.4673   20.8105 N   0  3  0  0  0  0  0  0  0  0  0  0
    9.1107    0.0569   18.1433 O   0  0  0  0  0  0  0  0  0  0  0  0
   12.3065   -2.7223   20.1888 Cl  0  0  0  0  0  0  0  0  0  0  0  0
   10.8985    0.3299   24.4818 Cl  0  0  0  0  0  0  0  0  0  0  0  0
   10.0945    0.5207   21.0379 H   0  0  0  0  0  0  0  0  0  0  0  0
   10.5404   -0.6925   20.0259 H   0  0  0  0  0  0  0  0  0  0  0  0
    8.9408    0.7238   17.4602 H   0  0  0  0  0  0  0  0  0  0  0  0
  1  2  1  0  0  0  0
  1  3  2  0  0  0  0
  2  5  2  0  0  0  0
  3  6  1  0  0  0  0
  4  5  1  0  0  0  0
  4  6  2  0  0  0  0
  4  8  1  0  0  0  0
  5 13  1  0  0  0  0
  6 14  1  0  0  0  0
  7 10  1  0  0  0  0
  8 11  1  0  0  0  0
  9 10  1  0  0  0  0
  9 11  1  0  0  0  0
 10 12  1  0  0  0  0
 11 15  1  0  0  0  0
 11 16  1  0  0  0  0
 12 17  1  0  0  0  0
M  CHG  1  11   1
M  END
> <ref_mols>
x1199_0

> <original SMILES>
C[C@H](O)CNCC=1C(Cl)=CC=CC1Cl

> <Chemgauss4>
-8.209663

> <ref_pdb>
x0678_0

$$$$
x1276
  -OEChem-05172015543D

 17 17  0     1  0  0  0  0  0999 V2000
   14.4099   -0.9511   23.0818 C   0  0  0  0  0  0  0  0  0  0  0  0
   14.0502   -1.6862   21.9522 C   0  0  0  0  0  0  0  0  0  0  0  0
   13.4264   -0.3323   23.8535 C   0  0  0  0  0  0  0  0  0  0  0  0
   11.7235   -1.1836   22.3661 C   0  0  0  0  0  0  0  0  0  0  0  0
   12.7070   -1.8024   21.5944 C   0  0  0  0  0  0  0  0  0  0  0  0
   12.0833   -0.4486   23.4957 C   0  0  0  0  0  0  0  0  0  0  0  0
    6.7669    0.2098   18.6800 C   0  0  0  0  0  0  0  0  0  0  0  0
   10.2788   -1.3093   21.9814 C   0  0  0  0  0  0  0  0  0  0  0  0
    8.5031   -0.6155   20.3677 C   0  0  0  0  0  0  0  0  0  0  0  0
    8.1933    0.3188   19.2026 C   0  0  1  0  0  0  0  0  0  0  0  0
    9.9119   -0.4673   20.8105 N   0  3  0  0  0  0  0  0  0  0  0  0
    9.1107    0.0569   18.1433 O   0  0  0  0  0  0  0  0  0  0  0  0
   12.3065   -2.7223   20.1888 Cl  0  0  0  0  0  0  0  0  0  0  0  0
   10.8985    0.3299   24.4818 Cl  0  0  0  0  0  0  0  0  0  0  0  0
   10.0945    0.5207   21.0379 H   0  0  0  0  0  0  0  0  0  0  0  0
   10.5404   -0.6925   20.0259 H   0  0  0  0  0  0  0  0  0  0  0  0
    8.9408    0.7238   17.4602 H   0  0  0  0  0  0  0  0  0  0  0  0
  1  2  1  0  0  0  0
  1  3  2  0  0  0  0
  2  5  2  0  0  0  0
  3  6  1  0  0  0  0
  4  5  1  0  0  0  0
  4  6  2  0  0  0  0
  4  8  1  0  0  0  0
  5 13  1  0  0  0  0
  6 14  1  0  0  0  0
  7 10  1  0  0  0  0
  8 11  1  0  0  0  0
  9 10  1  0  0  0  0
  9 11  1  0  0  0  0
 10 12  1  0  0  0  0
 11 15  1  0  0  0  0
 11 16  1  0  0  0  0
 12 17  1  0  0  0  0
M  CHG  1  11   1
M  END
> <ref_mols>
x1276_0

> <original SMILES>
C[C@H](O)CNCC=1C(Cl)=CC=CC1Cl

> <Chemgauss4>
-8.209663

> <ref_pdb>
x0678_0

$$$$
x0547
  -OEChem-05172015543D

 16 17  0     0  0  0  0  0  0999 V2000
   11.7126   -3.1755   25.1171 C   0  0  0  0  0  0  0  0  0  0  0  0
   12.1873   -1.6036   23.3449 C   0  0  0  0  0  0  0  0  0  0  0  0
   12.8773   -2.7834   25.7769 C   0  0  0  0  0  0  0  0  0  0  0  0
   13.3519   -1.2113   24.0048 C   0  0  0  0  0  0  0  0  0  0  0  0
   11.3677   -2.5857   23.9010 C   0  0  0  0  0  0  0  0  0  0  0  0
   13.6969   -1.8012   25.2208 C   0  0  0  0  0  0  0  0  0  0  0  0
    8.7954   -4.8363   23.6768 C   0  0  0  0  0  0  0  0  0  0  0  0
    6.1769   -5.9741   21.3595 C   0  0  0  0  0  0  0  0  0  0  0  0
    6.4732   -4.5874   20.8024 C   0  0  0  0  0  0  0  0  0  0  0  0
    7.4128   -6.2744   22.1934 C   0  0  0  0  0  0  0  0  0  0  0  0
    7.1714   -3.8948   21.9643 C   0  0  0  0  0  0  0  0  0  0  0  0
    9.1451   -3.4184   24.0515 C   0  0  0  0  0  0  0  0  0  0  0  0
    7.8531   -4.9729   22.6738 N   0  0  0  0  0  0  0  0  0  0  0  0
    9.3391   -5.7843   24.2456 O   0  0  0  0  0  0  0  0  0  0  0  0
   10.2201   -2.9722   23.2508 O   0  0  0  0  0  0  0  0  0  0  0  0
   14.8153   -1.4246   25.8545 F   0  0  0  0  0  0  0  0  0  0  0  0
  1  3  2  0  0  0  0
  1  5  1  0  0  0  0
  2  4  1  0  0  0  0
  2  5  2  0  0  0  0
  3  6  1  0  0  0  0
  4  6  2  0  0  0  0
  5 15  1  0  0  0  0
  6 16  1  0  0  0  0
  7 12  1  0  0  0  0
  7 13  1  0  0  0  0
  7 14  2  0  0  0  0
  8  9  1  0  0  0  0
  8 10  1  0  0  0  0
  9 11  1  0  0  0  0
 10 13  1  0  0  0  0
 11 13  1  0  0  0  0
 12 15  1  0  0  0  0
M  END
> <ref_mols>
x0547_0

> <original SMILES>
FC=1C=CC(OCC(=O)N2CCCC2)=CC1

> <Chemgauss4>
-8.209067

> <ref_pdb>
x0749_0

$$$$
x0913
  -OEChem-05172015543D

 17 18  0     1  0  0  0  0  0999 V2000
   13.3832    0.1442   23.5124 C   0  0  0  0  0  0  0  0  0  0  0  0
   12.3300    0.6217   24.2924 C   0  0  0  0  0  0  0  0  0  0  0  0
   13.1540   -0.8567   22.5683 C   0  0  0  0  0  0  0  0  0  0  0  0
   11.0475    0.0983   24.1283 C   0  0  0  0  0  0  0  0  0  0  0  0
   11.8715   -1.3802   22.4043 C   0  0  0  0  0  0  0  0  0  0  0  0
   10.8183   -0.9027   23.1842 C   0  0  0  0  0  0  0  0  0  0  0  0
    7.2589   -4.1992   21.7252 C   0  0  0  0  0  0  0  0  0  0  0  0
    9.3002   -2.9320   22.5515 C   0  0  0  0  0  0  0  0  0  0  0  0
    7.3415   -1.7189   21.8569 C   0  0  0  0  0  0  0  0  0  0  0  0
    9.4288   -1.4706   23.0061 C   0  0  2  0  0  0  0  0  0  0  0  0
    8.5032   -0.7303   22.0058 C   0  0  1  0  0  0  0  0  0  0  0  0
    8.0209   -5.4792   21.9579 C   0  0  0  0  0  0  0  0  0  0  0  0
    9.1448   -0.4414   20.6453 C   0  0  0  0  0  0  0  0  0  0  0  0
    7.9382   -3.0348   22.0358 N   0  0  0  0  0  0  0  0  0  0  0  0
    6.1061   -4.2298   21.2914 O   0  0  0  0  0  0  0  0  0  0  0  0
   10.2039    0.4827   20.8282 O   0  0  0  0  0  0  0  0  0  0  0  0
   10.5916    0.6474   19.9523 H   0  0  0  0  0  0  0  0  0  0  0  0
  1  2  1  0  0  0  0
  1  3  2  0  0  0  0
  2  4  2  0  0  0  0
  3  5  1  0  0  0  0
  4  6  1  0  0  0  0
  5  6  2  0  0  0  0
  6 10  1  0  0  0  0
  7 12  1  0  0  0  0
  7 14  1  0  0  0  0
  7 15  2  0  0  0  0
  8 10  1  0  0  0  0
  8 14  1  0  0  0  0
  9 11  1  0  0  0  0
  9 14  1  0  0  0  0
 10 11  1  0  0  0  0
 11 13  1  0  0  0  0
 13 16  1  0  0  0  0
 16 17  1  0  0  0  0
M  END
> <ref_mols>
x0913_0

> <original SMILES>
OC[C@@H]1[C@H](C2=CC=CC=C2)CN(C(C)=O)C1

> <Chemgauss4>
-8.204608

> <ref_pdb>
x0708_0

$$$$
x1274
  -OEChem-05172015543D

 16 17  0     0  0  0  0  0  0999 V2000
   12.9923    0.0029   22.8111 C   0  0  0  0  0  0  0  0  0  0  0  0
    8.1102    0.3910   20.2942 C   0  0  0  0  0  0  0  0  0  0  0  0
   13.9084   -0.6791   23.5741 C   0  0  0  0  0  0  0  0  0  0  0  0
    9.4544    0.3894   20.0309 C   0  0  0  0  0  0  0  0  0  0  0  0
    7.5205    0.2834   19.0229 C   0  0  0  0  0  0  0  0  0  0  0  0
   12.1990   -1.0043   22.2297 C   0  0  0  0  0  0  0  0  0  0  0  0
   10.6328    0.4747   20.9106 C   0  0  0  0  0  0  0  0  0  0  0  0
    6.0866    0.2376   18.6952 C   0  0  0  0  0  0  0  0  0  0  0  0
   14.3137   -3.1122   24.0166 C   0  0  0  0  0  0  0  0  0  0  0  0
    8.4294    0.2199   18.0458 N   0  0  0  0  0  0  0  0  0  0  0  0
   12.5781   -2.2327   22.5920 N   0  0  0  0  0  0  0  0  0  0  0  0
   13.6196   -2.0019   23.4094 N   0  0  0  0  0  0  0  0  0  0  0  0
   11.1402   -0.7656   21.3757 N   0  0  0  0  0  0  0  0  0  0  0  0
   11.1048    1.5631   21.2321 O   0  0  0  0  0  0  0  0  0  0  0  0
    9.6577    0.2877   18.6925 O   0  0  0  0  0  0  0  0  0  0  0  0
   10.6506   -1.6056   21.0279 H   0  0  0  0  0  0  0  0  0  0  0  0
  1  3  2  0  0  0  0
  1  6  1  0  0  0  0
  2  4  2  0  0  0  0
  2  5  1  0  0  0  0
  3 12  1  0  0  0  0
  4  7  1  0  0  0  0
  4 15  1  0  0  0  0
  5  8  1  0  0  0  0
  5 10  2  0  0  0  0
  6 11  2  0  0  0  0
  6 13  1  0  0  0  0
  7 13  1  0  0  0  0
  7 14  2  0  0  0  0
  9 12  1  0  0  0  0
 10 15  1  0  0  0  0
 11 12  1  0  0  0  0
 13 16  1  0  0  0  0
M  END
> <ref_mols>
x1274_0

> <original SMILES>
CC=1C=C(ON1)C(=O)NC=2C=CN(C)N2

> <Chemgauss4>
-8.204236

> <ref_pdb>
x0678_0

$$$$
x0388
  -OEChem-05172015543D

 16 17  0     0  0  0  0  0  0999 V2000
   12.9923    0.0029   22.8111 C   0  0  0  0  0  0  0  0  0  0  0  0
    8.1102    0.3910   20.2942 C   0  0  0  0  0  0  0  0  0  0  0  0
   13.9084   -0.6791   23.5741 C   0  0  0  0  0  0  0  0  0  0  0  0
    9.4544    0.3894   20.0309 C   0  0  0  0  0  0  0  0  0  0  0  0
    7.5205    0.2834   19.0229 C   0  0  0  0  0  0  0  0  0  0  0  0
   12.1990   -1.0043   22.2297 C   0  0  0  0  0  0  0  0  0  0  0  0
   10.6328    0.4747   20.9106 C   0  0  0  0  0  0  0  0  0  0  0  0
    6.0866    0.2376   18.6952 C   0  0  0  0  0  0  0  0  0  0  0  0
   14.3137   -3.1122   24.0166 C   0  0  0  0  0  0  0  0  0  0  0  0
    8.4294    0.2199   18.0458 N   0  0  0  0  0  0  0  0  0  0  0  0
   12.5781   -2.2327   22.5920 N   0  0  0  0  0  0  0  0  0  0  0  0
   13.6196   -2.0019   23.4094 N   0  0  0  0  0  0  0  0  0  0  0  0
   11.1402   -0.7656   21.3757 N   0  0  0  0  0  0  0  0  0  0  0  0
   11.1048    1.5631   21.2321 O   0  0  0  0  0  0  0  0  0  0  0  0
    9.6577    0.2877   18.6925 O   0  0  0  0  0  0  0  0  0  0  0  0
   10.6506   -1.6056   21.0279 H   0  0  0  0  0  0  0  0  0  0  0  0
  1  3  2  0  0  0  0
  1  6  1  0  0  0  0
  2  4  2  0  0  0  0
  2  5  1  0  0  0  0
  3 12  1  0  0  0  0
  4  7  1  0  0  0  0
  4 15  1  0  0  0  0
  5  8  1  0  0  0  0
  5 10  2  0  0  0  0
  6 11  2  0  0  0  0
  6 13  1  0  0  0  0
  7 13  1  0  0  0  0
  7 14  2  0  0  0  0
  9 12  1  0  0  0  0
 10 15  1  0  0  0  0
 11 12  1  0  0  0  0
 13 16  1  0  0  0  0
M  END
> <ref_mols>
x0388_0

> <original SMILES>
CC=1C=C(ON1)C(=O)NC=2C=CN(C)N2

> <Chemgauss4>
-8.204236

> <ref_pdb>
x0678_0

$$$$
x0400
  -OEChem-05172015543D

 17 18  0     0  0  0  0  0  0999 V2000
    9.3118   -3.3719   22.8918 C   0  0  0  0  0  0  0  0  0  0  0  0
    9.1713   -5.5546   23.9180 C   0  0  0  0  0  0  0  0  0  0  0  0
    8.2810   -3.7165   22.0176 C   0  0  0  0  0  0  0  0  0  0  0  0
    8.1405   -5.8992   23.0437 C   0  0  0  0  0  0  0  0  0  0  0  0
    9.7569   -4.2909   23.8420 C   0  0  0  0  0  0  0  0  0  0  0  0
    7.6953   -4.9802   22.0935 C   0  0  0  0  0  0  0  0  0  0  0  0
   12.1962   -0.4819   25.9584 C   0  0  0  0  0  0  0  0  0  0  0  0
   13.0716   -0.2136   24.7325 C   0  0  0  0  0  0  0  0  0  0  0  0
   12.4489   -1.9354   26.3540 C   0  0  0  0  0  0  0  0  0  0  0  0
   13.8131   -1.5174   24.4434 C   0  0  0  0  0  0  0  0  0  0  0  0
   12.9648   -2.6022   25.0885 C   0  0  0  0  0  0  0  0  0  0  0  0
    6.1348   -6.6240   21.3736 C   0  0  0  0  0  0  0  0  0  0  0  0
   10.8652   -3.9202   24.7829 C   0  0  0  0  0  0  0  0  0  0  0  0
   11.8236   -2.9449   24.1987 N   0  3  0  0  0  0  0  0  0  0  0  0
    6.6887   -5.3158   21.2412 O   0  0  0  0  0  0  0  0  0  0  0  0
   11.3185   -2.0830   23.9513 H   0  0  0  0  0  0  0  0  0  0  0  0
   12.1883   -3.3200   23.3124 H   0  0  0  0  0  0  0  0  0  0  0  0
  1  3  2  0  0  0  0
  1  5  1  0  0  0  0
  2  4  1  0  0  0  0
  2  5  2  0  0  0  0
  3  6  1  0  0  0  0
  4  6  2  0  0  0  0
  5 13  1  0  0  0  0
  6 15  1  0  0  0  0
  7  8  1  0  0  0  0
  7  9  1  0  0  0  0
  8 10  1  0  0  0  0
  9 11  1  0  0  0  0
 10 11  1  0  0  0  0
 11 14  1  0  0  0  0
 12 15  1  0  0  0  0
 13 14  1  0  0  0  0
 14 16  1  0  0  0  0
 14 17  1  0  0  0  0
M  CHG  1  14   1
M  END
> <ref_mols>
x0400_0

> <original SMILES>
COC=1C=CC(CNC2CCCC2)=CC1

> <Chemgauss4>
-8.203548

> <ref_pdb>
x0749_0

$$$$
x1144
  -OEChem-05172015543D

 15 16  0     1  0  0  0  0  0999 V2000
   13.6974    4.1945   22.6773 C   0  0  0  0  0  0  0  0  0  0  0  0
   12.4674    4.4863   23.2564 C   0  0  0  0  0  0  0  0  0  0  0  0
   14.0710    2.8695   22.4825 C   0  0  0  0  0  0  0  0  0  0  0  0
   11.6539    3.4253   23.6202 C   0  0  0  0  0  0  0  0  0  0  0  0
   13.1858    1.8809   22.8811 C   0  0  0  0  0  0  0  0  0  0  0  0
   14.4580    0.2103   21.5621 C   0  0  0  0  0  0  0  0  0  0  0  0
   13.6767   -0.3251   23.8501 C   0  0  0  0  0  0  0  0  0  0  0  0
   14.3047   -1.2662   21.2190 C   0  0  0  0  0  0  0  0  0  0  0  0
   13.5572   -1.7916   23.4266 C   0  0  1  0  0  0  0  0  0  0  0  0
   10.1739   -1.4410   22.0075 C   0  0  0  0  0  0  0  0  0  0  0  0
   12.1264   -2.1961   23.0754 C   0  0  0  0  0  0  0  0  0  0  0  0
   11.9825    2.1255   23.4469 N   0  0  0  0  0  0  0  0  0  0  0  0
   13.5755    0.5541   22.6789 N   0  0  1  0  0  0  0  0  0  0  0  0
   14.4729   -2.0907   22.3689 O   0  0  0  0  0  0  0  0  0  0  0  0
   11.5151   -1.1316   22.3682 O   0  0  0  0  0  0  0  0  0  0  0  0
  1  2  1  0  0  0  0
  1  3  2  0  0  0  0
  2  4  2  0  0  0  0
  3  5  1  0  0  0  0
  4 12  1  0  0  0  0
  5 12  2  0  0  0  0
  5 13  1  0  0  0  0
  6  8  1  0  0  0  0
  6 13  1  0  0  0  0
  7  9  1  0  0  0  0
  7 13  1  0  0  0  0
  8 14  1  0  0  0  0
  9 11  1  0  0  0  0
  9 14  1  0  0  0  0
 10 15  1  0  0  0  0
 11 15  1  0  0  0  0
M  END
> <ref_mols>
x1144_0

> <original SMILES>
COCC1CN(CCO1)C=2C=CC=CN2

> <Chemgauss4>
-8.203186

> <ref_pdb>
x0195_0

$$$$
x0677
  -OEChem-05172015543D

 15 16  0     1  0  0  0  0  0999 V2000
   13.6974    4.1945   22.6773 C   0  0  0  0  0  0  0  0  0  0  0  0
   12.4674    4.4863   23.2564 C   0  0  0  0  0  0  0  0  0  0  0  0
   14.0710    2.8695   22.4825 C   0  0  0  0  0  0  0  0  0  0  0  0
   11.6539    3.4253   23.6202 C   0  0  0  0  0  0  0  0  0  0  0  0
   13.1858    1.8809   22.8811 C   0  0  0  0  0  0  0  0  0  0  0  0
   14.4580    0.2103   21.5621 C   0  0  0  0  0  0  0  0  0  0  0  0
   13.6767   -0.3251   23.8501 C   0  0  0  0  0  0  0  0  0  0  0  0
   14.3047   -1.2662   21.2190 C   0  0  0  0  0  0  0  0  0  0  0  0
   13.5572   -1.7916   23.4266 C   0  0  1  0  0  0  0  0  0  0  0  0
   10.1739   -1.4410   22.0075 C   0  0  0  0  0  0  0  0  0  0  0  0
   12.1264   -2.1961   23.0754 C   0  0  0  0  0  0  0  0  0  0  0  0
   11.9825    2.1255   23.4469 N   0  0  0  0  0  0  0  0  0  0  0  0
   13.5755    0.5541   22.6789 N   0  0  1  0  0  0  0  0  0  0  0  0
   14.4729   -2.0907   22.3689 O   0  0  0  0  0  0  0  0  0  0  0  0
   11.5151   -1.1316   22.3682 O   0  0  0  0  0  0  0  0  0  0  0  0
  1  2  1  0  0  0  0
  1  3  2  0  0  0  0
  2  4  2  0  0  0  0
  3  5  1  0  0  0  0
  4 12  1  0  0  0  0
  5 12  2  0  0  0  0
  5 13  1  0  0  0  0
  6  8  1  0  0  0  0
  6 13  1  0  0  0  0
  7  9  1  0  0  0  0
  7 13  1  0  0  0  0
  8 14  1  0  0  0  0
  9 11  1  0  0  0  0
  9 14  1  0  0  0  0
 10 15  1  0  0  0  0
 11 15  1  0  0  0  0
M  END
> <ref_mols>
x0677_0

> <original SMILES>
COCC1CN(CCO1)C=2C=CC=CN2

> <Chemgauss4>
-8.203186

> <ref_pdb>
x0195_0

$$$$
x1218
  -OEChem-05172015543D

 16 16  0     1  0  0  0  0  0999 V2000
    8.5421   -2.8894   23.4729 C   0  0  0  0  0  0  0  0  0  0  0  0
    8.8249   -1.7980   21.3361 C   0  0  0  0  0  0  0  0  0  0  0  0
    9.7921   -2.4213   23.8775 C   0  0  0  0  0  0  0  0  0  0  0  0
   10.0750   -1.3298   21.7408 C   0  0  0  0  0  0  0  0  0  0  0  0
    8.0585   -2.5778   22.2021 C   0  0  0  0  0  0  0  0  0  0  0  0
   10.5586   -1.6415   23.0115 C   0  0  0  0  0  0  0  0  0  0  0  0
    6.8948   -4.0154   20.5604 C   0  0  0  0  0  0  0  0  0  0  0  0
   12.5088   -0.3918   22.4719 C   0  0  0  0  0  0  0  0  0  0  0  0
    6.7217   -3.0777   21.7696 C   0  0  2  0  0  0  0  0  0  0  0  0
    5.7199   -1.9760   21.5414 N   0  3  0  0  0  0  0  0  0  0  0  0
    7.9808   -4.6587   20.5087 O   0  5  0  0  0  0  0  0  0  0  0  0
    5.9155   -4.0316   19.7598 O   0  0  0  0  0  0  0  0  0  0  0  0
   11.7779   -1.1837   23.4070 O   0  0  0  0  0  0  0  0  0  0  0  0
    4.7918   -2.2935   21.8123 H   0  0  0  0  0  0  0  0  0  0  0  0
    5.7111   -1.7183   20.5568 H   0  0  0  0  0  0  0  0  0  0  0  0
    5.9710   -1.1620   22.0982 H   0  0  0  0  0  0  0  0  0  0  0  0
  1  3  2  0  0  0  0
  1  5  1  0  0  0  0
  2  4  1  0  0  0  0
  2  5  2  0  0  0  0
  3  6  1  0  0  0  0
  4  6  2  0  0  0  0
  5  9  1  0  0  0  0
  6 13  1  0  0  0  0
  7  9  1  0  0  0  0
  7 11  1  0  0  0  0
  7 12  2  0  0  0  0
  8 13  1  0  0  0  0
  9 10  1  0  0  0  0
 10 14  1  0  0  0  0
 10 15  1  0  0  0  0
 10 16  1  0  0  0  0
M  CHG  2  10   1  11  -1
M  END
> <ref_mols>
x1218_0

> <original SMILES>
COC=1C=CC(=CC1)C(N)C(=O)O

> <Chemgauss4>
-8.202593

> <ref_pdb>
x0830_0

$$$$
x0284
  -OEChem-05172015543D

 18 19  0     0  0  0  0  0  0999 V2000
   11.5058    4.1450   24.0622 C   0  0  0  0  0  0  0  0  0  0  0  0
   12.5791    3.9035   23.2982 C   0  0  0  0  0  0  0  0  0  0  0  0
   13.7143    4.8753   23.3689 C   0  0  0  0  0  0  0  0  0  0  0  0
   12.4007    6.1777   25.0272 C   0  0  0  0  0  0  0  0  0  0  0  0
   13.3571   -1.3520   22.8721 C   0  0  0  0  0  0  0  0  0  0  0  0
   12.8375   -0.5821   24.0830 C   0  0  0  0  0  0  0  0  0  0  0  0
   14.3791   -0.5381   22.0834 C   0  0  0  0  0  0  0  0  0  0  0  0
   12.2808    0.7841   23.6858 C   0  0  0  0  0  0  0  0  0  0  0  0
   13.8238    0.8277   21.6834 C   0  0  0  0  0  0  0  0  0  0  0  0
   13.3143    1.6023   22.9038 C   0  0  0  0  0  0  0  0  0  0  0  0
   11.4035    5.2260   24.8934 N   0  0  0  0  0  0  0  0  0  0  0  0
   13.5275    5.9428   24.2379 N   0  0  0  0  0  0  0  0  0  0  0  0
   12.7246    2.8697   22.4771 N   0  0  0  0  0  0  0  0  0  0  0  0
   14.7320    4.7229   22.6971 O   0  0  0  0  0  0  0  0  0  0  0  0
   12.3039    7.1496   25.7770 O   0  0  0  0  0  0  0  0  0  0  0  0
   10.5544    5.3364   25.4397 H   0  0  0  0  0  0  0  0  0  0  0  0
   14.2842    6.6176   24.3054 H   0  0  0  0  0  0  0  0  0  0  0  0
   12.4083    2.9764   21.5147 H   0  0  0  0  0  0  0  0  0  0  0  0
  1  2  2  0  0  0  0
  1 11  1  0  0  0  0
  2  3  1  0  0  0  0
  2 13  1  0  0  0  0
  3 12  1  0  0  0  0
  3 14  2  0  0  0  0
  4 11  1  0  0  0  0
  4 12  1  0  0  0  0
  4 15  2  0  0  0  0
  5  6  1  0  0  0  0
  5  7  1  0  0  0  0
  6  8  1  0  0  0  0
  7  9  1  0  0  0  0
  8 10  1  0  0  0  0
  9 10  1  0  0  0  0
 10 13  1  0  0  0  0
 11 16  1  0  0  0  0
 12 17  1  0  0  0  0
 13 18  1  0  0  0  0
M  END
> <ref_mols>
x0284_0

> <original SMILES>
OC=1N=CC(NC2CCCCC2)=C(O)N1

> <Chemgauss4>
-8.202197

> <ref_pdb>
x0195_0

$$$$
x0048
  -OEChem-05172015543D

 20 21  0     1  0  0  0  0  0999 V2000
   11.7114   -0.1103   22.8099 C   0  0  0  0  0  0  0  0  0  0  0  0
   10.2761    0.5740   24.6289 C   0  0  0  0  0  0  0  0  0  0  0  0
   11.2969   -1.4312   22.9798 C   0  0  0  0  0  0  0  0  0  0  0  0
    9.8615   -0.7470   24.7987 C   0  0  0  0  0  0  0  0  0  0  0  0
   11.2010    0.8924   23.6345 C   0  0  0  0  0  0  0  0  0  0  0  0
   10.3720   -1.7496   23.9741 C   0  0  0  0  0  0  0  0  0  0  0  0
   12.2614    5.0104   24.5341 C   0  0  0  0  0  0  0  0  0  0  0  0
   12.9031    5.3288   22.3779 C   0  0  0  0  0  0  0  0  0  0  0  0
   11.0128    4.7482   23.6889 C   0  0  2  0  0  0  0  0  0  0  0  0
    9.9184    5.7528   24.0238 C   0  0  0  0  0  0  0  0  0  0  0  0
    9.0190   -3.2938   25.1744 C   0  0  0  0  0  0  0  0  0  0  0  0
   11.6485    2.3205   23.4506 C   0  0  0  0  0  0  0  0  0  0  0  0
   10.5497    3.3063   23.8499 C   0  0  0  0  0  0  0  0  0  0  0  0
   13.2994    5.3377   23.6956 N   0  0  0  0  0  0  0  0  0  0  0  0
   11.5521    4.9813   22.3646 N   0  0  0  0  0  0  0  0  0  0  0  0
   12.3088    4.9354   25.7545 O   0  0  0  0  0  0  0  0  0  0  0  0
   13.5979    5.5761   21.4019 O   0  0  0  0  0  0  0  0  0  0  0  0
    9.9667   -3.0385   24.1389 O   0  0  0  0  0  0  0  0  0  0  0  0
   14.2380    5.5579   24.0080 H   0  0  0  0  0  0  0  0  0  0  0  0
   11.0032    4.9002   21.5144 H   0  0  0  0  0  0  0  0  0  0  0  0
  1  3  2  0  0  0  0
  1  5  1  0  0  0  0
  2  4  1  0  0  0  0
  2  5  2  0  0  0  0
  3  6  1  0  0  0  0
  4  6  2  0  0  0  0
  5 12  1  0  0  0  0
  6 18  1  0  0  0  0
  7  9  1  0  0  0  0
  7 14  1  0  0  0  0
  7 16  2  0  0  0  0
  8 14  1  0  0  0  0
  8 15  1  0  0  0  0
  8 17  2  0  0  0  0
  9 10  1  0  0  0  0
  9 13  1  0  0  0  0
  9 15  1  0  0  0  0
 11 18  1  0  0  0  0
 12 13  1  0  0  0  0
 14 19  1  0  0  0  0
 15 20  1  0  0  0  0
M  END
> <ref_mols>
x0048_0

> <original SMILES>
COC=1C=CC(CCC2(C)NC(=O)NC2=O)=CC1

> <Chemgauss4>
-8.199460

> <ref_pdb>
x0104_0

$$$$
x1203
  -OEChem-05172015543D

 20 21  0     1  0  0  0  0  0999 V2000
   11.7114   -0.1103   22.8099 C   0  0  0  0  0  0  0  0  0  0  0  0
   10.2761    0.5740   24.6289 C   0  0  0  0  0  0  0  0  0  0  0  0
   11.2969   -1.4312   22.9798 C   0  0  0  0  0  0  0  0  0  0  0  0
    9.8615   -0.7470   24.7987 C   0  0  0  0  0  0  0  0  0  0  0  0
   11.2010    0.8924   23.6345 C   0  0  0  0  0  0  0  0  0  0  0  0
   10.3720   -1.7496   23.9741 C   0  0  0  0  0  0  0  0  0  0  0  0
   12.2614    5.0104   24.5341 C   0  0  0  0  0  0  0  0  0  0  0  0
   12.9031    5.3288   22.3779 C   0  0  0  0  0  0  0  0  0  0  0  0
   11.0128    4.7482   23.6889 C   0  0  2  0  0  0  0  0  0  0  0  0
    9.9184    5.7528   24.0238 C   0  0  0  0  0  0  0  0  0  0  0  0
    9.0190   -3.2938   25.1744 C   0  0  0  0  0  0  0  0  0  0  0  0
   11.6485    2.3205   23.4506 C   0  0  0  0  0  0  0  0  0  0  0  0
   10.5497    3.3063   23.8499 C   0  0  0  0  0  0  0  0  0  0  0  0
   13.2994    5.3377   23.6956 N   0  0  0  0  0  0  0  0  0  0  0  0
   11.5521    4.9813   22.3646 N   0  0  0  0  0  0  0  0  0  0  0  0
   12.3088    4.9354   25.7545 O   0  0  0  0  0  0  0  0  0  0  0  0
   13.5979    5.5761   21.4019 O   0  0  0  0  0  0  0  0  0  0  0  0
    9.9667   -3.0385   24.1389 O   0  0  0  0  0  0  0  0  0  0  0  0
   14.2380    5.5579   24.0080 H   0  0  0  0  0  0  0  0  0  0  0  0
   11.0032    4.9002   21.5144 H   0  0  0  0  0  0  0  0  0  0  0  0
  1  3  2  0  0  0  0
  1  5  1  0  0  0  0
  2  4  1  0  0  0  0
  2  5  2  0  0  0  0
  3  6  1  0  0  0  0
  4  6  2  0  0  0  0
  5 12  1  0  0  0  0
  6 18  1  0  0  0  0
  7  9  1  0  0  0  0
  7 14  1  0  0  0  0
  7 16  2  0  0  0  0
  8 14  1  0  0  0  0
  8 15  1  0  0  0  0
  8 17  2  0  0  0  0
  9 10  1  0  0  0  0
  9 13  1  0  0  0  0
  9 15  1  0  0  0  0
 11 18  1  0  0  0  0
 12 13  1  0  0  0  0
 14 19  1  0  0  0  0
 15 20  1  0  0  0  0
M  END
> <ref_mols>
x1203_0

> <original SMILES>
COC=1C=CC(CCC2(C)NC(=O)NC2=O)=CC1

> <Chemgauss4>
-8.199460

> <ref_pdb>
x0104_0

$$$$
x0510
  -OEChem-05172015543D

 16 17  0     0  0  0  0  0  0999 V2000
   13.1611   -0.5104   23.5260 C   0  0  0  0  0  0  0  0  0  0  0  0
   13.0261    0.8755   23.4449 C   0  0  0  0  0  0  0  0  0  0  0  0
   12.1288   -1.3387   23.0853 C   0  0  0  0  0  0  0  0  0  0  0  0
   11.8588    1.4332   22.9233 C   0  0  0  0  0  0  0  0  0  0  0  0
   10.9616   -0.7810   22.5636 C   0  0  0  0  0  0  0  0  0  0  0  0
    6.2094   -0.4846   20.4673 C   0  0  0  0  0  0  0  0  0  0  0  0
   10.8265    0.6050   22.4826 C   0  0  0  0  0  0  0  0  0  0  0  0
    6.6321   -0.7081   21.7619 C   0  0  0  0  0  0  0  0  0  0  0  0
    7.0208    0.3327   19.7071 C   0  0  0  0  0  0  0  0  0  0  0  0
    8.4637    0.5999   21.4432 C   0  0  0  0  0  0  0  0  0  0  0  0
    5.8198   -1.5789   22.6604 C   0  0  0  0  0  0  0  0  0  0  0  0
    6.6458    0.6325   18.2946 C   0  0  0  0  0  0  0  0  0  0  0  0
    7.7582   -0.1798   22.2845 N   0  0  0  0  0  0  0  0  0  0  0  0
    8.1592    0.8941   20.1648 N   0  0  0  0  0  0  0  0  0  0  0  0
    9.6462    1.1685   21.9550 N   0  0  0  0  0  0  0  0  0  0  0  0
    9.6514    2.1842   21.9413 H   0  0  0  0  0  0  0  0  0  0  0  0
  1  2  1  0  0  0  0
  1  3  2  0  0  0  0
  2  4  2  0  0  0  0
  3  5  1  0  0  0  0
  4  7  1  0  0  0  0
  5  7  2  0  0  0  0
  6  8  1  0  0  0  0
  6  9  2  0  0  0  0
  7 15  1  0  0  0  0
  8 11  1  0  0  0  0
  8 13  2  0  0  0  0
  9 12  1  0  0  0  0
  9 14  1  0  0  0  0
 10 13  1  0  0  0  0
 10 14  2  0  0  0  0
 10 15  1  0  0  0  0
 15 16  1  0  0  0  0
M  END
> <ref_mols>
x0510_0

> <original SMILES>
CC=1C=C(C)N=C(NC=2C=CC=CC2)N1

> <Chemgauss4>
-8.198807

> <ref_pdb>
x1093_0

$$$$
x1052
  -OEChem-05172015543D

 13 13  0     0  0  0  0  0  0999 V2000
   11.5620    2.6544   23.5075 C   0  0  0  0  0  0  0  0  0  0  0  0
   11.6718    1.2646   23.4661 C   0  0  0  0  0  0  0  0  0  0  0  0
   12.5664    3.4502   22.9565 C   0  0  0  0  0  0  0  0  0  0  0  0
   13.7905    1.4660   22.3226 C   0  0  0  0  0  0  0  0  0  0  0  0
   12.7860    0.6703   22.8737 C   0  0  0  0  0  0  0  0  0  0  0  0
   13.6807    2.8560   22.3640 C   0  0  0  0  0  0  0  0  0  0  0  0
   13.8222   -1.6063   20.7668 C   0  0  0  0  0  0  0  0  0  0  0  0
   10.7003   -1.7058   22.4972 C   0  0  0  0  0  0  0  0  0  0  0  0
   14.0513   -1.3622   22.2196 C   0  0  0  0  0  0  0  0  0  0  0  0
   11.8665   -1.5703   23.4160 C   0  0  0  0  0  0  0  0  0  0  0  0
   12.8976   -0.7350   22.8328 N   0  0  0  0  0  0  0  0  0  0  0  0
   14.6606    3.6326   21.8263 O   0  0  0  0  0  0  0  0  0  0  0  0
   15.3641    3.0770   21.4546 H   0  0  0  0  0  0  0  0  0  0  0  0
  1  2  2  0  0  0  0
  1  3  1  0  0  0  0
  2  5  1  0  0  0  0
  3  6  2  0  0  0  0
  4  5  2  0  0  0  0
  4  6  1  0  0  0  0
  5 11  1  0  0  0  0
  6 12  1  0  0  0  0
  7  9  1  0  0  0  0
  8 10  1  0  0  0  0
  9 11  1  0  0  0  0
 10 11  1  0  0  0  0
 12 13  1  0  0  0  0
M  END
> <ref_mols>
x1052_0

> <original SMILES>
CCN(CC)C=1C=CC=C(O)C1

> <Chemgauss4>
-8.195868

> <ref_pdb>
x0195_0

$$$$
x0303
  -OEChem-05172015543D

 13 13  0     0  0  0  0  0  0999 V2000
   11.5620    2.6544   23.5075 C   0  0  0  0  0  0  0  0  0  0  0  0
   11.6718    1.2646   23.4661 C   0  0  0  0  0  0  0  0  0  0  0  0
   12.5664    3.4502   22.9565 C   0  0  0  0  0  0  0  0  0  0  0  0
   13.7905    1.4660   22.3226 C   0  0  0  0  0  0  0  0  0  0  0  0
   12.7860    0.6703   22.8737 C   0  0  0  0  0  0  0  0  0  0  0  0
   13.6807    2.8560   22.3640 C   0  0  0  0  0  0  0  0  0  0  0  0
   13.8222   -1.6063   20.7668 C   0  0  0  0  0  0  0  0  0  0  0  0
   10.7003   -1.7058   22.4972 C   0  0  0  0  0  0  0  0  0  0  0  0
   14.0513   -1.3622   22.2196 C   0  0  0  0  0  0  0  0  0  0  0  0
   11.8665   -1.5703   23.4160 C   0  0  0  0  0  0  0  0  0  0  0  0
   12.8976   -0.7350   22.8328 N   0  0  0  0  0  0  0  0  0  0  0  0
   14.6606    3.6326   21.8263 O   0  0  0  0  0  0  0  0  0  0  0  0
   15.3641    3.0770   21.4546 H   0  0  0  0  0  0  0  0  0  0  0  0
  1  2  2  0  0  0  0
  1  3  1  0  0  0  0
  2  5  1  0  0  0  0
  3  6  2  0  0  0  0
  4  5  2  0  0  0  0
  4  6  1  0  0  0  0
  5 11  1  0  0  0  0
  6 12  1  0  0  0  0
  7  9  1  0  0  0  0
  8 10  1  0  0  0  0
  9 11  1  0  0  0  0
 10 11  1  0  0  0  0
 12 13  1  0  0  0  0
M  END
> <ref_mols>
x0303_0

> <original SMILES>
CCN(CC)C=1C=CC=C(O)C1

> <Chemgauss4>
-8.195868

> <ref_pdb>
x0195_0

$$$$
x1302
  -OEChem-05172015543D

 15 16  0     0  0  0  0  0  0999 V2000
   14.4810   -1.4807   24.0202 C   0  0  0  0  0  0  0  0  0  0  0  0
   13.6005   -0.4441   24.3296 C   0  0  0  0  0  0  0  0  0  0  0  0
   14.4797   -2.0386   22.7417 C   0  0  0  0  0  0  0  0  0  0  0  0
   12.7186    0.0345   23.3607 C   0  0  0  0  0  0  0  0  0  0  0  0
   13.5978   -1.5600   21.7728 C   0  0  0  0  0  0  0  0  0  0  0  0
   12.7173   -0.5234   22.0822 C   0  0  0  0  0  0  0  0  0  0  0  0
    9.3284    0.1032   20.5756 C   0  0  0  0  0  0  0  0  0  0  0  0
   10.1113   -1.4829   22.1541 C   0  0  0  0  0  0  0  0  0  0  0  0
    6.8201   -0.1985   20.4877 C   0  0  0  0  0  0  0  0  0  0  0  0
   11.7682   -0.0088   21.0389 C   0  0  0  0  0  0  0  0  0  0  0  0
   10.4104   -0.4704   21.2646 N   0  0  0  0  0  0  0  0  0  0  0  0
    8.1423   -0.5179   20.9739 N   0  0  0  0  0  0  0  0  0  0  0  0
    9.4141    1.0102   19.7516 O   0  0  0  0  0  0  0  0  0  0  0  0
   10.8649   -2.1318   22.8631 O   0  0  0  0  0  0  0  0  0  0  0  0
    8.3671   -1.7366   22.1316 S   0  0  0  0  0  0  0  0  0  0  0  0
  1  2  1  0  0  0  0
  1  3  2  0  0  0  0
  2  4  2  0  0  0  0
  3  5  1  0  0  0  0
  4  6  1  0  0  0  0
  5  6  2  0  0  0  0
  6 10  1  0  0  0  0
  7 11  1  0  0  0  0
  7 12  1  0  0  0  0
  7 13  2  0  0  0  0
  8 11  1  0  0  0  0
  8 14  2  0  0  0  0
  8 15  1  0  0  0  0
  9 12  1  0  0  0  0
 10 11  1  0  0  0  0
 12 15  1  0  0  0  0
M  END
> <ref_mols>
x1302_0

> <original SMILES>
O=C(N1CC2=CC=CC=C2)N(C)SC1=O

> <Chemgauss4>
-8.193286

> <ref_pdb>
x0678_0

$$$$
x1299
  -OEChem-05172015543D

 15 16  0     0  0  0  0  0  0999 V2000
   14.4810   -1.4807   24.0202 C   0  0  0  0  0  0  0  0  0  0  0  0
   13.6005   -0.4441   24.3296 C   0  0  0  0  0  0  0  0  0  0  0  0
   14.4797   -2.0386   22.7417 C   0  0  0  0  0  0  0  0  0  0  0  0
   12.7186    0.0345   23.3607 C   0  0  0  0  0  0  0  0  0  0  0  0
   13.5978   -1.5600   21.7728 C   0  0  0  0  0  0  0  0  0  0  0  0
   12.7173   -0.5234   22.0822 C   0  0  0  0  0  0  0  0  0  0  0  0
    9.3284    0.1032   20.5756 C   0  0  0  0  0  0  0  0  0  0  0  0
   10.1113   -1.4829   22.1541 C   0  0  0  0  0  0  0  0  0  0  0  0
    6.8201   -0.1985   20.4877 C   0  0  0  0  0  0  0  0  0  0  0  0
   11.7682   -0.0088   21.0389 C   0  0  0  0  0  0  0  0  0  0  0  0
   10.4104   -0.4704   21.2646 N   0  0  0  0  0  0  0  0  0  0  0  0
    8.1423   -0.5179   20.9739 N   0  0  0  0  0  0  0  0  0  0  0  0
    9.4141    1.0102   19.7516 O   0  0  0  0  0  0  0  0  0  0  0  0
   10.8649   -2.1318   22.8631 O   0  0  0  0  0  0  0  0  0  0  0  0
    8.3671   -1.7366   22.1316 S   0  0  0  0  0  0  0  0  0  0  0  0
  1  2  1  0  0  0  0
  1  3  2  0  0  0  0
  2  4  2  0  0  0  0
  3  5  1  0  0  0  0
  4  6  1  0  0  0  0
  5  6  2  0  0  0  0
  6 10  1  0  0  0  0
  7 11  1  0  0  0  0
  7 12  1  0  0  0  0
  7 13  2  0  0  0  0
  8 11  1  0  0  0  0
  8 14  2  0  0  0  0
  8 15  1  0  0  0  0
  9 12  1  0  0  0  0
 10 11  1  0  0  0  0
 12 15  1  0  0  0  0
M  END
> <ref_mols>
x1299_0

> <original SMILES>
O=C(N1CC2=CC=CC=C2)N(C)SC1=O

> <Chemgauss4>
-8.193286

> <ref_pdb>
x0678_0

$$$$
x1296
  -OEChem-05172015543D

 15 16  0     0  0  0  0  0  0999 V2000
   14.4810   -1.4807   24.0202 C   0  0  0  0  0  0  0  0  0  0  0  0
   13.6005   -0.4441   24.3296 C   0  0  0  0  0  0  0  0  0  0  0  0
   14.4797   -2.0386   22.7417 C   0  0  0  0  0  0  0  0  0  0  0  0
   12.7186    0.0345   23.3607 C   0  0  0  0  0  0  0  0  0  0  0  0
   13.5978   -1.5600   21.7728 C   0  0  0  0  0  0  0  0  0  0  0  0
   12.7173   -0.5234   22.0822 C   0  0  0  0  0  0  0  0  0  0  0  0
    9.3284    0.1032   20.5756 C   0  0  0  0  0  0  0  0  0  0  0  0
   10.1113   -1.4829   22.1541 C   0  0  0  0  0  0  0  0  0  0  0  0
    6.8201   -0.1985   20.4877 C   0  0  0  0  0  0  0  0  0  0  0  0
   11.7682   -0.0088   21.0389 C   0  0  0  0  0  0  0  0  0  0  0  0
   10.4104   -0.4704   21.2646 N   0  0  0  0  0  0  0  0  0  0  0  0
    8.1423   -0.5179   20.9739 N   0  0  0  0  0  0  0  0  0  0  0  0
    9.4141    1.0102   19.7516 O   0  0  0  0  0  0  0  0  0  0  0  0
   10.8649   -2.1318   22.8631 O   0  0  0  0  0  0  0  0  0  0  0  0
    8.3671   -1.7366   22.1316 S   0  0  0  0  0  0  0  0  0  0  0  0
  1  2  1  0  0  0  0
  1  3  2  0  0  0  0
  2  4  2  0  0  0  0
  3  5  1  0  0  0  0
  4  6  1  0  0  0  0
  5  6  2  0  0  0  0
  6 10  1  0  0  0  0
  7 11  1  0  0  0  0
  7 12  1  0  0  0  0
  7 13  2  0  0  0  0
  8 11  1  0  0  0  0
  8 14  2  0  0  0  0
  8 15  1  0  0  0  0
  9 12  1  0  0  0  0
 10 11  1  0  0  0  0
 12 15  1  0  0  0  0
M  END
> <ref_mols>
x1296_0

> <original SMILES>
O=C(N1CC2=CC=CC=C2)N(C)SC1=O

> <Chemgauss4>
-8.193286

> <ref_pdb>
x0678_0

$$$$
x1293
  -OEChem-05172015543D

 15 16  0     0  0  0  0  0  0999 V2000
   14.4810   -1.4807   24.0202 C   0  0  0  0  0  0  0  0  0  0  0  0
   13.6005   -0.4441   24.3296 C   0  0  0  0  0  0  0  0  0  0  0  0
   14.4797   -2.0386   22.7417 C   0  0  0  0  0  0  0  0  0  0  0  0
   12.7186    0.0345   23.3607 C   0  0  0  0  0  0  0  0  0  0  0  0
   13.5978   -1.5600   21.7728 C   0  0  0  0  0  0  0  0  0  0  0  0
   12.7173   -0.5234   22.0822 C   0  0  0  0  0  0  0  0  0  0  0  0
    9.3284    0.1032   20.5756 C   0  0  0  0  0  0  0  0  0  0  0  0
   10.1113   -1.4829   22.1541 C   0  0  0  0  0  0  0  0  0  0  0  0
    6.8201   -0.1985   20.4877 C   0  0  0  0  0  0  0  0  0  0  0  0
   11.7682   -0.0088   21.0389 C   0  0  0  0  0  0  0  0  0  0  0  0
   10.4104   -0.4704   21.2646 N   0  0  0  0  0  0  0  0  0  0  0  0
    8.1423   -0.5179   20.9739 N   0  0  0  0  0  0  0  0  0  0  0  0
    9.4141    1.0102   19.7516 O   0  0  0  0  0  0  0  0  0  0  0  0
   10.8649   -2.1318   22.8631 O   0  0  0  0  0  0  0  0  0  0  0  0
    8.3671   -1.7366   22.1316 S   0  0  0  0  0  0  0  0  0  0  0  0
  1  2  1  0  0  0  0
  1  3  2  0  0  0  0
  2  4  2  0  0  0  0
  3  5  1  0  0  0  0
  4  6  1  0  0  0  0
  5  6  2  0  0  0  0
  6 10  1  0  0  0  0
  7 11  1  0  0  0  0
  7 12  1  0  0  0  0
  7 13  2  0  0  0  0
  8 11  1  0  0  0  0
  8 14  2  0  0  0  0
  8 15  1  0  0  0  0
  9 12  1  0  0  0  0
 10 11  1  0  0  0  0
 12 15  1  0  0  0  0
M  END
> <ref_mols>
x1293_0

> <original SMILES>
O=C(N1CC2=CC=CC=C2)N(C)SC1=O

> <Chemgauss4>
-8.193286

> <ref_pdb>
x0678_0

$$$$
x1058
  -OEChem-05172015543D

 16 17  0     0  0  0  0  0  0999 V2000
   13.1794    0.8506   23.7476 C   0  0  0  0  0  0  0  0  0  0  0  0
   11.9920    0.1773   23.3390 C   0  0  0  0  0  0  0  0  0  0  0  0
    7.4477    0.2885   19.9853 C   0  0  0  0  0  0  0  0  0  0  0  0
   14.3079    0.0949   23.5178 C   0  0  0  0  0  0  0  0  0  0  0  0
    8.6555   -0.4217   20.0967 C   0  0  0  0  0  0  0  0  0  0  0  0
    7.2829    0.4407   18.6340 C   0  0  0  0  0  0  0  0  0  0  0  0
   12.2583   -1.0675   22.8123 C   0  0  0  0  0  0  0  0  0  0  0  0
    9.3350   -0.8704   21.3394 C   0  0  0  0  0  0  0  0  0  0  0  0
    6.2542    1.0759   17.8011 C   0  0  0  0  0  0  0  0  0  0  0  0
   11.2902   -2.0800   22.2721 C   0  0  0  0  0  0  0  0  0  0  0  0
    9.1983   -0.6895   18.9057 N   0  0  0  0  0  0  0  0  0  0  0  0
   10.5249   -1.5582   21.1626 N   0  0  0  0  0  0  0  0  0  0  0  0
    8.8142   -0.6349   22.4265 O   0  0  0  0  0  0  0  0  0  0  0  0
    8.3212   -0.1388   17.9790 O   0  0  0  0  0  0  0  0  0  0  0  0
   13.9341   -1.4199   22.8121 S   0  0  0  0  0  0  0  0  0  0  0  0
   10.8620   -1.7702   20.2292 H   0  0  0  0  0  0  0  0  0  0  0  0
  1  2  1  0  0  0  0
  1  4  2  0  0  0  0
  2  7  2  0  0  0  0
  3  5  1  0  0  0  0
  3  6  2  0  0  0  0
  4 15  1  0  0  0  0
  5  8  1  0  0  0  0
  5 11  2  0  0  0  0
  6  9  1  0  0  0  0
  6 14  1  0  0  0  0
  7 10  1  0  0  0  0
  7 15  1  0  0  0  0
  8 12  1  0  0  0  0
  8 13  2  0  0  0  0
 10 12  1  0  0  0  0
 11 14  1  0  0  0  0
 12 16  1  0  0  0  0
M  END
> <ref_mols>
x1058_0

> <original SMILES>
CC1=CC(=NO1)C(=O)NCC2=CC=CS2

> <Chemgauss4>
-8.192686

> <ref_pdb>
x0678_0

$$$$
x0407
  -OEChem-05172015543D

 16 17  0     0  0  0  0  0  0999 V2000
   13.1794    0.8506   23.7476 C   0  0  0  0  0  0  0  0  0  0  0  0
   11.9920    0.1773   23.3390 C   0  0  0  0  0  0  0  0  0  0  0  0
    7.4477    0.2885   19.9853 C   0  0  0  0  0  0  0  0  0  0  0  0
   14.3079    0.0949   23.5178 C   0  0  0  0  0  0  0  0  0  0  0  0
    8.6555   -0.4217   20.0967 C   0  0  0  0  0  0  0  0  0  0  0  0
    7.2829    0.4407   18.6340 C   0  0  0  0  0  0  0  0  0  0  0  0
   12.2583   -1.0675   22.8123 C   0  0  0  0  0  0  0  0  0  0  0  0
    9.3350   -0.8704   21.3394 C   0  0  0  0  0  0  0  0  0  0  0  0
    6.2542    1.0759   17.8011 C   0  0  0  0  0  0  0  0  0  0  0  0
   11.2902   -2.0800   22.2721 C   0  0  0  0  0  0  0  0  0  0  0  0
    9.1983   -0.6895   18.9057 N   0  0  0  0  0  0  0  0  0  0  0  0
   10.5249   -1.5582   21.1626 N   0  0  0  0  0  0  0  0  0  0  0  0
    8.8142   -0.6349   22.4265 O   0  0  0  0  0  0  0  0  0  0  0  0
    8.3212   -0.1388   17.9790 O   0  0  0  0  0  0  0  0  0  0  0  0
   13.9341   -1.4199   22.8121 S   0  0  0  0  0  0  0  0  0  0  0  0
   10.8620   -1.7702   20.2292 H   0  0  0  0  0  0  0  0  0  0  0  0
  1  2  1  0  0  0  0
  1  4  2  0  0  0  0
  2  7  2  0  0  0  0
  3  5  1  0  0  0  0
  3  6  2  0  0  0  0
  4 15  1  0  0  0  0
  5  8  1  0  0  0  0
  5 11  2  0  0  0  0
  6  9  1  0  0  0  0
  6 14  1  0  0  0  0
  7 10  1  0  0  0  0
  7 15  1  0  0  0  0
  8 12  1  0  0  0  0
  8 13  2  0  0  0  0
 10 12  1  0  0  0  0
 11 14  1  0  0  0  0
 12 16  1  0  0  0  0
M  END
> <ref_mols>
x0407_0

> <original SMILES>
CC1=CC(=NO1)C(=O)NCC2=CC=CS2

> <Chemgauss4>
-8.192686

> <ref_pdb>
x0678_0

$$$$
x0300
  -OEChem-05172015543D

 13 13  0     0  0  0  0  0  0999 V2000
   12.3177   -0.6352   23.1434 C   0  0  0  0  0  0  0  0  0  0  0  0
   13.5145   -1.0573   22.6980 C   0  0  0  0  0  0  0  0  0  0  0  0
   12.5717   -0.2293   24.5625 C   0  0  0  0  0  0  0  0  0  0  0  0
   13.8826   -1.5356   21.3392 C   0  0  0  0  0  0  0  0  0  0  0  0
   10.9931   -0.5076   22.4985 C   0  0  0  0  0  0  0  0  0  0  0  0
   10.6445    0.9362   22.1384 C   0  0  0  0  0  0  0  0  0  0  0  0
   14.4624   -0.9832   23.6832 N   0  0  0  0  0  0  0  0  0  0  0  0
   13.9167   -0.4566   24.8058 N   0  0  0  0  0  0  0  0  0  0  0  0
   11.7297    0.2171   25.3230 O   0  0  0  0  0  0  0  0  0  0  0  0
    9.3761    0.9725   21.4976 O   0  0  0  0  0  0  0  0  0  0  0  0
   15.4571   -0.9885   23.5085 H   0  0  0  0  0  0  0  0  0  0  0  0
   14.4053   -0.2633   25.6697 H   0  0  0  0  0  0  0  0  0  0  0  0
    9.1952    1.9029   21.2875 H   0  0  0  0  0  0  0  0  0  0  0  0
  1  2  2  0  0  0  0
  1  3  1  0  0  0  0
  1  5  1  0  0  0  0
  2  4  1  0  0  0  0
  2  7  1  0  0  0  0
  3  8  1  0  0  0  0
  3  9  2  0  0  0  0
  5  6  1  0  0  0  0
  6 10  1  0  0  0  0
  7  8  1  0  0  0  0
  7 11  1  0  0  0  0
  8 12  1  0  0  0  0
 10 13  1  0  0  0  0
M  END
> <ref_mols>
x0300_0

> <original SMILES>
CC=1NNC(=O)C1CCO

> <Chemgauss4>
-8.177485

> <ref_pdb>
x0678_0

$$$$
x0089
  -OEChem-05172015543D

 17 18  0     0  0  0  0  0  0999 V2000
   10.8563    1.6195   24.3379 C   0  0  0  0  0  0  0  0  0  0  0  0
   11.6824    2.5813   23.7635 C   0  0  0  0  0  0  0  0  0  0  0  0
   13.1419    0.8312   22.9338 C   0  0  0  0  0  0  0  0  0  0  0  0
   11.1746    0.2653   24.2226 C   0  0  0  0  0  0  0  0  0  0  0  0
   12.3262   -0.1477   23.5370 C   0  0  0  0  0  0  0  0  0  0  0  0
   12.8231    2.1902   23.0653 C   0  0  0  0  0  0  0  0  0  0  0  0
   13.4515    4.5723   22.5606 C   0  0  0  0  0  0  0  0  0  0  0  0
   14.3853    0.4247   22.1811 C   0  0  0  0  0  0  0  0  0  0  0  0
   14.3025   -1.0295   21.7173 C   0  0  0  0  0  0  0  0  0  0  0  0
   13.8902   -1.9303   22.8757 C   0  0  0  0  0  0  0  0  0  0  0  0
   10.2486   -0.7243   24.8579 C   0  0  0  0  0  0  0  0  0  0  0  0
   14.5526    5.3046   21.8353 C   0  0  0  0  0  0  0  0  0  0  0  0
   12.6170   -1.5021   23.4222 N   0  0  0  0  0  0  0  0  0  0  0  0
   13.6333    3.1858   22.5105 N   0  0  0  0  0  0  0  0  0  0  0  0
   12.5419    5.1877   23.1072 O   0  0  0  0  0  0  0  0  0  0  0  0
   12.0527   -2.1799   23.9194 H   0  0  0  0  0  0  0  0  0  0  0  0
   14.4644    2.8631   22.0044 H   0  0  0  0  0  0  0  0  0  0  0  0
  1  2  2  0  0  0  0
  1  4  1  0  0  0  0
  2  6  1  0  0  0  0
  3  5  1  0  0  0  0
  3  6  2  0  0  0  0
  3  8  1  0  0  0  0
  4  5  2  0  0  0  0
  4 11  1  0  0  0  0
  5 13  1  0  0  0  0
  6 14  1  0  0  0  0
  7 12  1  0  0  0  0
  7 14  1  0  0  0  0
  7 15  2  0  0  0  0
  8  9  1  0  0  0  0
  9 10  1  0  0  0  0
 10 13  1  0  0  0  0
 13 16  1  0  0  0  0
 14 17  1  0  0  0  0
M  END
> <ref_mols>
x0089_0

> <original SMILES>
CC(=O)NC=1C=CC(C)=C2NCCCC12

> <Chemgauss4>
-8.175303

> <ref_pdb>
x0195_0

$$$$
x1094
  -OEChem-05172015543D

 15 16  0     0  0  0  0  0  0999 V2000
   13.8869   -0.9952   24.2533 C   0  0  0  0  0  0  0  0  0  0  0  0
   14.4172   -1.5223   23.0735 C   0  0  0  0  0  0  0  0  0  0  0  0
   12.5873   -0.4743   24.2905 C   0  0  0  0  0  0  0  0  0  0  0  0
   13.6712   -1.5487   21.8906 C   0  0  0  0  0  0  0  0  0  0  0  0
   11.8237   -0.4926   23.1111 C   0  0  0  0  0  0  0  0  0  0  0  0
   12.3795   -1.0245   21.9511 C   0  0  0  0  0  0  0  0  0  0  0  0
   10.3152   -0.3048   21.6115 C   0  0  0  0  0  0  0  0  0  0  0  0
    6.8307    0.1755   20.4390 C   0  0  0  0  0  0  0  0  0  0  0  0
    8.1815    2.0490   21.4446 C   0  0  0  0  0  0  0  0  0  0  0  0
    7.9815    0.5426   21.3646 C   0  0  0  0  0  0  0  0  0  0  0  0
   10.5410   -0.0507   22.8810 N   0  0  0  0  0  0  0  0  0  0  0  0
   11.3927   -0.8914   21.0082 N   0  0  0  0  0  0  0  0  0  0  0  0
    9.2119   -0.0728   20.8666 N   0  0  0  0  0  0  0  0  0  0  0  0
   11.4503   -1.1764   20.0397 H   0  0  0  0  0  0  0  0  0  0  0  0
    9.2000   -0.3371   19.8705 H   0  0  0  0  0  0  0  0  0  0  0  0
  1  2  1  0  0  0  0
  1  3  2  0  0  0  0
  2  4  2  0  0  0  0
  3  5  1  0  0  0  0
  4  6  1  0  0  0  0
  5  6  2  0  0  0  0
  5 11  1  0  0  0  0
  6 12  1  0  0  0  0
  7 11  2  0  0  0  0
  7 12  1  0  0  0  0
  7 13  1  0  0  0  0
  8 10  1  0  0  0  0
  9 10  1  0  0  0  0
 10 13  1  0  0  0  0
 12 14  1  0  0  0  0
 13 15  1  0  0  0  0
M  END
> <ref_mols>
x1094_0

> <original SMILES>
CC(C)NC1=NC=2C=CC=CC2N1

> <Chemgauss4>
-8.171877

> <ref_pdb>
x0678_0

$$$$
x0168
  -OEChem-05172015543D

 15 16  0     0  0  0  0  0  0999 V2000
   13.8869   -0.9952   24.2533 C   0  0  0  0  0  0  0  0  0  0  0  0
   14.4172   -1.5223   23.0735 C   0  0  0  0  0  0  0  0  0  0  0  0
   12.5873   -0.4743   24.2905 C   0  0  0  0  0  0  0  0  0  0  0  0
   13.6712   -1.5487   21.8906 C   0  0  0  0  0  0  0  0  0  0  0  0
   11.8237   -0.4926   23.1111 C   0  0  0  0  0  0  0  0  0  0  0  0
   12.3795   -1.0245   21.9511 C   0  0  0  0  0  0  0  0  0  0  0  0
   10.3152   -0.3048   21.6115 C   0  0  0  0  0  0  0  0  0  0  0  0
    6.8307    0.1755   20.4390 C   0  0  0  0  0  0  0  0  0  0  0  0
    8.1815    2.0490   21.4446 C   0  0  0  0  0  0  0  0  0  0  0  0
    7.9815    0.5426   21.3646 C   0  0  0  0  0  0  0  0  0  0  0  0
   10.5410   -0.0507   22.8810 N   0  0  0  0  0  0  0  0  0  0  0  0
   11.3927   -0.8914   21.0082 N   0  0  0  0  0  0  0  0  0  0  0  0
    9.2119   -0.0728   20.8666 N   0  0  0  0  0  0  0  0  0  0  0  0
   11.4503   -1.1764   20.0397 H   0  0  0  0  0  0  0  0  0  0  0  0
    9.2000   -0.3371   19.8705 H   0  0  0  0  0  0  0  0  0  0  0  0
  1  2  1  0  0  0  0
  1  3  2  0  0  0  0
  2  4  2  0  0  0  0
  3  5  1  0  0  0  0
  4  6  1  0  0  0  0
  5  6  2  0  0  0  0
  5 11  1  0  0  0  0
  6 12  1  0  0  0  0
  7 11  2  0  0  0  0
  7 12  1  0  0  0  0
  7 13  1  0  0  0  0
  8 10  1  0  0  0  0
  9 10  1  0  0  0  0
 10 13  1  0  0  0  0
 12 14  1  0  0  0  0
 13 15  1  0  0  0  0
M  END
> <ref_mols>
x0168_0

> <original SMILES>
CC(C)NC1=NC=2C=CC=CC2N1

> <Chemgauss4>
-8.171877

> <ref_pdb>
x0678_0

$$$$
x1130
  -OEChem-05172015543D

 15 15  0     1  0  0  0  0  0999 V2000
   10.9812    2.4539   24.0040 C   0  0  0  0  0  0  0  0  0  0  0  0
   12.9893    2.9012   22.7374 C   0  0  0  0  0  0  0  0  0  0  0  0
   11.2493    1.0863   23.9462 C   0  0  0  0  0  0  0  0  0  0  0  0
   13.2575    1.5336   22.6796 C   0  0  0  0  0  0  0  0  0  0  0  0
   11.8512    3.3614   23.3996 C   0  0  0  0  0  0  0  0  0  0  0  0
   12.3874    0.6262   23.2840 C   0  0  0  0  0  0  0  0  0  0  0  0
   14.6574   -1.8145   22.5366 C   0  0  0  0  0  0  0  0  0  0  0  0
   12.2075    5.5183   24.6699 C   0  0  0  0  0  0  0  0  0  0  0  0
   13.3573   -1.1842   22.0849 C   0  0  0  0  0  0  0  0  0  0  0  0
   11.5651    4.8236   23.4619 C   0  0  1  0  0  0  0  0  0  0  0  0
   12.0019    5.5705   22.2326 N   0  3  0  0  0  0  0  0  0  0  0  0
   12.6495   -0.7083   23.2287 O   0  0  0  0  0  0  0  0  0  0  0  0
   11.6156    5.1266   21.4011 H   0  0  0  0  0  0  0  0  0  0  0  0
   13.0187    5.5677   22.1684 H   0  0  0  0  0  0  0  0  0  0  0  0
   11.6745    6.5342   22.2772 H   0  0  0  0  0  0  0  0  0  0  0  0
  1  3  2  0  0  0  0
  1  5  1  0  0  0  0
  2  4  1  0  0  0  0
  2  5  2  0  0  0  0
  3  6  1  0  0  0  0
  4  6  2  0  0  0  0
  5 10  1  0  0  0  0
  6 12  1  0  0  0  0
  7  9  1  0  0  0  0
  8 10  1  0  0  0  0
  9 12  1  0  0  0  0
 10 11  1  0  0  0  0
 11 13  1  0  0  0  0
 11 14  1  0  0  0  0
 11 15  1  0  0  0  0
M  CHG  1  11   1
M  END
> <ref_mols>
x1130_0

> <original SMILES>
CCOC=1C=CC(=CC1)C(C)N

> <Chemgauss4>
-8.169896

> <ref_pdb>
x0195_0

$$$$
x0275
  -OEChem-05172015543D

 15 15  0     1  0  0  0  0  0999 V2000
   10.9812    2.4539   24.0040 C   0  0  0  0  0  0  0  0  0  0  0  0
   12.9893    2.9012   22.7374 C   0  0  0  0  0  0  0  0  0  0  0  0
   11.2493    1.0863   23.9462 C   0  0  0  0  0  0  0  0  0  0  0  0
   13.2575    1.5336   22.6796 C   0  0  0  0  0  0  0  0  0  0  0  0
   11.8512    3.3614   23.3996 C   0  0  0  0  0  0  0  0  0  0  0  0
   12.3874    0.6262   23.2840 C   0  0  0  0  0  0  0  0  0  0  0  0
   14.6574   -1.8145   22.5366 C   0  0  0  0  0  0  0  0  0  0  0  0
   12.2075    5.5183   24.6699 C   0  0  0  0  0  0  0  0  0  0  0  0
   13.3573   -1.1842   22.0849 C   0  0  0  0  0  0  0  0  0  0  0  0
   11.5651    4.8236   23.4619 C   0  0  1  0  0  0  0  0  0  0  0  0
   12.0019    5.5705   22.2326 N   0  3  0  0  0  0  0  0  0  0  0  0
   12.6495   -0.7083   23.2287 O   0  0  0  0  0  0  0  0  0  0  0  0
   11.6156    5.1266   21.4011 H   0  0  0  0  0  0  0  0  0  0  0  0
   13.0187    5.5677   22.1684 H   0  0  0  0  0  0  0  0  0  0  0  0
   11.6745    6.5342   22.2772 H   0  0  0  0  0  0  0  0  0  0  0  0
  1  3  2  0  0  0  0
  1  5  1  0  0  0  0
  2  4  1  0  0  0  0
  2  5  2  0  0  0  0
  3  6  1  0  0  0  0
  4  6  2  0  0  0  0
  5 10  1  0  0  0  0
  6 12  1  0  0  0  0
  7  9  1  0  0  0  0
  8 10  1  0  0  0  0
  9 12  1  0  0  0  0
 10 11  1  0  0  0  0
 11 13  1  0  0  0  0
 11 14  1  0  0  0  0
 11 15  1  0  0  0  0
M  CHG  1  11   1
M  END
> <ref_mols>
x0275_0

> <original SMILES>
CCOC=1C=CC(=CC1)C(C)N

> <Chemgauss4>
-8.169896

> <ref_pdb>
x0195_0

$$$$
x2587
  -OEChem-05172015543D

 19 20  0     0  0  0  0  0  0999 V2000
    9.2860   -3.3846   24.3770 C   0  0  0  0  0  0  0  0  0  0  0  0
    9.9582   -2.4438   24.0533 C   0  0  0  0  0  0  0  0  0  0  0  0
   10.5860   -0.0932   24.3003 C   0  0  0  0  0  0  0  0  0  0  0  0
   11.7119   -1.4634   22.6596 C   0  0  0  0  0  0  0  0  0  0  0  0
   11.3678    0.9992   23.9245 C   0  0  0  0  0  0  0  0  0  0  0  0
   12.4936   -0.3710   22.2838 C   0  0  0  0  0  0  0  0  0  0  0  0
   10.7581   -1.3245   23.6678 C   0  0  0  0  0  0  0  0  0  0  0  0
   12.3216    0.8603   22.9163 C   0  0  0  0  0  0  0  0  0  0  0  0
   12.5184    4.0095   23.8720 C   0  0  0  0  0  0  0  0  0  0  0  0
   10.5670    5.3060   23.0741 C   0  0  0  0  0  0  0  0  0  0  0  0
   12.1731    6.4577   24.5484 C   0  0  0  0  0  0  0  0  0  0  0  0
    9.4479    5.9928   23.8409 C   0  0  0  0  0  0  0  0  0  0  0  0
   10.9772    7.1114   25.2326 C   0  0  0  0  0  0  0  0  0  0  0  0
   13.1619    2.0365   22.5107 C   0  0  0  0  0  0  0  0  0  0  0  0
   11.7780    5.2035   23.8915 N   0  0  0  0  0  0  0  0  0  0  0  0
   12.4603    3.2885   22.6851 N   0  0  0  0  0  0  0  0  0  0  0  0
   13.1754    3.6140   24.8407 O   0  0  0  0  0  0  0  0  0  0  0  0
    9.8916    7.2646   24.3176 O   0  0  0  0  0  0  0  0  0  0  0  0
   11.9092    3.6517   21.9183 H   0  0  0  0  0  0  0  0  0  0  0  0
  1  2  3  0  0  0  0
  2  7  1  0  0  0  0
  3  5  2  0  0  0  0
  3  7  1  0  0  0  0
  4  6  1  0  0  0  0
  4  7  2  0  0  0  0
  5  8  1  0  0  0  0
  6  8  2  0  0  0  0
  8 14  1  0  0  0  0
  9 15  1  0  0  0  0
  9 16  1  0  0  0  0
  9 17  2  0  0  0  0
 10 12  1  0  0  0  0
 10 15  1  0  0  0  0
 11 13  1  0  0  0  0
 11 15  1  0  0  0  0
 12 18  1  0  0  0  0
 13 18  1  0  0  0  0
 14 16  1  0  0  0  0
 16 19  1  0  0  0  0
M  END
> <ref_mols>
x2587_0

> <original SMILES>
O=C(NCC=1C=CC(C#C)=CC1)N2CCOCC2

> <Chemgauss4>
-8.167992

> <ref_pdb>
x0104_0

$$$$
x1368
  -OEChem-05172015543D

 20 21  0     0  0  0  0  0  0999 V2000
   13.1518    0.1813   24.1703 C   0  0  0  0  0  0  0  0  0  0  0  0
   11.7731    0.3654   24.2736 C   0  0  0  0  0  0  0  0  0  0  0  0
   13.7056   -1.0797   24.3918 C   0  0  0  0  0  0  0  0  0  0  0  0
   10.9480   -0.7113   24.5984 C   0  0  0  0  0  0  0  0  0  0  0  0
   12.8805   -2.1565   24.7166 C   0  0  0  0  0  0  0  0  0  0  0  0
   11.5017   -1.9723   24.8199 C   0  0  0  0  0  0  0  0  0  0  0  0
    6.2728   -4.6431   22.1236 C   0  0  0  0  0  0  0  0  0  0  0  0
    7.9226   -2.9987   22.9586 C   0  0  0  0  0  0  0  0  0  0  0  0
    8.0640   -5.3186   23.7987 C   0  0  0  0  0  0  0  0  0  0  0  0
    9.4275   -2.9914   22.7201 C   0  0  0  0  0  0  0  0  0  0  0  0
    9.5707   -5.3094   23.5639 C   0  0  0  0  0  0  0  0  0  0  0  0
    5.7885   -6.0711   22.1234 C   0  0  0  0  0  0  0  0  0  0  0  0
    7.3902   -4.3629   22.9093 N   0  0  0  0  0  0  0  0  0  0  0  0
   10.1059   -3.9219   23.6666 N   0  0  0  0  0  0  0  0  0  0  0  0
    5.6768   -3.8040   21.4434 O   0  0  0  0  0  0  0  0  0  0  0  0
   11.2513   -4.3094   25.9373 O   0  0  0  0  0  0  0  0  0  0  0  0
    9.2390   -2.7988   25.8105 O   0  0  0  0  0  0  0  0  0  0  0  0
   13.4241   -3.3634   24.9277 F   0  0  0  0  0  0  0  0  0  0  0  0
   10.4528   -3.3315   25.2304 S   0  0  0  0  0  0  0  0  0  0  0  0
    4.6474   -6.2163   23.4555 Cl  0  0  0  0  0  0  0  0  0  0  0  0
  1  2  1  0  0  0  0
  1  3  2  0  0  0  0
  2  4  2  0  0  0  0
  3  5  1  0  0  0  0
  4  6  1  0  0  0  0
  5  6  2  0  0  0  0
  5 18  1  0  0  0  0
  6 19  1  0  0  0  0
  7 12  1  0  0  0  0
  7 13  1  0  0  0  0
  7 15  2  0  0  0  0
  8 10  1  0  0  0  0
  8 13  1  0  0  0  0
  9 11  1  0  0  0  0
  9 13  1  0  0  0  0
 10 14  1  0  0  0  0
 11 14  1  0  0  0  0
 12 20  1  0  0  0  0
 14 19  1  0  0  0  0
 16 19  2  0  0  0  0
 17 19  2  0  0  0  0
M  END
> <ref_mols>
x1368_0

> <original SMILES>
Fc1ccccc1S(=O)(=O)N2CCN(CC2)C(=O)CCl

> <Chemgauss4>
-8.157534

> <ref_pdb>
x0749_0

$$$$
x1487
  -OEChem-05172015543D

 20 21  0     0  0  0  0  0  0999 V2000
   13.1518    0.1813   24.1703 C   0  0  0  0  0  0  0  0  0  0  0  0
   11.7731    0.3654   24.2736 C   0  0  0  0  0  0  0  0  0  0  0  0
   13.7056   -1.0797   24.3918 C   0  0  0  0  0  0  0  0  0  0  0  0
   10.9480   -0.7113   24.5984 C   0  0  0  0  0  0  0  0  0  0  0  0
   12.8805   -2.1565   24.7166 C   0  0  0  0  0  0  0  0  0  0  0  0
   11.5017   -1.9723   24.8199 C   0  0  0  0  0  0  0  0  0  0  0  0
    6.2728   -4.6431   22.1236 C   0  0  0  0  0  0  0  0  0  0  0  0
    7.9226   -2.9987   22.9586 C   0  0  0  0  0  0  0  0  0  0  0  0
    8.0640   -5.3186   23.7987 C   0  0  0  0  0  0  0  0  0  0  0  0
    9.4275   -2.9914   22.7201 C   0  0  0  0  0  0  0  0  0  0  0  0
    9.5707   -5.3094   23.5639 C   0  0  0  0  0  0  0  0  0  0  0  0
    5.7885   -6.0711   22.1234 C   0  0  0  0  0  0  0  0  0  0  0  0
    7.3902   -4.3629   22.9093 N   0  0  0  0  0  0  0  0  0  0  0  0
   10.1059   -3.9219   23.6666 N   0  0  0  0  0  0  0  0  0  0  0  0
    5.6768   -3.8040   21.4434 O   0  0  0  0  0  0  0  0  0  0  0  0
   11.2513   -4.3094   25.9373 O   0  0  0  0  0  0  0  0  0  0  0  0
    9.2390   -2.7988   25.8105 O   0  0  0  0  0  0  0  0  0  0  0  0
   13.4241   -3.3634   24.9277 F   0  0  0  0  0  0  0  0  0  0  0  0
   10.4528   -3.3315   25.2304 S   0  0  0  0  0  0  0  0  0  0  0  0
    4.6474   -6.2163   23.4555 Cl  0  0  0  0  0  0  0  0  0  0  0  0
  1  2  1  0  0  0  0
  1  3  2  0  0  0  0
  2  4  2  0  0  0  0
  3  5  1  0  0  0  0
  4  6  1  0  0  0  0
  5  6  2  0  0  0  0
  5 18  1  0  0  0  0
  6 19  1  0  0  0  0
  7 12  1  0  0  0  0
  7 13  1  0  0  0  0
  7 15  2  0  0  0  0
  8 10  1  0  0  0  0
  8 13  1  0  0  0  0
  9 11  1  0  0  0  0
  9 13  1  0  0  0  0
 10 14  1  0  0  0  0
 11 14  1  0  0  0  0
 12 20  1  0  0  0  0
 14 19  1  0  0  0  0
 16 19  2  0  0  0  0
 17 19  2  0  0  0  0
M  END
> <ref_mols>
x1487_0

> <original SMILES>
Fc1ccccc1S(=O)(=O)N2CCN(CC2)C(=O)CCl

> <Chemgauss4>
-8.157534

> <ref_pdb>
x0749_0

$$$$
x1467
  -OEChem-05172015543D

 20 21  0     0  0  0  0  0  0999 V2000
   13.1518    0.1813   24.1703 C   0  0  0  0  0  0  0  0  0  0  0  0
   11.7731    0.3654   24.2736 C   0  0  0  0  0  0  0  0  0  0  0  0
   13.7056   -1.0797   24.3918 C   0  0  0  0  0  0  0  0  0  0  0  0
   10.9480   -0.7113   24.5984 C   0  0  0  0  0  0  0  0  0  0  0  0
   12.8805   -2.1565   24.7166 C   0  0  0  0  0  0  0  0  0  0  0  0
   11.5017   -1.9723   24.8199 C   0  0  0  0  0  0  0  0  0  0  0  0
    6.2728   -4.6431   22.1236 C   0  0  0  0  0  0  0  0  0  0  0  0
    7.9226   -2.9987   22.9586 C   0  0  0  0  0  0  0  0  0  0  0  0
    8.0640   -5.3186   23.7987 C   0  0  0  0  0  0  0  0  0  0  0  0
    9.4275   -2.9914   22.7201 C   0  0  0  0  0  0  0  0  0  0  0  0
    9.5707   -5.3094   23.5639 C   0  0  0  0  0  0  0  0  0  0  0  0
    5.7885   -6.0711   22.1234 C   0  0  0  0  0  0  0  0  0  0  0  0
    7.3902   -4.3629   22.9093 N   0  0  0  0  0  0  0  0  0  0  0  0
   10.1059   -3.9219   23.6666 N   0  0  0  0  0  0  0  0  0  0  0  0
    5.6768   -3.8040   21.4434 O   0  0  0  0  0  0  0  0  0  0  0  0
   11.2513   -4.3094   25.9373 O   0  0  0  0  0  0  0  0  0  0  0  0
    9.2390   -2.7988   25.8105 O   0  0  0  0  0  0  0  0  0  0  0  0
   13.4241   -3.3634   24.9277 F   0  0  0  0  0  0  0  0  0  0  0  0
   10.4528   -3.3315   25.2304 S   0  0  0  0  0  0  0  0  0  0  0  0
    4.6474   -6.2163   23.4555 Cl  0  0  0  0  0  0  0  0  0  0  0  0
  1  2  1  0  0  0  0
  1  3  2  0  0  0  0
  2  4  2  0  0  0  0
  3  5  1  0  0  0  0
  4  6  1  0  0  0  0
  5  6  2  0  0  0  0
  5 18  1  0  0  0  0
  6 19  1  0  0  0  0
  7 12  1  0  0  0  0
  7 13  1  0  0  0  0
  7 15  2  0  0  0  0
  8 10  1  0  0  0  0
  8 13  1  0  0  0  0
  9 11  1  0  0  0  0
  9 13  1  0  0  0  0
 10 14  1  0  0  0  0
 11 14  1  0  0  0  0
 12 20  1  0  0  0  0
 14 19  1  0  0  0  0
 16 19  2  0  0  0  0
 17 19  2  0  0  0  0
M  END
> <ref_mols>
x1467_0

> <original SMILES>
Fc1ccccc1S(=O)(=O)N2CCN(CC2)C(=O)CCl

> <Chemgauss4>
-8.157534

> <ref_pdb>
x0749_0

$$$$
x0695
  -OEChem-05172015543D

 20 21  0     0  0  0  0  0  0999 V2000
   13.1518    0.1813   24.1703 C   0  0  0  0  0  0  0  0  0  0  0  0
   11.7731    0.3654   24.2736 C   0  0  0  0  0  0  0  0  0  0  0  0
   13.7056   -1.0797   24.3918 C   0  0  0  0  0  0  0  0  0  0  0  0
   10.9480   -0.7113   24.5984 C   0  0  0  0  0  0  0  0  0  0  0  0
   12.8805   -2.1565   24.7166 C   0  0  0  0  0  0  0  0  0  0  0  0
   11.5017   -1.9723   24.8199 C   0  0  0  0  0  0  0  0  0  0  0  0
    6.2728   -4.6431   22.1236 C   0  0  0  0  0  0  0  0  0  0  0  0
    7.9226   -2.9987   22.9586 C   0  0  0  0  0  0  0  0  0  0  0  0
    8.0640   -5.3186   23.7987 C   0  0  0  0  0  0  0  0  0  0  0  0
    9.4275   -2.9914   22.7201 C   0  0  0  0  0  0  0  0  0  0  0  0
    9.5707   -5.3094   23.5639 C   0  0  0  0  0  0  0  0  0  0  0  0
    5.7885   -6.0711   22.1234 C   0  0  0  0  0  0  0  0  0  0  0  0
    7.3902   -4.3629   22.9093 N   0  0  0  0  0  0  0  0  0  0  0  0
   10.1059   -3.9219   23.6666 N   0  0  0  0  0  0  0  0  0  0  0  0
    5.6768   -3.8040   21.4434 O   0  0  0  0  0  0  0  0  0  0  0  0
   11.2513   -4.3094   25.9373 O   0  0  0  0  0  0  0  0  0  0  0  0
    9.2390   -2.7988   25.8105 O   0  0  0  0  0  0  0  0  0  0  0  0
   13.4241   -3.3634   24.9277 F   0  0  0  0  0  0  0  0  0  0  0  0
   10.4528   -3.3315   25.2304 S   0  0  0  0  0  0  0  0  0  0  0  0
    4.6474   -6.2163   23.4555 Cl  0  0  0  0  0  0  0  0  0  0  0  0
  1  2  1  0  0  0  0
  1  3  2  0  0  0  0
  2  4  2  0  0  0  0
  3  5  1  0  0  0  0
  4  6  1  0  0  0  0
  5  6  2  0  0  0  0
  5 18  1  0  0  0  0
  6 19  1  0  0  0  0
  7 12  1  0  0  0  0
  7 13  1  0  0  0  0
  7 15  2  0  0  0  0
  8 10  1  0  0  0  0
  8 13  1  0  0  0  0
  9 11  1  0  0  0  0
  9 13  1  0  0  0  0
 10 14  1  0  0  0  0
 11 14  1  0  0  0  0
 12 20  1  0  0  0  0
 14 19  1  0  0  0  0
 16 19  2  0  0  0  0
 17 19  2  0  0  0  0
M  END
> <ref_mols>
x0695_0

> <original SMILES>
Fc1ccccc1S(=O)(=O)N2CCN(CC2)C(=O)CCl

> <Chemgauss4>
-8.157534

> <ref_pdb>
x0749_0

> <CYS145-warhead dist minimum (A)>
7.4832053

> <CYS145-warhead dist mean (A)>
10.848349

> <CYS145-warhead dist stddev (A)>
0.7625431

$$$$
x1332
  -OEChem-05172015543D

 20 21  0     0  0  0  0  0  0999 V2000
   13.1518    0.1813   24.1703 C   0  0  0  0  0  0  0  0  0  0  0  0
   11.7731    0.3654   24.2736 C   0  0  0  0  0  0  0  0  0  0  0  0
   13.7056   -1.0797   24.3918 C   0  0  0  0  0  0  0  0  0  0  0  0
   10.9480   -0.7113   24.5984 C   0  0  0  0  0  0  0  0  0  0  0  0
   12.8805   -2.1565   24.7166 C   0  0  0  0  0  0  0  0  0  0  0  0
   11.5017   -1.9723   24.8199 C   0  0  0  0  0  0  0  0  0  0  0  0
    6.2728   -4.6431   22.1236 C   0  0  0  0  0  0  0  0  0  0  0  0
    7.9226   -2.9987   22.9586 C   0  0  0  0  0  0  0  0  0  0  0  0
    8.0640   -5.3186   23.7987 C   0  0  0  0  0  0  0  0  0  0  0  0
    9.4275   -2.9914   22.7201 C   0  0  0  0  0  0  0  0  0  0  0  0
    9.5707   -5.3094   23.5639 C   0  0  0  0  0  0  0  0  0  0  0  0
    5.7885   -6.0711   22.1234 C   0  0  0  0  0  0  0  0  0  0  0  0
    7.3902   -4.3629   22.9093 N   0  0  0  0  0  0  0  0  0  0  0  0
   10.1059   -3.9219   23.6666 N   0  0  0  0  0  0  0  0  0  0  0  0
    5.6768   -3.8040   21.4434 O   0  0  0  0  0  0  0  0  0  0  0  0
   11.2513   -4.3094   25.9373 O   0  0  0  0  0  0  0  0  0  0  0  0
    9.2390   -2.7988   25.8105 O   0  0  0  0  0  0  0  0  0  0  0  0
   13.4241   -3.3634   24.9277 F   0  0  0  0  0  0  0  0  0  0  0  0
   10.4528   -3.3315   25.2304 S   0  0  0  0  0  0  0  0  0  0  0  0
    4.6474   -6.2163   23.4555 Cl  0  0  0  0  0  0  0  0  0  0  0  0
  1  2  1  0  0  0  0
  1  3  2  0  0  0  0
  2  4  2  0  0  0  0
  3  5  1  0  0  0  0
  4  6  1  0  0  0  0
  5  6  2  0  0  0  0
  5 18  1  0  0  0  0
  6 19  1  0  0  0  0
  7 12  1  0  0  0  0
  7 13  1  0  0  0  0
  7 15  2  0  0  0  0
  8 10  1  0  0  0  0
  8 13  1  0  0  0  0
  9 11  1  0  0  0  0
  9 13  1  0  0  0  0
 10 14  1  0  0  0  0
 11 14  1  0  0  0  0
 12 20  1  0  0  0  0
 14 19  1  0  0  0  0
 16 19  2  0  0  0  0
 17 19  2  0  0  0  0
M  END
> <ref_mols>
x1332_0

> <original SMILES>
Fc1ccccc1S(=O)(=O)N2CCN(CC2)C(=O)CCl

> <Chemgauss4>
-8.157534

> <ref_pdb>
x0749_0

$$$$
x0769
  -OEChem-05172015543D

 20 21  0     0  0  0  0  0  0999 V2000
   13.1518    0.1813   24.1703 C   0  0  0  0  0  0  0  0  0  0  0  0
   11.7731    0.3654   24.2736 C   0  0  0  0  0  0  0  0  0  0  0  0
   13.7056   -1.0797   24.3918 C   0  0  0  0  0  0  0  0  0  0  0  0
   10.9480   -0.7113   24.5984 C   0  0  0  0  0  0  0  0  0  0  0  0
   12.8805   -2.1565   24.7166 C   0  0  0  0  0  0  0  0  0  0  0  0
   11.5017   -1.9723   24.8199 C   0  0  0  0  0  0  0  0  0  0  0  0
    6.2728   -4.6431   22.1236 C   0  0  0  0  0  0  0  0  0  0  0  0
    7.9226   -2.9987   22.9586 C   0  0  0  0  0  0  0  0  0  0  0  0
    8.0640   -5.3186   23.7987 C   0  0  0  0  0  0  0  0  0  0  0  0
    9.4275   -2.9914   22.7201 C   0  0  0  0  0  0  0  0  0  0  0  0
    9.5707   -5.3094   23.5639 C   0  0  0  0  0  0  0  0  0  0  0  0
    5.7885   -6.0711   22.1234 C   0  0  0  0  0  0  0  0  0  0  0  0
    7.3902   -4.3629   22.9093 N   0  0  0  0  0  0  0  0  0  0  0  0
   10.1059   -3.9219   23.6666 N   0  0  0  0  0  0  0  0  0  0  0  0
    5.6768   -3.8040   21.4434 O   0  0  0  0  0  0  0  0  0  0  0  0
   11.2513   -4.3094   25.9373 O   0  0  0  0  0  0  0  0  0  0  0  0
    9.2390   -2.7988   25.8105 O   0  0  0  0  0  0  0  0  0  0  0  0
   13.4241   -3.3634   24.9277 F   0  0  0  0  0  0  0  0  0  0  0  0
   10.4528   -3.3315   25.2304 S   0  0  0  0  0  0  0  0  0  0  0  0
    4.6474   -6.2163   23.4555 Cl  0  0  0  0  0  0  0  0  0  0  0  0
  1  2  1  0  0  0  0
  1  3  2  0  0  0  0
  2  4  2  0  0  0  0
  3  5  1  0  0  0  0
  4  6  1  0  0  0  0
  5  6  2  0  0  0  0
  5 18  1  0  0  0  0
  6 19  1  0  0  0  0
  7 12  1  0  0  0  0
  7 13  1  0  0  0  0
  7 15  2  0  0  0  0
  8 10  1  0  0  0  0
  8 13  1  0  0  0  0
  9 11  1  0  0  0  0
  9 13  1  0  0  0  0
 10 14  1  0  0  0  0
 11 14  1  0  0  0  0
 12 20  1  0  0  0  0
 14 19  1  0  0  0  0
 16 19  2  0  0  0  0
 17 19  2  0  0  0  0
M  END
> <ref_mols>
x0769_0

> <original SMILES>
Fc1ccccc1S(=O)(=O)N2CCN(CC2)C(=O)CCl

> <Chemgauss4>
-8.157534

> <ref_pdb>
x0749_0

$$$$
x0213
  -OEChem-05172015543D

 16 17  0     0  0  0  0  0  0999 V2000
    4.3617    1.4983   19.5481 C   0  0  0  0  0  0  0  0  0  0  0  0
    3.8621    1.8187   20.8101 C   0  0  0  0  0  0  0  0  0  0  0  0
    5.6184    0.9062   19.4508 C   0  0  0  0  0  0  0  0  0  0  0  0
    6.3751    0.6324   20.5819 C   0  0  0  0  0  0  0  0  0  0  0  0
    4.6167    1.5468   21.9548 C   0  0  0  0  0  0  0  0  0  0  0  0
    5.8762    0.9526   21.8451 C   0  0  0  0  0  0  0  0  0  0  0  0
    6.1826    0.5529   18.1542 C   0  0  0  0  0  0  0  0  0  0  0  0
    7.6952    0.0052   20.4058 C   0  0  0  0  0  0  0  0  0  0  0  0
    4.3991    3.1696   23.6796 C   0  0  0  0  0  0  0  0  0  0  0  0
    6.3771   -0.5641   23.6070 C   0  0  0  0  0  0  0  0  0  0  0  0
    7.3425    0.0009   17.9925 N   0  0  0  0  0  0  0  0  0  0  0  0
    8.0762   -0.2634   19.1046 N   0  0  0  0  0  0  0  0  0  0  0  0
    8.4122   -0.2609   21.3657 O   0  0  0  0  0  0  0  0  0  0  0  0
    4.1060    1.8678   23.1775 O   0  0  0  0  0  0  0  0  0  0  0  0
    6.5793    0.7033   22.9857 O   0  0  0  0  0  0  0  0  0  0  0  0
    8.9754   -0.6955   18.9174 H   0  0  0  0  0  0  0  0  0  0  0  0
  1  2  2  0  0  0  0
  1  3  1  0  0  0  0
  2  5  1  0  0  0  0
  3  4  2  0  0  0  0
  3  7  1  0  0  0  0
  4  6  1  0  0  0  0
  4  8  1  0  0  0  0
  5  6  2  0  0  0  0
  5 14  1  0  0  0  0
  6 15  1  0  0  0  0
  7 11  2  0  0  0  0
  8 12  1  0  0  0  0
  8 13  2  0  0  0  0
  9 14  1  0  0  0  0
 10 15  1  0  0  0  0
 11 12  1  0  0  0  0
 12 16  1  0  0  0  0
M  END
> <ref_mols>
x0213_0

> <original SMILES>
COC=1C=CC=2C=NNC(=O)C2C1OC

> <Chemgauss4>
-8.156851

> <ref_pdb>
x0540_0

$$$$
x0239
  -OEChem-05172015543D

 19 20  0     0  0  0  0  0  0999 V2000
   14.2267   -1.0010   24.0036 C   0  0  0  0  0  0  0  0  0  0  0  0
   14.2929   -1.7425   22.8240 C   0  0  0  0  0  0  0  0  0  0  0  0
   12.9884   -0.6103   24.5132 C   0  0  0  0  0  0  0  0  0  0  0  0
   13.1209   -2.0931   22.1539 C   0  0  0  0  0  0  0  0  0  0  0  0
   11.8163   -0.9609   23.8431 C   0  0  0  0  0  0  0  0  0  0  0  0
   11.8826   -1.7024   22.6634 C   0  0  0  0  0  0  0  0  0  0  0  0
    7.8892   -1.1955   21.4863 C   0  0  0  0  0  0  0  0  0  0  0  0
    8.9199   -0.8587   20.6999 C   0  0  0  0  0  0  0  0  0  0  0  0
    8.6107   -0.1766   19.4048 C   0  0  0  0  0  0  0  0  0  0  0  0
    6.2001   -0.3201   19.9881 C   0  0  0  0  0  0  0  0  0  0  0  0
   10.6207   -2.0793   21.9425 C   0  0  0  0  0  0  0  0  0  0  0  0
    6.5844   -0.9462   21.1622 N   0  0  0  0  0  0  0  0  0  0  0  0
    7.2612    0.0381   19.1552 N   0  0  0  0  0  0  0  0  0  0  0  0
   10.2344   -1.0850   20.9780 N   0  0  0  0  0  0  0  0  0  0  0  0
    9.5020    0.1616   18.6292 O   0  0  0  0  0  0  0  0  0  0  0  0
    5.0237   -0.0979   19.7006 O   0  0  0  0  0  0  0  0  0  0  0  0
    5.8612   -1.2344   21.8146 H   0  0  0  0  0  0  0  0  0  0  0  0
    7.0237    0.5006   18.2821 H   0  0  0  0  0  0  0  0  0  0  0  0
   10.8997   -0.5358   20.4863 H   0  0  0  0  0  0  0  0  0  0  0  0
  1  2  1  0  0  0  0
  1  3  2  0  0  0  0
  2  4  2  0  0  0  0
  3  5  1  0  0  0  0
  4  6  1  0  0  0  0
  5  6  2  0  0  0  0
  6 11  1  0  0  0  0
  7  8  2  0  0  0  0
  7 12  1  0  0  0  0
  8  9  1  0  0  0  0
  8 14  1  0  0  0  0
  9 13  1  0  0  0  0
  9 15  2  0  0  0  0
 10 12  1  0  0  0  0
 10 13  1  0  0  0  0
 10 16  2  0  0  0  0
 11 14  1  0  0  0  0
 12 17  1  0  0  0  0
 13 18  1  0  0  0  0
 14 19  1  0  0  0  0
M  END
> <ref_mols>
x0239_0

> <original SMILES>
O=C1NC=C(NCC=2C=CC=CC2)C(=O)N1

> <Chemgauss4>
-8.155928

> <ref_pdb>
x0678_0

$$$$
x1244
  -OEChem-05172015543D

 19 20  0     0  0  0  0  0  0999 V2000
   14.2267   -1.0010   24.0036 C   0  0  0  0  0  0  0  0  0  0  0  0
   14.2929   -1.7425   22.8240 C   0  0  0  0  0  0  0  0  0  0  0  0
   12.9884   -0.6103   24.5132 C   0  0  0  0  0  0  0  0  0  0  0  0
   13.1209   -2.0931   22.1539 C   0  0  0  0  0  0  0  0  0  0  0  0
   11.8163   -0.9609   23.8431 C   0  0  0  0  0  0  0  0  0  0  0  0
   11.8826   -1.7024   22.6634 C   0  0  0  0  0  0  0  0  0  0  0  0
    7.8892   -1.1955   21.4863 C   0  0  0  0  0  0  0  0  0  0  0  0
    8.9199   -0.8587   20.6999 C   0  0  0  0  0  0  0  0  0  0  0  0
    8.6107   -0.1766   19.4048 C   0  0  0  0  0  0  0  0  0  0  0  0
    6.2001   -0.3201   19.9881 C   0  0  0  0  0  0  0  0  0  0  0  0
   10.6207   -2.0793   21.9425 C   0  0  0  0  0  0  0  0  0  0  0  0
    6.5844   -0.9462   21.1622 N   0  0  0  0  0  0  0  0  0  0  0  0
    7.2612    0.0381   19.1552 N   0  0  0  0  0  0  0  0  0  0  0  0
   10.2344   -1.0850   20.9780 N   0  0  0  0  0  0  0  0  0  0  0  0
    9.5020    0.1616   18.6292 O   0  0  0  0  0  0  0  0  0  0  0  0
    5.0237   -0.0979   19.7006 O   0  0  0  0  0  0  0  0  0  0  0  0
    5.8612   -1.2344   21.8146 H   0  0  0  0  0  0  0  0  0  0  0  0
    7.0237    0.5006   18.2821 H   0  0  0  0  0  0  0  0  0  0  0  0
   10.8997   -0.5358   20.4863 H   0  0  0  0  0  0  0  0  0  0  0  0
  1  2  1  0  0  0  0
  1  3  2  0  0  0  0
  2  4  2  0  0  0  0
  3  5  1  0  0  0  0
  4  6  1  0  0  0  0
  5  6  2  0  0  0  0
  6 11  1  0  0  0  0
  7  8  2  0  0  0  0
  7 12  1  0  0  0  0
  8  9  1  0  0  0  0
  8 14  1  0  0  0  0
  9 13  1  0  0  0  0
  9 15  2  0  0  0  0
 10 12  1  0  0  0  0
 10 13  1  0  0  0  0
 10 16  2  0  0  0  0
 11 14  1  0  0  0  0
 12 17  1  0  0  0  0
 13 18  1  0  0  0  0
 14 19  1  0  0  0  0
M  END
> <ref_mols>
x1244_0

> <original SMILES>
O=C1NC=C(NCC=2C=CC=CC2)C(=O)N1

> <Chemgauss4>
-8.155928

> <ref_pdb>
x0678_0

$$$$
x0452
  -OEChem-05172015543D

 16 17  0     0  0  0  0  0  0999 V2000
   13.7164   -1.6769   22.7615 C   0  0  0  0  0  0  0  0  0  0  0  0
   12.3881   -2.1219   22.9631 C   0  0  0  0  0  0  0  0  0  0  0  0
    8.5677   -0.0851   19.0380 C   0  0  0  0  0  0  0  0  0  0  0  0
    6.5234    0.4423   19.6523 C   0  0  0  0  0  0  0  0  0  0  0  0
   13.6702   -0.8057   21.6981 C   0  0  0  0  0  0  0  0  0  0  0  0
    7.7281    0.0245   20.1627 C   0  0  0  0  0  0  0  0  0  0  0  0
   11.6248   -1.4908   22.0085 C   0  0  0  0  0  0  0  0  0  0  0  0
   10.1703   -1.5505   21.7118 C   0  0  0  0  0  0  0  0  0  0  0  0
    5.7188    0.9630   17.3371 C   0  0  0  0  0  0  0  0  0  0  0  0
    8.0626   -0.2492   21.5693 C   0  0  0  0  0  0  0  0  0  0  0  0
    7.9487    0.2369   17.8991 N   0  0  0  0  0  0  0  0  0  0  0  0
    6.7073    0.5530   18.3055 N   0  0  0  0  0  0  0  0  0  0  0  0
    9.4885   -0.3496   21.8045 N   0  0  0  0  0  0  0  0  0  0  0  0
    9.6595   -2.6310   21.4288 O   0  0  0  0  0  0  0  0  0  0  0  0
   12.3988   -0.6866   21.2335 O   0  0  0  0  0  0  0  0  0  0  0  0
    9.9637    0.4932   22.1051 H   0  0  0  0  0  0  0  0  0  0  0  0
  1  2  1  0  0  0  0
  1  5  2  0  0  0  0
  2  7  2  0  0  0  0
  3  6  1  0  0  0  0
  3 11  2  0  0  0  0
  4  6  2  0  0  0  0
  4 12  1  0  0  0  0
  5 15  1  0  0  0  0
  6 10  1  0  0  0  0
  7  8  1  0  0  0  0
  7 15  1  0  0  0  0
  8 13  1  0  0  0  0
  8 14  2  0  0  0  0
  9 12  1  0  0  0  0
 10 13  1  0  0  0  0
 11 12  1  0  0  0  0
 13 16  1  0  0  0  0
M  END
> <ref_mols>
x0452_0

> <original SMILES>
CN1C=C(CNC(=O)C2=CC=CO2)C=N1

> <Chemgauss4>
-8.154411

> <ref_pdb>
x0678_0

$$$$
x0890
  -OEChem-05172015543D

 18 19  0     1  0  0  0  0  0999 V2000
   10.9492    2.9066   24.4242 C   0  0  0  0  0  0  0  0  0  0  0  0
   11.5112    1.6531   24.1824 C   0  0  0  0  0  0  0  0  0  0  0  0
   11.4449    4.0320   23.7658 C   0  0  0  0  0  0  0  0  0  0  0  0
   13.0649    2.6503   22.6240 C   0  0  0  0  0  0  0  0  0  0  0  0
   12.5690    1.5250   23.2824 C   0  0  0  0  0  0  0  0  0  0  0  0
   12.5028    3.9038   22.8657 C   0  0  0  0  0  0  0  0  0  0  0  0
   11.0030   -0.9758   22.4311 C   0  0  0  0  0  0  0  0  0  0  0  0
   13.8538    0.0021   21.6416 C   0  0  0  0  0  0  0  0  0  0  0  0
   14.1044   -1.4630   21.2871 C   0  0  0  0  0  0  0  0  0  0  0  0
   12.9291   -2.3610   23.1425 C   0  0  0  0  0  0  0  0  0  0  0  0
   13.1815    0.1595   23.0195 C   0  0  2  0  0  0  0  0  0  0  0  0
   12.2215   -1.0072   23.3129 C   0  0  1  0  0  0  0  0  0  0  0  0
   14.0688    4.7993   21.3160 C   0  0  0  0  0  0  0  0  0  0  0  0
    8.9825   -2.1136   21.9762 C   0  0  0  0  0  0  0  0  0  0  0  0
   10.8003   -0.1280   21.5725 O   0  0  0  0  0  0  0  0  0  0  0  0
   14.1841   -2.2613   22.4617 O   0  0  0  0  0  0  0  0  0  0  0  0
   12.9861    5.0020   22.2228 O   0  0  0  0  0  0  0  0  0  0  0  0
   10.1870   -2.0225   22.7437 O   0  0  0  0  0  0  0  0  0  0  0  0
  1  2  2  0  0  0  0
  1  3  1  0  0  0  0
  2  5  1  0  0  0  0
  3  6  2  0  0  0  0
  4  5  2  0  0  0  0
  4  6  1  0  0  0  0
  5 11  1  0  0  0  0
  6 17  1  0  0  0  0
  7 12  1  0  0  0  0
  7 15  2  0  0  0  0
  7 18  1  0  0  0  0
  8  9  1  0  0  0  0
  8 11  1  0  0  0  0
  9 16  1  0  0  0  0
 10 12  1  0  0  0  0
 10 16  1  0  0  0  0
 11 12  1  0  0  0  0
 13 17  1  0  0  0  0
 14 18  1  0  0  0  0
M  END
> <ref_mols>
x0890_0

> <original SMILES>
COC1=CC([C@H]2[C@@H](C(OC)=O)COCC2)=CC=C1

> <Chemgauss4>
-8.153377

> <ref_pdb>
x0195_0

$$$$
x0208
  -OEChem-05172015543D

 14 14  0     0  0  0  0  0  0999 V2000
   10.8808   -1.3707   23.6033 C   0  0  0  0  0  0  0  0  0  0  0  0
   10.8935   -0.0119   23.9184 C   0  0  0  0  0  0  0  0  0  0  0  0
   11.9533   -1.9370   22.9143 C   0  0  0  0  0  0  0  0  0  0  0  0
   11.9787    0.7806   23.5443 C   0  0  0  0  0  0  0  0  0  0  0  0
   13.0385   -1.1445   22.5403 C   0  0  0  0  0  0  0  0  0  0  0  0
   13.0513    0.2143   22.8553 C   0  0  0  0  0  0  0  0  0  0  0  0
   13.2481    4.2340   22.9753 C   0  0  0  0  0  0  0  0  0  0  0  0
   14.1763   -1.7726   21.8042 C   0  0  0  0  0  0  0  0  0  0  0  0
   12.1094    5.0133   23.5447 C   0  0  0  0  0  0  0  0  0  0  0  0
   14.2017    1.0829   22.4647 C   0  0  0  0  0  0  0  0  0  0  0  0
   13.8017    2.2601   21.5681 C   0  0  0  0  0  0  0  0  0  0  0  0
   12.8658    3.1437   22.2103 N   0  0  0  0  0  0  0  0  0  0  0  0
   14.3982    4.5886   23.2058 O   0  0  0  0  0  0  0  0  0  0  0  0
   11.8705    2.9583   22.0968 H   0  0  0  0  0  0  0  0  0  0  0  0
  1  2  1  0  0  0  0
  1  3  2  0  0  0  0
  2  4  2  0  0  0  0
  3  5  1  0  0  0  0
  4  6  1  0  0  0  0
  5  6  2  0  0  0  0
  5  8  1  0  0  0  0
  6 10  1  0  0  0  0
  7  9  1  0  0  0  0
  7 12  1  0  0  0  0
  7 13  2  0  0  0  0
 10 11  1  0  0  0  0
 11 12  1  0  0  0  0
 12 14  1  0  0  0  0
M  END
> <ref_mols>
x0208_0

> <original SMILES>
CC(=O)NCCC=1C=CC=CC1C

> <Chemgauss4>
-8.153120

> <ref_pdb>
x0195_0

$$$$
x0354
  -OEChem-05172015543D

 19 20  0     0  0  0  0  0  0999 V2000
   10.2808   -2.4659   22.8015 C   0  0  0  0  0  0  0  0  0  0  0  0
    9.2335   -1.4515   24.7280 C   0  0  0  0  0  0  0  0  0  0  0  0
   11.3478   -1.5744   22.9121 C   0  0  0  0  0  0  0  0  0  0  0  0
   10.3006   -0.5600   24.8387 C   0  0  0  0  0  0  0  0  0  0  0  0
    9.2236   -2.4044   23.7095 C   0  0  0  0  0  0  0  0  0  0  0  0
   11.3577   -0.6214   23.9307 C   0  0  0  0  0  0  0  0  0  0  0  0
   13.6205    2.0152   22.9792 C   0  0  0  0  0  0  0  0  0  0  0  0
   11.3274    2.9019   22.7020 C   0  0  0  0  0  0  0  0  0  0  0  0
   13.2107    4.3176   21.9796 C   0  0  0  0  0  0  0  0  0  0  0  0
   10.7178    4.0675   23.4671 C   0  0  0  0  0  0  0  0  0  0  0  0
   12.6281    5.5059   22.7328 C   0  0  0  0  0  0  0  0  0  0  0  0
    8.0830   -3.3579   23.5917 C   0  0  0  0  0  0  0  0  0  0  0  0
   10.4769    6.5528   23.4481 C   0  0  0  0  0  0  0  0  0  0  0  0
   13.0763    0.6151   22.8476 C   0  0  0  0  0  0  0  0  0  0  0  0
   12.7777    3.0525   22.5824 N   0  0  0  0  0  0  0  0  0  0  0  0
   11.1241    5.3620   22.7988 N   0  3  0  0  0  0  0  0  0  0  0  0
   14.7613    2.1798   23.4190 O   0  0  0  0  0  0  0  0  0  0  0  0
   12.4099    0.2561   24.0403 O   0  0  0  0  0  0  0  0  0  0  0  0
   10.7758    5.3313   21.8306 H   0  0  0  0  0  0  0  0  0  0  0  0
  1  3  2  0  0  0  0
  1  5  1  0  0  0  0
  2  4  1  0  0  0  0
  2  5  2  0  0  0  0
  3  6  1  0  0  0  0
  4  6  2  0  0  0  0
  5 12  1  0  0  0  0
  6 18  1  0  0  0  0
  7 14  1  0  0  0  0
  7 15  1  0  0  0  0
  7 17  2  0  0  0  0
  8 10  1  0  0  0  0
  8 15  1  0  0  0  0
  9 11  1  0  0  0  0
  9 15  1  0  0  0  0
 10 16  1  0  0  0  0
 11 16  1  0  0  0  0
 13 16  1  0  0  0  0
 14 18  1  0  0  0  0
 16 19  1  0  0  0  0
M  CHG  1  16   1
M  END
> <ref_mols>
x0354_0

> <original SMILES>
CN1CCN(CC1)C(=O)COC=2C=CC(C)=CC2

> <Chemgauss4>
-8.151998

> <ref_pdb>
x0104_0

$$$$
x0429
  -OEChem-05172015543D

 15 16  0     1  0  0  0  0  0999 V2000
   12.7796   -2.1145   22.6056 C   0  0  0  0  0  0  0  0  0  0  0  0
   13.8777   -1.3238   22.2861 C   0  0  0  0  0  0  0  0  0  0  0  0
   11.6464   -1.4840   23.0935 C   0  0  0  0  0  0  0  0  0  0  0  0
   13.8101    0.0539   22.4618 C   0  0  0  0  0  0  0  0  0  0  0  0
   12.6306    0.5873   22.9559 C   0  0  0  0  0  0  0  0  0  0  0  0
   13.3985    4.2675   22.6064 C   0  0  0  0  0  0  0  0  0  0  0  0
   13.7283    2.7971   22.7922 C   0  0  0  0  0  0  0  0  0  0  0  0
   11.6387    2.5406   24.0859 C   0  0  0  0  0  0  0  0  0  0  0  0
   11.1048    3.8333   23.5062 C   0  0  0  0  0  0  0  0  0  0  0  0
   11.7956    6.1240   22.8811 C   0  0  0  0  0  0  0  0  0  0  0  0
   11.5432   -0.1487   23.2776 N   0  0  0  0  0  0  0  0  0  0  0  0
   12.5753    1.9718   23.1279 N   0  0  2  0  0  0  0  0  0  0  0  0
   12.1614    4.7234   23.0439 N   0  0  0  0  0  0  0  0  0  0  0  0
   14.2614    5.0024   22.1138 O   0  0  0  0  0  0  0  0  0  0  0  0
   14.8605    0.8275   22.1595 F   0  0  0  0  0  0  0  0  0  0  0  0
  1  2  2  0  0  0  0
  1  3  1  0  0  0  0
  2  4  1  0  0  0  0
  3 11  2  0  0  0  0
  4  5  2  0  0  0  0
  4 15  1  0  0  0  0
  5 11  1  0  0  0  0
  5 12  1  0  0  0  0
  6  7  1  0  0  0  0
  6 13  1  0  0  0  0
  6 14  2  0  0  0  0
  7 12  1  0  0  0  0
  8  9  1  0  0  0  0
  8 12  1  0  0  0  0
  9 13  1  0  0  0  0
 10 13  1  0  0  0  0
M  END
> <ref_mols>
x0429_0

> <original SMILES>
CN1CCN(CC1=O)C=2N=CC=CC2F

> <Chemgauss4>
-8.149520

> <ref_pdb>
x0195_0

$$$$
x0055
  -OEChem-05172015543D

 16 17  0     1  0  0  0  0  0999 V2000
   11.7937   -0.4143   22.7077 C   0  0  0  0  0  0  0  0  0  0  0  0
   11.6525    1.7461   23.0085 C   0  0  0  0  0  0  0  0  0  0  0  0
   12.4855   -1.6535   22.6083 C   0  0  0  0  0  0  0  0  0  0  0  0
   13.8240   -1.6772   22.7642 C   0  0  0  0  0  0  0  0  0  0  0  0
   14.5822   -0.4630   23.0325 C   0  0  0  0  0  0  0  0  0  0  0  0
   13.9299    0.7078   23.1265 C   0  0  0  0  0  0  0  0  0  0  0  0
   13.7209    3.8464   21.5701 C   0  0  0  0  0  0  0  0  0  0  0  0
   13.8985    4.6247   20.3088 C   0  0  0  0  0  0  0  0  0  0  0  0
   10.9431    3.9714   23.9764 C   0  0  0  0  0  0  0  0  0  0  0  0
   12.0325    3.1499   23.2574 C   0  0  2  0  0  0  0  0  0  0  0  0
   10.5260   -0.0756   22.6070 N   0  0  0  0  0  0  0  0  0  0  0  0
   10.4382    1.2894   22.7972 N   0  0  0  0  0  0  0  0  0  0  0  0
   12.5504    0.7184   22.9641 N   0  0  0  0  0  0  0  0  0  0  0  0
   12.4294    3.8495   22.0399 N   0  0  0  0  0  0  0  0  0  0  0  0
   14.6864    3.2853   22.0749 O   0  0  0  0  0  0  0  0  0  0  0  0
   11.7270    4.3562   21.5217 H   0  0  0  0  0  0  0  0  0  0  0  0
  1  3  1  0  0  0  0
  1 11  2  0  0  0  0
  1 13  1  0  0  0  0
  2 10  1  0  0  0  0
  2 12  2  0  0  0  0
  2 13  1  0  0  0  0
  3  4  2  0  0  0  0
  4  5  1  0  0  0  0
  5  6  2  0  0  0  0
  6 13  1  0  0  0  0
  7  8  1  0  0  0  0
  7 14  1  0  0  0  0
  7 15  2  0  0  0  0
  9 10  1  0  0  0  0
 10 14  1  0  0  0  0
 11 12  1  0  0  0  0
 14 16  1  0  0  0  0
M  END
> <ref_mols>
x0055_0

> <original SMILES>
CC(NC(=O)C)C1=NN=C2C=CC=CN12

> <Chemgauss4>
-8.147388

> <ref_pdb>
x0195_0

$$$$
x0585
  -OEChem-05172015543D

 14 14  0     0  0  0  0  0  0999 V2000
   13.3803   -1.9943   26.0905 C   0  0  0  0  0  0  0  0  0  0  0  0
    9.0429   -5.6721   23.7995 C   0  0  0  0  0  0  0  0  0  0  0  0
    9.2924   -3.4421   22.9039 C   0  0  0  0  0  0  0  0  0  0  0  0
    7.9992   -5.9140   22.9064 C   0  0  0  0  0  0  0  0  0  0  0  0
    8.2487   -3.6841   22.0107 C   0  0  0  0  0  0  0  0  0  0  0  0
    9.6895   -4.4361   23.7983 C   0  0  0  0  0  0  0  0  0  0  0  0
    7.6021   -4.9201   22.0119 C   0  0  0  0  0  0  0  0  0  0  0  0
   11.4985   -3.0246   24.8392 C   0  0  0  0  0  0  0  0  0  0  0  0
   12.5391   -3.1860   25.9344 C   0  0  0  0  0  0  0  0  0  0  0  0
   14.0481   -1.0537   26.2172 N   0  0  0  0  0  0  0  0  0  0  0  0
   10.7336   -4.1943   24.6913 N   0  0  0  0  0  0  0  0  0  0  0  0
   11.3810   -1.9873   24.1944 O   0  0  0  0  0  0  0  0  0  0  0  0
    6.3142   -5.2188   20.9098 Cl  0  0  0  0  0  0  0  0  0  0  0  0
   10.9792   -4.9651   25.3235 H   0  0  0  0  0  0  0  0  0  0  0  0
  1  9  1  0  0  0  0
  1 10  3  0  0  0  0
  2  4  2  0  0  0  0
  2  6  1  0  0  0  0
  3  5  1  0  0  0  0
  3  6  2  0  0  0  0
  4  7  1  0  0  0  0
  5  7  2  0  0  0  0
  6 11  1  0  0  0  0
  7 13  1  0  0  0  0
  8  9  1  0  0  0  0
  8 11  1  0  0  0  0
  8 12  2  0  0  0  0
 11 14  1  0  0  0  0
M  END
> <ref_mols>
x0585_0

> <original SMILES>
ClC=1C=CC(NC(=O)CC#N)=CC1

> <Chemgauss4>
-8.147179

> <ref_pdb>
x0749_0

> <CYS145-warhead dist minimum (A)>
15.448675

> <CYS145-warhead dist mean (A)>
17.281786

> <CYS145-warhead dist stddev (A)>
0.77633107

$$$$
x0905
  -OEChem-05172015543D

 18 19  0     1  0  0  0  0  0999 V2000
   12.8874    0.9472   23.7437 C   0  0  0  0  0  0  0  0  0  0  0  0
   13.2885   -0.3134   23.3014 C   0  0  0  0  0  0  0  0  0  0  0  0
   11.5456    1.3199   23.6641 C   0  0  0  0  0  0  0  0  0  0  0  0
   12.3478   -1.2012   22.7793 C   0  0  0  0  0  0  0  0  0  0  0  0
   10.6049    0.4322   23.1420 C   0  0  0  0  0  0  0  0  0  0  0  0
   11.0060   -0.8284   22.6996 C   0  0  0  0  0  0  0  0  0  0  0  0
    8.8595   -2.0935   24.3891 C   0  0  0  0  0  0  0  0  0  0  0  0
    6.5926   -2.2958   20.7020 C   0  0  0  0  0  0  0  0  0  0  0  0
    8.7632   -1.1899   21.4215 C   0  0  0  0  0  0  0  0  0  0  0  0
    8.1381   -3.3187   22.3573 C   0  0  0  0  0  0  0  0  0  0  0  0
    9.9849   -1.7911   22.1330 C   0  0  2  0  0  0  0  0  0  0  0  0
    9.3331   -2.7709   23.1335 C   0  0  1  0  0  0  0  0  0  0  0  0
    6.3423   -1.1093   19.8061 C   0  0  0  0  0  0  0  0  0  0  0  0
    7.7289   -2.4891   26.4261 C   0  0  0  0  0  0  0  0  0  0  0  0
    7.7671   -2.2564   21.4323 N   0  0  0  0  0  0  0  0  0  0  0  0
    9.0253   -0.9056   24.6311 O   0  0  0  0  0  0  0  0  0  0  0  0
    5.7833   -3.2238   20.7482 O   0  0  0  0  0  0  0  0  0  0  0  0
    8.2324   -3.0025   25.1888 O   0  0  0  0  0  0  0  0  0  0  0  0
  1  2  1  0  0  0  0
  1  3  2  0  0  0  0
  2  4  2  0  0  0  0
  3  5  1  0  0  0  0
  4  6  1  0  0  0  0
  5  6  2  0  0  0  0
  6 11  1  0  0  0  0
  7 12  1  0  0  0  0
  7 16  2  0  0  0  0
  7 18  1  0  0  0  0
  8 13  1  0  0  0  0
  8 15  1  0  0  0  0
  8 17  2  0  0  0  0
  9 11  1  0  0  0  0
  9 15  1  0  0  0  0
 10 12  1  0  0  0  0
 10 15  1  0  0  0  0
 11 12  1  0  0  0  0
 14 18  1  0  0  0  0
M  END
> <ref_mols>
x0905_0

> <original SMILES>
O=C(N1C[C@H](C(OC)=O)[C@H](C2=CC=CC=C2)C1)C

> <Chemgauss4>
-8.146653

> <ref_pdb>
x0708_0

$$$$
x0918
  -OEChem-05172015543D

 18 18  0     1  0  0  0  0  0999 V2000
   10.8091    1.7238   22.0103 C   0  0  0  0  0  0  0  0  0  0  0  0
    9.3300   -0.8655   22.8507 C   0  0  0  0  0  0  0  0  0  0  0  0
   12.9348   -0.6132   22.0721 C   0  0  0  0  0  0  0  0  0  0  0  0
   12.7662    0.5597   23.0337 C   0  0  0  0  0  0  0  0  0  0  0  0
   11.7167   -1.4729   22.3524 C   0  0  0  0  0  0  0  0  0  0  0  0
   11.2439    0.7787   23.0993 C   0  0  1  0  0  0  0  0  0  0  0  0
   10.8317    1.3111   24.4692 C   0  0  0  0  0  0  0  0  0  0  0  0
    7.1580   -2.3973   23.9089 C   0  0  0  0  0  0  0  0  0  0  0  0
    8.3399   -4.3945   22.9480 C   0  0  0  0  0  0  0  0  0  0  0  0
    9.4518   -3.0232   24.7344 C   0  0  0  0  0  0  0  0  0  0  0  0
    8.5129   -2.9929   23.5293 C   0  0  0  0  0  0  0  0  0  0  0  0
   10.6774   -0.5323   22.7585 N   0  0  0  0  0  0  0  0  0  0  0  0
   11.3953    2.9651   22.0866 N   0  0  0  0  0  0  0  0  0  0  0  0
   10.0152    1.3894   21.1343 O   0  0  0  0  0  0  0  0  0  0  0  0
    8.4384   -0.0915   23.1899 O   0  0  0  0  0  0  0  0  0  0  0  0
    9.1021   -2.1740   22.5128 O   0  0  0  0  0  0  0  0  0  0  0  0
   12.0511    3.1485   22.8388 H   0  0  0  0  0  0  0  0  0  0  0  0
   11.1985    3.7052   21.4208 H   0  0  0  0  0  0  0  0  0  0  0  0
  1  6  1  0  0  0  0
  1 13  1  0  0  0  0
  1 14  2  0  0  0  0
  2 12  1  0  0  0  0
  2 15  2  0  0  0  0
  2 16  1  0  0  0  0
  3  4  1  0  0  0  0
  3  5  1  0  0  0  0
  4  6  1  0  0  0  0
  5 12  1  0  0  0  0
  6  7  1  0  0  0  0
  6 12  1  0  0  0  0
  8 11  1  0  0  0  0
  9 11  1  0  0  0  0
 10 11  1  0  0  0  0
 11 16  1  0  0  0  0
 13 17  1  0  0  0  0
 13 18  1  0  0  0  0
M  END
> <ref_mols>
x0918_0

> <original SMILES>
CC1(C(N)=O)CCCN1C(OC(C)(C)C)=O

> <Chemgauss4>
-8.146595

> <ref_pdb>
x0874_0

$$$$
x2802
  -OEChem-05172015543D

 23 25  0     0  0  0  0  0  0999 V2000
   12.2269   -2.3004   22.6045 C   0  0  0  0  0  0  0  0  0  0  0  0
   12.0222   -0.5432   24.2397 C   0  0  0  0  0  0  0  0  0  0  0  0
   13.6053   -2.1516   22.6623 C   0  0  0  0  0  0  0  0  0  0  0  0
   13.4058   -0.4390   24.2562 C   0  0  0  0  0  0  0  0  0  0  0  0
   11.4308   -1.4854   23.4036 C   0  0  0  0  0  0  0  0  0  0  0  0
    8.1624   -4.2910   24.7564 C   0  0  0  0  0  0  0  0  0  0  0  0
    8.5730   -3.3369   22.4813 C   0  0  0  0  0  0  0  0  0  0  0  0
    7.8083   -1.8594   24.4246 C   0  0  0  0  0  0  0  0  0  0  0  0
    9.3188   -2.0398   22.1719 C   0  0  0  0  0  0  0  0  0  0  0  0
    9.2482   -1.3490   24.5693 C   0  0  0  0  0  0  0  0  0  0  0  0
    8.1294   -4.7991   27.1759 C   0  0  0  0  0  0  0  0  0  0  0  0
    6.0109   -4.0977   26.0956 C   0  0  0  0  0  0  0  0  0  0  0  0
    7.6406   -6.1799   27.5870 C   0  0  0  0  0  0  0  0  0  0  0  0
    5.2640   -5.3945   26.3705 C   0  0  0  0  0  0  0  0  0  0  0  0
    7.7319   -3.2402   23.7641 C   0  0  0  0  0  0  0  0  0  0  0  0
   14.1486   -1.2364   23.4764 N   0  3  0  0  0  0  0  0  0  0  0  0
   10.0452   -1.6108   23.3646 N   0  0  0  0  0  0  0  0  0  0  0  0
    7.4528   -4.3452   25.9574 N   0  0  0  0  0  0  0  0  0  0  0  0
    9.1005   -5.0402   24.4722 O   0  0  0  0  0  0  0  0  0  0  0  0
    5.5722   -5.3544   28.9784 O   0  0  0  0  0  0  0  0  0  0  0  0
    5.4360   -7.5826   27.8054 O   0  0  0  0  0  0  0  0  0  0  0  0
    5.8746   -6.2011   27.8406 S   0  0  0  0  0  0  0  0  0  0  0  0
   15.1636   -1.1429   23.5032 H   0  0  0  0  0  0  0  0  0  0  0  0
  1  3  2  0  0  0  0
  1  5  1  0  0  0  0
  2  4  1  0  0  0  0
  2  5  2  0  0  0  0
  3 16  1  0  0  0  0
  4 16  2  0  0  0  0
  5 17  1  0  0  0  0
  6 15  1  0  0  0  0
  6 18  1  0  0  0  0
  6 19  2  0  0  0  0
  7  9  1  0  0  0  0
  7 15  1  0  0  0  0
  8 10  1  0  0  0  0
  8 15  1  0  0  0  0
  9 17  1  0  0  0  0
 10 17  1  0  0  0  0
 11 13  1  0  0  0  0
 11 18  1  0  0  0  0
 12 14  1  0  0  0  0
 12 18  1  0  0  0  0
 13 22  1  0  0  0  0
 14 22  1  0  0  0  0
 20 22  2  0  0  0  0
 21 22  2  0  0  0  0
 16 23  1  0  0  0  0
M  CHG  1  16   1
M  END
> <ref_mols>
x2802_0

> <original SMILES>
O=C(C1CCN(CC1)C=2C=CN=CC2)N3CCS(=O)(=O)CC3

> <Chemgauss4>
-8.145669

> <ref_pdb>
x0072_0

$$$$
x0867
  -OEChem-05172015543D

 13 14  0     1  0  0  0  0  0999 V2000
    8.7234   -1.9314   22.1690 C   0  0  0  0  0  0  0  0  0  0  0  0
   10.0943   -1.8441   22.2709 C   0  0  0  0  0  0  0  0  0  0  0  0
    9.1335   -3.3279   23.9811 C   0  0  0  0  0  0  0  0  0  0  0  0
    8.1667   -2.7908   23.1597 C   0  0  0  0  0  0  0  0  0  0  0  0
    6.8502   -4.5309   21.1575 C   0  0  0  0  0  0  0  0  0  0  0  0
    6.1352   -4.9244   24.8304 C   0  0  0  0  0  0  0  0  0  0  0  0
    6.2091   -3.3990   24.7214 C   0  0  0  0  0  0  0  0  0  0  0  0
    6.3930   -5.4756   23.4313 C   0  0  0  0  0  0  0  0  0  0  0  0
    6.6804   -3.0804   23.2923 C   0  0  2  0  0  0  0  0  0  0  0  0
    6.1805   -4.2939   22.4965 C   0  0  1  0  0  0  0  0  0  0  0  0
    8.1002   -4.6996   21.2024 O   0  5  0  0  0  0  0  0  0  0  0  0
    6.0676   -4.5288   20.1662 O   0  0  0  0  0  0  0  0  0  0  0  0
   10.7049   -2.7958   23.5569 S   0  0  0  0  0  0  0  0  0  0  0  0
  1  2  2  0  0  0  0
  1  4  1  0  0  0  0
  2 13  1  0  0  0  0
  3  4  2  0  0  0  0
  3 13  1  0  0  0  0
  4  9  1  0  0  0  0
  5 10  1  0  0  0  0
  5 11  1  0  0  0  0
  5 12  2  0  0  0  0
  6  7  1  0  0  0  0
  6  8  1  0  0  0  0
  7  9  1  0  0  0  0
  8 10  1  0  0  0  0
  9 10  1  0  0  0  0
M  CHG  1  11  -1
M  END
> <ref_mols>
x0867_0

> <original SMILES>
O=C([C@@H]1[C@H](C2=CSC=C2)CCC1)O

> <Chemgauss4>
-8.143205

> <ref_pdb>
x0759_0

$$$$
x0631
  -OEChem-05172015543D

 15 16  0     0  0  0  0  0  0999 V2000
   10.6359    0.0739   23.6549 C   0  0  0  0  0  0  0  0  0  0  0  0
    9.6650   -0.3367   22.7482 C   0  0  0  0  0  0  0  0  0  0  0  0
   11.2693    1.7805   22.1242 C   0  0  0  0  0  0  0  0  0  0  0  0
   11.4574    1.1519   23.3445 C   0  0  0  0  0  0  0  0  0  0  0  0
    9.5569    0.3586   21.5546 C   0  0  0  0  0  0  0  0  0  0  0  0
    6.4073    0.8669   21.2642 C   0  0  0  0  0  0  0  0  0  0  0  0
    6.9335    0.2636   18.8853 C   0  0  0  0  0  0  0  0  0  0  0  0
    5.2119    1.6444   20.7283 C   0  0  0  0  0  0  0  0  0  0  0  0
    5.7098    1.0765   18.4825 C   0  0  0  0  0  0  0  0  0  0  0  0
    7.5085    0.7740   20.2075 C   0  0  0  0  0  0  0  0  0  0  0  0
   10.3369    1.4103   21.2180 N   0  0  0  0  0  0  0  0  0  0  0  0
    8.5898   -0.0636   20.6628 N   0  0  0  0  0  0  0  0  0  0  0  0
    4.7284    1.0603   19.5189 O   0  0  0  0  0  0  0  0  0  0  0  0
   12.4008    1.5672   24.1970 F   0  0  0  0  0  0  0  0  0  0  0  0
    8.6346   -1.0083   20.3068 H   0  0  0  0  0  0  0  0  0  0  0  0
  1  2  2  0  0  0  0
  1  4  1  0  0  0  0
  2  5  1  0  0  0  0
  3  4  2  0  0  0  0
  3 11  1  0  0  0  0
  4 14  1  0  0  0  0
  5 11  2  0  0  0  0
  5 12  1  0  0  0  0
  6  8  1  0  0  0  0
  6 10  1  0  0  0  0
  7  9  1  0  0  0  0
  7 10  1  0  0  0  0
  8 13  1  0  0  0  0
  9 13  1  0  0  0  0
 10 12  1  0  0  0  0
 12 15  1  0  0  0  0
M  END
> <ref_mols>
x0631_0

> <original SMILES>
FC=1C=CC(NC2CCOCC2)=NC1

> <Chemgauss4>
-8.139266

> <ref_pdb>
x0434_0

$$$$
x0445
  -OEChem-05172015543D

 16 17  0     0  0  0  0  0  0999 V2000
   13.9121   -1.6388   23.4088 C   0  0  0  0  0  0  0  0  0  0  0  0
   13.8980   -1.5633   22.0161 C   0  0  0  0  0  0  0  0  0  0  0  0
   13.0639   -0.8252   24.1601 C   0  0  0  0  0  0  0  0  0  0  0  0
   13.0358   -0.6742   21.3746 C   0  0  0  0  0  0  0  0  0  0  0  0
   12.2017    0.0639   23.5185 C   0  0  0  0  0  0  0  0  0  0  0  0
   12.1876    0.1395   22.1257 C   0  0  0  0  0  0  0  0  0  0  0  0
    9.2019    0.3161   20.2574 C   0  0  0  0  0  0  0  0  0  0  0  0
   11.3015    0.9244   24.3432 C   0  0  0  0  0  0  0  0  0  0  0  0
    7.4778   -1.1156   21.4368 C   0  0  0  0  0  0  0  0  0  0  0  0
   11.2736    1.0842   21.4166 C   0  0  0  0  0  0  0  0  0  0  0  0
    9.4059    0.6722   19.0101 N   0  0  0  0  0  0  0  0  0  0  0  0
    8.3994    0.0759   18.2844 N   0  0  0  0  0  0  0  0  0  0  0  0
    7.5977   -0.6306   19.0720 N   0  0  0  0  0  0  0  0  0  0  0  0
    8.1013   -0.4788   20.3048 N   0  0  0  0  0  0  0  0  0  0  0  0
    9.9094    0.6229   21.4112 N   0  0  0  0  0  0  0  0  0  0  0  0
    9.4350    0.5137   22.3026 H   0  0  0  0  0  0  0  0  0  0  0  0
  1  2  1  0  0  0  0
  1  3  2  0  0  0  0
  2  4  2  0  0  0  0
  3  5  1  0  0  0  0
  4  6  1  0  0  0  0
  5  6  2  0  0  0  0
  5  8  1  0  0  0  0
  6 10  1  0  0  0  0
  7 11  2  0  0  0  0
  7 14  1  0  0  0  0
  7 15  1  0  0  0  0
  9 14  1  0  0  0  0
 10 15  1  0  0  0  0
 11 12  1  0  0  0  0
 12 13  2  0  0  0  0
 13 14  1  0  0  0  0
 15 16  1  0  0  0  0
M  END
> <ref_mols>
x0445_0

> <original SMILES>
CC=1C=CC=CC1CNC2=NN=NN2C

> <Chemgauss4>
-8.137181

> <ref_pdb>
x0678_0

$$$$
x0845
  -OEChem-05172015543D

 20 21  0     1  0  0  0  0  0999 V2000
   13.6057    0.8599   22.3076 C   0  0  0  0  0  0  0  0  0  0  0  0
   12.0305    0.8645   24.1395 C   0  0  0  0  0  0  0  0  0  0  0  0
   14.0435   -0.4089   22.6872 C   0  0  0  0  0  0  0  0  0  0  0  0
   12.4682   -0.4044   24.5191 C   0  0  0  0  0  0  0  0  0  0  0  0
   12.5993    1.4966   23.0338 C   0  0  0  0  0  0  0  0  0  0  0  0
   13.4747   -1.0411   23.7929 C   0  0  0  0  0  0  0  0  0  0  0  0
   12.9022    5.3654   22.4344 C   0  0  0  0  0  0  0  0  0  0  0  0
   13.3030    3.9072   22.6662 C   0  0  0  0  0  0  0  0  0  0  0  0
   11.7849    5.8026   23.3610 C   0  0  0  0  0  0  0  0  0  0  0  0
   10.9881    3.4381   23.5389 C   0  0  0  0  0  0  0  0  0  0  0  0
   12.1126    2.9039   22.6128 C   0  0  2  0  0  0  0  0  0  0  0  0
   11.5733    2.7880   21.1660 C   0  0  0  0  0  0  0  0  0  0  0  0
   10.6427    4.8580   23.2255 N   0  3  0  0  0  0  0  0  0  0  0  0
   10.4890    1.7877   21.1489 N   0  3  0  0  0  0  0  0  0  0  0  0
   13.8932   -2.2607   24.1558 F   0  0  0  0  0  0  0  0  0  0  0  0
    9.8662    5.1680   23.8256 H   0  0  0  0  0  0  0  0  0  0  0  0
   10.2812    4.9089   22.2634 H   0  0  0  0  0  0  0  0  0  0  0  0
   10.7707    0.9377   20.6428 H   0  0  0  0  0  0  0  0  0  0  0  0
    9.6462    2.1566   20.6887 H   0  0  0  0  0  0  0  0  0  0  0  0
   10.2231    1.5064   22.1020 H   0  0  0  0  0  0  0  0  0  0  0  0
  1  3  1  0  0  0  0
  1  5  2  0  0  0  0
  2  4  2  0  0  0  0
  2  5  1  0  0  0  0
  3  6  2  0  0  0  0
  4  6  1  0  0  0  0
  5 11  1  0  0  0  0
  6 15  1  0  0  0  0
  7  8  1  0  0  0  0
  7  9  1  0  0  0  0
  8 11  1  0  0  0  0
  9 13  1  0  0  0  0
 10 11  1  0  0  0  0
 10 13  1  0  0  0  0
 11 12  1  0  0  0  0
 12 14  1  0  0  0  0
 13 16  1  0  0  0  0
 13 17  1  0  0  0  0
 14 18  1  0  0  0  0
 14 19  1  0  0  0  0
 14 20  1  0  0  0  0
M  CHG  2  13   1  14   1
M  END
> <ref_mols>
x0845_0

> <original SMILES>
FC(C=C1)=CC=C1C2(CN)CNCCC2

> <Chemgauss4>
-8.129405

> <ref_pdb>
x0161_0

$$$$
x0085
  -OEChem-05172015543D

 15 15  0     0  0  0  0  0  0999 V2000
   12.7816    0.9506   23.1302 C   0  0  0  0  0  0  0  0  0  0  0  0
   13.4027    2.9227   21.7697 C   0  0  0  0  0  0  0  0  0  0  0  0
   11.5861    3.1773   23.4244 C   0  0  0  0  0  0  0  0  0  0  0  0
   14.0563    4.2018   22.2683 C   0  0  0  0  0  0  0  0  0  0  0  0
   12.2195    4.4621   23.9381 C   0  0  0  0  0  0  0  0  0  0  0  0
   13.8259    0.2121   22.3318 C   0  0  0  0  0  0  0  0  0  0  0  0
   13.8854   -1.2274   22.7582 C   0  0  0  0  0  0  0  0  0  0  0  0
   12.5971    2.2978   22.8220 N   0  0  0  0  0  0  0  0  0  0  0  0
   12.9990    5.0975   22.8311 N   0  3  0  0  0  0  0  0  0  0  0  0
   12.1481    0.3461   23.9992 O   0  0  0  0  0  0  0  0  0  0  0  0
   14.1756   -1.3483   24.0711 F   0  0  0  0  0  0  0  0  0  0  0  0
   14.8091   -1.9201   22.0585 F   0  0  0  0  0  0  0  0  0  0  0  0
   12.6874   -1.8177   22.5487 F   0  0  0  0  0  0  0  0  0  0  0  0
   13.4348    5.9640   23.1754 H   0  0  0  0  0  0  0  0  0  0  0  0
   12.3570    5.3871   22.0799 H   0  0  0  0  0  0  0  0  0  0  0  0
  1  6  1  0  0  0  0
  1  8  1  0  0  0  0
  1 10  2  0  0  0  0
  2  4  1  0  0  0  0
  2  8  1  0  0  0  0
  3  5  1  0  0  0  0
  3  8  1  0  0  0  0
  4  9  1  0  0  0  0
  5  9  1  0  0  0  0
  6  7  1  0  0  0  0
  7 11  1  0  0  0  0
  7 12  1  0  0  0  0
  7 13  1  0  0  0  0
  9 14  1  0  0  0  0
  9 15  1  0  0  0  0
M  CHG  1   9   1
M  END
> <ref_mols>
x0085_0

> <original SMILES>
FC(F)(F)CC(=O)N1CCNCC1

> <Chemgauss4>
-8.129176

> <ref_pdb>
x0195_0

$$$$
x1238
  -OEChem-05172015543D

 15 15  0     0  0  0  0  0  0999 V2000
   12.7816    0.9506   23.1302 C   0  0  0  0  0  0  0  0  0  0  0  0
   13.4027    2.9227   21.7697 C   0  0  0  0  0  0  0  0  0  0  0  0
   11.5861    3.1773   23.4244 C   0  0  0  0  0  0  0  0  0  0  0  0
   14.0563    4.2018   22.2683 C   0  0  0  0  0  0  0  0  0  0  0  0
   12.2195    4.4621   23.9381 C   0  0  0  0  0  0  0  0  0  0  0  0
   13.8259    0.2121   22.3318 C   0  0  0  0  0  0  0  0  0  0  0  0
   13.8854   -1.2274   22.7582 C   0  0  0  0  0  0  0  0  0  0  0  0
   12.5971    2.2978   22.8220 N   0  0  0  0  0  0  0  0  0  0  0  0
   12.9990    5.0975   22.8311 N   0  3  0  0  0  0  0  0  0  0  0  0
   12.1481    0.3461   23.9992 O   0  0  0  0  0  0  0  0  0  0  0  0
   14.1756   -1.3483   24.0711 F   0  0  0  0  0  0  0  0  0  0  0  0
   14.8091   -1.9201   22.0585 F   0  0  0  0  0  0  0  0  0  0  0  0
   12.6874   -1.8177   22.5487 F   0  0  0  0  0  0  0  0  0  0  0  0
   13.4348    5.9640   23.1754 H   0  0  0  0  0  0  0  0  0  0  0  0
   12.3570    5.3871   22.0799 H   0  0  0  0  0  0  0  0  0  0  0  0
  1  6  1  0  0  0  0
  1  8  1  0  0  0  0
  1 10  2  0  0  0  0
  2  4  1  0  0  0  0
  2  8  1  0  0  0  0
  3  5  1  0  0  0  0
  3  8  1  0  0  0  0
  4  9  1  0  0  0  0
  5  9  1  0  0  0  0
  6  7  1  0  0  0  0
  7 11  1  0  0  0  0
  7 12  1  0  0  0  0
  7 13  1  0  0  0  0
  9 14  1  0  0  0  0
  9 15  1  0  0  0  0
M  CHG  1   9   1
M  END
> <ref_mols>
x1238_0

> <original SMILES>
FC(F)(F)CC(=O)N1CCNCC1

> <Chemgauss4>
-8.129176

> <ref_pdb>
x0195_0

$$$$
x2672
  -OEChem-05172015543D

 28 30  0     0  0  0  0  0  0999 V2000
    9.0375   -1.6102   22.9753 C   0  0  0  0  0  0  0  0  0  0  0  0
   10.1130   -0.1587   21.3710 C   0  0  0  0  0  0  0  0  0  0  0  0
    7.8124   -1.4031   22.3414 C   0  0  0  0  0  0  0  0  0  0  0  0
    8.8879    0.0483   20.7370 C   0  0  0  0  0  0  0  0  0  0  0  0
   10.7516    1.5878   24.3772 C   0  0  0  0  0  0  0  0  0  0  0  0
   12.7734    2.0687   23.1450 C   0  0  0  0  0  0  0  0  0  0  0  0
   10.4511    2.9493   24.4156 C   0  0  0  0  0  0  0  0  0  0  0  0
   12.4729    3.4303   23.1833 C   0  0  0  0  0  0  0  0  0  0  0  0
   12.1479   -2.3698   23.3508 C   0  0  0  0  0  0  0  0  0  0  0  0
   10.1878   -0.9879   22.4901 C   0  0  0  0  0  0  0  0  0  0  0  0
    7.7376   -0.5739   21.2222 C   0  0  0  0  0  0  0  0  0  0  0  0
   11.9128    1.1475   23.7419 C   0  0  0  0  0  0  0  0  0  0  0  0
   11.3117    3.8706   23.8186 C   0  0  0  0  0  0  0  0  0  0  0  0
   11.4547   -1.2020   23.1457 C   0  0  0  0  0  0  0  0  0  0  0  0
   13.3090   -1.9733   24.0410 C   0  0  0  0  0  0  0  0  0  0  0  0
    6.4276   -0.3522   20.5448 C   0  0  0  0  0  0  0  0  0  0  0  0
   14.4086   -2.8312   24.5133 C   0  0  0  0  0  0  0  0  0  0  0  0
   13.3545   -0.6564   24.2597 N   0  0  0  0  0  0  0  0  0  0  0  0
   12.2133   -0.2153   23.7035 N   0  0  0  0  0  0  0  0  0  0  0  0
   10.0210    5.7452   22.4313 N   0  0  0  0  0  0  0  0  0  0  0  0
   10.0660    5.8219   25.0077 O   0  0  0  0  0  0  0  0  0  0  0  0
   12.1733    6.3267   23.7223 O   0  0  0  0  0  0  0  0  0  0  0  0
   14.2478   -4.1657   24.2295 F   0  0  0  0  0  0  0  0  0  0  0  0
   15.6372   -2.5183   23.9848 F   0  0  0  0  0  0  0  0  0  0  0  0
   14.5909   -2.7831   25.8726 F   0  0  0  0  0  0  0  0  0  0  0  0
   10.9345    5.5747   23.8652 S   0  0  0  0  0  0  0  0  0  0  0  0
   10.5173    5.6855   21.5338 H   0  0  0  0  0  0  0  0  0  0  0  0
    9.0763    5.3424   22.4109 H   0  0  0  0  0  0  0  0  0  0  0  0
  1  3  2  0  0  0  0
  1 10  1  0  0  0  0
  2  4  1  0  0  0  0
  2 10  2  0  0  0  0
  3 11  1  0  0  0  0
  4 11  2  0  0  0  0
  5  7  2  0  0  0  0
  5 12  1  0  0  0  0
  6  8  1  0  0  0  0
  6 12  2  0  0  0  0
  7 13  1  0  0  0  0
  8 13  2  0  0  0  0
  9 14  2  0  0  0  0
  9 15  1  0  0  0  0
 10 14  1  0  0  0  0
 11 16  1  0  0  0  0
 12 19  1  0  0  0  0
 13 26  1  0  0  0  0
 14 19  1  0  0  0  0
 15 17  1  0  0  0  0
 15 18  2  0  0  0  0
 17 23  1  0  0  0  0
 17 24  1  0  0  0  0
 17 25  1  0  0  0  0
 18 19  1  0  0  0  0
 20 26  1  0  0  0  0
 21 26  2  0  0  0  0
 22 26  2  0  0  0  0
 20 27  1  0  0  0  0
 20 28  1  0  0  0  0
M  END
> <ref_mols>
x2672_0

> <original SMILES>
CC=1C=CC(=CC1)C2=CC(=NN2C=3C=CC(=CC3)S(=O)(=O)N)C(F)(F)F

> <Chemgauss4>
-8.128628

> <ref_pdb>
x0161_0

$$$$
x2504
  -OEChem-05172015543D

 28 30  0     0  0  0  0  0  0999 V2000
    9.0375   -1.6102   22.9753 C   0  0  0  0  0  0  0  0  0  0  0  0
   10.1130   -0.1587   21.3710 C   0  0  0  0  0  0  0  0  0  0  0  0
    7.8124   -1.4031   22.3414 C   0  0  0  0  0  0  0  0  0  0  0  0
    8.8879    0.0483   20.7370 C   0  0  0  0  0  0  0  0  0  0  0  0
   10.7516    1.5878   24.3772 C   0  0  0  0  0  0  0  0  0  0  0  0
   12.7734    2.0687   23.1450 C   0  0  0  0  0  0  0  0  0  0  0  0
   10.4511    2.9493   24.4156 C   0  0  0  0  0  0  0  0  0  0  0  0
   12.4729    3.4303   23.1833 C   0  0  0  0  0  0  0  0  0  0  0  0
   12.1479   -2.3698   23.3508 C   0  0  0  0  0  0  0  0  0  0  0  0
   10.1878   -0.9879   22.4901 C   0  0  0  0  0  0  0  0  0  0  0  0
    7.7376   -0.5739   21.2222 C   0  0  0  0  0  0  0  0  0  0  0  0
   11.9128    1.1475   23.7419 C   0  0  0  0  0  0  0  0  0  0  0  0
   11.3117    3.8706   23.8186 C   0  0  0  0  0  0  0  0  0  0  0  0
   11.4547   -1.2020   23.1457 C   0  0  0  0  0  0  0  0  0  0  0  0
   13.3090   -1.9733   24.0410 C   0  0  0  0  0  0  0  0  0  0  0  0
    6.4276   -0.3522   20.5448 C   0  0  0  0  0  0  0  0  0  0  0  0
   14.4086   -2.8312   24.5133 C   0  0  0  0  0  0  0  0  0  0  0  0
   13.3545   -0.6564   24.2597 N   0  0  0  0  0  0  0  0  0  0  0  0
   12.2133   -0.2153   23.7035 N   0  0  0  0  0  0  0  0  0  0  0  0
   10.0210    5.7452   22.4313 N   0  0  0  0  0  0  0  0  0  0  0  0
   10.0660    5.8219   25.0077 O   0  0  0  0  0  0  0  0  0  0  0  0
   12.1733    6.3267   23.7223 O   0  0  0  0  0  0  0  0  0  0  0  0
   14.2478   -4.1657   24.2295 F   0  0  0  0  0  0  0  0  0  0  0  0
   15.6372   -2.5183   23.9848 F   0  0  0  0  0  0  0  0  0  0  0  0
   14.5909   -2.7831   25.8726 F   0  0  0  0  0  0  0  0  0  0  0  0
   10.9345    5.5747   23.8652 S   0  0  0  0  0  0  0  0  0  0  0  0
   10.5173    5.6855   21.5338 H   0  0  0  0  0  0  0  0  0  0  0  0
    9.0763    5.3424   22.4109 H   0  0  0  0  0  0  0  0  0  0  0  0
  1  3  2  0  0  0  0
  1 10  1  0  0  0  0
  2  4  1  0  0  0  0
  2 10  2  0  0  0  0
  3 11  1  0  0  0  0
  4 11  2  0  0  0  0
  5  7  2  0  0  0  0
  5 12  1  0  0  0  0
  6  8  1  0  0  0  0
  6 12  2  0  0  0  0
  7 13  1  0  0  0  0
  8 13  2  0  0  0  0
  9 14  2  0  0  0  0
  9 15  1  0  0  0  0
 10 14  1  0  0  0  0
 11 16  1  0  0  0  0
 12 19  1  0  0  0  0
 13 26  1  0  0  0  0
 14 19  1  0  0  0  0
 15 17  1  0  0  0  0
 15 18  2  0  0  0  0
 17 23  1  0  0  0  0
 17 24  1  0  0  0  0
 17 25  1  0  0  0  0
 18 19  1  0  0  0  0
 20 26  1  0  0  0  0
 21 26  2  0  0  0  0
 22 26  2  0  0  0  0
 20 27  1  0  0  0  0
 20 28  1  0  0  0  0
M  END
> <ref_mols>
x2504_0

> <original SMILES>
CC=1C=CC(=CC1)C2=CC(=NN2C=3C=CC(=CC3)S(=O)(=O)N)C(F)(F)F

> <Chemgauss4>
-8.128628

> <ref_pdb>
x0161_0

$$$$
x0464
  -OEChem-05172015543D

 17 18  0     1  0  0  0  0  0999 V2000
   13.2899   -1.9410   22.4277 C   0  0  0  0  0  0  0  0  0  0  0  0
   12.0145   -1.7453   22.9575 C   0  0  0  0  0  0  0  0  0  0  0  0
   14.2465   -0.9301   22.5209 C   0  0  0  0  0  0  0  0  0  0  0  0
   11.6957   -0.5387   23.5804 C   0  0  0  0  0  0  0  0  0  0  0  0
   13.9277    0.2766   23.1438 C   0  0  0  0  0  0  0  0  0  0  0  0
   12.6523    0.4723   23.6735 C   0  0  0  0  0  0  0  0  0  0  0  0
   13.7583    3.3389   21.9978 C   0  0  0  0  0  0  0  0  0  0  0  0
   13.7551    4.7605   22.5429 C   0  0  0  0  0  0  0  0  0  0  0  0
   12.3682    2.7214   22.0126 C   0  0  0  0  0  0  0  0  0  0  0  0
   13.1214    4.8220   23.9315 C   0  0  2  0  0  0  0  0  0  0  0  0
   11.7169    4.2027   23.9806 C   0  0  1  0  0  0  0  0  0  0  0  0
   10.6326    5.0178   23.2707 C   0  0  0  0  0  0  0  0  0  0  0  0
   12.3099    1.7705   24.3432 C   0  0  0  0  0  0  0  0  0  0  0  0
   11.7489    2.7969   23.3908 N   0  3  2  0  0  0  0  0  0  0  0  0
   13.0902    6.1732   24.3832 O   0  0  0  0  0  0  0  0  0  0  0  0
   10.7292    2.5231   23.2691 H   0  0  0  0  0  0  0  0  0  0  0  0
   14.0108    6.4749   24.4095 H   0  0  0  0  0  0  0  0  0  0  0  0
  1  2  1  0  0  0  0
  1  3  2  0  0  0  0
  2  4  2  0  0  0  0
  3  5  1  0  0  0  0
  4  6  1  0  0  0  0
  5  6  2  0  0  0  0
  6 13  1  0  0  0  0
  7  8  1  0  0  0  0
  7  9  1  0  0  0  0
  8 10  1  0  0  0  0
  9 14  1  0  0  0  0
 10 11  1  0  0  0  0
 10 15  1  0  0  0  0
 11 12  1  0  0  0  0
 11 14  1  0  0  0  0
 13 14  1  0  0  0  0
 14 16  1  0  0  0  0
 15 17  1  0  0  0  0
M  CHG  1  14   1
M  END
> <ref_mols>
x0464_0

> <original SMILES>
CC1C(O)CCCN1CC=2C=CC=CC2

> <Chemgauss4>
-8.128137

> <ref_pdb>
x0195_0

$$$$
x0342
  -OEChem-05172015543D

 13 14  0     0  0  0  0  0  0999 V2000
    6.6391    0.7229   19.8181 C   0  0  0  0  0  0  0  0  0  0  0  0
    7.5892    0.5264   20.7811 C   0  0  0  0  0  0  0  0  0  0  0  0
    5.5130    1.1943   20.5039 C   0  0  0  0  0  0  0  0  0  0  0  0
    6.9647    0.4348   18.4579 C   0  0  0  0  0  0  0  0  0  0  0  0
    8.9012    0.0425   20.4832 C   0  0  0  0  0  0  0  0  0  0  0  0
    4.2005    1.5672   19.9510 C   0  0  0  0  0  0  0  0  0  0  0  0
    7.6031    0.8468   23.2759 C   0  0  0  0  0  0  0  0  0  0  0  0
    5.7318    1.2918   21.8218 N   0  0  0  0  0  0  0  0  0  0  0  0
    8.1430   -0.0073   18.1327 N   0  0  0  0  0  0  0  0  0  0  0  0
    7.0085    0.8771   21.9609 N   0  0  0  0  0  0  0  0  0  0  0  0
    9.0877   -0.1986   19.1211 N   0  0  0  0  0  0  0  0  0  0  0  0
    9.7817   -0.1472   21.3183 O   0  0  0  0  0  0  0  0  0  0  0  0
    9.9971   -0.5448   18.8320 H   0  0  0  0  0  0  0  0  0  0  0  0
  1  2  2  0  0  0  0
  1  3  1  0  0  0  0
  1  4  1  0  0  0  0
  2  5  1  0  0  0  0
  2 10  1  0  0  0  0
  3  6  1  0  0  0  0
  3  8  2  0  0  0  0
  4  9  2  0  0  0  0
  5 11  1  0  0  0  0
  5 12  2  0  0  0  0
  7 10  1  0  0  0  0
  8 10  1  0  0  0  0
  9 11  1  0  0  0  0
 11 13  1  0  0  0  0
M  END
> <ref_mols>
x0342_0

> <original SMILES>
CC1=NN(C)C=2C(O)=NN=CC12

> <Chemgauss4>
-8.126868

> <ref_pdb>
x0678_0

$$$$
x2420
  -OEChem-05172015543D

 21 21  0     0  0  0  0  0  0999 V2000
   11.0466    0.0181   23.7221 C   0  0  0  0  0  0  0  0  0  0  0  0
    9.8613    0.2945   24.4034 C   0  0  0  0  0  0  0  0  0  0  0  0
   10.2872    2.6625   24.1837 C   0  0  0  0  0  0  0  0  0  0  0  0
   11.4726    2.3861   23.5025 C   0  0  0  0  0  0  0  0  0  0  0  0
   11.8523    1.0639   23.2717 C   0  0  0  0  0  0  0  0  0  0  0  0
    9.4815    1.6167   24.6341 C   0  0  0  0  0  0  0  0  0  0  0  0
   13.5494   -0.4913   22.2847 C   0  0  0  0  0  0  0  0  0  0  0  0
   12.2917    3.5016   23.0450 C   0  0  0  0  0  0  0  0  0  0  0  0
    9.3594    6.2915   23.2795 C   0  0  0  0  0  0  0  0  0  0  0  0
    8.0547    6.0333   22.6019 C   0  0  0  0  0  0  0  0  0  0  0  0
    7.5493    0.7692   25.7314 C   0  0  0  0  0  0  0  0  0  0  0  0
   12.2882    4.8265   23.8307 C   0  0  0  0  0  0  0  0  0  0  0  0
   11.8193    6.0331   23.0247 C   0  0  0  0  0  0  0  0  0  0  0  0
   13.0356    0.7633   22.5914 N   0  0  0  0  0  0  0  0  0  0  0  0
   10.4678    5.8783   22.5578 N   0  0  0  0  0  0  0  0  0  0  0  0
   13.0990   -1.6014   22.5311 O   0  0  0  0  0  0  0  0  0  0  0  0
   13.0020    3.3900   22.0273 O   0  0  0  0  0  0  0  0  0  0  0  0
    9.3724    6.8292   24.3806 O   0  0  0  0  0  0  0  0  0  0  0  0
    8.3247    1.8860   25.2990 O   0  0  0  0  0  0  0  0  0  0  0  0
   13.6011    1.5573   22.2757 H   0  0  0  0  0  0  0  0  0  0  0  0
   10.3176    5.4422   21.6493 H   0  0  0  0  0  0  0  0  0  0  0  0
  1  2  2  0  0  0  0
  1  5  1  0  0  0  0
  2  6  1  0  0  0  0
  3  4  1  0  0  0  0
  3  6  2  0  0  0  0
  4  5  2  0  0  0  0
  4  8  1  0  0  0  0
  5 14  1  0  0  0  0
  6 19  1  0  0  0  0
  7 14  1  0  0  0  0
  7 16  2  0  0  0  0
  8 12  1  0  0  0  0
  8 17  2  0  0  0  0
  9 10  1  0  0  0  0
  9 15  1  0  0  0  0
  9 18  2  0  0  0  0
 11 19  1  0  0  0  0
 12 13  1  0  0  0  0
 13 15  1  0  0  0  0
 14 20  1  0  0  0  0
 15 21  1  0  0  0  0
M  END
> <ref_mols>
x2420_0

> <original SMILES>
CC(NCCC(C1=CC(OC)=CC=C1NC=O)=O)=O

> <Chemgauss4>
-8.123390

> <ref_pdb>
x0104_0

$$$$
x2465
  -OEChem-05172015543D

 21 21  0     0  0  0  0  0  0999 V2000
   11.0466    0.0181   23.7221 C   0  0  0  0  0  0  0  0  0  0  0  0
    9.8613    0.2945   24.4034 C   0  0  0  0  0  0  0  0  0  0  0  0
   10.2872    2.6625   24.1837 C   0  0  0  0  0  0  0  0  0  0  0  0
   11.4726    2.3861   23.5025 C   0  0  0  0  0  0  0  0  0  0  0  0
   11.8523    1.0639   23.2717 C   0  0  0  0  0  0  0  0  0  0  0  0
    9.4815    1.6167   24.6341 C   0  0  0  0  0  0  0  0  0  0  0  0
   13.5494   -0.4913   22.2847 C   0  0  0  0  0  0  0  0  0  0  0  0
   12.2917    3.5016   23.0450 C   0  0  0  0  0  0  0  0  0  0  0  0
    9.3594    6.2915   23.2795 C   0  0  0  0  0  0  0  0  0  0  0  0
    8.0547    6.0333   22.6019 C   0  0  0  0  0  0  0  0  0  0  0  0
    7.5493    0.7692   25.7314 C   0  0  0  0  0  0  0  0  0  0  0  0
   12.2882    4.8265   23.8307 C   0  0  0  0  0  0  0  0  0  0  0  0
   11.8193    6.0331   23.0247 C   0  0  0  0  0  0  0  0  0  0  0  0
   13.0356    0.7633   22.5914 N   0  0  0  0  0  0  0  0  0  0  0  0
   10.4678    5.8783   22.5578 N   0  0  0  0  0  0  0  0  0  0  0  0
   13.0990   -1.6014   22.5311 O   0  0  0  0  0  0  0  0  0  0  0  0
   13.0020    3.3900   22.0273 O   0  0  0  0  0  0  0  0  0  0  0  0
    9.3724    6.8292   24.3806 O   0  0  0  0  0  0  0  0  0  0  0  0
    8.3247    1.8860   25.2990 O   0  0  0  0  0  0  0  0  0  0  0  0
   13.6011    1.5573   22.2757 H   0  0  0  0  0  0  0  0  0  0  0  0
   10.3176    5.4422   21.6493 H   0  0  0  0  0  0  0  0  0  0  0  0
  1  2  2  0  0  0  0
  1  5  1  0  0  0  0
  2  6  1  0  0  0  0
  3  4  1  0  0  0  0
  3  6  2  0  0  0  0
  4  5  2  0  0  0  0
  4  8  1  0  0  0  0
  5 14  1  0  0  0  0
  6 19  1  0  0  0  0
  7 14  1  0  0  0  0
  7 16  2  0  0  0  0
  8 12  1  0  0  0  0
  8 17  2  0  0  0  0
  9 10  1  0  0  0  0
  9 15  1  0  0  0  0
  9 18  2  0  0  0  0
 11 19  1  0  0  0  0
 12 13  1  0  0  0  0
 13 15  1  0  0  0  0
 14 20  1  0  0  0  0
 15 21  1  0  0  0  0
M  END
> <ref_mols>
x2465_0

> <original SMILES>
CC(NCCC(C1=CC(OC)=CC=C1NC=O)=O)=O

> <Chemgauss4>
-8.123390

> <ref_pdb>
x0104_0

$$$$
x2422
  -OEChem-05172015543D

 21 21  0     0  0  0  0  0  0999 V2000
   11.0466    0.0181   23.7221 C   0  0  0  0  0  0  0  0  0  0  0  0
    9.8613    0.2945   24.4034 C   0  0  0  0  0  0  0  0  0  0  0  0
   10.2872    2.6625   24.1837 C   0  0  0  0  0  0  0  0  0  0  0  0
   11.4726    2.3861   23.5025 C   0  0  0  0  0  0  0  0  0  0  0  0
   11.8523    1.0639   23.2717 C   0  0  0  0  0  0  0  0  0  0  0  0
    9.4815    1.6167   24.6341 C   0  0  0  0  0  0  0  0  0  0  0  0
   13.5494   -0.4913   22.2847 C   0  0  0  0  0  0  0  0  0  0  0  0
   12.2917    3.5016   23.0450 C   0  0  0  0  0  0  0  0  0  0  0  0
    9.3594    6.2915   23.2795 C   0  0  0  0  0  0  0  0  0  0  0  0
    8.0547    6.0333   22.6019 C   0  0  0  0  0  0  0  0  0  0  0  0
    7.5493    0.7692   25.7314 C   0  0  0  0  0  0  0  0  0  0  0  0
   12.2882    4.8265   23.8307 C   0  0  0  0  0  0  0  0  0  0  0  0
   11.8193    6.0331   23.0247 C   0  0  0  0  0  0  0  0  0  0  0  0
   13.0356    0.7633   22.5914 N   0  0  0  0  0  0  0  0  0  0  0  0
   10.4678    5.8783   22.5578 N   0  0  0  0  0  0  0  0  0  0  0  0
   13.0990   -1.6014   22.5311 O   0  0  0  0  0  0  0  0  0  0  0  0
   13.0020    3.3900   22.0273 O   0  0  0  0  0  0  0  0  0  0  0  0
    9.3724    6.8292   24.3806 O   0  0  0  0  0  0  0  0  0  0  0  0
    8.3247    1.8860   25.2990 O   0  0  0  0  0  0  0  0  0  0  0  0
   13.6011    1.5573   22.2757 H   0  0  0  0  0  0  0  0  0  0  0  0
   10.3176    5.4422   21.6493 H   0  0  0  0  0  0  0  0  0  0  0  0
  1  2  2  0  0  0  0
  1  5  1  0  0  0  0
  2  6  1  0  0  0  0
  3  4  1  0  0  0  0
  3  6  2  0  0  0  0
  4  5  2  0  0  0  0
  4  8  1  0  0  0  0
  5 14  1  0  0  0  0
  6 19  1  0  0  0  0
  7 14  1  0  0  0  0
  7 16  2  0  0  0  0
  8 12  1  0  0  0  0
  8 17  2  0  0  0  0
  9 10  1  0  0  0  0
  9 15  1  0  0  0  0
  9 18  2  0  0  0  0
 11 19  1  0  0  0  0
 12 13  1  0  0  0  0
 13 15  1  0  0  0  0
 14 20  1  0  0  0  0
 15 21  1  0  0  0  0
M  END
> <ref_mols>
x2422_0

> <original SMILES>
CC(NCCC(C1=CC(OC)=CC=C1NC=O)=O)=O

> <Chemgauss4>
-8.123390

> <ref_pdb>
x0104_0

$$$$
x2421
  -OEChem-05172015543D

 21 21  0     0  0  0  0  0  0999 V2000
   11.0466    0.0181   23.7221 C   0  0  0  0  0  0  0  0  0  0  0  0
    9.8613    0.2945   24.4034 C   0  0  0  0  0  0  0  0  0  0  0  0
   10.2872    2.6625   24.1837 C   0  0  0  0  0  0  0  0  0  0  0  0
   11.4726    2.3861   23.5025 C   0  0  0  0  0  0  0  0  0  0  0  0
   11.8523    1.0639   23.2717 C   0  0  0  0  0  0  0  0  0  0  0  0
    9.4815    1.6167   24.6341 C   0  0  0  0  0  0  0  0  0  0  0  0
   13.5494   -0.4913   22.2847 C   0  0  0  0  0  0  0  0  0  0  0  0
   12.2917    3.5016   23.0450 C   0  0  0  0  0  0  0  0  0  0  0  0
    9.3594    6.2915   23.2795 C   0  0  0  0  0  0  0  0  0  0  0  0
    8.0547    6.0333   22.6019 C   0  0  0  0  0  0  0  0  0  0  0  0
    7.5493    0.7692   25.7314 C   0  0  0  0  0  0  0  0  0  0  0  0
   12.2882    4.8265   23.8307 C   0  0  0  0  0  0  0  0  0  0  0  0
   11.8193    6.0331   23.0247 C   0  0  0  0  0  0  0  0  0  0  0  0
   13.0356    0.7633   22.5914 N   0  0  0  0  0  0  0  0  0  0  0  0
   10.4678    5.8783   22.5578 N   0  0  0  0  0  0  0  0  0  0  0  0
   13.0990   -1.6014   22.5311 O   0  0  0  0  0  0  0  0  0  0  0  0
   13.0020    3.3900   22.0273 O   0  0  0  0  0  0  0  0  0  0  0  0
    9.3724    6.8292   24.3806 O   0  0  0  0  0  0  0  0  0  0  0  0
    8.3247    1.8860   25.2990 O   0  0  0  0  0  0  0  0  0  0  0  0
   13.6011    1.5573   22.2757 H   0  0  0  0  0  0  0  0  0  0  0  0
   10.3176    5.4422   21.6493 H   0  0  0  0  0  0  0  0  0  0  0  0
  1  2  2  0  0  0  0
  1  5  1  0  0  0  0
  2  6  1  0  0  0  0
  3  4  1  0  0  0  0
  3  6  2  0  0  0  0
  4  5  2  0  0  0  0
  4  8  1  0  0  0  0
  5 14  1  0  0  0  0
  6 19  1  0  0  0  0
  7 14  1  0  0  0  0
  7 16  2  0  0  0  0
  8 12  1  0  0  0  0
  8 17  2  0  0  0  0
  9 10  1  0  0  0  0
  9 15  1  0  0  0  0
  9 18  2  0  0  0  0
 11 19  1  0  0  0  0
 12 13  1  0  0  0  0
 13 15  1  0  0  0  0
 14 20  1  0  0  0  0
 15 21  1  0  0  0  0
M  END
> <ref_mols>
x2421_0

> <original SMILES>
CC(NCCC(C1=CC(OC)=CC=C1NC=O)=O)=O

> <Chemgauss4>
-8.123390

> <ref_pdb>
x0104_0

$$$$
x2417
  -OEChem-05172015543D

 21 21  0     0  0  0  0  0  0999 V2000
   11.0466    0.0181   23.7221 C   0  0  0  0  0  0  0  0  0  0  0  0
    9.8613    0.2945   24.4034 C   0  0  0  0  0  0  0  0  0  0  0  0
   10.2872    2.6625   24.1837 C   0  0  0  0  0  0  0  0  0  0  0  0
   11.4726    2.3861   23.5025 C   0  0  0  0  0  0  0  0  0  0  0  0
   11.8523    1.0639   23.2717 C   0  0  0  0  0  0  0  0  0  0  0  0
    9.4815    1.6167   24.6341 C   0  0  0  0  0  0  0  0  0  0  0  0
   13.5494   -0.4913   22.2847 C   0  0  0  0  0  0  0  0  0  0  0  0
   12.2917    3.5016   23.0450 C   0  0  0  0  0  0  0  0  0  0  0  0
    9.3594    6.2915   23.2795 C   0  0  0  0  0  0  0  0  0  0  0  0
    8.0547    6.0333   22.6019 C   0  0  0  0  0  0  0  0  0  0  0  0
    7.5493    0.7692   25.7314 C   0  0  0  0  0  0  0  0  0  0  0  0
   12.2882    4.8265   23.8307 C   0  0  0  0  0  0  0  0  0  0  0  0
   11.8193    6.0331   23.0247 C   0  0  0  0  0  0  0  0  0  0  0  0
   13.0356    0.7633   22.5914 N   0  0  0  0  0  0  0  0  0  0  0  0
   10.4678    5.8783   22.5578 N   0  0  0  0  0  0  0  0  0  0  0  0
   13.0990   -1.6014   22.5311 O   0  0  0  0  0  0  0  0  0  0  0  0
   13.0020    3.3900   22.0273 O   0  0  0  0  0  0  0  0  0  0  0  0
    9.3724    6.8292   24.3806 O   0  0  0  0  0  0  0  0  0  0  0  0
    8.3247    1.8860   25.2990 O   0  0  0  0  0  0  0  0  0  0  0  0
   13.6011    1.5573   22.2757 H   0  0  0  0  0  0  0  0  0  0  0  0
   10.3176    5.4422   21.6493 H   0  0  0  0  0  0  0  0  0  0  0  0
  1  2  2  0  0  0  0
  1  5  1  0  0  0  0
  2  6  1  0  0  0  0
  3  4  1  0  0  0  0
  3  6  2  0  0  0  0
  4  5  2  0  0  0  0
  4  8  1  0  0  0  0
  5 14  1  0  0  0  0
  6 19  1  0  0  0  0
  7 14  1  0  0  0  0
  7 16  2  0  0  0  0
  8 12  1  0  0  0  0
  8 17  2  0  0  0  0
  9 10  1  0  0  0  0
  9 15  1  0  0  0  0
  9 18  2  0  0  0  0
 11 19  1  0  0  0  0
 12 13  1  0  0  0  0
 13 15  1  0  0  0  0
 14 20  1  0  0  0  0
 15 21  1  0  0  0  0
M  END
> <ref_mols>
x2417_0

> <original SMILES>
CC(NCCC(C1=CC(OC)=CC=C1NC=O)=O)=O

> <Chemgauss4>
-8.123390

> <ref_pdb>
x0104_0

$$$$
x2410
  -OEChem-05172015543D

 21 21  0     0  0  0  0  0  0999 V2000
   11.0466    0.0181   23.7221 C   0  0  0  0  0  0  0  0  0  0  0  0
    9.8613    0.2945   24.4034 C   0  0  0  0  0  0  0  0  0  0  0  0
   10.2872    2.6625   24.1837 C   0  0  0  0  0  0  0  0  0  0  0  0
   11.4726    2.3861   23.5025 C   0  0  0  0  0  0  0  0  0  0  0  0
   11.8523    1.0639   23.2717 C   0  0  0  0  0  0  0  0  0  0  0  0
    9.4815    1.6167   24.6341 C   0  0  0  0  0  0  0  0  0  0  0  0
   13.5494   -0.4913   22.2847 C   0  0  0  0  0  0  0  0  0  0  0  0
   12.2917    3.5016   23.0450 C   0  0  0  0  0  0  0  0  0  0  0  0
    9.3594    6.2915   23.2795 C   0  0  0  0  0  0  0  0  0  0  0  0
    8.0547    6.0333   22.6019 C   0  0  0  0  0  0  0  0  0  0  0  0
    7.5493    0.7692   25.7314 C   0  0  0  0  0  0  0  0  0  0  0  0
   12.2882    4.8265   23.8307 C   0  0  0  0  0  0  0  0  0  0  0  0
   11.8193    6.0331   23.0247 C   0  0  0  0  0  0  0  0  0  0  0  0
   13.0356    0.7633   22.5914 N   0  0  0  0  0  0  0  0  0  0  0  0
   10.4678    5.8783   22.5578 N   0  0  0  0  0  0  0  0  0  0  0  0
   13.0990   -1.6014   22.5311 O   0  0  0  0  0  0  0  0  0  0  0  0
   13.0020    3.3900   22.0273 O   0  0  0  0  0  0  0  0  0  0  0  0
    9.3724    6.8292   24.3806 O   0  0  0  0  0  0  0  0  0  0  0  0
    8.3247    1.8860   25.2990 O   0  0  0  0  0  0  0  0  0  0  0  0
   13.6011    1.5573   22.2757 H   0  0  0  0  0  0  0  0  0  0  0  0
   10.3176    5.4422   21.6493 H   0  0  0  0  0  0  0  0  0  0  0  0
  1  2  2  0  0  0  0
  1  5  1  0  0  0  0
  2  6  1  0  0  0  0
  3  4  1  0  0  0  0
  3  6  2  0  0  0  0
  4  5  2  0  0  0  0
  4  8  1  0  0  0  0
  5 14  1  0  0  0  0
  6 19  1  0  0  0  0
  7 14  1  0  0  0  0
  7 16  2  0  0  0  0
  8 12  1  0  0  0  0
  8 17  2  0  0  0  0
  9 10  1  0  0  0  0
  9 15  1  0  0  0  0
  9 18  2  0  0  0  0
 11 19  1  0  0  0  0
 12 13  1  0  0  0  0
 13 15  1  0  0  0  0
 14 20  1  0  0  0  0
 15 21  1  0  0  0  0
M  END
> <ref_mols>
x2410_0

> <original SMILES>
CC(NCCC(C1=CC(OC)=CC=C1NC=O)=O)=O

> <Chemgauss4>
-8.123390

> <ref_pdb>
x0104_0

$$$$
x2404
  -OEChem-05172015543D

 21 21  0     0  0  0  0  0  0999 V2000
   11.0466    0.0181   23.7221 C   0  0  0  0  0  0  0  0  0  0  0  0
    9.8613    0.2945   24.4034 C   0  0  0  0  0  0  0  0  0  0  0  0
   10.2872    2.6625   24.1837 C   0  0  0  0  0  0  0  0  0  0  0  0
   11.4726    2.3861   23.5025 C   0  0  0  0  0  0  0  0  0  0  0  0
   11.8523    1.0639   23.2717 C   0  0  0  0  0  0  0  0  0  0  0  0
    9.4815    1.6167   24.6341 C   0  0  0  0  0  0  0  0  0  0  0  0
   13.5494   -0.4913   22.2847 C   0  0  0  0  0  0  0  0  0  0  0  0
   12.2917    3.5016   23.0450 C   0  0  0  0  0  0  0  0  0  0  0  0
    9.3594    6.2915   23.2795 C   0  0  0  0  0  0  0  0  0  0  0  0
    8.0547    6.0333   22.6019 C   0  0  0  0  0  0  0  0  0  0  0  0
    7.5493    0.7692   25.7314 C   0  0  0  0  0  0  0  0  0  0  0  0
   12.2882    4.8265   23.8307 C   0  0  0  0  0  0  0  0  0  0  0  0
   11.8193    6.0331   23.0247 C   0  0  0  0  0  0  0  0  0  0  0  0
   13.0356    0.7633   22.5914 N   0  0  0  0  0  0  0  0  0  0  0  0
   10.4678    5.8783   22.5578 N   0  0  0  0  0  0  0  0  0  0  0  0
   13.0990   -1.6014   22.5311 O   0  0  0  0  0  0  0  0  0  0  0  0
   13.0020    3.3900   22.0273 O   0  0  0  0  0  0  0  0  0  0  0  0
    9.3724    6.8292   24.3806 O   0  0  0  0  0  0  0  0  0  0  0  0
    8.3247    1.8860   25.2990 O   0  0  0  0  0  0  0  0  0  0  0  0
   13.6011    1.5573   22.2757 H   0  0  0  0  0  0  0  0  0  0  0  0
   10.3176    5.4422   21.6493 H   0  0  0  0  0  0  0  0  0  0  0  0
  1  2  2  0  0  0  0
  1  5  1  0  0  0  0
  2  6  1  0  0  0  0
  3  4  1  0  0  0  0
  3  6  2  0  0  0  0
  4  5  2  0  0  0  0
  4  8  1  0  0  0  0
  5 14  1  0  0  0  0
  6 19  1  0  0  0  0
  7 14  1  0  0  0  0
  7 16  2  0  0  0  0
  8 12  1  0  0  0  0
  8 17  2  0  0  0  0
  9 10  1  0  0  0  0
  9 15  1  0  0  0  0
  9 18  2  0  0  0  0
 11 19  1  0  0  0  0
 12 13  1  0  0  0  0
 13 15  1  0  0  0  0
 14 20  1  0  0  0  0
 15 21  1  0  0  0  0
M  END
> <ref_mols>
x2404_0

> <original SMILES>
CC(NCCC(C1=CC(OC)=CC=C1NC=O)=O)=O

> <Chemgauss4>
-8.123390

> <ref_pdb>
x0104_0

$$$$
x2415
  -OEChem-05172015543D

 21 21  0     0  0  0  0  0  0999 V2000
   11.0466    0.0181   23.7221 C   0  0  0  0  0  0  0  0  0  0  0  0
    9.8613    0.2945   24.4034 C   0  0  0  0  0  0  0  0  0  0  0  0
   10.2872    2.6625   24.1837 C   0  0  0  0  0  0  0  0  0  0  0  0
   11.4726    2.3861   23.5025 C   0  0  0  0  0  0  0  0  0  0  0  0
   11.8523    1.0639   23.2717 C   0  0  0  0  0  0  0  0  0  0  0  0
    9.4815    1.6167   24.6341 C   0  0  0  0  0  0  0  0  0  0  0  0
   13.5494   -0.4913   22.2847 C   0  0  0  0  0  0  0  0  0  0  0  0
   12.2917    3.5016   23.0450 C   0  0  0  0  0  0  0  0  0  0  0  0
    9.3594    6.2915   23.2795 C   0  0  0  0  0  0  0  0  0  0  0  0
    8.0547    6.0333   22.6019 C   0  0  0  0  0  0  0  0  0  0  0  0
    7.5493    0.7692   25.7314 C   0  0  0  0  0  0  0  0  0  0  0  0
   12.2882    4.8265   23.8307 C   0  0  0  0  0  0  0  0  0  0  0  0
   11.8193    6.0331   23.0247 C   0  0  0  0  0  0  0  0  0  0  0  0
   13.0356    0.7633   22.5914 N   0  0  0  0  0  0  0  0  0  0  0  0
   10.4678    5.8783   22.5578 N   0  0  0  0  0  0  0  0  0  0  0  0
   13.0990   -1.6014   22.5311 O   0  0  0  0  0  0  0  0  0  0  0  0
   13.0020    3.3900   22.0273 O   0  0  0  0  0  0  0  0  0  0  0  0
    9.3724    6.8292   24.3806 O   0  0  0  0  0  0  0  0  0  0  0  0
    8.3247    1.8860   25.2990 O   0  0  0  0  0  0  0  0  0  0  0  0
   13.6011    1.5573   22.2757 H   0  0  0  0  0  0  0  0  0  0  0  0
   10.3176    5.4422   21.6493 H   0  0  0  0  0  0  0  0  0  0  0  0
  1  2  2  0  0  0  0
  1  5  1  0  0  0  0
  2  6  1  0  0  0  0
  3  4  1  0  0  0  0
  3  6  2  0  0  0  0
  4  5  2  0  0  0  0
  4  8  1  0  0  0  0
  5 14  1  0  0  0  0
  6 19  1  0  0  0  0
  7 14  1  0  0  0  0
  7 16  2  0  0  0  0
  8 12  1  0  0  0  0
  8 17  2  0  0  0  0
  9 10  1  0  0  0  0
  9 15  1  0  0  0  0
  9 18  2  0  0  0  0
 11 19  1  0  0  0  0
 12 13  1  0  0  0  0
 13 15  1  0  0  0  0
 14 20  1  0  0  0  0
 15 21  1  0  0  0  0
M  END
> <ref_mols>
x2415_0

> <original SMILES>
CC(NCCC(C1=CC(OC)=CC=C1NC=O)=O)=O

> <Chemgauss4>
-8.123390

> <ref_pdb>
x0104_0

$$$$
x2402
  -OEChem-05172015543D

 21 21  0     0  0  0  0  0  0999 V2000
   11.0466    0.0181   23.7221 C   0  0  0  0  0  0  0  0  0  0  0  0
    9.8613    0.2945   24.4034 C   0  0  0  0  0  0  0  0  0  0  0  0
   10.2872    2.6625   24.1837 C   0  0  0  0  0  0  0  0  0  0  0  0
   11.4726    2.3861   23.5025 C   0  0  0  0  0  0  0  0  0  0  0  0
   11.8523    1.0639   23.2717 C   0  0  0  0  0  0  0  0  0  0  0  0
    9.4815    1.6167   24.6341 C   0  0  0  0  0  0  0  0  0  0  0  0
   13.5494   -0.4913   22.2847 C   0  0  0  0  0  0  0  0  0  0  0  0
   12.2917    3.5016   23.0450 C   0  0  0  0  0  0  0  0  0  0  0  0
    9.3594    6.2915   23.2795 C   0  0  0  0  0  0  0  0  0  0  0  0
    8.0547    6.0333   22.6019 C   0  0  0  0  0  0  0  0  0  0  0  0
    7.5493    0.7692   25.7314 C   0  0  0  0  0  0  0  0  0  0  0  0
   12.2882    4.8265   23.8307 C   0  0  0  0  0  0  0  0  0  0  0  0
   11.8193    6.0331   23.0247 C   0  0  0  0  0  0  0  0  0  0  0  0
   13.0356    0.7633   22.5914 N   0  0  0  0  0  0  0  0  0  0  0  0
   10.4678    5.8783   22.5578 N   0  0  0  0  0  0  0  0  0  0  0  0
   13.0990   -1.6014   22.5311 O   0  0  0  0  0  0  0  0  0  0  0  0
   13.0020    3.3900   22.0273 O   0  0  0  0  0  0  0  0  0  0  0  0
    9.3724    6.8292   24.3806 O   0  0  0  0  0  0  0  0  0  0  0  0
    8.3247    1.8860   25.2990 O   0  0  0  0  0  0  0  0  0  0  0  0
   13.6011    1.5573   22.2757 H   0  0  0  0  0  0  0  0  0  0  0  0
   10.3176    5.4422   21.6493 H   0  0  0  0  0  0  0  0  0  0  0  0
  1  2  2  0  0  0  0
  1  5  1  0  0  0  0
  2  6  1  0  0  0  0
  3  4  1  0  0  0  0
  3  6  2  0  0  0  0
  4  5  2  0  0  0  0
  4  8  1  0  0  0  0
  5 14  1  0  0  0  0
  6 19  1  0  0  0  0
  7 14  1  0  0  0  0
  7 16  2  0  0  0  0
  8 12  1  0  0  0  0
  8 17  2  0  0  0  0
  9 10  1  0  0  0  0
  9 15  1  0  0  0  0
  9 18  2  0  0  0  0
 11 19  1  0  0  0  0
 12 13  1  0  0  0  0
 13 15  1  0  0  0  0
 14 20  1  0  0  0  0
 15 21  1  0  0  0  0
M  END
> <ref_mols>
x2402_0

> <original SMILES>
CC(NCCC(C1=CC(OC)=CC=C1NC=O)=O)=O

> <Chemgauss4>
-8.123390

> <ref_pdb>
x0104_0

$$$$
x2423
  -OEChem-05172015543D

 21 21  0     0  0  0  0  0  0999 V2000
   11.0466    0.0181   23.7221 C   0  0  0  0  0  0  0  0  0  0  0  0
    9.8613    0.2945   24.4034 C   0  0  0  0  0  0  0  0  0  0  0  0
   10.2872    2.6625   24.1837 C   0  0  0  0  0  0  0  0  0  0  0  0
   11.4726    2.3861   23.5025 C   0  0  0  0  0  0  0  0  0  0  0  0
   11.8523    1.0639   23.2717 C   0  0  0  0  0  0  0  0  0  0  0  0
    9.4815    1.6167   24.6341 C   0  0  0  0  0  0  0  0  0  0  0  0
   13.5494   -0.4913   22.2847 C   0  0  0  0  0  0  0  0  0  0  0  0
   12.2917    3.5016   23.0450 C   0  0  0  0  0  0  0  0  0  0  0  0
    9.3594    6.2915   23.2795 C   0  0  0  0  0  0  0  0  0  0  0  0
    8.0547    6.0333   22.6019 C   0  0  0  0  0  0  0  0  0  0  0  0
    7.5493    0.7692   25.7314 C   0  0  0  0  0  0  0  0  0  0  0  0
   12.2882    4.8265   23.8307 C   0  0  0  0  0  0  0  0  0  0  0  0
   11.8193    6.0331   23.0247 C   0  0  0  0  0  0  0  0  0  0  0  0
   13.0356    0.7633   22.5914 N   0  0  0  0  0  0  0  0  0  0  0  0
   10.4678    5.8783   22.5578 N   0  0  0  0  0  0  0  0  0  0  0  0
   13.0990   -1.6014   22.5311 O   0  0  0  0  0  0  0  0  0  0  0  0
   13.0020    3.3900   22.0273 O   0  0  0  0  0  0  0  0  0  0  0  0
    9.3724    6.8292   24.3806 O   0  0  0  0  0  0  0  0  0  0  0  0
    8.3247    1.8860   25.2990 O   0  0  0  0  0  0  0  0  0  0  0  0
   13.6011    1.5573   22.2757 H   0  0  0  0  0  0  0  0  0  0  0  0
   10.3176    5.4422   21.6493 H   0  0  0  0  0  0  0  0  0  0  0  0
  1  2  2  0  0  0  0
  1  5  1  0  0  0  0
  2  6  1  0  0  0  0
  3  4  1  0  0  0  0
  3  6  2  0  0  0  0
  4  5  2  0  0  0  0
  4  8  1  0  0  0  0
  5 14  1  0  0  0  0
  6 19  1  0  0  0  0
  7 14  1  0  0  0  0
  7 16  2  0  0  0  0
  8 12  1  0  0  0  0
  8 17  2  0  0  0  0
  9 10  1  0  0  0  0
  9 15  1  0  0  0  0
  9 18  2  0  0  0  0
 11 19  1  0  0  0  0
 12 13  1  0  0  0  0
 13 15  1  0  0  0  0
 14 20  1  0  0  0  0
 15 21  1  0  0  0  0
M  END
> <ref_mols>
x2423_0

> <original SMILES>
CC(NCCC(C1=CC(OC)=CC=C1NC=O)=O)=O

> <Chemgauss4>
-8.123390

> <ref_pdb>
x0104_0

$$$$
x2411
  -OEChem-05172015543D

 21 21  0     0  0  0  0  0  0999 V2000
   11.0466    0.0181   23.7221 C   0  0  0  0  0  0  0  0  0  0  0  0
    9.8613    0.2945   24.4034 C   0  0  0  0  0  0  0  0  0  0  0  0
   10.2872    2.6625   24.1837 C   0  0  0  0  0  0  0  0  0  0  0  0
   11.4726    2.3861   23.5025 C   0  0  0  0  0  0  0  0  0  0  0  0
   11.8523    1.0639   23.2717 C   0  0  0  0  0  0  0  0  0  0  0  0
    9.4815    1.6167   24.6341 C   0  0  0  0  0  0  0  0  0  0  0  0
   13.5494   -0.4913   22.2847 C   0  0  0  0  0  0  0  0  0  0  0  0
   12.2917    3.5016   23.0450 C   0  0  0  0  0  0  0  0  0  0  0  0
    9.3594    6.2915   23.2795 C   0  0  0  0  0  0  0  0  0  0  0  0
    8.0547    6.0333   22.6019 C   0  0  0  0  0  0  0  0  0  0  0  0
    7.5493    0.7692   25.7314 C   0  0  0  0  0  0  0  0  0  0  0  0
   12.2882    4.8265   23.8307 C   0  0  0  0  0  0  0  0  0  0  0  0
   11.8193    6.0331   23.0247 C   0  0  0  0  0  0  0  0  0  0  0  0
   13.0356    0.7633   22.5914 N   0  0  0  0  0  0  0  0  0  0  0  0
   10.4678    5.8783   22.5578 N   0  0  0  0  0  0  0  0  0  0  0  0
   13.0990   -1.6014   22.5311 O   0  0  0  0  0  0  0  0  0  0  0  0
   13.0020    3.3900   22.0273 O   0  0  0  0  0  0  0  0  0  0  0  0
    9.3724    6.8292   24.3806 O   0  0  0  0  0  0  0  0  0  0  0  0
    8.3247    1.8860   25.2990 O   0  0  0  0  0  0  0  0  0  0  0  0
   13.6011    1.5573   22.2757 H   0  0  0  0  0  0  0  0  0  0  0  0
   10.3176    5.4422   21.6493 H   0  0  0  0  0  0  0  0  0  0  0  0
  1  2  2  0  0  0  0
  1  5  1  0  0  0  0
  2  6  1  0  0  0  0
  3  4  1  0  0  0  0
  3  6  2  0  0  0  0
  4  5  2  0  0  0  0
  4  8  1  0  0  0  0
  5 14  1  0  0  0  0
  6 19  1  0  0  0  0
  7 14  1  0  0  0  0
  7 16  2  0  0  0  0
  8 12  1  0  0  0  0
  8 17  2  0  0  0  0
  9 10  1  0  0  0  0
  9 15  1  0  0  0  0
  9 18  2  0  0  0  0
 11 19  1  0  0  0  0
 12 13  1  0  0  0  0
 13 15  1  0  0  0  0
 14 20  1  0  0  0  0
 15 21  1  0  0  0  0
M  END
> <ref_mols>
x2411_0

> <original SMILES>
CC(NCCC(C1=CC(OC)=CC=C1NC=O)=O)=O

> <Chemgauss4>
-8.123390

> <ref_pdb>
x0104_0

$$$$
x2409
  -OEChem-05172015543D

 21 21  0     0  0  0  0  0  0999 V2000
   11.0466    0.0181   23.7221 C   0  0  0  0  0  0  0  0  0  0  0  0
    9.8613    0.2945   24.4034 C   0  0  0  0  0  0  0  0  0  0  0  0
   10.2872    2.6625   24.1837 C   0  0  0  0  0  0  0  0  0  0  0  0
   11.4726    2.3861   23.5025 C   0  0  0  0  0  0  0  0  0  0  0  0
   11.8523    1.0639   23.2717 C   0  0  0  0  0  0  0  0  0  0  0  0
    9.4815    1.6167   24.6341 C   0  0  0  0  0  0  0  0  0  0  0  0
   13.5494   -0.4913   22.2847 C   0  0  0  0  0  0  0  0  0  0  0  0
   12.2917    3.5016   23.0450 C   0  0  0  0  0  0  0  0  0  0  0  0
    9.3594    6.2915   23.2795 C   0  0  0  0  0  0  0  0  0  0  0  0
    8.0547    6.0333   22.6019 C   0  0  0  0  0  0  0  0  0  0  0  0
    7.5493    0.7692   25.7314 C   0  0  0  0  0  0  0  0  0  0  0  0
   12.2882    4.8265   23.8307 C   0  0  0  0  0  0  0  0  0  0  0  0
   11.8193    6.0331   23.0247 C   0  0  0  0  0  0  0  0  0  0  0  0
   13.0356    0.7633   22.5914 N   0  0  0  0  0  0  0  0  0  0  0  0
   10.4678    5.8783   22.5578 N   0  0  0  0  0  0  0  0  0  0  0  0
   13.0990   -1.6014   22.5311 O   0  0  0  0  0  0  0  0  0  0  0  0
   13.0020    3.3900   22.0273 O   0  0  0  0  0  0  0  0  0  0  0  0
    9.3724    6.8292   24.3806 O   0  0  0  0  0  0  0  0  0  0  0  0
    8.3247    1.8860   25.2990 O   0  0  0  0  0  0  0  0  0  0  0  0
   13.6011    1.5573   22.2757 H   0  0  0  0  0  0  0  0  0  0  0  0
   10.3176    5.4422   21.6493 H   0  0  0  0  0  0  0  0  0  0  0  0
  1  2  2  0  0  0  0
  1  5  1  0  0  0  0
  2  6  1  0  0  0  0
  3  4  1  0  0  0  0
  3  6  2  0  0  0  0
  4  5  2  0  0  0  0
  4  8  1  0  0  0  0
  5 14  1  0  0  0  0
  6 19  1  0  0  0  0
  7 14  1  0  0  0  0
  7 16  2  0  0  0  0
  8 12  1  0  0  0  0
  8 17  2  0  0  0  0
  9 10  1  0  0  0  0
  9 15  1  0  0  0  0
  9 18  2  0  0  0  0
 11 19  1  0  0  0  0
 12 13  1  0  0  0  0
 13 15  1  0  0  0  0
 14 20  1  0  0  0  0
 15 21  1  0  0  0  0
M  END
> <ref_mols>
x2409_0

> <original SMILES>
CC(NCCC(C1=CC(OC)=CC=C1NC=O)=O)=O

> <Chemgauss4>
-8.123390

> <ref_pdb>
x0104_0

$$$$
x2414
  -OEChem-05172015543D

 21 21  0     0  0  0  0  0  0999 V2000
   11.0466    0.0181   23.7221 C   0  0  0  0  0  0  0  0  0  0  0  0
    9.8613    0.2945   24.4034 C   0  0  0  0  0  0  0  0  0  0  0  0
   10.2872    2.6625   24.1837 C   0  0  0  0  0  0  0  0  0  0  0  0
   11.4726    2.3861   23.5025 C   0  0  0  0  0  0  0  0  0  0  0  0
   11.8523    1.0639   23.2717 C   0  0  0  0  0  0  0  0  0  0  0  0
    9.4815    1.6167   24.6341 C   0  0  0  0  0  0  0  0  0  0  0  0
   13.5494   -0.4913   22.2847 C   0  0  0  0  0  0  0  0  0  0  0  0
   12.2917    3.5016   23.0450 C   0  0  0  0  0  0  0  0  0  0  0  0
    9.3594    6.2915   23.2795 C   0  0  0  0  0  0  0  0  0  0  0  0
    8.0547    6.0333   22.6019 C   0  0  0  0  0  0  0  0  0  0  0  0
    7.5493    0.7692   25.7314 C   0  0  0  0  0  0  0  0  0  0  0  0
   12.2882    4.8265   23.8307 C   0  0  0  0  0  0  0  0  0  0  0  0
   11.8193    6.0331   23.0247 C   0  0  0  0  0  0  0  0  0  0  0  0
   13.0356    0.7633   22.5914 N   0  0  0  0  0  0  0  0  0  0  0  0
   10.4678    5.8783   22.5578 N   0  0  0  0  0  0  0  0  0  0  0  0
   13.0990   -1.6014   22.5311 O   0  0  0  0  0  0  0  0  0  0  0  0
   13.0020    3.3900   22.0273 O   0  0  0  0  0  0  0  0  0  0  0  0
    9.3724    6.8292   24.3806 O   0  0  0  0  0  0  0  0  0  0  0  0
    8.3247    1.8860   25.2990 O   0  0  0  0  0  0  0  0  0  0  0  0
   13.6011    1.5573   22.2757 H   0  0  0  0  0  0  0  0  0  0  0  0
   10.3176    5.4422   21.6493 H   0  0  0  0  0  0  0  0  0  0  0  0
  1  2  2  0  0  0  0
  1  5  1  0  0  0  0
  2  6  1  0  0  0  0
  3  4  1  0  0  0  0
  3  6  2  0  0  0  0
  4  5  2  0  0  0  0
  4  8  1  0  0  0  0
  5 14  1  0  0  0  0
  6 19  1  0  0  0  0
  7 14  1  0  0  0  0
  7 16  2  0  0  0  0
  8 12  1  0  0  0  0
  8 17  2  0  0  0  0
  9 10  1  0  0  0  0
  9 15  1  0  0  0  0
  9 18  2  0  0  0  0
 11 19  1  0  0  0  0
 12 13  1  0  0  0  0
 13 15  1  0  0  0  0
 14 20  1  0  0  0  0
 15 21  1  0  0  0  0
M  END
> <ref_mols>
x2414_0

> <original SMILES>
CC(NCCC(C1=CC(OC)=CC=C1NC=O)=O)=O

> <Chemgauss4>
-8.123390

> <ref_pdb>
x0104_0

$$$$
x2418
  -OEChem-05172015543D

 21 21  0     0  0  0  0  0  0999 V2000
   11.0466    0.0181   23.7221 C   0  0  0  0  0  0  0  0  0  0  0  0
    9.8613    0.2945   24.4034 C   0  0  0  0  0  0  0  0  0  0  0  0
   10.2872    2.6625   24.1837 C   0  0  0  0  0  0  0  0  0  0  0  0
   11.4726    2.3861   23.5025 C   0  0  0  0  0  0  0  0  0  0  0  0
   11.8523    1.0639   23.2717 C   0  0  0  0  0  0  0  0  0  0  0  0
    9.4815    1.6167   24.6341 C   0  0  0  0  0  0  0  0  0  0  0  0
   13.5494   -0.4913   22.2847 C   0  0  0  0  0  0  0  0  0  0  0  0
   12.2917    3.5016   23.0450 C   0  0  0  0  0  0  0  0  0  0  0  0
    9.3594    6.2915   23.2795 C   0  0  0  0  0  0  0  0  0  0  0  0
    8.0547    6.0333   22.6019 C   0  0  0  0  0  0  0  0  0  0  0  0
    7.5493    0.7692   25.7314 C   0  0  0  0  0  0  0  0  0  0  0  0
   12.2882    4.8265   23.8307 C   0  0  0  0  0  0  0  0  0  0  0  0
   11.8193    6.0331   23.0247 C   0  0  0  0  0  0  0  0  0  0  0  0
   13.0356    0.7633   22.5914 N   0  0  0  0  0  0  0  0  0  0  0  0
   10.4678    5.8783   22.5578 N   0  0  0  0  0  0  0  0  0  0  0  0
   13.0990   -1.6014   22.5311 O   0  0  0  0  0  0  0  0  0  0  0  0
   13.0020    3.3900   22.0273 O   0  0  0  0  0  0  0  0  0  0  0  0
    9.3724    6.8292   24.3806 O   0  0  0  0  0  0  0  0  0  0  0  0
    8.3247    1.8860   25.2990 O   0  0  0  0  0  0  0  0  0  0  0  0
   13.6011    1.5573   22.2757 H   0  0  0  0  0  0  0  0  0  0  0  0
   10.3176    5.4422   21.6493 H   0  0  0  0  0  0  0  0  0  0  0  0
  1  2  2  0  0  0  0
  1  5  1  0  0  0  0
  2  6  1  0  0  0  0
  3  4  1  0  0  0  0
  3  6  2  0  0  0  0
  4  5  2  0  0  0  0
  4  8  1  0  0  0  0
  5 14  1  0  0  0  0
  6 19  1  0  0  0  0
  7 14  1  0  0  0  0
  7 16  2  0  0  0  0
  8 12  1  0  0  0  0
  8 17  2  0  0  0  0
  9 10  1  0  0  0  0
  9 15  1  0  0  0  0
  9 18  2  0  0  0  0
 11 19  1  0  0  0  0
 12 13  1  0  0  0  0
 13 15  1  0  0  0  0
 14 20  1  0  0  0  0
 15 21  1  0  0  0  0
M  END
> <ref_mols>
x2418_0

> <original SMILES>
CC(NCCC(C1=CC(OC)=CC=C1NC=O)=O)=O

> <Chemgauss4>
-8.123390

> <ref_pdb>
x0104_0

$$$$
x2403
  -OEChem-05172015543D

 21 21  0     0  0  0  0  0  0999 V2000
   11.0466    0.0181   23.7221 C   0  0  0  0  0  0  0  0  0  0  0  0
    9.8613    0.2945   24.4034 C   0  0  0  0  0  0  0  0  0  0  0  0
   10.2872    2.6625   24.1837 C   0  0  0  0  0  0  0  0  0  0  0  0
   11.4726    2.3861   23.5025 C   0  0  0  0  0  0  0  0  0  0  0  0
   11.8523    1.0639   23.2717 C   0  0  0  0  0  0  0  0  0  0  0  0
    9.4815    1.6167   24.6341 C   0  0  0  0  0  0  0  0  0  0  0  0
   13.5494   -0.4913   22.2847 C   0  0  0  0  0  0  0  0  0  0  0  0
   12.2917    3.5016   23.0450 C   0  0  0  0  0  0  0  0  0  0  0  0
    9.3594    6.2915   23.2795 C   0  0  0  0  0  0  0  0  0  0  0  0
    8.0547    6.0333   22.6019 C   0  0  0  0  0  0  0  0  0  0  0  0
    7.5493    0.7692   25.7314 C   0  0  0  0  0  0  0  0  0  0  0  0
   12.2882    4.8265   23.8307 C   0  0  0  0  0  0  0  0  0  0  0  0
   11.8193    6.0331   23.0247 C   0  0  0  0  0  0  0  0  0  0  0  0
   13.0356    0.7633   22.5914 N   0  0  0  0  0  0  0  0  0  0  0  0
   10.4678    5.8783   22.5578 N   0  0  0  0  0  0  0  0  0  0  0  0
   13.0990   -1.6014   22.5311 O   0  0  0  0  0  0  0  0  0  0  0  0
   13.0020    3.3900   22.0273 O   0  0  0  0  0  0  0  0  0  0  0  0
    9.3724    6.8292   24.3806 O   0  0  0  0  0  0  0  0  0  0  0  0
    8.3247    1.8860   25.2990 O   0  0  0  0  0  0  0  0  0  0  0  0
   13.6011    1.5573   22.2757 H   0  0  0  0  0  0  0  0  0  0  0  0
   10.3176    5.4422   21.6493 H   0  0  0  0  0  0  0  0  0  0  0  0
  1  2  2  0  0  0  0
  1  5  1  0  0  0  0
  2  6  1  0  0  0  0
  3  4  1  0  0  0  0
  3  6  2  0  0  0  0
  4  5  2  0  0  0  0
  4  8  1  0  0  0  0
  5 14  1  0  0  0  0
  6 19  1  0  0  0  0
  7 14  1  0  0  0  0
  7 16  2  0  0  0  0
  8 12  1  0  0  0  0
  8 17  2  0  0  0  0
  9 10  1  0  0  0  0
  9 15  1  0  0  0  0
  9 18  2  0  0  0  0
 11 19  1  0  0  0  0
 12 13  1  0  0  0  0
 13 15  1  0  0  0  0
 14 20  1  0  0  0  0
 15 21  1  0  0  0  0
M  END
> <ref_mols>
x2403_0

> <original SMILES>
CC(NCCC(C1=CC(OC)=CC=C1NC=O)=O)=O

> <Chemgauss4>
-8.123390

> <ref_pdb>
x0104_0

$$$$
x2425
  -OEChem-05172015543D

 21 21  0     0  0  0  0  0  0999 V2000
   11.0466    0.0181   23.7221 C   0  0  0  0  0  0  0  0  0  0  0  0
    9.8613    0.2945   24.4034 C   0  0  0  0  0  0  0  0  0  0  0  0
   10.2872    2.6625   24.1837 C   0  0  0  0  0  0  0  0  0  0  0  0
   11.4726    2.3861   23.5025 C   0  0  0  0  0  0  0  0  0  0  0  0
   11.8523    1.0639   23.2717 C   0  0  0  0  0  0  0  0  0  0  0  0
    9.4815    1.6167   24.6341 C   0  0  0  0  0  0  0  0  0  0  0  0
   13.5494   -0.4913   22.2847 C   0  0  0  0  0  0  0  0  0  0  0  0
   12.2917    3.5016   23.0450 C   0  0  0  0  0  0  0  0  0  0  0  0
    9.3594    6.2915   23.2795 C   0  0  0  0  0  0  0  0  0  0  0  0
    8.0547    6.0333   22.6019 C   0  0  0  0  0  0  0  0  0  0  0  0
    7.5493    0.7692   25.7314 C   0  0  0  0  0  0  0  0  0  0  0  0
   12.2882    4.8265   23.8307 C   0  0  0  0  0  0  0  0  0  0  0  0
   11.8193    6.0331   23.0247 C   0  0  0  0  0  0  0  0  0  0  0  0
   13.0356    0.7633   22.5914 N   0  0  0  0  0  0  0  0  0  0  0  0
   10.4678    5.8783   22.5578 N   0  0  0  0  0  0  0  0  0  0  0  0
   13.0990   -1.6014   22.5311 O   0  0  0  0  0  0  0  0  0  0  0  0
   13.0020    3.3900   22.0273 O   0  0  0  0  0  0  0  0  0  0  0  0
    9.3724    6.8292   24.3806 O   0  0  0  0  0  0  0  0  0  0  0  0
    8.3247    1.8860   25.2990 O   0  0  0  0  0  0  0  0  0  0  0  0
   13.6011    1.5573   22.2757 H   0  0  0  0  0  0  0  0  0  0  0  0
   10.3176    5.4422   21.6493 H   0  0  0  0  0  0  0  0  0  0  0  0
  1  2  2  0  0  0  0
  1  5  1  0  0  0  0
  2  6  1  0  0  0  0
  3  4  1  0  0  0  0
  3  6  2  0  0  0  0
  4  5  2  0  0  0  0
  4  8  1  0  0  0  0
  5 14  1  0  0  0  0
  6 19  1  0  0  0  0
  7 14  1  0  0  0  0
  7 16  2  0  0  0  0
  8 12  1  0  0  0  0
  8 17  2  0  0  0  0
  9 10  1  0  0  0  0
  9 15  1  0  0  0  0
  9 18  2  0  0  0  0
 11 19  1  0  0  0  0
 12 13  1  0  0  0  0
 13 15  1  0  0  0  0
 14 20  1  0  0  0  0
 15 21  1  0  0  0  0
M  END
> <ref_mols>
x2425_0

> <original SMILES>
CC(NCCC(C1=CC(OC)=CC=C1NC=O)=O)=O

> <Chemgauss4>
-8.123390

> <ref_pdb>
x0104_0

$$$$
x2416
  -OEChem-05172015543D

 21 21  0     0  0  0  0  0  0999 V2000
   11.0466    0.0181   23.7221 C   0  0  0  0  0  0  0  0  0  0  0  0
    9.8613    0.2945   24.4034 C   0  0  0  0  0  0  0  0  0  0  0  0
   10.2872    2.6625   24.1837 C   0  0  0  0  0  0  0  0  0  0  0  0
   11.4726    2.3861   23.5025 C   0  0  0  0  0  0  0  0  0  0  0  0
   11.8523    1.0639   23.2717 C   0  0  0  0  0  0  0  0  0  0  0  0
    9.4815    1.6167   24.6341 C   0  0  0  0  0  0  0  0  0  0  0  0
   13.5494   -0.4913   22.2847 C   0  0  0  0  0  0  0  0  0  0  0  0
   12.2917    3.5016   23.0450 C   0  0  0  0  0  0  0  0  0  0  0  0
    9.3594    6.2915   23.2795 C   0  0  0  0  0  0  0  0  0  0  0  0
    8.0547    6.0333   22.6019 C   0  0  0  0  0  0  0  0  0  0  0  0
    7.5493    0.7692   25.7314 C   0  0  0  0  0  0  0  0  0  0  0  0
   12.2882    4.8265   23.8307 C   0  0  0  0  0  0  0  0  0  0  0  0
   11.8193    6.0331   23.0247 C   0  0  0  0  0  0  0  0  0  0  0  0
   13.0356    0.7633   22.5914 N   0  0  0  0  0  0  0  0  0  0  0  0
   10.4678    5.8783   22.5578 N   0  0  0  0  0  0  0  0  0  0  0  0
   13.0990   -1.6014   22.5311 O   0  0  0  0  0  0  0  0  0  0  0  0
   13.0020    3.3900   22.0273 O   0  0  0  0  0  0  0  0  0  0  0  0
    9.3724    6.8292   24.3806 O   0  0  0  0  0  0  0  0  0  0  0  0
    8.3247    1.8860   25.2990 O   0  0  0  0  0  0  0  0  0  0  0  0
   13.6011    1.5573   22.2757 H   0  0  0  0  0  0  0  0  0  0  0  0
   10.3176    5.4422   21.6493 H   0  0  0  0  0  0  0  0  0  0  0  0
  1  2  2  0  0  0  0
  1  5  1  0  0  0  0
  2  6  1  0  0  0  0
  3  4  1  0  0  0  0
  3  6  2  0  0  0  0
  4  5  2  0  0  0  0
  4  8  1  0  0  0  0
  5 14  1  0  0  0  0
  6 19  1  0  0  0  0
  7 14  1  0  0  0  0
  7 16  2  0  0  0  0
  8 12  1  0  0  0  0
  8 17  2  0  0  0  0
  9 10  1  0  0  0  0
  9 15  1  0  0  0  0
  9 18  2  0  0  0  0
 11 19  1  0  0  0  0
 12 13  1  0  0  0  0
 13 15  1  0  0  0  0
 14 20  1  0  0  0  0
 15 21  1  0  0  0  0
M  END
> <ref_mols>
x2416_0

> <original SMILES>
CC(NCCC(C1=CC(OC)=CC=C1NC=O)=O)=O

> <Chemgauss4>
-8.123390

> <ref_pdb>
x0104_0

$$$$
x2408
  -OEChem-05172015543D

 21 21  0     0  0  0  0  0  0999 V2000
   11.0466    0.0181   23.7221 C   0  0  0  0  0  0  0  0  0  0  0  0
    9.8613    0.2945   24.4034 C   0  0  0  0  0  0  0  0  0  0  0  0
   10.2872    2.6625   24.1837 C   0  0  0  0  0  0  0  0  0  0  0  0
   11.4726    2.3861   23.5025 C   0  0  0  0  0  0  0  0  0  0  0  0
   11.8523    1.0639   23.2717 C   0  0  0  0  0  0  0  0  0  0  0  0
    9.4815    1.6167   24.6341 C   0  0  0  0  0  0  0  0  0  0  0  0
   13.5494   -0.4913   22.2847 C   0  0  0  0  0  0  0  0  0  0  0  0
   12.2917    3.5016   23.0450 C   0  0  0  0  0  0  0  0  0  0  0  0
    9.3594    6.2915   23.2795 C   0  0  0  0  0  0  0  0  0  0  0  0
    8.0547    6.0333   22.6019 C   0  0  0  0  0  0  0  0  0  0  0  0
    7.5493    0.7692   25.7314 C   0  0  0  0  0  0  0  0  0  0  0  0
   12.2882    4.8265   23.8307 C   0  0  0  0  0  0  0  0  0  0  0  0
   11.8193    6.0331   23.0247 C   0  0  0  0  0  0  0  0  0  0  0  0
   13.0356    0.7633   22.5914 N   0  0  0  0  0  0  0  0  0  0  0  0
   10.4678    5.8783   22.5578 N   0  0  0  0  0  0  0  0  0  0  0  0
   13.0990   -1.6014   22.5311 O   0  0  0  0  0  0  0  0  0  0  0  0
   13.0020    3.3900   22.0273 O   0  0  0  0  0  0  0  0  0  0  0  0
    9.3724    6.8292   24.3806 O   0  0  0  0  0  0  0  0  0  0  0  0
    8.3247    1.8860   25.2990 O   0  0  0  0  0  0  0  0  0  0  0  0
   13.6011    1.5573   22.2757 H   0  0  0  0  0  0  0  0  0  0  0  0
   10.3176    5.4422   21.6493 H   0  0  0  0  0  0  0  0  0  0  0  0
  1  2  2  0  0  0  0
  1  5  1  0  0  0  0
  2  6  1  0  0  0  0
  3  4  1  0  0  0  0
  3  6  2  0  0  0  0
  4  5  2  0  0  0  0
  4  8  1  0  0  0  0
  5 14  1  0  0  0  0
  6 19  1  0  0  0  0
  7 14  1  0  0  0  0
  7 16  2  0  0  0  0
  8 12  1  0  0  0  0
  8 17  2  0  0  0  0
  9 10  1  0  0  0  0
  9 15  1  0  0  0  0
  9 18  2  0  0  0  0
 11 19  1  0  0  0  0
 12 13  1  0  0  0  0
 13 15  1  0  0  0  0
 14 20  1  0  0  0  0
 15 21  1  0  0  0  0
M  END
> <ref_mols>
x2408_0

> <original SMILES>
CC(NCCC(C1=CC(OC)=CC=C1NC=O)=O)=O

> <Chemgauss4>
-8.123390

> <ref_pdb>
x0104_0

$$$$
x2419
  -OEChem-05172015543D

 21 21  0     0  0  0  0  0  0999 V2000
   11.0466    0.0181   23.7221 C   0  0  0  0  0  0  0  0  0  0  0  0
    9.8613    0.2945   24.4034 C   0  0  0  0  0  0  0  0  0  0  0  0
   10.2872    2.6625   24.1837 C   0  0  0  0  0  0  0  0  0  0  0  0
   11.4726    2.3861   23.5025 C   0  0  0  0  0  0  0  0  0  0  0  0
   11.8523    1.0639   23.2717 C   0  0  0  0  0  0  0  0  0  0  0  0
    9.4815    1.6167   24.6341 C   0  0  0  0  0  0  0  0  0  0  0  0
   13.5494   -0.4913   22.2847 C   0  0  0  0  0  0  0  0  0  0  0  0
   12.2917    3.5016   23.0450 C   0  0  0  0  0  0  0  0  0  0  0  0
    9.3594    6.2915   23.2795 C   0  0  0  0  0  0  0  0  0  0  0  0
    8.0547    6.0333   22.6019 C   0  0  0  0  0  0  0  0  0  0  0  0
    7.5493    0.7692   25.7314 C   0  0  0  0  0  0  0  0  0  0  0  0
   12.2882    4.8265   23.8307 C   0  0  0  0  0  0  0  0  0  0  0  0
   11.8193    6.0331   23.0247 C   0  0  0  0  0  0  0  0  0  0  0  0
   13.0356    0.7633   22.5914 N   0  0  0  0  0  0  0  0  0  0  0  0
   10.4678    5.8783   22.5578 N   0  0  0  0  0  0  0  0  0  0  0  0
   13.0990   -1.6014   22.5311 O   0  0  0  0  0  0  0  0  0  0  0  0
   13.0020    3.3900   22.0273 O   0  0  0  0  0  0  0  0  0  0  0  0
    9.3724    6.8292   24.3806 O   0  0  0  0  0  0  0  0  0  0  0  0
    8.3247    1.8860   25.2990 O   0  0  0  0  0  0  0  0  0  0  0  0
   13.6011    1.5573   22.2757 H   0  0  0  0  0  0  0  0  0  0  0  0
   10.3176    5.4422   21.6493 H   0  0  0  0  0  0  0  0  0  0  0  0
  1  2  2  0  0  0  0
  1  5  1  0  0  0  0
  2  6  1  0  0  0  0
  3  4  1  0  0  0  0
  3  6  2  0  0  0  0
  4  5  2  0  0  0  0
  4  8  1  0  0  0  0
  5 14  1  0  0  0  0
  6 19  1  0  0  0  0
  7 14  1  0  0  0  0
  7 16  2  0  0  0  0
  8 12  1  0  0  0  0
  8 17  2  0  0  0  0
  9 10  1  0  0  0  0
  9 15  1  0  0  0  0
  9 18  2  0  0  0  0
 11 19  1  0  0  0  0
 12 13  1  0  0  0  0
 13 15  1  0  0  0  0
 14 20  1  0  0  0  0
 15 21  1  0  0  0  0
M  END
> <ref_mols>
x2419_0

> <original SMILES>
CC(NCCC(C1=CC(OC)=CC=C1NC=O)=O)=O

> <Chemgauss4>
-8.123390

> <ref_pdb>
x0104_0

$$$$
x2412
  -OEChem-05172015543D

 21 21  0     0  0  0  0  0  0999 V2000
   11.0466    0.0181   23.7221 C   0  0  0  0  0  0  0  0  0  0  0  0
    9.8613    0.2945   24.4034 C   0  0  0  0  0  0  0  0  0  0  0  0
   10.2872    2.6625   24.1837 C   0  0  0  0  0  0  0  0  0  0  0  0
   11.4726    2.3861   23.5025 C   0  0  0  0  0  0  0  0  0  0  0  0
   11.8523    1.0639   23.2717 C   0  0  0  0  0  0  0  0  0  0  0  0
    9.4815    1.6167   24.6341 C   0  0  0  0  0  0  0  0  0  0  0  0
   13.5494   -0.4913   22.2847 C   0  0  0  0  0  0  0  0  0  0  0  0
   12.2917    3.5016   23.0450 C   0  0  0  0  0  0  0  0  0  0  0  0
    9.3594    6.2915   23.2795 C   0  0  0  0  0  0  0  0  0  0  0  0
    8.0547    6.0333   22.6019 C   0  0  0  0  0  0  0  0  0  0  0  0
    7.5493    0.7692   25.7314 C   0  0  0  0  0  0  0  0  0  0  0  0
   12.2882    4.8265   23.8307 C   0  0  0  0  0  0  0  0  0  0  0  0
   11.8193    6.0331   23.0247 C   0  0  0  0  0  0  0  0  0  0  0  0
   13.0356    0.7633   22.5914 N   0  0  0  0  0  0  0  0  0  0  0  0
   10.4678    5.8783   22.5578 N   0  0  0  0  0  0  0  0  0  0  0  0
   13.0990   -1.6014   22.5311 O   0  0  0  0  0  0  0  0  0  0  0  0
   13.0020    3.3900   22.0273 O   0  0  0  0  0  0  0  0  0  0  0  0
    9.3724    6.8292   24.3806 O   0  0  0  0  0  0  0  0  0  0  0  0
    8.3247    1.8860   25.2990 O   0  0  0  0  0  0  0  0  0  0  0  0
   13.6011    1.5573   22.2757 H   0  0  0  0  0  0  0  0  0  0  0  0
   10.3176    5.4422   21.6493 H   0  0  0  0  0  0  0  0  0  0  0  0
  1  2  2  0  0  0  0
  1  5  1  0  0  0  0
  2  6  1  0  0  0  0
  3  4  1  0  0  0  0
  3  6  2  0  0  0  0
  4  5  2  0  0  0  0
  4  8  1  0  0  0  0
  5 14  1  0  0  0  0
  6 19  1  0  0  0  0
  7 14  1  0  0  0  0
  7 16  2  0  0  0  0
  8 12  1  0  0  0  0
  8 17  2  0  0  0  0
  9 10  1  0  0  0  0
  9 15  1  0  0  0  0
  9 18  2  0  0  0  0
 11 19  1  0  0  0  0
 12 13  1  0  0  0  0
 13 15  1  0  0  0  0
 14 20  1  0  0  0  0
 15 21  1  0  0  0  0
M  END
> <ref_mols>
x2412_0

> <original SMILES>
CC(NCCC(C1=CC(OC)=CC=C1NC=O)=O)=O

> <Chemgauss4>
-8.123390

> <ref_pdb>
x0104_0

$$$$
x2407
  -OEChem-05172015543D

 21 21  0     0  0  0  0  0  0999 V2000
   11.0466    0.0181   23.7221 C   0  0  0  0  0  0  0  0  0  0  0  0
    9.8613    0.2945   24.4034 C   0  0  0  0  0  0  0  0  0  0  0  0
   10.2872    2.6625   24.1837 C   0  0  0  0  0  0  0  0  0  0  0  0
   11.4726    2.3861   23.5025 C   0  0  0  0  0  0  0  0  0  0  0  0
   11.8523    1.0639   23.2717 C   0  0  0  0  0  0  0  0  0  0  0  0
    9.4815    1.6167   24.6341 C   0  0  0  0  0  0  0  0  0  0  0  0
   13.5494   -0.4913   22.2847 C   0  0  0  0  0  0  0  0  0  0  0  0
   12.2917    3.5016   23.0450 C   0  0  0  0  0  0  0  0  0  0  0  0
    9.3594    6.2915   23.2795 C   0  0  0  0  0  0  0  0  0  0  0  0
    8.0547    6.0333   22.6019 C   0  0  0  0  0  0  0  0  0  0  0  0
    7.5493    0.7692   25.7314 C   0  0  0  0  0  0  0  0  0  0  0  0
   12.2882    4.8265   23.8307 C   0  0  0  0  0  0  0  0  0  0  0  0
   11.8193    6.0331   23.0247 C   0  0  0  0  0  0  0  0  0  0  0  0
   13.0356    0.7633   22.5914 N   0  0  0  0  0  0  0  0  0  0  0  0
   10.4678    5.8783   22.5578 N   0  0  0  0  0  0  0  0  0  0  0  0
   13.0990   -1.6014   22.5311 O   0  0  0  0  0  0  0  0  0  0  0  0
   13.0020    3.3900   22.0273 O   0  0  0  0  0  0  0  0  0  0  0  0
    9.3724    6.8292   24.3806 O   0  0  0  0  0  0  0  0  0  0  0  0
    8.3247    1.8860   25.2990 O   0  0  0  0  0  0  0  0  0  0  0  0
   13.6011    1.5573   22.2757 H   0  0  0  0  0  0  0  0  0  0  0  0
   10.3176    5.4422   21.6493 H   0  0  0  0  0  0  0  0  0  0  0  0
  1  2  2  0  0  0  0
  1  5  1  0  0  0  0
  2  6  1  0  0  0  0
  3  4  1  0  0  0  0
  3  6  2  0  0  0  0
  4  5  2  0  0  0  0
  4  8  1  0  0  0  0
  5 14  1  0  0  0  0
  6 19  1  0  0  0  0
  7 14  1  0  0  0  0
  7 16  2  0  0  0  0
  8 12  1  0  0  0  0
  8 17  2  0  0  0  0
  9 10  1  0  0  0  0
  9 15  1  0  0  0  0
  9 18  2  0  0  0  0
 11 19  1  0  0  0  0
 12 13  1  0  0  0  0
 13 15  1  0  0  0  0
 14 20  1  0  0  0  0
 15 21  1  0  0  0  0
M  END
> <ref_mols>
x2407_0

> <original SMILES>
CC(NCCC(C1=CC(OC)=CC=C1NC=O)=O)=O

> <Chemgauss4>
-8.123390

> <ref_pdb>
x0104_0

$$$$
x2405
  -OEChem-05172015543D

 21 21  0     0  0  0  0  0  0999 V2000
   11.0466    0.0181   23.7221 C   0  0  0  0  0  0  0  0  0  0  0  0
    9.8613    0.2945   24.4034 C   0  0  0  0  0  0  0  0  0  0  0  0
   10.2872    2.6625   24.1837 C   0  0  0  0  0  0  0  0  0  0  0  0
   11.4726    2.3861   23.5025 C   0  0  0  0  0  0  0  0  0  0  0  0
   11.8523    1.0639   23.2717 C   0  0  0  0  0  0  0  0  0  0  0  0
    9.4815    1.6167   24.6341 C   0  0  0  0  0  0  0  0  0  0  0  0
   13.5494   -0.4913   22.2847 C   0  0  0  0  0  0  0  0  0  0  0  0
   12.2917    3.5016   23.0450 C   0  0  0  0  0  0  0  0  0  0  0  0
    9.3594    6.2915   23.2795 C   0  0  0  0  0  0  0  0  0  0  0  0
    8.0547    6.0333   22.6019 C   0  0  0  0  0  0  0  0  0  0  0  0
    7.5493    0.7692   25.7314 C   0  0  0  0  0  0  0  0  0  0  0  0
   12.2882    4.8265   23.8307 C   0  0  0  0  0  0  0  0  0  0  0  0
   11.8193    6.0331   23.0247 C   0  0  0  0  0  0  0  0  0  0  0  0
   13.0356    0.7633   22.5914 N   0  0  0  0  0  0  0  0  0  0  0  0
   10.4678    5.8783   22.5578 N   0  0  0  0  0  0  0  0  0  0  0  0
   13.0990   -1.6014   22.5311 O   0  0  0  0  0  0  0  0  0  0  0  0
   13.0020    3.3900   22.0273 O   0  0  0  0  0  0  0  0  0  0  0  0
    9.3724    6.8292   24.3806 O   0  0  0  0  0  0  0  0  0  0  0  0
    8.3247    1.8860   25.2990 O   0  0  0  0  0  0  0  0  0  0  0  0
   13.6011    1.5573   22.2757 H   0  0  0  0  0  0  0  0  0  0  0  0
   10.3176    5.4422   21.6493 H   0  0  0  0  0  0  0  0  0  0  0  0
  1  2  2  0  0  0  0
  1  5  1  0  0  0  0
  2  6  1  0  0  0  0
  3  4  1  0  0  0  0
  3  6  2  0  0  0  0
  4  5  2  0  0  0  0
  4  8  1  0  0  0  0
  5 14  1  0  0  0  0
  6 19  1  0  0  0  0
  7 14  1  0  0  0  0
  7 16  2  0  0  0  0
  8 12  1  0  0  0  0
  8 17  2  0  0  0  0
  9 10  1  0  0  0  0
  9 15  1  0  0  0  0
  9 18  2  0  0  0  0
 11 19  1  0  0  0  0
 12 13  1  0  0  0  0
 13 15  1  0  0  0  0
 14 20  1  0  0  0  0
 15 21  1  0  0  0  0
M  END
> <ref_mols>
x2405_0

> <original SMILES>
CC(NCCC(C1=CC(OC)=CC=C1NC=O)=O)=O

> <Chemgauss4>
-8.123390

> <ref_pdb>
x0104_0

$$$$
x2413
  -OEChem-05172015543D

 21 21  0     0  0  0  0  0  0999 V2000
   11.0466    0.0181   23.7221 C   0  0  0  0  0  0  0  0  0  0  0  0
    9.8613    0.2945   24.4034 C   0  0  0  0  0  0  0  0  0  0  0  0
   10.2872    2.6625   24.1837 C   0  0  0  0  0  0  0  0  0  0  0  0
   11.4726    2.3861   23.5025 C   0  0  0  0  0  0  0  0  0  0  0  0
   11.8523    1.0639   23.2717 C   0  0  0  0  0  0  0  0  0  0  0  0
    9.4815    1.6167   24.6341 C   0  0  0  0  0  0  0  0  0  0  0  0
   13.5494   -0.4913   22.2847 C   0  0  0  0  0  0  0  0  0  0  0  0
   12.2917    3.5016   23.0450 C   0  0  0  0  0  0  0  0  0  0  0  0
    9.3594    6.2915   23.2795 C   0  0  0  0  0  0  0  0  0  0  0  0
    8.0547    6.0333   22.6019 C   0  0  0  0  0  0  0  0  0  0  0  0
    7.5493    0.7692   25.7314 C   0  0  0  0  0  0  0  0  0  0  0  0
   12.2882    4.8265   23.8307 C   0  0  0  0  0  0  0  0  0  0  0  0
   11.8193    6.0331   23.0247 C   0  0  0  0  0  0  0  0  0  0  0  0
   13.0356    0.7633   22.5914 N   0  0  0  0  0  0  0  0  0  0  0  0
   10.4678    5.8783   22.5578 N   0  0  0  0  0  0  0  0  0  0  0  0
   13.0990   -1.6014   22.5311 O   0  0  0  0  0  0  0  0  0  0  0  0
   13.0020    3.3900   22.0273 O   0  0  0  0  0  0  0  0  0  0  0  0
    9.3724    6.8292   24.3806 O   0  0  0  0  0  0  0  0  0  0  0  0
    8.3247    1.8860   25.2990 O   0  0  0  0  0  0  0  0  0  0  0  0
   13.6011    1.5573   22.2757 H   0  0  0  0  0  0  0  0  0  0  0  0
   10.3176    5.4422   21.6493 H   0  0  0  0  0  0  0  0  0  0  0  0
  1  2  2  0  0  0  0
  1  5  1  0  0  0  0
  2  6  1  0  0  0  0
  3  4  1  0  0  0  0
  3  6  2  0  0  0  0
  4  5  2  0  0  0  0
  4  8  1  0  0  0  0
  5 14  1  0  0  0  0
  6 19  1  0  0  0  0
  7 14  1  0  0  0  0
  7 16  2  0  0  0  0
  8 12  1  0  0  0  0
  8 17  2  0  0  0  0
  9 10  1  0  0  0  0
  9 15  1  0  0  0  0
  9 18  2  0  0  0  0
 11 19  1  0  0  0  0
 12 13  1  0  0  0  0
 13 15  1  0  0  0  0
 14 20  1  0  0  0  0
 15 21  1  0  0  0  0
M  END
> <ref_mols>
x2413_0

> <original SMILES>
CC(NCCC(C1=CC(OC)=CC=C1NC=O)=O)=O

> <Chemgauss4>
-8.123390

> <ref_pdb>
x0104_0

$$$$
x2424
  -OEChem-05172015543D

 21 21  0     0  0  0  0  0  0999 V2000
   11.0466    0.0181   23.7221 C   0  0  0  0  0  0  0  0  0  0  0  0
    9.8613    0.2945   24.4034 C   0  0  0  0  0  0  0  0  0  0  0  0
   10.2872    2.6625   24.1837 C   0  0  0  0  0  0  0  0  0  0  0  0
   11.4726    2.3861   23.5025 C   0  0  0  0  0  0  0  0  0  0  0  0
   11.8523    1.0639   23.2717 C   0  0  0  0  0  0  0  0  0  0  0  0
    9.4815    1.6167   24.6341 C   0  0  0  0  0  0  0  0  0  0  0  0
   13.5494   -0.4913   22.2847 C   0  0  0  0  0  0  0  0  0  0  0  0
   12.2917    3.5016   23.0450 C   0  0  0  0  0  0  0  0  0  0  0  0
    9.3594    6.2915   23.2795 C   0  0  0  0  0  0  0  0  0  0  0  0
    8.0547    6.0333   22.6019 C   0  0  0  0  0  0  0  0  0  0  0  0
    7.5493    0.7692   25.7314 C   0  0  0  0  0  0  0  0  0  0  0  0
   12.2882    4.8265   23.8307 C   0  0  0  0  0  0  0  0  0  0  0  0
   11.8193    6.0331   23.0247 C   0  0  0  0  0  0  0  0  0  0  0  0
   13.0356    0.7633   22.5914 N   0  0  0  0  0  0  0  0  0  0  0  0
   10.4678    5.8783   22.5578 N   0  0  0  0  0  0  0  0  0  0  0  0
   13.0990   -1.6014   22.5311 O   0  0  0  0  0  0  0  0  0  0  0  0
   13.0020    3.3900   22.0273 O   0  0  0  0  0  0  0  0  0  0  0  0
    9.3724    6.8292   24.3806 O   0  0  0  0  0  0  0  0  0  0  0  0
    8.3247    1.8860   25.2990 O   0  0  0  0  0  0  0  0  0  0  0  0
   13.6011    1.5573   22.2757 H   0  0  0  0  0  0  0  0  0  0  0  0
   10.3176    5.4422   21.6493 H   0  0  0  0  0  0  0  0  0  0  0  0
  1  2  2  0  0  0  0
  1  5  1  0  0  0  0
  2  6  1  0  0  0  0
  3  4  1  0  0  0  0
  3  6  2  0  0  0  0
  4  5  2  0  0  0  0
  4  8  1  0  0  0  0
  5 14  1  0  0  0  0
  6 19  1  0  0  0  0
  7 14  1  0  0  0  0
  7 16  2  0  0  0  0
  8 12  1  0  0  0  0
  8 17  2  0  0  0  0
  9 10  1  0  0  0  0
  9 15  1  0  0  0  0
  9 18  2  0  0  0  0
 11 19  1  0  0  0  0
 12 13  1  0  0  0  0
 13 15  1  0  0  0  0
 14 20  1  0  0  0  0
 15 21  1  0  0  0  0
M  END
> <ref_mols>
x2424_0

> <original SMILES>
CC(NCCC(C1=CC(OC)=CC=C1NC=O)=O)=O

> <Chemgauss4>
-8.123390

> <ref_pdb>
x0104_0

$$$$
x2406
  -OEChem-05172015543D

 21 21  0     0  0  0  0  0  0999 V2000
   11.0466    0.0181   23.7221 C   0  0  0  0  0  0  0  0  0  0  0  0
    9.8613    0.2945   24.4034 C   0  0  0  0  0  0  0  0  0  0  0  0
   10.2872    2.6625   24.1837 C   0  0  0  0  0  0  0  0  0  0  0  0
   11.4726    2.3861   23.5025 C   0  0  0  0  0  0  0  0  0  0  0  0
   11.8523    1.0639   23.2717 C   0  0  0  0  0  0  0  0  0  0  0  0
    9.4815    1.6167   24.6341 C   0  0  0  0  0  0  0  0  0  0  0  0
   13.5494   -0.4913   22.2847 C   0  0  0  0  0  0  0  0  0  0  0  0
   12.2917    3.5016   23.0450 C   0  0  0  0  0  0  0  0  0  0  0  0
    9.3594    6.2915   23.2795 C   0  0  0  0  0  0  0  0  0  0  0  0
    8.0547    6.0333   22.6019 C   0  0  0  0  0  0  0  0  0  0  0  0
    7.5493    0.7692   25.7314 C   0  0  0  0  0  0  0  0  0  0  0  0
   12.2882    4.8265   23.8307 C   0  0  0  0  0  0  0  0  0  0  0  0
   11.8193    6.0331   23.0247 C   0  0  0  0  0  0  0  0  0  0  0  0
   13.0356    0.7633   22.5914 N   0  0  0  0  0  0  0  0  0  0  0  0
   10.4678    5.8783   22.5578 N   0  0  0  0  0  0  0  0  0  0  0  0
   13.0990   -1.6014   22.5311 O   0  0  0  0  0  0  0  0  0  0  0  0
   13.0020    3.3900   22.0273 O   0  0  0  0  0  0  0  0  0  0  0  0
    9.3724    6.8292   24.3806 O   0  0  0  0  0  0  0  0  0  0  0  0
    8.3247    1.8860   25.2990 O   0  0  0  0  0  0  0  0  0  0  0  0
   13.6011    1.5573   22.2757 H   0  0  0  0  0  0  0  0  0  0  0  0
   10.3176    5.4422   21.6493 H   0  0  0  0  0  0  0  0  0  0  0  0
  1  2  2  0  0  0  0
  1  5  1  0  0  0  0
  2  6  1  0  0  0  0
  3  4  1  0  0  0  0
  3  6  2  0  0  0  0
  4  5  2  0  0  0  0
  4  8  1  0  0  0  0
  5 14  1  0  0  0  0
  6 19  1  0  0  0  0
  7 14  1  0  0  0  0
  7 16  2  0  0  0  0
  8 12  1  0  0  0  0
  8 17  2  0  0  0  0
  9 10  1  0  0  0  0
  9 15  1  0  0  0  0
  9 18  2  0  0  0  0
 11 19  1  0  0  0  0
 12 13  1  0  0  0  0
 13 15  1  0  0  0  0
 14 20  1  0  0  0  0
 15 21  1  0  0  0  0
M  END
> <ref_mols>
x2406_0

> <original SMILES>
CC(NCCC(C1=CC(OC)=CC=C1NC=O)=O)=O

> <Chemgauss4>
-8.123390

> <ref_pdb>
x0104_0

$$$$
x2365
  -OEChem-05172015543D

 21 21  0     0  0  0  0  0  0999 V2000
   11.0466    0.0181   23.7221 C   0  0  0  0  0  0  0  0  0  0  0  0
    9.8613    0.2945   24.4034 C   0  0  0  0  0  0  0  0  0  0  0  0
   10.2872    2.6625   24.1837 C   0  0  0  0  0  0  0  0  0  0  0  0
   11.4726    2.3861   23.5025 C   0  0  0  0  0  0  0  0  0  0  0  0
   11.8523    1.0639   23.2717 C   0  0  0  0  0  0  0  0  0  0  0  0
    9.4815    1.6167   24.6341 C   0  0  0  0  0  0  0  0  0  0  0  0
   13.5494   -0.4913   22.2847 C   0  0  0  0  0  0  0  0  0  0  0  0
   12.2917    3.5016   23.0450 C   0  0  0  0  0  0  0  0  0  0  0  0
    9.3594    6.2915   23.2795 C   0  0  0  0  0  0  0  0  0  0  0  0
    8.0547    6.0333   22.6019 C   0  0  0  0  0  0  0  0  0  0  0  0
    7.5493    0.7692   25.7314 C   0  0  0  0  0  0  0  0  0  0  0  0
   12.2882    4.8265   23.8307 C   0  0  0  0  0  0  0  0  0  0  0  0
   11.8193    6.0331   23.0247 C   0  0  0  0  0  0  0  0  0  0  0  0
   13.0356    0.7633   22.5914 N   0  0  0  0  0  0  0  0  0  0  0  0
   10.4678    5.8783   22.5578 N   0  0  0  0  0  0  0  0  0  0  0  0
   13.0990   -1.6014   22.5311 O   0  0  0  0  0  0  0  0  0  0  0  0
   13.0020    3.3900   22.0273 O   0  0  0  0  0  0  0  0  0  0  0  0
    9.3724    6.8292   24.3806 O   0  0  0  0  0  0  0  0  0  0  0  0
    8.3247    1.8860   25.2990 O   0  0  0  0  0  0  0  0  0  0  0  0
   13.6011    1.5573   22.2757 H   0  0  0  0  0  0  0  0  0  0  0  0
   10.3176    5.4422   21.6493 H   0  0  0  0  0  0  0  0  0  0  0  0
  1  2  2  0  0  0  0
  1  5  1  0  0  0  0
  2  6  1  0  0  0  0
  3  4  1  0  0  0  0
  3  6  2  0  0  0  0
  4  5  2  0  0  0  0
  4  8  1  0  0  0  0
  5 14  1  0  0  0  0
  6 19  1  0  0  0  0
  7 14  1  0  0  0  0
  7 16  2  0  0  0  0
  8 12  1  0  0  0  0
  8 17  2  0  0  0  0
  9 10  1  0  0  0  0
  9 15  1  0  0  0  0
  9 18  2  0  0  0  0
 11 19  1  0  0  0  0
 12 13  1  0  0  0  0
 13 15  1  0  0  0  0
 14 20  1  0  0  0  0
 15 21  1  0  0  0  0
M  END
> <ref_mols>
x2365_0

> <original SMILES>
CC(NCCC(C1=CC(OC)=CC=C1NC=O)=O)=O

> <Chemgauss4>
-8.123390

> <ref_pdb>
x0104_0

$$$$
x2359
  -OEChem-05172015543D

 21 21  0     0  0  0  0  0  0999 V2000
   11.0466    0.0181   23.7221 C   0  0  0  0  0  0  0  0  0  0  0  0
    9.8613    0.2945   24.4034 C   0  0  0  0  0  0  0  0  0  0  0  0
   10.2872    2.6625   24.1837 C   0  0  0  0  0  0  0  0  0  0  0  0
   11.4726    2.3861   23.5025 C   0  0  0  0  0  0  0  0  0  0  0  0
   11.8523    1.0639   23.2717 C   0  0  0  0  0  0  0  0  0  0  0  0
    9.4815    1.6167   24.6341 C   0  0  0  0  0  0  0  0  0  0  0  0
   13.5494   -0.4913   22.2847 C   0  0  0  0  0  0  0  0  0  0  0  0
   12.2917    3.5016   23.0450 C   0  0  0  0  0  0  0  0  0  0  0  0
    9.3594    6.2915   23.2795 C   0  0  0  0  0  0  0  0  0  0  0  0
    8.0547    6.0333   22.6019 C   0  0  0  0  0  0  0  0  0  0  0  0
    7.5493    0.7692   25.7314 C   0  0  0  0  0  0  0  0  0  0  0  0
   12.2882    4.8265   23.8307 C   0  0  0  0  0  0  0  0  0  0  0  0
   11.8193    6.0331   23.0247 C   0  0  0  0  0  0  0  0  0  0  0  0
   13.0356    0.7633   22.5914 N   0  0  0  0  0  0  0  0  0  0  0  0
   10.4678    5.8783   22.5578 N   0  0  0  0  0  0  0  0  0  0  0  0
   13.0990   -1.6014   22.5311 O   0  0  0  0  0  0  0  0  0  0  0  0
   13.0020    3.3900   22.0273 O   0  0  0  0  0  0  0  0  0  0  0  0
    9.3724    6.8292   24.3806 O   0  0  0  0  0  0  0  0  0  0  0  0
    8.3247    1.8860   25.2990 O   0  0  0  0  0  0  0  0  0  0  0  0
   13.6011    1.5573   22.2757 H   0  0  0  0  0  0  0  0  0  0  0  0
   10.3176    5.4422   21.6493 H   0  0  0  0  0  0  0  0  0  0  0  0
  1  2  2  0  0  0  0
  1  5  1  0  0  0  0
  2  6  1  0  0  0  0
  3  4  1  0  0  0  0
  3  6  2  0  0  0  0
  4  5  2  0  0  0  0
  4  8  1  0  0  0  0
  5 14  1  0  0  0  0
  6 19  1  0  0  0  0
  7 14  1  0  0  0  0
  7 16  2  0  0  0  0
  8 12  1  0  0  0  0
  8 17  2  0  0  0  0
  9 10  1  0  0  0  0
  9 15  1  0  0  0  0
  9 18  2  0  0  0  0
 11 19  1  0  0  0  0
 12 13  1  0  0  0  0
 13 15  1  0  0  0  0
 14 20  1  0  0  0  0
 15 21  1  0  0  0  0
M  END
> <ref_mols>
x2359_0

> <original SMILES>
CC(NCCC(C1=CC(OC)=CC=C1NC=O)=O)=O

> <Chemgauss4>
-8.123390

> <ref_pdb>
x0104_0

$$$$
x0664
  -OEChem-05172015543D

 18 19  0     0  0  0  0  0  0999 V2000
   12.2825    1.7656   22.7939 C   0  0  0  0  0  0  0  0  0  0  0  0
   12.2552    0.3733   22.7136 C   0  0  0  0  0  0  0  0  0  0  0  0
   10.5140    1.7054   24.4389 C   0  0  0  0  0  0  0  0  0  0  0  0
   11.4119    2.4316   23.6566 C   0  0  0  0  0  0  0  0  0  0  0  0
   11.3573   -0.3529   23.4959 C   0  0  0  0  0  0  0  0  0  0  0  0
   10.4867    0.3131   24.3586 C   0  0  0  0  0  0  0  0  0  0  0  0
   10.0934    6.0163   23.4872 C   0  0  0  0  0  0  0  0  0  0  0  0
    9.0052    3.7979   23.2112 C   0  0  0  0  0  0  0  0  0  0  0  0
    8.9406    6.6085   22.6945 C   0  0  0  0  0  0  0  0  0  0  0  0
    7.9082    4.5049   22.4332 C   0  0  0  0  0  0  0  0  0  0  0  0
   10.4674   -2.2884   22.4387 C   0  0  0  0  0  0  0  0  0  0  0  0
    8.7497    0.3709   25.9820 C   0  0  0  0  0  0  0  0  0  0  0  0
   11.4429    3.9290   23.7450 C   0  0  0  0  0  0  0  0  0  0  0  0
   10.2851    4.5837   23.0479 N   0  3  0  0  0  0  0  0  0  0  0  0
    7.7497    5.8465   22.8971 O   0  0  0  0  0  0  0  0  0  0  0  0
   11.3406   -1.7124   23.4081 O   0  0  0  0  0  0  0  0  0  0  0  0
    9.6048   -0.3853   25.1269 O   0  0  0  0  0  0  0  0  0  0  0  0
   10.5142    4.5959   22.0443 H   0  0  0  0  0  0  0  0  0  0  0  0
  1  2  2  0  0  0  0
  1  4  1  0  0  0  0
  2  5  1  0  0  0  0
  3  4  2  0  0  0  0
  3  6  1  0  0  0  0
  4 13  1  0  0  0  0
  5  6  2  0  0  0  0
  5 16  1  0  0  0  0
  6 17  1  0  0  0  0
  7  9  1  0  0  0  0
  7 14  1  0  0  0  0
  8 10  1  0  0  0  0
  8 14  1  0  0  0  0
  9 15  1  0  0  0  0
 10 15  1  0  0  0  0
 11 16  1  0  0  0  0
 12 17  1  0  0  0  0
 13 14  1  0  0  0  0
 14 18  1  0  0  0  0
M  CHG  1  14   1
M  END
> <ref_mols>
x0664_0

> <original SMILES>
COC=1C=CC(CN2CCOCC2)=CC1OC

> <Chemgauss4>
-8.118290

> <ref_pdb>
x0104_0

$$$$
x0523
  -OEChem-05172015543D

 15 15  0     0  0  0  0  0  0999 V2000
   10.5364    0.4310   23.3748 C   0  0  0  0  0  0  0  0  0  0  0  0
   12.6615   -0.4040   22.5849 C   0  0  0  0  0  0  0  0  0  0  0  0
   11.0243    1.7360   23.3083 C   0  0  0  0  0  0  0  0  0  0  0  0
   13.1495    0.9011   22.5183 C   0  0  0  0  0  0  0  0  0  0  0  0
   11.3550   -0.6390   23.0131 C   0  0  0  0  0  0  0  0  0  0  0  0
   12.3309    1.9710   22.8800 C   0  0  0  0  0  0  0  0  0  0  0  0
   11.4791    5.3738   23.3663 C   0  0  0  0  0  0  0  0  0  0  0  0
   10.8341   -2.0346   23.0840 C   0  0  0  0  0  0  0  0  0  0  0  0
    8.0161    6.4933   22.7407 C   0  0  0  0  0  0  0  0  0  0  0  0
   12.8548    3.3762   22.8071 C   0  0  0  0  0  0  0  0  0  0  0  0
   10.3483    6.2123   22.8096 C   0  0  0  0  0  0  0  0  0  0  0  0
   11.8081    4.3291   22.5168 N   0  0  0  0  0  0  0  0  0  0  0  0
   12.0184    5.6168   24.4425 O   0  0  0  0  0  0  0  0  0  0  0  0
    9.1000    5.7219   23.2504 O   0  0  0  0  0  0  0  0  0  0  0  0
   11.2890    4.2287   21.6494 H   0  0  0  0  0  0  0  0  0  0  0  0
  1  3  2  0  0  0  0
  1  5  1  0  0  0  0
  2  4  1  0  0  0  0
  2  5  2  0  0  0  0
  3  6  1  0  0  0  0
  4  6  2  0  0  0  0
  5  8  1  0  0  0  0
  6 10  1  0  0  0  0
  7 11  1  0  0  0  0
  7 12  1  0  0  0  0
  7 13  2  0  0  0  0
  9 14  1  0  0  0  0
 10 12  1  0  0  0  0
 11 14  1  0  0  0  0
 12 15  1  0  0  0  0
M  END
> <ref_mols>
x0523_0

> <original SMILES>
COCC(=O)NCC=1C=CC(C)=CC1

> <Chemgauss4>
-8.117338

> <ref_pdb>
x0104_0

$$$$
x0976
  -OEChem-05172015543D

 16 16  0     1  0  0  0  0  0999 V2000
   12.7959    4.8808   23.1109 C   0  0  0  0  0  0  0  0  0  0  0  0
   12.2841    5.6226   23.9040 C   0  0  0  0  0  0  0  0  0  0  0  0
   12.7081    1.6529   22.6503 C   0  0  0  0  0  0  0  0  0  0  0  0
   10.9395   -0.5735   23.9566 C   0  0  0  0  0  0  0  0  0  0  0  0
   13.6806   -1.0998   21.5023 C   0  0  0  0  0  0  0  0  0  0  0  0
   14.3359   -0.2481   22.5869 C   0  0  0  0  0  0  0  0  0  0  0  0
   12.4171   -1.6128   22.1764 C   0  0  0  0  0  0  0  0  0  0  0  0
   13.1496    0.3806   23.3087 C   0  0  2  0  0  0  0  0  0  0  0  0
   10.3976   -1.9300   24.3306 C   0  0  0  0  0  0  0  0  0  0  0  0
   13.4191    3.9806   22.1414 C   0  0  0  0  0  0  0  0  0  0  0  0
   12.0676   -0.5825   23.1511 N   0  0  0  0  0  0  0  0  0  0  0  0
   13.6395    2.6717   22.7134 N   0  0  0  0  0  0  0  0  0  0  0  0
   11.6040    1.7080   22.1215 O   0  0  0  0  0  0  0  0  0  0  0  0
   10.3815    0.4508   24.3536 O   0  0  0  0  0  0  0  0  0  0  0  0
   11.4737    6.7965   25.1593 Br  0  0  0  0  0  0  0  0  0  0  0  0
   14.5212    2.4921   23.1843 H   0  0  0  0  0  0  0  0  0  0  0  0
  1  2  3  0  0  0  0
  1 10  1  0  0  0  0
  2 15  1  0  0  0  0
  3  8  1  0  0  0  0
  3 12  1  0  0  0  0
  3 13  2  0  0  0  0
  4  9  1  0  0  0  0
  4 11  1  0  0  0  0
  4 14  2  0  0  0  0
  5  6  1  0  0  0  0
  5  7  1  0  0  0  0
  6  8  1  0  0  0  0
  7 11  1  0  0  0  0
  8 11  1  0  0  0  0
 10 12  1  0  0  0  0
 12 16  1  0  0  0  0
M  END
> <ref_mols>
x0976_0

> <original SMILES>
CC(=O)N1CCC[C@H]1C(=O)NCC#CBr

> <Chemgauss4>
-8.115957

> <ref_pdb>
x0195_0

$$$$
x0279
  -OEChem-05172015543D

 18 19  0     0  0  0  0  0  0999 V2000
   14.1718   -0.6528   23.2198 C   0  0  0  0  0  0  0  0  0  0  0  0
   13.2718    0.1705   23.8964 C   0  0  0  0  0  0  0  0  0  0  0  0
   13.7213   -1.4844   22.1945 C   0  0  0  0  0  0  0  0  0  0  0  0
   11.9213    0.1622   23.5477 C   0  0  0  0  0  0  0  0  0  0  0  0
   12.3708   -1.4927   21.8459 C   0  0  0  0  0  0  0  0  0  0  0  0
   11.4707   -0.6694   22.5224 C   0  0  0  0  0  0  0  0  0  0  0  0
    7.9852    0.1929   19.3403 C   0  0  0  0  0  0  0  0  0  0  0  0
    8.9959   -0.3603   23.3025 C   0  0  0  0  0  0  0  0  0  0  0  0
    9.5273   -2.0580   21.5711 C   0  0  0  0  0  0  0  0  0  0  0  0
    8.8958   -1.5030   24.3129 C   0  0  0  0  0  0  0  0  0  0  0  0
    9.4379   -3.1167   22.6669 C   0  0  0  0  0  0  0  0  0  0  0  0
    9.9760   -0.6793   22.1362 C   0  0  0  0  0  0  0  0  0  0  0  0
    6.5077    0.2787   19.1457 C   0  0  0  0  0  0  0  0  0  0  0  0
    9.7827    0.3991   21.0458 C   0  0  0  0  0  0  0  0  0  0  0  0
    8.4184    0.4328   20.6437 N   0  0  0  0  0  0  0  0  0  0  0  0
    8.7058   -0.0738   18.3857 O   0  0  0  0  0  0  0  0  0  0  0  0
    8.5093   -2.7168   23.6724 O   0  0  0  0  0  0  0  0  0  0  0  0
    7.7109    0.6465   21.3555 H   0  0  0  0  0  0  0  0  0  0  0  0
  1  2  1  0  0  0  0
  1  3  2  0  0  0  0
  2  4  2  0  0  0  0
  3  5  1  0  0  0  0
  4  6  1  0  0  0  0
  5  6  2  0  0  0  0
  6 12  1  0  0  0  0
  7 13  1  0  0  0  0
  7 15  1  0  0  0  0
  7 16  2  0  0  0  0
  8 10  1  0  0  0  0
  8 12  1  0  0  0  0
  9 11  1  0  0  0  0
  9 12  1  0  0  0  0
 10 17  1  0  0  0  0
 11 17  1  0  0  0  0
 12 14  1  0  0  0  0
 14 15  1  0  0  0  0
 15 18  1  0  0  0  0
M  END
> <ref_mols>
x0279_0

> <original SMILES>
CC(=O)NCC1(CCOCC1)C=2C=CC=CC2

> <Chemgauss4>
-8.107312

> <ref_pdb>
x0678_0

$$$$
x0689
  -OEChem-05172015543D

 18 19  0     0  0  0  0  0  0999 V2000
   14.0308   -1.2451   24.4388 C   0  0  0  0  0  0  0  0  0  0  0  0
   12.7170   -0.8535   24.0505 C   0  0  0  0  0  0  0  0  0  0  0  0
   14.0233   -2.3821   25.2164 C   0  0  0  0  0  0  0  0  0  0  0  0
   11.7553   -1.7064   24.5461 C   0  0  0  0  0  0  0  0  0  0  0  0
    6.2109   -4.1944   21.4913 C   0  0  0  0  0  0  0  0  0  0  0  0
    7.6141   -2.2238   22.0114 C   0  0  0  0  0  0  0  0  0  0  0  0
    7.9382   -4.2712   23.3571 C   0  0  0  0  0  0  0  0  0  0  0  0
    9.1231   -2.0903   21.8478 C   0  0  0  0  0  0  0  0  0  0  0  0
    9.4485   -4.1348   23.1967 C   0  0  0  0  0  0  0  0  0  0  0  0
    5.8808   -5.6352   21.7894 C   0  0  0  0  0  0  0  0  0  0  0  0
    7.2332   -3.6192   22.2452 N   0  0  0  0  0  0  0  0  0  0  0  0
    9.8259   -2.7048   23.0099 N   0  0  0  0  0  0  0  0  0  0  0  0
    5.5803   -3.6006   20.6128 O   0  0  0  0  0  0  0  0  0  0  0  0
    9.4855   -2.4889   25.5507 O   0  0  0  0  0  0  0  0  0  0  0  0
    9.5355   -0.4090   24.1297 O   0  0  0  0  0  0  0  0  0  0  0  0
   12.4370   -2.9728   25.4755 S   0  0  0  0  0  0  0  0  0  0  0  0
    9.9955   -1.7508   24.4154 S   0  0  0  0  0  0  0  0  0  0  0  0
    4.6686   -5.6208   23.0654 Cl  0  0  0  0  0  0  0  0  0  0  0  0
  1  2  1  0  0  0  0
  1  3  2  0  0  0  0
  2  4  2  0  0  0  0
  3 16  1  0  0  0  0
  4 16  1  0  0  0  0
  4 17  1  0  0  0  0
  5 10  1  0  0  0  0
  5 11  1  0  0  0  0
  5 13  2  0  0  0  0
  6  8  1  0  0  0  0
  6 11  1  0  0  0  0
  7  9  1  0  0  0  0
  7 11  1  0  0  0  0
  8 12  1  0  0  0  0
  9 12  1  0  0  0  0
 10 18  1  0  0  0  0
 12 17  1  0  0  0  0
 14 17  2  0  0  0  0
 15 17  2  0  0  0  0
M  END
> <ref_mols>
x0689_0

> <original SMILES>
ClCC(=O)N1CCN(CC1)S(=O)(=O)c2cccs2

> <Chemgauss4>
-8.104933

> <ref_pdb>
x0749_0

> <CYS145-warhead dist minimum (A)>
10.641431

> <CYS145-warhead dist mean (A)>
11.567012

> <CYS145-warhead dist stddev (A)>
0.34503323

$$$$
x2557
  -OEChem-05172015543D

 18 19  0     0  0  0  0  0  0999 V2000
   14.0308   -1.2451   24.4388 C   0  0  0  0  0  0  0  0  0  0  0  0
   12.7170   -0.8535   24.0505 C   0  0  0  0  0  0  0  0  0  0  0  0
   14.0233   -2.3821   25.2164 C   0  0  0  0  0  0  0  0  0  0  0  0
   11.7553   -1.7064   24.5461 C   0  0  0  0  0  0  0  0  0  0  0  0
    6.2109   -4.1944   21.4913 C   0  0  0  0  0  0  0  0  0  0  0  0
    7.6141   -2.2238   22.0114 C   0  0  0  0  0  0  0  0  0  0  0  0
    7.9382   -4.2712   23.3571 C   0  0  0  0  0  0  0  0  0  0  0  0
    9.1231   -2.0903   21.8478 C   0  0  0  0  0  0  0  0  0  0  0  0
    9.4485   -4.1348   23.1967 C   0  0  0  0  0  0  0  0  0  0  0  0
    5.8808   -5.6352   21.7894 C   0  0  0  0  0  0  0  0  0  0  0  0
    7.2332   -3.6192   22.2452 N   0  0  0  0  0  0  0  0  0  0  0  0
    9.8259   -2.7048   23.0099 N   0  0  0  0  0  0  0  0  0  0  0  0
    5.5803   -3.6006   20.6128 O   0  0  0  0  0  0  0  0  0  0  0  0
    9.4855   -2.4889   25.5507 O   0  0  0  0  0  0  0  0  0  0  0  0
    9.5355   -0.4090   24.1297 O   0  0  0  0  0  0  0  0  0  0  0  0
   12.4370   -2.9728   25.4755 S   0  0  0  0  0  0  0  0  0  0  0  0
    9.9955   -1.7508   24.4154 S   0  0  0  0  0  0  0  0  0  0  0  0
    4.6686   -5.6208   23.0654 Cl  0  0  0  0  0  0  0  0  0  0  0  0
  1  2  1  0  0  0  0
  1  3  2  0  0  0  0
  2  4  2  0  0  0  0
  3 16  1  0  0  0  0
  4 16  1  0  0  0  0
  4 17  1  0  0  0  0
  5 10  1  0  0  0  0
  5 11  1  0  0  0  0
  5 13  2  0  0  0  0
  6  8  1  0  0  0  0
  6 11  1  0  0  0  0
  7  9  1  0  0  0  0
  7 11  1  0  0  0  0
  8 12  1  0  0  0  0
  9 12  1  0  0  0  0
 10 18  1  0  0  0  0
 12 17  1  0  0  0  0
 14 17  2  0  0  0  0
 15 17  2  0  0  0  0
M  END
> <ref_mols>
x2557_0

> <original SMILES>
ClCC(=O)N1CCN(CC1)S(=O)(=O)C2=CC=CS2

> <Chemgauss4>
-8.104933

> <ref_pdb>
x0749_0

$$$$
x1330
  -OEChem-05172015543D

 18 19  0     0  0  0  0  0  0999 V2000
   14.0308   -1.2451   24.4388 C   0  0  0  0  0  0  0  0  0  0  0  0
   12.7170   -0.8535   24.0505 C   0  0  0  0  0  0  0  0  0  0  0  0
   14.0233   -2.3821   25.2164 C   0  0  0  0  0  0  0  0  0  0  0  0
   11.7553   -1.7064   24.5461 C   0  0  0  0  0  0  0  0  0  0  0  0
    6.2109   -4.1944   21.4913 C   0  0  0  0  0  0  0  0  0  0  0  0
    7.6141   -2.2238   22.0114 C   0  0  0  0  0  0  0  0  0  0  0  0
    7.9382   -4.2712   23.3571 C   0  0  0  0  0  0  0  0  0  0  0  0
    9.1231   -2.0903   21.8478 C   0  0  0  0  0  0  0  0  0  0  0  0
    9.4485   -4.1348   23.1967 C   0  0  0  0  0  0  0  0  0  0  0  0
    5.8808   -5.6352   21.7894 C   0  0  0  0  0  0  0  0  0  0  0  0
    7.2332   -3.6192   22.2452 N   0  0  0  0  0  0  0  0  0  0  0  0
    9.8259   -2.7048   23.0099 N   0  0  0  0  0  0  0  0  0  0  0  0
    5.5803   -3.6006   20.6128 O   0  0  0  0  0  0  0  0  0  0  0  0
    9.4855   -2.4889   25.5507 O   0  0  0  0  0  0  0  0  0  0  0  0
    9.5355   -0.4090   24.1297 O   0  0  0  0  0  0  0  0  0  0  0  0
   12.4370   -2.9728   25.4755 S   0  0  0  0  0  0  0  0  0  0  0  0
    9.9955   -1.7508   24.4154 S   0  0  0  0  0  0  0  0  0  0  0  0
    4.6686   -5.6208   23.0654 Cl  0  0  0  0  0  0  0  0  0  0  0  0
  1  2  1  0  0  0  0
  1  3  2  0  0  0  0
  2  4  2  0  0  0  0
  3 16  1  0  0  0  0
  4 16  1  0  0  0  0
  4 17  1  0  0  0  0
  5 10  1  0  0  0  0
  5 11  1  0  0  0  0
  5 13  2  0  0  0  0
  6  8  1  0  0  0  0
  6 11  1  0  0  0  0
  7  9  1  0  0  0  0
  7 11  1  0  0  0  0
  8 12  1  0  0  0  0
  9 12  1  0  0  0  0
 10 18  1  0  0  0  0
 12 17  1  0  0  0  0
 14 17  2  0  0  0  0
 15 17  2  0  0  0  0
M  END
> <ref_mols>
x1330_0

> <original SMILES>
ClCC(=O)N1CCN(CC1)S(=O)(=O)c2cccs2

> <Chemgauss4>
-8.104933

> <ref_pdb>
x0749_0

$$$$
x0763
  -OEChem-05172015543D

 18 19  0     0  0  0  0  0  0999 V2000
   14.0308   -1.2451   24.4388 C   0  0  0  0  0  0  0  0  0  0  0  0
   12.7170   -0.8535   24.0505 C   0  0  0  0  0  0  0  0  0  0  0  0
   14.0233   -2.3821   25.2164 C   0  0  0  0  0  0  0  0  0  0  0  0
   11.7553   -1.7064   24.5461 C   0  0  0  0  0  0  0  0  0  0  0  0
    6.2109   -4.1944   21.4913 C   0  0  0  0  0  0  0  0  0  0  0  0
    7.6141   -2.2238   22.0114 C   0  0  0  0  0  0  0  0  0  0  0  0
    7.9382   -4.2712   23.3571 C   0  0  0  0  0  0  0  0  0  0  0  0
    9.1231   -2.0903   21.8478 C   0  0  0  0  0  0  0  0  0  0  0  0
    9.4485   -4.1348   23.1967 C   0  0  0  0  0  0  0  0  0  0  0  0
    5.8808   -5.6352   21.7894 C   0  0  0  0  0  0  0  0  0  0  0  0
    7.2332   -3.6192   22.2452 N   0  0  0  0  0  0  0  0  0  0  0  0
    9.8259   -2.7048   23.0099 N   0  0  0  0  0  0  0  0  0  0  0  0
    5.5803   -3.6006   20.6128 O   0  0  0  0  0  0  0  0  0  0  0  0
    9.4855   -2.4889   25.5507 O   0  0  0  0  0  0  0  0  0  0  0  0
    9.5355   -0.4090   24.1297 O   0  0  0  0  0  0  0  0  0  0  0  0
   12.4370   -2.9728   25.4755 S   0  0  0  0  0  0  0  0  0  0  0  0
    9.9955   -1.7508   24.4154 S   0  0  0  0  0  0  0  0  0  0  0  0
    4.6686   -5.6208   23.0654 Cl  0  0  0  0  0  0  0  0  0  0  0  0
  1  2  1  0  0  0  0
  1  3  2  0  0  0  0
  2  4  2  0  0  0  0
  3 16  1  0  0  0  0
  4 16  1  0  0  0  0
  4 17  1  0  0  0  0
  5 10  1  0  0  0  0
  5 11  1  0  0  0  0
  5 13  2  0  0  0  0
  6  8  1  0  0  0  0
  6 11  1  0  0  0  0
  7  9  1  0  0  0  0
  7 11  1  0  0  0  0
  8 12  1  0  0  0  0
  9 12  1  0  0  0  0
 10 18  1  0  0  0  0
 12 17  1  0  0  0  0
 14 17  2  0  0  0  0
 15 17  2  0  0  0  0
M  END
> <ref_mols>
x0763_0

> <original SMILES>
ClCC(=O)N1CCN(CC1)S(=O)(=O)c2cccs2

> <Chemgauss4>
-8.104933

> <ref_pdb>
x0749_0

> <CYS145-warhead dist minimum (A)>
10.933268

> <CYS145-warhead dist mean (A)>
12.983158

> <CYS145-warhead dist stddev (A)>
0.4661213

$$$$
x1465
  -OEChem-05172015543D

 18 19  0     0  0  0  0  0  0999 V2000
   14.0308   -1.2451   24.4388 C   0  0  0  0  0  0  0  0  0  0  0  0
   12.7170   -0.8535   24.0505 C   0  0  0  0  0  0  0  0  0  0  0  0
   14.0233   -2.3821   25.2164 C   0  0  0  0  0  0  0  0  0  0  0  0
   11.7553   -1.7064   24.5461 C   0  0  0  0  0  0  0  0  0  0  0  0
    6.2109   -4.1944   21.4913 C   0  0  0  0  0  0  0  0  0  0  0  0
    7.6141   -2.2238   22.0114 C   0  0  0  0  0  0  0  0  0  0  0  0
    7.9382   -4.2712   23.3571 C   0  0  0  0  0  0  0  0  0  0  0  0
    9.1231   -2.0903   21.8478 C   0  0  0  0  0  0  0  0  0  0  0  0
    9.4485   -4.1348   23.1967 C   0  0  0  0  0  0  0  0  0  0  0  0
    5.8808   -5.6352   21.7894 C   0  0  0  0  0  0  0  0  0  0  0  0
    7.2332   -3.6192   22.2452 N   0  0  0  0  0  0  0  0  0  0  0  0
    9.8259   -2.7048   23.0099 N   0  0  0  0  0  0  0  0  0  0  0  0
    5.5803   -3.6006   20.6128 O   0  0  0  0  0  0  0  0  0  0  0  0
    9.4855   -2.4889   25.5507 O   0  0  0  0  0  0  0  0  0  0  0  0
    9.5355   -0.4090   24.1297 O   0  0  0  0  0  0  0  0  0  0  0  0
   12.4370   -2.9728   25.4755 S   0  0  0  0  0  0  0  0  0  0  0  0
    9.9955   -1.7508   24.4154 S   0  0  0  0  0  0  0  0  0  0  0  0
    4.6686   -5.6208   23.0654 Cl  0  0  0  0  0  0  0  0  0  0  0  0
  1  2  1  0  0  0  0
  1  3  2  0  0  0  0
  2  4  2  0  0  0  0
  3 16  1  0  0  0  0
  4 16  1  0  0  0  0
  4 17  1  0  0  0  0
  5 10  1  0  0  0  0
  5 11  1  0  0  0  0
  5 13  2  0  0  0  0
  6  8  1  0  0  0  0
  6 11  1  0  0  0  0
  7  9  1  0  0  0  0
  7 11  1  0  0  0  0
  8 12  1  0  0  0  0
  9 12  1  0  0  0  0
 10 18  1  0  0  0  0
 12 17  1  0  0  0  0
 14 17  2  0  0  0  0
 15 17  2  0  0  0  0
M  END
> <ref_mols>
x1465_0

> <original SMILES>
ClCC(=O)N1CCN(CC1)S(=O)(=O)c2cccs2

> <Chemgauss4>
-8.104933

> <ref_pdb>
x0749_0

$$$$
x2588
  -OEChem-05172015543D

 22 23  0     0  0  0  0  0  0999 V2000
    6.4620   -3.2586   20.7862 C   0  0  0  0  0  0  0  0  0  0  0  0
    6.6951   -6.5876   22.4351 C   0  0  0  0  0  0  0  0  0  0  0  0
   14.4077   -2.7710   26.9187 C   0  0  0  0  0  0  0  0  0  0  0  0
    6.2481   -5.5467   21.6214 C   0  0  0  0  0  0  0  0  0  0  0  0
    7.8139   -6.4063   23.2482 C   0  0  0  0  0  0  0  0  0  0  0  0
   13.4020   -3.6407   26.4972 C   0  0  0  0  0  0  0  0  0  0  0  0
   14.4724   -1.4768   26.4024 C   0  0  0  0  0  0  0  0  0  0  0  0
    8.0391   -4.1430   22.4335 C   0  0  0  0  0  0  0  0  0  0  0  0
   12.5256   -1.9221   25.0427 C   0  0  0  0  0  0  0  0  0  0  0  0
    6.9201   -4.3244   21.6205 C   0  0  0  0  0  0  0  0  0  0  0  0
    8.4859   -5.1840   23.2473 C   0  0  0  0  0  0  0  0  0  0  0  0
   12.4609   -3.2163   25.5591 C   0  0  0  0  0  0  0  0  0  0  0  0
   13.5313   -1.0524   25.4643 C   0  0  0  0  0  0  0  0  0  0  0  0
   10.4165   -3.8511   24.2040 C   0  0  0  0  0  0  0  0  0  0  0  0
   12.6008    0.5785   24.0049 C   0  0  0  0  0  0  0  0  0  0  0  0
    6.0899   -2.3930   20.1086 N   0  0  0  0  0  0  0  0  0  0  0  0
    9.6042   -5.0026   24.0615 N   0  0  0  0  0  0  0  0  0  0  0  0
   11.4407   -4.0987   25.1320 N   0  0  0  0  0  0  0  0  0  0  0  0
   10.2444   -2.7961   23.6019 O   0  0  0  0  0  0  0  0  0  0  0  0
   13.5944    0.2104   24.9602 O   0  0  0  0  0  0  0  0  0  0  0  0
    9.8739   -5.8104   24.6328 H   0  0  0  0  0  0  0  0  0  0  0  0
   11.4575   -5.0246   25.5521 H   0  0  0  0  0  0  0  0  0  0  0  0
  1 10  1  0  0  0  0
  1 16  3  0  0  0  0
  2  4  1  0  0  0  0
  2  5  2  0  0  0  0
  3  6  1  0  0  0  0
  3  7  2  0  0  0  0
  4 10  2  0  0  0  0
  5 11  1  0  0  0  0
  6 12  2  0  0  0  0
  7 13  1  0  0  0  0
  8 10  1  0  0  0  0
  8 11  2  0  0  0  0
  9 12  1  0  0  0  0
  9 13  2  0  0  0  0
 11 17  1  0  0  0  0
 12 18  1  0  0  0  0
 13 20  1  0  0  0  0
 14 17  1  0  0  0  0
 14 18  1  0  0  0  0
 14 19  2  0  0  0  0
 15 20  1  0  0  0  0
 17 21  1  0  0  0  0
 18 22  1  0  0  0  0
M  END
> <ref_mols>
x2588_0

> <original SMILES>
COC=1C=CC=C(NC(=O)NC=2C=CC=C(C#N)C2)C1

> <Chemgauss4>
-8.098941

> <ref_pdb>
x0749_0

$$$$
x2803
  -OEChem-05172015543D

 25 27  0     0  0  0  0  0  0999 V2000
    9.5647   -0.6397   24.8097 C   0  0  0  0  0  0  0  0  0  0  0  0
   10.8950   -1.9386   23.2669 C   0  0  0  0  0  0  0  0  0  0  0  0
    8.6857   -1.7129   24.9553 C   0  0  0  0  0  0  0  0  0  0  0  0
   10.0160   -3.0119   23.4126 C   0  0  0  0  0  0  0  0  0  0  0  0
   10.6693   -0.7525   23.9654 C   0  0  0  0  0  0  0  0  0  0  0  0
    8.9114   -2.8990   24.2568 C   0  0  0  0  0  0  0  0  0  0  0  0
    8.3538    6.2595   23.3805 C   0  0  0  0  0  0  0  0  0  0  0  0
    8.1635    5.0739   22.4404 C   0  0  0  0  0  0  0  0  0  0  0  0
    9.8288    6.6179   23.5258 C   0  0  0  0  0  0  0  0  0  0  0  0
   10.9771    2.5493   24.6346 C   0  0  0  0  0  0  0  0  0  0  0  0
   11.1872    2.0738   22.1526 C   0  0  0  0  0  0  0  0  0  0  0  0
   11.7622    1.2641   24.9211 C   0  0  0  0  0  0  0  0  0  0  0  0
   11.9688    0.8063   22.5033 C   0  0  0  0  0  0  0  0  0  0  0  0
    9.0028    3.8774   22.8652 C   0  0  0  0  0  0  0  0  0  0  0  0
   10.6623    5.4160   23.9463 C   0  0  0  0  0  0  0  0  0  0  0  0
   11.3449    3.1175   23.2615 C   0  0  0  0  0  0  0  0  0  0  0  0
   11.5463    0.3175   23.8198 N   0  0  0  0  0  0  0  0  0  0  0  0
    8.5238   -5.0720   25.7510 N   0  0  0  0  0  0  0  0  0  0  0  0
   10.4526    4.2903   22.9614 N   0  3  0  0  0  0  0  0  0  0  0  0
    6.5169   -3.7234   24.8569 O   0  0  0  0  0  0  0  0  0  0  0  0
    7.9046   -5.0802   23.2504 O   0  0  0  0  0  0  0  0  0  0  0  0
    7.8113   -4.2426   24.4380 S   0  0  0  0  0  0  0  0  0  0  0  0
    8.0432   -5.0410   26.6585 H   0  0  0  0  0  0  0  0  0  0  0  0
    8.9920   -5.9661   25.5595 H   0  0  0  0  0  0  0  0  0  0  0  0
   10.7375    4.6339   22.0352 H   0  0  0  0  0  0  0  0  0  0  0  0
  1  3  2  0  0  0  0
  1  5  1  0  0  0  0
  2  4  1  0  0  0  0
  2  5  2  0  0  0  0
  3  6  1  0  0  0  0
  4  6  2  0  0  0  0
  5 17  1  0  0  0  0
  6 22  1  0  0  0  0
  7  8  1  0  0  0  0
  7  9  1  0  0  0  0
  8 14  1  0  0  0  0
  9 15  1  0  0  0  0
 10 12  1  0  0  0  0
 10 16  1  0  0  0  0
 11 13  1  0  0  0  0
 11 16  1  0  0  0  0
 12 17  1  0  0  0  0
 13 17  1  0  0  0  0
 14 19  1  0  0  0  0
 15 19  1  0  0  0  0
 16 19  1  0  0  0  0
 18 22  1  0  0  0  0
 20 22  2  0  0  0  0
 21 22  2  0  0  0  0
 18 23  1  0  0  0  0
 18 24  1  0  0  0  0
 19 25  1  0  0  0  0
M  CHG  1  19   1
M  END
> <ref_mols>
x2803_0

> <original SMILES>
NS(=O)(=O)C=1C=CC(=CC1)N2CCC(CC2)N3CCCCC3

> <Chemgauss4>
-8.096125

> <ref_pdb>
x0104_0

$$$$
x1168
  -OEChem-05172015543D

 13 13  0     1  0  0  0  0  0999 V2000
   11.6461   -0.2628   23.6324 C   0  0  0  0  0  0  0  0  0  0  0  0
   12.1905    1.0195   23.5627 C   0  0  0  0  0  0  0  0  0  0  0  0
   12.3469   -1.3476   23.1054 C   0  0  0  0  0  0  0  0  0  0  0  0
   14.1366    0.1323   22.4390 C   0  0  0  0  0  0  0  0  0  0  0  0
   13.4357    1.2171   22.9660 C   0  0  0  0  0  0  0  0  0  0  0  0
   13.5922   -1.1501   22.5087 C   0  0  0  0  0  0  0  0  0  0  0  0
   12.7566    5.8902   21.9142 C   0  0  0  0  0  0  0  0  0  0  0  0
   13.0487    3.5586   22.8134 C   0  0  0  0  0  0  0  0  0  0  0  0
   13.6839    4.6884   22.0130 C   0  0  2  0  0  0  0  0  0  0  0  0
   14.8848    5.0854   22.6733 O   0  0  0  0  0  0  0  0  0  0  0  0
   13.9698    2.4762   22.8964 O   0  0  0  0  0  0  0  0  0  0  0  0
   14.2656   -2.1921   22.0040 F   0  0  0  0  0  0  0  0  0  0  0  0
   15.2766    5.7875   22.1320 H   0  0  0  0  0  0  0  0  0  0  0  0
  1  2  2  0  0  0  0
  1  3  1  0  0  0  0
  2  5  1  0  0  0  0
  3  6  2  0  0  0  0
  4  5  2  0  0  0  0
  4  6  1  0  0  0  0
  5 11  1  0  0  0  0
  6 12  1  0  0  0  0
  7  9  1  0  0  0  0
  8  9  1  0  0  0  0
  8 11  1  0  0  0  0
  9 10  1  0  0  0  0
 10 13  1  0  0  0  0
M  END
> <ref_mols>
x1168_0

> <original SMILES>
CC(O)COC=1C=CC=C(F)C1

> <Chemgauss4>
-8.095153

> <ref_pdb>
x0195_0

$$$$
x0233
  -OEChem-05172015543D

 13 13  0     1  0  0  0  0  0999 V2000
   11.6461   -0.2628   23.6324 C   0  0  0  0  0  0  0  0  0  0  0  0
   12.1905    1.0195   23.5627 C   0  0  0  0  0  0  0  0  0  0  0  0
   12.3469   -1.3476   23.1054 C   0  0  0  0  0  0  0  0  0  0  0  0
   14.1366    0.1323   22.4390 C   0  0  0  0  0  0  0  0  0  0  0  0
   13.4357    1.2171   22.9660 C   0  0  0  0  0  0  0  0  0  0  0  0
   13.5922   -1.1501   22.5087 C   0  0  0  0  0  0  0  0  0  0  0  0
   12.7566    5.8902   21.9142 C   0  0  0  0  0  0  0  0  0  0  0  0
   13.0487    3.5586   22.8134 C   0  0  0  0  0  0  0  0  0  0  0  0
   13.6839    4.6884   22.0130 C   0  0  2  0  0  0  0  0  0  0  0  0
   14.8848    5.0854   22.6733 O   0  0  0  0  0  0  0  0  0  0  0  0
   13.9698    2.4762   22.8964 O   0  0  0  0  0  0  0  0  0  0  0  0
   14.2656   -2.1921   22.0040 F   0  0  0  0  0  0  0  0  0  0  0  0
   15.2766    5.7875   22.1320 H   0  0  0  0  0  0  0  0  0  0  0  0
  1  2  2  0  0  0  0
  1  3  1  0  0  0  0
  2  5  1  0  0  0  0
  3  6  2  0  0  0  0
  4  5  2  0  0  0  0
  4  6  1  0  0  0  0
  5 11  1  0  0  0  0
  6 12  1  0  0  0  0
  7  9  1  0  0  0  0
  8  9  1  0  0  0  0
  8 11  1  0  0  0  0
  9 10  1  0  0  0  0
 10 13  1  0  0  0  0
M  END
> <ref_mols>
x0233_0

> <original SMILES>
CC(O)COC=1C=CC=C(F)C1

> <Chemgauss4>
-8.095153

> <ref_pdb>
x0195_0

$$$$
x0663
  -OEChem-05172015543D

 16 17  0     0  0  0  0  0  0999 V2000
   14.1085   -1.6888   21.9562 C   0  0  0  0  0  0  0  0  0  0  0  0
   12.7581   -1.7466   21.6172 C   0  0  0  0  0  0  0  0  0  0  0  0
   14.5192   -1.1989   23.1993 C   0  0  0  0  0  0  0  0  0  0  0  0
   11.4603   -0.3072   24.9003 C   0  0  0  0  0  0  0  0  0  0  0  0
   12.3891    0.0319   25.8571 C   0  0  0  0  0  0  0  0  0  0  0  0
   12.1651   -0.8168   23.7741 C   0  0  0  0  0  0  0  0  0  0  0  0
   11.7751   -1.3146   22.5149 C   0  0  0  0  0  0  0  0  0  0  0  0
   13.5254   -0.7706   24.0866 C   0  0  0  0  0  0  0  0  0  0  0  0
    8.2950    0.6280   19.6080 C   0  0  0  0  0  0  0  0  0  0  0  0
   10.3416   -1.4004   22.0953 C   0  0  0  0  0  0  0  0  0  0  0  0
    8.5486   -0.4500   20.6389 C   0  0  0  0  0  0  0  0  0  0  0  0
   13.6318   -0.2509   25.3570 N   0  0  0  0  0  0  0  0  0  0  0  0
    9.9538   -0.3515   21.1149 N   0  3  0  0  0  0  0  0  0  0  0  0
   14.5018   -0.1003   25.8487 H   0  0  0  0  0  0  0  0  0  0  0  0
   10.1026    0.5754   21.5367 H   0  0  0  0  0  0  0  0  0  0  0  0
   10.5880   -0.3959   20.3056 H   0  0  0  0  0  0  0  0  0  0  0  0
  1  2  2  0  0  0  0
  1  3  1  0  0  0  0
  2  7  1  0  0  0  0
  3  8  2  0  0  0  0
  4  5  2  0  0  0  0
  4  6  1  0  0  0  0
  5 12  1  0  0  0  0
  6  7  2  0  0  0  0
  6  8  1  0  0  0  0
  7 10  1  0  0  0  0
  8 12  1  0  0  0  0
  9 11  1  0  0  0  0
 10 13  1  0  0  0  0
 11 13  1  0  0  0  0
 12 14  1  0  0  0  0
 13 15  1  0  0  0  0
 13 16  1  0  0  0  0
M  CHG  1  13   1
M  END
> <ref_mols>
x0663_0

> <original SMILES>
CCNCC=1C=CC=C2NC=CC12

> <Chemgauss4>
-8.093389

> <ref_pdb>
x0678_0

$$$$
x1088
  -OEChem-05172015543D

 16 17  0     0  0  0  0  0  0999 V2000
   14.1085   -1.6888   21.9562 C   0  0  0  0  0  0  0  0  0  0  0  0
   12.7581   -1.7466   21.6172 C   0  0  0  0  0  0  0  0  0  0  0  0
   14.5192   -1.1989   23.1993 C   0  0  0  0  0  0  0  0  0  0  0  0
   11.4603   -0.3072   24.9003 C   0  0  0  0  0  0  0  0  0  0  0  0
   12.3891    0.0319   25.8571 C   0  0  0  0  0  0  0  0  0  0  0  0
   12.1651   -0.8168   23.7741 C   0  0  0  0  0  0  0  0  0  0  0  0
   11.7751   -1.3146   22.5149 C   0  0  0  0  0  0  0  0  0  0  0  0
   13.5254   -0.7706   24.0866 C   0  0  0  0  0  0  0  0  0  0  0  0
    8.2950    0.6280   19.6080 C   0  0  0  0  0  0  0  0  0  0  0  0
   10.3416   -1.4004   22.0953 C   0  0  0  0  0  0  0  0  0  0  0  0
    8.5486   -0.4500   20.6389 C   0  0  0  0  0  0  0  0  0  0  0  0
   13.6318   -0.2509   25.3570 N   0  0  0  0  0  0  0  0  0  0  0  0
    9.9538   -0.3515   21.1149 N   0  3  0  0  0  0  0  0  0  0  0  0
   14.5018   -0.1003   25.8487 H   0  0  0  0  0  0  0  0  0  0  0  0
   10.1026    0.5754   21.5367 H   0  0  0  0  0  0  0  0  0  0  0  0
   10.5880   -0.3959   20.3056 H   0  0  0  0  0  0  0  0  0  0  0  0
  1  2  2  0  0  0  0
  1  3  1  0  0  0  0
  2  7  1  0  0  0  0
  3  8  2  0  0  0  0
  4  5  2  0  0  0  0
  4  6  1  0  0  0  0
  5 12  1  0  0  0  0
  6  7  2  0  0  0  0
  6  8  1  0  0  0  0
  7 10  1  0  0  0  0
  8 12  1  0  0  0  0
  9 11  1  0  0  0  0
 10 13  1  0  0  0  0
 11 13  1  0  0  0  0
 12 14  1  0  0  0  0
 13 15  1  0  0  0  0
 13 16  1  0  0  0  0
M  CHG  1  13   1
M  END
> <ref_mols>
x1088_0

> <original SMILES>
CCNCC=1C=CC=C2NC=CC12

> <Chemgauss4>
-8.093389

> <ref_pdb>
x0678_0

$$$$
x0066
  -OEChem-05172015543D

 15 16  0     0  0  0  0  0  0999 V2000
   14.2324   -0.3588   22.4109 C   0  0  0  0  0  0  0  0  0  0  0  0
   13.0974   -1.0191   22.8855 C   0  0  0  0  0  0  0  0  0  0  0  0
   14.3126    1.0393   22.4289 C   0  0  0  0  0  0  0  0  0  0  0  0
   12.0052   -0.3081   23.3935 C   0  0  0  0  0  0  0  0  0  0  0  0
   13.2236    1.7675   22.9363 C   0  0  0  0  0  0  0  0  0  0  0  0
   12.1057    1.0848   23.4026 C   0  0  0  0  0  0  0  0  0  0  0  0
   12.9068    3.1296   23.1277 C   0  0  0  0  0  0  0  0  0  0  0  0
   13.7185    4.2722   22.8135 C   0  0  0  0  0  0  0  0  0  0  0  0
    9.9266    1.8558   24.3925 C   0  0  0  0  0  0  0  0  0  0  0  0
   11.6990    3.3100   23.6667 N   0  0  0  0  0  0  0  0  0  0  0  0
   11.2385    2.0575   23.8218 N   0  0  0  0  0  0  0  0  0  0  0  0
   13.2076    5.5470   23.0871 N   0  0  0  0  0  0  0  0  0  0  0  0
   14.8522    4.1609   22.2917 O   0  0  0  0  0  0  0  0  0  0  0  0
   12.2836    5.6278   23.4973 H   0  0  0  0  0  0  0  0  0  0  0  0
   13.7324    6.3926   22.8881 H   0  0  0  0  0  0  0  0  0  0  0  0
  1  2  1  0  0  0  0
  1  3  2  0  0  0  0
  2  4  2  0  0  0  0
  3  5  1  0  0  0  0
  4  6  1  0  0  0  0
  5  6  2  0  0  0  0
  5  7  1  0  0  0  0
  6 11  1  0  0  0  0
  7  8  1  0  0  0  0
  7 10  2  0  0  0  0
  8 12  1  0  0  0  0
  8 13  2  0  0  0  0
  9 11  1  0  0  0  0
 10 11  1  0  0  0  0
 12 14  1  0  0  0  0
 12 15  1  0  0  0  0
M  END
> <ref_mols>
x0066_0

> <original SMILES>
CN1N=C(C(=O)N)C=2C=CC=CC12

> <Chemgauss4>
-8.093293

> <ref_pdb>
x0195_0

$$$$
x0164
  -OEChem-05172015543D

 19 20  0     0  0  0  0  0  0999 V2000
   13.0320   -0.2112   23.9366 C   0  0  0  0  0  0  0  0  0  0  0  0
   11.8392    0.3600   24.3798 C   0  0  0  0  0  0  0  0  0  0  0  0
   13.0112   -1.4255   23.2505 C   0  0  0  0  0  0  0  0  0  0  0  0
   10.6254   -0.2830   24.1369 C   0  0  0  0  0  0  0  0  0  0  0  0
   11.7975   -2.0686   23.0076 C   0  0  0  0  0  0  0  0  0  0  0  0
    7.8342   -4.0209   23.2678 C   0  0  0  0  0  0  0  0  0  0  0  0
    8.7107   -3.1154   25.3291 C   0  0  0  0  0  0  0  0  0  0  0  0
    7.1033   -4.9625   23.9922 C   0  0  0  0  0  0  0  0  0  0  0  0
    7.9797   -4.0570   26.0536 C   0  0  0  0  0  0  0  0  0  0  0  0
   10.6046   -1.4974   23.4508 C   0  0  0  0  0  0  0  0  0  0  0  0
    8.6380   -3.0974   23.9363 C   0  0  0  0  0  0  0  0  0  0  0  0
    7.1760   -4.9806   25.3851 C   0  0  0  0  0  0  0  0  0  0  0  0
    6.3913   -6.0933   27.4994 C   0  0  0  0  0  0  0  0  0  0  0  0
    5.4788   -7.2293   27.8883 C   0  0  0  0  0  0  0  0  0  0  0  0
    9.3776   -2.1478   23.2049 N   0  0  0  0  0  0  0  0  0  0  0  0
    6.4449   -5.9223   26.1096 N   0  0  0  0  0  0  0  0  0  0  0  0
    6.9800   -5.4396   28.3544 O   0  0  0  0  0  0  0  0  0  0  0  0
    8.9431   -1.8781   22.3272 H   0  0  0  0  0  0  0  0  0  0  0  0
    5.8717   -6.5742   25.5615 H   0  0  0  0  0  0  0  0  0  0  0  0
  1  2  1  0  0  0  0
  1  3  2  0  0  0  0
  2  4  2  0  0  0  0
  3  5  1  0  0  0  0
  4 10  1  0  0  0  0
  5 10  2  0  0  0  0
  6  8  2  0  0  0  0
  6 11  1  0  0  0  0
  7  9  1  0  0  0  0
  7 11  2  0  0  0  0
  8 12  1  0  0  0  0
  9 12  2  0  0  0  0
 10 15  1  0  0  0  0
 11 15  1  0  0  0  0
 12 16  1  0  0  0  0
 13 14  1  0  0  0  0
 13 16  1  0  0  0  0
 13 17  2  0  0  0  0
 15 18  1  0  0  0  0
 16 19  1  0  0  0  0
M  END
> <ref_mols>
x0164_0

> <original SMILES>
CC(=O)NC=1C=CC(NC=2C=CC=CC2)=CC1

> <Chemgauss4>
-8.093094

> <ref_pdb>
x0072_0

$$$$
x2746
  -OEChem-05172015543D

 17 17  0     0  0  0  0  0  0999 V2000
   14.6883   -0.2527   22.2270 C   0  0  0  0  0  0  0  0  0  0  0  0
   14.2039   -1.5606   22.2111 C   0  0  0  0  0  0  0  0  0  0  0  0
   13.9023    0.7759   22.7465 C   0  0  0  0  0  0  0  0  0  0  0  0
   12.9334   -1.8399   22.7145 C   0  0  0  0  0  0  0  0  0  0  0  0
   12.6318    0.4966   23.2499 C   0  0  0  0  0  0  0  0  0  0  0  0
   12.1473   -0.8114   23.2339 C   0  0  0  0  0  0  0  0  0  0  0  0
   11.8161    1.6194   23.7979 C   0  0  0  0  0  0  0  0  0  0  0  0
   12.0092    3.0142   23.2173 C   0  0  0  0  0  0  0  0  0  0  0  0
   10.7694    3.8924   23.3232 C   0  0  0  0  0  0  0  0  0  0  0  0
   10.8626   -1.1153   23.7369 N   0  0  0  0  0  0  0  0  0  0  0  0
   11.0634    5.2468   22.7920 N   0  3  0  0  0  0  0  0  0  0  0  0
   11.0190    1.3929   24.7053 O   0  0  0  0  0  0  0  0  0  0  0  0
   10.5233   -2.0522   23.6680 H   0  0  0  0  0  0  0  0  0  0  0  0
   10.2817   -0.3721   24.0653 H   0  0  0  0  0  0  0  0  0  0  0  0
   10.9304    5.2785   21.7759 H   0  0  0  0  0  0  0  0  0  0  0  0
   12.0323    5.5159   22.9930 H   0  0  0  0  0  0  0  0  0  0  0  0
   10.4457    5.9478   23.2145 H   0  0  0  0  0  0  0  0  0  0  0  0
  1  2  1  0  0  0  0
  1  3  2  0  0  0  0
  2  4  2  0  0  0  0
  3  5  1  0  0  0  0
  4  6  1  0  0  0  0
  5  6  2  0  0  0  0
  5  7  1  0  0  0  0
  6 10  1  0  0  0  0
  7  8  1  0  0  0  0
  7 12  2  0  0  0  0
  8  9  1  0  0  0  0
  9 11  1  0  0  0  0
 10 13  1  0  0  0  0
 10 14  1  0  0  0  0
 11 15  1  0  0  0  0
 11 16  1  0  0  0  0
 11 17  1  0  0  0  0
M  CHG  1  11   1
M  END
> <ref_mols>
x2746_0

> <original SMILES>
NC1=CC=CC=C1C(CCN)=O

> <Chemgauss4>
-8.091883

> <ref_pdb>
x0195_0

$$$$
x2752
  -OEChem-05172015543D

 17 17  0     0  0  0  0  0  0999 V2000
   14.6883   -0.2527   22.2270 C   0  0  0  0  0  0  0  0  0  0  0  0
   14.2039   -1.5606   22.2111 C   0  0  0  0  0  0  0  0  0  0  0  0
   13.9023    0.7759   22.7465 C   0  0  0  0  0  0  0  0  0  0  0  0
   12.9334   -1.8399   22.7145 C   0  0  0  0  0  0  0  0  0  0  0  0
   12.6318    0.4966   23.2499 C   0  0  0  0  0  0  0  0  0  0  0  0
   12.1473   -0.8114   23.2339 C   0  0  0  0  0  0  0  0  0  0  0  0
   11.8161    1.6194   23.7979 C   0  0  0  0  0  0  0  0  0  0  0  0
   12.0092    3.0142   23.2173 C   0  0  0  0  0  0  0  0  0  0  0  0
   10.7694    3.8924   23.3232 C   0  0  0  0  0  0  0  0  0  0  0  0
   10.8626   -1.1153   23.7369 N   0  0  0  0  0  0  0  0  0  0  0  0
   11.0634    5.2468   22.7920 N   0  3  0  0  0  0  0  0  0  0  0  0
   11.0190    1.3929   24.7053 O   0  0  0  0  0  0  0  0  0  0  0  0
   10.5233   -2.0522   23.6680 H   0  0  0  0  0  0  0  0  0  0  0  0
   10.2817   -0.3721   24.0653 H   0  0  0  0  0  0  0  0  0  0  0  0
   10.9304    5.2785   21.7759 H   0  0  0  0  0  0  0  0  0  0  0  0
   12.0323    5.5159   22.9930 H   0  0  0  0  0  0  0  0  0  0  0  0
   10.4457    5.9478   23.2145 H   0  0  0  0  0  0  0  0  0  0  0  0
  1  2  1  0  0  0  0
  1  3  2  0  0  0  0
  2  4  2  0  0  0  0
  3  5  1  0  0  0  0
  4  6  1  0  0  0  0
  5  6  2  0  0  0  0
  5  7  1  0  0  0  0
  6 10  1  0  0  0  0
  7  8  1  0  0  0  0
  7 12  2  0  0  0  0
  8  9  1  0  0  0  0
  9 11  1  0  0  0  0
 10 13  1  0  0  0  0
 10 14  1  0  0  0  0
 11 15  1  0  0  0  0
 11 16  1  0  0  0  0
 11 17  1  0  0  0  0
M  CHG  1  11   1
M  END
> <ref_mols>
x2752_0

> <original SMILES>
NC1=CC=CC=C1C(CCN)=O

> <Chemgauss4>
-8.091883

> <ref_pdb>
x0195_0

$$$$
x2461
  -OEChem-05172015543D

 17 17  0     0  0  0  0  0  0999 V2000
   14.6883   -0.2527   22.2270 C   0  0  0  0  0  0  0  0  0  0  0  0
   14.2039   -1.5606   22.2111 C   0  0  0  0  0  0  0  0  0  0  0  0
   13.9023    0.7759   22.7465 C   0  0  0  0  0  0  0  0  0  0  0  0
   12.9334   -1.8399   22.7145 C   0  0  0  0  0  0  0  0  0  0  0  0
   12.6318    0.4966   23.2499 C   0  0  0  0  0  0  0  0  0  0  0  0
   12.1473   -0.8114   23.2339 C   0  0  0  0  0  0  0  0  0  0  0  0
   11.8161    1.6194   23.7979 C   0  0  0  0  0  0  0  0  0  0  0  0
   12.0092    3.0142   23.2173 C   0  0  0  0  0  0  0  0  0  0  0  0
   10.7694    3.8924   23.3232 C   0  0  0  0  0  0  0  0  0  0  0  0
   10.8626   -1.1153   23.7369 N   0  0  0  0  0  0  0  0  0  0  0  0
   11.0634    5.2468   22.7920 N   0  3  0  0  0  0  0  0  0  0  0  0
   11.0190    1.3929   24.7053 O   0  0  0  0  0  0  0  0  0  0  0  0
   10.5233   -2.0522   23.6680 H   0  0  0  0  0  0  0  0  0  0  0  0
   10.2817   -0.3721   24.0653 H   0  0  0  0  0  0  0  0  0  0  0  0
   10.9304    5.2785   21.7759 H   0  0  0  0  0  0  0  0  0  0  0  0
   12.0323    5.5159   22.9930 H   0  0  0  0  0  0  0  0  0  0  0  0
   10.4457    5.9478   23.2145 H   0  0  0  0  0  0  0  0  0  0  0  0
  1  2  1  0  0  0  0
  1  3  2  0  0  0  0
  2  4  2  0  0  0  0
  3  5  1  0  0  0  0
  4  6  1  0  0  0  0
  5  6  2  0  0  0  0
  5  7  1  0  0  0  0
  6 10  1  0  0  0  0
  7  8  1  0  0  0  0
  7 12  2  0  0  0  0
  8  9  1  0  0  0  0
  9 11  1  0  0  0  0
 10 13  1  0  0  0  0
 10 14  1  0  0  0  0
 11 15  1  0  0  0  0
 11 16  1  0  0  0  0
 11 17  1  0  0  0  0
M  CHG  1  11   1
M  END
> <ref_mols>
x2461_0

> <original SMILES>
NC1=CC=CC=C1C(CCN)=O

> <Chemgauss4>
-8.091883

> <ref_pdb>
x0195_0

$$$$
x2356
  -OEChem-05172015543D

 17 17  0     0  0  0  0  0  0999 V2000
   14.6883   -0.2527   22.2270 C   0  0  0  0  0  0  0  0  0  0  0  0
   14.2039   -1.5606   22.2111 C   0  0  0  0  0  0  0  0  0  0  0  0
   13.9023    0.7759   22.7465 C   0  0  0  0  0  0  0  0  0  0  0  0
   12.9334   -1.8399   22.7145 C   0  0  0  0  0  0  0  0  0  0  0  0
   12.6318    0.4966   23.2499 C   0  0  0  0  0  0  0  0  0  0  0  0
   12.1473   -0.8114   23.2339 C   0  0  0  0  0  0  0  0  0  0  0  0
   11.8161    1.6194   23.7979 C   0  0  0  0  0  0  0  0  0  0  0  0
   12.0092    3.0142   23.2173 C   0  0  0  0  0  0  0  0  0  0  0  0
   10.7694    3.8924   23.3232 C   0  0  0  0  0  0  0  0  0  0  0  0
   10.8626   -1.1153   23.7369 N   0  0  0  0  0  0  0  0  0  0  0  0
   11.0634    5.2468   22.7920 N   0  3  0  0  0  0  0  0  0  0  0  0
   11.0190    1.3929   24.7053 O   0  0  0  0  0  0  0  0  0  0  0  0
   10.5233   -2.0522   23.6680 H   0  0  0  0  0  0  0  0  0  0  0  0
   10.2817   -0.3721   24.0653 H   0  0  0  0  0  0  0  0  0  0  0  0
   10.9304    5.2785   21.7759 H   0  0  0  0  0  0  0  0  0  0  0  0
   12.0323    5.5159   22.9930 H   0  0  0  0  0  0  0  0  0  0  0  0
   10.4457    5.9478   23.2145 H   0  0  0  0  0  0  0  0  0  0  0  0
  1  2  1  0  0  0  0
  1  3  2  0  0  0  0
  2  4  2  0  0  0  0
  3  5  1  0  0  0  0
  4  6  1  0  0  0  0
  5  6  2  0  0  0  0
  5  7  1  0  0  0  0
  6 10  1  0  0  0  0
  7  8  1  0  0  0  0
  7 12  2  0  0  0  0
  8  9  1  0  0  0  0
  9 11  1  0  0  0  0
 10 13  1  0  0  0  0
 10 14  1  0  0  0  0
 11 15  1  0  0  0  0
 11 16  1  0  0  0  0
 11 17  1  0  0  0  0
M  CHG  1  11   1
M  END
> <ref_mols>
x2356_0

> <original SMILES>
NC1=CC=CC=C1C(CCN)=O

> <Chemgauss4>
-8.091883

> <ref_pdb>
x0195_0

$$$$
x2361
  -OEChem-05172015543D

 17 17  0     0  0  0  0  0  0999 V2000
   14.6883   -0.2527   22.2270 C   0  0  0  0  0  0  0  0  0  0  0  0
   14.2039   -1.5606   22.2111 C   0  0  0  0  0  0  0  0  0  0  0  0
   13.9023    0.7759   22.7465 C   0  0  0  0  0  0  0  0  0  0  0  0
   12.9334   -1.8399   22.7145 C   0  0  0  0  0  0  0  0  0  0  0  0
   12.6318    0.4966   23.2499 C   0  0  0  0  0  0  0  0  0  0  0  0
   12.1473   -0.8114   23.2339 C   0  0  0  0  0  0  0  0  0  0  0  0
   11.8161    1.6194   23.7979 C   0  0  0  0  0  0  0  0  0  0  0  0
   12.0092    3.0142   23.2173 C   0  0  0  0  0  0  0  0  0  0  0  0
   10.7694    3.8924   23.3232 C   0  0  0  0  0  0  0  0  0  0  0  0
   10.8626   -1.1153   23.7369 N   0  0  0  0  0  0  0  0  0  0  0  0
   11.0634    5.2468   22.7920 N   0  3  0  0  0  0  0  0  0  0  0  0
   11.0190    1.3929   24.7053 O   0  0  0  0  0  0  0  0  0  0  0  0
   10.5233   -2.0522   23.6680 H   0  0  0  0  0  0  0  0  0  0  0  0
   10.2817   -0.3721   24.0653 H   0  0  0  0  0  0  0  0  0  0  0  0
   10.9304    5.2785   21.7759 H   0  0  0  0  0  0  0  0  0  0  0  0
   12.0323    5.5159   22.9930 H   0  0  0  0  0  0  0  0  0  0  0  0
   10.4457    5.9478   23.2145 H   0  0  0  0  0  0  0  0  0  0  0  0
  1  2  1  0  0  0  0
  1  3  2  0  0  0  0
  2  4  2  0  0  0  0
  3  5  1  0  0  0  0
  4  6  1  0  0  0  0
  5  6  2  0  0  0  0
  5  7  1  0  0  0  0
  6 10  1  0  0  0  0
  7  8  1  0  0  0  0
  7 12  2  0  0  0  0
  8  9  1  0  0  0  0
  9 11  1  0  0  0  0
 10 13  1  0  0  0  0
 10 14  1  0  0  0  0
 11 15  1  0  0  0  0
 11 16  1  0  0  0  0
 11 17  1  0  0  0  0
M  CHG  1  11   1
M  END
> <ref_mols>
x2361_0

> <original SMILES>
NC1=CC=CC=C1C(CCN)=O

> <Chemgauss4>
-8.091883

> <ref_pdb>
x0195_0

$$$$
x0417
  -OEChem-05172015543D

 17 18  0     1  0  0  0  0  0999 V2000
   12.5116   -1.6397   21.7865 C   0  0  0  0  0  0  0  0  0  0  0  0
   11.5601   -0.3125   23.5670 C   0  0  0  0  0  0  0  0  0  0  0  0
   13.7932   -1.2818   22.2045 C   0  0  0  0  0  0  0  0  0  0  0  0
   12.8418    0.0455   23.9850 C   0  0  0  0  0  0  0  0  0  0  0  0
   11.3950   -1.1550   22.4677 C   0  0  0  0  0  0  0  0  0  0  0  0
   13.9583   -0.4392   23.3038 C   0  0  0  0  0  0  0  0  0  0  0  0
    5.8665    1.0543   18.3804 C   0  0  0  0  0  0  0  0  0  0  0  0
    6.3299   -0.3106   18.8237 C   0  0  0  0  0  0  0  0  0  0  0  0
    6.3523    1.9329   19.5136 C   0  0  0  0  0  0  0  0  0  0  0  0
    7.6750    0.0150   19.4496 C   0  0  2  0  0  0  0  0  0  0  0  0
   10.0161   -1.5403   22.0190 C   0  0  0  0  0  0  0  0  0  0  0  0
    8.1112   -0.9863   20.5013 C   0  0  0  0  0  0  0  0  0  0  0  0
    9.4453   -0.6003   21.0143 N   0  3  0  0  0  0  0  0  0  0  0  0
    7.5358    1.3169   20.0432 O   0  0  0  0  0  0  0  0  0  0  0  0
   15.1892   -0.0975   23.7070 F   0  0  0  0  0  0  0  0  0  0  0  0
    9.3933    0.3413   21.4319 H   0  0  0  0  0  0  0  0  0  0  0  0
   10.1051   -0.5155   20.2261 H   0  0  0  0  0  0  0  0  0  0  0  0
  1  3  2  0  0  0  0
  1  5  1  0  0  0  0
  2  4  1  0  0  0  0
  2  5  2  0  0  0  0
  3  6  1  0  0  0  0
  4  6  2  0  0  0  0
  5 11  1  0  0  0  0
  6 15  1  0  0  0  0
  7  8  1  0  0  0  0
  7  9  1  0  0  0  0
  8 10  1  0  0  0  0
  9 14  1  0  0  0  0
 10 12  1  0  0  0  0
 10 14  1  0  0  0  0
 11 13  1  0  0  0  0
 12 13  1  0  0  0  0
 13 16  1  0  0  0  0
 13 17  1  0  0  0  0
M  CHG  1  13   1
M  END
> <ref_mols>
x0417_0

> <original SMILES>
FC=1C=CC(CNC[C@H]2CCCO2)=CC1

> <Chemgauss4>
-8.090335

> <ref_pdb>
x1093_0

$$$$
x2353
  -OEChem-05172015543D

 19 20  0     0  0  0  0  0  0999 V2000
   12.2296   -3.6571   25.3374 C   0  0  0  0  0  0  0  0  0  0  0  0
   12.0421   -2.2912   25.3723 C   0  0  0  0  0  0  0  0  0  0  0  0
   10.0798   -2.8734   24.5846 C   0  0  0  0  0  0  0  0  0  0  0  0
    3.9035   -5.0980   23.9739 C   0  0  0  0  0  0  0  0  0  0  0  0
    4.8228   -6.0120   23.6564 C   0  0  0  0  0  0  0  0  0  0  0  0
    5.9142   -5.6359   22.7358 C   0  0  0  0  0  0  0  0  0  0  0  0
    8.5086   -3.2399   22.5862 C   0  0  0  0  0  0  0  0  0  0  0  0
    7.6085   -3.4198   24.9891 C   0  0  0  0  0  0  0  0  0  0  0  0
    8.1808   -4.7225   22.4122 C   0  0  0  0  0  0  0  0  0  0  0  0
    7.3501   -4.8989   24.7149 C   0  0  0  0  0  0  0  0  0  0  0  0
    8.6509   -2.7796   24.0508 C   0  0  0  0  0  0  0  0  0  0  0  0
   13.0343   -1.2961   25.8248 C   0  0  0  0  0  0  0  0  0  0  0  0
   10.8101   -1.8399   24.9406 N   0  0  0  0  0  0  0  0  0  0  0  0
    7.0794   -5.1140   23.2899 N   0  0  0  0  0  0  0  0  0  0  0  0
    5.7245   -5.8020   21.5297 O   0  0  0  0  0  0  0  0  0  0  0  0
   14.2270   -1.8368   26.2342 F   0  0  0  0  0  0  0  0  0  0  0  0
   13.3854   -0.3776   24.8680 F   0  0  0  0  0  0  0  0  0  0  0  0
   12.6025   -0.5484   26.8895 F   0  0  0  0  0  0  0  0  0  0  0  0
   10.8117   -4.4174   24.7434 S   0  0  0  0  0  0  0  0  0  0  0  0
  1  2  2  0  0  0  0
  1 19  1  0  0  0  0
  2 12  1  0  0  0  0
  2 13  1  0  0  0  0
  3 11  1  0  0  0  0
  3 13  2  0  0  0  0
  3 19  1  0  0  0  0
  4  5  2  0  0  0  0
  5  6  1  0  0  0  0
  6 14  1  0  0  0  0
  6 15  2  0  0  0  0
  7  9  1  0  0  0  0
  7 11  1  0  0  0  0
  8 10  1  0  0  0  0
  8 11  1  0  0  0  0
  9 14  1  0  0  0  0
 10 14  1  0  0  0  0
 12 16  1  0  0  0  0
 12 17  1  0  0  0  0
 12 18  1  0  0  0  0
M  END
> <ref_mols>
x2353_0

> <original SMILES>
FC(F)(F)c1csc(n1)C2CCN(CC2)C(=O)C=C

> <Chemgauss4>
-8.087995

> <ref_pdb>
x0749_0

$$$$
x2741
  -OEChem-05172015543D

 19 20  0     0  0  0  0  0  0999 V2000
   12.2296   -3.6571   25.3374 C   0  0  0  0  0  0  0  0  0  0  0  0
   12.0421   -2.2912   25.3723 C   0  0  0  0  0  0  0  0  0  0  0  0
   10.0798   -2.8734   24.5846 C   0  0  0  0  0  0  0  0  0  0  0  0
    3.9035   -5.0980   23.9739 C   0  0  0  0  0  0  0  0  0  0  0  0
    4.8228   -6.0120   23.6564 C   0  0  0  0  0  0  0  0  0  0  0  0
    5.9142   -5.6359   22.7358 C   0  0  0  0  0  0  0  0  0  0  0  0
    8.5086   -3.2399   22.5862 C   0  0  0  0  0  0  0  0  0  0  0  0
    7.6085   -3.4198   24.9891 C   0  0  0  0  0  0  0  0  0  0  0  0
    8.1808   -4.7225   22.4122 C   0  0  0  0  0  0  0  0  0  0  0  0
    7.3501   -4.8989   24.7149 C   0  0  0  0  0  0  0  0  0  0  0  0
    8.6509   -2.7796   24.0508 C   0  0  0  0  0  0  0  0  0  0  0  0
   13.0343   -1.2961   25.8248 C   0  0  0  0  0  0  0  0  0  0  0  0
   10.8101   -1.8399   24.9406 N   0  0  0  0  0  0  0  0  0  0  0  0
    7.0794   -5.1140   23.2899 N   0  0  0  0  0  0  0  0  0  0  0  0
    5.7245   -5.8020   21.5297 O   0  0  0  0  0  0  0  0  0  0  0  0
   14.2270   -1.8368   26.2342 F   0  0  0  0  0  0  0  0  0  0  0  0
   13.3854   -0.3776   24.8680 F   0  0  0  0  0  0  0  0  0  0  0  0
   12.6025   -0.5484   26.8895 F   0  0  0  0  0  0  0  0  0  0  0  0
   10.8117   -4.4174   24.7434 S   0  0  0  0  0  0  0  0  0  0  0  0
  1  2  2  0  0  0  0
  1 19  1  0  0  0  0
  2 12  1  0  0  0  0
  2 13  1  0  0  0  0
  3 11  1  0  0  0  0
  3 13  2  0  0  0  0
  3 19  1  0  0  0  0
  4  5  2  0  0  0  0
  5  6  1  0  0  0  0
  6 14  1  0  0  0  0
  6 15  2  0  0  0  0
  7  9  1  0  0  0  0
  7 11  1  0  0  0  0
  8 10  1  0  0  0  0
  8 11  1  0  0  0  0
  9 14  1  0  0  0  0
 10 14  1  0  0  0  0
 12 16  1  0  0  0  0
 12 17  1  0  0  0  0
 12 18  1  0  0  0  0
M  END
> <ref_mols>
x2741_0

> <original SMILES>
FC(F)(F)c1csc(n1)C2CCN(CC2)C(=O)C=C

> <Chemgauss4>
-8.087995

> <ref_pdb>
x0749_0

> <CYS145-warhead dist minimum (A)>
4.4090123

> <CYS145-warhead dist mean (A)>
5.6109986

> <CYS145-warhead dist stddev (A)>
0.3969293

$$$$
x2551
  -OEChem-05172015543D

 19 20  0     0  0  0  0  0  0999 V2000
   12.2296   -3.6571   25.3374 C   0  0  0  0  0  0  0  0  0  0  0  0
   12.0421   -2.2912   25.3723 C   0  0  0  0  0  0  0  0  0  0  0  0
   10.0798   -2.8734   24.5846 C   0  0  0  0  0  0  0  0  0  0  0  0
    3.9035   -5.0980   23.9739 C   0  0  0  0  0  0  0  0  0  0  0  0
    4.8228   -6.0120   23.6564 C   0  0  0  0  0  0  0  0  0  0  0  0
    5.9142   -5.6359   22.7358 C   0  0  0  0  0  0  0  0  0  0  0  0
    8.5086   -3.2399   22.5862 C   0  0  0  0  0  0  0  0  0  0  0  0
    7.6085   -3.4198   24.9891 C   0  0  0  0  0  0  0  0  0  0  0  0
    8.1808   -4.7225   22.4122 C   0  0  0  0  0  0  0  0  0  0  0  0
    7.3501   -4.8989   24.7149 C   0  0  0  0  0  0  0  0  0  0  0  0
    8.6509   -2.7796   24.0508 C   0  0  0  0  0  0  0  0  0  0  0  0
   13.0343   -1.2961   25.8248 C   0  0  0  0  0  0  0  0  0  0  0  0
   10.8101   -1.8399   24.9406 N   0  0  0  0  0  0  0  0  0  0  0  0
    7.0794   -5.1140   23.2899 N   0  0  0  0  0  0  0  0  0  0  0  0
    5.7245   -5.8020   21.5297 O   0  0  0  0  0  0  0  0  0  0  0  0
   14.2270   -1.8368   26.2342 F   0  0  0  0  0  0  0  0  0  0  0  0
   13.3854   -0.3776   24.8680 F   0  0  0  0  0  0  0  0  0  0  0  0
   12.6025   -0.5484   26.8895 F   0  0  0  0  0  0  0  0  0  0  0  0
   10.8117   -4.4174   24.7434 S   0  0  0  0  0  0  0  0  0  0  0  0
  1  2  2  0  0  0  0
  1 19  1  0  0  0  0
  2 12  1  0  0  0  0
  2 13  1  0  0  0  0
  3 11  1  0  0  0  0
  3 13  2  0  0  0  0
  3 19  1  0  0  0  0
  4  5  2  0  0  0  0
  5  6  1  0  0  0  0
  6 14  1  0  0  0  0
  6 15  2  0  0  0  0
  7  9  1  0  0  0  0
  7 11  1  0  0  0  0
  8 10  1  0  0  0  0
  8 11  1  0  0  0  0
  9 14  1  0  0  0  0
 10 14  1  0  0  0  0
 12 16  1  0  0  0  0
 12 17  1  0  0  0  0
 12 18  1  0  0  0  0
M  END
> <ref_mols>
x2551_0

> <original SMILES>
FC(F)(F)c1csc(n1)C2CCN(CC2)C(=O)C=C

> <Chemgauss4>
-8.087995

> <ref_pdb>
x0749_0

$$$$
x2609
  -OEChem-05172015543D

 24 25  0     0  0  0  0  0  0999 V2000
    5.6815    1.0904   17.7808 C   0  0  0  0  0  0  0  0  0  0  0  0
   11.7636    0.9854   23.9776 C   0  0  0  0  0  0  0  0  0  0  0  0
   10.8421    0.0943   23.4390 C   0  0  0  0  0  0  0  0  0  0  0  0
    6.7978    0.3734   18.1968 C   0  0  0  0  0  0  0  0  0  0  0  0
    4.7716    1.5578   18.7226 C   0  0  0  0  0  0  0  0  0  0  0  0
   13.0794    0.5669   24.0928 C   0  0  0  0  0  0  0  0  0  0  0  0
   12.5971   -1.4920   23.1947 C   0  0  0  0  0  0  0  0  0  0  0  0
   11.2586   -1.1701   23.0376 C   0  0  0  0  0  0  0  0  0  0  0  0
    6.9572    0.1523   19.5553 C   0  0  0  0  0  0  0  0  0  0  0  0
    5.0217    1.2835   20.0575 C   0  0  0  0  0  0  0  0  0  0  0  0
    8.4672   -0.9234   21.2710 C   0  0  0  0  0  0  0  0  0  0  0  0
   10.2972   -2.1452   22.4573 C   0  0  0  0  0  0  0  0  0  0  0  0
    4.0176    0.9524   22.1878 C   0  0  0  0  0  0  0  0  0  0  0  0
    3.6245    1.8395   23.3458 C   0  0  0  0  0  0  0  0  0  0  0  0
   13.5215   -0.6532   23.7139 N   0  0  0  0  0  0  0  0  0  0  0  0
    6.0949    0.5904   20.4998 N   0  0  0  0  0  0  0  0  0  0  0  0
    8.0960   -0.5777   19.9686 N   0  0  0  0  0  0  0  0  0  0  0  0
    9.6638   -1.6498   21.2597 N   0  0  0  0  0  0  0  0  0  0  0  0
    7.8594   -0.6494   22.3030 O   0  0  0  0  0  0  0  0  0  0  0  0
    4.1389    1.7327   21.0045 O   0  0  0  0  0  0  0  0  0  0  0  0
    4.5551    2.8093   23.5210 F   0  0  0  0  0  0  0  0  0  0  0  0
    2.4500    2.4595   23.0749 F   0  0  0  0  0  0  0  0  0  0  0  0
    8.7164   -0.8868   19.2243 H   0  0  0  0  0  0  0  0  0  0  0  0
   10.1076   -1.8372   20.3649 H   0  0  0  0  0  0  0  0  0  0  0  0
  1  4  1  0  0  0  0
  1  5  2  0  0  0  0
  2  3  2  0  0  0  0
  2  6  1  0  0  0  0
  3  8  1  0  0  0  0
  4  9  2  0  0  0  0
  5 10  1  0  0  0  0
  6 15  2  0  0  0  0
  7  8  2  0  0  0  0
  7 15  1  0  0  0  0
  8 12  1  0  0  0  0
  9 16  1  0  0  0  0
  9 17  1  0  0  0  0
 10 16  2  0  0  0  0
 10 20  1  0  0  0  0
 11 17  1  0  0  0  0
 11 18  1  0  0  0  0
 11 19  2  0  0  0  0
 12 18  1  0  0  0  0
 13 14  1  0  0  0  0
 13 20  1  0  0  0  0
 14 21  1  0  0  0  0
 14 22  1  0  0  0  0
 17 23  1  0  0  0  0
 18 24  1  0  0  0  0
M  END
> <ref_mols>
x2609_0

> <original SMILES>
FC(F)COC=1C=CC=C(NC(=O)NCC=2C=CC=NC2)N1

> <Chemgauss4>
-8.066553

> <ref_pdb>
x1093_0

$$$$
x0608
  -OEChem-05172015543D

 15 16  0     0  0  0  0  0  0999 V2000
   11.8467   -1.3634   22.7050 C   0  0  0  0  0  0  0  0  0  0  0  0
   12.6633    0.6484   22.8511 C   0  0  0  0  0  0  0  0  0  0  0  0
   11.5189    4.0859   23.6634 C   0  0  0  0  0  0  0  0  0  0  0  0
   11.9821    2.6857   24.0688 C   0  0  0  0  0  0  0  0  0  0  0  0
   13.8011    2.7574   22.2617 C   0  0  0  0  0  0  0  0  0  0  0  0
   12.5405    5.1712   23.9590 C   0  0  0  0  0  0  0  0  0  0  0  0
   14.5017    3.8698   23.0291 C   0  0  0  0  0  0  0  0  0  0  0  0
   10.7850   -2.3798   22.8021 C   0  0  0  0  0  0  0  0  0  0  0  0
   11.5590   -0.0457   23.0181 N   0  0  0  0  0  0  0  0  0  0  0  0
   13.0711   -1.7214   22.3188 N   0  0  0  0  0  0  0  0  0  0  0  0
   12.8126    2.0258   23.0587 N   0  0  3  0  0  0  0  0  0  0  0  0
   13.6820    5.1145   23.0095 N   0  3  0  0  0  0  0  0  0  0  0  0
   13.9822   -0.3178   22.3299 S   0  0  0  0  0  0  0  0  0  0  0  0
   13.2943    5.2193   22.0564 H   0  0  0  0  0  0  0  0  0  0  0  0
   14.2879    5.9450   23.1314 H   0  0  0  0  0  0  0  0  0  0  0  0
  1  8  1  0  0  0  0
  1  9  1  0  0  0  0
  1 10  2  0  0  0  0
  2  9  2  0  0  0  0
  2 11  1  0  0  0  0
  2 13  1  0  0  0  0
  3  4  1  0  0  0  0
  3  6  1  0  0  0  0
  4 11  1  0  0  0  0
  5  7  1  0  0  0  0
  5 11  1  0  0  0  0
  6 12  1  0  0  0  0
  7 12  1  0  0  0  0
 10 13  1  0  0  0  0
 12 14  1  0  0  0  0
 12 15  1  0  0  0  0
M  CHG  1  12   1
M  END
> <ref_mols>
x0608_0

> <original SMILES>
CC1=NSC(=N1)N2CCCNCC2

> <Chemgauss4>
-8.065742

> <ref_pdb>
x0195_0

$$$$
x2358
  -OEChem-05172015543D

 18 19  0     0  0  0  0  0  0999 V2000
   13.5019   -1.2261   21.8000 C   0  0  0  0  0  0  0  0  0  0  0  0
   14.1393   -1.0893   23.0365 C   0  0  0  0  0  0  0  0  0  0  0  0
   12.1385   -0.1343   24.0274 C   0  0  0  0  0  0  0  0  0  0  0  0
   10.0913   -0.3038   21.0040 C   0  0  0  0  0  0  0  0  0  0  0  0
   11.4752   -0.2624   22.7909 C   0  0  0  0  0  0  0  0  0  0  0  0
   10.1645    0.0485   22.3320 C   0  0  0  0  0  0  0  0  0  0  0  0
   12.1708   -0.8042   21.7079 C   0  0  0  0  0  0  0  0  0  0  0  0
   13.4700   -0.5521   24.1344 C   0  0  0  0  0  0  0  0  0  0  0  0
    9.0715    0.6412   23.1287 C   0  0  0  0  0  0  0  0  0  0  0  0
    8.3871   -0.3302   24.1011 C   0  0  0  0  0  0  0  0  0  0  0  0
   11.3061   -0.8173   20.6367 N   0  0  0  0  0  0  0  0  0  0  0  0
    7.7485   -1.4384   23.3490 N   0  3  0  0  0  0  0  0  0  0  0  0
   14.1178   -0.4321   25.3276 O   0  0  0  0  0  0  0  0  0  0  0  0
   11.5361   -1.1566   19.7129 H   0  0  0  0  0  0  0  0  0  0  0  0
    8.3808   -2.2422   23.2732 H   0  0  0  0  0  0  0  0  0  0  0  0
    7.5001   -1.1409   22.3993 H   0  0  0  0  0  0  0  0  0  0  0  0
    6.8916   -1.7528   23.8164 H   0  0  0  0  0  0  0  0  0  0  0  0
   13.5266   -0.0444   25.9915 H   0  0  0  0  0  0  0  0  0  0  0  0
  1  2  2  0  0  0  0
  1  7  1  0  0  0  0
  2  8  1  0  0  0  0
  3  5  1  0  0  0  0
  3  8  2  0  0  0  0
  4  6  2  0  0  0  0
  4 11  1  0  0  0  0
  5  6  1  0  0  0  0
  5  7  2  0  0  0  0
  6  9  1  0  0  0  0
  7 11  1  0  0  0  0
  8 13  1  0  0  0  0
  9 10  1  0  0  0  0
 10 12  1  0  0  0  0
 11 14  1  0  0  0  0
 12 15  1  0  0  0  0
 12 16  1  0  0  0  0
 12 17  1  0  0  0  0
 13 18  1  0  0  0  0
M  CHG  1  12   1
M  END
> <ref_mols>
x2358_0

> <original SMILES>
NCCC1=CNC2=CC=C(O)C=C21

> <Chemgauss4>
-8.063527

> <ref_pdb>
x0678_0

$$$$
x2364
  -OEChem-05172015543D

 18 19  0     0  0  0  0  0  0999 V2000
   13.5019   -1.2261   21.8000 C   0  0  0  0  0  0  0  0  0  0  0  0
   14.1393   -1.0893   23.0365 C   0  0  0  0  0  0  0  0  0  0  0  0
   12.1385   -0.1343   24.0274 C   0  0  0  0  0  0  0  0  0  0  0  0
   10.0913   -0.3038   21.0040 C   0  0  0  0  0  0  0  0  0  0  0  0
   11.4752   -0.2624   22.7909 C   0  0  0  0  0  0  0  0  0  0  0  0
   10.1645    0.0485   22.3320 C   0  0  0  0  0  0  0  0  0  0  0  0
   12.1708   -0.8042   21.7079 C   0  0  0  0  0  0  0  0  0  0  0  0
   13.4700   -0.5521   24.1344 C   0  0  0  0  0  0  0  0  0  0  0  0
    9.0715    0.6412   23.1287 C   0  0  0  0  0  0  0  0  0  0  0  0
    8.3871   -0.3302   24.1011 C   0  0  0  0  0  0  0  0  0  0  0  0
   11.3061   -0.8173   20.6367 N   0  0  0  0  0  0  0  0  0  0  0  0
    7.7485   -1.4384   23.3490 N   0  3  0  0  0  0  0  0  0  0  0  0
   14.1178   -0.4321   25.3276 O   0  0  0  0  0  0  0  0  0  0  0  0
   11.5361   -1.1566   19.7129 H   0  0  0  0  0  0  0  0  0  0  0  0
    8.3808   -2.2422   23.2732 H   0  0  0  0  0  0  0  0  0  0  0  0
    7.5001   -1.1409   22.3993 H   0  0  0  0  0  0  0  0  0  0  0  0
    6.8916   -1.7528   23.8164 H   0  0  0  0  0  0  0  0  0  0  0  0
   13.5266   -0.0444   25.9915 H   0  0  0  0  0  0  0  0  0  0  0  0
  1  2  2  0  0  0  0
  1  7  1  0  0  0  0
  2  8  1  0  0  0  0
  3  5  1  0  0  0  0
  3  8  2  0  0  0  0
  4  6  2  0  0  0  0
  4 11  1  0  0  0  0
  5  6  1  0  0  0  0
  5  7  2  0  0  0  0
  6  9  1  0  0  0  0
  7 11  1  0  0  0  0
  8 13  1  0  0  0  0
  9 10  1  0  0  0  0
 10 12  1  0  0  0  0
 11 14  1  0  0  0  0
 12 15  1  0  0  0  0
 12 16  1  0  0  0  0
 12 17  1  0  0  0  0
 13 18  1  0  0  0  0
M  CHG  1  12   1
M  END
> <ref_mols>
x2364_0

> <original SMILES>
NCCC1=CNC2=CC=C(O)C=C21

> <Chemgauss4>
-8.063527

> <ref_pdb>
x0678_0

$$$$
x2464
  -OEChem-05172015543D

 18 19  0     0  0  0  0  0  0999 V2000
   13.5019   -1.2261   21.8000 C   0  0  0  0  0  0  0  0  0  0  0  0
   14.1393   -1.0893   23.0365 C   0  0  0  0  0  0  0  0  0  0  0  0
   12.1385   -0.1343   24.0274 C   0  0  0  0  0  0  0  0  0  0  0  0
   10.0913   -0.3038   21.0040 C   0  0  0  0  0  0  0  0  0  0  0  0
   11.4752   -0.2624   22.7909 C   0  0  0  0  0  0  0  0  0  0  0  0
   10.1645    0.0485   22.3320 C   0  0  0  0  0  0  0  0  0  0  0  0
   12.1708   -0.8042   21.7079 C   0  0  0  0  0  0  0  0  0  0  0  0
   13.4700   -0.5521   24.1344 C   0  0  0  0  0  0  0  0  0  0  0  0
    9.0715    0.6412   23.1287 C   0  0  0  0  0  0  0  0  0  0  0  0
    8.3871   -0.3302   24.1011 C   0  0  0  0  0  0  0  0  0  0  0  0
   11.3061   -0.8173   20.6367 N   0  0  0  0  0  0  0  0  0  0  0  0
    7.7485   -1.4384   23.3490 N   0  3  0  0  0  0  0  0  0  0  0  0
   14.1178   -0.4321   25.3276 O   0  0  0  0  0  0  0  0  0  0  0  0
   11.5361   -1.1566   19.7129 H   0  0  0  0  0  0  0  0  0  0  0  0
    8.3808   -2.2422   23.2732 H   0  0  0  0  0  0  0  0  0  0  0  0
    7.5001   -1.1409   22.3993 H   0  0  0  0  0  0  0  0  0  0  0  0
    6.8916   -1.7528   23.8164 H   0  0  0  0  0  0  0  0  0  0  0  0
   13.5266   -0.0444   25.9915 H   0  0  0  0  0  0  0  0  0  0  0  0
  1  2  2  0  0  0  0
  1  7  1  0  0  0  0
  2  8  1  0  0  0  0
  3  5  1  0  0  0  0
  3  8  2  0  0  0  0
  4  6  2  0  0  0  0
  4 11  1  0  0  0  0
  5  6  1  0  0  0  0
  5  7  2  0  0  0  0
  6  9  1  0  0  0  0
  7 11  1  0  0  0  0
  8 13  1  0  0  0  0
  9 10  1  0  0  0  0
 10 12  1  0  0  0  0
 11 14  1  0  0  0  0
 12 15  1  0  0  0  0
 12 16  1  0  0  0  0
 12 17  1  0  0  0  0
 13 18  1  0  0  0  0
M  CHG  1  12   1
M  END
> <ref_mols>
x2464_0

> <original SMILES>
NCCC1=CNC2=CC=C(O)C=C21

> <Chemgauss4>
-8.063527

> <ref_pdb>
x0678_0

$$$$
x2818
  -OEChem-05172015543D

 27 30  0     0  0  0  0  0  0999 V2000
   13.9725    0.7262   22.7705 C   0  0  0  0  0  0  0  0  0  0  0  0
   13.5009   -0.4041   22.1031 C   0  0  0  0  0  0  0  0  0  0  0  0
   13.1132    1.4654   23.5835 C   0  0  0  0  0  0  0  0  0  0  0  0
   12.1699   -0.7953   22.2486 C   0  0  0  0  0  0  0  0  0  0  0  0
    7.3109   -0.5408   21.2577 C   0  0  0  0  0  0  0  0  0  0  0  0
    6.3124   -2.6605   21.6655 C   0  0  0  0  0  0  0  0  0  0  0  0
    5.7047   -1.4912   19.7835 C   0  0  0  0  0  0  0  0  0  0  0  0
    7.1925   -1.6674   22.0640 C   0  0  0  0  0  0  0  0  0  0  0  0
   11.7822    1.0742   23.7290 C   0  0  0  0  0  0  0  0  0  0  0  0
   11.3106   -0.0562   23.0615 C   0  0  0  0  0  0  0  0  0  0  0  0
    6.5562   -0.4432   20.0940 C   0  0  0  0  0  0  0  0  0  0  0  0
   11.0062    3.1565   24.8102 C   0  0  0  0  0  0  0  0  0  0  0  0
    9.4740   -1.7734   23.1134 C   0  0  0  0  0  0  0  0  0  0  0  0
    7.4679   -2.6757   24.4199 C   0  0  0  0  0  0  0  0  0  0  0  0
    7.4617   -1.1903   24.5824 C   0  0  0  0  0  0  0  0  0  0  0  0
    7.9783   -1.7999   23.3048 C   0  0  0  0  0  0  0  0  0  0  0  0
   11.4812    5.4904   24.0268 C   0  0  0  0  0  0  0  0  0  0  0  0
   12.0157    4.0701   24.2472 C   0  0  0  0  0  0  0  0  0  0  0  0
    5.5627   -2.6013   20.5420 N   0  0  0  0  0  0  0  0  0  0  0  0
   10.0267    3.4589   25.6308 N   0  0  0  0  0  0  0  0  0  0  0  0
    9.3607    2.2772   25.8654 N   0  0  0  0  0  0  0  0  0  0  0  0
    9.9212    1.2738   25.2013 N   0  0  0  0  0  0  0  0  0  0  0  0
   10.9496    1.8259   24.5426 N   0  0  0  0  0  0  0  0  0  0  0  0
    9.9812   -0.4715   23.1891 N   0  0  0  0  0  0  0  0  0  0  0  0
   10.1013   -2.8102   22.9224 O   0  0  0  0  0  0  0  0  0  0  0  0
    6.6895    1.0658   18.9750 Br  0  0  0  0  0  0  0  0  0  0  0  0
    9.2909    0.2668   23.3598 H   0  0  0  0  0  0  0  0  0  0  0  0
  1  2  1  0  0  0  0
  1  3  2  0  0  0  0
  2  4  2  0  0  0  0
  3  9  1  0  0  0  0
  4 10  1  0  0  0  0
  5  8  2  0  0  0  0
  5 11  1  0  0  0  0
  6  8  1  0  0  0  0
  6 19  2  0  0  0  0
  7 11  2  0  0  0  0
  7 19  1  0  0  0  0
  8 16  1  0  0  0  0
  9 10  2  0  0  0  0
  9 23  1  0  0  0  0
 10 24  1  0  0  0  0
 11 26  1  0  0  0  0
 12 18  1  0  0  0  0
 12 20  2  0  0  0  0
 12 23  1  0  0  0  0
 13 16  1  0  0  0  0
 13 24  1  0  0  0  0
 13 25  2  0  0  0  0
 14 15  1  0  0  0  0
 14 16  1  0  0  0  0
 15 16  1  0  0  0  0
 17 18  1  0  0  0  0
 20 21  1  0  0  0  0
 21 22  2  0  0  0  0
 22 23  1  0  0  0  0
 24 27  1  0  0  0  0
M  END
> <ref_mols>
x2818_0

> <original SMILES>
CCC1=NN=NN1C=2C=CC=CC2NC(=O)C3(CC3)C=4C=NC=C(Br)C4

> <Chemgauss4>
-8.060421

> <ref_pdb>
x0830_0

$$$$
x0319
  -OEChem-05172015543D

 18 19  0     0  0  0  0  0  0999 V2000
    7.6005   -6.1442   22.4614 C   0  0  0  0  0  0  0  0  0  0  0  0
    6.7358   -5.5073   21.5714 C   0  0  0  0  0  0  0  0  0  0  0  0
    8.5794   -5.4086   23.1298 C   0  0  0  0  0  0  0  0  0  0  0  0
    6.8499   -4.1349   21.3495 C   0  0  0  0  0  0  0  0  0  0  0  0
   11.2458   -1.4193   25.3093 C   0  0  0  0  0  0  0  0  0  0  0  0
   12.3619   -0.7414   25.8793 C   0  0  0  0  0  0  0  0  0  0  0  0
    8.6935   -4.0363   22.9079 C   0  0  0  0  0  0  0  0  0  0  0  0
    7.8287   -3.3994   22.0178 C   0  0  0  0  0  0  0  0  0  0  0  0
   11.5113   -2.7514   25.0801 C   0  0  0  0  0  0  0  0  0  0  0  0
   13.4380   -1.5814   26.0644 C   0  0  0  0  0  0  0  0  0  0  0  0
   10.6308   -3.7850   24.5093 C   0  0  0  0  0  0  0  0  0  0  0  0
   14.7680   -1.2625   26.6267 C   0  0  0  0  0  0  0  0  0  0  0  0
    8.7827   -1.6446   20.7270 C   0  0  0  0  0  0  0  0  0  0  0  0
    9.6791   -3.3134   23.5840 N   0  0  0  0  0  0  0  0  0  0  0  0
   10.7225   -4.9591   24.8613 O   0  0  0  0  0  0  0  0  0  0  0  0
    7.9234   -2.0594   21.7865 O   0  0  0  0  0  0  0  0  0  0  0  0
   13.1008   -3.1800   25.5516 S   0  0  0  0  0  0  0  0  0  0  0  0
    9.7145   -2.3087   23.3803 H   0  0  0  0  0  0  0  0  0  0  0  0
  1  2  1  0  0  0  0
  1  3  2  0  0  0  0
  2  4  2  0  0  0  0
  3  7  1  0  0  0  0
  4  8  1  0  0  0  0
  5  6  1  0  0  0  0
  5  9  2  0  0  0  0
  6 10  2  0  0  0  0
  7  8  2  0  0  0  0
  7 14  1  0  0  0  0
  8 16  1  0  0  0  0
  9 11  1  0  0  0  0
  9 17  1  0  0  0  0
 10 12  1  0  0  0  0
 10 17  1  0  0  0  0
 11 14  1  0  0  0  0
 11 15  2  0  0  0  0
 13 16  1  0  0  0  0
 14 18  1  0  0  0  0
M  END
> <ref_mols>
x0319_0

> <original SMILES>
COC=1C=CC=CC1NC(=O)C2=CC=C(C)S2

> <Chemgauss4>
-8.056968

> <ref_pdb>
x0749_0

$$$$
x0843
  -OEChem-05172015543D

 15 15  0     1  0  0  0  0  0999 V2000
   13.4217    1.5314   22.2861 C   0  0  0  0  0  0  0  0  0  0  0  0
   12.0583    3.1513   23.5954 C   0  0  0  0  0  0  0  0  0  0  0  0
   13.5058    3.9919   21.9070 C   0  0  0  0  0  0  0  0  0  0  0  0
   12.6315    2.7977   22.2314 C   0  0  1  0  0  0  0  0  0  0  0  0
   11.7697    4.6457   23.5058 C   0  0  2  0  0  0  0  0  0  0  0  0
   10.3617    4.9622   23.0238 C   0  0  0  0  0  0  0  0  0  0  0  0
   14.3473   -0.7020   23.7867 C   0  0  0  0  0  0  0  0  0  0  0  0
   12.1722   -1.7903   23.1592 C   0  0  0  0  0  0  0  0  0  0  0  0
   13.8081   -1.1405   21.3677 C   0  0  0  0  0  0  0  0  0  0  0  0
   13.2379   -0.7805   22.7389 C   0  0  0  0  0  0  0  0  0  0  0  0
   12.7611    5.1564   22.4892 N   0  3  0  0  0  0  0  0  0  0  0  0
   14.6178    1.4590   22.0387 O   0  0  0  0  0  0  0  0  0  0  0  0
   12.6061    0.5004   22.6476 O   0  0  0  0  0  0  0  0  0  0  0  0
   13.4066    5.8264   22.9292 H   0  0  0  0  0  0  0  0  0  0  0  0
   12.2813    5.6698   21.7370 H   0  0  0  0  0  0  0  0  0  0  0  0
  1  4  1  0  0  0  0
  1 12  2  0  0  0  0
  1 13  1  0  0  0  0
  2  4  1  0  0  0  0
  2  5  1  0  0  0  0
  3  4  1  0  0  0  0
  3 11  1  0  0  0  0
  5  6  1  0  0  0  0
  5 11  1  0  0  0  0
  7 10  1  0  0  0  0
  8 10  1  0  0  0  0
  9 10  1  0  0  0  0
 10 13  1  0  0  0  0
 11 14  1  0  0  0  0
 11 15  1  0  0  0  0
M  CHG  1  11   1
M  END
> <ref_mols>
x0843_0

> <original SMILES>
O=C(OC(C)(C)C)[C@H]1C[C@H](C)NC1

> <Chemgauss4>
-8.056814

> <ref_pdb>
x0195_0

$$$$
x0923
  -OEChem-05172015543D

 18 19  0     1  0  0  0  0  0999 V2000
   13.7554    3.1069   21.8300 C   0  0  0  0  0  0  0  0  0  0  0  0
   13.7566    1.8073   22.3365 C   0  0  0  0  0  0  0  0  0  0  0  0
   12.8360    4.0408   22.3077 C   0  0  0  0  0  0  0  0  0  0  0  0
   11.9189    2.3753   23.7984 C   0  0  0  0  0  0  0  0  0  0  0  0
   12.8384    1.4415   23.3207 C   0  0  0  0  0  0  0  0  0  0  0  0
   11.9177    3.6750   23.2919 C   0  0  0  0  0  0  0  0  0  0  0  0
   14.2524   -0.6077   23.9308 C   0  0  0  0  0  0  0  0  0  0  0  0
   14.4190   -1.7929   22.9793 C   0  0  0  0  0  0  0  0  0  0  0  0
   12.3852   -1.4179   21.7942 C   0  0  0  0  0  0  0  0  0  0  0  0
   12.8395    0.0207   23.8740 C   0  0  2  0  0  0  0  0  0  0  0  0
   11.8770   -0.9434   23.1557 C   0  0  1  0  0  0  0  0  0  0  0  0
   10.1107    4.1455   24.7647 C   0  0  0  0  0  0  0  0  0  0  0  0
   10.5190   -0.3630   23.0045 N   0  3  0  0  0  0  0  0  0  0  0  0
   13.8100   -1.5186   21.7245 O   0  0  0  0  0  0  0  0  0  0  0  0
   11.0209    4.5866   23.7585 O   0  0  0  0  0  0  0  0  0  0  0  0
   10.0589   -0.2972   23.9135 H   0  0  0  0  0  0  0  0  0  0  0  0
    9.9501   -0.9497   22.3922 H   0  0  0  0  0  0  0  0  0  0  0  0
   10.5770    0.5724   22.5991 H   0  0  0  0  0  0  0  0  0  0  0  0
  1  2  2  0  0  0  0
  1  3  1  0  0  0  0
  2  5  1  0  0  0  0
  3  6  2  0  0  0  0
  4  5  2  0  0  0  0
  4  6  1  0  0  0  0
  5 10  1  0  0  0  0
  6 15  1  0  0  0  0
  7  8  1  0  0  0  0
  7 10  1  0  0  0  0
  8 14  1  0  0  0  0
  9 11  1  0  0  0  0
  9 14  1  0  0  0  0
 10 11  1  0  0  0  0
 11 13  1  0  0  0  0
 12 15  1  0  0  0  0
 13 16  1  0  0  0  0
 13 17  1  0  0  0  0
 13 18  1  0  0  0  0
M  CHG  1  13   1
M  END
> <ref_mols>
x0923_0

> <original SMILES>
N[C@H]1COCC[C@H]1C2=CC=CC(OC)=C2

> <Chemgauss4>
-8.055153

> <ref_pdb>
x0195_0

$$$$
x0376
  -OEChem-05172015543D

 18 20  0     0  0  0  0  0  0999 V2000
    9.8388   -3.0768   22.7246 C   0  0  0  0  0  0  0  0  0  0  0  0
    8.7625   -3.2862   21.8591 C   0  0  0  0  0  0  0  0  0  0  0  0
    9.1285   -4.9363   24.1267 C   0  0  0  0  0  0  0  0  0  0  0  0
   10.0208   -3.8972   23.8518 C   0  0  0  0  0  0  0  0  0  0  0  0
    7.8960   -4.3189   22.1530 C   0  0  0  0  0  0  0  0  0  0  0  0
    8.0741   -5.1219   23.2563 C   0  0  0  0  0  0  0  0  0  0  0  0
   11.1491   -3.6602   24.7401 C   0  0  0  0  0  0  0  0  0  0  0  0
   12.0657    0.3703   24.4891 C   0  0  0  0  0  0  0  0  0  0  0  0
   13.2339   -0.5799   24.2254 C   0  0  0  0  0  0  0  0  0  0  0  0
   10.7023   -0.2580   24.1828 C   0  0  0  0  0  0  0  0  0  0  0  0
   13.5627   -1.5652   25.3495 C   0  0  0  0  0  0  0  0  0  0  0  0
   10.2471   -1.3122   25.1887 C   0  0  0  0  0  0  0  0  0  0  0  0
   12.3862   -2.0797   26.1726 C   0  0  0  0  0  0  0  0  0  0  0  0
    6.3059   -5.7857   22.2005 C   0  0  0  0  0  0  0  0  0  0  0  0
   11.2176   -2.4009   25.3590 N   0  0  0  0  0  0  0  0  0  0  0  0
   11.9829   -4.5492   24.9075 O   0  0  0  0  0  0  0  0  0  0  0  0
    6.7990   -4.6713   21.4289 O   0  0  0  0  0  0  0  0  0  0  0  0
    7.1108   -6.0774   23.3613 O   0  0  0  0  0  0  0  0  0  0  0  0
  1  2  2  0  0  0  0
  1  4  1  0  0  0  0
  2  5  1  0  0  0  0
  3  4  2  0  0  0  0
  3  6  1  0  0  0  0
  4  7  1  0  0  0  0
  5  6  2  0  0  0  0
  5 17  1  0  0  0  0
  6 18  1  0  0  0  0
  7 15  1  0  0  0  0
  7 16  2  0  0  0  0
  8  9  1  0  0  0  0
  8 10  1  0  0  0  0
  9 11  1  0  0  0  0
 10 12  1  0  0  0  0
 11 13  1  0  0  0  0
 12 15  1  0  0  0  0
 13 15  1  0  0  0  0
 14 17  1  0  0  0  0
 14 18  1  0  0  0  0
M  END
> <ref_mols>
x0376_0

> <original SMILES>
O=C(N1CCCCCC1)C=2C=CC=3OCOC3C2

> <Chemgauss4>
-8.053423

> <ref_pdb>
x0749_0

$$$$
x0726
  -OEChem-05172015543D

 17 18  0     1  0  0  0  0  0999 V2000
    6.5116   -4.7741   21.6793 C   0  0  0  0  0  0  0  0  0  0  0  0
   10.2064   -1.8237   24.9422 C   0  0  0  0  0  0  0  0  0  0  0  0
    8.4905   -5.4983   23.0990 C   0  0  0  0  0  0  0  0  0  0  0  0
    8.7076   -3.6561   21.4793 C   0  0  0  0  0  0  0  0  0  0  0  0
    9.2889   -4.6703   24.1075 C   0  0  0  0  0  0  0  0  0  0  0  0
    9.4958   -2.8615   22.5200 C   0  0  0  0  0  0  0  0  0  0  0  0
   11.2031   -1.0154   25.7646 C   0  0  0  0  0  0  0  0  0  0  0  0
   12.2576   -2.4255   23.7620 C   0  0  0  0  0  0  0  0  0  0  0  0
   10.9890   -3.0135   24.3790 C   0  0  2  0  0  0  0  0  0  0  0  0
    5.7155   -5.9027   22.2847 C   0  0  0  0  0  0  0  0  0  0  0  0
    7.8290   -4.6371   22.1144 N   0  0  0  0  0  0  0  0  0  0  0  0
   10.2236   -3.7648   23.4233 N   0  0  0  0  0  0  0  0  0  0  0  0
    5.9767   -4.0355   20.8485 O   0  0  0  0  0  0  0  0  0  0  0  0
   13.7787   -1.5688   25.7403 O   0  0  0  0  0  0  0  0  0  0  0  0
   12.8783    0.1166   24.0710 O   0  0  0  0  0  0  0  0  0  0  0  0
   12.7374   -1.0941   24.8530 S   0  0  0  0  0  0  0  0  0  0  0  0
    4.9639   -5.2636   23.7423 Cl  0  0  0  0  0  0  0  0  0  0  0  0
  1 10  1  0  0  0  0
  1 11  1  0  0  0  0
  1 13  2  0  0  0  0
  2  7  1  0  0  0  0
  2  9  1  0  0  0  0
  3  5  1  0  0  0  0
  3 11  1  0  0  0  0
  4  6  1  0  0  0  0
  4 11  1  0  0  0  0
  5 12  1  0  0  0  0
  6 12  1  0  0  0  0
  7 16  1  0  0  0  0
  8  9  1  0  0  0  0
  8 16  1  0  0  0  0
  9 12  1  0  0  0  0
 10 17  1  0  0  0  0
 14 16  2  0  0  0  0
 15 16  2  0  0  0  0
M  END
> <ref_mols>
x0726_0

> <original SMILES>
ClCC(=O)N1CCN(CC1)C2CCS(=O)(=O)C2

> <Chemgauss4>
-8.041692

> <ref_pdb>
x0749_0

> <CYS145-warhead dist minimum (A)>
13.3980665

> <CYS145-warhead dist mean (A)>
17.961412

> <CYS145-warhead dist stddev (A)>
1.3701196

$$$$
x0800
  -OEChem-05172015543D

 17 18  0     1  0  0  0  0  0999 V2000
    6.5116   -4.7741   21.6793 C   0  0  0  0  0  0  0  0  0  0  0  0
   10.2064   -1.8237   24.9422 C   0  0  0  0  0  0  0  0  0  0  0  0
    8.4905   -5.4983   23.0990 C   0  0  0  0  0  0  0  0  0  0  0  0
    8.7076   -3.6561   21.4793 C   0  0  0  0  0  0  0  0  0  0  0  0
    9.2889   -4.6703   24.1075 C   0  0  0  0  0  0  0  0  0  0  0  0
    9.4958   -2.8615   22.5200 C   0  0  0  0  0  0  0  0  0  0  0  0
   11.2031   -1.0154   25.7646 C   0  0  0  0  0  0  0  0  0  0  0  0
   12.2576   -2.4255   23.7620 C   0  0  0  0  0  0  0  0  0  0  0  0
   10.9890   -3.0135   24.3790 C   0  0  2  0  0  0  0  0  0  0  0  0
    5.7155   -5.9027   22.2847 C   0  0  0  0  0  0  0  0  0  0  0  0
    7.8290   -4.6371   22.1144 N   0  0  0  0  0  0  0  0  0  0  0  0
   10.2236   -3.7648   23.4233 N   0  0  0  0  0  0  0  0  0  0  0  0
    5.9767   -4.0355   20.8485 O   0  0  0  0  0  0  0  0  0  0  0  0
   13.7787   -1.5688   25.7403 O   0  0  0  0  0  0  0  0  0  0  0  0
   12.8783    0.1166   24.0710 O   0  0  0  0  0  0  0  0  0  0  0  0
   12.7374   -1.0941   24.8530 S   0  0  0  0  0  0  0  0  0  0  0  0
    4.9639   -5.2636   23.7423 Cl  0  0  0  0  0  0  0  0  0  0  0  0
  1 10  1  0  0  0  0
  1 11  1  0  0  0  0
  1 13  2  0  0  0  0
  2  7  1  0  0  0  0
  2  9  1  0  0  0  0
  3  5  1  0  0  0  0
  3 11  1  0  0  0  0
  4  6  1  0  0  0  0
  4 11  1  0  0  0  0
  5 12  1  0  0  0  0
  6 12  1  0  0  0  0
  7 16  1  0  0  0  0
  8  9  1  0  0  0  0
  8 16  1  0  0  0  0
  9 12  1  0  0  0  0
 10 17  1  0  0  0  0
 14 16  2  0  0  0  0
 15 16  2  0  0  0  0
M  END
> <ref_mols>
x0800_0

> <original SMILES>
ClCC(=O)N1CCN(CC1)C2CCS(=O)(=O)C2

> <Chemgauss4>
-8.041692

> <ref_pdb>
x0749_0

$$$$
x1452
  -OEChem-05172015543D

 17 18  0     1  0  0  0  0  0999 V2000
    6.5116   -4.7741   21.6793 C   0  0  0  0  0  0  0  0  0  0  0  0
   10.2064   -1.8237   24.9422 C   0  0  0  0  0  0  0  0  0  0  0  0
    8.4905   -5.4983   23.0990 C   0  0  0  0  0  0  0  0  0  0  0  0
    8.7076   -3.6561   21.4793 C   0  0  0  0  0  0  0  0  0  0  0  0
    9.2889   -4.6703   24.1075 C   0  0  0  0  0  0  0  0  0  0  0  0
    9.4958   -2.8615   22.5200 C   0  0  0  0  0  0  0  0  0  0  0  0
   11.2031   -1.0154   25.7646 C   0  0  0  0  0  0  0  0  0  0  0  0
   12.2576   -2.4255   23.7620 C   0  0  0  0  0  0  0  0  0  0  0  0
   10.9890   -3.0135   24.3790 C   0  0  2  0  0  0  0  0  0  0  0  0
    5.7155   -5.9027   22.2847 C   0  0  0  0  0  0  0  0  0  0  0  0
    7.8290   -4.6371   22.1144 N   0  0  0  0  0  0  0  0  0  0  0  0
   10.2236   -3.7648   23.4233 N   0  0  0  0  0  0  0  0  0  0  0  0
    5.9767   -4.0355   20.8485 O   0  0  0  0  0  0  0  0  0  0  0  0
   13.7787   -1.5688   25.7403 O   0  0  0  0  0  0  0  0  0  0  0  0
   12.8783    0.1166   24.0710 O   0  0  0  0  0  0  0  0  0  0  0  0
   12.7374   -1.0941   24.8530 S   0  0  0  0  0  0  0  0  0  0  0  0
    4.9639   -5.2636   23.7423 Cl  0  0  0  0  0  0  0  0  0  0  0  0
  1 10  1  0  0  0  0
  1 11  1  0  0  0  0
  1 13  2  0  0  0  0
  2  7  1  0  0  0  0
  2  9  1  0  0  0  0
  3  5  1  0  0  0  0
  3 11  1  0  0  0  0
  4  6  1  0  0  0  0
  4 11  1  0  0  0  0
  5 12  1  0  0  0  0
  6 12  1  0  0  0  0
  7 16  1  0  0  0  0
  8  9  1  0  0  0  0
  8 16  1  0  0  0  0
  9 12  1  0  0  0  0
 10 17  1  0  0  0  0
 14 16  2  0  0  0  0
 15 16  2  0  0  0  0
M  END
> <ref_mols>
x1452_0

> <original SMILES>
ClCC(=O)N1CCN(CC1)C2CCS(=O)(=O)C2

> <Chemgauss4>
-8.041692

> <ref_pdb>
x0749_0

$$$$
x0114
  -OEChem-05172015543D

 16 17  0     0  0  0  0  0  0999 V2000
    7.0246    0.6783   19.4344 C   0  0  0  0  0  0  0  0  0  0  0  0
    8.8563   -0.1480   19.9261 C   0  0  0  0  0  0  0  0  0  0  0  0
   10.2276   -0.9973   21.8600 C   0  0  0  0  0  0  0  0  0  0  0  0
   13.5843   -1.1162   24.4743 C   0  0  0  0  0  0  0  0  0  0  0  0
   14.4636   -1.7576   23.4010 C   0  0  0  0  0  0  0  0  0  0  0  0
   12.7317   -0.0735   23.7574 C   0  0  0  0  0  0  0  0  0  0  0  0
   14.0946   -1.0769   22.0862 C   0  0  0  0  0  0  0  0  0  0  0  0
   12.6837   -0.5337   22.3019 C   0  0  0  0  0  0  0  0  0  0  0  0
    5.6660    1.2127   19.5747 C   0  0  0  0  0  0  0  0  0  0  0  0
   11.6115   -1.5951   22.0644 C   0  0  0  0  0  0  0  0  0  0  0  0
    7.7412    0.2229   20.5027 N   0  0  0  0  0  0  0  0  0  0  0  0
    7.6381    0.6046   18.2495 N   0  0  0  0  0  0  0  0  0  0  0  0
   10.0141   -0.7098   20.5149 N   0  0  0  0  0  0  0  0  0  0  0  0
    9.4518   -0.8184   22.7931 O   0  0  0  0  0  0  0  0  0  0  0  0
    8.8785    0.0453   18.5813 O   0  0  0  0  0  0  0  0  0  0  0  0
   10.7707   -0.9238   19.8684 H   0  0  0  0  0  0  0  0  0  0  0  0
  1  9  1  0  0  0  0
  1 11  1  0  0  0  0
  1 12  2  0  0  0  0
  2 11  2  0  0  0  0
  2 13  1  0  0  0  0
  2 15  1  0  0  0  0
  3 10  1  0  0  0  0
  3 13  1  0  0  0  0
  3 14  2  0  0  0  0
  4  5  1  0  0  0  0
  4  6  1  0  0  0  0
  5  7  1  0  0  0  0
  6  8  1  0  0  0  0
  7  8  1  0  0  0  0
  8 10  1  0  0  0  0
 12 15  1  0  0  0  0
 13 16  1  0  0  0  0
M  END
> <ref_mols>
x0114_0

> <original SMILES>
CC1=NOC(NC(=O)CC2CCCC2)=N1

> <Chemgauss4>
-8.040282

> <ref_pdb>
x0678_0

$$$$
x0385
  -OEChem-05172015543D

 16 17  0     1  0  0  0  0  0999 V2000
    4.9300    0.1082   19.6104 C   0  0  0  0  0  0  0  0  0  0  0  0
    5.9558   -0.4765   18.8140 C   0  0  0  0  0  0  0  0  0  0  0  0
    4.7252    1.4174   19.2320 C   0  0  0  0  0  0  0  0  0  0  0  0
    6.4380   -1.8754   18.9461 C   0  0  0  0  0  0  0  0  0  0  0  0
    7.1054   -6.1036   22.3431 C   0  0  0  0  0  0  0  0  0  0  0  0
    8.1890   -5.2121   21.7905 C   0  0  0  0  0  0  0  0  0  0  0  0
    6.0368   -5.9953   21.2762 C   0  0  0  0  0  0  0  0  0  0  0  0
    7.3722   -4.0881   21.1771 C   0  0  1  0  0  0  0  0  0  0  0  0
    3.7830    2.4257   19.7515 C   0  0  0  0  0  0  0  0  0  0  0  0
    8.0841   -3.3701   20.0471 C   0  0  0  0  0  0  0  0  0  0  0  0
    6.5186    0.2925   17.8849 N   0  0  0  0  0  0  0  0  0  0  0  0
    7.4962   -2.0871   19.8304 N   0  0  0  0  0  0  0  0  0  0  0  0
    5.9112   -2.7577   18.2733 O   0  0  0  0  0  0  0  0  0  0  0  0
    6.1639   -4.6928   20.6867 O   0  0  0  0  0  0  0  0  0  0  0  0
    5.8006    1.7899   17.9520 S   0  0  0  0  0  0  0  0  0  0  0  0
    7.9150   -1.2824   20.3029 H   0  0  0  0  0  0  0  0  0  0  0  0
  1  2  1  0  0  0  0
  1  3  2  0  0  0  0
  2  4  1  0  0  0  0
  2 11  2  0  0  0  0
  3  9  1  0  0  0  0
  3 15  1  0  0  0  0
  4 12  1  0  0  0  0
  4 13  2  0  0  0  0
  5  6  1  0  0  0  0
  5  7  1  0  0  0  0
  6  8  1  0  0  0  0
  7 14  1  0  0  0  0
  8 10  1  0  0  0  0
  8 14  1  0  0  0  0
 10 12  1  0  0  0  0
 11 15  1  0  0  0  0
 12 16  1  0  0  0  0
M  END
> <ref_mols>
x0385_0

> <original SMILES>
CC1=CC(=NS1)C(=O)NCC2CCCO2

> <Chemgauss4>
-8.040281

> <ref_pdb>
x0397_0

$$$$
x1129
  -OEChem-05172015543D

 16 17  0     1  0  0  0  0  0999 V2000
    4.9300    0.1082   19.6104 C   0  0  0  0  0  0  0  0  0  0  0  0
    5.9558   -0.4765   18.8140 C   0  0  0  0  0  0  0  0  0  0  0  0
    4.7252    1.4174   19.2320 C   0  0  0  0  0  0  0  0  0  0  0  0
    6.4380   -1.8754   18.9461 C   0  0  0  0  0  0  0  0  0  0  0  0
    7.1054   -6.1036   22.3431 C   0  0  0  0  0  0  0  0  0  0  0  0
    8.1890   -5.2121   21.7905 C   0  0  0  0  0  0  0  0  0  0  0  0
    6.0368   -5.9953   21.2762 C   0  0  0  0  0  0  0  0  0  0  0  0
    7.3722   -4.0881   21.1771 C   0  0  1  0  0  0  0  0  0  0  0  0
    3.7830    2.4257   19.7515 C   0  0  0  0  0  0  0  0  0  0  0  0
    8.0841   -3.3701   20.0471 C   0  0  0  0  0  0  0  0  0  0  0  0
    6.5186    0.2925   17.8849 N   0  0  0  0  0  0  0  0  0  0  0  0
    7.4962   -2.0871   19.8304 N   0  0  0  0  0  0  0  0  0  0  0  0
    5.9112   -2.7577   18.2733 O   0  0  0  0  0  0  0  0  0  0  0  0
    6.1639   -4.6928   20.6867 O   0  0  0  0  0  0  0  0  0  0  0  0
    5.8006    1.7899   17.9520 S   0  0  0  0  0  0  0  0  0  0  0  0
    7.9150   -1.2824   20.3029 H   0  0  0  0  0  0  0  0  0  0  0  0
  1  2  1  0  0  0  0
  1  3  2  0  0  0  0
  2  4  1  0  0  0  0
  2 11  2  0  0  0  0
  3  9  1  0  0  0  0
  3 15  1  0  0  0  0
  4 12  1  0  0  0  0
  4 13  2  0  0  0  0
  5  6  1  0  0  0  0
  5  7  1  0  0  0  0
  6  8  1  0  0  0  0
  7 14  1  0  0  0  0
  8 10  1  0  0  0  0
  8 14  1  0  0  0  0
 10 12  1  0  0  0  0
 11 15  1  0  0  0  0
 12 16  1  0  0  0  0
M  END
> <ref_mols>
x1129_0

> <original SMILES>
CC1=CC(=NS1)C(=O)NCC2CCCO2

> <Chemgauss4>
-8.040281

> <ref_pdb>
x0397_0

$$$$
x1196
  -OEChem-05172015543D

 15 15  0     1  0  0  0  0  0999 V2000
   10.2885   -4.8405   25.0352 C   0  0  0  0  0  0  0  0  0  0  0  0
    9.8318   -3.2209   23.3016 C   0  0  0  0  0  0  0  0  0  0  0  0
   11.2547   -3.9911   25.5742 C   0  0  0  0  0  0  0  0  0  0  0  0
   10.7979   -2.3714   23.8407 C   0  0  0  0  0  0  0  0  0  0  0  0
    9.5771   -4.4554   23.8988 C   0  0  0  0  0  0  0  0  0  0  0  0
   11.5094   -2.7565   24.9770 C   0  0  0  0  0  0  0  0  0  0  0  0
    6.4170   -5.6534   22.0070 C   0  0  0  0  0  0  0  0  0  0  0  0
    6.6327   -3.6953   23.5584 C   0  0  0  0  0  0  0  0  0  0  0  0
    8.5320   -5.3743   23.3157 C   0  0  0  0  0  0  0  0  0  0  0  0
    7.3810   -4.6330   22.6084 C   0  0  1  0  0  0  0  0  0  0  0  0
    5.8384   -6.4743   22.9516 N   0  0  0  0  0  0  0  0  0  0  0  0
    6.1720   -5.7296   20.8054 O   0  0  0  0  0  0  0  0  0  0  0  0
   12.8189   -1.6065   25.7077 Br  0  0  0  0  0  0  0  0  0  0  0  0
    6.0589   -6.3717   23.9367 H   0  0  0  0  0  0  0  0  0  0  0  0
    5.1733   -7.2008   22.7067 H   0  0  0  0  0  0  0  0  0  0  0  0
  1  3  2  0  0  0  0
  1  5  1  0  0  0  0
  2  4  1  0  0  0  0
  2  5  2  0  0  0  0
  3  6  1  0  0  0  0
  4  6  2  0  0  0  0
  5  9  1  0  0  0  0
  6 13  1  0  0  0  0
  7 10  1  0  0  0  0
  7 11  1  0  0  0  0
  7 12  2  0  0  0  0
  8 10  1  0  0  0  0
  9 10  1  0  0  0  0
 11 14  1  0  0  0  0
 11 15  1  0  0  0  0
M  END
> <ref_mols>
x1196_0

> <original SMILES>
CC(CC=1C=CC(Br)=CC1)C(=O)N

> <Chemgauss4>
-8.038245

> <ref_pdb>
x0749_0

$$$$
x0314
  -OEChem-05172015543D

 15 15  0     1  0  0  0  0  0999 V2000
   10.2885   -4.8405   25.0352 C   0  0  0  0  0  0  0  0  0  0  0  0
    9.8318   -3.2209   23.3016 C   0  0  0  0  0  0  0  0  0  0  0  0
   11.2547   -3.9911   25.5742 C   0  0  0  0  0  0  0  0  0  0  0  0
   10.7979   -2.3714   23.8407 C   0  0  0  0  0  0  0  0  0  0  0  0
    9.5771   -4.4554   23.8988 C   0  0  0  0  0  0  0  0  0  0  0  0
   11.5094   -2.7565   24.9770 C   0  0  0  0  0  0  0  0  0  0  0  0
    6.4170   -5.6534   22.0070 C   0  0  0  0  0  0  0  0  0  0  0  0
    6.6327   -3.6953   23.5584 C   0  0  0  0  0  0  0  0  0  0  0  0
    8.5320   -5.3743   23.3157 C   0  0  0  0  0  0  0  0  0  0  0  0
    7.3810   -4.6330   22.6084 C   0  0  1  0  0  0  0  0  0  0  0  0
    5.8384   -6.4743   22.9516 N   0  0  0  0  0  0  0  0  0  0  0  0
    6.1720   -5.7296   20.8054 O   0  0  0  0  0  0  0  0  0  0  0  0
   12.8189   -1.6065   25.7077 Br  0  0  0  0  0  0  0  0  0  0  0  0
    6.0589   -6.3717   23.9367 H   0  0  0  0  0  0  0  0  0  0  0  0
    5.1733   -7.2008   22.7067 H   0  0  0  0  0  0  0  0  0  0  0  0
  1  3  2  0  0  0  0
  1  5  1  0  0  0  0
  2  4  1  0  0  0  0
  2  5  2  0  0  0  0
  3  6  1  0  0  0  0
  4  6  2  0  0  0  0
  5  9  1  0  0  0  0
  6 13  1  0  0  0  0
  7 10  1  0  0  0  0
  7 11  1  0  0  0  0
  7 12  2  0  0  0  0
  8 10  1  0  0  0  0
  9 10  1  0  0  0  0
 11 14  1  0  0  0  0
 11 15  1  0  0  0  0
M  END
> <ref_mols>
x0314_0

> <original SMILES>
CC(CC=1C=CC(Br)=CC1)C(=O)N

> <Chemgauss4>
-8.038245

> <ref_pdb>
x0749_0

$$$$
x0436
  -OEChem-05172015543D

 18 19  0     1  0  0  0  0  0999 V2000
   13.5648   -1.3647   22.7139 C   0  0  0  0  0  0  0  0  0  0  0  0
   13.6550    0.0383   22.8768 C   0  0  0  0  0  0  0  0  0  0  0  0
   12.2757   -1.7063   23.0507 C   0  0  0  0  0  0  0  0  0  0  0  0
   12.4145    0.4541   23.3013 C   0  0  0  0  0  0  0  0  0  0  0  0
   11.8981    1.7795   23.6347 C   0  0  0  0  0  0  0  0  0  0  0  0
   11.4884    4.8503   24.1016 C   0  0  0  0  0  0  0  0  0  0  0  0
   13.4268    5.0096   22.6028 C   0  0  0  0  0  0  0  0  0  0  0  0
   13.0034    2.8767   21.6031 C   0  0  0  0  0  0  0  0  0  0  0  0
   12.7410    4.1295   23.6491 C   0  0  2  0  0  0  0  0  0  0  0  0
   14.0201    4.0087   21.6173 C   0  0  2  0  0  0  0  0  0  0  0  0
   10.7332    6.8302   25.1472 C   0  0  0  0  0  0  0  0  0  0  0  0
   12.4580    2.8707   22.9626 N   0  0  0  0  0  0  0  0  0  0  0  0
   11.0155    1.9195   24.4838 O   0  0  0  0  0  0  0  0  0  0  0  0
   10.3558    4.4084   23.9631 O   0  0  0  0  0  0  0  0  0  0  0  0
   11.5679   -0.6033   23.4098 O   0  0  0  0  0  0  0  0  0  0  0  0
   15.2765    3.5330   22.0888 O   0  0  0  0  0  0  0  0  0  0  0  0
   11.8285    6.0408   24.6724 O   0  0  0  0  0  0  0  0  0  0  0  0
   15.6032    2.9044   21.4256 H   0  0  0  0  0  0  0  0  0  0  0  0
  1  2  1  0  0  0  0
  1  3  2  0  0  0  0
  2  4  2  0  0  0  0
  3 15  1  0  0  0  0
  4  5  1  0  0  0  0
  4 15  1  0  0  0  0
  5 12  1  0  0  0  0
  5 13  2  0  0  0  0
  6  9  1  0  0  0  0
  6 14  2  0  0  0  0
  6 17  1  0  0  0  0
  7  9  1  0  0  0  0
  7 10  1  0  0  0  0
  8 10  1  0  0  0  0
  8 12  1  0  0  0  0
  9 12  1  0  0  0  0
 10 16  1  0  0  0  0
 11 17  1  0  0  0  0
 16 18  1  0  0  0  0
M  END
> <ref_mols>
x0436_0

> <original SMILES>
COC(=O)[C@@H]1C[C@@H](O)CN1C(=O)C2=CC=CO2

> <Chemgauss4>
-8.037658

> <ref_pdb>
x0195_0

$$$$
x0223
  -OEChem-05172015543D

 14 14  0     0  0  0  0  0  0999 V2000
   10.6227   -4.0870   24.6966 C   0  0  0  0  0  0  0  0  0  0  0  0
    9.6449   -2.6185   23.0460 C   0  0  0  0  0  0  0  0  0  0  0  0
    9.7214   -5.0895   24.3386 C   0  0  0  0  0  0  0  0  0  0  0  0
    8.7436   -3.6210   22.6879 C   0  0  0  0  0  0  0  0  0  0  0  0
   10.5844   -2.8514   24.0503 C   0  0  0  0  0  0  0  0  0  0  0  0
    8.7819   -4.8566   23.3342 C   0  0  0  0  0  0  0  0  0  0  0  0
   11.5241   -1.8061   24.4233 C   0  0  0  0  0  0  0  0  0  0  0  0
    6.2031   -4.9779   21.5637 C   0  0  0  0  0  0  0  0  0  0  0  0
   12.9877   -2.1014   24.2676 C   0  0  0  0  0  0  0  0  0  0  0  0
    7.4485   -5.8468   21.6321 C   0  0  0  0  0  0  0  0  0  0  0  0
    5.6869   -4.8704   20.4156 O   0  5  0  0  0  0  0  0  0  0  0  0
   11.2102   -0.6976   24.8621 O   0  0  0  0  0  0  0  0  0  0  0  0
    5.8371   -4.4783   22.6642 O   0  0  0  0  0  0  0  0  0  0  0  0
    7.9022   -5.8346   22.9848 O   0  0  0  0  0  0  0  0  0  0  0  0
  1  3  2  0  0  0  0
  1  5  1  0  0  0  0
  2  4  1  0  0  0  0
  2  5  2  0  0  0  0
  3  6  1  0  0  0  0
  4  6  2  0  0  0  0
  5  7  1  0  0  0  0
  6 14  1  0  0  0  0
  7  9  1  0  0  0  0
  7 12  2  0  0  0  0
  8 10  1  0  0  0  0
  8 11  1  0  0  0  0
  8 13  2  0  0  0  0
 10 14  1  0  0  0  0
M  CHG  1  11  -1
M  END
> <ref_mols>
x0223_0

> <original SMILES>
CC(=O)C=1C=CC(OCC(=O)O)=CC1

> <Chemgauss4>
-8.036836

> <ref_pdb>
x0749_0

$$$$
x1267
  -OEChem-05172015543D

 14 14  0     0  0  0  0  0  0999 V2000
   14.4546   -1.3712   23.5471 C   0  0  0  0  0  0  0  0  0  0  0  0
   13.9566   -1.5925   22.2631 C   0  0  0  0  0  0  0  0  0  0  0  0
   13.6511   -0.7631   24.5117 C   0  0  0  0  0  0  0  0  0  0  0  0
   12.6551   -1.2056   21.9437 C   0  0  0  0  0  0  0  0  0  0  0  0
   12.3496   -0.3763   24.1922 C   0  0  0  0  0  0  0  0  0  0  0  0
   11.8515   -0.5975   22.9082 C   0  0  0  0  0  0  0  0  0  0  0  0
   10.4276    0.8557   21.4023 C   0  0  0  0  0  0  0  0  0  0  0  0
    9.7865    0.4752   23.8114 C   0  0  0  0  0  0  0  0  0  0  0  0
    9.4887   -1.3304   22.1312 C   0  0  0  0  0  0  0  0  0  0  0  0
   10.4181   -0.1709   22.5570 C   0  0  0  0  0  0  0  0  0  0  0  0
   11.1225    2.0155   21.6760 N   0  0  0  0  0  0  0  0  0  0  0  0
    9.8683    0.6600   20.3240 O   0  0  0  0  0  0  0  0  0  0  0  0
   11.5710    2.1301   22.5790 H   0  0  0  0  0  0  0  0  0  0  0  0
   11.1905    2.7552   20.9850 H   0  0  0  0  0  0  0  0  0  0  0  0
  1  2  1  0  0  0  0
  1  3  2  0  0  0  0
  2  4  2  0  0  0  0
  3  5  1  0  0  0  0
  4  6  1  0  0  0  0
  5  6  2  0  0  0  0
  6 10  1  0  0  0  0
  7 10  1  0  0  0  0
  7 11  1  0  0  0  0
  7 12  2  0  0  0  0
  8 10  1  0  0  0  0
  9 10  1  0  0  0  0
 11 13  1  0  0  0  0
 11 14  1  0  0  0  0
M  END
> <ref_mols>
x1267_0

> <original SMILES>
CC(C)(C(=O)N)C=1C=CC=CC1

> <Chemgauss4>
-8.031240

> <ref_pdb>
x0678_0

$$$$
x0268
  -OEChem-05172015543D

 14 14  0     0  0  0  0  0  0999 V2000
   14.4546   -1.3712   23.5471 C   0  0  0  0  0  0  0  0  0  0  0  0
   13.9566   -1.5925   22.2631 C   0  0  0  0  0  0  0  0  0  0  0  0
   13.6511   -0.7631   24.5117 C   0  0  0  0  0  0  0  0  0  0  0  0
   12.6551   -1.2056   21.9437 C   0  0  0  0  0  0  0  0  0  0  0  0
   12.3496   -0.3763   24.1922 C   0  0  0  0  0  0  0  0  0  0  0  0
   11.8515   -0.5975   22.9082 C   0  0  0  0  0  0  0  0  0  0  0  0
   10.4276    0.8557   21.4023 C   0  0  0  0  0  0  0  0  0  0  0  0
    9.7865    0.4752   23.8114 C   0  0  0  0  0  0  0  0  0  0  0  0
    9.4887   -1.3304   22.1312 C   0  0  0  0  0  0  0  0  0  0  0  0
   10.4181   -0.1709   22.5570 C   0  0  0  0  0  0  0  0  0  0  0  0
   11.1225    2.0155   21.6760 N   0  0  0  0  0  0  0  0  0  0  0  0
    9.8683    0.6600   20.3240 O   0  0  0  0  0  0  0  0  0  0  0  0
   11.5710    2.1301   22.5790 H   0  0  0  0  0  0  0  0  0  0  0  0
   11.1905    2.7552   20.9850 H   0  0  0  0  0  0  0  0  0  0  0  0
  1  2  1  0  0  0  0
  1  3  2  0  0  0  0
  2  4  2  0  0  0  0
  3  5  1  0  0  0  0
  4  6  1  0  0  0  0
  5  6  2  0  0  0  0
  6 10  1  0  0  0  0
  7 10  1  0  0  0  0
  7 11  1  0  0  0  0
  7 12  2  0  0  0  0
  8 10  1  0  0  0  0
  9 10  1  0  0  0  0
 11 13  1  0  0  0  0
 11 14  1  0  0  0  0
M  END
> <ref_mols>
x0268_0

> <original SMILES>
CC(C)(C(=O)N)C=1C=CC=CC1

> <Chemgauss4>
-8.031240

> <ref_pdb>
x0678_0

$$$$
x0419
  -OEChem-05172015543D

 20 21  0     0  0  0  0  0  0999 V2000
   12.3178   -0.6730   24.2551 C   0  0  0  0  0  0  0  0  0  0  0  0
   13.4442   -0.7228   25.0764 C   0  0  0  0  0  0  0  0  0  0  0  0
   11.4456   -1.7602   24.2008 C   0  0  0  0  0  0  0  0  0  0  0  0
   13.6984   -1.8599   25.8432 C   0  0  0  0  0  0  0  0  0  0  0  0
   12.8262   -2.9471   25.7889 C   0  0  0  0  0  0  0  0  0  0  0  0
   11.6998   -2.8973   24.9677 C   0  0  0  0  0  0  0  0  0  0  0  0
    9.6441   -4.0860   24.1310 C   0  0  0  0  0  0  0  0  0  0  0  0
    7.9606   -5.4763   22.0688 C   0  0  0  0  0  0  0  0  0  0  0  0
    6.6766   -4.5224   23.9722 C   0  0  0  0  0  0  0  0  0  0  0  0
    6.6348   -5.6599   21.3502 C   0  0  0  0  0  0  0  0  0  0  0  0
    5.4171   -4.7547   23.1550 C   0  0  0  0  0  0  0  0  0  0  0  0
   14.9116   -1.8870   26.7141 C   0  0  0  0  0  0  0  0  0  0  0  0
   13.1031   -4.1649   26.6137 C   0  0  0  0  0  0  0  0  0  0  0  0
    8.9761   -5.4244   24.3515 C   0  0  0  0  0  0  0  0  0  0  0  0
   10.8013   -3.9884   24.8976 N   0  0  0  0  0  0  0  0  0  0  0  0
    7.7078   -5.5452   23.5565 N   0  3  0  0  0  0  0  0  0  0  0  0
    9.1815   -3.2469   23.3653 O   0  0  0  0  0  0  0  0  0  0  0  0
    5.7010   -4.6591   21.7584 O   0  0  0  0  0  0  0  0  0  0  0  0
   11.0414   -4.7879   25.4801 H   0  0  0  0  0  0  0  0  0  0  0  0
    7.3194   -6.4764   23.7614 H   0  0  0  0  0  0  0  0  0  0  0  0
  1  2  2  0  0  0  0
  1  3  1  0  0  0  0
  2  4  1  0  0  0  0
  3  6  2  0  0  0  0
  4  5  2  0  0  0  0
  4 12  1  0  0  0  0
  5  6  1  0  0  0  0
  5 13  1  0  0  0  0
  6 15  1  0  0  0  0
  7 14  1  0  0  0  0
  7 15  1  0  0  0  0
  7 17  2  0  0  0  0
  8 10  1  0  0  0  0
  8 16  1  0  0  0  0
  9 11  1  0  0  0  0
  9 16  1  0  0  0  0
 10 18  1  0  0  0  0
 11 18  1  0  0  0  0
 14 16  1  0  0  0  0
 15 19  1  0  0  0  0
 16 20  1  0  0  0  0
M  CHG  1  16   1
M  END
> <ref_mols>
x0419_0

> <original SMILES>
CC=1C=CC=C(NC(=O)CN2CCOCC2)C1C

> <Chemgauss4>
-8.025280

> <ref_pdb>
x0749_0

$$$$
x0470
  -OEChem-05172015543D

 18 19  0     1  0  0  0  0  0999 V2000
   10.2986   -1.0855   24.3636 C   0  0  0  0  0  0  0  0  0  0  0  0
   10.1470   -2.1383   23.4857 C   0  0  0  0  0  0  0  0  0  0  0  0
   11.8374   -1.1369   22.5111 C   0  0  0  0  0  0  0  0  0  0  0  0
    6.3637   -3.4054   22.1995 C   0  0  0  0  0  0  0  0  0  0  0  0
    8.1139   -5.0763   22.3968 C   0  0  0  0  0  0  0  0  0  0  0  0
    6.6314   -4.8371   22.6348 C   0  0  1  0  0  0  0  0  0  0  0  0
    7.6898   -2.9323   21.6041 C   0  0  1  0  0  0  0  0  0  0  0  0
   12.9183   -0.8357   21.5474 C   0  0  0  0  0  0  0  0  0  0  0  0
    9.1208   -3.2288   23.5932 C   0  0  0  0  0  0  0  0  0  0  0  0
    7.8542   -1.4172   21.6545 C   0  0  0  0  0  0  0  0  0  0  0  0
   11.0282   -2.1691   22.4225 N   0  0  0  0  0  0  0  0  0  0  0  0
    8.7253   -3.7400   22.2805 N   0  0  1  0  0  0  0  0  0  0  0  0
    6.7808   -0.7941   20.8520 N   0  3  0  0  0  0  0  0  0  0  0  0
    6.3685   -4.9501   23.9639 F   0  0  0  0  0  0  0  0  0  0  0  0
   11.5954   -0.0886   23.8480 S   0  0  0  0  0  0  0  0  0  0  0  0
    5.8538   -1.1192   21.1535 H   0  0  0  0  0  0  0  0  0  0  0  0
    6.8817   -1.0221   19.8550 H   0  0  0  0  0  0  0  0  0  0  0  0
    6.7960    0.2296   20.9406 H   0  0  0  0  0  0  0  0  0  0  0  0
  1  2  2  0  0  0  0
  1 15  1  0  0  0  0
  2  9  1  0  0  0  0
  2 11  1  0  0  0  0
  3  8  1  0  0  0  0
  3 11  2  0  0  0  0
  3 15  1  0  0  0  0
  4  6  1  0  0  0  0
  4  7  1  0  0  0  0
  5  6  1  0  0  0  0
  5 12  1  0  0  0  0
  6 14  1  0  0  0  0
  7 10  1  0  0  0  0
  7 12  1  0  0  0  0
  9 12  1  0  0  0  0
 10 13  1  0  0  0  0
 13 16  1  0  0  0  0
 13 17  1  0  0  0  0
 13 18  1  0  0  0  0
M  CHG  1  13   1
M  END
> <ref_mols>
x0470_0

> <original SMILES>
CC1=NC(CN2C[C@@H](F)C[C@H]2CN)=CS1

> <Chemgauss4>
-8.023185

> <ref_pdb>
x1418_0

$$$$
x1248
  -OEChem-05172015543D

 18 19  0     1  0  0  0  0  0999 V2000
   10.2986   -1.0855   24.3636 C   0  0  0  0  0  0  0  0  0  0  0  0
   10.1470   -2.1383   23.4857 C   0  0  0  0  0  0  0  0  0  0  0  0
   11.8374   -1.1369   22.5111 C   0  0  0  0  0  0  0  0  0  0  0  0
    6.3637   -3.4054   22.1995 C   0  0  0  0  0  0  0  0  0  0  0  0
    8.1139   -5.0763   22.3968 C   0  0  0  0  0  0  0  0  0  0  0  0
    6.6314   -4.8371   22.6348 C   0  0  1  0  0  0  0  0  0  0  0  0
    7.6898   -2.9323   21.6041 C   0  0  1  0  0  0  0  0  0  0  0  0
   12.9183   -0.8357   21.5474 C   0  0  0  0  0  0  0  0  0  0  0  0
    9.1208   -3.2288   23.5932 C   0  0  0  0  0  0  0  0  0  0  0  0
    7.8542   -1.4172   21.6545 C   0  0  0  0  0  0  0  0  0  0  0  0
   11.0282   -2.1691   22.4225 N   0  0  0  0  0  0  0  0  0  0  0  0
    8.7253   -3.7400   22.2805 N   0  0  1  0  0  0  0  0  0  0  0  0
    6.7808   -0.7941   20.8520 N   0  3  0  0  0  0  0  0  0  0  0  0
    6.3685   -4.9501   23.9639 F   0  0  0  0  0  0  0  0  0  0  0  0
   11.5954   -0.0886   23.8480 S   0  0  0  0  0  0  0  0  0  0  0  0
    5.8538   -1.1192   21.1535 H   0  0  0  0  0  0  0  0  0  0  0  0
    6.8817   -1.0221   19.8550 H   0  0  0  0  0  0  0  0  0  0  0  0
    6.7960    0.2296   20.9406 H   0  0  0  0  0  0  0  0  0  0  0  0
  1  2  2  0  0  0  0
  1 15  1  0  0  0  0
  2  9  1  0  0  0  0
  2 11  1  0  0  0  0
  3  8  1  0  0  0  0
  3 11  2  0  0  0  0
  3 15  1  0  0  0  0
  4  6  1  0  0  0  0
  4  7  1  0  0  0  0
  5  6  1  0  0  0  0
  5 12  1  0  0  0  0
  6 14  1  0  0  0  0
  7 10  1  0  0  0  0
  7 12  1  0  0  0  0
  9 12  1  0  0  0  0
 10 13  1  0  0  0  0
 13 16  1  0  0  0  0
 13 17  1  0  0  0  0
 13 18  1  0  0  0  0
M  CHG  1  13   1
M  END
> <ref_mols>
x1248_0

> <original SMILES>
CC1=NC(CN2C[C@@H](F)C[C@H]2CN)=CS1

> <Chemgauss4>
-8.023185

> <ref_pdb>
x1418_0

$$$$
x2899
  -OEChem-05172015543D

 24 25  0     0  0  0  0  0  0999 V2000
    6.3760   -4.5510   21.7771 C   0  0  0  0  0  0  0  0  0  0  0  0
    6.5995   -4.3540   23.1294 C   0  0  0  0  0  0  0  0  0  0  0  0
    6.5081   -3.4862   20.8814 C   0  0  0  0  0  0  0  0  0  0  0  0
    6.9655   -3.0925   23.5866 C   0  0  0  0  0  0  0  0  0  0  0  0
    6.8476   -2.1903   21.3141 C   0  0  0  0  0  0  0  0  0  0  0  0
    7.0857   -2.0040   22.7005 C   0  0  0  0  0  0  0  0  0  0  0  0
    5.2340    0.6799   17.9138 C   0  0  0  0  0  0  0  0  0  0  0  0
    6.3931    0.1534   18.3145 C   0  0  0  0  0  0  0  0  0  0  0  0
    6.3751   -1.1056   19.0992 C   0  0  0  0  0  0  0  0  0  0  0  0
    7.4080   -0.2299   24.4858 C   0  0  0  0  0  0  0  0  0  0  0  0
    7.5429    0.1681   20.9128 C   0  0  0  0  0  0  0  0  0  0  0  0
    8.3140    0.0131   22.2043 C   0  0  0  0  0  0  0  0  0  0  0  0
    8.6102    0.9492   26.3173 C   0  0  0  0  0  0  0  0  0  0  0  0
    9.2018   -0.1031   27.2360 C   0  0  0  0  0  0  0  0  0  0  0  0
    6.9364   -1.0688   20.3938 N   0  0  0  0  0  0  0  0  0  0  0  0
    7.5342   -0.7341   23.1763 N   0  0  0  0  0  0  0  0  0  0  0  0
    8.5266    0.4441   24.9662 N   0  0  0  0  0  0  0  0  0  0  0  0
    9.3316    0.4456   28.6084 N   0  3  0  0  0  0  0  0  0  0  0  0
    5.8403   -2.0660   18.5457 O   0  0  0  0  0  0  0  0  0  0  0  0
    6.4152   -0.4370   25.1908 O   0  0  0  0  0  0  0  0  0  0  0  0
    9.3171    0.5878   24.3435 H   0  0  0  0  0  0  0  0  0  0  0  0
    9.8537   -0.1977   29.2127 H   0  0  0  0  0  0  0  0  0  0  0  0
    8.4093    0.5977   29.0306 H   0  0  0  0  0  0  0  0  0  0  0  0
    9.8272    1.3435   28.5990 H   0  0  0  0  0  0  0  0  0  0  0  0
  1  2  2  0  0  0  0
  1  3  1  0  0  0  0
  2  4  1  0  0  0  0
  3  5  2  0  0  0  0
  4  6  2  0  0  0  0
  5  6  1  0  0  0  0
  5 15  1  0  0  0  0
  6 16  1  0  0  0  0
  7  8  2  0  0  0  0
  8  9  1  0  0  0  0
  9 15  1  0  0  0  0
  9 19  2  0  0  0  0
 10 16  1  0  0  0  0
 10 17  1  0  0  0  0
 10 20  2  0  0  0  0
 11 12  1  0  0  0  0
 11 15  1  0  0  0  0
 12 16  1  0  0  0  0
 13 14  1  0  0  0  0
 13 17  1  0  0  0  0
 14 18  1  0  0  0  0
 17 21  1  0  0  0  0
 18 22  1  0  0  0  0
 18 23  1  0  0  0  0
 18 24  1  0  0  0  0
M  CHG  1  18   1
M  END
> <ref_mols>
x2899_0

> <original SMILES>
O=C(C=C)N1CCN(C(NCCN)=O)C2=C1C=CC=C2

> <Chemgauss4>
-8.020165

> <ref_pdb>
x0736_0

$$$$
x0302
  -OEChem-05172015543D

 14 15  0     1  0  0  0  0  0999 V2000
   13.4822    0.1354   22.9663 C   0  0  0  0  0  0  0  0  0  0  0  0
   13.1478   -1.1975   22.9131 C   0  0  0  0  0  0  0  0  0  0  0  0
   11.3426    0.0927   22.9590 C   0  0  0  0  0  0  0  0  0  0  0  0
    9.6271    1.5808   22.1069 C   0  0  0  0  0  0  0  0  0  0  0  0
    9.4949   -2.0601   23.2701 C   0  0  0  0  0  0  0  0  0  0  0  0
    9.0079   -0.7680   22.6115 C   0  0  0  0  0  0  0  0  0  0  0  0
   10.9287   -2.3723   22.8449 C   0  0  0  0  0  0  0  0  0  0  0  0
    9.8870    0.4218   23.0168 C   0  0  1  0  0  0  0  0  0  0  0  0
   12.3619    0.9292   23.0012 N   0  0  0  0  0  0  0  0  0  0  0  0
   11.7857   -1.2069   22.9163 N   0  0  0  0  0  0  0  0  0  0  0  0
    9.7994    2.8060   22.7064 N   0  0  0  0  0  0  0  0  0  0  0  0
    9.3069    1.4282   20.9306 O   0  0  0  0  0  0  0  0  0  0  0  0
   10.0785    2.8361   23.6815 H   0  0  0  0  0  0  0  0  0  0  0  0
    9.6585    3.6815   22.2128 H   0  0  0  0  0  0  0  0  0  0  0  0
  1  2  2  0  0  0  0
  1  9  1  0  0  0  0
  2 10  1  0  0  0  0
  3  8  1  0  0  0  0
  3  9  2  0  0  0  0
  3 10  1  0  0  0  0
  4  8  1  0  0  0  0
  4 11  1  0  0  0  0
  4 12  2  0  0  0  0
  5  6  1  0  0  0  0
  5  7  1  0  0  0  0
  6  8  1  0  0  0  0
  7 10  1  0  0  0  0
 11 13  1  0  0  0  0
 11 14  1  0  0  0  0
M  END
> <ref_mols>
x0302_0

> <original SMILES>
NC(=O)C1CCCN2C=CN=C12

> <Chemgauss4>
-8.018932

> <ref_pdb>
x1093_0

$$$$
x1131
  -OEChem-05172015543D

 14 15  0     1  0  0  0  0  0999 V2000
   13.4822    0.1354   22.9663 C   0  0  0  0  0  0  0  0  0  0  0  0
   13.1478   -1.1975   22.9131 C   0  0  0  0  0  0  0  0  0  0  0  0
   11.3426    0.0927   22.9590 C   0  0  0  0  0  0  0  0  0  0  0  0
    9.6271    1.5808   22.1069 C   0  0  0  0  0  0  0  0  0  0  0  0
    9.4949   -2.0601   23.2701 C   0  0  0  0  0  0  0  0  0  0  0  0
    9.0079   -0.7680   22.6115 C   0  0  0  0  0  0  0  0  0  0  0  0
   10.9287   -2.3723   22.8449 C   0  0  0  0  0  0  0  0  0  0  0  0
    9.8870    0.4218   23.0168 C   0  0  1  0  0  0  0  0  0  0  0  0
   12.3619    0.9292   23.0012 N   0  0  0  0  0  0  0  0  0  0  0  0
   11.7857   -1.2069   22.9163 N   0  0  0  0  0  0  0  0  0  0  0  0
    9.7994    2.8060   22.7064 N   0  0  0  0  0  0  0  0  0  0  0  0
    9.3069    1.4282   20.9306 O   0  0  0  0  0  0  0  0  0  0  0  0
   10.0785    2.8361   23.6815 H   0  0  0  0  0  0  0  0  0  0  0  0
    9.6585    3.6815   22.2128 H   0  0  0  0  0  0  0  0  0  0  0  0
  1  2  2  0  0  0  0
  1  9  1  0  0  0  0
  2 10  1  0  0  0  0
  3  8  1  0  0  0  0
  3  9  2  0  0  0  0
  3 10  1  0  0  0  0
  4  8  1  0  0  0  0
  4 11  1  0  0  0  0
  4 12  2  0  0  0  0
  5  6  1  0  0  0  0
  5  7  1  0  0  0  0
  6  8  1  0  0  0  0
  7 10  1  0  0  0  0
 11 13  1  0  0  0  0
 11 14  1  0  0  0  0
M  END
> <ref_mols>
x1131_0

> <original SMILES>
NC(=O)C1CCCN2C=CN=C12

> <Chemgauss4>
-8.018932

> <ref_pdb>
x1093_0

$$$$
x2537
  -OEChem-05172015543D

 35 37  0     1  0  0  0  0  0999 V2000
   13.9280   -0.2002   22.7210 C   0  0  0  0  0  0  0  0  0  0  0  0
    6.5282    2.1690   23.2844 C   0  0  0  0  0  0  0  0  0  0  0  0
   13.1275    0.6123   23.5238 C   0  0  0  0  0  0  0  0  0  0  0  0
   13.3712   -1.2985   22.0656 C   0  0  0  0  0  0  0  0  0  0  0  0
    7.2651    1.0435   22.9330 C   0  0  0  0  0  0  0  0  0  0  0  0
    6.6706   -0.4006   20.1553 C   0  0  0  0  0  0  0  0  0  0  0  0
    5.2618    1.9761   23.8125 C   0  0  0  0  0  0  0  0  0  0  0  0
    5.4460   -0.3084   23.6536 C   0  0  0  0  0  0  0  0  0  0  0  0
    6.7209   -0.2226   23.1178 C   0  0  0  0  0  0  0  0  0  0  0  0
   11.7702    0.3266   23.6713 C   0  0  0  0  0  0  0  0  0  0  0  0
   12.0139   -1.5843   22.2131 C   0  0  0  0  0  0  0  0  0  0  0  0
   11.2134   -0.7717   23.0159 C   0  0  0  0  0  0  0  0  0  0  0  0
    6.1842   -0.2910   18.8755 C   0  0  0  0  0  0  0  0  0  0  0  0
    6.4018   -1.7332   20.5210 C   0  0  0  0  0  0  0  0  0  0  0  0
    7.7599   -5.1509   23.5488 C   0  0  0  0  0  0  0  0  0  0  0  0
    6.9015   -4.1310   23.4481 C   0  0  0  0  0  0  0  0  0  0  0  0
    6.4468   -3.6592   22.1073 C   0  0  0  0  0  0  0  0  0  0  0  0
    8.8673   -1.1214   22.1675 C   0  0  0  0  0  0  0  0  0  0  0  0
   10.9384    1.2155   24.5382 C   0  0  0  0  0  0  0  0  0  0  0  0
   11.2265   -3.9548   22.4297 C   0  0  0  0  0  0  0  0  0  0  0  0
    7.5907    1.3550   17.5879 C   0  0  0  0  0  0  0  0  0  0  0  0
    5.3523    2.0572   18.5004 C   0  0  0  0  0  0  0  0  0  0  0  0
    5.4907    0.5456   16.5313 C   0  0  0  0  0  0  0  0  0  0  0  0
   11.4471   -2.7676   21.4977 C   0  0  0  0  0  0  0  0  0  0  0  0
    7.4974   -1.4665   22.7461 C   0  0  2  0  0  0  0  0  0  0  0  0
    6.1503    0.8862   17.8869 C   0  0  0  0  0  0  0  0  0  0  0  0
    4.6997    0.7620   24.0069 N   0  0  0  0  0  0  0  0  0  0  0  0
    5.7918   -2.4209   19.5520 N   0  0  0  0  0  0  0  0  0  0  0  0
    5.6731   -1.5168   18.5647 N   0  0  0  0  0  0  0  0  0  0  0  0
    9.8365   -1.0620   23.1658 N   0  0  0  0  0  0  0  0  0  0  0  0
    6.7289   -2.2866   21.7433 N   0  0  0  0  0  0  0  0  0  0  0  0
    5.8283   -4.4384   21.3817 O   0  0  0  0  0  0  0  0  0  0  0  0
    9.0280   -0.9209   20.9665 O   0  0  0  0  0  0  0  0  0  0  0  0
    5.2307   -1.8067   17.7013 H   0  0  0  0  0  0  0  0  0  0  0  0
    9.5172   -1.2492   24.1139 H   0  0  0  0  0  0  0  0  0  0  0  0
  1  3  1  0  0  0  0
  1  4  2  0  0  0  0
  2  5  2  0  0  0  0
  2  7  1  0  0  0  0
  3 10  2  0  0  0  0
  4 11  1  0  0  0  0
  5  9  1  0  0  0  0
  6 13  2  0  0  0  0
  6 14  1  0  0  0  0
  7 27  2  0  0  0  0
  8  9  2  0  0  0  0
  8 27  1  0  0  0  0
  9 25  1  0  0  0  0
 10 12  1  0  0  0  0
 10 19  1  0  0  0  0
 11 12  2  0  0  0  0
 11 24  1  0  0  0  0
 12 30  1  0  0  0  0
 13 26  1  0  0  0  0
 13 29  1  0  0  0  0
 14 28  2  0  0  0  0
 14 31  1  0  0  0  0
 15 16  2  0  0  0  0
 16 17  1  0  0  0  0
 17 31  1  0  0  0  0
 17 32  2  0  0  0  0
 18 25  1  0  0  0  0
 18 30  1  0  0  0  0
 18 33  2  0  0  0  0
 20 24  1  0  0  0  0
 21 26  1  0  0  0  0
 22 26  1  0  0  0  0
 23 26  1  0  0  0  0
 25 31  1  0  0  0  0
 28 29  1  0  0  0  0
 29 34  1  0  0  0  0
 30 35  1  0  0  0  0
M  END
> <ref_mols>
x2537_0

> <original SMILES>
CCC=1C=CC=C(C)C1NC(=O)C(N(C(=O)C=C)C2=CC(=NN2)C(C)(C)C)C=3C=CC=NC3

> <Chemgauss4>
-8.018552

> <ref_pdb>
x0831_0

$$$$
x2705
  -OEChem-05172015543D

 35 37  0     1  0  0  0  0  0999 V2000
   13.9280   -0.2002   22.7210 C   0  0  0  0  0  0  0  0  0  0  0  0
    6.5282    2.1690   23.2844 C   0  0  0  0  0  0  0  0  0  0  0  0
   13.1275    0.6123   23.5238 C   0  0  0  0  0  0  0  0  0  0  0  0
   13.3712   -1.2985   22.0656 C   0  0  0  0  0  0  0  0  0  0  0  0
    7.2651    1.0435   22.9330 C   0  0  0  0  0  0  0  0  0  0  0  0
    6.6706   -0.4006   20.1553 C   0  0  0  0  0  0  0  0  0  0  0  0
    5.2618    1.9761   23.8125 C   0  0  0  0  0  0  0  0  0  0  0  0
    5.4460   -0.3084   23.6536 C   0  0  0  0  0  0  0  0  0  0  0  0
    6.7209   -0.2226   23.1178 C   0  0  0  0  0  0  0  0  0  0  0  0
   11.7702    0.3266   23.6713 C   0  0  0  0  0  0  0  0  0  0  0  0
   12.0139   -1.5843   22.2131 C   0  0  0  0  0  0  0  0  0  0  0  0
   11.2134   -0.7717   23.0159 C   0  0  0  0  0  0  0  0  0  0  0  0
    6.1842   -0.2910   18.8755 C   0  0  0  0  0  0  0  0  0  0  0  0
    6.4018   -1.7332   20.5210 C   0  0  0  0  0  0  0  0  0  0  0  0
    7.7599   -5.1509   23.5488 C   0  0  0  0  0  0  0  0  0  0  0  0
    6.9015   -4.1310   23.4481 C   0  0  0  0  0  0  0  0  0  0  0  0
    6.4468   -3.6592   22.1073 C   0  0  0  0  0  0  0  0  0  0  0  0
    8.8673   -1.1214   22.1675 C   0  0  0  0  0  0  0  0  0  0  0  0
   10.9384    1.2155   24.5382 C   0  0  0  0  0  0  0  0  0  0  0  0
   11.2265   -3.9548   22.4297 C   0  0  0  0  0  0  0  0  0  0  0  0
    7.5907    1.3550   17.5879 C   0  0  0  0  0  0  0  0  0  0  0  0
    5.3523    2.0572   18.5004 C   0  0  0  0  0  0  0  0  0  0  0  0
    5.4907    0.5456   16.5313 C   0  0  0  0  0  0  0  0  0  0  0  0
   11.4471   -2.7676   21.4977 C   0  0  0  0  0  0  0  0  0  0  0  0
    7.4974   -1.4665   22.7461 C   0  0  2  0  0  0  0  0  0  0  0  0
    6.1503    0.8862   17.8869 C   0  0  0  0  0  0  0  0  0  0  0  0
    4.6997    0.7620   24.0069 N   0  0  0  0  0  0  0  0  0  0  0  0
    5.7918   -2.4209   19.5520 N   0  0  0  0  0  0  0  0  0  0  0  0
    5.6731   -1.5168   18.5647 N   0  0  0  0  0  0  0  0  0  0  0  0
    9.8365   -1.0620   23.1658 N   0  0  0  0  0  0  0  0  0  0  0  0
    6.7289   -2.2866   21.7433 N   0  0  0  0  0  0  0  0  0  0  0  0
    5.8283   -4.4384   21.3817 O   0  0  0  0  0  0  0  0  0  0  0  0
    9.0280   -0.9209   20.9665 O   0  0  0  0  0  0  0  0  0  0  0  0
    5.2307   -1.8067   17.7013 H   0  0  0  0  0  0  0  0  0  0  0  0
    9.5172   -1.2492   24.1139 H   0  0  0  0  0  0  0  0  0  0  0  0
  1  3  1  0  0  0  0
  1  4  2  0  0  0  0
  2  5  2  0  0  0  0
  2  7  1  0  0  0  0
  3 10  2  0  0  0  0
  4 11  1  0  0  0  0
  5  9  1  0  0  0  0
  6 13  2  0  0  0  0
  6 14  1  0  0  0  0
  7 27  2  0  0  0  0
  8  9  2  0  0  0  0
  8 27  1  0  0  0  0
  9 25  1  0  0  0  0
 10 12  1  0  0  0  0
 10 19  1  0  0  0  0
 11 12  2  0  0  0  0
 11 24  1  0  0  0  0
 12 30  1  0  0  0  0
 13 26  1  0  0  0  0
 13 29  1  0  0  0  0
 14 28  2  0  0  0  0
 14 31  1  0  0  0  0
 15 16  2  0  0  0  0
 16 17  1  0  0  0  0
 17 31  1  0  0  0  0
 17 32  2  0  0  0  0
 18 25  1  0  0  0  0
 18 30  1  0  0  0  0
 18 33  2  0  0  0  0
 20 24  1  0  0  0  0
 21 26  1  0  0  0  0
 22 26  1  0  0  0  0
 23 26  1  0  0  0  0
 25 31  1  0  0  0  0
 28 29  1  0  0  0  0
 29 34  1  0  0  0  0
 30 35  1  0  0  0  0
M  END
> <ref_mols>
x2705_0

> <original SMILES>
CCC=1C=CC=C(C)C1NC(=O)C(N(C(=O)C=C)C2=CC(=NN2)C(C)(C)C)C=3C=CC=NC3

> <Chemgauss4>
-8.018552

> <ref_pdb>
x0831_0

> <CYS145-warhead dist minimum (A)>
3.1727228

> <CYS145-warhead dist mean (A)>
6.3351

> <CYS145-warhead dist stddev (A)>
1.6031802

$$$$
x1269
  -OEChem-05172015543D

 17 18  0     0  0  0  0  0  0999 V2000
   10.7093   -0.0042   21.8941 C   0  0  0  0  0  0  0  0  0  0  0  0
   10.8001   -2.2972   22.6495 C   0  0  0  0  0  0  0  0  0  0  0  0
   12.0370    0.1761   22.2814 C   0  0  0  0  0  0  0  0  0  0  0  0
   12.1279   -2.1170   23.0368 C   0  0  0  0  0  0  0  0  0  0  0  0
   10.0907   -1.2408   22.0782 C   0  0  0  0  0  0  0  0  0  0  0  0
   12.7464   -0.8803   22.8528 C   0  0  0  0  0  0  0  0  0  0  0  0
    8.0861   -0.7989   20.6713 C   0  0  0  0  0  0  0  0  0  0  0  0
    7.6647    0.2598   18.6561 C   0  0  0  0  0  0  0  0  0  0  0  0
    6.3530    0.1238   19.4447 C   0  0  0  0  0  0  0  0  0  0  0  0
   14.7093   -1.8257   23.8062 C   0  0  0  0  0  0  0  0  0  0  0  0
    8.6954   -0.3440   19.5000 N   0  0  0  0  0  0  0  0  0  0  0  0
    6.7120   -0.5504   20.6919 N   0  3  0  0  0  0  0  0  0  0  0  0
    8.7631   -1.4214   21.6900 N   0  0  0  0  0  0  0  0  0  0  0  0
   14.0427   -0.7043   23.2285 O   0  0  0  0  0  0  0  0  0  0  0  0
    9.6888   -0.4348   19.3031 H   0  0  0  0  0  0  0  0  0  0  0  0
    6.0986   -0.8086   21.4605 H   0  0  0  0  0  0  0  0  0  0  0  0
    8.2131   -2.0862   22.2079 H   0  0  0  0  0  0  0  0  0  0  0  0
  1  3  2  0  0  0  0
  1  5  1  0  0  0  0
  2  4  1  0  0  0  0
  2  5  2  0  0  0  0
  3  6  1  0  0  0  0
  4  6  2  0  0  0  0
  5 13  1  0  0  0  0
  6 14  1  0  0  0  0
  7 11  1  0  0  0  0
  7 12  2  0  0  0  0
  7 13  1  0  0  0  0
  8  9  1  0  0  0  0
  8 11  1  0  0  0  0
  9 12  1  0  0  0  0
 10 14  1  0  0  0  0
 11 15  1  0  0  0  0
 12 16  1  0  0  0  0
 13 17  1  0  0  0  0
M  CHG  1  12   1
M  END
> <ref_mols>
x1269_0

> <original SMILES>
COC=1C=CC(NC2=NCCN2)=CC1

> <Chemgauss4>
-8.016686

> <ref_pdb>
x0678_0

$$$$
x0644
  -OEChem-05172015543D

 17 18  0     0  0  0  0  0  0999 V2000
   10.7093   -0.0042   21.8941 C   0  0  0  0  0  0  0  0  0  0  0  0
   10.8001   -2.2972   22.6495 C   0  0  0  0  0  0  0  0  0  0  0  0
   12.0370    0.1761   22.2814 C   0  0  0  0  0  0  0  0  0  0  0  0
   12.1279   -2.1170   23.0368 C   0  0  0  0  0  0  0  0  0  0  0  0
   10.0907   -1.2408   22.0782 C   0  0  0  0  0  0  0  0  0  0  0  0
   12.7464   -0.8803   22.8528 C   0  0  0  0  0  0  0  0  0  0  0  0
    8.0861   -0.7989   20.6713 C   0  0  0  0  0  0  0  0  0  0  0  0
    7.6647    0.2598   18.6561 C   0  0  0  0  0  0  0  0  0  0  0  0
    6.3530    0.1238   19.4447 C   0  0  0  0  0  0  0  0  0  0  0  0
   14.7093   -1.8257   23.8062 C   0  0  0  0  0  0  0  0  0  0  0  0
    8.6954   -0.3440   19.5000 N   0  0  0  0  0  0  0  0  0  0  0  0
    6.7120   -0.5504   20.6919 N   0  3  0  0  0  0  0  0  0  0  0  0
    8.7631   -1.4214   21.6900 N   0  0  0  0  0  0  0  0  0  0  0  0
   14.0427   -0.7043   23.2285 O   0  0  0  0  0  0  0  0  0  0  0  0
    9.6888   -0.4348   19.3031 H   0  0  0  0  0  0  0  0  0  0  0  0
    6.0986   -0.8086   21.4605 H   0  0  0  0  0  0  0  0  0  0  0  0
    8.2131   -2.0862   22.2079 H   0  0  0  0  0  0  0  0  0  0  0  0
  1  3  2  0  0  0  0
  1  5  1  0  0  0  0
  2  4  1  0  0  0  0
  2  5  2  0  0  0  0
  3  6  1  0  0  0  0
  4  6  2  0  0  0  0
  5 13  1  0  0  0  0
  6 14  1  0  0  0  0
  7 11  1  0  0  0  0
  7 12  2  0  0  0  0
  7 13  1  0  0  0  0
  8  9  1  0  0  0  0
  8 11  1  0  0  0  0
  9 12  1  0  0  0  0
 10 14  1  0  0  0  0
 11 15  1  0  0  0  0
 12 16  1  0  0  0  0
 13 17  1  0  0  0  0
M  CHG  1  12   1
M  END
> <ref_mols>
x0644_0

> <original SMILES>
COC=1C=CC(NC2=NCCN2)=CC1

> <Chemgauss4>
-8.016686

> <ref_pdb>
x0678_0

$$$$
x0904
  -OEChem-05172015543D

 20 22  0     1  0  0  0  0  0999 V2000
   13.7738   -1.9389   23.6485 C   0  0  0  0  0  0  0  0  0  0  0  0
   12.8736   -1.7911   22.5933 C   0  0  0  0  0  0  0  0  0  0  0  0
   13.7410   -1.0499   24.7229 C   0  0  0  0  0  0  0  0  0  0  0  0
   11.9407   -0.7543   22.6125 C   0  0  0  0  0  0  0  0  0  0  0  0
   12.8081   -0.0131   24.7421 C   0  0  0  0  0  0  0  0  0  0  0  0
   11.9079    0.1347   23.6869 C   0  0  0  0  0  0  0  0  0  0  0  0
    9.7725    4.2771   23.5844 C   0  0  0  0  0  0  0  0  0  0  0  0
   13.1182    4.2738   22.1763 C   0  0  0  0  0  0  0  0  0  0  0  0
   12.0387    5.2222   24.3710 C   0  0  0  0  0  0  0  0  0  0  0  0
   12.5718    2.8357   22.2292 C   0  0  0  0  0  0  0  0  0  0  0  0
   12.0857    5.1102   22.8731 C   0  0  2  0  0  0  0  0  0  0  0  0
   11.2306    4.1615   23.6786 C   0  0  2  0  0  0  0  0  0  0  0  0
   11.7518    2.7771   23.4782 N   0  0  1  0  0  0  0  0  0  0  0  0
    9.3012    4.3123   22.2933 N   0  0  0  0  0  0  0  0  0  0  0  0
    9.0553    4.3199   24.5810 O   0  0  0  0  0  0  0  0  0  0  0  0
    9.8754    1.2940   22.5475 O   0  0  0  0  0  0  0  0  0  0  0  0
   10.1603    1.5115   25.0413 O   0  0  0  0  0  0  0  0  0  0  0  0
   10.7284    1.4497   23.7091 S   0  0  0  0  0  0  0  0  0  0  0  0
    9.9676    4.2580   21.5301 H   0  0  0  0  0  0  0  0  0  0  0  0
    8.3136    4.3903   22.0731 H   0  0  0  0  0  0  0  0  0  0  0  0
  1  2  1  0  0  0  0
  1  3  2  0  0  0  0
  2  4  2  0  0  0  0
  3  5  1  0  0  0  0
  4  6  1  0  0  0  0
  5  6  2  0  0  0  0
  6 18  1  0  0  0  0
  7 12  1  0  0  0  0
  7 14  1  0  0  0  0
  7 15  2  0  0  0  0
  8 10  1  0  0  0  0
  8 11  1  0  0  0  0
  9 11  1  0  0  0  0
  9 12  1  0  0  0  0
 10 13  1  0  0  0  0
 11 12  1  0  0  0  0
 12 13  1  0  0  0  0
 13 18  1  0  0  0  0
 16 18  2  0  0  0  0
 17 18  2  0  0  0  0
 14 19  1  0  0  0  0
 14 20  1  0  0  0  0
M  END
> <ref_mols>
x0904_0

> <original SMILES>
O=S(N1CCC2C1(C(N)=O)C2)(C3=CC=CC=C3)=O

> <Chemgauss4>
-8.016534

> <ref_pdb>
x0161_0

$$$$
x0211
  -OEChem-05172015543D

 16 16  0     1  0  0  0  0  0999 V2000
   13.0460    3.1491   22.5069 C   0  0  0  0  0  0  0  0  0  0  0  0
   10.9849    2.9780   23.7558 C   0  0  0  0  0  0  0  0  0  0  0  0
   13.2668    1.7833   22.6841 C   0  0  0  0  0  0  0  0  0  0  0  0
   11.2057    1.6121   23.9330 C   0  0  0  0  0  0  0  0  0  0  0  0
   11.9051    3.7464   23.0428 C   0  0  0  0  0  0  0  0  0  0  0  0
   12.3466    1.0148   23.3971 C   0  0  0  0  0  0  0  0  0  0  0  0
   14.1643   -1.8777   22.5496 C   0  0  0  0  0  0  0  0  0  0  0  0
   13.9193   -0.8900   23.6392 C   0  0  0  0  0  0  0  0  0  0  0  0
   11.4511   -1.2782   23.7141 C   0  0  0  0  0  0  0  0  0  0  0  0
   10.9026   -1.6223   22.3414 C   0  0  0  0  0  0  0  0  0  0  0  0
   11.6831    5.1279   22.8648 N   0  0  0  0  0  0  0  0  0  0  0  0
   12.5693   -0.3661   23.5764 N   0  0  3  0  0  0  0  0  0  0  0  0
   10.4340   -0.4378   21.7096 O   0  0  0  0  0  0  0  0  0  0  0  0
   12.3738    5.6762   22.3935 H   0  0  0  0  0  0  0  0  0  0  0  0
   10.8861    5.5529   23.2937 H   0  0  0  0  0  0  0  0  0  0  0  0
   10.0936   -0.7011   20.8395 H   0  0  0  0  0  0  0  0  0  0  0  0
  1  3  2  0  0  0  0
  1  5  1  0  0  0  0
  2  4  1  0  0  0  0
  2  5  2  0  0  0  0
  3  6  1  0  0  0  0
  4  6  2  0  0  0  0
  5 11  1  0  0  0  0
  6 12  1  0  0  0  0
  7  8  1  0  0  0  0
  8 12  1  0  0  0  0
  9 10  1  0  0  0  0
  9 12  1  0  0  0  0
 10 13  1  0  0  0  0
 11 14  1  0  0  0  0
 11 15  1  0  0  0  0
 13 16  1  0  0  0  0
M  END
> <ref_mols>
x0211_0

> <original SMILES>
CCN(CCO)C=1C=CC(N)=CC1

> <Chemgauss4>
-8.015523

> <ref_pdb>
x0195_0

$$$$
x0646
  -OEChem-05172015543D

 18 18  0     1  0  0  0  0  0999 V2000
   12.6196    1.0759   23.5222 C   0  0  0  0  0  0  0  0  0  0  0  0
   11.3412    4.4898   23.6057 C   0  0  0  0  0  0  0  0  0  0  0  0
   12.5882    5.3138   23.2667 C   0  0  0  0  0  0  0  0  0  0  0  0
   11.3242    3.1075   22.9581 C   0  0  0  0  0  0  0  0  0  0  0  0
   13.8185    3.1688   22.7839 C   0  0  0  0  0  0  0  0  0  0  0  0
   13.5141    4.5830   22.3010 C   0  0  2  0  0  0  0  0  0  0  0  0
   13.9830    0.4416   23.6582 C   0  0  0  0  0  0  0  0  0  0  0  0
   14.4112   -0.1973   22.3482 C   0  0  0  0  0  0  0  0  0  0  0  0
   13.5072   -1.3309   21.9067 C   0  0  0  0  0  0  0  0  0  0  0  0
   12.6027    2.4127   23.1162 N   0  0  0  0  0  0  0  0  0  0  0  0
   14.7880    5.3397   22.1805 N   0  3  0  0  0  0  0  0  0  0  0  0
   11.6110    0.4101   23.7668 O   0  0  0  0  0  0  0  0  0  0  0  0
   13.9895   -1.9049   20.7814 F   0  0  0  0  0  0  0  0  0  0  0  0
   12.2569   -0.9009   21.6390 F   0  0  0  0  0  0  0  0  0  0  0  0
   13.4260   -2.2914   22.8518 F   0  0  0  0  0  0  0  0  0  0  0  0
   15.5007    4.9538   22.8069 H   0  0  0  0  0  0  0  0  0  0  0  0
   14.6492    6.3252   22.4241 H   0  0  0  0  0  0  0  0  0  0  0  0
   15.1478    5.2956   21.2223 H   0  0  0  0  0  0  0  0  0  0  0  0
  1  7  1  0  0  0  0
  1 10  1  0  0  0  0
  1 12  2  0  0  0  0
  2  3  1  0  0  0  0
  2  4  1  0  0  0  0
  3  6  1  0  0  0  0
  4 10  1  0  0  0  0
  5  6  1  0  0  0  0
  5 10  1  0  0  0  0
  6 11  1  0  0  0  0
  7  8  1  0  0  0  0
  8  9  1  0  0  0  0
  9 13  1  0  0  0  0
  9 14  1  0  0  0  0
  9 15  1  0  0  0  0
 11 16  1  0  0  0  0
 11 17  1  0  0  0  0
 11 18  1  0  0  0  0
M  CHG  1  11   1
M  END
> <ref_mols>
x0646_0

> <original SMILES>
N[C@@H]1CCCN(C1)C(=O)CCC(F)(F)F

> <Chemgauss4>
-8.015240

> <ref_pdb>
x0195_0

$$$$
x1181
  -OEChem-05172015543D

 18 18  0     1  0  0  0  0  0999 V2000
   12.6196    1.0759   23.5222 C   0  0  0  0  0  0  0  0  0  0  0  0
   11.3412    4.4898   23.6057 C   0  0  0  0  0  0  0  0  0  0  0  0
   12.5882    5.3138   23.2667 C   0  0  0  0  0  0  0  0  0  0  0  0
   11.3242    3.1075   22.9581 C   0  0  0  0  0  0  0  0  0  0  0  0
   13.8185    3.1688   22.7839 C   0  0  0  0  0  0  0  0  0  0  0  0
   13.5141    4.5830   22.3010 C   0  0  2  0  0  0  0  0  0  0  0  0
   13.9830    0.4416   23.6582 C   0  0  0  0  0  0  0  0  0  0  0  0
   14.4112   -0.1973   22.3482 C   0  0  0  0  0  0  0  0  0  0  0  0
   13.5072   -1.3309   21.9067 C   0  0  0  0  0  0  0  0  0  0  0  0
   12.6027    2.4127   23.1162 N   0  0  0  0  0  0  0  0  0  0  0  0
   14.7880    5.3397   22.1805 N   0  3  0  0  0  0  0  0  0  0  0  0
   11.6110    0.4101   23.7668 O   0  0  0  0  0  0  0  0  0  0  0  0
   13.9895   -1.9049   20.7814 F   0  0  0  0  0  0  0  0  0  0  0  0
   12.2569   -0.9009   21.6390 F   0  0  0  0  0  0  0  0  0  0  0  0
   13.4260   -2.2914   22.8518 F   0  0  0  0  0  0  0  0  0  0  0  0
   15.5007    4.9538   22.8069 H   0  0  0  0  0  0  0  0  0  0  0  0
   14.6492    6.3252   22.4241 H   0  0  0  0  0  0  0  0  0  0  0  0
   15.1478    5.2956   21.2223 H   0  0  0  0  0  0  0  0  0  0  0  0
  1  7  1  0  0  0  0
  1 10  1  0  0  0  0
  1 12  2  0  0  0  0
  2  3  1  0  0  0  0
  2  4  1  0  0  0  0
  3  6  1  0  0  0  0
  4 10  1  0  0  0  0
  5  6  1  0  0  0  0
  5 10  1  0  0  0  0
  6 11  1  0  0  0  0
  7  8  1  0  0  0  0
  8  9  1  0  0  0  0
  9 13  1  0  0  0  0
  9 14  1  0  0  0  0
  9 15  1  0  0  0  0
 11 16  1  0  0  0  0
 11 17  1  0  0  0  0
 11 18  1  0  0  0  0
M  CHG  1  11   1
M  END
> <ref_mols>
x1181_0

> <original SMILES>
N[C@@H]1CCCN(C1)C(=O)CCC(F)(F)F

> <Chemgauss4>
-8.015240

> <ref_pdb>
x0195_0

$$$$
x0047
  -OEChem-05172015543D

 14 14  0     0  0  0  0  0  0999 V2000
    7.3064   -0.8020   21.7778 C   0  0  0  0  0  0  0  0  0  0  0  0
    8.6128   -0.7589   22.2518 C   0  0  0  0  0  0  0  0  0  0  0  0
    6.7750   -2.0060   21.3290 C   0  0  0  0  0  0  0  0  0  0  0  0
    9.3404   -1.9381   22.2562 C   0  0  0  0  0  0  0  0  0  0  0  0
    7.5849   -3.1293   21.3745 C   0  0  0  0  0  0  0  0  0  0  0  0
   10.7100   -1.9504   22.7400 C   0  0  0  0  0  0  0  0  0  0  0  0
    7.0429   -4.4172   20.9044 C   0  0  0  0  0  0  0  0  0  0  0  0
   13.1290   -1.7098   22.1214 C   0  0  0  0  0  0  0  0  0  0  0  0
    8.8584   -3.1264   21.8282 N   0  0  0  0  0  0  0  0  0  0  0  0
   11.7198   -1.7077   21.8004 N   0  0  0  0  0  0  0  0  0  0  0  0
    7.7985   -5.4578   20.9481 O   0  5  0  0  0  0  0  0  0  0  0  0
   10.9567   -2.1888   23.9364 O   0  0  0  0  0  0  0  0  0  0  0  0
    5.8335   -4.4552   20.4666 O   0  0  0  0  0  0  0  0  0  0  0  0
   11.4688   -1.5814   20.8253 H   0  0  0  0  0  0  0  0  0  0  0  0
  1  2  2  0  0  0  0
  1  3  1  0  0  0  0
  2  4  1  0  0  0  0
  3  5  2  0  0  0  0
  4  6  1  0  0  0  0
  4  9  2  0  0  0  0
  5  7  1  0  0  0  0
  5  9  1  0  0  0  0
  6 10  1  0  0  0  0
  6 12  2  0  0  0  0
  7 11  1  0  0  0  0
  7 13  2  0  0  0  0
  8 10  1  0  0  0  0
 10 14  1  0  0  0  0
M  CHG  1  11  -1
M  END
> <ref_mols>
x0047_0

> <original SMILES>
CNC(=O)C=1C=CC=C(N1)C(=O)O

> <Chemgauss4>
-8.011734

> <ref_pdb>
x0831_0

$$$$
x2773
  -OEChem-05172015543D

 21 22  0     1  0  0  0  0  0999 V2000
   10.0624   -4.4829   24.9264 C   0  0  0  0  0  0  0  0  0  0  0  0
    9.4778   -5.2973   25.8958 C   0  0  0  0  0  0  0  0  0  0  0  0
    7.3961   -4.1250   25.6057 C   0  0  0  0  0  0  0  0  0  0  0  0
    9.3240   -3.4770   24.2721 C   0  0  0  0  0  0  0  0  0  0  0  0
    7.9693   -3.2970   24.6229 C   0  0  0  0  0  0  0  0  0  0  0  0
    8.1435   -5.1185   26.2354 C   0  0  0  0  0  0  0  0  0  0  0  0
   12.5300    1.5654   23.8371 C   0  0  0  0  0  0  0  0  0  0  0  0
   11.5116    0.7322   24.0713 C   0  0  0  0  0  0  0  0  0  0  0  0
   11.4503   -0.5907   23.3943 C   0  0  0  0  0  0  0  0  0  0  0  0
    5.9865   -3.2290   22.0257 C   0  0  0  0  0  0  0  0  0  0  0  0
    7.1037   -2.2377   23.9857 C   0  0  0  0  0  0  0  0  0  0  0  0
    9.3830   -2.5879   21.8540 C   0  0  0  0  0  0  0  0  0  0  0  0
    8.0712   -1.8117   21.7413 C   0  0  0  0  0  0  0  0  0  0  0  0
   10.0426   -2.6230   23.2442 C   0  0  1  0  0  0  0  0  0  0  0  0
    5.0608   -3.8715   23.0281 C   0  0  0  0  0  0  0  0  0  0  0  0
    7.0012   -2.4148   22.5384 N   0  0  0  0  0  0  0  0  0  0  0  0
   10.3253   -1.3058   23.7644 N   0  0  0  0  0  0  0  0  0  0  0  0
   12.3131   -0.9712   22.6095 O   0  0  0  0  0  0  0  0  0  0  0  0
    5.8153   -3.4423   20.8224 O   0  0  0  0  0  0  0  0  0  0  0  0
    7.5764   -5.8962   27.1667 F   0  0  0  0  0  0  0  0  0  0  0  0
    9.6784   -0.9237   24.4470 H   0  0  0  0  0  0  0  0  0  0  0  0
  1  2  2  0  0  0  0
  1  4  1  0  0  0  0
  2  6  1  0  0  0  0
  3  5  1  0  0  0  0
  3  6  2  0  0  0  0
  4  5  2  0  0  0  0
  4 14  1  0  0  0  0
  5 11  1  0  0  0  0
  6 20  1  0  0  0  0
  7  8  2  0  0  0  0
  8  9  1  0  0  0  0
  9 17  1  0  0  0  0
  9 18  2  0  0  0  0
 10 15  1  0  0  0  0
 10 16  1  0  0  0  0
 10 19  2  0  0  0  0
 11 16  1  0  0  0  0
 12 13  1  0  0  0  0
 12 14  1  0  0  0  0
 13 16  1  0  0  0  0
 14 17  1  0  0  0  0
 17 21  1  0  0  0  0
M  END
> <ref_mols>
x2773_0

> <original SMILES>
CC(=O)N1CCC(NC(=O)C=C)c2ccc(F)cc2C1

> <Chemgauss4>
-8.010679

> <ref_pdb>
x1392_0

> <CYS145-warhead dist minimum (A)>
10.642981

> <CYS145-warhead dist mean (A)>
15.405181

> <CYS145-warhead dist stddev (A)>
1.0471426

$$$$
x2760
  -OEChem-05172015543D

 21 22  0     1  0  0  0  0  0999 V2000
   10.0624   -4.4829   24.9264 C   0  0  0  0  0  0  0  0  0  0  0  0
    9.4778   -5.2973   25.8958 C   0  0  0  0  0  0  0  0  0  0  0  0
    7.3961   -4.1250   25.6057 C   0  0  0  0  0  0  0  0  0  0  0  0
    9.3240   -3.4770   24.2721 C   0  0  0  0  0  0  0  0  0  0  0  0
    7.9693   -3.2970   24.6229 C   0  0  0  0  0  0  0  0  0  0  0  0
    8.1435   -5.1185   26.2354 C   0  0  0  0  0  0  0  0  0  0  0  0
   12.5300    1.5654   23.8371 C   0  0  0  0  0  0  0  0  0  0  0  0
   11.5116    0.7322   24.0713 C   0  0  0  0  0  0  0  0  0  0  0  0
   11.4503   -0.5907   23.3943 C   0  0  0  0  0  0  0  0  0  0  0  0
    5.9865   -3.2290   22.0257 C   0  0  0  0  0  0  0  0  0  0  0  0
    7.1037   -2.2377   23.9857 C   0  0  0  0  0  0  0  0  0  0  0  0
    9.3830   -2.5879   21.8540 C   0  0  0  0  0  0  0  0  0  0  0  0
    8.0712   -1.8117   21.7413 C   0  0  0  0  0  0  0  0  0  0  0  0
   10.0426   -2.6230   23.2442 C   0  0  1  0  0  0  0  0  0  0  0  0
    5.0608   -3.8715   23.0281 C   0  0  0  0  0  0  0  0  0  0  0  0
    7.0012   -2.4148   22.5384 N   0  0  0  0  0  0  0  0  0  0  0  0
   10.3253   -1.3058   23.7644 N   0  0  0  0  0  0  0  0  0  0  0  0
   12.3131   -0.9712   22.6095 O   0  0  0  0  0  0  0  0  0  0  0  0
    5.8153   -3.4423   20.8224 O   0  0  0  0  0  0  0  0  0  0  0  0
    7.5764   -5.8962   27.1667 F   0  0  0  0  0  0  0  0  0  0  0  0
    9.6784   -0.9237   24.4470 H   0  0  0  0  0  0  0  0  0  0  0  0
  1  2  2  0  0  0  0
  1  4  1  0  0  0  0
  2  6  1  0  0  0  0
  3  5  1  0  0  0  0
  3  6  2  0  0  0  0
  4  5  2  0  0  0  0
  4 14  1  0  0  0  0
  5 11  1  0  0  0  0
  6 20  1  0  0  0  0
  7  8  2  0  0  0  0
  8  9  1  0  0  0  0
  9 17  1  0  0  0  0
  9 18  2  0  0  0  0
 10 15  1  0  0  0  0
 10 16  1  0  0  0  0
 10 19  2  0  0  0  0
 11 16  1  0  0  0  0
 12 13  1  0  0  0  0
 12 14  1  0  0  0  0
 13 16  1  0  0  0  0
 14 17  1  0  0  0  0
 17 21  1  0  0  0  0
M  END
> <ref_mols>
x2760_0

> <original SMILES>
CC(=O)N1CCC(NC(=O)C=C)c2ccc(F)cc2C1

> <Chemgauss4>
-8.010679

> <ref_pdb>
x1392_0

> <CYS145-warhead dist minimum (A)>
5.441968

> <CYS145-warhead dist mean (A)>
7.3664484

> <CYS145-warhead dist stddev (A)>
0.575387

$$$$
x2033
  -OEChem-05172015543D

 21 22  0     1  0  0  0  0  0999 V2000
   10.0624   -4.4829   24.9264 C   0  0  0  0  0  0  0  0  0  0  0  0
    9.4778   -5.2973   25.8958 C   0  0  0  0  0  0  0  0  0  0  0  0
    7.3961   -4.1250   25.6057 C   0  0  0  0  0  0  0  0  0  0  0  0
    9.3240   -3.4770   24.2721 C   0  0  0  0  0  0  0  0  0  0  0  0
    7.9693   -3.2970   24.6229 C   0  0  0  0  0  0  0  0  0  0  0  0
    8.1435   -5.1185   26.2354 C   0  0  0  0  0  0  0  0  0  0  0  0
   12.5300    1.5654   23.8371 C   0  0  0  0  0  0  0  0  0  0  0  0
   11.5116    0.7322   24.0713 C   0  0  0  0  0  0  0  0  0  0  0  0
   11.4503   -0.5907   23.3943 C   0  0  0  0  0  0  0  0  0  0  0  0
    5.9865   -3.2290   22.0257 C   0  0  0  0  0  0  0  0  0  0  0  0
    7.1037   -2.2377   23.9857 C   0  0  0  0  0  0  0  0  0  0  0  0
    9.3830   -2.5879   21.8540 C   0  0  0  0  0  0  0  0  0  0  0  0
    8.0712   -1.8117   21.7413 C   0  0  0  0  0  0  0  0  0  0  0  0
   10.0426   -2.6230   23.2442 C   0  0  1  0  0  0  0  0  0  0  0  0
    5.0608   -3.8715   23.0281 C   0  0  0  0  0  0  0  0  0  0  0  0
    7.0012   -2.4148   22.5384 N   0  0  0  0  0  0  0  0  0  0  0  0
   10.3253   -1.3058   23.7644 N   0  0  0  0  0  0  0  0  0  0  0  0
   12.3131   -0.9712   22.6095 O   0  0  0  0  0  0  0  0  0  0  0  0
    5.8153   -3.4423   20.8224 O   0  0  0  0  0  0  0  0  0  0  0  0
    7.5764   -5.8962   27.1667 F   0  0  0  0  0  0  0  0  0  0  0  0
    9.6784   -0.9237   24.4470 H   0  0  0  0  0  0  0  0  0  0  0  0
  1  2  2  0  0  0  0
  1  4  1  0  0  0  0
  2  6  1  0  0  0  0
  3  5  1  0  0  0  0
  3  6  2  0  0  0  0
  4  5  2  0  0  0  0
  4 14  1  0  0  0  0
  5 11  1  0  0  0  0
  6 20  1  0  0  0  0
  7  8  2  0  0  0  0
  8  9  1  0  0  0  0
  9 17  1  0  0  0  0
  9 18  2  0  0  0  0
 10 15  1  0  0  0  0
 10 16  1  0  0  0  0
 10 19  2  0  0  0  0
 11 16  1  0  0  0  0
 12 13  1  0  0  0  0
 12 14  1  0  0  0  0
 13 16  1  0  0  0  0
 14 17  1  0  0  0  0
 17 21  1  0  0  0  0
M  END
> <ref_mols>
x2033_0

> <original SMILES>
CC(=O)N1CCC(NC(=O)C=C)c2ccc(F)cc2C1

> <Chemgauss4>
-8.010679

> <ref_pdb>
x1392_0

$$$$
x2784
  -OEChem-05172015543D

 21 22  0     1  0  0  0  0  0999 V2000
   10.0624   -4.4829   24.9264 C   0  0  0  0  0  0  0  0  0  0  0  0
    9.4778   -5.2973   25.8958 C   0  0  0  0  0  0  0  0  0  0  0  0
    7.3961   -4.1250   25.6057 C   0  0  0  0  0  0  0  0  0  0  0  0
    9.3240   -3.4770   24.2721 C   0  0  0  0  0  0  0  0  0  0  0  0
    7.9693   -3.2970   24.6229 C   0  0  0  0  0  0  0  0  0  0  0  0
    8.1435   -5.1185   26.2354 C   0  0  0  0  0  0  0  0  0  0  0  0
   12.5300    1.5654   23.8371 C   0  0  0  0  0  0  0  0  0  0  0  0
   11.5116    0.7322   24.0713 C   0  0  0  0  0  0  0  0  0  0  0  0
   11.4503   -0.5907   23.3943 C   0  0  0  0  0  0  0  0  0  0  0  0
    5.9865   -3.2290   22.0257 C   0  0  0  0  0  0  0  0  0  0  0  0
    7.1037   -2.2377   23.9857 C   0  0  0  0  0  0  0  0  0  0  0  0
    9.3830   -2.5879   21.8540 C   0  0  0  0  0  0  0  0  0  0  0  0
    8.0712   -1.8117   21.7413 C   0  0  0  0  0  0  0  0  0  0  0  0
   10.0426   -2.6230   23.2442 C   0  0  1  0  0  0  0  0  0  0  0  0
    5.0608   -3.8715   23.0281 C   0  0  0  0  0  0  0  0  0  0  0  0
    7.0012   -2.4148   22.5384 N   0  0  0  0  0  0  0  0  0  0  0  0
   10.3253   -1.3058   23.7644 N   0  0  0  0  0  0  0  0  0  0  0  0
   12.3131   -0.9712   22.6095 O   0  0  0  0  0  0  0  0  0  0  0  0
    5.8153   -3.4423   20.8224 O   0  0  0  0  0  0  0  0  0  0  0  0
    7.5764   -5.8962   27.1667 F   0  0  0  0  0  0  0  0  0  0  0  0
    9.6784   -0.9237   24.4470 H   0  0  0  0  0  0  0  0  0  0  0  0
  1  2  2  0  0  0  0
  1  4  1  0  0  0  0
  2  6  1  0  0  0  0
  3  5  1  0  0  0  0
  3  6  2  0  0  0  0
  4  5  2  0  0  0  0
  4 14  1  0  0  0  0
  5 11  1  0  0  0  0
  6 20  1  0  0  0  0
  7  8  2  0  0  0  0
  8  9  1  0  0  0  0
  9 17  1  0  0  0  0
  9 18  2  0  0  0  0
 10 15  1  0  0  0  0
 10 16  1  0  0  0  0
 10 19  2  0  0  0  0
 11 16  1  0  0  0  0
 12 13  1  0  0  0  0
 12 14  1  0  0  0  0
 13 16  1  0  0  0  0
 14 17  1  0  0  0  0
 17 21  1  0  0  0  0
M  END
> <ref_mols>
x2784_0

> <original SMILES>
CC(=O)N1CCC(NC(=O)C=C)c2ccc(F)cc2C1

> <Chemgauss4>
-8.010679

> <ref_pdb>
x1392_0

$$$$
x0912
  -OEChem-05172015543D

 16 18  0     1  0  0  0  0  0999 V2000
   12.7390   -1.7652   25.8067 C   0  0  0  0  0  0  0  0  0  0  0  0
   12.9090   -2.6936   24.7798 C   0  0  0  0  0  0  0  0  0  0  0  0
   11.6105   -0.9455   25.8261 C   0  0  0  0  0  0  0  0  0  0  0  0
   11.9506   -2.8023   23.7721 C   0  0  0  0  0  0  0  0  0  0  0  0
   10.6522   -1.0542   24.8185 C   0  0  0  0  0  0  0  0  0  0  0  0
   10.8222   -1.9826   23.7915 C   0  0  0  0  0  0  0  0  0  0  0  0
    6.6475   -3.5775   21.4539 C   0  0  0  0  0  0  0  0  0  0  0  0
    8.6665   -5.7094   23.6485 C   0  0  0  0  0  0  0  0  0  0  0  0
    8.1527   -3.3223   24.6331 C   0  0  0  0  0  0  0  0  0  0  0  0
    8.0584   -5.4771   22.2576 C   0  0  0  0  0  0  0  0  0  0  0  0
    9.1171   -4.3521   24.1127 C   0  0  2  0  0  0  0  0  0  0  0  0
    8.5148   -3.3251   23.1697 C   0  0  1  0  0  0  0  0  0  0  0  0
    6.4092   -2.0890   21.4903 C   0  0  0  0  0  0  0  0  0  0  0  0
    7.7095   -4.0515   22.2063 N   0  0  0  0  0  0  0  0  0  0  0  0
    5.9156   -4.3003   20.7737 O   0  0  0  0  0  0  0  0  0  0  0  0
    9.6008   -2.1209   22.5064 S   0  0  0  0  0  0  0  0  0  0  0  0
  1  2  1  0  0  0  0
  1  3  2  0  0  0  0
  2  4  2  0  0  0  0
  3  5  1  0  0  0  0
  4  6  1  0  0  0  0
  5  6  2  0  0  0  0
  6 16  1  0  0  0  0
  7 13  1  0  0  0  0
  7 14  1  0  0  0  0
  7 15  2  0  0  0  0
  8 10  1  0  0  0  0
  8 11  1  0  0  0  0
  9 11  1  0  0  0  0
  9 12  1  0  0  0  0
 10 14  1  0  0  0  0
 11 12  1  0  0  0  0
 12 14  1  0  0  0  0
 12 16  1  0  0  0  0
M  END
> <ref_mols>
x0912_0

> <original SMILES>
O=C(N1CCC2C1(SC3=CC=CC=C3)C2)C

> <Chemgauss4>
-8.009000

> <ref_pdb>
x0749_0

$$$$
x0732
  -OEChem-05172015543D

 19 20  0     0  0  0  0  0  0999 V2000
   10.9412   -2.2418   22.4368 C   0  0  0  0  0  0  0  0  0  0  0  0
   11.6984   -1.0573   22.2049 C   0  0  0  0  0  0  0  0  0  0  0  0
   10.3465   -2.2408   23.6794 C   0  0  0  0  0  0  0  0  0  0  0  0
   11.6533   -0.1958   23.2791 C   0  0  0  0  0  0  0  0  0  0  0  0
    6.0249   -1.8524   19.9703 C   0  0  0  0  0  0  0  0  0  0  0  0
    7.2489   -1.3488   22.1265 C   0  0  0  0  0  0  0  0  0  0  0  0
    6.5905   -3.6745   21.5377 C   0  0  0  0  0  0  0  0  0  0  0  0
    7.2448   -1.9062   23.5439 C   0  0  0  0  0  0  0  0  0  0  0  0
    7.8253   -4.0451   22.3474 C   0  0  0  0  0  0  0  0  0  0  0  0
    6.0882   -0.3764   19.6633 C   0  0  0  0  0  0  0  0  0  0  0  0
    6.6001   -2.2572   21.1749 N   0  0  0  0  0  0  0  0  0  0  0  0
    7.8869   -3.2497   23.6046 N   0  0  0  0  0  0  0  0  0  0  0  0
    5.4801   -2.6184   19.1720 O   0  0  0  0  0  0  0  0  0  0  0  0
    9.8714   -4.7160   24.3282 O   0  0  0  0  0  0  0  0  0  0  0  0
    9.0682   -2.8812   25.8566 O   0  0  0  0  0  0  0  0  0  0  0  0
   10.7014   -0.8159   24.5604 S   0  0  0  0  0  0  0  0  0  0  0  0
    9.3144   -3.3953   24.5266 S   0  0  0  0  0  0  0  0  0  0  0  0
   12.4119    1.3331   23.4325 Cl  0  0  0  0  0  0  0  0  0  0  0  0
    6.1827   -0.2297   17.9119 Cl  0  0  0  0  0  0  0  0  0  0  0  0
  1  2  1  0  0  0  0
  1  3  2  0  0  0  0
  2  4  2  0  0  0  0
  3 16  1  0  0  0  0
  3 17  1  0  0  0  0
  4 16  1  0  0  0  0
  4 18  1  0  0  0  0
  5 10  1  0  0  0  0
  5 11  1  0  0  0  0
  5 13  2  0  0  0  0
  6  8  1  0  0  0  0
  6 11  1  0  0  0  0
  7  9  1  0  0  0  0
  7 11  1  0  0  0  0
  8 12  1  0  0  0  0
  9 12  1  0  0  0  0
 10 19  1  0  0  0  0
 12 17  1  0  0  0  0
 14 17  2  0  0  0  0
 15 17  2  0  0  0  0
M  END
> <ref_mols>
x0732_0

> <original SMILES>
ClCC(=O)N1CCN(CC1)S(=O)(=O)c2ccc(Cl)s2

> <Chemgauss4>
-8.008788

> <ref_pdb>
x1392_0

> <CYS145-warhead dist minimum (A)>
3.3877373

> <CYS145-warhead dist mean (A)>
9.284152

> <CYS145-warhead dist stddev (A)>
1.1366172

$$$$
x1402
  -OEChem-05172015543D

 19 20  0     0  0  0  0  0  0999 V2000
   10.9412   -2.2418   22.4368 C   0  0  0  0  0  0  0  0  0  0  0  0
   11.6984   -1.0573   22.2049 C   0  0  0  0  0  0  0  0  0  0  0  0
   10.3465   -2.2408   23.6794 C   0  0  0  0  0  0  0  0  0  0  0  0
   11.6533   -0.1958   23.2791 C   0  0  0  0  0  0  0  0  0  0  0  0
    6.0249   -1.8524   19.9703 C   0  0  0  0  0  0  0  0  0  0  0  0
    7.2489   -1.3488   22.1265 C   0  0  0  0  0  0  0  0  0  0  0  0
    6.5905   -3.6745   21.5377 C   0  0  0  0  0  0  0  0  0  0  0  0
    7.2448   -1.9062   23.5439 C   0  0  0  0  0  0  0  0  0  0  0  0
    7.8253   -4.0451   22.3474 C   0  0  0  0  0  0  0  0  0  0  0  0
    6.0882   -0.3764   19.6633 C   0  0  0  0  0  0  0  0  0  0  0  0
    6.6001   -2.2572   21.1749 N   0  0  0  0  0  0  0  0  0  0  0  0
    7.8869   -3.2497   23.6046 N   0  0  0  0  0  0  0  0  0  0  0  0
    5.4801   -2.6184   19.1720 O   0  0  0  0  0  0  0  0  0  0  0  0
    9.8714   -4.7160   24.3282 O   0  0  0  0  0  0  0  0  0  0  0  0
    9.0682   -2.8812   25.8566 O   0  0  0  0  0  0  0  0  0  0  0  0
   10.7014   -0.8159   24.5604 S   0  0  0  0  0  0  0  0  0  0  0  0
    9.3144   -3.3953   24.5266 S   0  0  0  0  0  0  0  0  0  0  0  0
   12.4119    1.3331   23.4325 Cl  0  0  0  0  0  0  0  0  0  0  0  0
    6.1827   -0.2297   17.9119 Cl  0  0  0  0  0  0  0  0  0  0  0  0
  1  2  1  0  0  0  0
  1  3  2  0  0  0  0
  2  4  2  0  0  0  0
  3 16  1  0  0  0  0
  3 17  1  0  0  0  0
  4 16  1  0  0  0  0
  4 18  1  0  0  0  0
  5 10  1  0  0  0  0
  5 11  1  0  0  0  0
  5 13  2  0  0  0  0
  6  8  1  0  0  0  0
  6 11  1  0  0  0  0
  7  9  1  0  0  0  0
  7 11  1  0  0  0  0
  8 12  1  0  0  0  0
  9 12  1  0  0  0  0
 10 19  1  0  0  0  0
 12 17  1  0  0  0  0
 14 17  2  0  0  0  0
 15 17  2  0  0  0  0
M  END
> <ref_mols>
x1402_0

> <original SMILES>
ClCC(=O)N1CCN(CC1)S(=O)(=O)c2ccc(Cl)s2

> <Chemgauss4>
-8.008788

> <ref_pdb>
x1392_0

$$$$
x0806
  -OEChem-05172015543D

 19 20  0     0  0  0  0  0  0999 V2000
   10.9412   -2.2418   22.4368 C   0  0  0  0  0  0  0  0  0  0  0  0
   11.6984   -1.0573   22.2049 C   0  0  0  0  0  0  0  0  0  0  0  0
   10.3465   -2.2408   23.6794 C   0  0  0  0  0  0  0  0  0  0  0  0
   11.6533   -0.1958   23.2791 C   0  0  0  0  0  0  0  0  0  0  0  0
    6.0249   -1.8524   19.9703 C   0  0  0  0  0  0  0  0  0  0  0  0
    7.2489   -1.3488   22.1265 C   0  0  0  0  0  0  0  0  0  0  0  0
    6.5905   -3.6745   21.5377 C   0  0  0  0  0  0  0  0  0  0  0  0
    7.2448   -1.9062   23.5439 C   0  0  0  0  0  0  0  0  0  0  0  0
    7.8253   -4.0451   22.3474 C   0  0  0  0  0  0  0  0  0  0  0  0
    6.0882   -0.3764   19.6633 C   0  0  0  0  0  0  0  0  0  0  0  0
    6.6001   -2.2572   21.1749 N   0  0  0  0  0  0  0  0  0  0  0  0
    7.8869   -3.2497   23.6046 N   0  0  0  0  0  0  0  0  0  0  0  0
    5.4801   -2.6184   19.1720 O   0  0  0  0  0  0  0  0  0  0  0  0
    9.8714   -4.7160   24.3282 O   0  0  0  0  0  0  0  0  0  0  0  0
    9.0682   -2.8812   25.8566 O   0  0  0  0  0  0  0  0  0  0  0  0
   10.7014   -0.8159   24.5604 S   0  0  0  0  0  0  0  0  0  0  0  0
    9.3144   -3.3953   24.5266 S   0  0  0  0  0  0  0  0  0  0  0  0
   12.4119    1.3331   23.4325 Cl  0  0  0  0  0  0  0  0  0  0  0  0
    6.1827   -0.2297   17.9119 Cl  0  0  0  0  0  0  0  0  0  0  0  0
  1  2  1  0  0  0  0
  1  3  2  0  0  0  0
  2  4  2  0  0  0  0
  3 16  1  0  0  0  0
  3 17  1  0  0  0  0
  4 16  1  0  0  0  0
  4 18  1  0  0  0  0
  5 10  1  0  0  0  0
  5 11  1  0  0  0  0
  5 13  2  0  0  0  0
  6  8  1  0  0  0  0
  6 11  1  0  0  0  0
  7  9  1  0  0  0  0
  7 11  1  0  0  0  0
  8 12  1  0  0  0  0
  9 12  1  0  0  0  0
 10 19  1  0  0  0  0
 12 17  1  0  0  0  0
 14 17  2  0  0  0  0
 15 17  2  0  0  0  0
M  END
> <ref_mols>
x0806_0

> <original SMILES>
ClCC(=O)N1CCN(CC1)S(=O)(=O)c2ccc(Cl)s2

> <Chemgauss4>
-8.008788

> <ref_pdb>
x1392_0

$$$$
x1377
  -OEChem-05172015543D

 19 20  0     0  0  0  0  0  0999 V2000
   10.9412   -2.2418   22.4368 C   0  0  0  0  0  0  0  0  0  0  0  0
   11.6984   -1.0573   22.2049 C   0  0  0  0  0  0  0  0  0  0  0  0
   10.3465   -2.2408   23.6794 C   0  0  0  0  0  0  0  0  0  0  0  0
   11.6533   -0.1958   23.2791 C   0  0  0  0  0  0  0  0  0  0  0  0
    6.0249   -1.8524   19.9703 C   0  0  0  0  0  0  0  0  0  0  0  0
    7.2489   -1.3488   22.1265 C   0  0  0  0  0  0  0  0  0  0  0  0
    6.5905   -3.6745   21.5377 C   0  0  0  0  0  0  0  0  0  0  0  0
    7.2448   -1.9062   23.5439 C   0  0  0  0  0  0  0  0  0  0  0  0
    7.8253   -4.0451   22.3474 C   0  0  0  0  0  0  0  0  0  0  0  0
    6.0882   -0.3764   19.6633 C   0  0  0  0  0  0  0  0  0  0  0  0
    6.6001   -2.2572   21.1749 N   0  0  0  0  0  0  0  0  0  0  0  0
    7.8869   -3.2497   23.6046 N   0  0  0  0  0  0  0  0  0  0  0  0
    5.4801   -2.6184   19.1720 O   0  0  0  0  0  0  0  0  0  0  0  0
    9.8714   -4.7160   24.3282 O   0  0  0  0  0  0  0  0  0  0  0  0
    9.0682   -2.8812   25.8566 O   0  0  0  0  0  0  0  0  0  0  0  0
   10.7014   -0.8159   24.5604 S   0  0  0  0  0  0  0  0  0  0  0  0
    9.3144   -3.3953   24.5266 S   0  0  0  0  0  0  0  0  0  0  0  0
   12.4119    1.3331   23.4325 Cl  0  0  0  0  0  0  0  0  0  0  0  0
    6.1827   -0.2297   17.9119 Cl  0  0  0  0  0  0  0  0  0  0  0  0
  1  2  1  0  0  0  0
  1  3  2  0  0  0  0
  2  4  2  0  0  0  0
  3 16  1  0  0  0  0
  3 17  1  0  0  0  0
  4 16  1  0  0  0  0
  4 18  1  0  0  0  0
  5 10  1  0  0  0  0
  5 11  1  0  0  0  0
  5 13  2  0  0  0  0
  6  8  1  0  0  0  0
  6 11  1  0  0  0  0
  7  9  1  0  0  0  0
  7 11  1  0  0  0  0
  8 12  1  0  0  0  0
  9 12  1  0  0  0  0
 10 19  1  0  0  0  0
 12 17  1  0  0  0  0
 14 17  2  0  0  0  0
 15 17  2  0  0  0  0
M  END
> <ref_mols>
x1377_0

> <original SMILES>
ClCC(=O)N1CCN(CC1)S(=O)(=O)c2ccc(Cl)s2

> <Chemgauss4>
-8.008788

> <ref_pdb>
x1392_0

$$$$
x1429
  -OEChem-05172015543D

 19 20  0     0  0  0  0  0  0999 V2000
   10.9412   -2.2418   22.4368 C   0  0  0  0  0  0  0  0  0  0  0  0
   11.6984   -1.0573   22.2049 C   0  0  0  0  0  0  0  0  0  0  0  0
   10.3465   -2.2408   23.6794 C   0  0  0  0  0  0  0  0  0  0  0  0
   11.6533   -0.1958   23.2791 C   0  0  0  0  0  0  0  0  0  0  0  0
    6.0249   -1.8524   19.9703 C   0  0  0  0  0  0  0  0  0  0  0  0
    7.2489   -1.3488   22.1265 C   0  0  0  0  0  0  0  0  0  0  0  0
    6.5905   -3.6745   21.5377 C   0  0  0  0  0  0  0  0  0  0  0  0
    7.2448   -1.9062   23.5439 C   0  0  0  0  0  0  0  0  0  0  0  0
    7.8253   -4.0451   22.3474 C   0  0  0  0  0  0  0  0  0  0  0  0
    6.0882   -0.3764   19.6633 C   0  0  0  0  0  0  0  0  0  0  0  0
    6.6001   -2.2572   21.1749 N   0  0  0  0  0  0  0  0  0  0  0  0
    7.8869   -3.2497   23.6046 N   0  0  0  0  0  0  0  0  0  0  0  0
    5.4801   -2.6184   19.1720 O   0  0  0  0  0  0  0  0  0  0  0  0
    9.8714   -4.7160   24.3282 O   0  0  0  0  0  0  0  0  0  0  0  0
    9.0682   -2.8812   25.8566 O   0  0  0  0  0  0  0  0  0  0  0  0
   10.7014   -0.8159   24.5604 S   0  0  0  0  0  0  0  0  0  0  0  0
    9.3144   -3.3953   24.5266 S   0  0  0  0  0  0  0  0  0  0  0  0
   12.4119    1.3331   23.4325 Cl  0  0  0  0  0  0  0  0  0  0  0  0
    6.1827   -0.2297   17.9119 Cl  0  0  0  0  0  0  0  0  0  0  0  0
  1  2  1  0  0  0  0
  1  3  2  0  0  0  0
  2  4  2  0  0  0  0
  3 16  1  0  0  0  0
  3 17  1  0  0  0  0
  4 16  1  0  0  0  0
  4 18  1  0  0  0  0
  5 10  1  0  0  0  0
  5 11  1  0  0  0  0
  5 13  2  0  0  0  0
  6  8  1  0  0  0  0
  6 11  1  0  0  0  0
  7  9  1  0  0  0  0
  7 11  1  0  0  0  0
  8 12  1  0  0  0  0
  9 12  1  0  0  0  0
 10 19  1  0  0  0  0
 12 17  1  0  0  0  0
 14 17  2  0  0  0  0
 15 17  2  0  0  0  0
M  END
> <ref_mols>
x1429_0

> <original SMILES>
ClCC(=O)N1CCN(CC1)S(=O)(=O)c2ccc(Cl)s2

> <Chemgauss4>
-8.008788

> <ref_pdb>
x1392_0

$$$$
x1480
  -OEChem-05172015543D

 19 20  0     0  0  0  0  0  0999 V2000
   10.9412   -2.2418   22.4368 C   0  0  0  0  0  0  0  0  0  0  0  0
   11.6984   -1.0573   22.2049 C   0  0  0  0  0  0  0  0  0  0  0  0
   10.3465   -2.2408   23.6794 C   0  0  0  0  0  0  0  0  0  0  0  0
   11.6533   -0.1958   23.2791 C   0  0  0  0  0  0  0  0  0  0  0  0
    6.0249   -1.8524   19.9703 C   0  0  0  0  0  0  0  0  0  0  0  0
    7.2489   -1.3488   22.1265 C   0  0  0  0  0  0  0  0  0  0  0  0
    6.5905   -3.6745   21.5377 C   0  0  0  0  0  0  0  0  0  0  0  0
    7.2448   -1.9062   23.5439 C   0  0  0  0  0  0  0  0  0  0  0  0
    7.8253   -4.0451   22.3474 C   0  0  0  0  0  0  0  0  0  0  0  0
    6.0882   -0.3764   19.6633 C   0  0  0  0  0  0  0  0  0  0  0  0
    6.6001   -2.2572   21.1749 N   0  0  0  0  0  0  0  0  0  0  0  0
    7.8869   -3.2497   23.6046 N   0  0  0  0  0  0  0  0  0  0  0  0
    5.4801   -2.6184   19.1720 O   0  0  0  0  0  0  0  0  0  0  0  0
    9.8714   -4.7160   24.3282 O   0  0  0  0  0  0  0  0  0  0  0  0
    9.0682   -2.8812   25.8566 O   0  0  0  0  0  0  0  0  0  0  0  0
   10.7014   -0.8159   24.5604 S   0  0  0  0  0  0  0  0  0  0  0  0
    9.3144   -3.3953   24.5266 S   0  0  0  0  0  0  0  0  0  0  0  0
   12.4119    1.3331   23.4325 Cl  0  0  0  0  0  0  0  0  0  0  0  0
    6.1827   -0.2297   17.9119 Cl  0  0  0  0  0  0  0  0  0  0  0  0
  1  2  1  0  0  0  0
  1  3  2  0  0  0  0
  2  4  2  0  0  0  0
  3 16  1  0  0  0  0
  3 17  1  0  0  0  0
  4 16  1  0  0  0  0
  4 18  1  0  0  0  0
  5 10  1  0  0  0  0
  5 11  1  0  0  0  0
  5 13  2  0  0  0  0
  6  8  1  0  0  0  0
  6 11  1  0  0  0  0
  7  9  1  0  0  0  0
  7 11  1  0  0  0  0
  8 12  1  0  0  0  0
  9 12  1  0  0  0  0
 10 19  1  0  0  0  0
 12 17  1  0  0  0  0
 14 17  2  0  0  0  0
 15 17  2  0  0  0  0
M  END
> <ref_mols>
x1480_0

> <original SMILES>
ClCC(=O)N1CCN(CC1)S(=O)(=O)c2ccc(Cl)s2

> <Chemgauss4>
-8.008788

> <ref_pdb>
x1392_0

> <CYS145-warhead dist minimum (A)>
11.224754

> <CYS145-warhead dist mean (A)>
11.927693

> <CYS145-warhead dist stddev (A)>
0.31091726

$$$$
x0911
  -OEChem-05172015543D

 19 20  0     1  0  0  0  0  0999 V2000
   10.3532   -2.5095   23.7939 C   0  0  0  0  0  0  0  0  0  0  0  0
   10.4378   -4.5159   25.1371 C   0  0  0  0  0  0  0  0  0  0  0  0
   11.6265   -2.1565   24.2407 C   0  0  0  0  0  0  0  0  0  0  0  0
   11.7112   -4.1630   25.5840 C   0  0  0  0  0  0  0  0  0  0  0  0
    9.7588   -3.6891   24.2421 C   0  0  0  0  0  0  0  0  0  0  0  0
   12.3055   -2.9833   25.1358 C   0  0  0  0  0  0  0  0  0  0  0  0
    7.9618   -2.9385   22.8034 C   0  0  0  0  0  0  0  0  0  0  0  0
    7.0029   -5.9018   22.5431 C   0  0  0  0  0  0  0  0  0  0  0  0
    8.3862   -5.4146   22.9825 C   0  0  0  0  0  0  0  0  0  0  0  0
    6.0130   -5.9163   23.6910 C   0  0  0  0  0  0  0  0  0  0  0  0
    7.2799   -4.0958   24.8473 C   0  0  0  0  0  0  0  0  0  0  0  0
    8.3600   -4.0776   23.7517 C   0  0  1  0  0  0  0  0  0  0  0  0
   13.6677   -2.6061   25.6118 C   0  0  0  0  0  0  0  0  0  0  0  0
    6.8926   -0.8322   22.7409 C   0  0  0  0  0  0  0  0  0  0  0  0
    5.9661   -4.5584   24.3004 N   0  3  0  0  0  0  0  0  0  0  0  0
    8.1964   -2.9332   21.6025 O   0  0  0  0  0  0  0  0  0  0  0  0
    7.3214   -1.9622   23.5073 O   0  0  0  0  0  0  0  0  0  0  0  0
    5.6208   -3.8797   23.6073 H   0  0  0  0  0  0  0  0  0  0  0  0
    5.2699   -4.5551   25.0585 H   0  0  0  0  0  0  0  0  0  0  0  0
  1  3  1  0  0  0  0
  1  5  2  0  0  0  0
  2  4  2  0  0  0  0
  2  5  1  0  0  0  0
  3  6  2  0  0  0  0
  4  6  1  0  0  0  0
  5 12  1  0  0  0  0
  6 13  1  0  0  0  0
  7 12  1  0  0  0  0
  7 16  2  0  0  0  0
  7 17  1  0  0  0  0
  8  9  1  0  0  0  0
  8 10  1  0  0  0  0
  9 12  1  0  0  0  0
 10 15  1  0  0  0  0
 11 12  1  0  0  0  0
 11 15  1  0  0  0  0
 14 17  1  0  0  0  0
 15 18  1  0  0  0  0
 15 19  1  0  0  0  0
M  CHG  1  15   1
M  END
> <ref_mols>
x0911_0

> <original SMILES>
CC(C=C1)=CC=C1C2(C(OC)=O)CNCCC2

> <Chemgauss4>
-8.008082

> <ref_pdb>
x0749_0

$$$$
x0467
  -OEChem-05172015543D

 15 15  0     0  0  0  0  0  0999 V2000
   11.9397    0.6868   23.3540 C   0  0  0  0  0  0  0  0  0  0  0  0
   10.1241    2.2454   22.7252 C   0  0  0  0  0  0  0  0  0  0  0  0
   12.4485    3.0445   22.5474 C   0  0  0  0  0  0  0  0  0  0  0  0
    9.7257    3.5079   23.4754 C   0  0  0  0  0  0  0  0  0  0  0  0
   12.0844    4.3208   23.2938 C   0  0  0  0  0  0  0  0  0  0  0  0
   11.8360   -1.4566   22.1077 C   0  0  0  0  0  0  0  0  0  0  0  0
   10.4911   -1.1491   24.2089 C   0  0  0  0  0  0  0  0  0  0  0  0
    9.8601    5.6837   25.1289 C   0  0  0  0  0  0  0  0  0  0  0  0
    9.0684    6.5298   22.8858 C   0  0  0  0  0  0  0  0  0  0  0  0
   11.0556   -0.4717   22.9670 C   0  0  0  0  0  0  0  0  0  0  0  0
   10.2275    5.9457   23.6772 C   0  0  0  0  0  0  0  0  0  0  0  0
   11.5443    1.9487   22.9124 N   0  0  0  0  0  0  0  0  0  0  0  0
   10.6279    4.6427   23.0445 N   0  3  0  0  0  0  0  0  0  0  0  0
   12.9520    0.4744   24.0264 O   0  0  0  0  0  0  0  0  0  0  0  0
   10.5094    4.7618   22.0289 H   0  0  0  0  0  0  0  0  0  0  0  0
  1 10  1  0  0  0  0
  1 12  1  0  0  0  0
  1 14  2  0  0  0  0
  2  4  1  0  0  0  0
  2 12  1  0  0  0  0
  3  5  1  0  0  0  0
  3 12  1  0  0  0  0
  4 13  1  0  0  0  0
  5 13  1  0  0  0  0
  6 10  1  0  0  0  0
  7 10  1  0  0  0  0
  8 11  1  0  0  0  0
  9 11  1  0  0  0  0
 11 13  1  0  0  0  0
 13 15  1  0  0  0  0
M  CHG  1  13   1
M  END
> <ref_mols>
x0467_0

> <original SMILES>
CC(C)N1CCN(CC1)C(=O)C(C)C

> <Chemgauss4>
-8.001329

> <ref_pdb>
x0104_0

$$$$
x0580
  -OEChem-05172015543D

 15 16  0     0  0  0  0  0  0999 V2000
   12.4953   -3.3681   25.9906 C   0  0  0  0  0  0  0  0  0  0  0  0
   11.5925   -3.1241   24.9769 C   0  0  0  0  0  0  0  0  0  0  0  0
   12.6613   -1.2094   24.9347 C   0  0  0  0  0  0  0  0  0  0  0  0
    9.3256   -3.3594   23.9606 C   0  0  0  0  0  0  0  0  0  0  0  0
    7.0576   -3.5450   22.9897 C   0  0  0  0  0  0  0  0  0  0  0  0
    8.1970   -5.6183   23.6651 C   0  0  0  0  0  0  0  0  0  0  0  0
    6.6175   -4.2586   21.7194 C   0  0  0  0  0  0  0  0  0  0  0  0
    7.7045   -6.2476   22.3680 C   0  0  0  0  0  0  0  0  0  0  0  0
   13.0603    0.1617   24.5492 C   0  0  0  0  0  0  0  0  0  0  0  0
   10.5401   -4.0768   24.4931 C   0  0  0  0  0  0  0  0  0  0  0  0
   11.6859   -1.8866   24.3706 N   0  0  0  0  0  0  0  0  0  0  0  0
    8.2719   -4.1601   23.5254 N   0  0  0  0  0  0  0  0  0  0  0  0
    9.3164   -2.1263   23.9291 O   0  0  0  0  0  0  0  0  0  0  0  0
    6.4645   -5.6586   21.9672 O   0  0  0  0  0  0  0  0  0  0  0  0
   13.5085   -2.0003   26.2003 S   0  0  0  0  0  0  0  0  0  0  0  0
  1  2  2  0  0  0  0
  1 15  1  0  0  0  0
  2 10  1  0  0  0  0
  2 11  1  0  0  0  0
  3  9  1  0  0  0  0
  3 11  2  0  0  0  0
  3 15  1  0  0  0  0
  4 10  1  0  0  0  0
  4 12  1  0  0  0  0
  4 13  2  0  0  0  0
  5  7  1  0  0  0  0
  5 12  1  0  0  0  0
  6  8  1  0  0  0  0
  6 12  1  0  0  0  0
  7 14  1  0  0  0  0
  8 14  1  0  0  0  0
M  END
> <ref_mols>
x0580_0

> <original SMILES>
CC1=NC(CC(=O)N2CCOCC2)=CS1

> <Chemgauss4>
-8.000721

> <ref_pdb>
x0749_0

$$$$
x1495
  -OEChem-05172015543D

 20 21  0     0  0  0  0  0  0999 V2000
    8.7413   -3.2232   23.9865 C   0  0  0  0  0  0  0  0  0  0  0  0
   10.0751   -2.8162   23.9536 C   0  0  0  0  0  0  0  0  0  0  0  0
    7.8433   -2.7477   23.0309 C   0  0  0  0  0  0  0  0  0  0  0  0
    9.6127   -1.4582   22.0096 C   0  0  0  0  0  0  0  0  0  0  0  0
   10.5108   -1.9337   22.9652 C   0  0  0  0  0  0  0  0  0  0  0  0
    8.2790   -1.8652   22.0425 C   0  0  0  0  0  0  0  0  0  0  0  0
   11.9144   -1.5064   22.9318 C   0  0  0  0  0  0  0  0  0  0  0  0
    6.2657   -2.0658   20.6041 C   0  0  0  0  0  0  0  0  0  0  0  0
   13.3630    0.5582   23.2979 C   0  0  0  0  0  0  0  0  0  0  0  0
   11.4865    0.0303   24.8199 C   0  0  0  0  0  0  0  0  0  0  0  0
   12.8264    1.9188   22.8696 C   0  0  0  0  0  0  0  0  0  0  0  0
   10.7306    1.3304   24.5721 C   0  0  0  0  0  0  0  0  0  0  0  0
    5.5176   -1.2506   19.5748 C   0  0  0  0  0  0  0  0  0  0  0  0
   12.2714   -0.3603   23.6484 N   0  0  0  0  0  0  0  0  0  0  0  0
    7.3806   -1.3900   21.0866 N   0  0  0  0  0  0  0  0  0  0  0  0
   12.6782   -2.2075   22.2699 O   0  0  0  0  0  0  0  0  0  0  0  0
    5.8753   -3.1911   20.9029 O   0  0  0  0  0  0  0  0  0  0  0  0
   11.8690    2.7045   24.2056 S   0  0  0  0  0  0  0  0  0  0  0  0
    6.1887   -1.6425   17.9837 Cl  0  0  0  0  0  0  0  0  0  0  0  0
    7.5581   -0.4619   20.7071 H   0  0  0  0  0  0  0  0  0  0  0  0
  1  2  1  0  0  0  0
  1  3  2  0  0  0  0
  2  5  2  0  0  0  0
  3  6  1  0  0  0  0
  4  5  1  0  0  0  0
  4  6  2  0  0  0  0
  5  7  1  0  0  0  0
  6 15  1  0  0  0  0
  7 14  1  0  0  0  0
  7 16  2  0  0  0  0
  8 13  1  0  0  0  0
  8 15  1  0  0  0  0
  8 17  2  0  0  0  0
  9 11  1  0  0  0  0
  9 14  1  0  0  0  0
 10 12  1  0  0  0  0
 10 14  1  0  0  0  0
 11 18  1  0  0  0  0
 12 18  1  0  0  0  0
 13 19  1  0  0  0  0
 15 20  1  0  0  0  0
M  END
> <ref_mols>
x1495_0

> <original SMILES>
ClCC(=O)Nc1cccc(c1)C(=O)N2CCSCC2

> <Chemgauss4>
-7.999418

> <ref_pdb>
x0831_0

> <CYS145-warhead dist minimum (A)>
4.5636525

> <CYS145-warhead dist mean (A)>
6.145582

> <CYS145-warhead dist stddev (A)>
0.64229316

$$$$
x1394
  -OEChem-05172015543D

 20 21  0     0  0  0  0  0  0999 V2000
    8.7413   -3.2232   23.9865 C   0  0  0  0  0  0  0  0  0  0  0  0
   10.0751   -2.8162   23.9536 C   0  0  0  0  0  0  0  0  0  0  0  0
    7.8433   -2.7477   23.0309 C   0  0  0  0  0  0  0  0  0  0  0  0
    9.6127   -1.4582   22.0096 C   0  0  0  0  0  0  0  0  0  0  0  0
   10.5108   -1.9337   22.9652 C   0  0  0  0  0  0  0  0  0  0  0  0
    8.2790   -1.8652   22.0425 C   0  0  0  0  0  0  0  0  0  0  0  0
   11.9144   -1.5064   22.9318 C   0  0  0  0  0  0  0  0  0  0  0  0
    6.2657   -2.0658   20.6041 C   0  0  0  0  0  0  0  0  0  0  0  0
   13.3630    0.5582   23.2979 C   0  0  0  0  0  0  0  0  0  0  0  0
   11.4865    0.0303   24.8199 C   0  0  0  0  0  0  0  0  0  0  0  0
   12.8264    1.9188   22.8696 C   0  0  0  0  0  0  0  0  0  0  0  0
   10.7306    1.3304   24.5721 C   0  0  0  0  0  0  0  0  0  0  0  0
    5.5176   -1.2506   19.5748 C   0  0  0  0  0  0  0  0  0  0  0  0
   12.2714   -0.3603   23.6484 N   0  0  0  0  0  0  0  0  0  0  0  0
    7.3806   -1.3900   21.0866 N   0  0  0  0  0  0  0  0  0  0  0  0
   12.6782   -2.2075   22.2699 O   0  0  0  0  0  0  0  0  0  0  0  0
    5.8753   -3.1911   20.9029 O   0  0  0  0  0  0  0  0  0  0  0  0
   11.8690    2.7045   24.2056 S   0  0  0  0  0  0  0  0  0  0  0  0
    6.1887   -1.6425   17.9837 Cl  0  0  0  0  0  0  0  0  0  0  0  0
    7.5581   -0.4619   20.7071 H   0  0  0  0  0  0  0  0  0  0  0  0
  1  2  1  0  0  0  0
  1  3  2  0  0  0  0
  2  5  2  0  0  0  0
  3  6  1  0  0  0  0
  4  5  1  0  0  0  0
  4  6  2  0  0  0  0
  5  7  1  0  0  0  0
  6 15  1  0  0  0  0
  7 14  1  0  0  0  0
  7 16  2  0  0  0  0
  8 13  1  0  0  0  0
  8 15  1  0  0  0  0
  8 17  2  0  0  0  0
  9 11  1  0  0  0  0
  9 14  1  0  0  0  0
 10 12  1  0  0  0  0
 10 14  1  0  0  0  0
 11 18  1  0  0  0  0
 12 18  1  0  0  0  0
 13 19  1  0  0  0  0
 15 20  1  0  0  0  0
M  END
> <ref_mols>
x1394_0

> <original SMILES>
ClCC(=O)Nc1cccc(c1)C(=O)N2CCSCC2

> <Chemgauss4>
-7.999418

> <ref_pdb>
x0831_0

$$$$
x0712
  -OEChem-05172015543D

 20 21  0     0  0  0  0  0  0999 V2000
    8.7413   -3.2232   23.9865 C   0  0  0  0  0  0  0  0  0  0  0  0
   10.0751   -2.8162   23.9536 C   0  0  0  0  0  0  0  0  0  0  0  0
    7.8433   -2.7477   23.0309 C   0  0  0  0  0  0  0  0  0  0  0  0
    9.6127   -1.4582   22.0096 C   0  0  0  0  0  0  0  0  0  0  0  0
   10.5108   -1.9337   22.9652 C   0  0  0  0  0  0  0  0  0  0  0  0
    8.2790   -1.8652   22.0425 C   0  0  0  0  0  0  0  0  0  0  0  0
   11.9144   -1.5064   22.9318 C   0  0  0  0  0  0  0  0  0  0  0  0
    6.2657   -2.0658   20.6041 C   0  0  0  0  0  0  0  0  0  0  0  0
   13.3630    0.5582   23.2979 C   0  0  0  0  0  0  0  0  0  0  0  0
   11.4865    0.0303   24.8199 C   0  0  0  0  0  0  0  0  0  0  0  0
   12.8264    1.9188   22.8696 C   0  0  0  0  0  0  0  0  0  0  0  0
   10.7306    1.3304   24.5721 C   0  0  0  0  0  0  0  0  0  0  0  0
    5.5176   -1.2506   19.5748 C   0  0  0  0  0  0  0  0  0  0  0  0
   12.2714   -0.3603   23.6484 N   0  0  0  0  0  0  0  0  0  0  0  0
    7.3806   -1.3900   21.0866 N   0  0  0  0  0  0  0  0  0  0  0  0
   12.6782   -2.2075   22.2699 O   0  0  0  0  0  0  0  0  0  0  0  0
    5.8753   -3.1911   20.9029 O   0  0  0  0  0  0  0  0  0  0  0  0
   11.8690    2.7045   24.2056 S   0  0  0  0  0  0  0  0  0  0  0  0
    6.1887   -1.6425   17.9837 Cl  0  0  0  0  0  0  0  0  0  0  0  0
    7.5581   -0.4619   20.7071 H   0  0  0  0  0  0  0  0  0  0  0  0
  1  2  1  0  0  0  0
  1  3  2  0  0  0  0
  2  5  2  0  0  0  0
  3  6  1  0  0  0  0
  4  5  1  0  0  0  0
  4  6  2  0  0  0  0
  5  7  1  0  0  0  0
  6 15  1  0  0  0  0
  7 14  1  0  0  0  0
  7 16  2  0  0  0  0
  8 13  1  0  0  0  0
  8 15  1  0  0  0  0
  8 17  2  0  0  0  0
  9 11  1  0  0  0  0
  9 14  1  0  0  0  0
 10 12  1  0  0  0  0
 10 14  1  0  0  0  0
 11 18  1  0  0  0  0
 12 18  1  0  0  0  0
 13 19  1  0  0  0  0
 15 20  1  0  0  0  0
M  END
> <ref_mols>
x0712_0

> <original SMILES>
ClCC(=O)Nc1cccc(c1)C(=O)N2CCSCC2

> <Chemgauss4>
-7.999418

> <ref_pdb>
x0831_0

> <CYS145-warhead dist minimum (A)>
44.180367

> <CYS145-warhead dist mean (A)>
47.35748

> <CYS145-warhead dist stddev (A)>
1.3105394

$$$$
x0786
  -OEChem-05172015543D

 20 21  0     0  0  0  0  0  0999 V2000
    8.7413   -3.2232   23.9865 C   0  0  0  0  0  0  0  0  0  0  0  0
   10.0751   -2.8162   23.9536 C   0  0  0  0  0  0  0  0  0  0  0  0
    7.8433   -2.7477   23.0309 C   0  0  0  0  0  0  0  0  0  0  0  0
    9.6127   -1.4582   22.0096 C   0  0  0  0  0  0  0  0  0  0  0  0
   10.5108   -1.9337   22.9652 C   0  0  0  0  0  0  0  0  0  0  0  0
    8.2790   -1.8652   22.0425 C   0  0  0  0  0  0  0  0  0  0  0  0
   11.9144   -1.5064   22.9318 C   0  0  0  0  0  0  0  0  0  0  0  0
    6.2657   -2.0658   20.6041 C   0  0  0  0  0  0  0  0  0  0  0  0
   13.3630    0.5582   23.2979 C   0  0  0  0  0  0  0  0  0  0  0  0
   11.4865    0.0303   24.8199 C   0  0  0  0  0  0  0  0  0  0  0  0
   12.8264    1.9188   22.8696 C   0  0  0  0  0  0  0  0  0  0  0  0
   10.7306    1.3304   24.5721 C   0  0  0  0  0  0  0  0  0  0  0  0
    5.5176   -1.2506   19.5748 C   0  0  0  0  0  0  0  0  0  0  0  0
   12.2714   -0.3603   23.6484 N   0  0  0  0  0  0  0  0  0  0  0  0
    7.3806   -1.3900   21.0866 N   0  0  0  0  0  0  0  0  0  0  0  0
   12.6782   -2.2075   22.2699 O   0  0  0  0  0  0  0  0  0  0  0  0
    5.8753   -3.1911   20.9029 O   0  0  0  0  0  0  0  0  0  0  0  0
   11.8690    2.7045   24.2056 S   0  0  0  0  0  0  0  0  0  0  0  0
    6.1887   -1.6425   17.9837 Cl  0  0  0  0  0  0  0  0  0  0  0  0
    7.5581   -0.4619   20.7071 H   0  0  0  0  0  0  0  0  0  0  0  0
  1  2  1  0  0  0  0
  1  3  2  0  0  0  0
  2  5  2  0  0  0  0
  3  6  1  0  0  0  0
  4  5  1  0  0  0  0
  4  6  2  0  0  0  0
  5  7  1  0  0  0  0
  6 15  1  0  0  0  0
  7 14  1  0  0  0  0
  7 16  2  0  0  0  0
  8 13  1  0  0  0  0
  8 15  1  0  0  0  0
  8 17  2  0  0  0  0
  9 11  1  0  0  0  0
  9 14  1  0  0  0  0
 10 12  1  0  0  0  0
 10 14  1  0  0  0  0
 11 18  1  0  0  0  0
 12 18  1  0  0  0  0
 13 19  1  0  0  0  0
 15 20  1  0  0  0  0
M  END
> <ref_mols>
x0786_0

> <original SMILES>
ClCC(=O)Nc1cccc(c1)C(=O)N2CCSCC2

> <Chemgauss4>
-7.999418

> <ref_pdb>
x0831_0

$$$$
x1126
  -OEChem-05172015543D

 17 17  0     1  0  0  0  0  0999 V2000
   12.9593   -0.6027   25.6464 C   0  0  0  0  0  0  0  0  0  0  0  0
   13.4748   -1.8361   26.0445 C   0  0  0  0  0  0  0  0  0  0  0  0
   11.7822   -0.5468   24.9000 C   0  0  0  0  0  0  0  0  0  0  0  0
   12.8133   -3.0137   25.6961 C   0  0  0  0  0  0  0  0  0  0  0  0
   11.1207   -1.7244   24.5516 C   0  0  0  0  0  0  0  0  0  0  0  0
   11.6363   -2.9578   24.9497 C   0  0  0  0  0  0  0  0  0  0  0  0
    9.5952   -4.3388   24.3950 C   0  0  0  0  0  0  0  0  0  0  0  0
    8.2131   -4.7075   21.7506 C   0  0  0  0  0  0  0  0  0  0  0  0
    8.0022   -6.1674   23.7889 C   0  0  0  0  0  0  0  0  0  0  0  0
    7.6858   -6.0253   22.3021 C   0  0  1  0  0  0  0  0  0  0  0  0
   10.9656   -4.1520   24.5967 N   0  0  0  0  0  0  0  0  0  0  0  0
    9.3326   -5.6700   24.0576 N   0  0  0  0  0  0  0  0  0  0  0  0
    8.7176   -3.4841   24.4901 O   0  0  0  0  0  0  0  0  0  0  0  0
    6.2699   -6.0568   22.1326 O   0  0  0  0  0  0  0  0  0  0  0  0
   11.5563   -4.9709   24.4755 H   0  0  0  0  0  0  0  0  0  0  0  0
   10.1121   -6.3171   23.9986 H   0  0  0  0  0  0  0  0  0  0  0  0
    6.1052   -5.9822   21.1802 H   0  0  0  0  0  0  0  0  0  0  0  0
  1  2  1  0  0  0  0
  1  3  2  0  0  0  0
  2  4  2  0  0  0  0
  3  5  1  0  0  0  0
  4  6  1  0  0  0  0
  5  6  2  0  0  0  0
  6 11  1  0  0  0  0
  7 11  1  0  0  0  0
  7 12  1  0  0  0  0
  7 13  2  0  0  0  0
  8 10  1  0  0  0  0
  9 10  1  0  0  0  0
  9 12  1  0  0  0  0
 10 14  1  0  0  0  0
 11 15  1  0  0  0  0
 12 16  1  0  0  0  0
 14 17  1  0  0  0  0
M  END
> <ref_mols>
x1126_0

> <original SMILES>
C[C@H](O)CNC(=O)NC=1C=CC=CC1

> <Chemgauss4>
-7.998687

> <ref_pdb>
x0749_0

$$$$
x0040
  -OEChem-05172015543D

 17 17  0     1  0  0  0  0  0999 V2000
   12.9593   -0.6027   25.6464 C   0  0  0  0  0  0  0  0  0  0  0  0
   13.4748   -1.8361   26.0445 C   0  0  0  0  0  0  0  0  0  0  0  0
   11.7822   -0.5468   24.9000 C   0  0  0  0  0  0  0  0  0  0  0  0
   12.8133   -3.0137   25.6961 C   0  0  0  0  0  0  0  0  0  0  0  0
   11.1207   -1.7244   24.5516 C   0  0  0  0  0  0  0  0  0  0  0  0
   11.6363   -2.9578   24.9497 C   0  0  0  0  0  0  0  0  0  0  0  0
    9.5952   -4.3388   24.3950 C   0  0  0  0  0  0  0  0  0  0  0  0
    8.2131   -4.7075   21.7506 C   0  0  0  0  0  0  0  0  0  0  0  0
    8.0022   -6.1674   23.7889 C   0  0  0  0  0  0  0  0  0  0  0  0
    7.6858   -6.0253   22.3021 C   0  0  1  0  0  0  0  0  0  0  0  0
   10.9656   -4.1520   24.5967 N   0  0  0  0  0  0  0  0  0  0  0  0
    9.3326   -5.6700   24.0576 N   0  0  0  0  0  0  0  0  0  0  0  0
    8.7176   -3.4841   24.4901 O   0  0  0  0  0  0  0  0  0  0  0  0
    6.2699   -6.0568   22.1326 O   0  0  0  0  0  0  0  0  0  0  0  0
   11.5563   -4.9709   24.4755 H   0  0  0  0  0  0  0  0  0  0  0  0
   10.1121   -6.3171   23.9986 H   0  0  0  0  0  0  0  0  0  0  0  0
    6.1052   -5.9822   21.1802 H   0  0  0  0  0  0  0  0  0  0  0  0
  1  2  1  0  0  0  0
  1  3  2  0  0  0  0
  2  4  2  0  0  0  0
  3  5  1  0  0  0  0
  4  6  1  0  0  0  0
  5  6  2  0  0  0  0
  6 11  1  0  0  0  0
  7 11  1  0  0  0  0
  7 12  1  0  0  0  0
  7 13  2  0  0  0  0
  8 10  1  0  0  0  0
  9 10  1  0  0  0  0
  9 12  1  0  0  0  0
 10 14  1  0  0  0  0
 11 15  1  0  0  0  0
 12 16  1  0  0  0  0
 14 17  1  0  0  0  0
M  END
> <ref_mols>
x0040_0

> <original SMILES>
C[C@H](O)CNC(=O)NC=1C=CC=CC1

> <Chemgauss4>
-7.998687

> <ref_pdb>
x0749_0

$$$$
x0630
  -OEChem-05172015543D

 17 17  0     0  0  0  0  0  0999 V2000
   14.1137   -1.3124   22.7022 C   0  0  0  0  0  0  0  0  0  0  0  0
   14.2170    0.0781   22.6670 C   0  0  0  0  0  0  0  0  0  0  0  0
   12.8577   -1.9175   22.7485 C   0  0  0  0  0  0  0  0  0  0  0  0
   11.8084    0.2586   22.7245 C   0  0  0  0  0  0  0  0  0  0  0  0
   13.0644    0.8636   22.6782 C   0  0  0  0  0  0  0  0  0  0  0  0
   11.7051   -1.1320   22.7597 C   0  0  0  0  0  0  0  0  0  0  0  0
   13.1754    2.3447   22.6413 C   0  0  0  0  0  0  0  0  0  0  0  0
   10.7913    4.9290   23.9506 C   0  0  0  0  0  0  0  0  0  0  0  0
   12.0668    5.0105   21.7970 C   0  0  0  0  0  0  0  0  0  0  0  0
   13.2944    5.0270   24.0130 C   0  0  0  0  0  0  0  0  0  0  0  0
   12.0780    4.4879   23.2399 C   0  0  0  0  0  0  0  0  0  0  0  0
   12.1276    3.0354   23.2187 N   0  0  0  0  0  0  0  0  0  0  0  0
   14.1498    2.8600   22.0995 O   0  0  0  0  0  0  0  0  0  0  0  0
   13.2744    6.4477   24.0948 O   0  0  0  0  0  0  0  0  0  0  0  0
   10.1556   -1.8794   22.8163 Cl  0  0  0  0  0  0  0  0  0  0  0  0
   11.3240    2.5488   23.5925 H   0  0  0  0  0  0  0  0  0  0  0  0
   14.0658    6.7089   24.5918 H   0  0  0  0  0  0  0  0  0  0  0  0
  1  2  2  0  0  0  0
  1  3  1  0  0  0  0
  2  5  1  0  0  0  0
  3  6  2  0  0  0  0
  4  5  2  0  0  0  0
  4  6  1  0  0  0  0
  5  7  1  0  0  0  0
  6 15  1  0  0  0  0
  7 12  1  0  0  0  0
  7 13  2  0  0  0  0
  8 11  1  0  0  0  0
  9 11  1  0  0  0  0
 10 11  1  0  0  0  0
 10 14  1  0  0  0  0
 11 12  1  0  0  0  0
 12 16  1  0  0  0  0
 14 17  1  0  0  0  0
M  END
> <ref_mols>
x0630_0

> <original SMILES>
CC(C)(CO)NC(=O)C=1C=CC=C(Cl)C1

> <Chemgauss4>
-7.993550

> <ref_pdb>
x0195_0

$$$$
x0906
  -OEChem-05172015543D

 17 18  0     1  0  0  0  0  0999 V2000
    9.5999   -2.1169   22.5691 C   0  0  0  0  0  0  0  0  0  0  0  0
   10.9405   -1.7903   22.7729 C   0  0  0  0  0  0  0  0  0  0  0  0
    8.8148   -1.3409   21.7163 C   0  0  0  0  0  0  0  0  0  0  0  0
   10.7111    0.0885   21.2713 C   0  0  0  0  0  0  0  0  0  0  0  0
   11.4961   -0.6876   22.1240 C   0  0  0  0  0  0  0  0  0  0  0  0
    9.3704   -0.2382   21.0674 C   0  0  0  0  0  0  0  0  0  0  0  0
   12.3167    0.8994   24.4782 C   0  0  0  0  0  0  0  0  0  0  0  0
   13.9112   -1.4069   21.7879 C   0  0  0  0  0  0  0  0  0  0  0  0
   14.2433   -2.5031   22.7939 C   0  0  0  0  0  0  0  0  0  0  0  0
   13.7510   -1.1298   24.6605 C   0  0  0  0  0  0  0  0  0  0  0  0
   12.9615   -0.3304   22.3474 C   0  0  2  0  0  0  0  0  0  0  0  0
   13.3692    0.0542   23.7828 C   0  0  1  0  0  0  0  0  0  0  0  0
    7.2421    0.1277   20.0715 C   0  0  0  0  0  0  0  0  0  0  0  0
   12.3165    0.8307   25.7385 O   0  5  0  0  0  0  0  0  0  0  0  0
   11.5743    1.5646   23.7026 O   0  0  0  0  0  0  0  0  0  0  0  0
   14.7244   -1.9474   24.0146 O   0  0  0  0  0  0  0  0  0  0  0  0
    8.6044    0.5187   20.2348 O   0  0  0  0  0  0  0  0  0  0  0  0
  1  2  2  0  0  0  0
  1  3  1  0  0  0  0
  2  5  1  0  0  0  0
  3  6  2  0  0  0  0
  4  5  2  0  0  0  0
  4  6  1  0  0  0  0
  5 11  1  0  0  0  0
  6 17  1  0  0  0  0
  7 12  1  0  0  0  0
  7 14  1  0  0  0  0
  7 15  2  0  0  0  0
  8  9  1  0  0  0  0
  8 11  1  0  0  0  0
  9 16  1  0  0  0  0
 10 12  1  0  0  0  0
 10 16  1  0  0  0  0
 11 12  1  0  0  0  0
 13 17  1  0  0  0  0
M  CHG  1  14  -1
M  END
> <ref_mols>
x0906_0

> <original SMILES>
COC1=CC([C@H]2[C@@H](C(O)=O)COCC2)=CC=C1

> <Chemgauss4>
-7.993543

> <ref_pdb>
x0678_0

$$$$
x0792
  -OEChem-05172015543D

 20 21  0     0  0  0  0  0  0999 V2000
   10.6275   -0.0640   24.4841 C   0  0  0  0  0  0  0  0  0  0  0  0
   11.9584   -0.4717   22.5093 C   0  0  0  0  0  0  0  0  0  0  0  0
   11.3425    1.1094   24.7237 C   0  0  0  0  0  0  0  0  0  0  0  0
   12.6734    0.7018   22.7489 C   0  0  0  0  0  0  0  0  0  0  0  0
   10.9355   -0.8546   23.3769 C   0  0  0  0  0  0  0  0  0  0  0  0
   12.3654    1.4924   23.8561 C   0  0  0  0  0  0  0  0  0  0  0  0
    6.1370   -1.3429   18.8683 C   0  0  0  0  0  0  0  0  0  0  0  0
    8.0312   -0.3075   20.2143 C   0  0  0  0  0  0  0  0  0  0  0  0
    6.4539   -1.8840   21.2624 C   0  0  0  0  0  0  0  0  0  0  0  0
    9.2030   -1.0719   20.8228 C   0  0  0  0  0  0  0  0  0  0  0  0
    7.6195   -2.6552   21.8714 C   0  0  0  0  0  0  0  0  0  0  0  0
    6.0752   -0.1488   17.9496 C   0  0  0  0  0  0  0  0  0  0  0  0
    6.8694   -1.1878   20.0440 N   0  0  0  0  0  0  0  0  0  0  0  0
    8.7665   -1.7239   22.0945 N   0  0  0  0  0  0  0  0  0  0  0  0
    5.5540   -2.3817   18.5478 O   0  0  0  0  0  0  0  0  0  0  0  0
   10.8646   -3.2110   22.2743 O   0  0  0  0  0  0  0  0  0  0  0  0
    9.4737   -2.7873   24.3319 O   0  0  0  0  0  0  0  0  0  0  0  0
   10.0307   -2.3396   23.0737 S   0  0  0  0  0  0  0  0  0  0  0  0
   13.2475    2.9401   24.1518 Cl  0  0  0  0  0  0  0  0  0  0  0  0
    5.2983    1.1445   18.8560 Cl  0  0  0  0  0  0  0  0  0  0  0  0
  1  3  2  0  0  0  0
  1  5  1  0  0  0  0
  2  4  1  0  0  0  0
  2  5  2  0  0  0  0
  3  6  1  0  0  0  0
  4  6  2  0  0  0  0
  5 18  1  0  0  0  0
  6 19  1  0  0  0  0
  7 12  1  0  0  0  0
  7 13  1  0  0  0  0
  7 15  2  0  0  0  0
  8 10  1  0  0  0  0
  8 13  1  0  0  0  0
  9 11  1  0  0  0  0
  9 13  1  0  0  0  0
 10 14  1  0  0  0  0
 11 14  1  0  0  0  0
 12 20  1  0  0  0  0
 14 18  1  0  0  0  0
 16 18  2  0  0  0  0
 17 18  2  0  0  0  0
M  END
> <ref_mols>
x0792_0

> <original SMILES>
ClCC(=O)N1CCN(CC1)S(=O)(=O)c2ccc(Cl)cc2

> <Chemgauss4>
-7.990904

> <ref_pdb>
x0831_0

$$$$
x1473
  -OEChem-05172015543D

 20 21  0     0  0  0  0  0  0999 V2000
   10.6275   -0.0640   24.4841 C   0  0  0  0  0  0  0  0  0  0  0  0
   11.9584   -0.4717   22.5093 C   0  0  0  0  0  0  0  0  0  0  0  0
   11.3425    1.1094   24.7237 C   0  0  0  0  0  0  0  0  0  0  0  0
   12.6734    0.7018   22.7489 C   0  0  0  0  0  0  0  0  0  0  0  0
   10.9355   -0.8546   23.3769 C   0  0  0  0  0  0  0  0  0  0  0  0
   12.3654    1.4924   23.8561 C   0  0  0  0  0  0  0  0  0  0  0  0
    6.1370   -1.3429   18.8683 C   0  0  0  0  0  0  0  0  0  0  0  0
    8.0312   -0.3075   20.2143 C   0  0  0  0  0  0  0  0  0  0  0  0
    6.4539   -1.8840   21.2624 C   0  0  0  0  0  0  0  0  0  0  0  0
    9.2030   -1.0719   20.8228 C   0  0  0  0  0  0  0  0  0  0  0  0
    7.6195   -2.6552   21.8714 C   0  0  0  0  0  0  0  0  0  0  0  0
    6.0752   -0.1488   17.9496 C   0  0  0  0  0  0  0  0  0  0  0  0
    6.8694   -1.1878   20.0440 N   0  0  0  0  0  0  0  0  0  0  0  0
    8.7665   -1.7239   22.0945 N   0  0  0  0  0  0  0  0  0  0  0  0
    5.5540   -2.3817   18.5478 O   0  0  0  0  0  0  0  0  0  0  0  0
   10.8646   -3.2110   22.2743 O   0  0  0  0  0  0  0  0  0  0  0  0
    9.4737   -2.7873   24.3319 O   0  0  0  0  0  0  0  0  0  0  0  0
   10.0307   -2.3396   23.0737 S   0  0  0  0  0  0  0  0  0  0  0  0
   13.2475    2.9401   24.1518 Cl  0  0  0  0  0  0  0  0  0  0  0  0
    5.2983    1.1445   18.8560 Cl  0  0  0  0  0  0  0  0  0  0  0  0
  1  3  2  0  0  0  0
  1  5  1  0  0  0  0
  2  4  1  0  0  0  0
  2  5  2  0  0  0  0
  3  6  1  0  0  0  0
  4  6  2  0  0  0  0
  5 18  1  0  0  0  0
  6 19  1  0  0  0  0
  7 12  1  0  0  0  0
  7 13  1  0  0  0  0
  7 15  2  0  0  0  0
  8 10  1  0  0  0  0
  8 13  1  0  0  0  0
  9 11  1  0  0  0  0
  9 13  1  0  0  0  0
 10 14  1  0  0  0  0
 11 14  1  0  0  0  0
 12 20  1  0  0  0  0
 14 18  1  0  0  0  0
 16 18  2  0  0  0  0
 17 18  2  0  0  0  0
M  END
> <ref_mols>
x1473_0

> <original SMILES>
ClCC(=O)N1CCN(CC1)S(=O)(=O)c2ccc(Cl)cc2

> <Chemgauss4>
-7.990904

> <ref_pdb>
x0831_0

$$$$
x1308
  -OEChem-05172015543D

 20 21  0     0  0  0  0  0  0999 V2000
   10.6275   -0.0640   24.4841 C   0  0  0  0  0  0  0  0  0  0  0  0
   11.9584   -0.4717   22.5093 C   0  0  0  0  0  0  0  0  0  0  0  0
   11.3425    1.1094   24.7237 C   0  0  0  0  0  0  0  0  0  0  0  0
   12.6734    0.7018   22.7489 C   0  0  0  0  0  0  0  0  0  0  0  0
   10.9355   -0.8546   23.3769 C   0  0  0  0  0  0  0  0  0  0  0  0
   12.3654    1.4924   23.8561 C   0  0  0  0  0  0  0  0  0  0  0  0
    6.1370   -1.3429   18.8683 C   0  0  0  0  0  0  0  0  0  0  0  0
    8.0312   -0.3075   20.2143 C   0  0  0  0  0  0  0  0  0  0  0  0
    6.4539   -1.8840   21.2624 C   0  0  0  0  0  0  0  0  0  0  0  0
    9.2030   -1.0719   20.8228 C   0  0  0  0  0  0  0  0  0  0  0  0
    7.6195   -2.6552   21.8714 C   0  0  0  0  0  0  0  0  0  0  0  0
    6.0752   -0.1488   17.9496 C   0  0  0  0  0  0  0  0  0  0  0  0
    6.8694   -1.1878   20.0440 N   0  0  0  0  0  0  0  0  0  0  0  0
    8.7665   -1.7239   22.0945 N   0  0  0  0  0  0  0  0  0  0  0  0
    5.5540   -2.3817   18.5478 O   0  0  0  0  0  0  0  0  0  0  0  0
   10.8646   -3.2110   22.2743 O   0  0  0  0  0  0  0  0  0  0  0  0
    9.4737   -2.7873   24.3319 O   0  0  0  0  0  0  0  0  0  0  0  0
   10.0307   -2.3396   23.0737 S   0  0  0  0  0  0  0  0  0  0  0  0
   13.2475    2.9401   24.1518 Cl  0  0  0  0  0  0  0  0  0  0  0  0
    5.2983    1.1445   18.8560 Cl  0  0  0  0  0  0  0  0  0  0  0  0
  1  3  2  0  0  0  0
  1  5  1  0  0  0  0
  2  4  1  0  0  0  0
  2  5  2  0  0  0  0
  3  6  1  0  0  0  0
  4  6  2  0  0  0  0
  5 18  1  0  0  0  0
  6 19  1  0  0  0  0
  7 12  1  0  0  0  0
  7 13  1  0  0  0  0
  7 15  2  0  0  0  0
  8 10  1  0  0  0  0
  8 13  1  0  0  0  0
  9 11  1  0  0  0  0
  9 13  1  0  0  0  0
 10 14  1  0  0  0  0
 11 14  1  0  0  0  0
 12 20  1  0  0  0  0
 14 18  1  0  0  0  0
 16 18  2  0  0  0  0
 17 18  2  0  0  0  0
M  END
> <ref_mols>
x1308_0

> <original SMILES>
ClCC(=O)N1CCN(CC1)S(=O)(=O)c2ccc(Cl)cc2

> <Chemgauss4>
-7.990904

> <ref_pdb>
x0831_0

$$$$
x1345
  -OEChem-05172015543D

 20 21  0     0  0  0  0  0  0999 V2000
   10.6275   -0.0640   24.4841 C   0  0  0  0  0  0  0  0  0  0  0  0
   11.9584   -0.4717   22.5093 C   0  0  0  0  0  0  0  0  0  0  0  0
   11.3425    1.1094   24.7237 C   0  0  0  0  0  0  0  0  0  0  0  0
   12.6734    0.7018   22.7489 C   0  0  0  0  0  0  0  0  0  0  0  0
   10.9355   -0.8546   23.3769 C   0  0  0  0  0  0  0  0  0  0  0  0
   12.3654    1.4924   23.8561 C   0  0  0  0  0  0  0  0  0  0  0  0
    6.1370   -1.3429   18.8683 C   0  0  0  0  0  0  0  0  0  0  0  0
    8.0312   -0.3075   20.2143 C   0  0  0  0  0  0  0  0  0  0  0  0
    6.4539   -1.8840   21.2624 C   0  0  0  0  0  0  0  0  0  0  0  0
    9.2030   -1.0719   20.8228 C   0  0  0  0  0  0  0  0  0  0  0  0
    7.6195   -2.6552   21.8714 C   0  0  0  0  0  0  0  0  0  0  0  0
    6.0752   -0.1488   17.9496 C   0  0  0  0  0  0  0  0  0  0  0  0
    6.8694   -1.1878   20.0440 N   0  0  0  0  0  0  0  0  0  0  0  0
    8.7665   -1.7239   22.0945 N   0  0  0  0  0  0  0  0  0  0  0  0
    5.5540   -2.3817   18.5478 O   0  0  0  0  0  0  0  0  0  0  0  0
   10.8646   -3.2110   22.2743 O   0  0  0  0  0  0  0  0  0  0  0  0
    9.4737   -2.7873   24.3319 O   0  0  0  0  0  0  0  0  0  0  0  0
   10.0307   -2.3396   23.0737 S   0  0  0  0  0  0  0  0  0  0  0  0
   13.2475    2.9401   24.1518 Cl  0  0  0  0  0  0  0  0  0  0  0  0
    5.2983    1.1445   18.8560 Cl  0  0  0  0  0  0  0  0  0  0  0  0
  1  3  2  0  0  0  0
  1  5  1  0  0  0  0
  2  4  1  0  0  0  0
  2  5  2  0  0  0  0
  3  6  1  0  0  0  0
  4  6  2  0  0  0  0
  5 18  1  0  0  0  0
  6 19  1  0  0  0  0
  7 12  1  0  0  0  0
  7 13  1  0  0  0  0
  7 15  2  0  0  0  0
  8 10  1  0  0  0  0
  8 13  1  0  0  0  0
  9 11  1  0  0  0  0
  9 13  1  0  0  0  0
 10 14  1  0  0  0  0
 11 14  1  0  0  0  0
 12 20  1  0  0  0  0
 14 18  1  0  0  0  0
 16 18  2  0  0  0  0
 17 18  2  0  0  0  0
M  END
> <ref_mols>
x1345_0

> <original SMILES>
ClCC(=O)N1CCN(CC1)S(=O)(=O)c2ccc(Cl)cc2

> <Chemgauss4>
-7.990904

> <ref_pdb>
x0831_0

$$$$
x0718
  -OEChem-05172015543D

 20 21  0     0  0  0  0  0  0999 V2000
   10.6275   -0.0640   24.4841 C   0  0  0  0  0  0  0  0  0  0  0  0
   11.9584   -0.4717   22.5093 C   0  0  0  0  0  0  0  0  0  0  0  0
   11.3425    1.1094   24.7237 C   0  0  0  0  0  0  0  0  0  0  0  0
   12.6734    0.7018   22.7489 C   0  0  0  0  0  0  0  0  0  0  0  0
   10.9355   -0.8546   23.3769 C   0  0  0  0  0  0  0  0  0  0  0  0
   12.3654    1.4924   23.8561 C   0  0  0  0  0  0  0  0  0  0  0  0
    6.1370   -1.3429   18.8683 C   0  0  0  0  0  0  0  0  0  0  0  0
    8.0312   -0.3075   20.2143 C   0  0  0  0  0  0  0  0  0  0  0  0
    6.4539   -1.8840   21.2624 C   0  0  0  0  0  0  0  0  0  0  0  0
    9.2030   -1.0719   20.8228 C   0  0  0  0  0  0  0  0  0  0  0  0
    7.6195   -2.6552   21.8714 C   0  0  0  0  0  0  0  0  0  0  0  0
    6.0752   -0.1488   17.9496 C   0  0  0  0  0  0  0  0  0  0  0  0
    6.8694   -1.1878   20.0440 N   0  0  0  0  0  0  0  0  0  0  0  0
    8.7665   -1.7239   22.0945 N   0  0  0  0  0  0  0  0  0  0  0  0
    5.5540   -2.3817   18.5478 O   0  0  0  0  0  0  0  0  0  0  0  0
   10.8646   -3.2110   22.2743 O   0  0  0  0  0  0  0  0  0  0  0  0
    9.4737   -2.7873   24.3319 O   0  0  0  0  0  0  0  0  0  0  0  0
   10.0307   -2.3396   23.0737 S   0  0  0  0  0  0  0  0  0  0  0  0
   13.2475    2.9401   24.1518 Cl  0  0  0  0  0  0  0  0  0  0  0  0
    5.2983    1.1445   18.8560 Cl  0  0  0  0  0  0  0  0  0  0  0  0
  1  3  2  0  0  0  0
  1  5  1  0  0  0  0
  2  4  1  0  0  0  0
  2  5  2  0  0  0  0
  3  6  1  0  0  0  0
  4  6  2  0  0  0  0
  5 18  1  0  0  0  0
  6 19  1  0  0  0  0
  7 12  1  0  0  0  0
  7 13  1  0  0  0  0
  7 15  2  0  0  0  0
  8 10  1  0  0  0  0
  8 13  1  0  0  0  0
  9 11  1  0  0  0  0
  9 13  1  0  0  0  0
 10 14  1  0  0  0  0
 11 14  1  0  0  0  0
 12 20  1  0  0  0  0
 14 18  1  0  0  0  0
 16 18  2  0  0  0  0
 17 18  2  0  0  0  0
M  END
> <ref_mols>
x0718_0

> <original SMILES>
ClCC(=O)N1CCN(CC1)S(=O)(=O)c2ccc(Cl)cc2

> <Chemgauss4>
-7.990904

> <ref_pdb>
x0831_0

> <CYS145-warhead dist minimum (A)>
7.656875

> <CYS145-warhead dist mean (A)>
9.240096

> <CYS145-warhead dist stddev (A)>
0.61716205

$$$$
x1424
  -OEChem-05172015543D

 20 21  0     0  0  0  0  0  0999 V2000
   10.6275   -0.0640   24.4841 C   0  0  0  0  0  0  0  0  0  0  0  0
   11.9584   -0.4717   22.5093 C   0  0  0  0  0  0  0  0  0  0  0  0
   11.3425    1.1094   24.7237 C   0  0  0  0  0  0  0  0  0  0  0  0
   12.6734    0.7018   22.7489 C   0  0  0  0  0  0  0  0  0  0  0  0
   10.9355   -0.8546   23.3769 C   0  0  0  0  0  0  0  0  0  0  0  0
   12.3654    1.4924   23.8561 C   0  0  0  0  0  0  0  0  0  0  0  0
    6.1370   -1.3429   18.8683 C   0  0  0  0  0  0  0  0  0  0  0  0
    8.0312   -0.3075   20.2143 C   0  0  0  0  0  0  0  0  0  0  0  0
    6.4539   -1.8840   21.2624 C   0  0  0  0  0  0  0  0  0  0  0  0
    9.2030   -1.0719   20.8228 C   0  0  0  0  0  0  0  0  0  0  0  0
    7.6195   -2.6552   21.8714 C   0  0  0  0  0  0  0  0  0  0  0  0
    6.0752   -0.1488   17.9496 C   0  0  0  0  0  0  0  0  0  0  0  0
    6.8694   -1.1878   20.0440 N   0  0  0  0  0  0  0  0  0  0  0  0
    8.7665   -1.7239   22.0945 N   0  0  0  0  0  0  0  0  0  0  0  0
    5.5540   -2.3817   18.5478 O   0  0  0  0  0  0  0  0  0  0  0  0
   10.8646   -3.2110   22.2743 O   0  0  0  0  0  0  0  0  0  0  0  0
    9.4737   -2.7873   24.3319 O   0  0  0  0  0  0  0  0  0  0  0  0
   10.0307   -2.3396   23.0737 S   0  0  0  0  0  0  0  0  0  0  0  0
   13.2475    2.9401   24.1518 Cl  0  0  0  0  0  0  0  0  0  0  0  0
    5.2983    1.1445   18.8560 Cl  0  0  0  0  0  0  0  0  0  0  0  0
  1  3  2  0  0  0  0
  1  5  1  0  0  0  0
  2  4  1  0  0  0  0
  2  5  2  0  0  0  0
  3  6  1  0  0  0  0
  4  6  2  0  0  0  0
  5 18  1  0  0  0  0
  6 19  1  0  0  0  0
  7 12  1  0  0  0  0
  7 13  1  0  0  0  0
  7 15  2  0  0  0  0
  8 10  1  0  0  0  0
  8 13  1  0  0  0  0
  9 11  1  0  0  0  0
  9 13  1  0  0  0  0
 10 14  1  0  0  0  0
 11 14  1  0  0  0  0
 12 20  1  0  0  0  0
 14 18  1  0  0  0  0
 16 18  2  0  0  0  0
 17 18  2  0  0  0  0
M  END
> <ref_mols>
x1424_0

> <original SMILES>
ClCC(=O)N1CCN(CC1)S(=O)(=O)c2ccc(Cl)cc2

> <Chemgauss4>
-7.990904

> <ref_pdb>
x0831_0

> <CYS145-warhead dist minimum (A)>
3.2119231

> <CYS145-warhead dist mean (A)>
3.68594

> <CYS145-warhead dist stddev (A)>
0.2537866

$$$$
x0656
  -OEChem-05172015543D

 17 18  0     1  0  0  0  0  0999 V2000
   12.4439   -0.4571   24.1208 C   0  0  0  0  0  0  0  0  0  0  0  0
   12.8901   -1.7432   22.1249 C   0  0  0  0  0  0  0  0  0  0  0  0
   13.7190   -0.7576   24.5996 C   0  0  0  0  0  0  0  0  0  0  0  0
   14.1653   -2.0437   22.6036 C   0  0  0  0  0  0  0  0  0  0  0  0
   12.0294   -0.9500   22.8835 C   0  0  0  0  0  0  0  0  0  0  0  0
   14.5798   -1.5508   23.8410 C   0  0  0  0  0  0  0  0  0  0  0  0
    8.5239   -0.2740   20.1697 C   0  0  0  0  0  0  0  0  0  0  0  0
    6.8097    0.4227   18.3899 C   0  0  0  0  0  0  0  0  0  0  0  0
    7.1233   -0.1302   19.7571 C   0  0  2  0  0  0  0  0  0  0  0  0
    6.5385    1.2529   19.6123 C   0  0  2  0  0  0  0  0  0  0  0  0
    5.1368    1.5215   20.0395 C   0  0  0  0  0  0  0  0  0  0  0  0
   10.6505   -0.6238   22.3644 C   0  0  0  0  0  0  0  0  0  0  0  0
   10.0778   -1.7181   21.4670 C   0  0  0  0  0  0  0  0  0  0  0  0
    8.7683   -1.3855   20.9536 N   0  0  0  0  0  0  0  0  0  0  0  0
    9.3483    0.5583   19.8100 O   0  0  0  0  0  0  0  0  0  0  0  0
   16.1529   -1.9212   24.4317 Cl  0  0  0  0  0  0  0  0  0  0  0  0
    7.9904   -1.9980   21.1798 H   0  0  0  0  0  0  0  0  0  0  0  0
  1  3  2  0  0  0  0
  1  5  1  0  0  0  0
  2  4  1  0  0  0  0
  2  5  2  0  0  0  0
  3  6  1  0  0  0  0
  4  6  2  0  0  0  0
  5 12  1  0  0  0  0
  6 16  1  0  0  0  0
  7  9  1  0  0  0  0
  7 14  1  0  0  0  0
  7 15  2  0  0  0  0
  8  9  1  0  0  0  0
  8 10  1  0  0  0  0
  9 10  1  0  0  0  0
 10 11  1  0  0  0  0
 12 13  1  0  0  0  0
 13 14  1  0  0  0  0
 14 17  1  0  0  0  0
M  END
> <ref_mols>
x0656_0

> <original SMILES>
C[C@@H]1C[C@H]1C(=O)NCCC=2C=CC(Cl)=CC2

> <Chemgauss4>
-7.988801

> <ref_pdb>
x0678_0

$$$$
x0521
  -OEChem-05172015543D

 14 16  0     0  0  0  0  0  0999 V2000
    6.2683    0.6896   17.6901 C   0  0  0  0  0  0  0  0  0  0  0  0
    9.0394   -0.4457   20.8471 C   0  0  0  0  0  0  0  0  0  0  0  0
    7.2114    0.4068   20.1580 C   0  0  0  0  0  0  0  0  0  0  0  0
    7.8873   -0.0124   19.0232 C   0  0  0  0  0  0  0  0  0  0  0  0
    5.9707    1.0062   19.9656 C   0  0  0  0  0  0  0  0  0  0  0  0
    4.0839    2.0618   22.6454 C   0  0  0  0  0  0  0  0  0  0  0  0
    5.4695    1.4357   22.4575 C   0  0  0  0  0  0  0  0  0  0  0  0
    4.1102    2.3495   21.1407 C   0  0  0  0  0  0  0  0  0  0  0  0
    7.4795    0.0944   17.7497 N   0  0  0  0  0  0  0  0  0  0  0  0
    5.4957    1.1474   18.7047 N   0  0  0  0  0  0  0  0  0  0  0  0
    7.9405    0.1309   21.2873 N   0  0  0  0  0  0  0  0  0  0  0  0
    9.0538   -0.5548   19.4819 N   0  0  0  0  0  0  0  0  0  0  0  0
    5.2169    1.4585   21.0573 N   0  0  0  0  0  0  0  0  0  0  0  0
    9.7901   -0.9606   18.9199 H   0  0  0  0  0  0  0  0  0  0  0  0
  1  9  1  0  0  0  0
  1 10  2  0  0  0  0
  2 11  2  0  0  0  0
  2 12  1  0  0  0  0
  3  4  1  0  0  0  0
  3  5  2  0  0  0  0
  3 11  1  0  0  0  0
  4  9  2  0  0  0  0
  4 12  1  0  0  0  0
  5 10  1  0  0  0  0
  5 13  1  0  0  0  0
  6  7  1  0  0  0  0
  6  8  1  0  0  0  0
  7 13  1  0  0  0  0
  8 13  1  0  0  0  0
 12 14  1  0  0  0  0
M  END
> <ref_mols>
x0521_0

> <original SMILES>
C1CN(C1)C=2N=CN=C3N=CNC23

> <Chemgauss4>
-7.987397

> <ref_pdb>
x0678_0

$$$$
x0199
  -OEChem-05172015543D

 19 20  0     0  0  0  0  0  0999 V2000
    7.8228   -6.0256   23.0624 C   0  0  0  0  0  0  0  0  0  0  0  0
    6.9004   -5.4207   22.2087 C   0  0  0  0  0  0  0  0  0  0  0  0
    8.9623   -5.3288   23.4646 C   0  0  0  0  0  0  0  0  0  0  0  0
    8.2570   -3.4221   22.1592 C   0  0  0  0  0  0  0  0  0  0  0  0
    7.1175   -4.1189   21.7571 C   0  0  0  0  0  0  0  0  0  0  0  0
    9.1794   -4.0270   23.0129 C   0  0  0  0  0  0  0  0  0  0  0  0
    6.1550   -3.4895   20.8671 C   0  0  0  0  0  0  0  0  0  0  0  0
   11.0323   -3.4564   24.6233 C   0  0  0  0  0  0  0  0  0  0  0  0
   13.3682   -2.8882   25.5301 C   0  0  0  0  0  0  0  0  0  0  0  0
   12.2239   -1.3881   23.9409 C   0  0  0  0  0  0  0  0  0  0  0  0
   13.8356   -1.6393   26.2704 C   0  0  0  0  0  0  0  0  0  0  0  0
   12.7205   -0.2143   24.7699 C   0  0  0  0  0  0  0  0  0  0  0  0
    6.0115   -1.9972   20.9445 C   0  0  0  0  0  0  0  0  0  0  0  0
   12.1552   -2.6093   24.7473 N   0  0  0  0  0  0  0  0  0  0  0  0
   10.3370   -3.3191   23.4219 N   0  0  0  0  0  0  0  0  0  0  0  0
    5.4444   -4.0888   20.0571 O   0  0  0  0  0  0  0  0  0  0  0  0
   10.6999   -4.2282   25.5265 O   0  0  0  0  0  0  0  0  0  0  0  0
   13.9751   -0.5386   25.3715 O   0  0  0  0  0  0  0  0  0  0  0  0
   10.7130   -2.6079   22.7371 H   0  0  0  0  0  0  0  0  0  0  0  0
  1  2  2  0  0  0  0
  1  3  1  0  0  0  0
  2  5  1  0  0  0  0
  3  6  2  0  0  0  0
  4  5  2  0  0  0  0
  4  6  1  0  0  0  0
  5  7  1  0  0  0  0
  6 15  1  0  0  0  0
  7 13  1  0  0  0  0
  7 16  2  0  0  0  0
  8 14  1  0  0  0  0
  8 15  1  0  0  0  0
  8 17  2  0  0  0  0
  9 11  1  0  0  0  0
  9 14  1  0  0  0  0
 10 12  1  0  0  0  0
 10 14  1  0  0  0  0
 11 18  1  0  0  0  0
 12 18  1  0  0  0  0
 15 19  1  0  0  0  0
M  END
> <ref_mols>
x0199_0

> <original SMILES>
CC(=O)C=1C=CC=C(NC(=O)N2CCOCC2)C1

> <Chemgauss4>
-7.986823

> <ref_pdb>
x0749_0

$$$$
x0147
  -OEChem-05172015543D

 16 17  0     0  0  0  0  0  0999 V2000
   13.5112   -0.0149   23.1652 C   0  0  0  0  0  0  0  0  0  0  0  0
   13.5081   -1.3845   22.9961 C   0  0  0  0  0  0  0  0  0  0  0  0
   12.2977    0.6132   22.9722 C   0  0  0  0  0  0  0  0  0  0  0  0
   11.2889   -1.3693   22.5041 C   0  0  0  0  0  0  0  0  0  0  0  0
   11.0205    2.6434   23.5966 C   0  0  0  0  0  0  0  0  0  0  0  0
   13.1211    2.8153   22.2631 C   0  0  0  0  0  0  0  0  0  0  0  0
   11.3184    3.9976   24.2250 C   0  0  0  0  0  0  0  0  0  0  0  0
   13.4087    4.1662   22.9017 C   0  0  0  0  0  0  0  0  0  0  0  0
   14.7740   -2.1514   23.1834 C   0  0  0  0  0  0  0  0  0  0  0  0
   10.0549   -2.1215   22.1372 C   0  0  0  0  0  0  0  0  0  0  0  0
   12.4111   -2.0964   22.6644 N   0  0  0  0  0  0  0  0  0  0  0  0
   11.1624   -0.0355   22.6396 N   0  0  0  0  0  0  0  0  0  0  0  0
   12.2584    2.0031   23.1345 N   0  0  0  0  0  0  0  0  0  0  0  0
   12.1182    4.8168   23.2700 N   0  3  0  0  0  0  0  0  0  0  0  0
   11.5652    5.0023   22.4215 H   0  0  0  0  0  0  0  0  0  0  0  0
   12.3083    5.7382   23.6875 H   0  0  0  0  0  0  0  0  0  0  0  0
  1  2  1  0  0  0  0
  1  3  2  0  0  0  0
  2  9  1  0  0  0  0
  2 11  2  0  0  0  0
  3 12  1  0  0  0  0
  3 13  1  0  0  0  0
  4 10  1  0  0  0  0
  4 11  1  0  0  0  0
  4 12  2  0  0  0  0
  5  7  1  0  0  0  0
  5 13  1  0  0  0  0
  6  8  1  0  0  0  0
  6 13  1  0  0  0  0
  7 14  1  0  0  0  0
  8 14  1  0  0  0  0
 14 15  1  0  0  0  0
 14 16  1  0  0  0  0
M  CHG  1  14   1
M  END
> <ref_mols>
x0147_0

> <original SMILES>
CC=1C=C(N=C(C)N1)N2CCNCC2

> <Chemgauss4>
-7.984191

> <ref_pdb>
x0195_0

$$$$
x0496
  -OEChem-05172015543D

 15 16  0     0  0  0  0  0  0999 V2000
   14.4579   -1.6007   24.1001 C   0  0  0  0  0  0  0  0  0  0  0  0
   14.3248   -2.0489   22.7859 C   0  0  0  0  0  0  0  0  0  0  0  0
   13.6087   -0.6071   24.5875 C   0  0  0  0  0  0  0  0  0  0  0  0
   12.4935   -0.5100   22.4464 C   0  0  0  0  0  0  0  0  0  0  0  0
   13.3427   -1.5036   21.9591 C   0  0  0  0  0  0  0  0  0  0  0  0
   12.6265   -0.0618   23.7606 C   0  0  0  0  0  0  0  0  0  0  0  0
   11.4655    0.0605   21.5813 C   0  0  0  0  0  0  0  0  0  0  0  0
    8.2997   -1.7196   22.3147 C   0  0  0  0  0  0  0  0  0  0  0  0
    8.0021   -1.0668   20.9711 C   0  0  0  0  0  0  0  0  0  0  0  0
    9.8215   -1.7494   22.3452 C   0  0  0  0  0  0  0  0  0  0  0  0
    9.0865   -0.0059   20.8648 C   0  0  0  0  0  0  0  0  0  0  0  0
   10.2216   -0.5643   21.5871 N   0  0  0  0  0  0  0  0  0  0  0  0
   11.7123    1.0601   20.9073 O   0  0  0  0  0  0  0  0  0  0  0  0
   13.2235   -1.9416   20.6976 F   0  0  0  0  0  0  0  0  0  0  0  0
   11.8156    0.8926   24.2391 F   0  0  0  0  0  0  0  0  0  0  0  0
  1  2  2  0  0  0  0
  1  3  1  0  0  0  0
  2  5  1  0  0  0  0
  3  6  2  0  0  0  0
  4  5  2  0  0  0  0
  4  6  1  0  0  0  0
  4  7  1  0  0  0  0
  5 14  1  0  0  0  0
  6 15  1  0  0  0  0
  7 12  1  0  0  0  0
  7 13  2  0  0  0  0
  8  9  1  0  0  0  0
  8 10  1  0  0  0  0
  9 11  1  0  0  0  0
 10 12  1  0  0  0  0
 11 12  1  0  0  0  0
M  END
> <ref_mols>
x0496_0

> <original SMILES>
FC=1C=CC=C(F)C1C(=O)N2CCCC2

> <Chemgauss4>
-7.983286

> <ref_pdb>
x0678_0

$$$$
x2484
  -OEChem-05172015543D

 20 21  0     0  0  0  0  0  0999 V2000
   13.6461    1.4022   25.4196 C   0  0  0  0  0  0  0  0  0  0  0  0
   13.5951   -2.3149   25.6112 C   0  0  0  0  0  0  0  0  0  0  0  0
    7.1603   -6.2660   22.0606 C   0  0  0  0  0  0  0  0  0  0  0  0
   14.0035   -0.9909   25.7719 C   0  0  0  0  0  0  0  0  0  0  0  0
   12.4107   -2.6020   24.9327 C   0  0  0  0  0  0  0  0  0  0  0  0
    8.0476   -5.3018   22.5256 C   0  0  0  0  0  0  0  0  0  0  0  0
   12.0429   -0.2411   24.5757 C   0  0  0  0  0  0  0  0  0  0  0  0
    6.0368   -5.8358   21.3733 C   0  0  0  0  0  0  0  0  0  0  0  0
    6.6364   -3.6291   21.5946 C   0  0  0  0  0  0  0  0  0  0  0  0
   13.2274    0.0460   25.2541 C   0  0  0  0  0  0  0  0  0  0  0  0
   11.6346   -1.5651   24.4150 C   0  0  0  0  0  0  0  0  0  0  0  0
    7.7880   -3.9558   22.2925 C   0  0  0  0  0  0  0  0  0  0  0  0
    9.8695   -3.1164   23.4678 C   0  0  0  0  0  0  0  0  0  0  0  0
   13.9863    2.5035   25.5540 N   0  0  0  0  0  0  0  0  0  0  0  0
    5.7509   -4.5375   21.1275 N   0  0  0  0  0  0  0  0  0  0  0  0
   10.4507   -1.8527   23.7353 N   0  0  0  0  0  0  0  0  0  0  0  0
    8.6720   -2.9519   22.7535 N   0  0  0  0  0  0  0  0  0  0  0  0
   10.3479   -4.1922   23.8127 O   0  0  0  0  0  0  0  0  0  0  0  0
    9.9322   -1.0413   23.3824 H   0  0  0  0  0  0  0  0  0  0  0  0
    8.4011   -1.9959   22.5370 H   0  0  0  0  0  0  0  0  0  0  0  0
  1 10  1  0  0  0  0
  1 14  3  0  0  0  0
  2  4  1  0  0  0  0
  2  5  2  0  0  0  0
  3  6  2  0  0  0  0
  3  8  1  0  0  0  0
  4 10  2  0  0  0  0
  5 11  1  0  0  0  0
  6 12  1  0  0  0  0
  7 10  1  0  0  0  0
  7 11  2  0  0  0  0
  8 15  2  0  0  0  0
  9 12  2  0  0  0  0
  9 15  1  0  0  0  0
 11 16  1  0  0  0  0
 12 17  1  0  0  0  0
 13 16  1  0  0  0  0
 13 17  1  0  0  0  0
 13 18  2  0  0  0  0
 16 19  1  0  0  0  0
 17 20  1  0  0  0  0
M  END
> <ref_mols>
x2484_0

> <original SMILES>
O=C(NC=1C=CC=NC1)NC=2C=CC=C(C#N)C2

> <Chemgauss4>
-7.983136

> <ref_pdb>
x0749_0

$$$$
x2652
  -OEChem-05172015543D

 20 21  0     0  0  0  0  0  0999 V2000
   13.6461    1.4022   25.4196 C   0  0  0  0  0  0  0  0  0  0  0  0
   13.5951   -2.3149   25.6112 C   0  0  0  0  0  0  0  0  0  0  0  0
    7.1603   -6.2660   22.0606 C   0  0  0  0  0  0  0  0  0  0  0  0
   14.0035   -0.9909   25.7719 C   0  0  0  0  0  0  0  0  0  0  0  0
   12.4107   -2.6020   24.9327 C   0  0  0  0  0  0  0  0  0  0  0  0
    8.0476   -5.3018   22.5256 C   0  0  0  0  0  0  0  0  0  0  0  0
   12.0429   -0.2411   24.5757 C   0  0  0  0  0  0  0  0  0  0  0  0
    6.0368   -5.8358   21.3733 C   0  0  0  0  0  0  0  0  0  0  0  0
    6.6364   -3.6291   21.5946 C   0  0  0  0  0  0  0  0  0  0  0  0
   13.2274    0.0460   25.2541 C   0  0  0  0  0  0  0  0  0  0  0  0
   11.6346   -1.5651   24.4150 C   0  0  0  0  0  0  0  0  0  0  0  0
    7.7880   -3.9558   22.2925 C   0  0  0  0  0  0  0  0  0  0  0  0
    9.8695   -3.1164   23.4678 C   0  0  0  0  0  0  0  0  0  0  0  0
   13.9863    2.5035   25.5540 N   0  0  0  0  0  0  0  0  0  0  0  0
    5.7509   -4.5375   21.1275 N   0  0  0  0  0  0  0  0  0  0  0  0
   10.4507   -1.8527   23.7353 N   0  0  0  0  0  0  0  0  0  0  0  0
    8.6720   -2.9519   22.7535 N   0  0  0  0  0  0  0  0  0  0  0  0
   10.3479   -4.1922   23.8127 O   0  0  0  0  0  0  0  0  0  0  0  0
    9.9322   -1.0413   23.3824 H   0  0  0  0  0  0  0  0  0  0  0  0
    8.4011   -1.9959   22.5370 H   0  0  0  0  0  0  0  0  0  0  0  0
  1 10  1  0  0  0  0
  1 14  3  0  0  0  0
  2  4  1  0  0  0  0
  2  5  2  0  0  0  0
  3  6  2  0  0  0  0
  3  8  1  0  0  0  0
  4 10  2  0  0  0  0
  5 11  1  0  0  0  0
  6 12  1  0  0  0  0
  7 10  1  0  0  0  0
  7 11  2  0  0  0  0
  8 15  2  0  0  0  0
  9 12  2  0  0  0  0
  9 15  1  0  0  0  0
 11 16  1  0  0  0  0
 12 17  1  0  0  0  0
 13 16  1  0  0  0  0
 13 17  1  0  0  0  0
 13 18  2  0  0  0  0
 16 19  1  0  0  0  0
 17 20  1  0  0  0  0
M  END
> <ref_mols>
x2652_0

> <original SMILES>
O=C(NC=1C=CC=NC1)NC=2C=CC=C(C#N)C2

> <Chemgauss4>
-7.983136

> <ref_pdb>
x0749_0

> <CYS145-warhead dist minimum (A)>
5.7664413

> <CYS145-warhead dist mean (A)>
6.5255957

> <CYS145-warhead dist stddev (A)>
0.23903833

$$$$
x0847
  -OEChem-05172015543D

 15 16  0     1  0  0  0  0  0999 V2000
    8.6601   -1.5346   21.6996 C   0  0  0  0  0  0  0  0  0  0  0  0
    9.4419   -2.9167   23.5205 C   0  0  0  0  0  0  0  0  0  0  0  0
    9.9789   -1.2200   21.3721 C   0  0  0  0  0  0  0  0  0  0  0  0
   10.7608   -2.6021   23.1930 C   0  0  0  0  0  0  0  0  0  0  0  0
    8.3916   -2.3829   22.7739 C   0  0  0  0  0  0  0  0  0  0  0  0
   11.0293   -1.7537   22.1188 C   0  0  0  0  0  0  0  0  0  0  0  0
    6.9700   -4.3700   21.1326 C   0  0  0  0  0  0  0  0  0  0  0  0
    6.7246   -3.0101   24.6126 C   0  0  0  0  0  0  0  0  0  0  0  0
    6.7550   -5.0752   23.5309 C   0  0  0  0  0  0  0  0  0  0  0  0
    6.9545   -2.7268   23.1308 C   0  0  2  0  0  0  0  0  0  0  0  0
    6.4282   -4.0096   22.5014 C   0  0  1  0  0  0  0  0  0  0  0  0
    8.2235   -4.5026   21.0667 O   0  5  0  0  0  0  0  0  0  0  0  0
    6.0936   -4.4914   20.2313 O   0  0  0  0  0  0  0  0  0  0  0  0
    6.8854   -4.4224   24.8012 O   0  0  0  0  0  0  0  0  0  0  0  0
   12.2959   -1.4539   21.8027 F   0  0  0  0  0  0  0  0  0  0  0  0
  1  3  1  0  0  0  0
  1  5  2  0  0  0  0
  2  4  2  0  0  0  0
  2  5  1  0  0  0  0
  3  6  2  0  0  0  0
  4  6  1  0  0  0  0
  5 10  1  0  0  0  0
  6 15  1  0  0  0  0
  7 11  1  0  0  0  0
  7 12  1  0  0  0  0
  7 13  2  0  0  0  0
  8 10  1  0  0  0  0
  8 14  1  0  0  0  0
  9 11  1  0  0  0  0
  9 14  1  0  0  0  0
 10 11  1  0  0  0  0
M  CHG  1  12  -1
M  END
> <ref_mols>
x0847_0

> <original SMILES>
FC(C=C1)=CC=C1[C@H]2[C@@H](C(O)=O)COC2

> <Chemgauss4>
-7.982597

> <ref_pdb>
x0759_0

$$$$
x0493
  -OEChem-05172015543D

 15 16  0     1  0  0  0  0  0999 V2000
   11.8057   -1.7288   22.3769 C   0  0  0  0  0  0  0  0  0  0  0  0
   12.7919   -0.8822   22.0542 C   0  0  0  0  0  0  0  0  0  0  0  0
   11.2824    2.1931   23.5387 C   0  0  0  0  0  0  0  0  0  0  0  0
   10.7589   -1.3856   23.3896 C   0  0  0  0  0  0  0  0  0  0  0  0
   12.9288    0.4953   22.6261 C   0  0  0  0  0  0  0  0  0  0  0  0
   12.4404    3.8416   22.0492 C   0  0  0  0  0  0  0  0  0  0  0  0
   12.6938    5.3045   22.3182 C   0  0  0  0  0  0  0  0  0  0  0  0
   11.1467   -0.1735   24.2338 C   0  0  0  0  0  0  0  0  0  0  0  0
   12.3068    3.2740   23.4480 C   0  0  1  0  0  0  0  0  0  0  0  0
   11.8674    5.5659   23.5656 C   0  0  1  0  0  0  0  0  0  0  0  0
   10.4315    5.9695   23.2570 C   0  0  0  0  0  0  0  0  0  0  0  0
   11.7486    0.8817   23.4150 N   0  0  0  0  0  0  0  0  0  0  0  0
   10.0988    2.4957   23.7094 O   0  0  0  0  0  0  0  0  0  0  0  0
   11.8487    4.3304   24.2995 O   0  0  0  0  0  0  0  0  0  0  0  0
   13.6989   -1.2812   21.1336 F   0  0  0  0  0  0  0  0  0  0  0  0
  1  2  2  0  0  0  0
  1  4  1  0  0  0  0
  2  5  1  0  0  0  0
  2 15  1  0  0  0  0
  3  9  1  0  0  0  0
  3 12  1  0  0  0  0
  3 13  2  0  0  0  0
  4  8  1  0  0  0  0
  5 12  1  0  0  0  0
  6  7  1  0  0  0  0
  6  9  1  0  0  0  0
  7 10  1  0  0  0  0
  8 12  1  0  0  0  0
  9 14  1  0  0  0  0
 10 11  1  0  0  0  0
 10 14  1  0  0  0  0
M  ISO  2   9   1  10   1
M  END
> <ref_mols>
x0493_0

> <original SMILES>
C[1C@@H]1CC[1C@@H](O1)C(=O)N2CCC=C(F)C2

> <Chemgauss4>
-7.978871

> <ref_pdb>
x0104_0

$$$$
x0492
  -OEChem-05172015543D

 14 14  0     0  0  0  0  0  0999 V2000
   14.3690   -1.4066   24.3980 C   0  0  0  0  0  0  0  0  0  0  0  0
   13.5951   -0.3039   24.7592 C   0  0  0  0  0  0  0  0  0  0  0  0
   14.2962   -1.9152   23.1012 C   0  0  0  0  0  0  0  0  0  0  0  0
   12.7482    0.2904   23.8236 C   0  0  0  0  0  0  0  0  0  0  0  0
   13.4494   -1.3209   22.1655 C   0  0  0  0  0  0  0  0  0  0  0  0
   12.6754   -0.2182   22.5267 C   0  0  0  0  0  0  0  0  0  0  0  0
    9.4175    0.2349   20.7065 C   0  0  0  0  0  0  0  0  0  0  0  0
    6.3376    0.6179   20.1737 C   0  0  0  0  0  0  0  0  0  0  0  0
   11.7639    0.4208   21.5192 C   0  0  0  0  0  0  0  0  0  0  0  0
    7.1463    0.2172   21.3891 C   0  0  0  0  0  0  0  0  0  0  0  0
   10.4447   -0.1681   21.5335 N   0  0  0  0  0  0  0  0  0  0  0  0
    9.4818    1.1265   19.8664 O   0  0  0  0  0  0  0  0  0  0  0  0
    8.3018   -0.5121   20.9608 O   0  0  0  0  0  0  0  0  0  0  0  0
   10.2637   -0.9215   22.1897 H   0  0  0  0  0  0  0  0  0  0  0  0
  1  2  1  0  0  0  0
  1  3  2  0  0  0  0
  2  4  2  0  0  0  0
  3  5  1  0  0  0  0
  4  6  1  0  0  0  0
  5  6  2  0  0  0  0
  6  9  1  0  0  0  0
  7 11  1  0  0  0  0
  7 12  2  0  0  0  0
  7 13  1  0  0  0  0
  8 10  1  0  0  0  0
  9 11  1  0  0  0  0
 10 13  1  0  0  0  0
 11 14  1  0  0  0  0
M  END
> <ref_mols>
x0492_0

> <original SMILES>
CCOC(=O)NCC=1C=CC=CC1

> <Chemgauss4>
-7.977962

> <ref_pdb>
x0678_0

$$$$
x1067
  -OEChem-05172015543D

 14 14  0     0  0  0  0  0  0999 V2000
   14.3690   -1.4066   24.3980 C   0  0  0  0  0  0  0  0  0  0  0  0
   13.5951   -0.3039   24.7592 C   0  0  0  0  0  0  0  0  0  0  0  0
   14.2962   -1.9152   23.1012 C   0  0  0  0  0  0  0  0  0  0  0  0
   12.7482    0.2904   23.8236 C   0  0  0  0  0  0  0  0  0  0  0  0
   13.4494   -1.3209   22.1655 C   0  0  0  0  0  0  0  0  0  0  0  0
   12.6754   -0.2182   22.5267 C   0  0  0  0  0  0  0  0  0  0  0  0
    9.4175    0.2349   20.7065 C   0  0  0  0  0  0  0  0  0  0  0  0
    6.3376    0.6179   20.1737 C   0  0  0  0  0  0  0  0  0  0  0  0
   11.7639    0.4208   21.5192 C   0  0  0  0  0  0  0  0  0  0  0  0
    7.1463    0.2172   21.3891 C   0  0  0  0  0  0  0  0  0  0  0  0
   10.4447   -0.1681   21.5335 N   0  0  0  0  0  0  0  0  0  0  0  0
    9.4818    1.1265   19.8664 O   0  0  0  0  0  0  0  0  0  0  0  0
    8.3018   -0.5121   20.9608 O   0  0  0  0  0  0  0  0  0  0  0  0
   10.2637   -0.9215   22.1897 H   0  0  0  0  0  0  0  0  0  0  0  0
  1  2  1  0  0  0  0
  1  3  2  0  0  0  0
  2  4  2  0  0  0  0
  3  5  1  0  0  0  0
  4  6  1  0  0  0  0
  5  6  2  0  0  0  0
  6  9  1  0  0  0  0
  7 11  1  0  0  0  0
  7 12  2  0  0  0  0
  7 13  1  0  0  0  0
  8 10  1  0  0  0  0
  9 11  1  0  0  0  0
 10 13  1  0  0  0  0
 11 14  1  0  0  0  0
M  END
> <ref_mols>
x1067_0

> <original SMILES>
CCOC(=O)NCC=1C=CC=CC1

> <Chemgauss4>
-7.977962

> <ref_pdb>
x0678_0

$$$$
x0928
  -OEChem-05172015543D

 18 20  0     1  0  0  0  0  0999 V2000
   13.5711    3.1470   22.0210 C   0  0  0  0  0  0  0  0  0  0  0  0
   13.2133    1.8383   22.3251 C   0  0  0  0  0  0  0  0  0  0  0  0
   12.8568    4.2037   22.5747 C   0  0  0  0  0  0  0  0  0  0  0  0
   12.1421    1.6411   23.1815 C   0  0  0  0  0  0  0  0  0  0  0  0
   11.8014    3.9007   23.4197 C   0  0  0  0  0  0  0  0  0  0  0  0
   13.6147   -1.2533   22.6274 C   0  0  0  0  0  0  0  0  0  0  0  0
    9.9343   -1.2868   22.8323 C   0  0  0  0  0  0  0  0  0  0  0  0
   11.1015   -0.1093   24.8654 C   0  0  0  0  0  0  0  0  0  0  0  0
   11.2108   -1.5693   22.0281 C   0  0  0  0  0  0  0  0  0  0  0  0
   10.2381   -0.0570   23.6403 C   0  0  1  0  0  0  0  0  0  0  0  0
   11.7326    0.2172   23.5276 C   0  0  1  0  0  0  0  0  0  0  0  0
   14.4874   -0.9400   23.8145 C   0  0  0  0  0  0  0  0  0  0  0  0
    9.6634    6.8690   23.5351 C   0  0  0  0  0  0  0  0  0  0  0  0
   11.0121    5.0096   24.0317 C   0  0  0  0  0  0  0  0  0  0  0  0
   11.4244    2.6422   23.7386 N   0  0  0  0  0  0  0  0  0  0  0  0
   12.2936   -0.8488   22.7098 N   0  0  0  0  0  0  0  0  0  0  0  0
   14.0909   -1.8367   21.6509 O   0  0  0  0  0  0  0  0  0  0  0  0
   10.4278    5.7966   23.0015 O   0  0  0  0  0  0  0  0  0  0  0  0
  1  2  2  0  0  0  0
  1  3  1  0  0  0  0
  2  4  1  0  0  0  0
  3  5  2  0  0  0  0
  4 11  1  0  0  0  0
  4 15  2  0  0  0  0
  5 14  1  0  0  0  0
  5 15  1  0  0  0  0
  6 12  1  0  0  0  0
  6 16  1  0  0  0  0
  6 17  2  0  0  0  0
  7  9  1  0  0  0  0
  7 10  1  0  0  0  0
  8 10  1  0  0  0  0
  8 11  1  0  0  0  0
  9 16  1  0  0  0  0
 10 11  1  0  0  0  0
 11 16  1  0  0  0  0
 13 18  1  0  0  0  0
 14 18  1  0  0  0  0
M  END
> <ref_mols>
x0928_0

> <original SMILES>
COCC1=NC(C23N(C(C)=O)CCC2C3)=CC=C1

> <Chemgauss4>
-7.977842

> <ref_pdb>
x0195_0

$$$$
x2861
  -OEChem-05172015543D

 30 32  0     1  0  0  0  0  0999 V2000
   14.9627   -2.1058   23.6010 C   0  0  0  0  0  0  0  0  0  0  0  0
    5.6636   -4.7254   27.3535 C   0  0  0  0  0  0  0  0  0  0  0  0
   13.9130   -1.8577   24.4854 C   0  0  0  0  0  0  0  0  0  0  0  0
   14.9170   -1.5952   22.3036 C   0  0  0  0  0  0  0  0  0  0  0  0
    6.9487   -5.2193   27.1295 C   0  0  0  0  0  0  0  0  0  0  0  0
    5.0065   -4.0109   26.3517 C   0  0  0  0  0  0  0  0  0  0  0  0
   12.8176   -1.0993   24.0726 C   0  0  0  0  0  0  0  0  0  0  0  0
   13.8216   -0.8367   21.8908 C   0  0  0  0  0  0  0  0  0  0  0  0
    7.5768   -4.9987   25.9038 C   0  0  0  0  0  0  0  0  0  0  0  0
    5.6346   -3.7904   25.1260 C   0  0  0  0  0  0  0  0  0  0  0  0
    6.2850   -0.0637   19.3507 C   0  0  0  0  0  0  0  0  0  0  0  0
    5.2481   -0.6635   18.6153 C   0  0  0  0  0  0  0  0  0  0  0  0
   12.7719   -0.5887   22.7752 C   0  0  0  0  0  0  0  0  0  0  0  0
    6.9198   -4.2842   24.9020 C   0  0  0  0  0  0  0  0  0  0  0  0
    7.3203    0.0058   18.4565 C   0  0  0  0  0  0  0  0  0  0  0  0
    9.5387    0.2463   20.8773 C   0  0  0  0  0  0  0  0  0  0  0  0
    9.0047   -2.4672   22.5140 C   0  0  0  0  0  0  0  0  0  0  0  0
   11.5869    0.2318   22.3278 C   0  0  0  0  0  0  0  0  0  0  0  0
    7.5949   -4.0464   23.5832 C   0  0  0  0  0  0  0  0  0  0  0  0
    8.7282    0.5213   18.5352 C   0  0  0  0  0  0  0  0  0  0  0  0
   10.4728   -0.6225   21.7121 C   0  0  1  0  0  0  0  0  0  0  0  0
    5.6124   -0.9445   17.3611 N   0  0  0  0  0  0  0  0  0  0  0  0
    9.4978   -0.1605   19.5509 N   0  0  0  0  0  0  0  0  0  0  0  0
    9.6674   -1.2725   22.7153 N   0  0  0  0  0  0  0  0  0  0  0  0
    8.9374    1.2151   21.3364 O   0  0  0  0  0  0  0  0  0  0  0  0
    9.0119   -3.1221   21.4769 O   0  0  0  0  0  0  0  0  0  0  0  0
    6.9312   -0.5167   17.2655 O   0  0  0  0  0  0  0  0  0  0  0  0
    8.3313   -2.8199   23.6496 O   0  0  0  0  0  0  0  0  0  0  0  0
   10.0359   -0.9785   19.2805 H   0  0  0  0  0  0  0  0  0  0  0  0
    9.5822   -0.8251   23.6246 H   0  0  0  0  0  0  0  0  0  0  0  0
  1  3  1  0  0  0  0
  1  4  2  0  0  0  0
  2  5  1  0  0  0  0
  2  6  2  0  0  0  0
  3  7  2  0  0  0  0
  4  8  1  0  0  0  0
  5  9  2  0  0  0  0
  6 10  1  0  0  0  0
  7 13  1  0  0  0  0
  8 13  2  0  0  0  0
  9 14  1  0  0  0  0
 10 14  2  0  0  0  0
 11 12  1  0  0  0  0
 11 15  2  0  0  0  0
 12 22  2  0  0  0  0
 13 18  1  0  0  0  0
 14 19  1  0  0  0  0
 15 20  1  0  0  0  0
 15 27  1  0  0  0  0
 16 21  1  0  0  0  0
 16 23  1  0  0  0  0
 16 25  2  0  0  0  0
 17 24  1  0  0  0  0
 17 26  2  0  0  0  0
 17 28  1  0  0  0  0
 18 21  1  0  0  0  0
 19 28  1  0  0  0  0
 20 23  1  0  0  0  0
 21 24  1  0  0  0  0
 22 27  1  0  0  0  0
 23 29  1  0  0  0  0
 24 30  1  0  0  0  0
M  END
> <ref_mols>
x2861_0

> <original SMILES>
O=C(NC(CC=1C=CC=CC1)C(=O)NCC2=CC=NO2)OCC=3C=CC=CC3

> <Chemgauss4>
-7.968852

> <ref_pdb>
x0678_0

$$$$
x0088
  -OEChem-05172015543D

 17 18  0     0  0  0  0  0  0999 V2000
   13.8394   -1.8649   22.3827 C   0  0  0  0  0  0  0  0  0  0  0  0
   14.2928   -0.9676   23.3495 C   0  0  0  0  0  0  0  0  0  0  0  0
   12.4706   -2.0240   22.1660 C   0  0  0  0  0  0  0  0  0  0  0  0
   13.3774   -0.2295   24.0998 C   0  0  0  0  0  0  0  0  0  0  0  0
   11.5553   -1.2859   22.9163 C   0  0  0  0  0  0  0  0  0  0  0  0
   12.0087   -0.3886   23.8832 C   0  0  0  0  0  0  0  0  0  0  0  0
    9.4447   -2.4720   23.4466 C   0  0  0  0  0  0  0  0  0  0  0  0
    9.6757   -1.1546   21.3414 C   0  0  0  0  0  0  0  0  0  0  0  0
    7.9591   -2.1412   23.4807 C   0  0  0  0  0  0  0  0  0  0  0  0
    8.1902   -0.8285   21.3898 C   0  0  0  0  0  0  0  0  0  0  0  0
    8.9556    1.3397   24.6878 C   0  0  0  0  0  0  0  0  0  0  0  0
   10.2545    1.2169   23.9201 C   0  0  0  0  0  0  0  0  0  0  0  0
   10.1845   -1.4554   22.6883 N   0  0  0  0  0  0  0  0  0  0  0  0
    7.4703   -1.9325   22.0878 N   0  3  0  0  0  0  0  0  0  0  0  0
   11.1309    0.3419   24.6271 O   0  0  0  0  0  0  0  0  0  0  0  0
    7.5642   -2.8059   21.5507 H   0  0  0  0  0  0  0  0  0  0  0  0
    6.4628   -1.7229   22.1079 H   0  0  0  0  0  0  0  0  0  0  0  0
  1  2  1  0  0  0  0
  1  3  2  0  0  0  0
  2  4  2  0  0  0  0
  3  5  1  0  0  0  0
  4  6  1  0  0  0  0
  5  6  2  0  0  0  0
  5 13  1  0  0  0  0
  6 15  1  0  0  0  0
  7  9  1  0  0  0  0
  7 13  1  0  0  0  0
  8 10  1  0  0  0  0
  8 13  1  0  0  0  0
  9 14  1  0  0  0  0
 10 14  1  0  0  0  0
 11 12  1  0  0  0  0
 12 15  1  0  0  0  0
 14 16  1  0  0  0  0
 14 17  1  0  0  0  0
M  CHG  1  14   1
M  END
> <ref_mols>
x0088_0

> <original SMILES>
CCOC=1C=CC=CC1N2CCNCC2

> <Chemgauss4>
-7.968272

> <ref_pdb>
x0678_0

$$$$
x0205
  -OEChem-05172015543D

 14 15  0     0  0  0  0  0  0999 V2000
    8.7997   -3.4786   23.0329 C   0  0  0  0  0  0  0  0  0  0  0  0
   13.2179   -0.0767   24.3840 C   0  0  0  0  0  0  0  0  0  0  0  0
    9.4406   -2.3177   24.7870 C   0  0  0  0  0  0  0  0  0  0  0  0
   13.8876   -1.9310   23.2527 C   0  0  0  0  0  0  0  0  0  0  0  0
    9.6206   -2.4054   23.4281 C   0  0  0  0  0  0  0  0  0  0  0  0
   11.9173   -0.2476   23.9554 C   0  0  0  0  0  0  0  0  0  0  0  0
   11.6955   -1.3400   23.1419 C   0  0  0  0  0  0  0  0  0  0  0  0
    8.0617   -3.6134   26.4307 C   0  0  0  0  0  0  0  0  0  0  0  0
   14.2316   -0.9023   24.0507 N   0  0  0  0  0  0  0  0  0  0  0  0
    8.1469   -4.0331   24.0577 N   0  0  0  0  0  0  0  0  0  0  0  0
   12.6611   -2.2054   22.7691 N   0  0  0  0  0  0  0  0  0  0  0  0
    8.5574   -3.3055   25.1104 N   0  0  0  0  0  0  0  0  0  0  0  0
   10.4381   -1.5981   22.6626 O   0  0  0  0  0  0  0  0  0  0  0  0
   10.6814    0.8432   24.4205 Cl  0  0  0  0  0  0  0  0  0  0  0  0
  1  5  1  0  0  0  0
  1 10  2  0  0  0  0
  2  6  1  0  0  0  0
  2  9  2  0  0  0  0
  3  5  2  0  0  0  0
  3 12  1  0  0  0  0
  4  9  1  0  0  0  0
  4 11  2  0  0  0  0
  5 13  1  0  0  0  0
  6  7  2  0  0  0  0
  6 14  1  0  0  0  0
  7 11  1  0  0  0  0
  7 13  1  0  0  0  0
  8 12  1  0  0  0  0
 10 12  1  0  0  0  0
M  END
> <ref_mols>
x0205_0

> <original SMILES>
CN1C=C(OC=2N=CN=CC2Cl)C=N1

> <Chemgauss4>
-7.966446

> <ref_pdb>
x0072_0

$$$$
x1100
  -OEChem-05172015543D

 14 15  0     0  0  0  0  0  0999 V2000
    8.7997   -3.4786   23.0329 C   0  0  0  0  0  0  0  0  0  0  0  0
   13.2179   -0.0767   24.3840 C   0  0  0  0  0  0  0  0  0  0  0  0
    9.4406   -2.3177   24.7870 C   0  0  0  0  0  0  0  0  0  0  0  0
   13.8876   -1.9310   23.2527 C   0  0  0  0  0  0  0  0  0  0  0  0
    9.6206   -2.4054   23.4281 C   0  0  0  0  0  0  0  0  0  0  0  0
   11.9173   -0.2476   23.9554 C   0  0  0  0  0  0  0  0  0  0  0  0
   11.6955   -1.3400   23.1419 C   0  0  0  0  0  0  0  0  0  0  0  0
    8.0617   -3.6134   26.4307 C   0  0  0  0  0  0  0  0  0  0  0  0
   14.2316   -0.9023   24.0507 N   0  0  0  0  0  0  0  0  0  0  0  0
    8.1469   -4.0331   24.0577 N   0  0  0  0  0  0  0  0  0  0  0  0
   12.6611   -2.2054   22.7691 N   0  0  0  0  0  0  0  0  0  0  0  0
    8.5574   -3.3055   25.1104 N   0  0  0  0  0  0  0  0  0  0  0  0
   10.4381   -1.5981   22.6626 O   0  0  0  0  0  0  0  0  0  0  0  0
   10.6814    0.8432   24.4205 Cl  0  0  0  0  0  0  0  0  0  0  0  0
  1  5  1  0  0  0  0
  1 10  2  0  0  0  0
  2  6  1  0  0  0  0
  2  9  2  0  0  0  0
  3  5  2  0  0  0  0
  3 12  1  0  0  0  0
  4  9  1  0  0  0  0
  4 11  2  0  0  0  0
  5 13  1  0  0  0  0
  6  7  2  0  0  0  0
  6 14  1  0  0  0  0
  7 11  1  0  0  0  0
  7 13  1  0  0  0  0
  8 12  1  0  0  0  0
 10 12  1  0  0  0  0
M  END
> <ref_mols>
x1100_0

> <original SMILES>
CN1C=C(OC=2N=CN=CC2Cl)C=N1

> <Chemgauss4>
-7.966446

> <ref_pdb>
x0072_0

$$$$
x2894
  -OEChem-05172015543D

 19 20  0     0  0  0  0  0  0999 V2000
    7.9247   -6.2699   23.5517 C   0  0  0  0  0  0  0  0  0  0  0  0
    6.8873   -6.4392   22.6349 C   0  0  0  0  0  0  0  0  0  0  0  0
    8.5799   -5.0419   23.6448 C   0  0  0  0  0  0  0  0  0  0  0  0
    6.5051   -5.3805   21.8109 C   0  0  0  0  0  0  0  0  0  0  0  0
    8.1976   -3.9833   22.8209 C   0  0  0  0  0  0  0  0  0  0  0  0
    7.1602   -4.1526   21.9040 C   0  0  0  0  0  0  0  0  0  0  0  0
   14.0344   -1.4710   25.7789 C   0  0  0  0  0  0  0  0  0  0  0  0
   13.0880   -1.0572   24.9336 C   0  0  0  0  0  0  0  0  0  0  0  0
   11.6975   -0.9464   25.4183 C   0  0  0  0  0  0  0  0  0  0  0  0
    8.4264   -1.7146   23.8501 C   0  0  0  0  0  0  0  0  0  0  0  0
   10.2664   -2.6418   22.5206 C   0  0  0  0  0  0  0  0  0  0  0  0
    9.2879   -1.7384   25.1142 C   0  0  0  0  0  0  0  0  0  0  0  0
   11.1489   -2.6943   23.7692 C   0  0  0  0  0  0  0  0  0  0  0  0
    8.8652   -2.7689   22.9339 N   0  0  0  0  0  0  0  0  0  0  0  0
   10.7255   -1.7165   24.7821 N   0  0  0  0  0  0  0  0  0  0  0  0
    6.7499   -3.0894   21.0515 N   0  0  0  0  0  0  0  0  0  0  0  0
   11.4796   -0.1737   26.3531 O   0  0  0  0  0  0  0  0  0  0  0  0
    5.8127   -3.2891   20.2437 O   0  0  0  0  0  0  0  0  0  0  0  0
    7.3379   -1.9858   21.1350 O   0  0  0  0  0  0  0  0  0  0  0  0
  1  2  1  0  0  0  0
  1  3  2  0  0  0  0
  2  4  2  0  0  0  0
  3  5  1  0  0  0  0
  4  6  1  0  0  0  0
  5  6  2  0  0  0  0
  5 14  1  0  0  0  0
  6 16  1  0  0  0  0
  7  8  2  0  0  0  0
  8  9  1  0  0  0  0
  9 15  1  0  0  0  0
  9 17  2  0  0  0  0
 10 12  1  0  0  0  0
 10 14  1  0  0  0  0
 11 13  1  0  0  0  0
 11 14  1  0  0  0  0
 12 15  1  0  0  0  0
 13 15  1  0  0  0  0
 16 18  2  0  0  0  0
 16 19  2  0  0  0  0
M  END
> <ref_mols>
x2894_0

> <original SMILES>
O=[N+]([O-])C2(=C(N1(CCN(C(=O)C=C)CC1))C=CC=C2)

> <Chemgauss4>
-7.963260

> <ref_pdb>
x0749_0

$$$$
x0423
  -OEChem-05172015543D

 16 17  0     0  0  0  0  0  0999 V2000
    7.5006   -3.0920   22.0204 C   0  0  0  0  0  0  0  0  0  0  0  0
    7.4561   -1.6754   20.0773 C   0  0  0  0  0  0  0  0  0  0  0  0
   12.4430   -1.0088   21.9401 C   0  0  0  0  0  0  0  0  0  0  0  0
    6.2772   -3.5986   21.6126 C   0  0  0  0  0  0  0  0  0  0  0  0
    6.2347   -2.2455   19.7563 C   0  0  0  0  0  0  0  0  0  0  0  0
   13.3519   -0.1468   22.5083 C   0  0  0  0  0  0  0  0  0  0  0  0
   11.3597   -1.0917   22.8472 C   0  0  0  0  0  0  0  0  0  0  0  0
    8.0946   -2.1124   21.2326 C   0  0  0  0  0  0  0  0  0  0  0  0
   11.6840   -0.2747   23.9052 C   0  0  0  0  0  0  0  0  0  0  0  0
   10.1212   -1.8791   22.7223 C   0  0  0  0  0  0  0  0  0  0  0  0
   10.9996    0.0781   25.1585 C   0  0  0  0  0  0  0  0  0  0  0  0
    5.6266   -3.1992   20.4968 N   0  0  0  0  0  0  0  0  0  0  0  0
    9.3262   -1.5701   21.5998 N   0  0  0  0  0  0  0  0  0  0  0  0
    9.8139   -2.7139   23.5706 O   0  0  0  0  0  0  0  0  0  0  0  0
   12.8969    0.3050   23.7064 O   0  0  0  0  0  0  0  0  0  0  0  0
    9.7030   -0.8520   20.9702 H   0  0  0  0  0  0  0  0  0  0  0  0
  1  4  2  0  0  0  0
  1  8  1  0  0  0  0
  2  5  1  0  0  0  0
  2  8  2  0  0  0  0
  3  6  2  0  0  0  0
  3  7  1  0  0  0  0
  4 12  1  0  0  0  0
  5 12  2  0  0  0  0
  6 15  1  0  0  0  0
  7  9  2  0  0  0  0
  7 10  1  0  0  0  0
  8 13  1  0  0  0  0
  9 11  1  0  0  0  0
  9 15  1  0  0  0  0
 10 13  1  0  0  0  0
 10 14  2  0  0  0  0
 13 16  1  0  0  0  0
M  END
> <ref_mols>
x0423_0

> <original SMILES>
CC=1OC=CC1C(=O)NC=2C=CN=CC2

> <Chemgauss4>
-7.959296

> <ref_pdb>
x1386_0

$$$$
x2747
  -OEChem-05172015543D

 26 28  0     0  0  0  0  0  0999 V2000
   13.3889   -2.6390   26.3641 C   0  0  0  0  0  0  0  0  0  0  0  0
   13.2121   -1.3048   25.9978 C   0  0  0  0  0  0  0  0  0  0  0  0
   12.5408   -3.6211   25.8521 C   0  0  0  0  0  0  0  0  0  0  0  0
   12.9043    1.4576   24.6165 C   0  0  0  0  0  0  0  0  0  0  0  0
   11.3391   -1.9346   24.6077 C   0  0  0  0  0  0  0  0  0  0  0  0
   12.1248    2.5588   24.2145 C   0  0  0  0  0  0  0  0  0  0  0  0
   12.1872   -0.9526   25.1197 C   0  0  0  0  0  0  0  0  0  0  0  0
   11.5159   -3.2688   24.9740 C   0  0  0  0  0  0  0  0  0  0  0  0
   12.0048    0.4271   24.7401 C   0  0  0  0  0  0  0  0  0  0  0  0
    9.5930   -4.0919   23.5779 C   0  0  0  0  0  0  0  0  0  0  0  0
    4.8107   -5.4908   22.4678 C   0  0  0  0  0  0  0  0  0  0  0  0
    7.8462   -5.7045   24.3123 C   0  0  0  0  0  0  0  0  0  0  0  0
    8.3716   -5.4160   21.8417 C   0  0  0  0  0  0  0  0  0  0  0  0
    6.5746   -4.8866   24.0939 C   0  0  0  0  0  0  0  0  0  0  0  0
    7.0726   -4.6222   21.6962 C   0  0  0  0  0  0  0  0  0  0  0  0
    8.9267   -5.4011   23.2695 C   0  0  0  0  0  0  0  0  0  0  0  0
    3.9701   -5.8304   23.6727 C   0  0  0  0  0  0  0  0  0  0  0  0
   10.8298    2.2561   24.0908 N   0  0  0  0  0  0  0  0  0  0  0  0
   10.7886    0.9530   24.4169 N   0  0  0  0  0  0  0  0  0  0  0  0
    6.1002   -5.0232   22.7174 N   0  0  0  0  0  0  0  0  0  0  0  0
   10.6549   -4.2654   24.4564 N   0  0  0  0  0  0  0  0  0  0  0  0
    9.1908   -3.0484   23.0736 O   0  0  0  0  0  0  0  0  0  0  0  0
    4.3329   -5.6354   21.3395 O   0  0  0  0  0  0  0  0  0  0  0  0
    2.4034   -6.3518   23.0632 Cl  0  0  0  0  0  0  0  0  0  0  0  0
    9.8913    0.4839   24.3961 H   0  0  0  0  0  0  0  0  0  0  0  0
   10.8471   -5.2141   24.7714 H   0  0  0  0  0  0  0  0  0  0  0  0
  1  2  2  0  0  0  0
  1  3  1  0  0  0  0
  2  7  1  0  0  0  0
  3  8  2  0  0  0  0
  4  6  1  0  0  0  0
  4  9  2  0  0  0  0
  5  7  2  0  0  0  0
  5  8  1  0  0  0  0
  6 18  2  0  0  0  0
  7  9  1  0  0  0  0
  8 21  1  0  0  0  0
  9 19  1  0  0  0  0
 10 16  1  0  0  0  0
 10 21  1  0  0  0  0
 10 22  2  0  0  0  0
 11 17  1  0  0  0  0
 11 20  1  0  0  0  0
 11 23  2  0  0  0  0
 12 14  1  0  0  0  0
 12 16  1  0  0  0  0
 13 15  1  0  0  0  0
 13 16  1  0  0  0  0
 14 20  1  0  0  0  0
 15 20  1  0  0  0  0
 17 24  1  0  0  0  0
 18 19  1  0  0  0  0
 19 25  1  0  0  0  0
 21 26  1  0  0  0  0
M  END
> <ref_mols>
x2747_0

> <original SMILES>
O=C(C1CCN(C(CCl)=O)CC1)NC2=CC(C3=NNC=C3)=CC=C2

> <Chemgauss4>
-7.958611

> <ref_pdb>
x0749_0

> <CYS145-warhead dist minimum (A)>
11.250332

> <CYS145-warhead dist mean (A)>
12.94828

> <CYS145-warhead dist stddev (A)>
0.6653212

$$$$
x2036
  -OEChem-05172015543D

 26 28  0     0  0  0  0  0  0999 V2000
   13.3889   -2.6390   26.3641 C   0  0  0  0  0  0  0  0  0  0  0  0
   13.2121   -1.3048   25.9978 C   0  0  0  0  0  0  0  0  0  0  0  0
   12.5408   -3.6211   25.8521 C   0  0  0  0  0  0  0  0  0  0  0  0
   12.9043    1.4576   24.6165 C   0  0  0  0  0  0  0  0  0  0  0  0
   11.3391   -1.9346   24.6077 C   0  0  0  0  0  0  0  0  0  0  0  0
   12.1248    2.5588   24.2145 C   0  0  0  0  0  0  0  0  0  0  0  0
   12.1872   -0.9526   25.1197 C   0  0  0  0  0  0  0  0  0  0  0  0
   11.5159   -3.2688   24.9740 C   0  0  0  0  0  0  0  0  0  0  0  0
   12.0048    0.4271   24.7401 C   0  0  0  0  0  0  0  0  0  0  0  0
    9.5930   -4.0919   23.5779 C   0  0  0  0  0  0  0  0  0  0  0  0
    4.8107   -5.4908   22.4678 C   0  0  0  0  0  0  0  0  0  0  0  0
    7.8462   -5.7045   24.3123 C   0  0  0  0  0  0  0  0  0  0  0  0
    8.3716   -5.4160   21.8417 C   0  0  0  0  0  0  0  0  0  0  0  0
    6.5746   -4.8866   24.0939 C   0  0  0  0  0  0  0  0  0  0  0  0
    7.0726   -4.6222   21.6962 C   0  0  0  0  0  0  0  0  0  0  0  0
    8.9267   -5.4011   23.2695 C   0  0  0  0  0  0  0  0  0  0  0  0
    3.9701   -5.8304   23.6727 C   0  0  0  0  0  0  0  0  0  0  0  0
   10.8298    2.2561   24.0908 N   0  0  0  0  0  0  0  0  0  0  0  0
   10.7886    0.9530   24.4169 N   0  0  0  0  0  0  0  0  0  0  0  0
    6.1002   -5.0232   22.7174 N   0  0  0  0  0  0  0  0  0  0  0  0
   10.6549   -4.2654   24.4564 N   0  0  0  0  0  0  0  0  0  0  0  0
    9.1908   -3.0484   23.0736 O   0  0  0  0  0  0  0  0  0  0  0  0
    4.3329   -5.6354   21.3395 O   0  0  0  0  0  0  0  0  0  0  0  0
    2.4034   -6.3518   23.0632 Cl  0  0  0  0  0  0  0  0  0  0  0  0
    9.8913    0.4839   24.3961 H   0  0  0  0  0  0  0  0  0  0  0  0
   10.8471   -5.2141   24.7714 H   0  0  0  0  0  0  0  0  0  0  0  0
  1  2  2  0  0  0  0
  1  3  1  0  0  0  0
  2  7  1  0  0  0  0
  3  8  2  0  0  0  0
  4  6  1  0  0  0  0
  4  9  2  0  0  0  0
  5  7  2  0  0  0  0
  5  8  1  0  0  0  0
  6 18  2  0  0  0  0
  7  9  1  0  0  0  0
  8 21  1  0  0  0  0
  9 19  1  0  0  0  0
 10 16  1  0  0  0  0
 10 21  1  0  0  0  0
 10 22  2  0  0  0  0
 11 17  1  0  0  0  0
 11 20  1  0  0  0  0
 11 23  2  0  0  0  0
 12 14  1  0  0  0  0
 12 16  1  0  0  0  0
 13 15  1  0  0  0  0
 13 16  1  0  0  0  0
 14 20  1  0  0  0  0
 15 20  1  0  0  0  0
 17 24  1  0  0  0  0
 18 19  1  0  0  0  0
 19 25  1  0  0  0  0
 21 26  1  0  0  0  0
M  END
> <ref_mols>
x2036_0

> <original SMILES>
O=C(C1CCN(C(CCl)=O)CC1)NC2=CC(C3=NNC=C3)=CC=C2

> <Chemgauss4>
-7.958611

> <ref_pdb>
x0749_0

> <CYS145-warhead dist minimum (A)>
9.131801

> <CYS145-warhead dist mean (A)>
9.834335

> <CYS145-warhead dist stddev (A)>
0.30825487

$$$$
x1217
  -OEChem-05172015543D

 18 18  0     0  0  0  0  0  0999 V2000
   11.8527    1.1549   22.3236 C   0  0  0  0  0  0  0  0  0  0  0  0
   11.1280   -1.0977   21.8362 C   0  0  0  0  0  0  0  0  0  0  0  0
   12.9748    0.6515   22.9816 C   0  0  0  0  0  0  0  0  0  0  0  0
   12.2501   -1.6011   22.4941 C   0  0  0  0  0  0  0  0  0  0  0  0
   10.9292    0.2803   21.7509 C   0  0  0  0  0  0  0  0  0  0  0  0
   13.1736   -0.7264   23.0669 C   0  0  0  0  0  0  0  0  0  0  0  0
    9.7593    0.8050   21.0647 C   0  0  0  0  0  0  0  0  0  0  0  0
    7.4304   -0.1088   18.9262 C   0  0  0  0  0  0  0  0  0  0  0  0
   14.4094   -2.6369   23.7588 C   0  0  0  0  0  0  0  0  0  0  0  0
    7.3945    0.3559   20.3638 C   0  0  0  0  0  0  0  0  0  0  0  0
    6.4196   -1.0007   18.6387 N   0  0  0  0  0  0  0  0  0  0  0  0
    8.6246   -0.0137   21.0265 N   0  0  0  0  0  0  0  0  0  0  0  0
    9.7935    1.9249   20.5245 O   0  0  0  0  0  0  0  0  0  0  0  0
    8.2387    0.2960   18.0950 O   0  0  0  0  0  0  0  0  0  0  0  0
   14.2683   -1.2179   23.7090 O   0  0  0  0  0  0  0  0  0  0  0  0
    5.7524   -1.2796   19.3503 H   0  0  0  0  0  0  0  0  0  0  0  0
    6.3006   -1.4091   17.7170 H   0  0  0  0  0  0  0  0  0  0  0  0
    8.6706   -0.9443   21.4286 H   0  0  0  0  0  0  0  0  0  0  0  0
  1  3  2  0  0  0  0
  1  5  1  0  0  0  0
  2  4  1  0  0  0  0
  2  5  2  0  0  0  0
  3  6  1  0  0  0  0
  4  6  2  0  0  0  0
  5  7  1  0  0  0  0
  6 15  1  0  0  0  0
  7 12  1  0  0  0  0
  7 13  2  0  0  0  0
  8 10  1  0  0  0  0
  8 11  1  0  0  0  0
  8 14  2  0  0  0  0
  9 15  1  0  0  0  0
 10 12  1  0  0  0  0
 11 16  1  0  0  0  0
 11 17  1  0  0  0  0
 12 18  1  0  0  0  0
M  END
> <ref_mols>
x1217_0

> <original SMILES>
COC=1C=CC(=CC1)C(=O)NCC(=O)N

> <Chemgauss4>
-7.953971

> <ref_pdb>
x0678_0

$$$$
x1167
  -OEChem-05172015543D

 14 14  0     1  0  0  0  0  0999 V2000
    7.0489    0.6097   19.0685 C   0  0  0  0  0  0  0  0  0  0  0  0
    5.0609    1.1619   19.2181 C   0  0  0  0  0  0  0  0  0  0  0  0
    8.4334    0.3080   19.4487 C   0  0  0  0  0  0  0  0  0  0  0  0
    2.0740    2.4097   21.4404 C   0  0  0  0  0  0  0  0  0  0  0  0
    3.8568    0.7587   21.9922 C   0  0  0  0  0  0  0  0  0  0  0  0
    3.6644    1.5997   19.5926 C   0  0  1  0  0  0  0  0  0  0  0  0
    3.4989    1.9540   21.0966 C   0  0  0  0  0  0  0  0  0  0  0  0
    6.1156    1.0124   19.9789 N   0  0  0  0  0  0  0  0  0  0  0  0
    6.6228    0.5075   17.8061 N   0  0  0  0  0  0  0  0  0  0  0  0
    3.2271    2.7634   18.7508 N   0  3  0  0  0  0  0  0  0  0  0  0
    5.2767    0.8811   17.9062 O   0  0  0  0  0  0  0  0  0  0  0  0
    3.5945    3.6319   19.1379 H   0  0  0  0  0  0  0  0  0  0  0  0
    2.2092    2.8155   18.7300 H   0  0  0  0  0  0  0  0  0  0  0  0
    3.5722    2.6541   17.7978 H   0  0  0  0  0  0  0  0  0  0  0  0
  1  3  1  0  0  0  0
  1  8  1  0  0  0  0
  1  9  2  0  0  0  0
  2  6  1  0  0  0  0
  2  8  2  0  0  0  0
  2 11  1  0  0  0  0
  4  7  1  0  0  0  0
  5  7  1  0  0  0  0
  6  7  1  0  0  0  0
  6 10  1  0  0  0  0
  9 11  1  0  0  0  0
 10 12  1  0  0  0  0
 10 13  1  0  0  0  0
 10 14  1  0  0  0  0
M  CHG  1  10   1
M  END
> <ref_mols>
x1167_0

> <original SMILES>
CC(C)C(N)C1=NC(C)=NO1

> <Chemgauss4>
-7.951324

> <ref_pdb>
x0426_0

$$$$
x0209
  -OEChem-05172015543D

 14 14  0     1  0  0  0  0  0999 V2000
    7.0489    0.6097   19.0685 C   0  0  0  0  0  0  0  0  0  0  0  0
    5.0609    1.1619   19.2181 C   0  0  0  0  0  0  0  0  0  0  0  0
    8.4334    0.3080   19.4487 C   0  0  0  0  0  0  0  0  0  0  0  0
    2.0740    2.4097   21.4404 C   0  0  0  0  0  0  0  0  0  0  0  0
    3.8568    0.7587   21.9922 C   0  0  0  0  0  0  0  0  0  0  0  0
    3.6644    1.5997   19.5926 C   0  0  1  0  0  0  0  0  0  0  0  0
    3.4989    1.9540   21.0966 C   0  0  0  0  0  0  0  0  0  0  0  0
    6.1156    1.0124   19.9789 N   0  0  0  0  0  0  0  0  0  0  0  0
    6.6228    0.5075   17.8061 N   0  0  0  0  0  0  0  0  0  0  0  0
    3.2271    2.7634   18.7508 N   0  3  0  0  0  0  0  0  0  0  0  0
    5.2767    0.8811   17.9062 O   0  0  0  0  0  0  0  0  0  0  0  0
    3.5945    3.6319   19.1379 H   0  0  0  0  0  0  0  0  0  0  0  0
    2.2092    2.8155   18.7300 H   0  0  0  0  0  0  0  0  0  0  0  0
    3.5722    2.6541   17.7978 H   0  0  0  0  0  0  0  0  0  0  0  0
  1  3  1  0  0  0  0
  1  8  1  0  0  0  0
  1  9  2  0  0  0  0
  2  6  1  0  0  0  0
  2  8  2  0  0  0  0
  2 11  1  0  0  0  0
  4  7  1  0  0  0  0
  5  7  1  0  0  0  0
  6  7  1  0  0  0  0
  6 10  1  0  0  0  0
  9 11  1  0  0  0  0
 10 12  1  0  0  0  0
 10 13  1  0  0  0  0
 10 14  1  0  0  0  0
M  CHG  1  10   1
M  END
> <ref_mols>
x0209_0

> <original SMILES>
CC(C)C(N)C1=NC(C)=NO1

> <Chemgauss4>
-7.951324

> <ref_pdb>
x0426_0

$$$$
x0480
  -OEChem-05172015543D

 19 20  0     0  0  0  0  0  0999 V2000
   13.3620   -2.7425   25.9368 C   0  0  0  0  0  0  0  0  0  0  0  0
   13.8965   -1.5449   25.4617 C   0  0  0  0  0  0  0  0  0  0  0  0
    8.3593   -6.0923   22.8868 C   0  0  0  0  0  0  0  0  0  0  0  0
    8.0508   -3.7512   22.3756 C   0  0  0  0  0  0  0  0  0  0  0  0
   12.2452   -3.3025   25.3164 C   0  0  0  0  0  0  0  0  0  0  0  0
    7.2908   -6.4157   22.0506 C   0  0  0  0  0  0  0  0  0  0  0  0
    6.9823   -4.0746   21.5394 C   0  0  0  0  0  0  0  0  0  0  0  0
   13.3142   -0.9073   24.3662 C   0  0  0  0  0  0  0  0  0  0  0  0
    8.7393   -4.7600   23.0494 C   0  0  0  0  0  0  0  0  0  0  0  0
   11.6629   -2.6649   24.2209 C   0  0  0  0  0  0  0  0  0  0  0  0
    6.6023   -5.4069   21.3768 C   0  0  0  0  0  0  0  0  0  0  0  0
   12.1974   -1.4673   23.7458 C   0  0  0  0  0  0  0  0  0  0  0  0
    9.8535   -4.4226   23.9210 C   0  0  0  0  0  0  0  0  0  0  0  0
    5.2239   -7.1036   20.4404 C   0  0  0  0  0  0  0  0  0  0  0  0
   10.5281   -3.2366   23.5923 N   0  0  0  0  0  0  0  0  0  0  0  0
   10.1917   -5.1572   24.8596 O   0  0  0  0  0  0  0  0  0  0  0  0
    5.5595   -5.7221   20.5610 O   0  0  0  0  0  0  0  0  0  0  0  0
   11.6461   -0.8454   22.6936 F   0  0  0  0  0  0  0  0  0  0  0  0
   10.1542   -2.7201   22.8000 H   0  0  0  0  0  0  0  0  0  0  0  0
  1  2  1  0  0  0  0
  1  5  2  0  0  0  0
  2  8  2  0  0  0  0
  3  6  2  0  0  0  0
  3  9  1  0  0  0  0
  4  7  1  0  0  0  0
  4  9  2  0  0  0  0
  5 10  1  0  0  0  0
  6 11  1  0  0  0  0
  7 11  2  0  0  0  0
  8 12  1  0  0  0  0
  9 13  1  0  0  0  0
 10 12  2  0  0  0  0
 10 15  1  0  0  0  0
 11 17  1  0  0  0  0
 12 18  1  0  0  0  0
 13 15  1  0  0  0  0
 13 16  2  0  0  0  0
 14 17  1  0  0  0  0
 15 19  1  0  0  0  0
M  END
> <ref_mols>
x0480_0

> <original SMILES>
COC=1C=CC(=CC1)C(=O)NC=2C=CC=CC2F

> <Chemgauss4>
-7.947535

> <ref_pdb>
x0749_0

$$$$
x0457
  -OEChem-05172015543D

 18 18  0     0  0  0  0  0  0999 V2000
    6.6517   -5.7898   22.5466 C   0  0  0  0  0  0  0  0  0  0  0  0
   11.0370   -3.1991   24.6939 C   0  0  0  0  0  0  0  0  0  0  0  0
    9.0765   -5.8787   23.0876 C   0  0  0  0  0  0  0  0  0  0  0  0
    7.9068   -3.6688   22.5605 C   0  0  0  0  0  0  0  0  0  0  0  0
    9.4701   -5.0845   24.3297 C   0  0  0  0  0  0  0  0  0  0  0  0
    9.2750   -3.0682   22.8657 C   0  0  0  0  0  0  0  0  0  0  0  0
    7.9891   -5.1703   22.2702 C   0  0  0  0  0  0  0  0  0  0  0  0
   12.7025    0.1386   24.2097 C   0  0  0  0  0  0  0  0  0  0  0  0
   12.2084   -1.0117   26.3825 C   0  0  0  0  0  0  0  0  0  0  0  0
   13.8119   -2.0408   24.7522 C   0  0  0  0  0  0  0  0  0  0  0  0
    5.0860   -6.1898   24.2707 C   0  0  0  0  0  0  0  0  0  0  0  0
   12.5254   -1.2198   24.8980 C   0  0  0  0  0  0  0  0  0  0  0  0
    9.9592   -3.7492   23.9745 N   0  0  0  0  0  0  0  0  0  0  0  0
   11.4317   -1.9312   24.2765 N   0  0  0  0  0  0  0  0  0  0  0  0
    5.9621   -6.3385   21.6978 O   0  0  0  0  0  0  0  0  0  0  0  0
   11.5988   -3.7909   25.6205 O   0  0  0  0  0  0  0  0  0  0  0  0
    6.3444   -5.6409   23.8666 O   0  0  0  0  0  0  0  0  0  0  0  0
   10.9345   -1.4936   23.5112 H   0  0  0  0  0  0  0  0  0  0  0  0
  1  7  1  0  0  0  0
  1 15  2  0  0  0  0
  1 17  1  0  0  0  0
  2 13  1  0  0  0  0
  2 14  1  0  0  0  0
  2 16  2  0  0  0  0
  3  5  1  0  0  0  0
  3  7  1  0  0  0  0
  4  6  1  0  0  0  0
  4  7  1  0  0  0  0
  5 13  1  0  0  0  0
  6 13  1  0  0  0  0
  8 12  1  0  0  0  0
  9 12  1  0  0  0  0
 10 12  1  0  0  0  0
 11 17  1  0  0  0  0
 12 14  1  0  0  0  0
 14 18  1  0  0  0  0
M  END
> <ref_mols>
x0457_0

> <original SMILES>
COC(=O)C1CCN(CC1)C(=O)NC(C)(C)C

> <Chemgauss4>
-7.945666

> <ref_pdb>
x0749_0

$$$$
x0844
  -OEChem-05172015543D

 17 18  0     1  0  0  0  0  0999 V2000
   13.5177   -0.8995   23.8811 C   0  0  0  0  0  0  0  0  0  0  0  0
   13.7342   -0.2732   22.6537 C   0  0  0  0  0  0  0  0  0  0  0  0
   12.6741   -0.3127   24.8244 C   0  0  0  0  0  0  0  0  0  0  0  0
   13.1073    0.9401   22.3696 C   0  0  0  0  0  0  0  0  0  0  0  0
   12.0472    0.9006   24.5403 C   0  0  0  0  0  0  0  0  0  0  0  0
   12.2638    1.5270   23.3129 C   0  0  0  0  0  0  0  0  0  0  0  0
   13.4150    4.4674   22.4392 C   0  0  0  0  0  0  0  0  0  0  0  0
    8.8207    5.0236   24.0889 C   0  0  0  0  0  0  0  0  0  0  0  0
   10.2296    3.0159   23.6968 C   0  0  0  0  0  0  0  0  0  0  0  0
   11.2892    5.1697   23.5103 C   0  0  0  0  0  0  0  0  0  0  0  0
   11.5846    2.8413   23.0060 C   0  0  1  0  0  0  0  0  0  0  0  0
   12.3605    4.0868   23.4580 C   0  0  1  0  0  0  0  0  0  0  0  0
    8.7958    6.5302   24.1416 C   0  0  0  0  0  0  0  0  0  0  0  0
   10.0445    4.4567   23.7798 N   0  0  0  0  0  0  0  0  0  0  0  0
   12.9890    4.6512   21.2654 O   0  5  0  0  0  0  0  0  0  0  0  0
   14.5887    4.5518   22.8981 O   0  0  0  0  0  0  0  0  0  0  0  0
    7.7984    4.3747   24.3171 O   0  0  0  0  0  0  0  0  0  0  0  0
  1  2  1  0  0  0  0
  1  3  2  0  0  0  0
  2  4  2  0  0  0  0
  3  5  1  0  0  0  0
  4  6  1  0  0  0  0
  5  6  2  0  0  0  0
  6 11  1  0  0  0  0
  7 12  1  0  0  0  0
  7 15  1  0  0  0  0
  7 16  2  0  0  0  0
  8 13  1  0  0  0  0
  8 14  1  0  0  0  0
  8 17  2  0  0  0  0
  9 11  1  0  0  0  0
  9 14  1  0  0  0  0
 10 12  1  0  0  0  0
 10 14  1  0  0  0  0
 11 12  1  0  0  0  0
M  CHG  1  15  -1
M  END
> <ref_mols>
x0844_0

> <original SMILES>
O=C([C@@H]1[C@@H](C2=CC=CC=C2)CN(C(C)=O)C1)O

> <Chemgauss4>
-7.945217

> <ref_pdb>
x0161_0

$$$$
x0761
  -OEChem-05172015543D

 18 19  0     0  0  0  0  0  0999 V2000
   12.4661   -0.6411   22.3474 C   0  0  0  0  0  0  0  0  0  0  0  0
   13.0498    0.5710   22.8169 C   0  0  0  0  0  0  0  0  0  0  0  0
   11.2356   -0.8783   22.9193 C   0  0  0  0  0  0  0  0  0  0  0  0
   12.2429    1.2141   23.7297 C   0  0  0  0  0  0  0  0  0  0  0  0
    6.2615   -1.1859   19.0040 C   0  0  0  0  0  0  0  0  0  0  0  0
    6.8283   -2.3107   21.1335 C   0  0  0  0  0  0  0  0  0  0  0  0
    7.6816   -0.0279   20.7676 C   0  0  0  0  0  0  0  0  0  0  0  0
    8.2113   -2.7817   21.5588 C   0  0  0  0  0  0  0  0  0  0  0  0
    9.0781   -0.4644   21.1895 C   0  0  0  0  0  0  0  0  0  0  0  0
   10.3074   -2.0350   22.6920 C   0  0  0  0  0  0  0  0  0  0  0  0
    6.4079    0.0378   18.1353 C   0  0  0  0  0  0  0  0  0  0  0  0
    6.9181   -1.1608   20.2336 N   0  0  0  0  0  0  0  0  0  0  0  0
    8.9647   -1.6172   22.1619 N   0  3  0  0  0  0  0  0  0  0  0  0
    5.5857   -2.1354   18.5993 O   0  0  0  0  0  0  0  0  0  0  0  0
   10.7885    0.3573   24.0174 S   0  0  0  0  0  0  0  0  0  0  0  0
    5.0666    1.1043   18.5371 Cl  0  0  0  0  0  0  0  0  0  0  0  0
   12.6770    2.8570   24.5781 Br  0  0  0  0  0  0  0  0  0  0  0  0
    8.4214   -1.2844   22.9704 H   0  0  0  0  0  0  0  0  0  0  0  0
  1  2  1  0  0  0  0
  1  3  2  0  0  0  0
  2  4  2  0  0  0  0
  3 10  1  0  0  0  0
  3 15  1  0  0  0  0
  4 15  1  0  0  0  0
  4 17  1  0  0  0  0
  5 11  1  0  0  0  0
  5 12  1  0  0  0  0
  5 14  2  0  0  0  0
  6  8  1  0  0  0  0
  6 12  1  0  0  0  0
  7  9  1  0  0  0  0
  7 12  1  0  0  0  0
  8 13  1  0  0  0  0
  9 13  1  0  0  0  0
 10 13  1  0  0  0  0
 11 16  1  0  0  0  0
 13 18  1  0  0  0  0
M  CHG  1  13   1
M  END
> <ref_mols>
x0761_0

> <original SMILES>
ClCC(=O)N1CCN(Cc2ccc(Br)s2)CC1

> <Chemgauss4>
-7.940189

> <ref_pdb>
x0830_0

$$$$
x1414
  -OEChem-05172015543D

 18 19  0     0  0  0  0  0  0999 V2000
   12.4661   -0.6411   22.3474 C   0  0  0  0  0  0  0  0  0  0  0  0
   13.0498    0.5710   22.8169 C   0  0  0  0  0  0  0  0  0  0  0  0
   11.2356   -0.8783   22.9193 C   0  0  0  0  0  0  0  0  0  0  0  0
   12.2429    1.2141   23.7297 C   0  0  0  0  0  0  0  0  0  0  0  0
    6.2615   -1.1859   19.0040 C   0  0  0  0  0  0  0  0  0  0  0  0
    6.8283   -2.3107   21.1335 C   0  0  0  0  0  0  0  0  0  0  0  0
    7.6816   -0.0279   20.7676 C   0  0  0  0  0  0  0  0  0  0  0  0
    8.2113   -2.7817   21.5588 C   0  0  0  0  0  0  0  0  0  0  0  0
    9.0781   -0.4644   21.1895 C   0  0  0  0  0  0  0  0  0  0  0  0
   10.3074   -2.0350   22.6920 C   0  0  0  0  0  0  0  0  0  0  0  0
    6.4079    0.0378   18.1353 C   0  0  0  0  0  0  0  0  0  0  0  0
    6.9181   -1.1608   20.2336 N   0  0  0  0  0  0  0  0  0  0  0  0
    8.9647   -1.6172   22.1619 N   0  3  0  0  0  0  0  0  0  0  0  0
    5.5857   -2.1354   18.5993 O   0  0  0  0  0  0  0  0  0  0  0  0
   10.7885    0.3573   24.0174 S   0  0  0  0  0  0  0  0  0  0  0  0
    5.0666    1.1043   18.5371 Cl  0  0  0  0  0  0  0  0  0  0  0  0
   12.6770    2.8570   24.5781 Br  0  0  0  0  0  0  0  0  0  0  0  0
    8.4214   -1.2844   22.9704 H   0  0  0  0  0  0  0  0  0  0  0  0
  1  2  1  0  0  0  0
  1  3  2  0  0  0  0
  2  4  2  0  0  0  0
  3 10  1  0  0  0  0
  3 15  1  0  0  0  0
  4 15  1  0  0  0  0
  4 17  1  0  0  0  0
  5 11  1  0  0  0  0
  5 12  1  0  0  0  0
  5 14  2  0  0  0  0
  6  8  1  0  0  0  0
  6 12  1  0  0  0  0
  7  9  1  0  0  0  0
  7 12  1  0  0  0  0
  8 13  1  0  0  0  0
  9 13  1  0  0  0  0
 10 13  1  0  0  0  0
 11 16  1  0  0  0  0
 13 18  1  0  0  0  0
M  CHG  1  13   1
M  END
> <ref_mols>
x1414_0

> <original SMILES>
ClCC(=O)N1CCN(Cc2ccc(Br)s2)CC1

> <Chemgauss4>
-7.940189

> <ref_pdb>
x0830_0

$$$$
x0687
  -OEChem-05172015543D

 18 19  0     0  0  0  0  0  0999 V2000
   12.4661   -0.6411   22.3474 C   0  0  0  0  0  0  0  0  0  0  0  0
   13.0498    0.5710   22.8169 C   0  0  0  0  0  0  0  0  0  0  0  0
   11.2356   -0.8783   22.9193 C   0  0  0  0  0  0  0  0  0  0  0  0
   12.2429    1.2141   23.7297 C   0  0  0  0  0  0  0  0  0  0  0  0
    6.2615   -1.1859   19.0040 C   0  0  0  0  0  0  0  0  0  0  0  0
    6.8283   -2.3107   21.1335 C   0  0  0  0  0  0  0  0  0  0  0  0
    7.6816   -0.0279   20.7676 C   0  0  0  0  0  0  0  0  0  0  0  0
    8.2113   -2.7817   21.5588 C   0  0  0  0  0  0  0  0  0  0  0  0
    9.0781   -0.4644   21.1895 C   0  0  0  0  0  0  0  0  0  0  0  0
   10.3074   -2.0350   22.6920 C   0  0  0  0  0  0  0  0  0  0  0  0
    6.4079    0.0378   18.1353 C   0  0  0  0  0  0  0  0  0  0  0  0
    6.9181   -1.1608   20.2336 N   0  0  0  0  0  0  0  0  0  0  0  0
    8.9647   -1.6172   22.1619 N   0  3  0  0  0  0  0  0  0  0  0  0
    5.5857   -2.1354   18.5993 O   0  0  0  0  0  0  0  0  0  0  0  0
   10.7885    0.3573   24.0174 S   0  0  0  0  0  0  0  0  0  0  0  0
    5.0666    1.1043   18.5371 Cl  0  0  0  0  0  0  0  0  0  0  0  0
   12.6770    2.8570   24.5781 Br  0  0  0  0  0  0  0  0  0  0  0  0
    8.4214   -1.2844   22.9704 H   0  0  0  0  0  0  0  0  0  0  0  0
  1  2  1  0  0  0  0
  1  3  2  0  0  0  0
  2  4  2  0  0  0  0
  3 10  1  0  0  0  0
  3 15  1  0  0  0  0
  4 15  1  0  0  0  0
  4 17  1  0  0  0  0
  5 11  1  0  0  0  0
  5 12  1  0  0  0  0
  5 14  2  0  0  0  0
  6  8  1  0  0  0  0
  6 12  1  0  0  0  0
  7  9  1  0  0  0  0
  7 12  1  0  0  0  0
  8 13  1  0  0  0  0
  9 13  1  0  0  0  0
 10 13  1  0  0  0  0
 11 16  1  0  0  0  0
 13 18  1  0  0  0  0
M  CHG  1  13   1
M  END
> <ref_mols>
x0687_0

> <original SMILES>
ClCC(=O)N1CCN(Cc2ccc(Br)s2)CC1

> <Chemgauss4>
-7.940189

> <ref_pdb>
x0830_0

$$$$
x1464
  -OEChem-05172015543D

 18 19  0     0  0  0  0  0  0999 V2000
   12.4661   -0.6411   22.3474 C   0  0  0  0  0  0  0  0  0  0  0  0
   13.0498    0.5710   22.8169 C   0  0  0  0  0  0  0  0  0  0  0  0
   11.2356   -0.8783   22.9193 C   0  0  0  0  0  0  0  0  0  0  0  0
   12.2429    1.2141   23.7297 C   0  0  0  0  0  0  0  0  0  0  0  0
    6.2615   -1.1859   19.0040 C   0  0  0  0  0  0  0  0  0  0  0  0
    6.8283   -2.3107   21.1335 C   0  0  0  0  0  0  0  0  0  0  0  0
    7.6816   -0.0279   20.7676 C   0  0  0  0  0  0  0  0  0  0  0  0
    8.2113   -2.7817   21.5588 C   0  0  0  0  0  0  0  0  0  0  0  0
    9.0781   -0.4644   21.1895 C   0  0  0  0  0  0  0  0  0  0  0  0
   10.3074   -2.0350   22.6920 C   0  0  0  0  0  0  0  0  0  0  0  0
    6.4079    0.0378   18.1353 C   0  0  0  0  0  0  0  0  0  0  0  0
    6.9181   -1.1608   20.2336 N   0  0  0  0  0  0  0  0  0  0  0  0
    8.9647   -1.6172   22.1619 N   0  3  0  0  0  0  0  0  0  0  0  0
    5.5857   -2.1354   18.5993 O   0  0  0  0  0  0  0  0  0  0  0  0
   10.7885    0.3573   24.0174 S   0  0  0  0  0  0  0  0  0  0  0  0
    5.0666    1.1043   18.5371 Cl  0  0  0  0  0  0  0  0  0  0  0  0
   12.6770    2.8570   24.5781 Br  0  0  0  0  0  0  0  0  0  0  0  0
    8.4214   -1.2844   22.9704 H   0  0  0  0  0  0  0  0  0  0  0  0
  1  2  1  0  0  0  0
  1  3  2  0  0  0  0
  2  4  2  0  0  0  0
  3 10  1  0  0  0  0
  3 15  1  0  0  0  0
  4 15  1  0  0  0  0
  4 17  1  0  0  0  0
  5 11  1  0  0  0  0
  5 12  1  0  0  0  0
  5 14  2  0  0  0  0
  6  8  1  0  0  0  0
  6 12  1  0  0  0  0
  7  9  1  0  0  0  0
  7 12  1  0  0  0  0
  8 13  1  0  0  0  0
  9 13  1  0  0  0  0
 10 13  1  0  0  0  0
 11 16  1  0  0  0  0
 13 18  1  0  0  0  0
M  CHG  1  13   1
M  END
> <ref_mols>
x1464_0

> <original SMILES>
ClCC(=O)N1CCN(Cc2ccc(Br)s2)CC1

> <Chemgauss4>
-7.940189

> <ref_pdb>
x0830_0

$$$$
x1436
  -OEChem-05172015543D

 18 19  0     0  0  0  0  0  0999 V2000
   12.4661   -0.6411   22.3474 C   0  0  0  0  0  0  0  0  0  0  0  0
   13.0498    0.5710   22.8169 C   0  0  0  0  0  0  0  0  0  0  0  0
   11.2356   -0.8783   22.9193 C   0  0  0  0  0  0  0  0  0  0  0  0
   12.2429    1.2141   23.7297 C   0  0  0  0  0  0  0  0  0  0  0  0
    6.2615   -1.1859   19.0040 C   0  0  0  0  0  0  0  0  0  0  0  0
    6.8283   -2.3107   21.1335 C   0  0  0  0  0  0  0  0  0  0  0  0
    7.6816   -0.0279   20.7676 C   0  0  0  0  0  0  0  0  0  0  0  0
    8.2113   -2.7817   21.5588 C   0  0  0  0  0  0  0  0  0  0  0  0
    9.0781   -0.4644   21.1895 C   0  0  0  0  0  0  0  0  0  0  0  0
   10.3074   -2.0350   22.6920 C   0  0  0  0  0  0  0  0  0  0  0  0
    6.4079    0.0378   18.1353 C   0  0  0  0  0  0  0  0  0  0  0  0
    6.9181   -1.1608   20.2336 N   0  0  0  0  0  0  0  0  0  0  0  0
    8.9647   -1.6172   22.1619 N   0  3  0  0  0  0  0  0  0  0  0  0
    5.5857   -2.1354   18.5993 O   0  0  0  0  0  0  0  0  0  0  0  0
   10.7885    0.3573   24.0174 S   0  0  0  0  0  0  0  0  0  0  0  0
    5.0666    1.1043   18.5371 Cl  0  0  0  0  0  0  0  0  0  0  0  0
   12.6770    2.8570   24.5781 Br  0  0  0  0  0  0  0  0  0  0  0  0
    8.4214   -1.2844   22.9704 H   0  0  0  0  0  0  0  0  0  0  0  0
  1  2  1  0  0  0  0
  1  3  2  0  0  0  0
  2  4  2  0  0  0  0
  3 10  1  0  0  0  0
  3 15  1  0  0  0  0
  4 15  1  0  0  0  0
  4 17  1  0  0  0  0
  5 11  1  0  0  0  0
  5 12  1  0  0  0  0
  5 14  2  0  0  0  0
  6  8  1  0  0  0  0
  6 12  1  0  0  0  0
  7  9  1  0  0  0  0
  7 12  1  0  0  0  0
  8 13  1  0  0  0  0
  9 13  1  0  0  0  0
 10 13  1  0  0  0  0
 11 16  1  0  0  0  0
 13 18  1  0  0  0  0
M  CHG  1  13   1
M  END
> <ref_mols>
x1436_0

> <original SMILES>
ClCC(=O)N1CCN(Cc2ccc(Br)s2)CC1

> <Chemgauss4>
-7.940189

> <ref_pdb>
x0830_0

$$$$
x1385
  -OEChem-05172015543D

 18 19  0     0  0  0  0  0  0999 V2000
   12.4661   -0.6411   22.3474 C   0  0  0  0  0  0  0  0  0  0  0  0
   13.0498    0.5710   22.8169 C   0  0  0  0  0  0  0  0  0  0  0  0
   11.2356   -0.8783   22.9193 C   0  0  0  0  0  0  0  0  0  0  0  0
   12.2429    1.2141   23.7297 C   0  0  0  0  0  0  0  0  0  0  0  0
    6.2615   -1.1859   19.0040 C   0  0  0  0  0  0  0  0  0  0  0  0
    6.8283   -2.3107   21.1335 C   0  0  0  0  0  0  0  0  0  0  0  0
    7.6816   -0.0279   20.7676 C   0  0  0  0  0  0  0  0  0  0  0  0
    8.2113   -2.7817   21.5588 C   0  0  0  0  0  0  0  0  0  0  0  0
    9.0781   -0.4644   21.1895 C   0  0  0  0  0  0  0  0  0  0  0  0
   10.3074   -2.0350   22.6920 C   0  0  0  0  0  0  0  0  0  0  0  0
    6.4079    0.0378   18.1353 C   0  0  0  0  0  0  0  0  0  0  0  0
    6.9181   -1.1608   20.2336 N   0  0  0  0  0  0  0  0  0  0  0  0
    8.9647   -1.6172   22.1619 N   0  3  0  0  0  0  0  0  0  0  0  0
    5.5857   -2.1354   18.5993 O   0  0  0  0  0  0  0  0  0  0  0  0
   10.7885    0.3573   24.0174 S   0  0  0  0  0  0  0  0  0  0  0  0
    5.0666    1.1043   18.5371 Cl  0  0  0  0  0  0  0  0  0  0  0  0
   12.6770    2.8570   24.5781 Br  0  0  0  0  0  0  0  0  0  0  0  0
    8.4214   -1.2844   22.9704 H   0  0  0  0  0  0  0  0  0  0  0  0
  1  2  1  0  0  0  0
  1  3  2  0  0  0  0
  2  4  2  0  0  0  0
  3 10  1  0  0  0  0
  3 15  1  0  0  0  0
  4 15  1  0  0  0  0
  4 17  1  0  0  0  0
  5 11  1  0  0  0  0
  5 12  1  0  0  0  0
  5 14  2  0  0  0  0
  6  8  1  0  0  0  0
  6 12  1  0  0  0  0
  7  9  1  0  0  0  0
  7 12  1  0  0  0  0
  8 13  1  0  0  0  0
  9 13  1  0  0  0  0
 10 13  1  0  0  0  0
 11 16  1  0  0  0  0
 13 18  1  0  0  0  0
M  CHG  1  13   1
M  END
> <ref_mols>
x1385_0

> <original SMILES>
ClCC(=O)N1CCN(Cc2ccc(Br)s2)CC1

> <Chemgauss4>
-7.940189

> <ref_pdb>
x0830_0

$$$$
x2678
  -OEChem-05172015543D

 27 28  0     0  0  0  0  0  0999 V2000
   11.8509   -1.5374   22.2418 C   0  0  0  0  0  0  0  0  0  0  0  0
   11.8134   -0.1879   22.5925 C   0  0  0  0  0  0  0  0  0  0  0  0
   11.0016   -2.4461   22.8732 C   0  0  0  0  0  0  0  0  0  0  0  0
   10.0772   -0.6556   24.2062 C   0  0  0  0  0  0  0  0  0  0  0  0
   10.9266    0.2530   23.5747 C   0  0  0  0  0  0  0  0  0  0  0  0
   10.1148   -2.0052   23.8555 C   0  0  0  0  0  0  0  0  0  0  0  0
    6.7639    7.0424   23.2453 C   0  0  0  0  0  0  0  0  0  0  0  0
   11.6576    2.6564   23.4062 C   0  0  0  0  0  0  0  0  0  0  0  0
    9.1755    6.8503   22.7271 C   0  0  0  0  0  0  0  0  0  0  0  0
    7.8202    4.7921   22.7081 C   0  0  0  0  0  0  0  0  0  0  0  0
   10.2280    6.1738   23.5933 C   0  0  0  0  0  0  0  0  0  0  0  0
    8.8540    4.0836   23.5730 C   0  0  0  0  0  0  0  0  0  0  0  0
    7.0509    8.3022   24.0226 C   0  0  0  0  0  0  0  0  0  0  0  0
   11.2990    3.9683   24.0666 C   0  0  0  0  0  0  0  0  0  0  0  0
    7.8601    6.2420   22.9268 N   0  0  0  0  0  0  0  0  0  0  0  0
    7.6885   -3.0832   23.6189 N   0  0  0  0  0  0  0  0  0  0  0  0
   10.8882    1.6222   23.9305 N   0  0  0  0  0  0  0  0  0  0  0  0
   10.2159    4.6876   23.3131 N   0  3  0  0  0  0  0  0  0  0  0  0
    5.6004    6.7806   22.9295 O   0  0  0  0  0  0  0  0  0  0  0  0
   12.5148    2.5815   22.5321 O   0  0  0  0  0  0  0  0  0  0  0  0
    9.6502   -4.4680   24.5569 O   0  0  0  0  0  0  0  0  0  0  0  0
    8.6819   -2.6030   25.9469 O   0  0  0  0  0  0  0  0  0  0  0  0
    9.0526   -3.1430   24.6462 S   0  0  0  0  0  0  0  0  0  0  0  0
    7.5003   -3.8963   23.0199 H   0  0  0  0  0  0  0  0  0  0  0  0
    6.8409   -2.6209   23.9696 H   0  0  0  0  0  0  0  0  0  0  0  0
   10.2152    1.8650   24.6546 H   0  0  0  0  0  0  0  0  0  0  0  0
   10.4219    4.5611   22.3125 H   0  0  0  0  0  0  0  0  0  0  0  0
  1  2  2  0  0  0  0
  1  3  1  0  0  0  0
  2  5  1  0  0  0  0
  3  6  2  0  0  0  0
  4  5  2  0  0  0  0
  4  6  1  0  0  0  0
  5 17  1  0  0  0  0
  6 23  1  0  0  0  0
  7 13  1  0  0  0  0
  7 15  1  0  0  0  0
  7 19  2  0  0  0  0
  8 14  1  0  0  0  0
  8 17  1  0  0  0  0
  8 20  2  0  0  0  0
  9 11  1  0  0  0  0
  9 15  1  0  0  0  0
 10 12  1  0  0  0  0
 10 15  1  0  0  0  0
 11 18  1  0  0  0  0
 12 18  1  0  0  0  0
 14 18  1  0  0  0  0
 16 23  1  0  0  0  0
 21 23  2  0  0  0  0
 22 23  2  0  0  0  0
 16 24  1  0  0  0  0
 16 25  1  0  0  0  0
 17 26  1  0  0  0  0
 18 27  1  0  0  0  0
M  CHG  1  18   1
M  END
> <ref_mols>
x2678_0

> <original SMILES>
Cl.CC(=O)N1CCN(CC(=O)NC=2C=CC=C(C2)S(=O)(=O)N)CC1

> <Chemgauss4>
-7.938325

> <ref_pdb>
x0104_0

$$$$
x2510
  -OEChem-05172015543D

 27 28  0     0  0  0  0  0  0999 V2000
   11.8509   -1.5374   22.2418 C   0  0  0  0  0  0  0  0  0  0  0  0
   11.8134   -0.1879   22.5925 C   0  0  0  0  0  0  0  0  0  0  0  0
   11.0016   -2.4461   22.8732 C   0  0  0  0  0  0  0  0  0  0  0  0
   10.0772   -0.6556   24.2062 C   0  0  0  0  0  0  0  0  0  0  0  0
   10.9266    0.2530   23.5747 C   0  0  0  0  0  0  0  0  0  0  0  0
   10.1148   -2.0052   23.8555 C   0  0  0  0  0  0  0  0  0  0  0  0
    6.7639    7.0424   23.2453 C   0  0  0  0  0  0  0  0  0  0  0  0
   11.6576    2.6564   23.4062 C   0  0  0  0  0  0  0  0  0  0  0  0
    9.1755    6.8503   22.7271 C   0  0  0  0  0  0  0  0  0  0  0  0
    7.8202    4.7921   22.7081 C   0  0  0  0  0  0  0  0  0  0  0  0
   10.2280    6.1738   23.5933 C   0  0  0  0  0  0  0  0  0  0  0  0
    8.8540    4.0836   23.5730 C   0  0  0  0  0  0  0  0  0  0  0  0
    7.0509    8.3022   24.0226 C   0  0  0  0  0  0  0  0  0  0  0  0
   11.2990    3.9683   24.0666 C   0  0  0  0  0  0  0  0  0  0  0  0
    7.8601    6.2420   22.9268 N   0  0  0  0  0  0  0  0  0  0  0  0
    7.6885   -3.0832   23.6189 N   0  0  0  0  0  0  0  0  0  0  0  0
   10.8882    1.6222   23.9305 N   0  0  0  0  0  0  0  0  0  0  0  0
   10.2159    4.6876   23.3131 N   0  3  0  0  0  0  0  0  0  0  0  0
    5.6004    6.7806   22.9295 O   0  0  0  0  0  0  0  0  0  0  0  0
   12.5148    2.5815   22.5321 O   0  0  0  0  0  0  0  0  0  0  0  0
    9.6502   -4.4680   24.5569 O   0  0  0  0  0  0  0  0  0  0  0  0
    8.6819   -2.6030   25.9469 O   0  0  0  0  0  0  0  0  0  0  0  0
    9.0526   -3.1430   24.6462 S   0  0  0  0  0  0  0  0  0  0  0  0
    7.5003   -3.8963   23.0199 H   0  0  0  0  0  0  0  0  0  0  0  0
    6.8409   -2.6209   23.9696 H   0  0  0  0  0  0  0  0  0  0  0  0
   10.2152    1.8650   24.6546 H   0  0  0  0  0  0  0  0  0  0  0  0
   10.4219    4.5611   22.3125 H   0  0  0  0  0  0  0  0  0  0  0  0
  1  2  2  0  0  0  0
  1  3  1  0  0  0  0
  2  5  1  0  0  0  0
  3  6  2  0  0  0  0
  4  5  2  0  0  0  0
  4  6  1  0  0  0  0
  5 17  1  0  0  0  0
  6 23  1  0  0  0  0
  7 13  1  0  0  0  0
  7 15  1  0  0  0  0
  7 19  2  0  0  0  0
  8 14  1  0  0  0  0
  8 17  1  0  0  0  0
  8 20  2  0  0  0  0
  9 11  1  0  0  0  0
  9 15  1  0  0  0  0
 10 12  1  0  0  0  0
 10 15  1  0  0  0  0
 11 18  1  0  0  0  0
 12 18  1  0  0  0  0
 14 18  1  0  0  0  0
 16 23  1  0  0  0  0
 21 23  2  0  0  0  0
 22 23  2  0  0  0  0
 16 24  1  0  0  0  0
 16 25  1  0  0  0  0
 17 26  1  0  0  0  0
 18 27  1  0  0  0  0
M  CHG  1  18   1
M  END
> <ref_mols>
x2510_0

> <original SMILES>
Cl.CC(=O)N1CCN(CC(=O)NC=2C=CC=C(C2)S(=O)(=O)N)CC1

> <Chemgauss4>
-7.938325

> <ref_pdb>
x0104_0

$$$$
x2598
  -OEChem-05172015543D

 24 26  0     0  0  0  0  0  0999 V2000
   14.3575   -2.3157   21.9774 C   0  0  0  0  0  0  0  0  0  0  0  0
   14.7665   -2.4444   23.3200 C   0  0  0  0  0  0  0  0  0  0  0  0
   13.4335   -1.3382   21.5967 C   0  0  0  0  0  0  0  0  0  0  0  0
   14.2601   -1.5987   24.3111 C   0  0  0  0  0  0  0  0  0  0  0  0
    5.4538    1.0668   18.4187 C   0  0  0  0  0  0  0  0  0  0  0  0
    6.3031    0.8844   17.3497 C   0  0  0  0  0  0  0  0  0  0  0  0
    6.9539    0.0183   19.7897 C   0  0  0  0  0  0  0  0  0  0  0  0
   12.9445   -0.5114   22.5881 C   0  0  0  0  0  0  0  0  0  0  0  0
   13.3491   -0.6391   23.9175 C   0  0  0  0  0  0  0  0  0  0  0  0
    7.8031   -0.1648   18.7206 C   0  0  0  0  0  0  0  0  0  0  0  0
   11.8369    1.0958   23.8121 C   0  0  0  0  0  0  0  0  0  0  0  0
   10.2850    0.0194   20.9266 C   0  0  0  0  0  0  0  0  0  0  0  0
   14.1380    1.1771   26.4096 C   0  0  0  0  0  0  0  0  0  0  0  0
    9.1213   -0.8594   18.9050 C   0  0  0  0  0  0  0  0  0  0  0  0
   11.3667    0.9962   21.3113 C   0  0  0  0  0  0  0  0  0  0  0  0
   12.8400    0.5152   26.0938 C   0  0  0  0  0  0  0  0  0  0  0  0
    5.7639    0.6371   19.6580 N   0  0  0  0  0  0  0  0  0  0  0  0
    7.4930    0.2652   17.4815 N   0  0  0  0  0  0  0  0  0  0  0  0
   12.0218    0.5439   22.5120 N   0  0  0  0  0  0  0  0  0  0  0  0
   12.6798    0.3364   24.6733 N   0  0  0  0  0  0  0  0  0  0  0  0
   10.0945   -0.0096   19.5526 N   0  0  0  0  0  0  0  0  0  0  0  0
   11.1068    2.0271   24.1238 O   0  0  0  0  0  0  0  0  0  0  0  0
    9.6646   -0.6575   21.7423 O   0  0  0  0  0  0  0  0  0  0  0  0
   10.6676    0.5966   18.9729 H   0  0  0  0  0  0  0  0  0  0  0  0
  1  2  1  0  0  0  0
  1  3  2  0  0  0  0
  2  4  2  0  0  0  0
  3  8  1  0  0  0  0
  4  9  1  0  0  0  0
  5  6  2  0  0  0  0
  5 17  1  0  0  0  0
  6 18  1  0  0  0  0
  7 10  1  0  0  0  0
  7 17  2  0  0  0  0
  8  9  2  0  0  0  0
  8 19  1  0  0  0  0
  9 20  1  0  0  0  0
 10 14  1  0  0  0  0
 10 18  2  0  0  0  0
 11 19  1  0  0  0  0
 11 20  1  0  0  0  0
 11 22  2  0  0  0  0
 12 15  1  0  0  0  0
 12 21  1  0  0  0  0
 12 23  2  0  0  0  0
 13 16  1  0  0  0  0
 14 21  1  0  0  0  0
 15 19  1  0  0  0  0
 16 20  1  0  0  0  0
 21 24  1  0  0  0  0
M  END
> <ref_mols>
x2598_0

> <original SMILES>
CCN1C(=O)N(CC(=O)NCC=2C=NC=CN2)C=3C=CC=CC13

> <Chemgauss4>
-7.938208

> <ref_pdb>
x0678_0

$$$$
x0069
  -OEChem-05172015543D

 15 16  0     1  0  0  0  0  0999 V2000
   12.4535   -2.9630   25.3984 C   0  0  0  0  0  0  0  0  0  0  0  0
   12.0748   -0.8529   24.2998 C   0  0  0  0  0  0  0  0  0  0  0  0
   13.6902   -2.4899   25.8136 C   0  0  0  0  0  0  0  0  0  0  0  0
   13.3210   -0.4332   24.7428 C   0  0  0  0  0  0  0  0  0  0  0  0
   11.6405   -2.1321   24.6336 C   0  0  0  0  0  0  0  0  0  0  0  0
    6.8836   -5.4788   22.9828 C   0  0  0  0  0  0  0  0  0  0  0  0
    7.8391   -5.3709   24.1446 C   0  0  0  0  0  0  0  0  0  0  0  0
    7.6824   -4.8494   21.8613 C   0  0  0  0  0  0  0  0  0  0  0  0
    8.4755   -4.0160   23.8880 C   0  0  1  0  0  0  0  0  0  0  0  0
    9.8609   -3.8750   24.4878 C   0  0  0  0  0  0  0  0  0  0  0  0
   14.0837   -1.2537   25.4780 N   0  3  0  0  0  0  0  0  0  0  0  0
   10.3934   -2.5818   24.2003 N   0  0  0  0  0  0  0  0  0  0  0  0
    8.5450   -3.8704   22.4596 O   0  0  0  0  0  0  0  0  0  0  0  0
   14.9964   -0.9258   25.7928 H   0  0  0  0  0  0  0  0  0  0  0  0
    9.8375   -1.9326   23.6409 H   0  0  0  0  0  0  0  0  0  0  0  0
  1  3  2  0  0  0  0
  1  5  1  0  0  0  0
  2  4  1  0  0  0  0
  2  5  2  0  0  0  0
  3 11  1  0  0  0  0
  4 11  2  0  0  0  0
  5 12  1  0  0  0  0
  6  7  1  0  0  0  0
  6  8  1  0  0  0  0
  7  9  1  0  0  0  0
  8 13  1  0  0  0  0
  9 10  1  0  0  0  0
  9 13  1  0  0  0  0
 10 12  1  0  0  0  0
 11 14  1  0  0  0  0
 12 15  1  0  0  0  0
M  CHG  1  11   1
M  END
> <ref_mols>
x0069_0

> <original SMILES>
C(NC=1C=CN=CC1)C2CCCO2

> <Chemgauss4>
-7.936506

> <ref_pdb>
x0749_0

$$$$
x1185
  -OEChem-05172015543D

 15 16  0     1  0  0  0  0  0999 V2000
   12.4535   -2.9630   25.3984 C   0  0  0  0  0  0  0  0  0  0  0  0
   12.0748   -0.8529   24.2998 C   0  0  0  0  0  0  0  0  0  0  0  0
   13.6902   -2.4899   25.8136 C   0  0  0  0  0  0  0  0  0  0  0  0
   13.3210   -0.4332   24.7428 C   0  0  0  0  0  0  0  0  0  0  0  0
   11.6405   -2.1321   24.6336 C   0  0  0  0  0  0  0  0  0  0  0  0
    6.8836   -5.4788   22.9828 C   0  0  0  0  0  0  0  0  0  0  0  0
    7.8391   -5.3709   24.1446 C   0  0  0  0  0  0  0  0  0  0  0  0
    7.6824   -4.8494   21.8613 C   0  0  0  0  0  0  0  0  0  0  0  0
    8.4755   -4.0160   23.8880 C   0  0  1  0  0  0  0  0  0  0  0  0
    9.8609   -3.8750   24.4878 C   0  0  0  0  0  0  0  0  0  0  0  0
   14.0837   -1.2537   25.4780 N   0  3  0  0  0  0  0  0  0  0  0  0
   10.3934   -2.5818   24.2003 N   0  0  0  0  0  0  0  0  0  0  0  0
    8.5450   -3.8704   22.4596 O   0  0  0  0  0  0  0  0  0  0  0  0
   14.9964   -0.9258   25.7928 H   0  0  0  0  0  0  0  0  0  0  0  0
    9.8375   -1.9326   23.6409 H   0  0  0  0  0  0  0  0  0  0  0  0
  1  3  2  0  0  0  0
  1  5  1  0  0  0  0
  2  4  1  0  0  0  0
  2  5  2  0  0  0  0
  3 11  1  0  0  0  0
  4 11  2  0  0  0  0
  5 12  1  0  0  0  0
  6  7  1  0  0  0  0
  6  8  1  0  0  0  0
  7  9  1  0  0  0  0
  8 13  1  0  0  0  0
  9 10  1  0  0  0  0
  9 13  1  0  0  0  0
 10 12  1  0  0  0  0
 11 14  1  0  0  0  0
 12 15  1  0  0  0  0
M  CHG  1  11   1
M  END
> <ref_mols>
x1185_0

> <original SMILES>
C(NC=1C=CN=CC1)C2CCCO2

> <Chemgauss4>
-7.936506

> <ref_pdb>
x0749_0

$$$$
x1127
  -OEChem-05172015543D

 18 18  0     1  0  0  0  0  0999 V2000
   10.1733    6.4479   23.2602 C   0  0  0  0  0  0  0  0  0  0  0  0
   13.3062    2.7419   22.3195 C   0  0  0  0  0  0  0  0  0  0  0  0
   11.1735    2.2883   23.4783 C   0  0  0  0  0  0  0  0  0  0  0  0
   13.2343    4.2041   22.7312 C   0  0  0  0  0  0  0  0  0  0  0  0
   11.0790    3.7454   23.9033 C   0  0  0  0  0  0  0  0  0  0  0  0
   12.3547    6.3612   24.4961 C   0  0  0  0  0  0  0  0  0  0  0  0
   13.6070   -0.0588   24.8195 C   0  0  0  0  0  0  0  0  0  0  0  0
   11.6394    6.0694   23.1862 C   0  0  1  0  0  0  0  0  0  0  0  0
   12.6060    1.8998   23.3320 N   0  0  0  0  0  0  0  0  0  0  0  0
    9.4782    6.1327   22.1127 N   0  0  0  0  0  0  0  0  0  0  0  0
   11.7858    4.6051   22.8822 N   0  3  0  0  0  0  0  0  0  0  0  0
    9.6594    6.9798   24.2410 O   0  0  0  0  0  0  0  0  0  0  0  0
   13.9326   -0.0071   22.2274 O   0  0  0  0  0  0  0  0  0  0  0  0
   11.6312   -0.4744   23.1608 O   0  0  0  0  0  0  0  0  0  0  0  0
   12.9006    0.2158   23.2155 S   0  0  0  0  0  0  0  0  0  0  0  0
    9.9754    5.6936   21.3450 H   0  0  0  0  0  0  0  0  0  0  0  0
    8.4869    6.3237   22.0077 H   0  0  0  0  0  0  0  0  0  0  0  0
   11.3260    4.4470   21.9748 H   0  0  0  0  0  0  0  0  0  0  0  0
  1  8  1  0  0  0  0
  1 10  1  0  0  0  0
  1 12  2  0  0  0  0
  2  4  1  0  0  0  0
  2  9  1  0  0  0  0
  3  5  1  0  0  0  0
  3  9  1  0  0  0  0
  4 11  1  0  0  0  0
  5 11  1  0  0  0  0
  6  8  1  0  0  0  0
  7 15  1  0  0  0  0
  8 11  1  0  0  0  0
  9 15  1  0  0  0  0
 13 15  2  0  0  0  0
 14 15  2  0  0  0  0
 10 16  1  0  0  0  0
 10 17  1  0  0  0  0
 11 18  1  0  0  0  0
M  CHG  1  11   1
M  END
> <ref_mols>
x1127_0

> <original SMILES>
CC(N1CCN(CC1)S(=O)(=O)C)C(=O)N

> <Chemgauss4>
-7.935843

> <ref_pdb>
x0161_0

$$$$
x0638
  -OEChem-05172015543D

 18 18  0     1  0  0  0  0  0999 V2000
   10.1733    6.4479   23.2602 C   0  0  0  0  0  0  0  0  0  0  0  0
   13.3062    2.7419   22.3195 C   0  0  0  0  0  0  0  0  0  0  0  0
   11.1735    2.2883   23.4783 C   0  0  0  0  0  0  0  0  0  0  0  0
   13.2343    4.2041   22.7312 C   0  0  0  0  0  0  0  0  0  0  0  0
   11.0790    3.7454   23.9033 C   0  0  0  0  0  0  0  0  0  0  0  0
   12.3547    6.3612   24.4961 C   0  0  0  0  0  0  0  0  0  0  0  0
   13.6070   -0.0588   24.8195 C   0  0  0  0  0  0  0  0  0  0  0  0
   11.6394    6.0694   23.1862 C   0  0  1  0  0  0  0  0  0  0  0  0
   12.6060    1.8998   23.3320 N   0  0  0  0  0  0  0  0  0  0  0  0
    9.4782    6.1327   22.1127 N   0  0  0  0  0  0  0  0  0  0  0  0
   11.7858    4.6051   22.8822 N   0  3  0  0  0  0  0  0  0  0  0  0
    9.6594    6.9798   24.2410 O   0  0  0  0  0  0  0  0  0  0  0  0
   13.9326   -0.0071   22.2274 O   0  0  0  0  0  0  0  0  0  0  0  0
   11.6312   -0.4744   23.1608 O   0  0  0  0  0  0  0  0  0  0  0  0
   12.9006    0.2158   23.2155 S   0  0  0  0  0  0  0  0  0  0  0  0
    9.9754    5.6936   21.3450 H   0  0  0  0  0  0  0  0  0  0  0  0
    8.4869    6.3237   22.0077 H   0  0  0  0  0  0  0  0  0  0  0  0
   11.3260    4.4470   21.9748 H   0  0  0  0  0  0  0  0  0  0  0  0
  1  8  1  0  0  0  0
  1 10  1  0  0  0  0
  1 12  2  0  0  0  0
  2  4  1  0  0  0  0
  2  9  1  0  0  0  0
  3  5  1  0  0  0  0
  3  9  1  0  0  0  0
  4 11  1  0  0  0  0
  5 11  1  0  0  0  0
  6  8  1  0  0  0  0
  7 15  1  0  0  0  0
  8 11  1  0  0  0  0
  9 15  1  0  0  0  0
 13 15  2  0  0  0  0
 14 15  2  0  0  0  0
 10 16  1  0  0  0  0
 10 17  1  0  0  0  0
 11 18  1  0  0  0  0
M  CHG  1  11   1
M  END
> <ref_mols>
x0638_0

> <original SMILES>
CC(N1CCN(CC1)S(=O)(=O)C)C(=O)N

> <Chemgauss4>
-7.935843

> <ref_pdb>
x0161_0

$$$$
x1234
  -OEChem-05172015543D

 19 19  0     0  0  0  0  0  0999 V2000
   11.1247   -1.2384   24.6984 C   0  0  0  0  0  0  0  0  0  0  0  0
   11.4830   -3.5828   25.1591 C   0  0  0  0  0  0  0  0  0  0  0  0
   12.3720   -0.9399   25.2467 C   0  0  0  0  0  0  0  0  0  0  0  0
   12.7304   -3.2844   25.7074 C   0  0  0  0  0  0  0  0  0  0  0  0
   10.6801   -2.5598   24.6546 C   0  0  0  0  0  0  0  0  0  0  0  0
   13.1749   -1.9629   25.7512 C   0  0  0  0  0  0  0  0  0  0  0  0
    8.8117   -4.1167   23.9721 C   0  0  0  0  0  0  0  0  0  0  0  0
    6.3607   -5.8106   24.4319 C   0  0  0  0  0  0  0  0  0  0  0  0
    7.4262   -6.1084   22.1852 C   0  0  0  0  0  0  0  0  0  0  0  0
    5.3920   -4.6220   22.4500 C   0  0  0  0  0  0  0  0  0  0  0  0
    6.6936   -5.1199   23.1025 C   0  0  0  0  0  0  0  0  0  0  0  0
    9.4155   -2.8624   24.0981 N   0  0  0  0  0  0  0  0  0  0  0  0
    7.5623   -3.9853   23.3682 N   0  0  0  0  0  0  0  0  0  0  0  0
    9.2811   -5.1947   24.3286 O   0  0  0  0  0  0  0  0  0  0  0  0
    5.6429   -3.9826   21.2037 O   0  0  0  0  0  0  0  0  0  0  0  0
   14.7141   -1.5945   26.4278 Cl  0  0  0  0  0  0  0  0  0  0  0  0
    8.8849   -2.0680   23.7496 H   0  0  0  0  0  0  0  0  0  0  0  0
    7.2471   -3.0617   23.1038 H   0  0  0  0  0  0  0  0  0  0  0  0
    4.7817   -3.6992   20.8579 H   0  0  0  0  0  0  0  0  0  0  0  0
  1  3  2  0  0  0  0
  1  5  1  0  0  0  0
  2  4  1  0  0  0  0
  2  5  2  0  0  0  0
  3  6  1  0  0  0  0
  4  6  2  0  0  0  0
  5 12  1  0  0  0  0
  6 16  1  0  0  0  0
  7 12  1  0  0  0  0
  7 13  1  0  0  0  0
  7 14  2  0  0  0  0
  8 11  1  0  0  0  0
  9 11  1  0  0  0  0
 10 11  1  0  0  0  0
 10 15  1  0  0  0  0
 11 13  1  0  0  0  0
 12 17  1  0  0  0  0
 13 18  1  0  0  0  0
 15 19  1  0  0  0  0
M  END
> <ref_mols>
x1234_0

> <original SMILES>
CC(C)(CO)NC(=O)NC=1C=CC(Cl)=CC1

> <Chemgauss4>
-7.933087

> <ref_pdb>
x0749_0

$$$$
x0888
  -OEChem-05172015543D

 18 19  0     1  0  0  0  0  0999 V2000
   11.6136    2.0028   23.3502 C   0  0  0  0  0  0  0  0  0  0  0  0
   13.7511    2.4491   22.3163 C   0  0  0  0  0  0  0  0  0  0  0  0
   11.3844    3.3736   23.4680 C   0  0  0  0  0  0  0  0  0  0  0  0
   13.5219    3.8200   22.4340 C   0  0  0  0  0  0  0  0  0  0  0  0
   12.7971    1.5405   22.7744 C   0  0  0  0  0  0  0  0  0  0  0  0
   12.3384    4.2822   23.0098 C   0  0  0  0  0  0  0  0  0  0  0  0
   11.7085   -0.6411   22.4918 C   0  0  0  0  0  0  0  0  0  0  0  0
   13.9673   -0.3541   21.4775 C   0  0  0  0  0  0  0  0  0  0  0  0
   14.4355   -1.7591   21.8115 C   0  0  0  0  0  0  0  0  0  0  0  0
   13.8060   -0.5560   23.8383 C   0  0  0  0  0  0  0  0  0  0  0  0
   13.0482    0.0440   22.6454 C   0  0  1  0  0  0  0  0  0  0  0  0
   12.0917    5.7478   23.1345 C   0  0  0  0  0  0  0  0  0  0  0  0
   10.2924   -2.2460   23.4933 C   0  0  0  0  0  0  0  0  0  0  0  0
   14.4412   -1.8090   23.3059 N   0  3  0  0  0  0  0  0  0  0  0  0
   10.9253   -0.4176   21.5786 O   0  0  0  0  0  0  0  0  0  0  0  0
   11.5279   -1.5240   23.5150 O   0  0  0  0  0  0  0  0  0  0  0  0
   13.9250   -2.6380   23.6313 H   0  0  0  0  0  0  0  0  0  0  0  0
   15.4001   -1.9045   23.6674 H   0  0  0  0  0  0  0  0  0  0  0  0
  1  3  1  0  0  0  0
  1  5  2  0  0  0  0
  2  4  2  0  0  0  0
  2  5  1  0  0  0  0
  3  6  2  0  0  0  0
  4  6  1  0  0  0  0
  5 11  1  0  0  0  0
  6 12  1  0  0  0  0
  7 11  1  0  0  0  0
  7 15  2  0  0  0  0
  7 16  1  0  0  0  0
  8  9  1  0  0  0  0
  8 11  1  0  0  0  0
  9 14  1  0  0  0  0
 10 11  1  0  0  0  0
 10 14  1  0  0  0  0
 13 16  1  0  0  0  0
 14 17  1  0  0  0  0
 14 18  1  0  0  0  0
M  CHG  1  14   1
M  END
> <ref_mols>
x0888_0

> <original SMILES>
CC(C=C1)=CC=C1C2(C(OC)=O)CNCC2

> <Chemgauss4>
-7.927098

> <ref_pdb>
x0195_0

$$$$
x0473
  -OEChem-05172015543D

 15 16  0     0  0  0  0  0  0999 V2000
    7.6666   -3.4932   22.2767 C   0  0  0  0  0  0  0  0  0  0  0  0
    6.5273   -4.2800   22.0346 C   0  0  0  0  0  0  0  0  0  0  0  0
    7.4364   -2.3548   21.5508 C   0  0  0  0  0  0  0  0  0  0  0  0
   11.3626   -1.3175   23.1678 C   0  0  0  0  0  0  0  0  0  0  0  0
    9.2731   -1.7153   24.3457 C   0  0  0  0  0  0  0  0  0  0  0  0
    6.2220   -5.6216   22.5597 C   0  0  0  0  0  0  0  0  0  0  0  0
    8.1906   -1.1130   21.3350 C   0  0  0  0  0  0  0  0  0  0  0  0
   12.6488   -0.7580   22.6682 C   0  0  0  0  0  0  0  0  0  0  0  0
    8.8588   -3.8185   23.1293 C   0  0  0  0  0  0  0  0  0  0  0  0
    5.6570   -3.6757   21.2208 N   0  0  0  0  0  0  0  0  0  0  0  0
   10.8390   -2.4207   22.7447 N   0  0  0  0  0  0  0  0  0  0  0  0
    9.6617   -2.6490   23.4050 N   0  0  0  0  0  0  0  0  0  0  0  0
    8.2743   -1.7089   25.0488 O   0  0  0  0  0  0  0  0  0  0  0  0
    6.2402   -2.4516   20.9161 O   0  0  0  0  0  0  0  0  0  0  0  0
   10.4897   -0.4508   24.4000 S   0  0  0  0  0  0  0  0  0  0  0  0
  1  2  1  0  0  0  0
  1  3  2  0  0  0  0
  1  9  1  0  0  0  0
  2  6  1  0  0  0  0
  2 10  2  0  0  0  0
  3  7  1  0  0  0  0
  3 14  1  0  0  0  0
  4  8  1  0  0  0  0
  4 11  2  0  0  0  0
  4 15  1  0  0  0  0
  5 12  1  0  0  0  0
  5 13  2  0  0  0  0
  5 15  1  0  0  0  0
  9 12  1  0  0  0  0
 10 14  1  0  0  0  0
 11 12  1  0  0  0  0
M  END
> <ref_mols>
x0473_0

> <original SMILES>
CC1=NN(CC=2C(C)=NOC2C)C(=O)S1

> <Chemgauss4>
-7.924747

> <ref_pdb>
x1386_0

$$$$
x1494
  -OEChem-05172015543D

 19 20  0     0  0  0  0  0  0999 V2000
   12.1500   -2.5051   24.0522 C   0  0  0  0  0  0  0  0  0  0  0  0
   11.7716   -0.2846   24.9258 C   0  0  0  0  0  0  0  0  0  0  0  0
   13.1787   -2.6930   24.9753 C   0  0  0  0  0  0  0  0  0  0  0  0
   12.8003   -0.4725   25.8490 C   0  0  0  0  0  0  0  0  0  0  0  0
   11.4464   -1.3008   24.0275 C   0  0  0  0  0  0  0  0  0  0  0  0
   13.5038   -1.6767   25.8737 C   0  0  0  0  0  0  0  0  0  0  0  0
   10.3631   -1.1022   23.0566 C   0  0  0  0  0  0  0  0  0  0  0  0
    6.5466   -5.0115   22.2700 C   0  0  0  0  0  0  0  0  0  0  0  0
    9.0981   -3.0832   24.0471 C   0  0  0  0  0  0  0  0  0  0  0  0
    8.1440   -1.7705   22.1921 C   0  0  0  0  0  0  0  0  0  0  0  0
    8.7857   -4.3777   23.3005 C   0  0  0  0  0  0  0  0  0  0  0  0
    7.8244   -3.0600   21.4415 C   0  0  0  0  0  0  0  0  0  0  0  0
   14.6032   -1.8785   26.8613 C   0  0  0  0  0  0  0  0  0  0  0  0
    6.5004   -6.1972   23.2003 C   0  0  0  0  0  0  0  0  0  0  0  0
    9.2738   -1.9738   23.0998 N   0  0  0  0  0  0  0  0  0  0  0  0
    7.6633   -4.1830   22.3705 N   0  0  0  0  0  0  0  0  0  0  0  0
   10.5076   -0.1741   22.2623 O   0  0  0  0  0  0  0  0  0  0  0  0
    5.6166   -4.8271   21.4807 O   0  0  0  0  0  0  0  0  0  0  0  0
    5.7187   -5.6475   24.6784 Cl  0  0  0  0  0  0  0  0  0  0  0  0
  1  3  2  0  0  0  0
  1  5  1  0  0  0  0
  2  4  1  0  0  0  0
  2  5  2  0  0  0  0
  3  6  1  0  0  0  0
  4  6  2  0  0  0  0
  5  7  1  0  0  0  0
  6 13  1  0  0  0  0
  7 15  1  0  0  0  0
  7 17  2  0  0  0  0
  8 14  1  0  0  0  0
  8 16  1  0  0  0  0
  8 18  2  0  0  0  0
  9 11  1  0  0  0  0
  9 15  1  0  0  0  0
 10 12  1  0  0  0  0
 10 15  1  0  0  0  0
 11 16  1  0  0  0  0
 12 16  1  0  0  0  0
 14 19  1  0  0  0  0
M  END
> <ref_mols>
x1494_0

> <original SMILES>
Cc1ccc(cc1)C(=O)N2CCN(CC2)C(=O)CCl

> <Chemgauss4>
-7.922626

> <ref_pdb>
x0749_0

$$$$
x0705
  -OEChem-05172015543D

 19 20  0     0  0  0  0  0  0999 V2000
   12.1500   -2.5051   24.0522 C   0  0  0  0  0  0  0  0  0  0  0  0
   11.7716   -0.2846   24.9258 C   0  0  0  0  0  0  0  0  0  0  0  0
   13.1787   -2.6930   24.9753 C   0  0  0  0  0  0  0  0  0  0  0  0
   12.8003   -0.4725   25.8490 C   0  0  0  0  0  0  0  0  0  0  0  0
   11.4464   -1.3008   24.0275 C   0  0  0  0  0  0  0  0  0  0  0  0
   13.5038   -1.6767   25.8737 C   0  0  0  0  0  0  0  0  0  0  0  0
   10.3631   -1.1022   23.0566 C   0  0  0  0  0  0  0  0  0  0  0  0
    6.5466   -5.0115   22.2700 C   0  0  0  0  0  0  0  0  0  0  0  0
    9.0981   -3.0832   24.0471 C   0  0  0  0  0  0  0  0  0  0  0  0
    8.1440   -1.7705   22.1921 C   0  0  0  0  0  0  0  0  0  0  0  0
    8.7857   -4.3777   23.3005 C   0  0  0  0  0  0  0  0  0  0  0  0
    7.8244   -3.0600   21.4415 C   0  0  0  0  0  0  0  0  0  0  0  0
   14.6032   -1.8785   26.8613 C   0  0  0  0  0  0  0  0  0  0  0  0
    6.5004   -6.1972   23.2003 C   0  0  0  0  0  0  0  0  0  0  0  0
    9.2738   -1.9738   23.0998 N   0  0  0  0  0  0  0  0  0  0  0  0
    7.6633   -4.1830   22.3705 N   0  0  0  0  0  0  0  0  0  0  0  0
   10.5076   -0.1741   22.2623 O   0  0  0  0  0  0  0  0  0  0  0  0
    5.6166   -4.8271   21.4807 O   0  0  0  0  0  0  0  0  0  0  0  0
    5.7187   -5.6475   24.6784 Cl  0  0  0  0  0  0  0  0  0  0  0  0
  1  3  2  0  0  0  0
  1  5  1  0  0  0  0
  2  4  1  0  0  0  0
  2  5  2  0  0  0  0
  3  6  1  0  0  0  0
  4  6  2  0  0  0  0
  5  7  1  0  0  0  0
  6 13  1  0  0  0  0
  7 15  1  0  0  0  0
  7 17  2  0  0  0  0
  8 14  1  0  0  0  0
  8 16  1  0  0  0  0
  8 18  2  0  0  0  0
  9 11  1  0  0  0  0
  9 15  1  0  0  0  0
 10 12  1  0  0  0  0
 10 15  1  0  0  0  0
 11 16  1  0  0  0  0
 12 16  1  0  0  0  0
 14 19  1  0  0  0  0
M  END
> <ref_mols>
x0705_0

> <original SMILES>
Cc1ccc(cc1)C(=O)N2CCN(CC2)C(=O)CCl

> <Chemgauss4>
-7.922626

> <ref_pdb>
x0749_0

$$$$
x0779
  -OEChem-05172015543D

 19 20  0     0  0  0  0  0  0999 V2000
   12.1500   -2.5051   24.0522 C   0  0  0  0  0  0  0  0  0  0  0  0
   11.7716   -0.2846   24.9258 C   0  0  0  0  0  0  0  0  0  0  0  0
   13.1787   -2.6930   24.9753 C   0  0  0  0  0  0  0  0  0  0  0  0
   12.8003   -0.4725   25.8490 C   0  0  0  0  0  0  0  0  0  0  0  0
   11.4464   -1.3008   24.0275 C   0  0  0  0  0  0  0  0  0  0  0  0
   13.5038   -1.6767   25.8737 C   0  0  0  0  0  0  0  0  0  0  0  0
   10.3631   -1.1022   23.0566 C   0  0  0  0  0  0  0  0  0  0  0  0
    6.5466   -5.0115   22.2700 C   0  0  0  0  0  0  0  0  0  0  0  0
    9.0981   -3.0832   24.0471 C   0  0  0  0  0  0  0  0  0  0  0  0
    8.1440   -1.7705   22.1921 C   0  0  0  0  0  0  0  0  0  0  0  0
    8.7857   -4.3777   23.3005 C   0  0  0  0  0  0  0  0  0  0  0  0
    7.8244   -3.0600   21.4415 C   0  0  0  0  0  0  0  0  0  0  0  0
   14.6032   -1.8785   26.8613 C   0  0  0  0  0  0  0  0  0  0  0  0
    6.5004   -6.1972   23.2003 C   0  0  0  0  0  0  0  0  0  0  0  0
    9.2738   -1.9738   23.0998 N   0  0  0  0  0  0  0  0  0  0  0  0
    7.6633   -4.1830   22.3705 N   0  0  0  0  0  0  0  0  0  0  0  0
   10.5076   -0.1741   22.2623 O   0  0  0  0  0  0  0  0  0  0  0  0
    5.6166   -4.8271   21.4807 O   0  0  0  0  0  0  0  0  0  0  0  0
    5.7187   -5.6475   24.6784 Cl  0  0  0  0  0  0  0  0  0  0  0  0
  1  3  2  0  0  0  0
  1  5  1  0  0  0  0
  2  4  1  0  0  0  0
  2  5  2  0  0  0  0
  3  6  1  0  0  0  0
  4  6  2  0  0  0  0
  5  7  1  0  0  0  0
  6 13  1  0  0  0  0
  7 15  1  0  0  0  0
  7 17  2  0  0  0  0
  8 14  1  0  0  0  0
  8 16  1  0  0  0  0
  8 18  2  0  0  0  0
  9 11  1  0  0  0  0
  9 15  1  0  0  0  0
 10 12  1  0  0  0  0
 10 15  1  0  0  0  0
 11 16  1  0  0  0  0
 12 16  1  0  0  0  0
 14 19  1  0  0  0  0
M  END
> <ref_mols>
x0779_0

> <original SMILES>
Cc1ccc(cc1)C(=O)N2CCN(CC2)C(=O)CCl

> <Chemgauss4>
-7.922626

> <ref_pdb>
x0749_0

$$$$
x1340
  -OEChem-05172015543D

 19 20  0     0  0  0  0  0  0999 V2000
   12.1500   -2.5051   24.0522 C   0  0  0  0  0  0  0  0  0  0  0  0
   11.7716   -0.2846   24.9258 C   0  0  0  0  0  0  0  0  0  0  0  0
   13.1787   -2.6930   24.9753 C   0  0  0  0  0  0  0  0  0  0  0  0
   12.8003   -0.4725   25.8490 C   0  0  0  0  0  0  0  0  0  0  0  0
   11.4464   -1.3008   24.0275 C   0  0  0  0  0  0  0  0  0  0  0  0
   13.5038   -1.6767   25.8737 C   0  0  0  0  0  0  0  0  0  0  0  0
   10.3631   -1.1022   23.0566 C   0  0  0  0  0  0  0  0  0  0  0  0
    6.5466   -5.0115   22.2700 C   0  0  0  0  0  0  0  0  0  0  0  0
    9.0981   -3.0832   24.0471 C   0  0  0  0  0  0  0  0  0  0  0  0
    8.1440   -1.7705   22.1921 C   0  0  0  0  0  0  0  0  0  0  0  0
    8.7857   -4.3777   23.3005 C   0  0  0  0  0  0  0  0  0  0  0  0
    7.8244   -3.0600   21.4415 C   0  0  0  0  0  0  0  0  0  0  0  0
   14.6032   -1.8785   26.8613 C   0  0  0  0  0  0  0  0  0  0  0  0
    6.5004   -6.1972   23.2003 C   0  0  0  0  0  0  0  0  0  0  0  0
    9.2738   -1.9738   23.0998 N   0  0  0  0  0  0  0  0  0  0  0  0
    7.6633   -4.1830   22.3705 N   0  0  0  0  0  0  0  0  0  0  0  0
   10.5076   -0.1741   22.2623 O   0  0  0  0  0  0  0  0  0  0  0  0
    5.6166   -4.8271   21.4807 O   0  0  0  0  0  0  0  0  0  0  0  0
    5.7187   -5.6475   24.6784 Cl  0  0  0  0  0  0  0  0  0  0  0  0
  1  3  2  0  0  0  0
  1  5  1  0  0  0  0
  2  4  1  0  0  0  0
  2  5  2  0  0  0  0
  3  6  1  0  0  0  0
  4  6  2  0  0  0  0
  5  7  1  0  0  0  0
  6 13  1  0  0  0  0
  7 15  1  0  0  0  0
  7 17  2  0  0  0  0
  8 14  1  0  0  0  0
  8 16  1  0  0  0  0
  8 18  2  0  0  0  0
  9 11  1  0  0  0  0
  9 15  1  0  0  0  0
 10 12  1  0  0  0  0
 10 15  1  0  0  0  0
 11 16  1  0  0  0  0
 12 16  1  0  0  0  0
 14 19  1  0  0  0  0
M  END
> <ref_mols>
x1340_0

> <original SMILES>
Cc1ccc(cc1)C(=O)N2CCN(CC2)C(=O)CCl

> <Chemgauss4>
-7.922626

> <ref_pdb>
x0749_0

$$$$
x0979
  -OEChem-05172015543D

 21 20  0     1  0  0  0  0  0999 V2000
   11.9650    0.1345   23.0415 C   0  0  0  0  0  0  0  0  0  0  0  0
   12.2150    1.2941   23.2261 C   0  0  0  0  0  0  0  0  0  0  0  0
    7.1686   -3.7828   21.3770 C   0  0  0  0  0  0  0  0  0  0  0  0
    6.2124   -1.0577   18.8380 C   0  0  0  0  0  0  0  0  0  0  0  0
    9.2494   -1.4962   22.2374 C   0  0  0  0  0  0  0  0  0  0  0  0
    5.8883   -4.3912   21.8448 C   0  0  0  0  0  0  0  0  0  0  0  0
   11.6643   -1.2793   22.8194 C   0  0  0  0  0  0  0  0  0  0  0  0
    7.4438   -0.2045   19.0789 C   0  0  0  0  0  0  0  0  0  0  0  0
    7.9216   -0.2181   20.5323 C   0  0  0  0  0  0  0  0  0  0  0  0
    8.3289   -1.6116   21.0274 C   0  0  2  0  0  0  0  0  0  0  0  0
    5.0424   -0.3493   19.0089 N   0  0  0  0  0  0  0  0  0  0  0  0
   10.5865   -1.4391   21.8699 N   0  0  0  0  0  0  0  0  0  0  0  0
    7.1922   -2.3994   21.4297 N   0  0  0  0  0  0  0  0  0  0  0  0
    8.0785   -4.5091   20.9945 O   0  0  0  0  0  0  0  0  0  0  0  0
    6.2501   -2.2389   18.5059 O   0  0  0  0  0  0  0  0  0  0  0  0
    8.8314   -1.4190   23.3908 O   0  0  0  0  0  0  0  0  0  0  0  0
   12.6107    3.1296   23.5180 Br  0  0  0  0  0  0  0  0  0  0  0  0
    5.0971    0.6302   19.2675 H   0  0  0  0  0  0  0  0  0  0  0  0
    4.1281   -0.7724   18.8854 H   0  0  0  0  0  0  0  0  0  0  0  0
   10.8194   -1.5135   20.8840 H   0  0  0  0  0  0  0  0  0  0  0  0
    6.3643   -1.9147   21.7699 H   0  0  0  0  0  0  0  0  0  0  0  0
  1  2  3  0  0  0  0
  1  7  1  0  0  0  0
  2 17  1  0  0  0  0
  3  6  1  0  0  0  0
  3 13  1  0  0  0  0
  3 14  2  0  0  0  0
  4  8  1  0  0  0  0
  4 11  1  0  0  0  0
  4 15  2  0  0  0  0
  5 10  1  0  0  0  0
  5 12  1  0  0  0  0
  5 16  2  0  0  0  0
  7 12  1  0  0  0  0
  8  9  1  0  0  0  0
  9 10  1  0  0  0  0
 10 13  1  0  0  0  0
 11 18  1  0  0  0  0
 11 19  1  0  0  0  0
 12 20  1  0  0  0  0
 13 21  1  0  0  0  0
M  END
> <ref_mols>
x0979_0

> <original SMILES>
CC(=O)N[C@@H](CCC(=O)N)C(=O)NCC#CBr

> <Chemgauss4>
-7.919563

> <ref_pdb>
x0830_0

$$$$
x0659
  -OEChem-05172015543D

 15 15  0     0  0  0  0  0  0999 V2000
   13.0200   -1.7088   21.7272 C   0  0  0  0  0  0  0  0  0  0  0  0
   11.6035   -0.7936   23.4573 C   0  0  0  0  0  0  0  0  0  0  0  0
   14.0808   -1.7747   22.6306 C   0  0  0  0  0  0  0  0  0  0  0  0
   12.6643   -0.8596   24.3607 C   0  0  0  0  0  0  0  0  0  0  0  0
   11.7814   -1.2182   22.1406 C   0  0  0  0  0  0  0  0  0  0  0  0
   13.9029   -1.3502   23.9473 C   0  0  0  0  0  0  0  0  0  0  0  0
    9.6565   -0.2403   21.2166 C   0  0  0  0  0  0  0  0  0  0  0  0
    7.0493    1.1023   20.5432 C   0  0  0  0  0  0  0  0  0  0  0  0
    8.7026   -0.4996   20.0708 C   0  0  0  0  0  0  0  0  0  0  0  0
   10.7203   -1.1521   21.2371 N   0  0  0  0  0  0  0  0  0  0  0  0
    9.4508    0.6801   22.0019 O   0  0  0  0  0  0  0  0  0  0  0  0
   14.9380   -1.4145   24.8288 O   0  0  0  0  0  0  0  0  0  0  0  0
    8.1169    0.7247   19.6792 O   0  0  0  0  0  0  0  0  0  0  0  0
   10.7188   -1.8603   20.4941 H   0  0  0  0  0  0  0  0  0  0  0  0
   15.7275   -1.7752   24.3948 H   0  0  0  0  0  0  0  0  0  0  0  0
  1  3  2  0  0  0  0
  1  5  1  0  0  0  0
  2  4  1  0  0  0  0
  2  5  2  0  0  0  0
  3  6  1  0  0  0  0
  4  6  2  0  0  0  0
  5 10  1  0  0  0  0
  6 12  1  0  0  0  0
  7  9  1  0  0  0  0
  7 10  1  0  0  0  0
  7 11  2  0  0  0  0
  8 13  1  0  0  0  0
  9 13  1  0  0  0  0
 10 14  1  0  0  0  0
 12 15  1  0  0  0  0
M  END
> <ref_mols>
x0659_0

> <original SMILES>
COCC(=O)NC=1C=CC(O)=CC1

> <Chemgauss4>
-7.919173

> <ref_pdb>
x0678_0

$$$$
x0313
  -OEChem-05172015543D

 18 18  0     0  0  0  0  0  0999 V2000
   12.6376    0.2527   22.9129 C   0  0  0  0  0  0  0  0  0  0  0  0
   13.3391    1.3757   22.5479 C   0  0  0  0  0  0  0  0  0  0  0  0
   11.4909    0.7493   23.5612 C   0  0  0  0  0  0  0  0  0  0  0  0
   12.0821    4.7509   23.6939 C   0  0  0  0  0  0  0  0  0  0  0  0
    8.8246    6.2836   22.6111 C   0  0  0  0  0  0  0  0  0  0  0  0
    9.3508    5.3226   24.8667 C   0  0  0  0  0  0  0  0  0  0  0  0
   10.6001    7.3311   24.0341 C   0  0  0  0  0  0  0  0  0  0  0  0
   12.9345    3.8475   22.8287 C   0  0  0  0  0  0  0  0  0  0  0  0
   10.3903   -0.0273   24.1564 C   0  0  0  0  0  0  0  0  0  0  0  0
    9.9376    6.0093   23.6290 C   0  0  0  0  0  0  0  0  0  0  0  0
   11.4619    2.0839   23.6072 N   0  0  0  0  0  0  0  0  0  0  0  0
   12.5990    2.4354   22.9832 N   0  0  0  0  0  0  0  0  0  0  0  0
   10.9319    5.1381   23.0295 N   0  0  0  0  0  0  0  0  0  0  0  0
   12.3922    5.0857   24.8341 O   0  0  0  0  0  0  0  0  0  0  0  0
   10.5343   -1.3890   24.0469 F   0  0  0  0  0  0  0  0  0  0  0  0
   10.2094    0.1872   25.5009 F   0  0  0  0  0  0  0  0  0  0  0  0
    9.1684    0.2409   23.5925 F   0  0  0  0  0  0  0  0  0  0  0  0
   10.7756    4.8397   22.0747 H   0  0  0  0  0  0  0  0  0  0  0  0
  1  2  2  0  0  0  0
  1  3  1  0  0  0  0
  2 12  1  0  0  0  0
  3  9  1  0  0  0  0
  3 11  2  0  0  0  0
  4  8  1  0  0  0  0
  4 13  1  0  0  0  0
  4 14  2  0  0  0  0
  5 10  1  0  0  0  0
  6 10  1  0  0  0  0
  7 10  1  0  0  0  0
  8 12  1  0  0  0  0
  9 15  1  0  0  0  0
  9 16  1  0  0  0  0
  9 17  1  0  0  0  0
 10 13  1  0  0  0  0
 11 12  1  0  0  0  0
 13 18  1  0  0  0  0
M  END
> <ref_mols>
x0313_0

> <original SMILES>
CC(C)(C)NC(=O)CN1C=CC(=N1)C(F)(F)F

> <Chemgauss4>
-7.909073

> <ref_pdb>
x0104_0

$$$$
x2575
  -OEChem-05172015543D

 30 33  0     1  0  0  0  0  0999 V2000
    6.4704    3.6238   22.1013 C   0  0  0  0  0  0  0  0  0  0  0  0
    6.6623    4.9838   21.8580 C   0  0  0  0  0  0  0  0  0  0  0  0
    7.3558    2.9313   22.9273 C   0  0  0  0  0  0  0  0  0  0  0  0
    7.7396    5.6513   22.4406 C   0  0  0  0  0  0  0  0  0  0  0  0
    8.4331    3.5988   23.5099 C   0  0  0  0  0  0  0  0  0  0  0  0
   11.9565    5.6322   23.1530 C   0  0  0  0  0  0  0  0  0  0  0  0
    8.6250    4.9588   23.2666 C   0  0  0  0  0  0  0  0  0  0  0  0
   12.8522    5.8527   24.2135 C   0  0  0  0  0  0  0  0  0  0  0  0
   12.6102    4.7292   22.3570 C   0  0  0  0  0  0  0  0  0  0  0  0
   10.9403   -0.4730   24.0577 C   0  0  0  0  0  0  0  0  0  0  0  0
   12.2799   -1.5895   22.7290 C   0  0  0  0  0  0  0  0  0  0  0  0
   14.0231    0.5592   22.3738 C   0  0  0  0  0  0  0  0  0  0  0  0
   12.9482    0.7096   23.1559 C   0  0  0  0  0  0  0  0  0  0  0  0
   14.1601   -0.7936   21.7653 C   0  0  0  0  0  0  0  0  0  0  0  0
    9.3640    2.8420   24.3862 C   0  0  0  0  0  0  0  0  0  0  0  0
   12.6801    6.7376   25.3781 C   0  0  0  0  0  0  0  0  0  0  0  0
   12.2799    4.0567   21.0938 C   0  0  0  0  0  0  0  0  0  0  0  0
    9.5948    0.1453   26.1069 C   0  0  0  0  0  0  0  0  0  0  0  0
   10.6016    6.2398   22.9375 C   0  0  0  0  0  0  0  0  0  0  0  0
   10.3686    0.6237   24.8612 C   0  0  2  0  0  0  0  0  0  0  0  0
   13.9755    5.1411   24.0852 N   0  0  0  0  0  0  0  0  0  0  0  0
   10.4505   -1.6838   23.9253 N   0  0  0  0  0  0  0  0  0  0  0  0
   11.2924   -2.3873   23.0897 N   0  0  0  0  0  0  0  0  0  0  0  0
   13.3577   -1.8050   21.9201 N   0  0  0  0  0  0  0  0  0  0  0  0
   12.0869   -0.3570   23.3293 N   0  0  0  0  0  0  0  0  0  0  0  0
    9.5093    1.5064   24.0786 N   0  0  0  0  0  0  0  0  0  0  0  0
    9.9175    3.4223   25.3165 O   0  0  0  0  0  0  0  0  0  0  0  0
   13.8163    4.4283   22.9028 O   0  0  0  0  0  0  0  0  0  0  0  0
    9.6706    5.6290   23.8283 O   0  0  0  0  0  0  0  0  0  0  0  0
    8.9780    1.0732   23.3391 H   0  0  0  0  0  0  0  0  0  0  0  0
  1  2  1  0  0  0  0
  1  3  2  0  0  0  0
  2  4  2  0  0  0  0
  3  5  1  0  0  0  0
  4  7  1  0  0  0  0
  5  7  2  0  0  0  0
  5 15  1  0  0  0  0
  6  8  1  0  0  0  0
  6  9  2  0  0  0  0
  6 19  1  0  0  0  0
  7 29  1  0  0  0  0
  8 16  1  0  0  0  0
  8 21  2  0  0  0  0
  9 17  1  0  0  0  0
  9 28  1  0  0  0  0
 10 20  1  0  0  0  0
 10 22  2  0  0  0  0
 10 25  1  0  0  0  0
 11 23  2  0  0  0  0
 11 24  1  0  0  0  0
 11 25  1  0  0  0  0
 12 13  2  0  0  0  0
 12 14  1  0  0  0  0
 13 25  1  0  0  0  0
 14 24  2  0  0  0  0
 15 26  1  0  0  0  0
 15 27  2  0  0  0  0
 18 20  1  0  0  0  0
 19 29  1  0  0  0  0
 20 26  1  0  0  0  0
 21 28  1  0  0  0  0
 22 23  1  0  0  0  0
 26 30  1  0  0  0  0
M  END
> <ref_mols>
x2575_0

> <original SMILES>
CC(NC(=O)C=1C=CC=CC1OCC=2C(C)=NOC2C)C3=NN=C4N=CC=CN34

> <Chemgauss4>
-7.903749

> <ref_pdb>
x0195_0

$$$$
x0394
  -OEChem-05172015543D

 15 16  0     0  0  0  0  0  0999 V2000
   11.3696   -1.2876   22.1187 C   0  0  0  0  0  0  0  0  0  0  0  0
   11.5555   -0.1467   22.8709 C   0  0  0  0  0  0  0  0  0  0  0  0
   10.2010   -1.8620   23.8835 C   0  0  0  0  0  0  0  0  0  0  0  0
   10.3697    2.4894   22.7382 C   0  0  0  0  0  0  0  0  0  0  0  0
   12.5783    3.4683   22.9243 C   0  0  0  0  0  0  0  0  0  0  0  0
    9.7428    3.6970   23.4248 C   0  0  0  0  0  0  0  0  0  0  0  0
   12.0078    4.7007   23.6160 C   0  0  0  0  0  0  0  0  0  0  0  0
    9.3509   -2.6497   24.8031 C   0  0  0  0  0  0  0  0  0  0  0  0
   12.3306    1.0993   22.5531 C   0  0  0  0  0  0  0  0  0  0  0  0
   10.5935   -2.2725   22.6980 N   0  0  0  0  0  0  0  0  0  0  0  0
   11.7529    2.2811   23.1920 N   0  0  0  0  0  0  0  0  0  0  0  0
   10.5958    4.8955   23.1747 N   0  3  0  0  0  0  0  0  0  0  0  0
   10.7279   -0.3014   24.3650 S   0  0  0  0  0  0  0  0  0  0  0  0
   10.5774    5.1279   22.1717 H   0  0  0  0  0  0  0  0  0  0  0  0
   10.1939    5.7103   23.6583 H   0  0  0  0  0  0  0  0  0  0  0  0
  1  2  2  0  0  0  0
  1 10  1  0  0  0  0
  2  9  1  0  0  0  0
  2 13  1  0  0  0  0
  3  8  1  0  0  0  0
  3 10  2  0  0  0  0
  3 13  1  0  0  0  0
  4  6  1  0  0  0  0
  4 11  1  0  0  0  0
  5  7  1  0  0  0  0
  5 11  1  0  0  0  0
  6 12  1  0  0  0  0
  7 12  1  0  0  0  0
  9 11  1  0  0  0  0
 12 14  1  0  0  0  0
 12 15  1  0  0  0  0
M  CHG  1  12   1
M  END
> <ref_mols>
x0394_0

> <original SMILES>
CC1=NC=C(CN2CCNCC2)S1

> <Chemgauss4>
-7.902103

> <ref_pdb>
x0104_0

$$$$
x1434
  -OEChem-05172015543D

 22 23  0     0  0  0  0  0  0999 V2000
   12.6229   -0.8818   24.8480 C   0  0  0  0  0  0  0  0  0  0  0  0
   13.8168   -1.1998   25.4955 C   0  0  0  0  0  0  0  0  0  0  0  0
   11.6636   -1.8704   24.6289 C   0  0  0  0  0  0  0  0  0  0  0  0
   14.0514   -2.5064   25.9237 C   0  0  0  0  0  0  0  0  0  0  0  0
   11.8982   -3.1770   25.0572 C   0  0  0  0  0  0  0  0  0  0  0  0
   13.0921   -3.4950   25.7046 C   0  0  0  0  0  0  0  0  0  0  0  0
    9.6863   -4.0116   24.1996 C   0  0  0  0  0  0  0  0  0  0  0  0
    5.0968   -5.4151   22.4601 C   0  0  0  0  0  0  0  0  0  0  0  0
    7.6293   -5.1935   24.9499 C   0  0  0  0  0  0  0  0  0  0  0  0
    8.6885   -5.7549   22.7080 C   0  0  0  0  0  0  0  0  0  0  0  0
    6.5490   -4.4186   24.1975 C   0  0  0  0  0  0  0  0  0  0  0  0
    7.5633   -4.9774   22.0237 C   0  0  0  0  0  0  0  0  0  0  0  0
    8.9328   -5.3089   24.1532 C   0  0  0  0  0  0  0  0  0  0  0  0
    4.2003   -5.9560   23.5452 C   0  0  0  0  0  0  0  0  0  0  0  0
    6.3565   -4.9675   22.8559 N   0  0  0  0  0  0  0  0  0  0  0  0
   10.9156   -4.1690   24.8270 N   0  0  0  0  0  0  0  0  0  0  0  0
    9.2076   -2.9896   23.7185 O   0  0  0  0  0  0  0  0  0  0  0  0
    4.6871   -5.3901   21.2966 O   0  0  0  0  0  0  0  0  0  0  0  0
   13.3413   -4.7656   26.1308 O   0  0  0  0  0  0  0  0  0  0  0  0
    3.2991   -4.5857   24.1838 Cl  0  0  0  0  0  0  0  0  0  0  0  0
   11.1493   -5.1006   25.1641 H   0  0  0  0  0  0  0  0  0  0  0  0
   14.2111   -4.8106   26.5572 H   0  0  0  0  0  0  0  0  0  0  0  0
  1  2  1  0  0  0  0
  1  3  2  0  0  0  0
  2  4  2  0  0  0  0
  3  5  1  0  0  0  0
  4  6  1  0  0  0  0
  5  6  2  0  0  0  0
  5 16  1  0  0  0  0
  6 19  1  0  0  0  0
  7 13  1  0  0  0  0
  7 16  1  0  0  0  0
  7 17  2  0  0  0  0
  8 14  1  0  0  0  0
  8 15  1  0  0  0  0
  8 18  2  0  0  0  0
  9 11  1  0  0  0  0
  9 13  1  0  0  0  0
 10 12  1  0  0  0  0
 10 13  1  0  0  0  0
 11 15  1  0  0  0  0
 12 15  1  0  0  0  0
 14 20  1  0  0  0  0
 16 21  1  0  0  0  0
 19 22  1  0  0  0  0
M  END
> <ref_mols>
x1434_0

> <original SMILES>
Oc1ccccc1NC(=O)C2CCN(CC2)C(=O)CCl

> <Chemgauss4>
-7.899599

> <ref_pdb>
x0749_0

$$$$
x1354
  -OEChem-05172015543D

 22 23  0     0  0  0  0  0  0999 V2000
   12.6229   -0.8818   24.8480 C   0  0  0  0  0  0  0  0  0  0  0  0
   13.8168   -1.1998   25.4955 C   0  0  0  0  0  0  0  0  0  0  0  0
   11.6636   -1.8704   24.6289 C   0  0  0  0  0  0  0  0  0  0  0  0
   14.0514   -2.5064   25.9237 C   0  0  0  0  0  0  0  0  0  0  0  0
   11.8982   -3.1770   25.0572 C   0  0  0  0  0  0  0  0  0  0  0  0
   13.0921   -3.4950   25.7046 C   0  0  0  0  0  0  0  0  0  0  0  0
    9.6863   -4.0116   24.1996 C   0  0  0  0  0  0  0  0  0  0  0  0
    5.0968   -5.4151   22.4601 C   0  0  0  0  0  0  0  0  0  0  0  0
    7.6293   -5.1935   24.9499 C   0  0  0  0  0  0  0  0  0  0  0  0
    8.6885   -5.7549   22.7080 C   0  0  0  0  0  0  0  0  0  0  0  0
    6.5490   -4.4186   24.1975 C   0  0  0  0  0  0  0  0  0  0  0  0
    7.5633   -4.9774   22.0237 C   0  0  0  0  0  0  0  0  0  0  0  0
    8.9328   -5.3089   24.1532 C   0  0  0  0  0  0  0  0  0  0  0  0
    4.2003   -5.9560   23.5452 C   0  0  0  0  0  0  0  0  0  0  0  0
    6.3565   -4.9675   22.8559 N   0  0  0  0  0  0  0  0  0  0  0  0
   10.9156   -4.1690   24.8270 N   0  0  0  0  0  0  0  0  0  0  0  0
    9.2076   -2.9896   23.7185 O   0  0  0  0  0  0  0  0  0  0  0  0
    4.6871   -5.3901   21.2966 O   0  0  0  0  0  0  0  0  0  0  0  0
   13.3413   -4.7656   26.1308 O   0  0  0  0  0  0  0  0  0  0  0  0
    3.2991   -4.5857   24.1838 Cl  0  0  0  0  0  0  0  0  0  0  0  0
   11.1493   -5.1006   25.1641 H   0  0  0  0  0  0  0  0  0  0  0  0
   14.2111   -4.8106   26.5572 H   0  0  0  0  0  0  0  0  0  0  0  0
  1  2  1  0  0  0  0
  1  3  2  0  0  0  0
  2  4  2  0  0  0  0
  3  5  1  0  0  0  0
  4  6  1  0  0  0  0
  5  6  2  0  0  0  0
  5 16  1  0  0  0  0
  6 19  1  0  0  0  0
  7 13  1  0  0  0  0
  7 16  1  0  0  0  0
  7 17  2  0  0  0  0
  8 14  1  0  0  0  0
  8 15  1  0  0  0  0
  8 18  2  0  0  0  0
  9 11  1  0  0  0  0
  9 13  1  0  0  0  0
 10 12  1  0  0  0  0
 10 13  1  0  0  0  0
 11 15  1  0  0  0  0
 12 15  1  0  0  0  0
 14 20  1  0  0  0  0
 16 21  1  0  0  0  0
 19 22  1  0  0  0  0
M  END
> <ref_mols>
x1354_0

> <original SMILES>
Oc1ccccc1NC(=O)C2CCN(CC2)C(=O)CCl

> <Chemgauss4>
-7.899599

> <ref_pdb>
x0749_0

$$$$
x1358
  -OEChem-05172015543D

 22 23  0     0  0  0  0  0  0999 V2000
   12.6229   -0.8818   24.8480 C   0  0  0  0  0  0  0  0  0  0  0  0
   13.8168   -1.1998   25.4955 C   0  0  0  0  0  0  0  0  0  0  0  0
   11.6636   -1.8704   24.6289 C   0  0  0  0  0  0  0  0  0  0  0  0
   14.0514   -2.5064   25.9237 C   0  0  0  0  0  0  0  0  0  0  0  0
   11.8982   -3.1770   25.0572 C   0  0  0  0  0  0  0  0  0  0  0  0
   13.0921   -3.4950   25.7046 C   0  0  0  0  0  0  0  0  0  0  0  0
    9.6863   -4.0116   24.1996 C   0  0  0  0  0  0  0  0  0  0  0  0
    5.0968   -5.4151   22.4601 C   0  0  0  0  0  0  0  0  0  0  0  0
    7.6293   -5.1935   24.9499 C   0  0  0  0  0  0  0  0  0  0  0  0
    8.6885   -5.7549   22.7080 C   0  0  0  0  0  0  0  0  0  0  0  0
    6.5490   -4.4186   24.1975 C   0  0  0  0  0  0  0  0  0  0  0  0
    7.5633   -4.9774   22.0237 C   0  0  0  0  0  0  0  0  0  0  0  0
    8.9328   -5.3089   24.1532 C   0  0  0  0  0  0  0  0  0  0  0  0
    4.2003   -5.9560   23.5452 C   0  0  0  0  0  0  0  0  0  0  0  0
    6.3565   -4.9675   22.8559 N   0  0  0  0  0  0  0  0  0  0  0  0
   10.9156   -4.1690   24.8270 N   0  0  0  0  0  0  0  0  0  0  0  0
    9.2076   -2.9896   23.7185 O   0  0  0  0  0  0  0  0  0  0  0  0
    4.6871   -5.3901   21.2966 O   0  0  0  0  0  0  0  0  0  0  0  0
   13.3413   -4.7656   26.1308 O   0  0  0  0  0  0  0  0  0  0  0  0
    3.2991   -4.5857   24.1838 Cl  0  0  0  0  0  0  0  0  0  0  0  0
   11.1493   -5.1006   25.1641 H   0  0  0  0  0  0  0  0  0  0  0  0
   14.2111   -4.8106   26.5572 H   0  0  0  0  0  0  0  0  0  0  0  0
  1  2  1  0  0  0  0
  1  3  2  0  0  0  0
  2  4  2  0  0  0  0
  3  5  1  0  0  0  0
  4  6  1  0  0  0  0
  5  6  2  0  0  0  0
  5 16  1  0  0  0  0
  6 19  1  0  0  0  0
  7 13  1  0  0  0  0
  7 16  1  0  0  0  0
  7 17  2  0  0  0  0
  8 14  1  0  0  0  0
  8 15  1  0  0  0  0
  8 18  2  0  0  0  0
  9 11  1  0  0  0  0
  9 13  1  0  0  0  0
 10 12  1  0  0  0  0
 10 13  1  0  0  0  0
 11 15  1  0  0  0  0
 12 15  1  0  0  0  0
 14 20  1  0  0  0  0
 16 21  1  0  0  0  0
 19 22  1  0  0  0  0
M  END
> <ref_mols>
x1358_0

> <original SMILES>
Oc1ccccc1NC(=O)C2CCN(CC2)C(=O)CCl

> <Chemgauss4>
-7.899599

> <ref_pdb>
x0749_0

> <CYS145-warhead dist minimum (A)>
31.148731

> <CYS145-warhead dist mean (A)>
32.10141

> <CYS145-warhead dist stddev (A)>
0.6276838

$$$$
x0815
  -OEChem-05172015543D

 22 23  0     0  0  0  0  0  0999 V2000
   12.6229   -0.8818   24.8480 C   0  0  0  0  0  0  0  0  0  0  0  0
   13.8168   -1.1998   25.4955 C   0  0  0  0  0  0  0  0  0  0  0  0
   11.6636   -1.8704   24.6289 C   0  0  0  0  0  0  0  0  0  0  0  0
   14.0514   -2.5064   25.9237 C   0  0  0  0  0  0  0  0  0  0  0  0
   11.8982   -3.1770   25.0572 C   0  0  0  0  0  0  0  0  0  0  0  0
   13.0921   -3.4950   25.7046 C   0  0  0  0  0  0  0  0  0  0  0  0
    9.6863   -4.0116   24.1996 C   0  0  0  0  0  0  0  0  0  0  0  0
    5.0968   -5.4151   22.4601 C   0  0  0  0  0  0  0  0  0  0  0  0
    7.6293   -5.1935   24.9499 C   0  0  0  0  0  0  0  0  0  0  0  0
    8.6885   -5.7549   22.7080 C   0  0  0  0  0  0  0  0  0  0  0  0
    6.5490   -4.4186   24.1975 C   0  0  0  0  0  0  0  0  0  0  0  0
    7.5633   -4.9774   22.0237 C   0  0  0  0  0  0  0  0  0  0  0  0
    8.9328   -5.3089   24.1532 C   0  0  0  0  0  0  0  0  0  0  0  0
    4.2003   -5.9560   23.5452 C   0  0  0  0  0  0  0  0  0  0  0  0
    6.3565   -4.9675   22.8559 N   0  0  0  0  0  0  0  0  0  0  0  0
   10.9156   -4.1690   24.8270 N   0  0  0  0  0  0  0  0  0  0  0  0
    9.2076   -2.9896   23.7185 O   0  0  0  0  0  0  0  0  0  0  0  0
    4.6871   -5.3901   21.2966 O   0  0  0  0  0  0  0  0  0  0  0  0
   13.3413   -4.7656   26.1308 O   0  0  0  0  0  0  0  0  0  0  0  0
    3.2991   -4.5857   24.1838 Cl  0  0  0  0  0  0  0  0  0  0  0  0
   11.1493   -5.1006   25.1641 H   0  0  0  0  0  0  0  0  0  0  0  0
   14.2111   -4.8106   26.5572 H   0  0  0  0  0  0  0  0  0  0  0  0
  1  2  1  0  0  0  0
  1  3  2  0  0  0  0
  2  4  2  0  0  0  0
  3  5  1  0  0  0  0
  4  6  1  0  0  0  0
  5  6  2  0  0  0  0
  5 16  1  0  0  0  0
  6 19  1  0  0  0  0
  7 13  1  0  0  0  0
  7 16  1  0  0  0  0
  7 17  2  0  0  0  0
  8 14  1  0  0  0  0
  8 15  1  0  0  0  0
  8 18  2  0  0  0  0
  9 11  1  0  0  0  0
  9 13  1  0  0  0  0
 10 12  1  0  0  0  0
 10 13  1  0  0  0  0
 11 15  1  0  0  0  0
 12 15  1  0  0  0  0
 14 20  1  0  0  0  0
 16 21  1  0  0  0  0
 19 22  1  0  0  0  0
M  END
> <ref_mols>
x0815_0

> <original SMILES>
Oc1ccccc1NC(=O)C2CCN(CC2)C(=O)CCl

> <Chemgauss4>
-7.899599

> <ref_pdb>
x0749_0

$$$$
x1405
  -OEChem-05172015543D

 22 23  0     0  0  0  0  0  0999 V2000
   12.6229   -0.8818   24.8480 C   0  0  0  0  0  0  0  0  0  0  0  0
   13.8168   -1.1998   25.4955 C   0  0  0  0  0  0  0  0  0  0  0  0
   11.6636   -1.8704   24.6289 C   0  0  0  0  0  0  0  0  0  0  0  0
   14.0514   -2.5064   25.9237 C   0  0  0  0  0  0  0  0  0  0  0  0
   11.8982   -3.1770   25.0572 C   0  0  0  0  0  0  0  0  0  0  0  0
   13.0921   -3.4950   25.7046 C   0  0  0  0  0  0  0  0  0  0  0  0
    9.6863   -4.0116   24.1996 C   0  0  0  0  0  0  0  0  0  0  0  0
    5.0968   -5.4151   22.4601 C   0  0  0  0  0  0  0  0  0  0  0  0
    7.6293   -5.1935   24.9499 C   0  0  0  0  0  0  0  0  0  0  0  0
    8.6885   -5.7549   22.7080 C   0  0  0  0  0  0  0  0  0  0  0  0
    6.5490   -4.4186   24.1975 C   0  0  0  0  0  0  0  0  0  0  0  0
    7.5633   -4.9774   22.0237 C   0  0  0  0  0  0  0  0  0  0  0  0
    8.9328   -5.3089   24.1532 C   0  0  0  0  0  0  0  0  0  0  0  0
    4.2003   -5.9560   23.5452 C   0  0  0  0  0  0  0  0  0  0  0  0
    6.3565   -4.9675   22.8559 N   0  0  0  0  0  0  0  0  0  0  0  0
   10.9156   -4.1690   24.8270 N   0  0  0  0  0  0  0  0  0  0  0  0
    9.2076   -2.9896   23.7185 O   0  0  0  0  0  0  0  0  0  0  0  0
    4.6871   -5.3901   21.2966 O   0  0  0  0  0  0  0  0  0  0  0  0
   13.3413   -4.7656   26.1308 O   0  0  0  0  0  0  0  0  0  0  0  0
    3.2991   -4.5857   24.1838 Cl  0  0  0  0  0  0  0  0  0  0  0  0
   11.1493   -5.1006   25.1641 H   0  0  0  0  0  0  0  0  0  0  0  0
   14.2111   -4.8106   26.5572 H   0  0  0  0  0  0  0  0  0  0  0  0
  1  2  1  0  0  0  0
  1  3  2  0  0  0  0
  2  4  2  0  0  0  0
  3  5  1  0  0  0  0
  4  6  1  0  0  0  0
  5  6  2  0  0  0  0
  5 16  1  0  0  0  0
  6 19  1  0  0  0  0
  7 13  1  0  0  0  0
  7 16  1  0  0  0  0
  7 17  2  0  0  0  0
  8 14  1  0  0  0  0
  8 15  1  0  0  0  0
  8 18  2  0  0  0  0
  9 11  1  0  0  0  0
  9 13  1  0  0  0  0
 10 12  1  0  0  0  0
 10 13  1  0  0  0  0
 11 15  1  0  0  0  0
 12 15  1  0  0  0  0
 14 20  1  0  0  0  0
 16 21  1  0  0  0  0
 19 22  1  0  0  0  0
M  END
> <ref_mols>
x1405_0

> <original SMILES>
Oc1ccccc1NC(=O)C2CCN(CC2)C(=O)CCl

> <Chemgauss4>
-7.899599

> <ref_pdb>
x0749_0

$$$$
x0741
  -OEChem-05172015543D

 22 23  0     0  0  0  0  0  0999 V2000
   12.6229   -0.8818   24.8480 C   0  0  0  0  0  0  0  0  0  0  0  0
   13.8168   -1.1998   25.4955 C   0  0  0  0  0  0  0  0  0  0  0  0
   11.6636   -1.8704   24.6289 C   0  0  0  0  0  0  0  0  0  0  0  0
   14.0514   -2.5064   25.9237 C   0  0  0  0  0  0  0  0  0  0  0  0
   11.8982   -3.1770   25.0572 C   0  0  0  0  0  0  0  0  0  0  0  0
   13.0921   -3.4950   25.7046 C   0  0  0  0  0  0  0  0  0  0  0  0
    9.6863   -4.0116   24.1996 C   0  0  0  0  0  0  0  0  0  0  0  0
    5.0968   -5.4151   22.4601 C   0  0  0  0  0  0  0  0  0  0  0  0
    7.6293   -5.1935   24.9499 C   0  0  0  0  0  0  0  0  0  0  0  0
    8.6885   -5.7549   22.7080 C   0  0  0  0  0  0  0  0  0  0  0  0
    6.5490   -4.4186   24.1975 C   0  0  0  0  0  0  0  0  0  0  0  0
    7.5633   -4.9774   22.0237 C   0  0  0  0  0  0  0  0  0  0  0  0
    8.9328   -5.3089   24.1532 C   0  0  0  0  0  0  0  0  0  0  0  0
    4.2003   -5.9560   23.5452 C   0  0  0  0  0  0  0  0  0  0  0  0
    6.3565   -4.9675   22.8559 N   0  0  0  0  0  0  0  0  0  0  0  0
   10.9156   -4.1690   24.8270 N   0  0  0  0  0  0  0  0  0  0  0  0
    9.2076   -2.9896   23.7185 O   0  0  0  0  0  0  0  0  0  0  0  0
    4.6871   -5.3901   21.2966 O   0  0  0  0  0  0  0  0  0  0  0  0
   13.3413   -4.7656   26.1308 O   0  0  0  0  0  0  0  0  0  0  0  0
    3.2991   -4.5857   24.1838 Cl  0  0  0  0  0  0  0  0  0  0  0  0
   11.1493   -5.1006   25.1641 H   0  0  0  0  0  0  0  0  0  0  0  0
   14.2111   -4.8106   26.5572 H   0  0  0  0  0  0  0  0  0  0  0  0
  1  2  1  0  0  0  0
  1  3  2  0  0  0  0
  2  4  2  0  0  0  0
  3  5  1  0  0  0  0
  4  6  1  0  0  0  0
  5  6  2  0  0  0  0
  5 16  1  0  0  0  0
  6 19  1  0  0  0  0
  7 13  1  0  0  0  0
  7 16  1  0  0  0  0
  7 17  2  0  0  0  0
  8 14  1  0  0  0  0
  8 15  1  0  0  0  0
  8 18  2  0  0  0  0
  9 11  1  0  0  0  0
  9 13  1  0  0  0  0
 10 12  1  0  0  0  0
 10 13  1  0  0  0  0
 11 15  1  0  0  0  0
 12 15  1  0  0  0  0
 14 20  1  0  0  0  0
 16 21  1  0  0  0  0
 19 22  1  0  0  0  0
M  END
> <ref_mols>
x0741_0

> <original SMILES>
Oc1ccccc1NC(=O)C2CCN(CC2)C(=O)CCl

> <Chemgauss4>
-7.899599

> <ref_pdb>
x0749_0

$$$$
x1379
  -OEChem-05172015543D

 22 23  0     0  0  0  0  0  0999 V2000
   12.6229   -0.8818   24.8480 C   0  0  0  0  0  0  0  0  0  0  0  0
   13.8168   -1.1998   25.4955 C   0  0  0  0  0  0  0  0  0  0  0  0
   11.6636   -1.8704   24.6289 C   0  0  0  0  0  0  0  0  0  0  0  0
   14.0514   -2.5064   25.9237 C   0  0  0  0  0  0  0  0  0  0  0  0
   11.8982   -3.1770   25.0572 C   0  0  0  0  0  0  0  0  0  0  0  0
   13.0921   -3.4950   25.7046 C   0  0  0  0  0  0  0  0  0  0  0  0
    9.6863   -4.0116   24.1996 C   0  0  0  0  0  0  0  0  0  0  0  0
    5.0968   -5.4151   22.4601 C   0  0  0  0  0  0  0  0  0  0  0  0
    7.6293   -5.1935   24.9499 C   0  0  0  0  0  0  0  0  0  0  0  0
    8.6885   -5.7549   22.7080 C   0  0  0  0  0  0  0  0  0  0  0  0
    6.5490   -4.4186   24.1975 C   0  0  0  0  0  0  0  0  0  0  0  0
    7.5633   -4.9774   22.0237 C   0  0  0  0  0  0  0  0  0  0  0  0
    8.9328   -5.3089   24.1532 C   0  0  0  0  0  0  0  0  0  0  0  0
    4.2003   -5.9560   23.5452 C   0  0  0  0  0  0  0  0  0  0  0  0
    6.3565   -4.9675   22.8559 N   0  0  0  0  0  0  0  0  0  0  0  0
   10.9156   -4.1690   24.8270 N   0  0  0  0  0  0  0  0  0  0  0  0
    9.2076   -2.9896   23.7185 O   0  0  0  0  0  0  0  0  0  0  0  0
    4.6871   -5.3901   21.2966 O   0  0  0  0  0  0  0  0  0  0  0  0
   13.3413   -4.7656   26.1308 O   0  0  0  0  0  0  0  0  0  0  0  0
    3.2991   -4.5857   24.1838 Cl  0  0  0  0  0  0  0  0  0  0  0  0
   11.1493   -5.1006   25.1641 H   0  0  0  0  0  0  0  0  0  0  0  0
   14.2111   -4.8106   26.5572 H   0  0  0  0  0  0  0  0  0  0  0  0
  1  2  1  0  0  0  0
  1  3  2  0  0  0  0
  2  4  2  0  0  0  0
  3  5  1  0  0  0  0
  4  6  1  0  0  0  0
  5  6  2  0  0  0  0
  5 16  1  0  0  0  0
  6 19  1  0  0  0  0
  7 13  1  0  0  0  0
  7 16  1  0  0  0  0
  7 17  2  0  0  0  0
  8 14  1  0  0  0  0
  8 15  1  0  0  0  0
  8 18  2  0  0  0  0
  9 11  1  0  0  0  0
  9 13  1  0  0  0  0
 10 12  1  0  0  0  0
 10 13  1  0  0  0  0
 11 15  1  0  0  0  0
 12 15  1  0  0  0  0
 14 20  1  0  0  0  0
 16 21  1  0  0  0  0
 19 22  1  0  0  0  0
M  END
> <ref_mols>
x1379_0

> <original SMILES>
Oc1ccccc1NC(=O)C2CCN(CC2)C(=O)CCl

> <Chemgauss4>
-7.899599

> <ref_pdb>
x0749_0

$$$$
x1432
  -OEChem-05172015543D

 22 23  0     0  0  0  0  0  0999 V2000
   12.6229   -0.8818   24.8480 C   0  0  0  0  0  0  0  0  0  0  0  0
   13.8168   -1.1998   25.4955 C   0  0  0  0  0  0  0  0  0  0  0  0
   11.6636   -1.8704   24.6289 C   0  0  0  0  0  0  0  0  0  0  0  0
   14.0514   -2.5064   25.9237 C   0  0  0  0  0  0  0  0  0  0  0  0
   11.8982   -3.1770   25.0572 C   0  0  0  0  0  0  0  0  0  0  0  0
   13.0921   -3.4950   25.7046 C   0  0  0  0  0  0  0  0  0  0  0  0
    9.6863   -4.0116   24.1996 C   0  0  0  0  0  0  0  0  0  0  0  0
    5.0968   -5.4151   22.4601 C   0  0  0  0  0  0  0  0  0  0  0  0
    7.6293   -5.1935   24.9499 C   0  0  0  0  0  0  0  0  0  0  0  0
    8.6885   -5.7549   22.7080 C   0  0  0  0  0  0  0  0  0  0  0  0
    6.5490   -4.4186   24.1975 C   0  0  0  0  0  0  0  0  0  0  0  0
    7.5633   -4.9774   22.0237 C   0  0  0  0  0  0  0  0  0  0  0  0
    8.9328   -5.3089   24.1532 C   0  0  0  0  0  0  0  0  0  0  0  0
    4.2003   -5.9560   23.5452 C   0  0  0  0  0  0  0  0  0  0  0  0
    6.3565   -4.9675   22.8559 N   0  0  0  0  0  0  0  0  0  0  0  0
   10.9156   -4.1690   24.8270 N   0  0  0  0  0  0  0  0  0  0  0  0
    9.2076   -2.9896   23.7185 O   0  0  0  0  0  0  0  0  0  0  0  0
    4.6871   -5.3901   21.2966 O   0  0  0  0  0  0  0  0  0  0  0  0
   13.3413   -4.7656   26.1308 O   0  0  0  0  0  0  0  0  0  0  0  0
    3.2991   -4.5857   24.1838 Cl  0  0  0  0  0  0  0  0  0  0  0  0
   11.1493   -5.1006   25.1641 H   0  0  0  0  0  0  0  0  0  0  0  0
   14.2111   -4.8106   26.5572 H   0  0  0  0  0  0  0  0  0  0  0  0
  1  2  1  0  0  0  0
  1  3  2  0  0  0  0
  2  4  2  0  0  0  0
  3  5  1  0  0  0  0
  4  6  1  0  0  0  0
  5  6  2  0  0  0  0
  5 16  1  0  0  0  0
  6 19  1  0  0  0  0
  7 13  1  0  0  0  0
  7 16  1  0  0  0  0
  7 17  2  0  0  0  0
  8 14  1  0  0  0  0
  8 15  1  0  0  0  0
  8 18  2  0  0  0  0
  9 11  1  0  0  0  0
  9 13  1  0  0  0  0
 10 12  1  0  0  0  0
 10 13  1  0  0  0  0
 11 15  1  0  0  0  0
 12 15  1  0  0  0  0
 14 20  1  0  0  0  0
 16 21  1  0  0  0  0
 19 22  1  0  0  0  0
M  END
> <ref_mols>
x1432_0

> <original SMILES>
Oc1ccccc1NC(=O)C2CCN(CC2)C(=O)CCl

> <Chemgauss4>
-7.899599

> <ref_pdb>
x0749_0

$$$$
x1408
  -OEChem-05172015543D

 22 23  0     0  0  0  0  0  0999 V2000
   12.6229   -0.8818   24.8480 C   0  0  0  0  0  0  0  0  0  0  0  0
   13.8168   -1.1998   25.4955 C   0  0  0  0  0  0  0  0  0  0  0  0
   11.6636   -1.8704   24.6289 C   0  0  0  0  0  0  0  0  0  0  0  0
   14.0514   -2.5064   25.9237 C   0  0  0  0  0  0  0  0  0  0  0  0
   11.8982   -3.1770   25.0572 C   0  0  0  0  0  0  0  0  0  0  0  0
   13.0921   -3.4950   25.7046 C   0  0  0  0  0  0  0  0  0  0  0  0
    9.6863   -4.0116   24.1996 C   0  0  0  0  0  0  0  0  0  0  0  0
    5.0968   -5.4151   22.4601 C   0  0  0  0  0  0  0  0  0  0  0  0
    7.6293   -5.1935   24.9499 C   0  0  0  0  0  0  0  0  0  0  0  0
    8.6885   -5.7549   22.7080 C   0  0  0  0  0  0  0  0  0  0  0  0
    6.5490   -4.4186   24.1975 C   0  0  0  0  0  0  0  0  0  0  0  0
    7.5633   -4.9774   22.0237 C   0  0  0  0  0  0  0  0  0  0  0  0
    8.9328   -5.3089   24.1532 C   0  0  0  0  0  0  0  0  0  0  0  0
    4.2003   -5.9560   23.5452 C   0  0  0  0  0  0  0  0  0  0  0  0
    6.3565   -4.9675   22.8559 N   0  0  0  0  0  0  0  0  0  0  0  0
   10.9156   -4.1690   24.8270 N   0  0  0  0  0  0  0  0  0  0  0  0
    9.2076   -2.9896   23.7185 O   0  0  0  0  0  0  0  0  0  0  0  0
    4.6871   -5.3901   21.2966 O   0  0  0  0  0  0  0  0  0  0  0  0
   13.3413   -4.7656   26.1308 O   0  0  0  0  0  0  0  0  0  0  0  0
    3.2991   -4.5857   24.1838 Cl  0  0  0  0  0  0  0  0  0  0  0  0
   11.1493   -5.1006   25.1641 H   0  0  0  0  0  0  0  0  0  0  0  0
   14.2111   -4.8106   26.5572 H   0  0  0  0  0  0  0  0  0  0  0  0
  1  2  1  0  0  0  0
  1  3  2  0  0  0  0
  2  4  2  0  0  0  0
  3  5  1  0  0  0  0
  4  6  1  0  0  0  0
  5  6  2  0  0  0  0
  5 16  1  0  0  0  0
  6 19  1  0  0  0  0
  7 13  1  0  0  0  0
  7 16  1  0  0  0  0
  7 17  2  0  0  0  0
  8 14  1  0  0  0  0
  8 15  1  0  0  0  0
  8 18  2  0  0  0  0
  9 11  1  0  0  0  0
  9 13  1  0  0  0  0
 10 12  1  0  0  0  0
 10 13  1  0  0  0  0
 11 15  1  0  0  0  0
 12 15  1  0  0  0  0
 14 20  1  0  0  0  0
 16 21  1  0  0  0  0
 19 22  1  0  0  0  0
M  END
> <ref_mols>
x1408_0

> <original SMILES>
Oc1ccccc1NC(=O)C2CCN(CC2)C(=O)CCl

> <Chemgauss4>
-7.899599

> <ref_pdb>
x0749_0

$$$$
x0737
  -OEChem-05172015543D

 22 23  0     0  0  0  0  0  0999 V2000
   12.6229   -0.8818   24.8480 C   0  0  0  0  0  0  0  0  0  0  0  0
   13.8168   -1.1998   25.4955 C   0  0  0  0  0  0  0  0  0  0  0  0
   11.6636   -1.8704   24.6289 C   0  0  0  0  0  0  0  0  0  0  0  0
   14.0514   -2.5064   25.9237 C   0  0  0  0  0  0  0  0  0  0  0  0
   11.8982   -3.1770   25.0572 C   0  0  0  0  0  0  0  0  0  0  0  0
   13.0921   -3.4950   25.7046 C   0  0  0  0  0  0  0  0  0  0  0  0
    9.6863   -4.0116   24.1996 C   0  0  0  0  0  0  0  0  0  0  0  0
    5.0968   -5.4151   22.4601 C   0  0  0  0  0  0  0  0  0  0  0  0
    7.6293   -5.1935   24.9499 C   0  0  0  0  0  0  0  0  0  0  0  0
    8.6885   -5.7549   22.7080 C   0  0  0  0  0  0  0  0  0  0  0  0
    6.5490   -4.4186   24.1975 C   0  0  0  0  0  0  0  0  0  0  0  0
    7.5633   -4.9774   22.0237 C   0  0  0  0  0  0  0  0  0  0  0  0
    8.9328   -5.3089   24.1532 C   0  0  0  0  0  0  0  0  0  0  0  0
    4.2003   -5.9560   23.5452 C   0  0  0  0  0  0  0  0  0  0  0  0
    6.3565   -4.9675   22.8559 N   0  0  0  0  0  0  0  0  0  0  0  0
   10.9156   -4.1690   24.8270 N   0  0  0  0  0  0  0  0  0  0  0  0
    9.2076   -2.9896   23.7185 O   0  0  0  0  0  0  0  0  0  0  0  0
    4.6871   -5.3901   21.2966 O   0  0  0  0  0  0  0  0  0  0  0  0
   13.3413   -4.7656   26.1308 O   0  0  0  0  0  0  0  0  0  0  0  0
    3.2991   -4.5857   24.1838 Cl  0  0  0  0  0  0  0  0  0  0  0  0
   11.1493   -5.1006   25.1641 H   0  0  0  0  0  0  0  0  0  0  0  0
   14.2111   -4.8106   26.5572 H   0  0  0  0  0  0  0  0  0  0  0  0
  1  2  1  0  0  0  0
  1  3  2  0  0  0  0
  2  4  2  0  0  0  0
  3  5  1  0  0  0  0
  4  6  1  0  0  0  0
  5  6  2  0  0  0  0
  5 16  1  0  0  0  0
  6 19  1  0  0  0  0
  7 13  1  0  0  0  0
  7 16  1  0  0  0  0
  7 17  2  0  0  0  0
  8 14  1  0  0  0  0
  8 15  1  0  0  0  0
  8 18  2  0  0  0  0
  9 11  1  0  0  0  0
  9 13  1  0  0  0  0
 10 12  1  0  0  0  0
 10 13  1  0  0  0  0
 11 15  1  0  0  0  0
 12 15  1  0  0  0  0
 14 20  1  0  0  0  0
 16 21  1  0  0  0  0
 19 22  1  0  0  0  0
M  END
> <ref_mols>
x0737_0

> <original SMILES>
Oc1ccccc1NC(=O)C2CCN(CC2)C(=O)CCl

> <Chemgauss4>
-7.899599

> <ref_pdb>
x0749_0

> <CYS145-warhead dist minimum (A)>
12.713481

> <CYS145-warhead dist mean (A)>
21.05126

> <CYS145-warhead dist stddev (A)>
5.352596

$$$$
x1319
  -OEChem-05172015543D

 22 23  0     0  0  0  0  0  0999 V2000
   12.6229   -0.8818   24.8480 C   0  0  0  0  0  0  0  0  0  0  0  0
   13.8168   -1.1998   25.4955 C   0  0  0  0  0  0  0  0  0  0  0  0
   11.6636   -1.8704   24.6289 C   0  0  0  0  0  0  0  0  0  0  0  0
   14.0514   -2.5064   25.9237 C   0  0  0  0  0  0  0  0  0  0  0  0
   11.8982   -3.1770   25.0572 C   0  0  0  0  0  0  0  0  0  0  0  0
   13.0921   -3.4950   25.7046 C   0  0  0  0  0  0  0  0  0  0  0  0
    9.6863   -4.0116   24.1996 C   0  0  0  0  0  0  0  0  0  0  0  0
    5.0968   -5.4151   22.4601 C   0  0  0  0  0  0  0  0  0  0  0  0
    7.6293   -5.1935   24.9499 C   0  0  0  0  0  0  0  0  0  0  0  0
    8.6885   -5.7549   22.7080 C   0  0  0  0  0  0  0  0  0  0  0  0
    6.5490   -4.4186   24.1975 C   0  0  0  0  0  0  0  0  0  0  0  0
    7.5633   -4.9774   22.0237 C   0  0  0  0  0  0  0  0  0  0  0  0
    8.9328   -5.3089   24.1532 C   0  0  0  0  0  0  0  0  0  0  0  0
    4.2003   -5.9560   23.5452 C   0  0  0  0  0  0  0  0  0  0  0  0
    6.3565   -4.9675   22.8559 N   0  0  0  0  0  0  0  0  0  0  0  0
   10.9156   -4.1690   24.8270 N   0  0  0  0  0  0  0  0  0  0  0  0
    9.2076   -2.9896   23.7185 O   0  0  0  0  0  0  0  0  0  0  0  0
    4.6871   -5.3901   21.2966 O   0  0  0  0  0  0  0  0  0  0  0  0
   13.3413   -4.7656   26.1308 O   0  0  0  0  0  0  0  0  0  0  0  0
    3.2991   -4.5857   24.1838 Cl  0  0  0  0  0  0  0  0  0  0  0  0
   11.1493   -5.1006   25.1641 H   0  0  0  0  0  0  0  0  0  0  0  0
   14.2111   -4.8106   26.5572 H   0  0  0  0  0  0  0  0  0  0  0  0
  1  2  1  0  0  0  0
  1  3  2  0  0  0  0
  2  4  2  0  0  0  0
  3  5  1  0  0  0  0
  4  6  1  0  0  0  0
  5  6  2  0  0  0  0
  5 16  1  0  0  0  0
  6 19  1  0  0  0  0
  7 13  1  0  0  0  0
  7 16  1  0  0  0  0
  7 17  2  0  0  0  0
  8 14  1  0  0  0  0
  8 15  1  0  0  0  0
  8 18  2  0  0  0  0
  9 11  1  0  0  0  0
  9 13  1  0  0  0  0
 10 12  1  0  0  0  0
 10 13  1  0  0  0  0
 11 15  1  0  0  0  0
 12 15  1  0  0  0  0
 14 20  1  0  0  0  0
 16 21  1  0  0  0  0
 19 22  1  0  0  0  0
M  END
> <ref_mols>
x1319_0

> <original SMILES>
Oc1ccccc1NC(=O)C2CCN(CC2)C(=O)CCl

> <Chemgauss4>
-7.899599

> <ref_pdb>
x0749_0

$$$$
x0811
  -OEChem-05172015543D

 22 23  0     0  0  0  0  0  0999 V2000
   12.6229   -0.8818   24.8480 C   0  0  0  0  0  0  0  0  0  0  0  0
   13.8168   -1.1998   25.4955 C   0  0  0  0  0  0  0  0  0  0  0  0
   11.6636   -1.8704   24.6289 C   0  0  0  0  0  0  0  0  0  0  0  0
   14.0514   -2.5064   25.9237 C   0  0  0  0  0  0  0  0  0  0  0  0
   11.8982   -3.1770   25.0572 C   0  0  0  0  0  0  0  0  0  0  0  0
   13.0921   -3.4950   25.7046 C   0  0  0  0  0  0  0  0  0  0  0  0
    9.6863   -4.0116   24.1996 C   0  0  0  0  0  0  0  0  0  0  0  0
    5.0968   -5.4151   22.4601 C   0  0  0  0  0  0  0  0  0  0  0  0
    7.6293   -5.1935   24.9499 C   0  0  0  0  0  0  0  0  0  0  0  0
    8.6885   -5.7549   22.7080 C   0  0  0  0  0  0  0  0  0  0  0  0
    6.5490   -4.4186   24.1975 C   0  0  0  0  0  0  0  0  0  0  0  0
    7.5633   -4.9774   22.0237 C   0  0  0  0  0  0  0  0  0  0  0  0
    8.9328   -5.3089   24.1532 C   0  0  0  0  0  0  0  0  0  0  0  0
    4.2003   -5.9560   23.5452 C   0  0  0  0  0  0  0  0  0  0  0  0
    6.3565   -4.9675   22.8559 N   0  0  0  0  0  0  0  0  0  0  0  0
   10.9156   -4.1690   24.8270 N   0  0  0  0  0  0  0  0  0  0  0  0
    9.2076   -2.9896   23.7185 O   0  0  0  0  0  0  0  0  0  0  0  0
    4.6871   -5.3901   21.2966 O   0  0  0  0  0  0  0  0  0  0  0  0
   13.3413   -4.7656   26.1308 O   0  0  0  0  0  0  0  0  0  0  0  0
    3.2991   -4.5857   24.1838 Cl  0  0  0  0  0  0  0  0  0  0  0  0
   11.1493   -5.1006   25.1641 H   0  0  0  0  0  0  0  0  0  0  0  0
   14.2111   -4.8106   26.5572 H   0  0  0  0  0  0  0  0  0  0  0  0
  1  2  1  0  0  0  0
  1  3  2  0  0  0  0
  2  4  2  0  0  0  0
  3  5  1  0  0  0  0
  4  6  1  0  0  0  0
  5  6  2  0  0  0  0
  5 16  1  0  0  0  0
  6 19  1  0  0  0  0
  7 13  1  0  0  0  0
  7 16  1  0  0  0  0
  7 17  2  0  0  0  0
  8 14  1  0  0  0  0
  8 15  1  0  0  0  0
  8 18  2  0  0  0  0
  9 11  1  0  0  0  0
  9 13  1  0  0  0  0
 10 12  1  0  0  0  0
 10 13  1  0  0  0  0
 11 15  1  0  0  0  0
 12 15  1  0  0  0  0
 14 20  1  0  0  0  0
 16 21  1  0  0  0  0
 19 22  1  0  0  0  0
M  END
> <ref_mols>
x0811_0

> <original SMILES>
Oc1ccccc1NC(=O)C2CCN(CC2)C(=O)CCl

> <Chemgauss4>
-7.899599

> <ref_pdb>
x0749_0

$$$$
x2564
  -OEChem-05172015543D

 25 26  0     1  0  0  0  0  0999 V2000
   13.6933   -1.5380   21.9977 C   0  0  0  0  0  0  0  0  0  0  0  0
   12.6420   -1.8536   22.8583 C   0  0  0  0  0  0  0  0  0  0  0  0
   14.0945   -0.2109   21.8440 C   0  0  0  0  0  0  0  0  0  0  0  0
   11.9917   -0.8421   23.5652 C   0  0  0  0  0  0  0  0  0  0  0  0
   11.0652    6.0208   22.9680 C   0  0  0  0  0  0  0  0  0  0  0  0
   12.5367    5.7632   24.5815 C   0  0  0  0  0  0  0  0  0  0  0  0
   13.4442    0.8006   22.5509 C   0  0  0  0  0  0  0  0  0  0  0  0
   12.3020    5.4210   23.2722 C   0  0  0  0  0  0  0  0  0  0  0  0
   12.3927    0.4850   23.4114 C   0  0  0  0  0  0  0  0  0  0  0  0
   13.8787    2.1794   22.3757 C   0  0  0  0  0  0  0  0  0  0  0  0
    9.6457    2.5528   24.4938 C   0  0  0  0  0  0  0  0  0  0  0  0
   13.0493    4.9878   20.8961 C   0  0  0  0  0  0  0  0  0  0  0  0
   11.2618    7.1091   26.2672 C   0  0  0  0  0  0  0  0  0  0  0  0
   10.3731    1.2311   24.4215 C   0  0  0  0  0  0  0  0  0  0  0  0
   13.1768    4.5844   22.3636 C   0  0  2  0  0  0  0  0  0  0  0  0
   10.5501    6.6928   24.0010 N   0  0  0  0  0  0  0  0  0  0  0  0
   11.4678    6.5174   24.9671 N   0  0  0  0  0  0  0  0  0  0  0  0
    9.6551    3.0881   25.7633 N   0  0  0  0  0  0  0  0  0  0  0  0
   12.9072    3.1742   22.5288 N   0  0  0  0  0  0  0  0  0  0  0  0
   15.0593    2.4349   22.0832 O   0  0  0  0  0  0  0  0  0  0  0  0
    9.1072    3.0864   23.5283 O   0  0  0  0  0  0  0  0  0  0  0  0
   11.7462    1.4591   24.1122 O   0  0  0  0  0  0  0  0  0  0  0  0
   10.1147    2.6070   26.5294 H   0  0  0  0  0  0  0  0  0  0  0  0
    9.2101    3.9739   25.9821 H   0  0  0  0  0  0  0  0  0  0  0  0
   11.9446    2.9059   22.7055 H   0  0  0  0  0  0  0  0  0  0  0  0
  1  2  1  0  0  0  0
  1  3  2  0  0  0  0
  2  4  2  0  0  0  0
  3  7  1  0  0  0  0
  4  9  1  0  0  0  0
  5  8  1  0  0  0  0
  5 16  2  0  0  0  0
  6  8  2  0  0  0  0
  6 17  1  0  0  0  0
  7  9  2  0  0  0  0
  7 10  1  0  0  0  0
  8 15  1  0  0  0  0
  9 22  1  0  0  0  0
 10 19  1  0  0  0  0
 10 20  2  0  0  0  0
 11 14  1  0  0  0  0
 11 18  1  0  0  0  0
 11 21  2  0  0  0  0
 12 15  1  0  0  0  0
 13 17  1  0  0  0  0
 14 22  1  0  0  0  0
 15 19  1  0  0  0  0
 16 17  1  0  0  0  0
 18 23  1  0  0  0  0
 18 24  1  0  0  0  0
 19 25  1  0  0  0  0
M  END
> <ref_mols>
x2564_0

> <original SMILES>
CC(NC(=O)C=1C=CC=CC1OCC(=O)N)C=2C=NN(C)C2

> <Chemgauss4>
-7.899331

> <ref_pdb>
x0195_0

$$$$
x0618
  -OEChem-05172015543D

 16 16  0     1  0  0  0  0  0999 V2000
    9.7083    0.3639   22.4718 C   0  0  0  0  0  0  0  0  0  0  0  0
    5.1540    0.9229   19.1573 C   0  0  0  0  0  0  0  0  0  0  0  0
    5.5745   -0.2985   19.9748 C   0  0  0  0  0  0  0  0  0  0  0  0
    5.7469    0.8944   17.7579 C   0  0  0  0  0  0  0  0  0  0  0  0
    7.6641   -0.4948   18.5729 C   0  0  0  0  0  0  0  0  0  0  0  0
    7.0969   -0.5066   19.9942 C   0  0  1  0  0  0  0  0  0  0  0  0
   11.9969    0.6268   23.4554 C   0  0  0  0  0  0  0  0  0  0  0  0
   10.9823   -1.6595   23.2641 C   0  0  0  0  0  0  0  0  0  0  0  0
    7.7937    0.5187   20.8943 C   0  0  0  0  0  0  0  0  0  0  0  0
   11.0868   -0.2764   22.6256 C   0  0  0  0  0  0  0  0  0  0  0  0
    9.0824    0.0386   21.2644 N   0  0  0  0  0  0  0  0  0  0  0  0
    7.2286    0.7380   17.8495 N   0  3  0  0  0  0  0  0  0  0  0  0
    9.2131    1.0918   23.3296 O   0  0  0  0  0  0  0  0  0  0  0  0
    9.5772   -0.5779   20.6114 H   0  0  0  0  0  0  0  0  0  0  0  0
    7.6340    0.7407   16.9031 H   0  0  0  0  0  0  0  0  0  0  0  0
    7.6249    1.5619   18.3222 H   0  0  0  0  0  0  0  0  0  0  0  0
  1 10  1  0  0  0  0
  1 11  1  0  0  0  0
  1 13  2  0  0  0  0
  2  3  1  0  0  0  0
  2  4  1  0  0  0  0
  3  6  1  0  0  0  0
  4 12  1  0  0  0  0
  5  6  1  0  0  0  0
  5 12  1  0  0  0  0
  6  9  1  0  0  0  0
  7 10  1  0  0  0  0
  8 10  1  0  0  0  0
  9 11  1  0  0  0  0
 11 14  1  0  0  0  0
 12 15  1  0  0  0  0
 12 16  1  0  0  0  0
M  CHG  1  12   1
M  END
> <ref_mols>
x0618_0

> <original SMILES>
CC(C)C(=O)NCC1CCCNC1

> <Chemgauss4>
-7.894549

> <ref_pdb>
x1093_0

$$$$
x0672
  -OEChem-05172015543D

 15 16  0     1  0  0  0  0  0999 V2000
   11.4437   -1.5293   23.3196 C   0  0  0  0  0  0  0  0  0  0  0  0
   10.5132   -2.5683   23.3049 C   0  0  0  0  0  0  0  0  0  0  0  0
   12.3910   -1.4559   24.3409 C   0  0  0  0  0  0  0  0  0  0  0  0
   11.4770   -3.4602   25.3329 C   0  0  0  0  0  0  0  0  0  0  0  0
   10.5298   -3.5337   24.3116 C   0  0  0  0  0  0  0  0  0  0  0  0
   12.4076   -2.4213   25.3475 C   0  0  0  0  0  0  0  0  0  0  0  0
    6.3963   -5.4881   24.5601 C   0  0  0  0  0  0  0  0  0  0  0  0
    7.1263   -4.1534   24.6647 C   0  0  0  0  0  0  0  0  0  0  0  0
    6.2276   -5.7684   23.0760 C   0  0  0  0  0  0  0  0  0  0  0  0
    9.5276   -4.6516   24.2946 C   0  0  0  0  0  0  0  0  0  0  0  0
    8.2444   -4.2383   23.6708 N   0  0  1  0  0  0  0  0  0  0  0  0
    7.3202   -4.2602   21.2293 O   0  0  0  0  0  0  0  0  0  0  0  0
    8.6103   -6.2838   22.0499 O   0  0  0  0  0  0  0  0  0  0  0  0
   13.3169   -2.3507   26.3285 F   0  0  0  0  0  0  0  0  0  0  0  0
    7.7155   -5.1699   22.2860 S   0  0  0  0  0  0  0  0  0  0  0  0
  1  2  1  0  0  0  0
  1  3  2  0  0  0  0
  2  5  2  0  0  0  0
  3  6  1  0  0  0  0
  4  5  1  0  0  0  0
  4  6  2  0  0  0  0
  5 10  1  0  0  0  0
  6 14  1  0  0  0  0
  7  8  1  0  0  0  0
  7  9  1  0  0  0  0
  8 11  1  0  0  0  0
  9 15  1  0  0  0  0
 10 11  1  0  0  0  0
 11 15  1  0  0  0  0
 12 15  2  0  0  0  0
 13 15  2  0  0  0  0
M  END
> <ref_mols>
x0672_0

> <original SMILES>
FC=1C=CC=C(CN2CCCS2(=O)=O)C1

> <Chemgauss4>
-7.894145

> <ref_pdb>
x0749_0

$$$$
x0455
  -OEChem-05172015543D

 18 19  0     0  0  0  0  0  0999 V2000
    6.1748   -4.3361   21.6286 C   0  0  0  0  0  0  0  0  0  0  0  0
    6.7878   -5.8371   23.4198 C   0  0  0  0  0  0  0  0  0  0  0  0
    7.4325   -3.7373   21.7000 C   0  0  0  0  0  0  0  0  0  0  0  0
    8.0455   -5.2383   23.4912 C   0  0  0  0  0  0  0  0  0  0  0  0
    5.8524   -5.3860   22.4885 C   0  0  0  0  0  0  0  0  0  0  0  0
    8.3679   -4.1884   22.6312 C   0  0  0  0  0  0  0  0  0  0  0  0
   10.5064   -2.1603   24.3764 C   0  0  0  0  0  0  0  0  0  0  0  0
   14.3692   -1.2554   25.7836 C   0  0  0  0  0  0  0  0  0  0  0  0
   13.3834   -0.2132   25.2579 C   0  0  0  0  0  0  0  0  0  0  0  0
   13.9790   -2.6585   25.3212 C   0  0  0  0  0  0  0  0  0  0  0  0
   11.9470   -0.5796   25.6208 C   0  0  0  0  0  0  0  0  0  0  0  0
   12.5302   -2.9792   25.6819 C   0  0  0  0  0  0  0  0  0  0  0  0
    3.4897   -5.3514   23.3270 C   0  0  0  0  0  0  0  0  0  0  0  0
    4.5080   -6.0268   22.4119 C   0  0  0  0  0  0  0  0  0  0  0  0
   10.2454   -3.5862   23.9610 C   0  0  0  0  0  0  0  0  0  0  0  0
   11.6254   -1.9381   25.1783 N   0  0  0  0  0  0  0  0  0  0  0  0
    9.7391   -1.2719   23.9969 O   0  0  0  0  0  0  0  0  0  0  0  0
    9.6077   -3.5990   22.7005 O   0  0  0  0  0  0  0  0  0  0  0  0
  1  3  2  0  0  0  0
  1  5  1  0  0  0  0
  2  4  1  0  0  0  0
  2  5  2  0  0  0  0
  3  6  1  0  0  0  0
  4  6  2  0  0  0  0
  5 14  1  0  0  0  0
  6 18  1  0  0  0  0
  7 15  1  0  0  0  0
  7 16  1  0  0  0  0
  7 17  2  0  0  0  0
  8  9  1  0  0  0  0
  8 10  1  0  0  0  0
  9 11  1  0  0  0  0
 10 12  1  0  0  0  0
 11 16  1  0  0  0  0
 12 16  1  0  0  0  0
 13 14  1  0  0  0  0
 15 18  1  0  0  0  0
M  END
> <ref_mols>
x0455_0

> <original SMILES>
CCC=1C=CC(OCC(=O)N2CCCCC2)=CC1

> <Chemgauss4>
-7.894075

> <ref_pdb>
x0749_0

$$$$
x1270
  -OEChem-05172015543D

 18 19  0     0  0  0  0  0  0999 V2000
    6.1748   -4.3361   21.6286 C   0  0  0  0  0  0  0  0  0  0  0  0
    6.7878   -5.8371   23.4198 C   0  0  0  0  0  0  0  0  0  0  0  0
    7.4325   -3.7373   21.7000 C   0  0  0  0  0  0  0  0  0  0  0  0
    8.0455   -5.2383   23.4912 C   0  0  0  0  0  0  0  0  0  0  0  0
    5.8524   -5.3860   22.4885 C   0  0  0  0  0  0  0  0  0  0  0  0
    8.3679   -4.1884   22.6312 C   0  0  0  0  0  0  0  0  0  0  0  0
   10.5064   -2.1603   24.3764 C   0  0  0  0  0  0  0  0  0  0  0  0
   14.3692   -1.2554   25.7836 C   0  0  0  0  0  0  0  0  0  0  0  0
   13.3834   -0.2132   25.2579 C   0  0  0  0  0  0  0  0  0  0  0  0
   13.9790   -2.6585   25.3212 C   0  0  0  0  0  0  0  0  0  0  0  0
   11.9470   -0.5796   25.6208 C   0  0  0  0  0  0  0  0  0  0  0  0
   12.5302   -2.9792   25.6819 C   0  0  0  0  0  0  0  0  0  0  0  0
    3.4897   -5.3514   23.3270 C   0  0  0  0  0  0  0  0  0  0  0  0
    4.5080   -6.0268   22.4119 C   0  0  0  0  0  0  0  0  0  0  0  0
   10.2454   -3.5862   23.9610 C   0  0  0  0  0  0  0  0  0  0  0  0
   11.6254   -1.9381   25.1783 N   0  0  0  0  0  0  0  0  0  0  0  0
    9.7391   -1.2719   23.9969 O   0  0  0  0  0  0  0  0  0  0  0  0
    9.6077   -3.5990   22.7005 O   0  0  0  0  0  0  0  0  0  0  0  0
  1  3  2  0  0  0  0
  1  5  1  0  0  0  0
  2  4  1  0  0  0  0
  2  5  2  0  0  0  0
  3  6  1  0  0  0  0
  4  6  2  0  0  0  0
  5 14  1  0  0  0  0
  6 18  1  0  0  0  0
  7 15  1  0  0  0  0
  7 16  1  0  0  0  0
  7 17  2  0  0  0  0
  8  9  1  0  0  0  0
  8 10  1  0  0  0  0
  9 11  1  0  0  0  0
 10 12  1  0  0  0  0
 11 16  1  0  0  0  0
 12 16  1  0  0  0  0
 13 14  1  0  0  0  0
 15 18  1  0  0  0  0
M  END
> <ref_mols>
x1270_0

> <original SMILES>
CCC=1C=CC(OCC(=O)N2CCCCC2)=CC1

> <Chemgauss4>
-7.894075

> <ref_pdb>
x0749_0

$$$$
x1212
  -OEChem-05172015543D

 18 19  0     1  0  0  0  0  0999 V2000
   10.3646   -0.4657   23.6008 C   0  0  0  0  0  0  0  0  0  0  0  0
   11.5123   -0.2536   24.3684 C   0  0  0  0  0  0  0  0  0  0  0  0
   11.6147   -1.8507   22.0365 C   0  0  0  0  0  0  0  0  0  0  0  0
   10.4154   -1.2597   22.4416 C   0  0  0  0  0  0  0  0  0  0  0  0
   12.6836   -0.8485   23.9466 C   0  0  0  0  0  0  0  0  0  0  0  0
   12.7334   -1.6257   22.8120 C   0  0  0  0  0  0  0  0  0  0  0  0
   14.7105   -1.5607   23.6888 C   0  0  0  0  0  0  0  0  0  0  0  0
    6.7660    0.6140   21.1889 C   0  0  0  0  0  0  0  0  0  0  0  0
    9.1766   -1.4712   21.6369 C   0  0  0  0  0  0  0  0  0  0  0  0
    7.9538   -0.9270   19.5280 C   0  0  0  0  0  0  0  0  0  0  0  0
    6.6729   -0.6158   20.2951 C   0  0  1  0  0  0  0  0  0  0  0  0
    9.1537   -0.6871   20.3717 N   0  3  0  0  0  0  0  0  0  0  0  0
   13.8933   -0.7556   24.5630 O   0  0  0  0  0  0  0  0  0  0  0  0
   13.9806   -2.1165   22.5758 O   0  0  0  0  0  0  0  0  0  0  0  0
    6.3171   -1.7507   21.0810 O   0  0  0  0  0  0  0  0  0  0  0  0
    9.2139    0.3148   20.5969 H   0  0  0  0  0  0  0  0  0  0  0  0
    9.9991   -0.9043   19.8273 H   0  0  0  0  0  0  0  0  0  0  0  0
    5.4580   -1.5495   21.4829 H   0  0  0  0  0  0  0  0  0  0  0  0
  1  2  2  0  0  0  0
  1  4  1  0  0  0  0
  2  5  1  0  0  0  0
  3  4  2  0  0  0  0
  3  6  1  0  0  0  0
  4  9  1  0  0  0  0
  5  6  2  0  0  0  0
  5 13  1  0  0  0  0
  6 14  1  0  0  0  0
  7 13  1  0  0  0  0
  7 14  1  0  0  0  0
  8 11  1  0  0  0  0
  9 12  1  0  0  0  0
 10 11  1  0  0  0  0
 10 12  1  0  0  0  0
 11 15  1  0  0  0  0
 12 16  1  0  0  0  0
 12 17  1  0  0  0  0
 15 18  1  0  0  0  0
M  CHG  1  12   1
M  END
> <ref_mols>
x1212_0

> <original SMILES>
C[C@H](O)CNCC=1C=CC=2OCOC2C1

> <Chemgauss4>
-7.891804

> <ref_pdb>
x0678_0

$$$$
x0160
  -OEChem-05172015543D

 14 14  0     0  0  0  0  0  0999 V2000
   10.9260   -2.3811   24.0457 C   0  0  0  0  0  0  0  0  0  0  0  0
    7.5454   -3.3962   23.1529 C   0  0  0  0  0  0  0  0  0  0  0  0
    8.7801   -5.2458   24.3388 C   0  0  0  0  0  0  0  0  0  0  0  0
    8.8808   -2.8783   22.6192 C   0  0  0  0  0  0  0  0  0  0  0  0
   10.0903   -4.6936   23.7808 C   0  0  0  0  0  0  0  0  0  0  0  0
    7.5696   -4.9029   23.4560 C   0  0  0  0  0  0  0  0  0  0  0  0
    7.5453   -5.7404   22.1751 C   0  0  0  0  0  0  0  0  0  0  0  0
   11.9810   -2.9840   24.9387 C   0  0  0  0  0  0  0  0  0  0  0  0
   12.8980   -1.9126   25.4573 C   0  0  0  0  0  0  0  0  0  0  0  0
    9.9836   -3.2589   23.5099 N   0  0  0  0  0  0  0  0  0  0  0  0
   10.9420   -1.1664   23.8302 O   0  0  0  0  0  0  0  0  0  0  0  0
   13.5066   -1.2463   24.4533 F   0  0  0  0  0  0  0  0  0  0  0  0
   13.8537   -2.4184   26.2656 F   0  0  0  0  0  0  0  0  0  0  0  0
   12.1907   -1.0119   26.1755 F   0  0  0  0  0  0  0  0  0  0  0  0
  1  8  1  0  0  0  0
  1 10  1  0  0  0  0
  1 11  2  0  0  0  0
  2  4  1  0  0  0  0
  2  6  1  0  0  0  0
  3  5  1  0  0  0  0
  3  6  1  0  0  0  0
  4 10  1  0  0  0  0
  5 10  1  0  0  0  0
  6  7  1  0  0  0  0
  8  9  1  0  0  0  0
  9 12  1  0  0  0  0
  9 13  1  0  0  0  0
  9 14  1  0  0  0  0
M  END
> <ref_mols>
x0160_0

> <original SMILES>
CC1CCN(CC1)C(=O)CC(F)(F)F

> <Chemgauss4>
-7.891396

> <ref_pdb>
x0749_0

$$$$
x2675
  -OEChem-05172015543D

 24 26  0     0  0  0  0  0  0999 V2000
   14.2462    0.6296   23.4981 C   0  0  0  0  0  0  0  0  0  0  0  0
    7.5433   -2.2769   20.9262 C   0  0  0  0  0  0  0  0  0  0  0  0
   14.1944   -1.6952   24.2763 C   0  0  0  0  0  0  0  0  0  0  0  0
    8.2811   -3.0964   21.7785 C   0  0  0  0  0  0  0  0  0  0  0  0
   13.5340   -2.7242   24.9384 C   0  0  0  0  0  0  0  0  0  0  0  0
    6.2516   -2.6567   20.5872 C   0  0  0  0  0  0  0  0  0  0  0  0
   12.3415   -0.2780   24.7398 C   0  0  0  0  0  0  0  0  0  0  0  0
    6.9827   -6.2117   23.1747 C   0  0  0  0  0  0  0  0  0  0  0  0
   13.5936   -0.4457   24.1707 C   0  0  0  0  0  0  0  0  0  0  0  0
    7.6712   -4.2701   22.2502 C   0  0  0  0  0  0  0  0  0  0  0  0
    8.0494   -5.3420   23.1012 C   0  0  0  0  0  0  0  0  0  0  0  0
   12.2847   -2.4544   25.4733 C   0  0  0  0  0  0  0  0  0  0  0  0
    6.3698   -4.5289   21.8299 C   0  0  0  0  0  0  0  0  0  0  0  0
    9.7154   -4.3533   24.7212 C   0  0  0  0  0  0  0  0  0  0  0  0
    9.3468   -5.5056   23.7871 C   0  0  0  0  0  0  0  0  0  0  0  0
   11.5428   -3.5419   26.1951 C   0  0  0  0  0  0  0  0  0  0  0  0
   14.7772    1.5044   22.9509 N   0  0  0  0  0  0  0  0  0  0  0  0
   11.6692   -1.2536   25.3907 N   0  0  0  0  0  0  0  0  0  0  0  0
    5.6147   -3.7733   21.0103 N   0  0  0  0  0  0  0  0  0  0  0  0
    5.9699   -5.7090   22.3997 N   0  0  0  0  0  0  0  0  0  0  0  0
   10.9752   -4.5066   25.2824 N   0  0  0  0  0  0  0  0  0  0  0  0
    8.9613   -3.4066   24.9309 O   0  0  0  0  0  0  0  0  0  0  0  0
    5.0668   -6.1425   22.2672 H   0  0  0  0  0  0  0  0  0  0  0  0
   11.5197   -5.3297   25.0418 H   0  0  0  0  0  0  0  0  0  0  0  0
  1  9  1  0  0  0  0
  1 17  3  0  0  0  0
  2  4  2  0  0  0  0
  2  6  1  0  0  0  0
  3  5  2  0  0  0  0
  3  9  1  0  0  0  0
  4 10  1  0  0  0  0
  5 12  1  0  0  0  0
  6 19  2  0  0  0  0
  7  9  2  0  0  0  0
  7 18  1  0  0  0  0
  8 11  2  0  0  0  0
  8 20  1  0  0  0  0
 10 11  1  0  0  0  0
 10 13  2  0  0  0  0
 11 15  1  0  0  0  0
 12 16  1  0  0  0  0
 12 18  2  0  0  0  0
 13 19  1  0  0  0  0
 13 20  1  0  0  0  0
 14 15  1  0  0  0  0
 14 21  1  0  0  0  0
 14 22  2  0  0  0  0
 16 21  1  0  0  0  0
 20 23  1  0  0  0  0
 21 24  1  0  0  0  0
M  END
> <ref_mols>
x2675_0

> <original SMILES>
O=C(CC1=CNC=2N=CC=CC12)NCC=3C=CC(C#N)=CN3

> <Chemgauss4>
-7.890812

> <ref_pdb>
x0749_0

> <CYS145-warhead dist minimum (A)>
6.8492074

> <CYS145-warhead dist mean (A)>
7.81124

> <CYS145-warhead dist stddev (A)>
0.33376977

$$$$
x2507
  -OEChem-05172015543D

 24 26  0     0  0  0  0  0  0999 V2000
   14.2462    0.6296   23.4981 C   0  0  0  0  0  0  0  0  0  0  0  0
    7.5433   -2.2769   20.9262 C   0  0  0  0  0  0  0  0  0  0  0  0
   14.1944   -1.6952   24.2763 C   0  0  0  0  0  0  0  0  0  0  0  0
    8.2811   -3.0964   21.7785 C   0  0  0  0  0  0  0  0  0  0  0  0
   13.5340   -2.7242   24.9384 C   0  0  0  0  0  0  0  0  0  0  0  0
    6.2516   -2.6567   20.5872 C   0  0  0  0  0  0  0  0  0  0  0  0
   12.3415   -0.2780   24.7398 C   0  0  0  0  0  0  0  0  0  0  0  0
    6.9827   -6.2117   23.1747 C   0  0  0  0  0  0  0  0  0  0  0  0
   13.5936   -0.4457   24.1707 C   0  0  0  0  0  0  0  0  0  0  0  0
    7.6712   -4.2701   22.2502 C   0  0  0  0  0  0  0  0  0  0  0  0
    8.0494   -5.3420   23.1012 C   0  0  0  0  0  0  0  0  0  0  0  0
   12.2847   -2.4544   25.4733 C   0  0  0  0  0  0  0  0  0  0  0  0
    6.3698   -4.5289   21.8299 C   0  0  0  0  0  0  0  0  0  0  0  0
    9.7154   -4.3533   24.7212 C   0  0  0  0  0  0  0  0  0  0  0  0
    9.3468   -5.5056   23.7871 C   0  0  0  0  0  0  0  0  0  0  0  0
   11.5428   -3.5419   26.1951 C   0  0  0  0  0  0  0  0  0  0  0  0
   14.7772    1.5044   22.9509 N   0  0  0  0  0  0  0  0  0  0  0  0
   11.6692   -1.2536   25.3907 N   0  0  0  0  0  0  0  0  0  0  0  0
    5.6147   -3.7733   21.0103 N   0  0  0  0  0  0  0  0  0  0  0  0
    5.9699   -5.7090   22.3997 N   0  0  0  0  0  0  0  0  0  0  0  0
   10.9752   -4.5066   25.2824 N   0  0  0  0  0  0  0  0  0  0  0  0
    8.9613   -3.4066   24.9309 O   0  0  0  0  0  0  0  0  0  0  0  0
    5.0668   -6.1425   22.2672 H   0  0  0  0  0  0  0  0  0  0  0  0
   11.5197   -5.3297   25.0418 H   0  0  0  0  0  0  0  0  0  0  0  0
  1  9  1  0  0  0  0
  1 17  3  0  0  0  0
  2  4  2  0  0  0  0
  2  6  1  0  0  0  0
  3  5  2  0  0  0  0
  3  9  1  0  0  0  0
  4 10  1  0  0  0  0
  5 12  1  0  0  0  0
  6 19  2  0  0  0  0
  7  9  2  0  0  0  0
  7 18  1  0  0  0  0
  8 11  2  0  0  0  0
  8 20  1  0  0  0  0
 10 11  1  0  0  0  0
 10 13  2  0  0  0  0
 11 15  1  0  0  0  0
 12 16  1  0  0  0  0
 12 18  2  0  0  0  0
 13 19  1  0  0  0  0
 13 20  1  0  0  0  0
 14 15  1  0  0  0  0
 14 21  1  0  0  0  0
 14 22  2  0  0  0  0
 16 21  1  0  0  0  0
 20 23  1  0  0  0  0
 21 24  1  0  0  0  0
M  END
> <ref_mols>
x2507_0

> <original SMILES>
O=C(CC1=CNC=2N=CC=CC12)NCC=3C=CC(C#N)=CN3

> <Chemgauss4>
-7.890812

> <ref_pdb>
x0749_0

> <CYS145-warhead dist minimum (A)>
6.212697

> <CYS145-warhead dist mean (A)>
7.246951

> <CYS145-warhead dist stddev (A)>
0.3344881

$$$$
x0297
  -OEChem-05172015543D

 14 15  0     0  0  0  0  0  0999 V2000
   13.4384   -1.5786   22.5818 C   0  0  0  0  0  0  0  0  0  0  0  0
   12.2334   -1.5002   23.2801 C   0  0  0  0  0  0  0  0  0  0  0  0
   14.1191   -0.4124   22.2323 C   0  0  0  0  0  0  0  0  0  0  0  0
   11.7092   -0.2555   23.6287 C   0  0  0  0  0  0  0  0  0  0  0  0
   13.5949    0.8323   22.5810 C   0  0  0  0  0  0  0  0  0  0  0  0
   12.3899    0.9108   23.2792 C   0  0  0  0  0  0  0  0  0  0  0  0
   10.5541    3.8508   24.4735 C   0  0  0  0  0  0  0  0  0  0  0  0
   11.6458    4.3541   23.8838 C   0  0  0  0  0  0  0  0  0  0  0  0
   10.6824    2.3724   24.3190 C   0  0  0  0  0  0  0  0  0  0  0  0
   12.0457    5.7819   23.8095 C   0  0  0  0  0  0  0  0  0  0  0  0
   12.4300    3.3667   23.3473 N   0  0  0  0  0  0  0  0  0  0  0  0
   11.8710    2.1423   23.6244 N   0  0  0  0  0  0  0  0  0  0  0  0
    9.8650    1.5687   24.7359 O   0  0  0  0  0  0  0  0  0  0  0  0
   13.4161    3.4851   23.1598 H   0  0  0  0  0  0  0  0  0  0  0  0
  1  2  1  0  0  0  0
  1  3  2  0  0  0  0
  2  4  2  0  0  0  0
  3  5  1  0  0  0  0
  4  6  1  0  0  0  0
  5  6  2  0  0  0  0
  6 12  1  0  0  0  0
  7  8  2  0  0  0  0
  7  9  1  0  0  0  0
  8 10  1  0  0  0  0
  8 11  1  0  0  0  0
  9 12  1  0  0  0  0
  9 13  2  0  0  0  0
 11 12  1  0  0  0  0
 11 14  1  0  0  0  0
M  END
> <ref_mols>
x0297_0

> <original SMILES>
CC1=NN(C(=O)C1)C=2C=CC=CC2

> <Chemgauss4>
-7.889587

> <ref_pdb>
x0195_0

$$$$
x2873
  -OEChem-05172015543D

 22 24  0     1  0  0  0  0  0999 V2000
    9.3602   -3.7033   27.1255 C   0  0  0  0  0  0  0  0  0  0  0  0
    9.3582   -4.9908   26.5749 C   0  0  0  0  0  0  0  0  0  0  0  0
    8.6780   -2.6461   26.5061 C   0  0  0  0  0  0  0  0  0  0  0  0
    8.6771   -5.2754   25.3864 C   0  0  0  0  0  0  0  0  0  0  0  0
    7.9904   -2.9145   25.3139 C   0  0  0  0  0  0  0  0  0  0  0  0
    8.0137   -4.2035   24.8022 C   0  0  0  0  0  0  0  0  0  0  0  0
    6.8568   -2.9185   23.5353 C   0  0  0  0  0  0  0  0  0  0  0  0
    5.9650   -2.8060   19.8489 C   0  0  0  0  0  0  0  0  0  0  0  0
   10.3890   -1.7707   23.1577 C   0  0  0  0  0  0  0  0  0  0  0  0
    9.5446   -2.0388   22.1595 C   0  0  0  0  0  0  0  0  0  0  0  0
    8.7988   -0.9254   21.5371 C   0  0  0  0  0  0  0  0  0  0  0  0
    6.3909   -0.5025   18.9822 C   0  0  0  0  0  0  0  0  0  0  0  0
    6.7866   -0.1111   20.3865 C   0  0  0  0  0  0  0  0  0  0  0  0
    6.8495   -2.5013   21.0621 C   0  0  2  0  0  0  0  0  0  0  0  0
    6.0069   -2.6100   22.3342 C   0  0  0  0  0  0  0  0  0  0  0  0
    7.2459   -2.1040   24.4915 N   0  0  0  0  0  0  0  0  0  0  0  0
    5.7356   -1.7899   18.9524 N   0  0  0  0  0  0  0  0  0  0  0  0
    7.5371   -1.2000   21.0044 N   0  0  0  0  0  0  0  0  0  0  0  0
    5.4333   -3.9124   19.7239 O   0  0  0  0  0  0  0  0  0  0  0  0
    9.3383    0.1825   21.5267 O   0  0  0  0  0  0  0  0  0  0  0  0
    7.2802   -4.2083   23.6504 O   0  0  0  0  0  0  0  0  0  0  0  0
    5.0448   -1.9572   18.2023 H   0  0  0  0  0  0  0  0  0  0  0  0
  1  2  2  0  0  0  0
  1  3  1  0  0  0  0
  2  4  1  0  0  0  0
  3  5  2  0  0  0  0
  4  6  2  0  0  0  0
  5  6  1  0  0  0  0
  5 16  1  0  0  0  0
  6 21  1  0  0  0  0
  7 15  1  0  0  0  0
  7 16  2  0  0  0  0
  7 21  1  0  0  0  0
  8 14  1  0  0  0  0
  8 17  1  0  0  0  0
  8 19  2  0  0  0  0
  9 10  2  0  0  0  0
 10 11  1  0  0  0  0
 11 18  1  0  0  0  0
 11 20  2  0  0  0  0
 12 13  1  0  0  0  0
 12 17  1  0  0  0  0
 13 18  1  0  0  0  0
 14 15  1  0  0  0  0
 14 18  1  0  0  0  0
 17 22  1  0  0  0  0
M  END
> <ref_mols>
x2873_0

> <original SMILES>
C=CC(N(CCN1)[C@@H](Cc2nc(cccc3)c3o2)C1=O)=O

> <Chemgauss4>
-7.883189

> <ref_pdb>
x1385_0

$$$$
x1064
  -OEChem-05172015543D

 11 11  0     0  0  0  0  0  0999 V2000
   13.8724   -1.1104   21.5457 C   0  0  0  0  0  0  0  0  0  0  0  0
   12.3706   -1.8914   22.9401 C   0  0  0  0  0  0  0  0  0  0  0  0
   13.6485    0.0389   22.2743 C   0  0  0  0  0  0  0  0  0  0  0  0
   13.6673    3.7932   22.4606 C   0  0  0  0  0  0  0  0  0  0  0  0
   12.5769    4.6995   22.9273 C   0  0  0  0  0  0  0  0  0  0  0  0
   14.2630    1.4015   22.1330 C   0  0  0  0  0  0  0  0  0  0  0  0
   13.1408   -2.2185   21.9263 N   0  0  0  0  0  0  0  0  0  0  0  0
   13.3529    2.4497   22.5354 N   0  0  0  0  0  0  0  0  0  0  0  0
   14.7209    4.2728   22.0584 O   0  0  0  0  0  0  0  0  0  0  0  0
   12.4748   -0.2680   23.4866 S   0  0  0  0  0  0  0  0  0  0  0  0
   12.4385    2.1862   22.8902 H   0  0  0  0  0  0  0  0  0  0  0  0
  1  3  2  0  0  0  0
  1  7  1  0  0  0  0
  2  7  2  0  0  0  0
  2 10  1  0  0  0  0
  3  6  1  0  0  0  0
  3 10  1  0  0  0  0
  4  5  1  0  0  0  0
  4  8  1  0  0  0  0
  4  9  2  0  0  0  0
  6  8  1  0  0  0  0
  8 11  1  0  0  0  0
M  END
> <ref_mols>
x1064_0

> <original SMILES>
CC(=O)NCC1=CN=CS1

> <Chemgauss4>
-7.878706

> <ref_pdb>
x0195_0

$$$$
x0238
  -OEChem-05172015543D

 11 11  0     0  0  0  0  0  0999 V2000
   13.8724   -1.1104   21.5457 C   0  0  0  0  0  0  0  0  0  0  0  0
   12.3706   -1.8914   22.9401 C   0  0  0  0  0  0  0  0  0  0  0  0
   13.6485    0.0389   22.2743 C   0  0  0  0  0  0  0  0  0  0  0  0
   13.6673    3.7932   22.4606 C   0  0  0  0  0  0  0  0  0  0  0  0
   12.5769    4.6995   22.9273 C   0  0  0  0  0  0  0  0  0  0  0  0
   14.2630    1.4015   22.1330 C   0  0  0  0  0  0  0  0  0  0  0  0
   13.1408   -2.2185   21.9263 N   0  0  0  0  0  0  0  0  0  0  0  0
   13.3529    2.4497   22.5354 N   0  0  0  0  0  0  0  0  0  0  0  0
   14.7209    4.2728   22.0584 O   0  0  0  0  0  0  0  0  0  0  0  0
   12.4748   -0.2680   23.4866 S   0  0  0  0  0  0  0  0  0  0  0  0
   12.4385    2.1862   22.8902 H   0  0  0  0  0  0  0  0  0  0  0  0
  1  3  2  0  0  0  0
  1  7  1  0  0  0  0
  2  7  2  0  0  0  0
  2 10  1  0  0  0  0
  3  6  1  0  0  0  0
  3 10  1  0  0  0  0
  4  5  1  0  0  0  0
  4  8  1  0  0  0  0
  4  9  2  0  0  0  0
  6  8  1  0  0  0  0
  8 11  1  0  0  0  0
M  END
> <ref_mols>
x0238_0

> <original SMILES>
CC(=O)NCC1=CN=CS1

> <Chemgauss4>
-7.878706

> <ref_pdb>
x0195_0

$$$$
x0866
  -OEChem-05172015543D

 18 19  0     1  0  0  0  0  0999 V2000
   12.8346   -0.0371   24.2114 C   0  0  0  0  0  0  0  0  0  0  0  0
   13.2102   -1.4641   22.2984 C   0  0  0  0  0  0  0  0  0  0  0  0
   13.8033   -0.7410   24.9267 C   0  0  0  0  0  0  0  0  0  0  0  0
   14.1789   -2.1681   23.0137 C   0  0  0  0  0  0  0  0  0  0  0  0
   12.5380   -0.3986   22.8972 C   0  0  0  0  0  0  0  0  0  0  0  0
   14.4754   -1.8065   24.3279 C   0  0  0  0  0  0  0  0  0  0  0  0
    9.1913    0.6441   21.4596 C   0  0  0  0  0  0  0  0  0  0  0  0
   10.0053   -1.6789   21.8221 C   0  0  0  0  0  0  0  0  0  0  0  0
    8.7373   -2.1868   22.4843 C   0  0  0  0  0  0  0  0  0  0  0  0
    9.6555   -0.3004   23.7465 C   0  0  0  0  0  0  0  0  0  0  0  0
   10.1081   -0.2400   22.2999 C   0  0  2  0  0  0  0  0  0  0  0  0
   11.4924    0.3619   22.1237 C   0  0  0  0  0  0  0  0  0  0  0  0
    8.6664   -1.4352   23.7807 N   0  3  0  0  0  0  0  0  0  0  0  0
    9.7196    1.1401   20.4261 O   0  5  0  0  0  0  0  0  0  0  0  0
    8.0169    0.7664   21.9079 O   0  0  0  0  0  0  0  0  0  0  0  0
   15.4076   -2.4810   25.0139 F   0  0  0  0  0  0  0  0  0  0  0  0
    7.7125   -1.0801   23.9333 H   0  0  0  0  0  0  0  0  0  0  0  0
    8.8738   -2.0593   24.5725 H   0  0  0  0  0  0  0  0  0  0  0  0
  1  3  2  0  0  0  0
  1  5  1  0  0  0  0
  2  4  1  0  0  0  0
  2  5  2  0  0  0  0
  3  6  1  0  0  0  0
  4  6  2  0  0  0  0
  5 12  1  0  0  0  0
  6 16  1  0  0  0  0
  7 11  1  0  0  0  0
  7 14  1  0  0  0  0
  7 15  2  0  0  0  0
  8  9  1  0  0  0  0
  8 11  1  0  0  0  0
  9 13  1  0  0  0  0
 10 11  1  0  0  0  0
 10 13  1  0  0  0  0
 11 12  1  0  0  0  0
 13 17  1  0  0  0  0
 13 18  1  0  0  0  0
M  CHG  2  13   1  14  -1
M  END
> <ref_mols>
x0866_0

> <original SMILES>
OC(C1(CC2=CC=C(F)C=C2)CNCC1)=O

> <Chemgauss4>
-7.878417

> <ref_pdb>
x0678_0

$$$$
x0557
  -OEChem-05172015543D

 13 13  0     0  0  0  0  0  0999 V2000
   13.5784    1.4950   22.6316 C   0  0  0  0  0  0  0  0  0  0  0  0
   14.2894    0.3470   22.2825 C   0  0  0  0  0  0  0  0  0  0  0  0
   12.5409   -1.0244   23.2308 C   0  0  0  0  0  0  0  0  0  0  0  0
   12.3486    1.3834   23.2804 C   0  0  0  0  0  0  0  0  0  0  0  0
   13.7707   -0.9127   22.5821 C   0  0  0  0  0  0  0  0  0  0  0  0
   11.8299    0.1238   23.5800 C   0  0  0  0  0  0  0  0  0  0  0  0
   11.6096    2.5824   23.6428 C   0  0  0  0  0  0  0  0  0  0  0  0
   12.9208    5.9034   24.5096 C   0  0  0  0  0  0  0  0  0  0  0  0
   11.8379    4.8733   24.2691 C   0  0  0  0  0  0  0  0  0  0  0  0
   10.3753    2.6498   23.7132 O   0  0  0  0  0  0  0  0  0  0  0  0
   12.4486    3.6324   23.8991 O   0  0  0  0  0  0  0  0  0  0  0  0
   14.4535   -2.0153   22.2470 F   0  0  0  0  0  0  0  0  0  0  0  0
   10.6492    0.0047   24.2032 F   0  0  0  0  0  0  0  0  0  0  0  0
  1  2  2  0  0  0  0
  1  4  1  0  0  0  0
  2  5  1  0  0  0  0
  3  5  2  0  0  0  0
  3  6  1  0  0  0  0
  4  6  2  0  0  0  0
  4  7  1  0  0  0  0
  5 12  1  0  0  0  0
  6 13  1  0  0  0  0
  7 10  2  0  0  0  0
  7 11  1  0  0  0  0
  8  9  1  0  0  0  0
  9 11  1  0  0  0  0
M  END
> <ref_mols>
x0557_0

> <original SMILES>
CCOC(=O)C=1C=CC(F)=CC1F

> <Chemgauss4>
-7.877579

> <ref_pdb>
x0195_0

$$$$
x1128
  -OEChem-05172015543D

 17 17  0     1  0  0  0  0  0999 V2000
   10.1873   -2.1644   22.0469 C   0  0  0  0  0  0  0  0  0  0  0  0
    9.3795   -1.1795   21.4786 C   0  0  0  0  0  0  0  0  0  0  0  0
   11.4794   -1.8496   22.4677 C   0  0  0  0  0  0  0  0  0  0  0  0
   11.1560    0.4350   21.7517 C   0  0  0  0  0  0  0  0  0  0  0  0
    9.8638    0.1202   21.3310 C   0  0  0  0  0  0  0  0  0  0  0  0
   11.9637   -0.5499   22.3201 C   0  0  0  0  0  0  0  0  0  0  0  0
    7.4629   -0.0751   19.0466 C   0  0  0  0  0  0  0  0  0  0  0  0
   13.9955   -1.2975   23.3043 C   0  0  0  0  0  0  0  0  0  0  0  0
    7.5755    0.7006   20.3656 C   0  0  0  0  0  0  0  0  0  0  0  0
    8.9870    1.1892   20.7135 C   0  0  1  0  0  0  0  0  0  0  0  0
    8.8481    2.3816   21.6112 N   0  3  0  0  0  0  0  0  0  0  0  0
    8.2704    0.2567   18.1354 O   0  5  0  0  0  0  0  0  0  0  0  0
    6.5510   -0.9507   19.0311 O   0  0  0  0  0  0  0  0  0  0  0  0
   13.2244   -0.2427   22.7314 O   0  0  0  0  0  0  0  0  0  0  0  0
    8.0379    2.2701   22.2209 H   0  0  0  0  0  0  0  0  0  0  0  0
    8.7262    3.2278   21.0542 H   0  0  0  0  0  0  0  0  0  0  0  0
    9.6825    2.4857   22.1890 H   0  0  0  0  0  0  0  0  0  0  0  0
  1  2  1  0  0  0  0
  1  3  2  0  0  0  0
  2  5  2  0  0  0  0
  3  6  1  0  0  0  0
  4  5  1  0  0  0  0
  4  6  2  0  0  0  0
  5 10  1  0  0  0  0
  6 14  1  0  0  0  0
  7  9  1  0  0  0  0
  7 12  1  0  0  0  0
  7 13  2  0  0  0  0
  8 14  1  0  0  0  0
  9 10  1  0  0  0  0
 10 11  1  0  0  0  0
 11 15  1  0  0  0  0
 11 16  1  0  0  0  0
 11 17  1  0  0  0  0
M  CHG  2  11   1  12  -1
M  END
> <ref_mols>
x1128_0

> <original SMILES>
COC=1C=CC=C(C1)C(N)CC(=O)O

> <Chemgauss4>
-7.874615

> <ref_pdb>
x0678_0

$$$$
x0242
  -OEChem-05172015543D

 17 17  0     1  0  0  0  0  0999 V2000
   10.1873   -2.1644   22.0469 C   0  0  0  0  0  0  0  0  0  0  0  0
    9.3795   -1.1795   21.4786 C   0  0  0  0  0  0  0  0  0  0  0  0
   11.4794   -1.8496   22.4677 C   0  0  0  0  0  0  0  0  0  0  0  0
   11.1560    0.4350   21.7517 C   0  0  0  0  0  0  0  0  0  0  0  0
    9.8638    0.1202   21.3310 C   0  0  0  0  0  0  0  0  0  0  0  0
   11.9637   -0.5499   22.3201 C   0  0  0  0  0  0  0  0  0  0  0  0
    7.4629   -0.0751   19.0466 C   0  0  0  0  0  0  0  0  0  0  0  0
   13.9955   -1.2975   23.3043 C   0  0  0  0  0  0  0  0  0  0  0  0
    7.5755    0.7006   20.3656 C   0  0  0  0  0  0  0  0  0  0  0  0
    8.9870    1.1892   20.7135 C   0  0  1  0  0  0  0  0  0  0  0  0
    8.8481    2.3816   21.6112 N   0  3  0  0  0  0  0  0  0  0  0  0
    8.2704    0.2567   18.1354 O   0  5  0  0  0  0  0  0  0  0  0  0
    6.5510   -0.9507   19.0311 O   0  0  0  0  0  0  0  0  0  0  0  0
   13.2244   -0.2427   22.7314 O   0  0  0  0  0  0  0  0  0  0  0  0
    8.0379    2.2701   22.2209 H   0  0  0  0  0  0  0  0  0  0  0  0
    8.7262    3.2278   21.0542 H   0  0  0  0  0  0  0  0  0  0  0  0
    9.6825    2.4857   22.1890 H   0  0  0  0  0  0  0  0  0  0  0  0
  1  2  1  0  0  0  0
  1  3  2  0  0  0  0
  2  5  2  0  0  0  0
  3  6  1  0  0  0  0
  4  5  1  0  0  0  0
  4  6  2  0  0  0  0
  5 10  1  0  0  0  0
  6 14  1  0  0  0  0
  7  9  1  0  0  0  0
  7 12  1  0  0  0  0
  7 13  2  0  0  0  0
  8 14  1  0  0  0  0
  9 10  1  0  0  0  0
 10 11  1  0  0  0  0
 11 15  1  0  0  0  0
 11 16  1  0  0  0  0
 11 17  1  0  0  0  0
M  CHG  2  11   1  12  -1
M  END
> <ref_mols>
x0242_0

> <original SMILES>
COC=1C=CC=C(C1)C(N)CC(=O)O

> <Chemgauss4>
-7.874615

> <ref_pdb>
x0678_0

$$$$
x2600
  -OEChem-05172015543D

 19 20  0     0  0  0  0  0  0999 V2000
    6.7517   -2.7136   20.9226 C   0  0  0  0  0  0  0  0  0  0  0  0
    6.0716   -6.1415   22.2044 C   0  0  0  0  0  0  0  0  0  0  0  0
   13.7799   -1.5567   25.2076 C   0  0  0  0  0  0  0  0  0  0  0  0
    5.9550   -4.9583   21.4750 C   0  0  0  0  0  0  0  0  0  0  0  0
    7.1052   -6.2919   23.1289 C   0  0  0  0  0  0  0  0  0  0  0  0
   13.0441   -2.6548   24.7763 C   0  0  0  0  0  0  0  0  0  0  0  0
    7.9058   -4.0760   22.5944 C   0  0  0  0  0  0  0  0  0  0  0  0
   13.1306   -0.6009   25.9723 C   0  0  0  0  0  0  0  0  0  0  0  0
   11.1445   -1.7524   25.8868 C   0  0  0  0  0  0  0  0  0  0  0  0
    6.8721   -3.9255   21.6699 C   0  0  0  0  0  0  0  0  0  0  0  0
    8.0223   -5.2591   23.3239 C   0  0  0  0  0  0  0  0  0  0  0  0
   11.7006   -2.7621   25.1180 C   0  0  0  0  0  0  0  0  0  0  0  0
    9.5798   -4.1115   24.9549 C   0  0  0  0  0  0  0  0  0  0  0  0
    9.1274   -5.4203   24.3123 C   0  0  0  0  0  0  0  0  0  0  0  0
    6.6538   -1.7293   20.3157 N   0  0  0  0  0  0  0  0  0  0  0  0
   11.8272   -0.6707   26.3243 N   0  0  0  0  0  0  0  0  0  0  0  0
   10.9258   -3.8678   24.6936 N   0  0  0  0  0  0  0  0  0  0  0  0
    8.8108   -3.4113   25.6057 O   0  0  0  0  0  0  0  0  0  0  0  0
   11.4086   -4.5662   24.1321 H   0  0  0  0  0  0  0  0  0  0  0  0
  1 10  1  0  0  0  0
  1 15  3  0  0  0  0
  2  4  1  0  0  0  0
  2  5  2  0  0  0  0
  3  6  2  0  0  0  0
  3  8  1  0  0  0  0
  4 10  2  0  0  0  0
  5 11  1  0  0  0  0
  6 12  1  0  0  0  0
  7 10  1  0  0  0  0
  7 11  2  0  0  0  0
  8 16  2  0  0  0  0
  9 12  2  0  0  0  0
  9 16  1  0  0  0  0
 11 14  1  0  0  0  0
 12 17  1  0  0  0  0
 13 14  1  0  0  0  0
 13 17  1  0  0  0  0
 13 18  2  0  0  0  0
 17 19  1  0  0  0  0
M  END
> <ref_mols>
x2600_0

> <original SMILES>
O=C(CC=1C=CC=C(C#N)C1)NC=2C=CC=NC2

> <Chemgauss4>
-7.873439

> <ref_pdb>
x0749_0

$$$$
x0179
  -OEChem-05172015543D

 19 19  0     0  0  0  0  0  0999 V2000
   12.5614    2.2189   22.7310 C   0  0  0  0  0  0  0  0  0  0  0  0
   11.0376    3.0452   24.4139 C   0  0  0  0  0  0  0  0  0  0  0  0
   11.9806    0.9543   22.8260 C   0  0  0  0  0  0  0  0  0  0  0  0
   10.4567    1.7806   24.5089 C   0  0  0  0  0  0  0  0  0  0  0  0
   12.0899    3.2644   23.5250 C   0  0  0  0  0  0  0  0  0  0  0  0
   10.9283    0.7352   23.7149 C   0  0  0  0  0  0  0  0  0  0  0  0
    9.3537    6.2362   23.2093 C   0  0  0  0  0  0  0  0  0  0  0  0
    8.3261    6.1483   22.1301 C   0  0  0  0  0  0  0  0  0  0  0  0
   12.7112    4.6164   23.4242 C   0  0  0  0  0  0  0  0  0  0  0  0
   11.7386    5.7624   23.7291 C   0  0  0  0  0  0  0  0  0  0  0  0
    8.9655   -0.7254   22.6570 N   0  0  0  0  0  0  0  0  0  0  0  0
   10.6054    5.7677   22.8433 N   0  0  0  0  0  0  0  0  0  0  0  0
    9.0445    6.6969   24.3019 O   0  0  0  0  0  0  0  0  0  0  0  0
   11.1736   -1.8354   23.3905 O   0  0  0  0  0  0  0  0  0  0  0  0
    9.5831   -0.9762   25.1454 O   0  0  0  0  0  0  0  0  0  0  0  0
   10.1997   -0.8471   23.8324 S   0  0  0  0  0  0  0  0  0  0  0  0
    9.0783   -1.2540   21.7833 H   0  0  0  0  0  0  0  0  0  0  0  0
    7.9933   -0.6653   22.9832 H   0  0  0  0  0  0  0  0  0  0  0  0
   10.7293    5.4085   21.8981 H   0  0  0  0  0  0  0  0  0  0  0  0
  1  3  2  0  0  0  0
  1  5  1  0  0  0  0
  2  4  1  0  0  0  0
  2  5  2  0  0  0  0
  3  6  1  0  0  0  0
  4  6  2  0  0  0  0
  5  9  1  0  0  0  0
  6 16  1  0  0  0  0
  7  8  1  0  0  0  0
  7 12  1  0  0  0  0
  7 13  2  0  0  0  0
  9 10  1  0  0  0  0
 10 12  1  0  0  0  0
 11 16  1  0  0  0  0
 14 16  2  0  0  0  0
 15 16  2  0  0  0  0
 11 17  1  0  0  0  0
 11 18  1  0  0  0  0
 12 19  1  0  0  0  0
M  END
> <ref_mols>
x0179_0

> <original SMILES>
CC(=O)NCCC=1C=CC(=CC1)S(=O)(=O)N

> <Chemgauss4>
-7.869296

> <ref_pdb>
x0104_0

$$$$
x0180
  -OEChem-05172015543D

 15 16  0     0  0  0  0  0  0999 V2000
   10.5242    3.3091   24.1383 C   0  0  0  0  0  0  0  0  0  0  0  0
   10.1780    1.9810   24.3865 C   0  0  0  0  0  0  0  0  0  0  0  0
   11.6234    3.6043   23.3318 C   0  0  0  0  0  0  0  0  0  0  0  0
   10.9310    0.9479   23.8284 C   0  0  0  0  0  0  0  0  0  0  0  0
   12.3764    2.5713   22.7737 C   0  0  0  0  0  0  0  0  0  0  0  0
   12.0302    1.2431   23.0220 C   0  0  0  0  0  0  0  0  0  0  0  0
   14.1945    0.0128   22.7506 C   0  0  0  0  0  0  0  0  0  0  0  0
   12.1048   -1.0043   21.9686 C   0  0  0  0  0  0  0  0  0  0  0  0
   14.3497   -1.1403   23.7363 C   0  0  0  0  0  0  0  0  0  0  0  0
   12.3374   -2.1328   22.9742 C   0  0  0  0  0  0  0  0  0  0  0  0
   13.5486    2.9164   21.9138 C   0  0  0  0  0  0  0  0  0  0  0  0
   12.7687    0.2017   22.4745 N   0  0  0  0  0  0  0  0  0  0  0  0
   13.7379   -2.3222   23.2055 O   0  0  0  0  0  0  0  0  0  0  0  0
   13.3049    4.1565   21.2633 O   0  0  0  0  0  0  0  0  0  0  0  0
   14.0854    4.3444   20.7172 H   0  0  0  0  0  0  0  0  0  0  0  0
  1  2  1  0  0  0  0
  1  3  2  0  0  0  0
  2  4  2  0  0  0  0
  3  5  1  0  0  0  0
  4  6  1  0  0  0  0
  5  6  2  0  0  0  0
  5 11  1  0  0  0  0
  6 12  1  0  0  0  0
  7  9  1  0  0  0  0
  7 12  1  0  0  0  0
  8 10  1  0  0  0  0
  8 12  1  0  0  0  0
  9 13  1  0  0  0  0
 10 13  1  0  0  0  0
 11 14  1  0  0  0  0
 14 15  1  0  0  0  0
M  END
> <ref_mols>
x0180_0

> <original SMILES>
OCC=1C=CC=CC1N2CCOCC2

> <Chemgauss4>
-7.866174

> <ref_pdb>
x0195_0

$$$$
x0668
  -OEChem-05172015543D

 16 16  0     1  0  0  0  0  0999 V2000
    9.2626    6.1488   23.4580 C   0  0  0  0  0  0  0  0  0  0  0  0
   10.3755    3.5200   24.0076 C   0  0  0  0  0  0  0  0  0  0  0  0
   12.6980    2.6841   22.5753 C   0  0  0  0  0  0  0  0  0  0  0  0
   12.5468    4.1619   22.9419 C   0  0  1  0  0  0  0  0  0  0  0  0
   10.6423    2.0885   23.5612 C   0  0  2  0  0  0  0  0  0  0  0  0
   13.2118    5.0399   21.8878 C   0  0  0  0  0  0  0  0  0  0  0  0
   10.0241    1.0960   24.5364 C   0  0  0  0  0  0  0  0  0  0  0  0
    6.8990    7.5311   21.8324 C   0  0  0  0  0  0  0  0  0  0  0  0
   10.7490    5.8991   23.4070 C   0  0  0  0  0  0  0  0  0  0  0  0
    7.2468    6.0934   22.0190 C   0  0  0  0  0  0  0  0  0  0  0  0
    8.6651    5.9234   22.2270 N   0  0  0  0  0  0  0  0  0  0  0  0
   11.0562    4.4695   23.0399 N   0  3  2  0  0  0  0  0  0  0  0  0
    8.6736    6.5060   24.4747 O   0  0  0  0  0  0  0  0  0  0  0  0
   12.0504    1.8479   23.5317 O   0  0  0  0  0  0  0  0  0  0  0  0
    9.2381    5.6517   21.4332 H   0  0  0  0  0  0  0  0  0  0  0  0
   10.6417    4.3059   22.1120 H   0  0  0  0  0  0  0  0  0  0  0  0
  1  9  1  0  0  0  0
  1 11  1  0  0  0  0
  1 13  2  0  0  0  0
  2  5  1  0  0  0  0
  2 12  1  0  0  0  0
  3  4  1  0  0  0  0
  3 14  1  0  0  0  0
  4  6  1  0  0  0  0
  4 12  1  0  0  0  0
  5  7  1  0  0  0  0
  5 14  1  0  0  0  0
  8 10  1  0  0  0  0
  9 12  1  0  0  0  0
 10 11  1  0  0  0  0
 11 15  1  0  0  0  0
 12 16  1  0  0  0  0
M  CHG  1  12   1
M  END
> <ref_mols>
x0668_0

> <original SMILES>
CCNC(=O)CN1CC(C)OCC1C

> <Chemgauss4>
-7.863604

> <ref_pdb>
x0104_0

$$$$
x2665
  -OEChem-05172015543D

 17 17  0     0  0  0  0  0  0999 V2000
   11.1551   -3.3998   24.3285 C   0  0  0  0  0  0  0  0  0  0  0  0
    6.8273   -5.0451   22.1785 C   0  0  0  0  0  0  0  0  0  0  0  0
    8.7528   -2.7810   24.1351 C   0  0  0  0  0  0  0  0  0  0  0  0
    9.4238   -5.1689   24.6924 C   0  0  0  0  0  0  0  0  0  0  0  0
    8.4386   -3.2459   22.7142 C   0  0  0  0  0  0  0  0  0  0  0  0
    9.0705   -5.5637   23.2578 C   0  0  0  0  0  0  0  0  0  0  0  0
    9.7719   -3.6840   24.8373 C   0  0  0  0  0  0  0  0  0  0  0  0
   14.1534   -2.2116   25.7501 C   0  0  0  0  0  0  0  0  0  0  0  0
   13.2043   -0.5467   24.1151 C   0  0  0  0  0  0  0  0  0  0  0  0
   11.2945   -1.6156   26.0730 C   0  0  0  0  0  0  0  0  0  0  0  0
    6.1945   -6.2758   22.7776 C   0  0  0  0  0  0  0  0  0  0  0  0
   13.2133   -1.9979   24.5726 C   0  0  0  0  0  0  0  0  0  0  0  0
    8.0600   -4.6583   22.7026 N   0  0  0  0  0  0  0  0  0  0  0  0
   11.8591   -2.3780   24.9668 N   0  0  0  0  0  0  0  0  0  0  0  0
   11.5998   -4.0659   23.3899 O   0  0  0  0  0  0  0  0  0  0  0  0
    6.2410   -4.4458   21.2733 O   0  0  0  0  0  0  0  0  0  0  0  0
    5.9916   -5.9522   24.4957 Cl  0  0  0  0  0  0  0  0  0  0  0  0
  1  7  1  0  0  0  0
  1 14  1  0  0  0  0
  1 15  2  0  0  0  0
  2 11  1  0  0  0  0
  2 13  1  0  0  0  0
  2 16  2  0  0  0  0
  3  5  1  0  0  0  0
  3  7  1  0  0  0  0
  4  6  1  0  0  0  0
  4  7  1  0  0  0  0
  5 13  1  0  0  0  0
  6 13  1  0  0  0  0
  8 12  1  0  0  0  0
  9 12  1  0  0  0  0
 10 14  1  0  0  0  0
 11 17  1  0  0  0  0
 12 14  1  0  0  0  0
M  END
> <ref_mols>
x2665_0

> <original SMILES>
CC(C)N(C)C(=O)C1CCN(CC1)C(=O)CCl

> <Chemgauss4>
-7.862561

> <ref_pdb>
x0749_0

> <CYS145-warhead dist minimum (A)>
4.122275

> <CYS145-warhead dist mean (A)>
6.068821

> <CYS145-warhead dist stddev (A)>
0.64280045

$$$$
x1458
  -OEChem-05172015543D

 17 17  0     0  0  0  0  0  0999 V2000
   11.1551   -3.3998   24.3285 C   0  0  0  0  0  0  0  0  0  0  0  0
    6.8273   -5.0451   22.1785 C   0  0  0  0  0  0  0  0  0  0  0  0
    8.7528   -2.7810   24.1351 C   0  0  0  0  0  0  0  0  0  0  0  0
    9.4238   -5.1689   24.6924 C   0  0  0  0  0  0  0  0  0  0  0  0
    8.4386   -3.2459   22.7142 C   0  0  0  0  0  0  0  0  0  0  0  0
    9.0705   -5.5637   23.2578 C   0  0  0  0  0  0  0  0  0  0  0  0
    9.7719   -3.6840   24.8373 C   0  0  0  0  0  0  0  0  0  0  0  0
   14.1534   -2.2116   25.7501 C   0  0  0  0  0  0  0  0  0  0  0  0
   13.2043   -0.5467   24.1151 C   0  0  0  0  0  0  0  0  0  0  0  0
   11.2945   -1.6156   26.0730 C   0  0  0  0  0  0  0  0  0  0  0  0
    6.1945   -6.2758   22.7776 C   0  0  0  0  0  0  0  0  0  0  0  0
   13.2133   -1.9979   24.5726 C   0  0  0  0  0  0  0  0  0  0  0  0
    8.0600   -4.6583   22.7026 N   0  0  0  0  0  0  0  0  0  0  0  0
   11.8591   -2.3780   24.9668 N   0  0  0  0  0  0  0  0  0  0  0  0
   11.5998   -4.0659   23.3899 O   0  0  0  0  0  0  0  0  0  0  0  0
    6.2410   -4.4458   21.2733 O   0  0  0  0  0  0  0  0  0  0  0  0
    5.9916   -5.9522   24.4957 Cl  0  0  0  0  0  0  0  0  0  0  0  0
  1  7  1  0  0  0  0
  1 14  1  0  0  0  0
  1 15  2  0  0  0  0
  2 11  1  0  0  0  0
  2 13  1  0  0  0  0
  2 16  2  0  0  0  0
  3  5  1  0  0  0  0
  3  7  1  0  0  0  0
  4  6  1  0  0  0  0
  4  7  1  0  0  0  0
  5 13  1  0  0  0  0
  6 13  1  0  0  0  0
  8 12  1  0  0  0  0
  9 12  1  0  0  0  0
 10 14  1  0  0  0  0
 11 17  1  0  0  0  0
 12 14  1  0  0  0  0
M  END
> <ref_mols>
x1458_0

> <original SMILES>
CC(C)N(C)C(=O)C1CCN(CC1)C(=O)CCl

> <Chemgauss4>
-7.862561

> <ref_pdb>
x0749_0

$$$$
x2497
  -OEChem-05172015543D

 17 17  0     0  0  0  0  0  0999 V2000
   11.1551   -3.3998   24.3285 C   0  0  0  0  0  0  0  0  0  0  0  0
    6.8273   -5.0451   22.1785 C   0  0  0  0  0  0  0  0  0  0  0  0
    8.7528   -2.7810   24.1351 C   0  0  0  0  0  0  0  0  0  0  0  0
    9.4238   -5.1689   24.6924 C   0  0  0  0  0  0  0  0  0  0  0  0
    8.4386   -3.2459   22.7142 C   0  0  0  0  0  0  0  0  0  0  0  0
    9.0705   -5.5637   23.2578 C   0  0  0  0  0  0  0  0  0  0  0  0
    9.7719   -3.6840   24.8373 C   0  0  0  0  0  0  0  0  0  0  0  0
   14.1534   -2.2116   25.7501 C   0  0  0  0  0  0  0  0  0  0  0  0
   13.2043   -0.5467   24.1151 C   0  0  0  0  0  0  0  0  0  0  0  0
   11.2945   -1.6156   26.0730 C   0  0  0  0  0  0  0  0  0  0  0  0
    6.1945   -6.2758   22.7776 C   0  0  0  0  0  0  0  0  0  0  0  0
   13.2133   -1.9979   24.5726 C   0  0  0  0  0  0  0  0  0  0  0  0
    8.0600   -4.6583   22.7026 N   0  0  0  0  0  0  0  0  0  0  0  0
   11.8591   -2.3780   24.9668 N   0  0  0  0  0  0  0  0  0  0  0  0
   11.5998   -4.0659   23.3899 O   0  0  0  0  0  0  0  0  0  0  0  0
    6.2410   -4.4458   21.2733 O   0  0  0  0  0  0  0  0  0  0  0  0
    5.9916   -5.9522   24.4957 Cl  0  0  0  0  0  0  0  0  0  0  0  0
  1  7  1  0  0  0  0
  1 14  1  0  0  0  0
  1 15  2  0  0  0  0
  2 11  1  0  0  0  0
  2 13  1  0  0  0  0
  2 16  2  0  0  0  0
  3  5  1  0  0  0  0
  3  7  1  0  0  0  0
  4  6  1  0  0  0  0
  4  7  1  0  0  0  0
  5 13  1  0  0  0  0
  6 13  1  0  0  0  0
  8 12  1  0  0  0  0
  9 12  1  0  0  0  0
 10 14  1  0  0  0  0
 11 17  1  0  0  0  0
 12 14  1  0  0  0  0
M  END
> <ref_mols>
x2497_0

> <original SMILES>
CC(C)N(C)C(=O)C1CCN(CC1)C(=O)CCl

> <Chemgauss4>
-7.862561

> <ref_pdb>
x0749_0

$$$$
x0739
  -OEChem-05172015543D

 17 17  0     0  0  0  0  0  0999 V2000
   11.1551   -3.3998   24.3285 C   0  0  0  0  0  0  0  0  0  0  0  0
    6.8273   -5.0451   22.1785 C   0  0  0  0  0  0  0  0  0  0  0  0
    8.7528   -2.7810   24.1351 C   0  0  0  0  0  0  0  0  0  0  0  0
    9.4238   -5.1689   24.6924 C   0  0  0  0  0  0  0  0  0  0  0  0
    8.4386   -3.2459   22.7142 C   0  0  0  0  0  0  0  0  0  0  0  0
    9.0705   -5.5637   23.2578 C   0  0  0  0  0  0  0  0  0  0  0  0
    9.7719   -3.6840   24.8373 C   0  0  0  0  0  0  0  0  0  0  0  0
   14.1534   -2.2116   25.7501 C   0  0  0  0  0  0  0  0  0  0  0  0
   13.2043   -0.5467   24.1151 C   0  0  0  0  0  0  0  0  0  0  0  0
   11.2945   -1.6156   26.0730 C   0  0  0  0  0  0  0  0  0  0  0  0
    6.1945   -6.2758   22.7776 C   0  0  0  0  0  0  0  0  0  0  0  0
   13.2133   -1.9979   24.5726 C   0  0  0  0  0  0  0  0  0  0  0  0
    8.0600   -4.6583   22.7026 N   0  0  0  0  0  0  0  0  0  0  0  0
   11.8591   -2.3780   24.9668 N   0  0  0  0  0  0  0  0  0  0  0  0
   11.5998   -4.0659   23.3899 O   0  0  0  0  0  0  0  0  0  0  0  0
    6.2410   -4.4458   21.2733 O   0  0  0  0  0  0  0  0  0  0  0  0
    5.9916   -5.9522   24.4957 Cl  0  0  0  0  0  0  0  0  0  0  0  0
  1  7  1  0  0  0  0
  1 14  1  0  0  0  0
  1 15  2  0  0  0  0
  2 11  1  0  0  0  0
  2 13  1  0  0  0  0
  2 16  2  0  0  0  0
  3  5  1  0  0  0  0
  3  7  1  0  0  0  0
  4  6  1  0  0  0  0
  4  7  1  0  0  0  0
  5 13  1  0  0  0  0
  6 13  1  0  0  0  0
  8 12  1  0  0  0  0
  9 12  1  0  0  0  0
 10 14  1  0  0  0  0
 11 17  1  0  0  0  0
 12 14  1  0  0  0  0
M  END
> <ref_mols>
x0739_0

> <original SMILES>
CC(C)N(C)C(=O)C1CCN(CC1)C(=O)CCl

> <Chemgauss4>
-7.862561

> <ref_pdb>
x0749_0

> <CYS145-warhead dist minimum (A)>
6.929455

> <CYS145-warhead dist mean (A)>
8.664658

> <CYS145-warhead dist stddev (A)>
0.6066508

$$$$
x1322
  -OEChem-05172015543D

 17 17  0     0  0  0  0  0  0999 V2000
   11.1551   -3.3998   24.3285 C   0  0  0  0  0  0  0  0  0  0  0  0
    6.8273   -5.0451   22.1785 C   0  0  0  0  0  0  0  0  0  0  0  0
    8.7528   -2.7810   24.1351 C   0  0  0  0  0  0  0  0  0  0  0  0
    9.4238   -5.1689   24.6924 C   0  0  0  0  0  0  0  0  0  0  0  0
    8.4386   -3.2459   22.7142 C   0  0  0  0  0  0  0  0  0  0  0  0
    9.0705   -5.5637   23.2578 C   0  0  0  0  0  0  0  0  0  0  0  0
    9.7719   -3.6840   24.8373 C   0  0  0  0  0  0  0  0  0  0  0  0
   14.1534   -2.2116   25.7501 C   0  0  0  0  0  0  0  0  0  0  0  0
   13.2043   -0.5467   24.1151 C   0  0  0  0  0  0  0  0  0  0  0  0
   11.2945   -1.6156   26.0730 C   0  0  0  0  0  0  0  0  0  0  0  0
    6.1945   -6.2758   22.7776 C   0  0  0  0  0  0  0  0  0  0  0  0
   13.2133   -1.9979   24.5726 C   0  0  0  0  0  0  0  0  0  0  0  0
    8.0600   -4.6583   22.7026 N   0  0  0  0  0  0  0  0  0  0  0  0
   11.8591   -2.3780   24.9668 N   0  0  0  0  0  0  0  0  0  0  0  0
   11.5998   -4.0659   23.3899 O   0  0  0  0  0  0  0  0  0  0  0  0
    6.2410   -4.4458   21.2733 O   0  0  0  0  0  0  0  0  0  0  0  0
    5.9916   -5.9522   24.4957 Cl  0  0  0  0  0  0  0  0  0  0  0  0
  1  7  1  0  0  0  0
  1 14  1  0  0  0  0
  1 15  2  0  0  0  0
  2 11  1  0  0  0  0
  2 13  1  0  0  0  0
  2 16  2  0  0  0  0
  3  5  1  0  0  0  0
  3  7  1  0  0  0  0
  4  6  1  0  0  0  0
  4  7  1  0  0  0  0
  5 13  1  0  0  0  0
  6 13  1  0  0  0  0
  8 12  1  0  0  0  0
  9 12  1  0  0  0  0
 10 14  1  0  0  0  0
 11 17  1  0  0  0  0
 12 14  1  0  0  0  0
M  END
> <ref_mols>
x1322_0

> <original SMILES>
CC(C)N(C)C(=O)C1CCN(CC1)C(=O)CCl

> <Chemgauss4>
-7.862561

> <ref_pdb>
x0749_0

$$$$
x1407
  -OEChem-05172015543D

 17 17  0     0  0  0  0  0  0999 V2000
   11.1551   -3.3998   24.3285 C   0  0  0  0  0  0  0  0  0  0  0  0
    6.8273   -5.0451   22.1785 C   0  0  0  0  0  0  0  0  0  0  0  0
    8.7528   -2.7810   24.1351 C   0  0  0  0  0  0  0  0  0  0  0  0
    9.4238   -5.1689   24.6924 C   0  0  0  0  0  0  0  0  0  0  0  0
    8.4386   -3.2459   22.7142 C   0  0  0  0  0  0  0  0  0  0  0  0
    9.0705   -5.5637   23.2578 C   0  0  0  0  0  0  0  0  0  0  0  0
    9.7719   -3.6840   24.8373 C   0  0  0  0  0  0  0  0  0  0  0  0
   14.1534   -2.2116   25.7501 C   0  0  0  0  0  0  0  0  0  0  0  0
   13.2043   -0.5467   24.1151 C   0  0  0  0  0  0  0  0  0  0  0  0
   11.2945   -1.6156   26.0730 C   0  0  0  0  0  0  0  0  0  0  0  0
    6.1945   -6.2758   22.7776 C   0  0  0  0  0  0  0  0  0  0  0  0
   13.2133   -1.9979   24.5726 C   0  0  0  0  0  0  0  0  0  0  0  0
    8.0600   -4.6583   22.7026 N   0  0  0  0  0  0  0  0  0  0  0  0
   11.8591   -2.3780   24.9668 N   0  0  0  0  0  0  0  0  0  0  0  0
   11.5998   -4.0659   23.3899 O   0  0  0  0  0  0  0  0  0  0  0  0
    6.2410   -4.4458   21.2733 O   0  0  0  0  0  0  0  0  0  0  0  0
    5.9916   -5.9522   24.4957 Cl  0  0  0  0  0  0  0  0  0  0  0  0
  1  7  1  0  0  0  0
  1 14  1  0  0  0  0
  1 15  2  0  0  0  0
  2 11  1  0  0  0  0
  2 13  1  0  0  0  0
  2 16  2  0  0  0  0
  3  5  1  0  0  0  0
  3  7  1  0  0  0  0
  4  6  1  0  0  0  0
  4  7  1  0  0  0  0
  5 13  1  0  0  0  0
  6 13  1  0  0  0  0
  8 12  1  0  0  0  0
  9 12  1  0  0  0  0
 10 14  1  0  0  0  0
 11 17  1  0  0  0  0
 12 14  1  0  0  0  0
M  END
> <ref_mols>
x1407_0

> <original SMILES>
CC(C)N(C)C(=O)C1CCN(CC1)C(=O)CCl

> <Chemgauss4>
-7.862561

> <ref_pdb>
x0749_0

$$$$
x1362
  -OEChem-05172015543D

 17 17  0     0  0  0  0  0  0999 V2000
   11.1551   -3.3998   24.3285 C   0  0  0  0  0  0  0  0  0  0  0  0
    6.8273   -5.0451   22.1785 C   0  0  0  0  0  0  0  0  0  0  0  0
    8.7528   -2.7810   24.1351 C   0  0  0  0  0  0  0  0  0  0  0  0
    9.4238   -5.1689   24.6924 C   0  0  0  0  0  0  0  0  0  0  0  0
    8.4386   -3.2459   22.7142 C   0  0  0  0  0  0  0  0  0  0  0  0
    9.0705   -5.5637   23.2578 C   0  0  0  0  0  0  0  0  0  0  0  0
    9.7719   -3.6840   24.8373 C   0  0  0  0  0  0  0  0  0  0  0  0
   14.1534   -2.2116   25.7501 C   0  0  0  0  0  0  0  0  0  0  0  0
   13.2043   -0.5467   24.1151 C   0  0  0  0  0  0  0  0  0  0  0  0
   11.2945   -1.6156   26.0730 C   0  0  0  0  0  0  0  0  0  0  0  0
    6.1945   -6.2758   22.7776 C   0  0  0  0  0  0  0  0  0  0  0  0
   13.2133   -1.9979   24.5726 C   0  0  0  0  0  0  0  0  0  0  0  0
    8.0600   -4.6583   22.7026 N   0  0  0  0  0  0  0  0  0  0  0  0
   11.8591   -2.3780   24.9668 N   0  0  0  0  0  0  0  0  0  0  0  0
   11.5998   -4.0659   23.3899 O   0  0  0  0  0  0  0  0  0  0  0  0
    6.2410   -4.4458   21.2733 O   0  0  0  0  0  0  0  0  0  0  0  0
    5.9916   -5.9522   24.4957 Cl  0  0  0  0  0  0  0  0  0  0  0  0
  1  7  1  0  0  0  0
  1 14  1  0  0  0  0
  1 15  2  0  0  0  0
  2 11  1  0  0  0  0
  2 13  1  0  0  0  0
  2 16  2  0  0  0  0
  3  5  1  0  0  0  0
  3  7  1  0  0  0  0
  4  6  1  0  0  0  0
  4  7  1  0  0  0  0
  5 13  1  0  0  0  0
  6 13  1  0  0  0  0
  8 12  1  0  0  0  0
  9 12  1  0  0  0  0
 10 14  1  0  0  0  0
 11 17  1  0  0  0  0
 12 14  1  0  0  0  0
M  END
> <ref_mols>
x1362_0

> <original SMILES>
CC(C)N(C)C(=O)C1CCN(CC1)C(=O)CCl

> <Chemgauss4>
-7.862561

> <ref_pdb>
x0749_0

$$$$
x0745
  -OEChem-05172015543D

 17 17  0     0  0  0  0  0  0999 V2000
   11.1551   -3.3998   24.3285 C   0  0  0  0  0  0  0  0  0  0  0  0
    6.8273   -5.0451   22.1785 C   0  0  0  0  0  0  0  0  0  0  0  0
    8.7528   -2.7810   24.1351 C   0  0  0  0  0  0  0  0  0  0  0  0
    9.4238   -5.1689   24.6924 C   0  0  0  0  0  0  0  0  0  0  0  0
    8.4386   -3.2459   22.7142 C   0  0  0  0  0  0  0  0  0  0  0  0
    9.0705   -5.5637   23.2578 C   0  0  0  0  0  0  0  0  0  0  0  0
    9.7719   -3.6840   24.8373 C   0  0  0  0  0  0  0  0  0  0  0  0
   14.1534   -2.2116   25.7501 C   0  0  0  0  0  0  0  0  0  0  0  0
   13.2043   -0.5467   24.1151 C   0  0  0  0  0  0  0  0  0  0  0  0
   11.2945   -1.6156   26.0730 C   0  0  0  0  0  0  0  0  0  0  0  0
    6.1945   -6.2758   22.7776 C   0  0  0  0  0  0  0  0  0  0  0  0
   13.2133   -1.9979   24.5726 C   0  0  0  0  0  0  0  0  0  0  0  0
    8.0600   -4.6583   22.7026 N   0  0  0  0  0  0  0  0  0  0  0  0
   11.8591   -2.3780   24.9668 N   0  0  0  0  0  0  0  0  0  0  0  0
   11.5998   -4.0659   23.3899 O   0  0  0  0  0  0  0  0  0  0  0  0
    6.2410   -4.4458   21.2733 O   0  0  0  0  0  0  0  0  0  0  0  0
    5.9916   -5.9522   24.4957 Cl  0  0  0  0  0  0  0  0  0  0  0  0
  1  7  1  0  0  0  0
  1 14  1  0  0  0  0
  1 15  2  0  0  0  0
  2 11  1  0  0  0  0
  2 13  1  0  0  0  0
  2 16  2  0  0  0  0
  3  5  1  0  0  0  0
  3  7  1  0  0  0  0
  4  6  1  0  0  0  0
  4  7  1  0  0  0  0
  5 13  1  0  0  0  0
  6 13  1  0  0  0  0
  8 12  1  0  0  0  0
  9 12  1  0  0  0  0
 10 14  1  0  0  0  0
 11 17  1  0  0  0  0
 12 14  1  0  0  0  0
M  END
> <ref_mols>
x0745_0

> <original SMILES>
CC(C)N(C)C(=O)C1CCN(CC1)C(=O)CCl

> <Chemgauss4>
-7.862561

> <ref_pdb>
x0749_0

$$$$
x1318
  -OEChem-05172015543D

 17 17  0     0  0  0  0  0  0999 V2000
   11.1551   -3.3998   24.3285 C   0  0  0  0  0  0  0  0  0  0  0  0
    6.8273   -5.0451   22.1785 C   0  0  0  0  0  0  0  0  0  0  0  0
    8.7528   -2.7810   24.1351 C   0  0  0  0  0  0  0  0  0  0  0  0
    9.4238   -5.1689   24.6924 C   0  0  0  0  0  0  0  0  0  0  0  0
    8.4386   -3.2459   22.7142 C   0  0  0  0  0  0  0  0  0  0  0  0
    9.0705   -5.5637   23.2578 C   0  0  0  0  0  0  0  0  0  0  0  0
    9.7719   -3.6840   24.8373 C   0  0  0  0  0  0  0  0  0  0  0  0
   14.1534   -2.2116   25.7501 C   0  0  0  0  0  0  0  0  0  0  0  0
   13.2043   -0.5467   24.1151 C   0  0  0  0  0  0  0  0  0  0  0  0
   11.2945   -1.6156   26.0730 C   0  0  0  0  0  0  0  0  0  0  0  0
    6.1945   -6.2758   22.7776 C   0  0  0  0  0  0  0  0  0  0  0  0
   13.2133   -1.9979   24.5726 C   0  0  0  0  0  0  0  0  0  0  0  0
    8.0600   -4.6583   22.7026 N   0  0  0  0  0  0  0  0  0  0  0  0
   11.8591   -2.3780   24.9668 N   0  0  0  0  0  0  0  0  0  0  0  0
   11.5998   -4.0659   23.3899 O   0  0  0  0  0  0  0  0  0  0  0  0
    6.2410   -4.4458   21.2733 O   0  0  0  0  0  0  0  0  0  0  0  0
    5.9916   -5.9522   24.4957 Cl  0  0  0  0  0  0  0  0  0  0  0  0
  1  7  1  0  0  0  0
  1 14  1  0  0  0  0
  1 15  2  0  0  0  0
  2 11  1  0  0  0  0
  2 13  1  0  0  0  0
  2 16  2  0  0  0  0
  3  5  1  0  0  0  0
  3  7  1  0  0  0  0
  4  6  1  0  0  0  0
  4  7  1  0  0  0  0
  5 13  1  0  0  0  0
  6 13  1  0  0  0  0
  8 12  1  0  0  0  0
  9 12  1  0  0  0  0
 10 14  1  0  0  0  0
 11 17  1  0  0  0  0
 12 14  1  0  0  0  0
M  END
> <ref_mols>
x1318_0

> <original SMILES>
CC(C)N(C)C(=O)C1CCN(CC1)C(=O)CCl

> <Chemgauss4>
-7.862561

> <ref_pdb>
x0749_0

$$$$
x0813
  -OEChem-05172015543D

 17 17  0     0  0  0  0  0  0999 V2000
   11.1551   -3.3998   24.3285 C   0  0  0  0  0  0  0  0  0  0  0  0
    6.8273   -5.0451   22.1785 C   0  0  0  0  0  0  0  0  0  0  0  0
    8.7528   -2.7810   24.1351 C   0  0  0  0  0  0  0  0  0  0  0  0
    9.4238   -5.1689   24.6924 C   0  0  0  0  0  0  0  0  0  0  0  0
    8.4386   -3.2459   22.7142 C   0  0  0  0  0  0  0  0  0  0  0  0
    9.0705   -5.5637   23.2578 C   0  0  0  0  0  0  0  0  0  0  0  0
    9.7719   -3.6840   24.8373 C   0  0  0  0  0  0  0  0  0  0  0  0
   14.1534   -2.2116   25.7501 C   0  0  0  0  0  0  0  0  0  0  0  0
   13.2043   -0.5467   24.1151 C   0  0  0  0  0  0  0  0  0  0  0  0
   11.2945   -1.6156   26.0730 C   0  0  0  0  0  0  0  0  0  0  0  0
    6.1945   -6.2758   22.7776 C   0  0  0  0  0  0  0  0  0  0  0  0
   13.2133   -1.9979   24.5726 C   0  0  0  0  0  0  0  0  0  0  0  0
    8.0600   -4.6583   22.7026 N   0  0  0  0  0  0  0  0  0  0  0  0
   11.8591   -2.3780   24.9668 N   0  0  0  0  0  0  0  0  0  0  0  0
   11.5998   -4.0659   23.3899 O   0  0  0  0  0  0  0  0  0  0  0  0
    6.2410   -4.4458   21.2733 O   0  0  0  0  0  0  0  0  0  0  0  0
    5.9916   -5.9522   24.4957 Cl  0  0  0  0  0  0  0  0  0  0  0  0
  1  7  1  0  0  0  0
  1 14  1  0  0  0  0
  1 15  2  0  0  0  0
  2 11  1  0  0  0  0
  2 13  1  0  0  0  0
  2 16  2  0  0  0  0
  3  5  1  0  0  0  0
  3  7  1  0  0  0  0
  4  6  1  0  0  0  0
  4  7  1  0  0  0  0
  5 13  1  0  0  0  0
  6 13  1  0  0  0  0
  8 12  1  0  0  0  0
  9 12  1  0  0  0  0
 10 14  1  0  0  0  0
 11 17  1  0  0  0  0
 12 14  1  0  0  0  0
M  END
> <ref_mols>
x0813_0

> <original SMILES>
CC(C)N(C)C(=O)C1CCN(CC1)C(=O)CCl

> <Chemgauss4>
-7.862561

> <ref_pdb>
x0749_0

$$$$
x1356
  -OEChem-05172015543D

 17 17  0     0  0  0  0  0  0999 V2000
   11.1551   -3.3998   24.3285 C   0  0  0  0  0  0  0  0  0  0  0  0
    6.8273   -5.0451   22.1785 C   0  0  0  0  0  0  0  0  0  0  0  0
    8.7528   -2.7810   24.1351 C   0  0  0  0  0  0  0  0  0  0  0  0
    9.4238   -5.1689   24.6924 C   0  0  0  0  0  0  0  0  0  0  0  0
    8.4386   -3.2459   22.7142 C   0  0  0  0  0  0  0  0  0  0  0  0
    9.0705   -5.5637   23.2578 C   0  0  0  0  0  0  0  0  0  0  0  0
    9.7719   -3.6840   24.8373 C   0  0  0  0  0  0  0  0  0  0  0  0
   14.1534   -2.2116   25.7501 C   0  0  0  0  0  0  0  0  0  0  0  0
   13.2043   -0.5467   24.1151 C   0  0  0  0  0  0  0  0  0  0  0  0
   11.2945   -1.6156   26.0730 C   0  0  0  0  0  0  0  0  0  0  0  0
    6.1945   -6.2758   22.7776 C   0  0  0  0  0  0  0  0  0  0  0  0
   13.2133   -1.9979   24.5726 C   0  0  0  0  0  0  0  0  0  0  0  0
    8.0600   -4.6583   22.7026 N   0  0  0  0  0  0  0  0  0  0  0  0
   11.8591   -2.3780   24.9668 N   0  0  0  0  0  0  0  0  0  0  0  0
   11.5998   -4.0659   23.3899 O   0  0  0  0  0  0  0  0  0  0  0  0
    6.2410   -4.4458   21.2733 O   0  0  0  0  0  0  0  0  0  0  0  0
    5.9916   -5.9522   24.4957 Cl  0  0  0  0  0  0  0  0  0  0  0  0
  1  7  1  0  0  0  0
  1 14  1  0  0  0  0
  1 15  2  0  0  0  0
  2 11  1  0  0  0  0
  2 13  1  0  0  0  0
  2 16  2  0  0  0  0
  3  5  1  0  0  0  0
  3  7  1  0  0  0  0
  4  6  1  0  0  0  0
  4  7  1  0  0  0  0
  5 13  1  0  0  0  0
  6 13  1  0  0  0  0
  8 12  1  0  0  0  0
  9 12  1  0  0  0  0
 10 14  1  0  0  0  0
 11 17  1  0  0  0  0
 12 14  1  0  0  0  0
M  END
> <ref_mols>
x1356_0

> <original SMILES>
CC(C)N(C)C(=O)C1CCN(CC1)C(=O)CCl

> <Chemgauss4>
-7.862561

> <ref_pdb>
x0749_0

$$$$
x0819
  -OEChem-05172015543D

 17 17  0     0  0  0  0  0  0999 V2000
   11.1551   -3.3998   24.3285 C   0  0  0  0  0  0  0  0  0  0  0  0
    6.8273   -5.0451   22.1785 C   0  0  0  0  0  0  0  0  0  0  0  0
    8.7528   -2.7810   24.1351 C   0  0  0  0  0  0  0  0  0  0  0  0
    9.4238   -5.1689   24.6924 C   0  0  0  0  0  0  0  0  0  0  0  0
    8.4386   -3.2459   22.7142 C   0  0  0  0  0  0  0  0  0  0  0  0
    9.0705   -5.5637   23.2578 C   0  0  0  0  0  0  0  0  0  0  0  0
    9.7719   -3.6840   24.8373 C   0  0  0  0  0  0  0  0  0  0  0  0
   14.1534   -2.2116   25.7501 C   0  0  0  0  0  0  0  0  0  0  0  0
   13.2043   -0.5467   24.1151 C   0  0  0  0  0  0  0  0  0  0  0  0
   11.2945   -1.6156   26.0730 C   0  0  0  0  0  0  0  0  0  0  0  0
    6.1945   -6.2758   22.7776 C   0  0  0  0  0  0  0  0  0  0  0  0
   13.2133   -1.9979   24.5726 C   0  0  0  0  0  0  0  0  0  0  0  0
    8.0600   -4.6583   22.7026 N   0  0  0  0  0  0  0  0  0  0  0  0
   11.8591   -2.3780   24.9668 N   0  0  0  0  0  0  0  0  0  0  0  0
   11.5998   -4.0659   23.3899 O   0  0  0  0  0  0  0  0  0  0  0  0
    6.2410   -4.4458   21.2733 O   0  0  0  0  0  0  0  0  0  0  0  0
    5.9916   -5.9522   24.4957 Cl  0  0  0  0  0  0  0  0  0  0  0  0
  1  7  1  0  0  0  0
  1 14  1  0  0  0  0
  1 15  2  0  0  0  0
  2 11  1  0  0  0  0
  2 13  1  0  0  0  0
  2 16  2  0  0  0  0
  3  5  1  0  0  0  0
  3  7  1  0  0  0  0
  4  6  1  0  0  0  0
  4  7  1  0  0  0  0
  5 13  1  0  0  0  0
  6 13  1  0  0  0  0
  8 12  1  0  0  0  0
  9 12  1  0  0  0  0
 10 14  1  0  0  0  0
 11 17  1  0  0  0  0
 12 14  1  0  0  0  0
M  END
> <ref_mols>
x0819_0

> <original SMILES>
CC(C)N(C)C(=O)C1CCN(CC1)C(=O)CCl

> <Chemgauss4>
-7.862561

> <ref_pdb>
x0749_0

$$$$
x0334
  -OEChem-05172015543D

 13 14  0     0  0  0  0  0  0999 V2000
    6.2125   -1.1831   19.8566 C   0  0  0  0  0  0  0  0  0  0  0  0
    9.8035   -1.1378   22.7946 C   0  0  0  0  0  0  0  0  0  0  0  0
    6.1672    0.4146   18.3394 C   0  0  0  0  0  0  0  0  0  0  0  0
    7.2955   -0.3446   19.9768 C   0  0  0  0  0  0  0  0  0  0  0  0
   10.1961   -0.0225   22.0846 C   0  0  0  0  0  0  0  0  0  0  0  0
    8.3561   -0.4834   20.9836 C   0  0  0  0  0  0  0  0  0  0  0  0
   11.1607    1.9280   23.3302 C   0  0  0  0  0  0  0  0  0  0  0  0
   11.4066    0.7822   22.3430 C   0  0  0  0  0  0  0  0  0  0  0  0
    7.2613    0.6480   19.0296 N   0  0  0  0  0  0  0  0  0  0  0  0
    9.3676    0.3539   21.0455 N   0  0  0  0  0  0  0  0  0  0  0  0
    5.4985   -0.6838   18.8039 N   0  0  0  0  0  0  0  0  0  0  0  0
    8.3378   -1.7469   22.1448 S   0  0  0  0  0  0  0  0  0  0  0  0
    4.6344   -1.0580   18.4353 H   0  0  0  0  0  0  0  0  0  0  0  0
  1  4  2  0  0  0  0
  1 11  1  0  0  0  0
  2  5  2  0  0  0  0
  2 12  1  0  0  0  0
  3  9  2  0  0  0  0
  3 11  1  0  0  0  0
  4  6  1  0  0  0  0
  4  9  1  0  0  0  0
  5  8  1  0  0  0  0
  5 10  1  0  0  0  0
  6 10  2  0  0  0  0
  6 12  1  0  0  0  0
  7  8  1  0  0  0  0
 11 13  1  0  0  0  0
M  END
> <ref_mols>
x0334_0

> <original SMILES>
CCC1=CSC(=N1)C2=CNC=N2

> <Chemgauss4>
-7.856111

> <ref_pdb>
x0434_0

$$$$
x0365
  -OEChem-05172015543D

 20 21  0     0  0  0  0  0  0999 V2000
   13.7760    0.3535   22.8551 C   0  0  0  0  0  0  0  0  0  0  0  0
   12.4880   -0.2517   24.8075 C   0  0  0  0  0  0  0  0  0  0  0  0
   13.2240    1.6340   22.8879 C   0  0  0  0  0  0  0  0  0  0  0  0
   11.9360    1.0289   24.8403 C   0  0  0  0  0  0  0  0  0  0  0  0
   13.4079   -0.5895   23.8149 C   0  0  0  0  0  0  0  0  0  0  0  0
   12.3040    1.9717   23.8805 C   0  0  0  0  0  0  0  0  0  0  0  0
   13.9833   -1.9246   23.7807 C   0  0  0  0  0  0  0  0  0  0  0  0
   11.9978    4.3254   23.0404 C   0  0  0  0  0  0  0  0  0  0  0  0
    7.7649    6.6686   22.6351 C   0  0  0  0  0  0  0  0  0  0  0  0
    7.6319    5.5319   23.6285 C   0  0  0  0  0  0  0  0  0  0  0  0
    9.2520    6.9499   22.6530 C   0  0  0  0  0  0  0  0  0  0  0  0
    8.8255    4.6412   23.3317 C   0  0  0  0  0  0  0  0  0  0  0  0
   14.3745   -2.4771   22.4408 C   0  0  0  0  0  0  0  0  0  0  0  0
   11.1896    5.5414   23.4330 C   0  0  0  0  0  0  0  0  0  0  0  0
   11.7447    3.2713   23.9129 N   0  0  0  0  0  0  0  0  0  0  0  0
    9.8675    5.5703   22.7360 N   0  3  0  0  0  0  0  0  0  0  0  0
   14.1697   -2.6391   24.7679 O   0  0  0  0  0  0  0  0  0  0  0  0
   12.7515    4.3304   22.0728 O   0  0  0  0  0  0  0  0  0  0  0  0
   11.0818    3.4411   24.6665 H   0  0  0  0  0  0  0  0  0  0  0  0
   10.0295    5.2556   21.7694 H   0  0  0  0  0  0  0  0  0  0  0  0
  1  3  2  0  0  0  0
  1  5  1  0  0  0  0
  2  4  1  0  0  0  0
  2  5  2  0  0  0  0
  3  6  1  0  0  0  0
  4  6  2  0  0  0  0
  5  7  1  0  0  0  0
  6 15  1  0  0  0  0
  7 13  1  0  0  0  0
  7 17  2  0  0  0  0
  8 14  1  0  0  0  0
  8 15  1  0  0  0  0
  8 18  2  0  0  0  0
  9 10  1  0  0  0  0
  9 11  1  0  0  0  0
 10 12  1  0  0  0  0
 11 16  1  0  0  0  0
 12 16  1  0  0  0  0
 14 16  1  0  0  0  0
 15 19  1  0  0  0  0
 16 20  1  0  0  0  0
M  CHG  1  16   1
M  END
> <ref_mols>
x0365_0

> <original SMILES>
CC(=O)C=1C=CC(NC(=O)CN2CCCC2)=CC1

> <Chemgauss4>
-7.854779

> <ref_pdb>
x0161_0

$$$$
x1076
  -OEChem-05172015543D

 20 21  0     0  0  0  0  0  0999 V2000
   13.7760    0.3535   22.8551 C   0  0  0  0  0  0  0  0  0  0  0  0
   12.4880   -0.2517   24.8075 C   0  0  0  0  0  0  0  0  0  0  0  0
   13.2240    1.6340   22.8879 C   0  0  0  0  0  0  0  0  0  0  0  0
   11.9360    1.0289   24.8403 C   0  0  0  0  0  0  0  0  0  0  0  0
   13.4079   -0.5895   23.8149 C   0  0  0  0  0  0  0  0  0  0  0  0
   12.3040    1.9717   23.8805 C   0  0  0  0  0  0  0  0  0  0  0  0
   13.9833   -1.9246   23.7807 C   0  0  0  0  0  0  0  0  0  0  0  0
   11.9978    4.3254   23.0404 C   0  0  0  0  0  0  0  0  0  0  0  0
    7.7649    6.6686   22.6351 C   0  0  0  0  0  0  0  0  0  0  0  0
    7.6319    5.5319   23.6285 C   0  0  0  0  0  0  0  0  0  0  0  0
    9.2520    6.9499   22.6530 C   0  0  0  0  0  0  0  0  0  0  0  0
    8.8255    4.6412   23.3317 C   0  0  0  0  0  0  0  0  0  0  0  0
   14.3745   -2.4771   22.4408 C   0  0  0  0  0  0  0  0  0  0  0  0
   11.1896    5.5414   23.4330 C   0  0  0  0  0  0  0  0  0  0  0  0
   11.7447    3.2713   23.9129 N   0  0  0  0  0  0  0  0  0  0  0  0
    9.8675    5.5703   22.7360 N   0  3  0  0  0  0  0  0  0  0  0  0
   14.1697   -2.6391   24.7679 O   0  0  0  0  0  0  0  0  0  0  0  0
   12.7515    4.3304   22.0728 O   0  0  0  0  0  0  0  0  0  0  0  0
   11.0818    3.4411   24.6665 H   0  0  0  0  0  0  0  0  0  0  0  0
   10.0295    5.2556   21.7694 H   0  0  0  0  0  0  0  0  0  0  0  0
  1  3  2  0  0  0  0
  1  5  1  0  0  0  0
  2  4  1  0  0  0  0
  2  5  2  0  0  0  0
  3  6  1  0  0  0  0
  4  6  2  0  0  0  0
  5  7  1  0  0  0  0
  6 15  1  0  0  0  0
  7 13  1  0  0  0  0
  7 17  2  0  0  0  0
  8 14  1  0  0  0  0
  8 15  1  0  0  0  0
  8 18  2  0  0  0  0
  9 10  1  0  0  0  0
  9 11  1  0  0  0  0
 10 12  1  0  0  0  0
 11 16  1  0  0  0  0
 12 16  1  0  0  0  0
 14 16  1  0  0  0  0
 15 19  1  0  0  0  0
 16 20  1  0  0  0  0
M  CHG  1  16   1
M  END
> <ref_mols>
x1076_0

> <original SMILES>
CC(=O)C=1C=CC(NC(=O)CN2CCCC2)=CC1

> <Chemgauss4>
-7.854779

> <ref_pdb>
x0161_0

$$$$
x0642
  -OEChem-05172015543D

 15 15  0     1  0  0  0  0  0999 V2000
   12.8421    0.0378   23.0006 C   0  0  0  0  0  0  0  0  0  0  0  0
   13.3633   -1.0436   22.2695 C   0  0  0  0  0  0  0  0  0  0  0  0
   11.6047   -0.4000   23.3922 C   0  0  0  0  0  0  0  0  0  0  0  0
   13.4596    3.8354   22.8355 C   0  0  0  0  0  0  0  0  0  0  0  0
   14.6730   -1.1422   21.6035 C   0  0  0  0  0  0  0  0  0  0  0  0
   10.5138    0.1941   24.1759 C   0  0  0  0  0  0  0  0  0  0  0  0
   14.0652    2.2536   20.9789 C   0  0  0  0  0  0  0  0  0  0  0  0
   12.6170    5.7914   24.0759 C   0  0  0  0  0  0  0  0  0  0  0  0
   11.0147    4.0067   23.5370 C   0  0  0  0  0  0  0  0  0  0  0  0
   13.4886    1.3705   23.2897 C   0  0  0  0  0  0  0  0  0  0  0  0
   13.1955    2.4500   22.2285 C   0  0  1  0  0  0  0  0  0  0  0  0
   12.5141   -2.0733   22.2120 N   0  0  0  0  0  0  0  0  0  0  0  0
   12.3928    4.4864   23.4636 N   0  0  0  0  0  0  0  0  0  0  0  0
   14.5951    4.3201   22.7748 O   0  0  0  0  0  0  0  0  0  0  0  0
   11.3973   -1.6586   22.9277 O   0  0  0  0  0  0  0  0  0  0  0  0
  1  2  1  0  0  0  0
  1  3  2  0  0  0  0
  1 10  1  0  0  0  0
  2  5  1  0  0  0  0
  2 12  2  0  0  0  0
  3  6  1  0  0  0  0
  3 15  1  0  0  0  0
  4 11  1  0  0  0  0
  4 13  1  0  0  0  0
  4 14  2  0  0  0  0
  7 11  1  0  0  0  0
  8 13  1  0  0  0  0
  9 13  1  0  0  0  0
 10 11  1  0  0  0  0
 12 15  1  0  0  0  0
M  END
> <ref_mols>
x0642_0

> <original SMILES>
CC(CC=1C(C)=NOC1C)C(=O)N(C)C

> <Chemgauss4>
-7.850477

> <ref_pdb>
x0195_0

$$$$
x1139
  -OEChem-05172015543D

 15 15  0     1  0  0  0  0  0999 V2000
   12.8421    0.0378   23.0006 C   0  0  0  0  0  0  0  0  0  0  0  0
   13.3633   -1.0436   22.2695 C   0  0  0  0  0  0  0  0  0  0  0  0
   11.6047   -0.4000   23.3922 C   0  0  0  0  0  0  0  0  0  0  0  0
   13.4596    3.8354   22.8355 C   0  0  0  0  0  0  0  0  0  0  0  0
   14.6730   -1.1422   21.6035 C   0  0  0  0  0  0  0  0  0  0  0  0
   10.5138    0.1941   24.1759 C   0  0  0  0  0  0  0  0  0  0  0  0
   14.0652    2.2536   20.9789 C   0  0  0  0  0  0  0  0  0  0  0  0
   12.6170    5.7914   24.0759 C   0  0  0  0  0  0  0  0  0  0  0  0
   11.0147    4.0067   23.5370 C   0  0  0  0  0  0  0  0  0  0  0  0
   13.4886    1.3705   23.2897 C   0  0  0  0  0  0  0  0  0  0  0  0
   13.1955    2.4500   22.2285 C   0  0  1  0  0  0  0  0  0  0  0  0
   12.5141   -2.0733   22.2120 N   0  0  0  0  0  0  0  0  0  0  0  0
   12.3928    4.4864   23.4636 N   0  0  0  0  0  0  0  0  0  0  0  0
   14.5951    4.3201   22.7748 O   0  0  0  0  0  0  0  0  0  0  0  0
   11.3973   -1.6586   22.9277 O   0  0  0  0  0  0  0  0  0  0  0  0
  1  2  1  0  0  0  0
  1  3  2  0  0  0  0
  1 10  1  0  0  0  0
  2  5  1  0  0  0  0
  2 12  2  0  0  0  0
  3  6  1  0  0  0  0
  3 15  1  0  0  0  0
  4 11  1  0  0  0  0
  4 13  1  0  0  0  0
  4 14  2  0  0  0  0
  7 11  1  0  0  0  0
  8 13  1  0  0  0  0
  9 13  1  0  0  0  0
 10 11  1  0  0  0  0
 12 15  1  0  0  0  0
M  END
> <ref_mols>
x1139_0

> <original SMILES>
CC(CC=1C(C)=NOC1C)C(=O)N(C)C

> <Chemgauss4>
-7.850477

> <ref_pdb>
x0195_0

$$$$
x0178
  -OEChem-05172015543D

 15 16  0     0  0  0  0  0  0999 V2000
   13.2170   -2.5377   22.7129 C   0  0  0  0  0  0  0  0  0  0  0  0
   14.3620   -1.7658   22.9102 C   0  0  0  0  0  0  0  0  0  0  0  0
   11.9727   -1.9200   22.5866 C   0  0  0  0  0  0  0  0  0  0  0  0
   14.2627   -0.3763   22.9813 C   0  0  0  0  0  0  0  0  0  0  0  0
   13.9013    2.5142   22.5605 C   0  0  0  0  0  0  0  0  0  0  0  0
   11.8734   -0.5305   22.6577 C   0  0  0  0  0  0  0  0  0  0  0  0
   13.0184    0.2414   22.8550 C   0  0  0  0  0  0  0  0  0  0  0  0
   13.3308    3.7318   22.8347 C   0  0  0  0  0  0  0  0  0  0  0  0
   13.9857    5.0874   22.6066 C   0  0  0  0  0  0  0  0  0  0  0  0
   10.5253    0.1005   22.5188 C   0  0  0  0  0  0  0  0  0  0  0  0
   12.0766    3.5467   23.3467 N   0  0  0  0  0  0  0  0  0  0  0  0
   11.8468    2.2393   23.4011 N   0  0  0  0  0  0  0  0  0  0  0  0
   12.9421    1.6220   22.9294 N   0  0  0  0  0  0  0  0  0  0  0  0
   13.3068    6.1070   22.9191 O   0  5  0  0  0  0  0  0  0  0  0  0
   15.1539    5.0808   22.1234 O   0  0  0  0  0  0  0  0  0  0  0  0
  1  2  1  0  0  0  0
  1  3  2  0  0  0  0
  2  4  2  0  0  0  0
  3  6  1  0  0  0  0
  4  7  1  0  0  0  0
  5  8  2  0  0  0  0
  5 13  1  0  0  0  0
  6  7  2  0  0  0  0
  6 10  1  0  0  0  0
  7 13  1  0  0  0  0
  8  9  1  0  0  0  0
  8 11  1  0  0  0  0
  9 14  1  0  0  0  0
  9 15  2  0  0  0  0
 11 12  2  0  0  0  0
 12 13  1  0  0  0  0
M  CHG  1  14  -1
M  END
> <ref_mols>
x0178_0

> <original SMILES>
CC=1C=CC=CC1N2C=C(N=N2)C(=O)O

> <Chemgauss4>
-7.846395

> <ref_pdb>
x0195_0

$$$$
x0156
  -OEChem-05172015543D

 15 16  0     1  0  0  0  0  0999 V2000
    8.1476   -2.4370   22.4904 C   0  0  0  0  0  0  0  0  0  0  0  0
    9.9213   -4.7512   24.8935 C   0  0  0  0  0  0  0  0  0  0  0  0
    8.6933   -3.6253   23.0058 C   0  0  0  0  0  0  0  0  0  0  0  0
    9.7638   -3.7323   23.9774 C   0  0  0  0  0  0  0  0  0  0  0  0
    7.9818   -4.6110   22.3747 C   0  0  0  0  0  0  0  0  0  0  0  0
   11.5953   -3.0201   24.9512 C   0  0  0  0  0  0  0  0  0  0  0  0
    8.0072   -6.0795   22.4199 C   0  0  0  0  0  0  0  0  0  0  0  0
   13.3539   -1.4449   24.0708 C   0  0  0  0  0  0  0  0  0  0  0  0
   14.7533   -2.2594   26.5824 C   0  0  0  0  0  0  0  0  0  0  0  0
   12.7934   -2.1652   25.2892 C   0  0  2  0  0  0  0  0  0  0  0  0
    7.1722   -2.6679   21.6072 N   0  0  0  0  0  0  0  0  0  0  0  0
   10.7226   -2.7385   24.0093 N   0  0  0  0  0  0  0  0  0  0  0  0
    7.0709   -4.0522   21.5374 O   0  0  0  0  0  0  0  0  0  0  0  0
   13.8068   -3.0075   25.8348 O   0  0  0  0  0  0  0  0  0  0  0  0
   11.3244   -4.4647   25.8371 S   0  0  0  0  0  0  0  0  0  0  0  0
  1  3  1  0  0  0  0
  1 11  2  0  0  0  0
  2  4  2  0  0  0  0
  2 15  1  0  0  0  0
  3  4  1  0  0  0  0
  3  5  2  0  0  0  0
  4 12  1  0  0  0  0
  5  7  1  0  0  0  0
  5 13  1  0  0  0  0
  6 10  1  0  0  0  0
  6 12  2  0  0  0  0
  6 15  1  0  0  0  0
  8 10  1  0  0  0  0
  9 14  1  0  0  0  0
 10 14  1  0  0  0  0
 11 13  1  0  0  0  0
M  END
> <ref_mols>
x0156_0

> <original SMILES>
COC(C)C1=NC(=CS1)C=2C=NOC2C

> <Chemgauss4>
-7.843478

> <ref_pdb>
x0749_0

$$$$
x1111
  -OEChem-05172015543D

 15 16  0     1  0  0  0  0  0999 V2000
    8.1476   -2.4370   22.4904 C   0  0  0  0  0  0  0  0  0  0  0  0
    9.9213   -4.7512   24.8935 C   0  0  0  0  0  0  0  0  0  0  0  0
    8.6933   -3.6253   23.0058 C   0  0  0  0  0  0  0  0  0  0  0  0
    9.7638   -3.7323   23.9774 C   0  0  0  0  0  0  0  0  0  0  0  0
    7.9818   -4.6110   22.3747 C   0  0  0  0  0  0  0  0  0  0  0  0
   11.5953   -3.0201   24.9512 C   0  0  0  0  0  0  0  0  0  0  0  0
    8.0072   -6.0795   22.4199 C   0  0  0  0  0  0  0  0  0  0  0  0
   13.3539   -1.4449   24.0708 C   0  0  0  0  0  0  0  0  0  0  0  0
   14.7533   -2.2594   26.5824 C   0  0  0  0  0  0  0  0  0  0  0  0
   12.7934   -2.1652   25.2892 C   0  0  2  0  0  0  0  0  0  0  0  0
    7.1722   -2.6679   21.6072 N   0  0  0  0  0  0  0  0  0  0  0  0
   10.7226   -2.7385   24.0093 N   0  0  0  0  0  0  0  0  0  0  0  0
    7.0709   -4.0522   21.5374 O   0  0  0  0  0  0  0  0  0  0  0  0
   13.8068   -3.0075   25.8348 O   0  0  0  0  0  0  0  0  0  0  0  0
   11.3244   -4.4647   25.8371 S   0  0  0  0  0  0  0  0  0  0  0  0
  1  3  1  0  0  0  0
  1 11  2  0  0  0  0
  2  4  2  0  0  0  0
  2 15  1  0  0  0  0
  3  4  1  0  0  0  0
  3  5  2  0  0  0  0
  4 12  1  0  0  0  0
  5  7  1  0  0  0  0
  5 13  1  0  0  0  0
  6 10  1  0  0  0  0
  6 12  2  0  0  0  0
  6 15  1  0  0  0  0
  8 10  1  0  0  0  0
  9 14  1  0  0  0  0
 10 14  1  0  0  0  0
 11 13  1  0  0  0  0
M  END
> <ref_mols>
x1111_0

> <original SMILES>
COC(C)C1=NC(=CS1)C=2C=NOC2C

> <Chemgauss4>
-7.843478

> <ref_pdb>
x0749_0

$$$$
x0250
  -OEChem-05172015543D

 14 15  0     0  0  0  0  0  0999 V2000
   12.3878   -1.3251   22.3520 C   0  0  0  0  0  0  0  0  0  0  0  0
   13.7406   -1.4553   22.5867 C   0  0  0  0  0  0  0  0  0  0  0  0
   12.8964    0.8002   22.5376 C   0  0  0  0  0  0  0  0  0  0  0  0
   11.4997    2.7876   23.0301 C   0  0  0  0  0  0  0  0  0  0  0  0
   13.5367    2.9792   21.6036 C   0  0  0  0  0  0  0  0  0  0  0  0
   11.7216    4.2105   23.5235 C   0  0  0  0  0  0  0  0  0  0  0  0
   13.7487    4.3991   22.1080 C   0  0  0  0  0  0  0  0  0  0  0  0
   14.5699   -2.6721   22.6827 C   0  0  0  0  0  0  0  0  0  0  0  0
   11.9019   -0.0325   22.3238 N   0  0  0  0  0  0  0  0  0  0  0  0
   12.7638    2.1932   22.5774 N   0  0  0  0  0  0  0  0  0  0  0  0
   12.4284    4.9916   22.4685 N   0  3  0  0  0  0  0  0  0  0  0  0
   14.4431    0.0973   22.7797 S   0  0  0  0  0  0  0  0  0  0  0  0
   11.8361    5.0603   21.6290 H   0  0  0  0  0  0  0  0  0  0  0  0
   12.5661    5.9582   22.7940 H   0  0  0  0  0  0  0  0  0  0  0  0
  1  2  2  0  0  0  0
  1  9  1  0  0  0  0
  2  8  1  0  0  0  0
  2 12  1  0  0  0  0
  3  9  2  0  0  0  0
  3 10  1  0  0  0  0
  3 12  1  0  0  0  0
  4  6  1  0  0  0  0
  4 10  1  0  0  0  0
  5  7  1  0  0  0  0
  5 10  1  0  0  0  0
  6 11  1  0  0  0  0
  7 11  1  0  0  0  0
 11 13  1  0  0  0  0
 11 14  1  0  0  0  0
M  CHG  1  11   1
M  END
> <ref_mols>
x0250_0

> <original SMILES>
CC1=CN=C(S1)N2CCNCC2

> <Chemgauss4>
-7.842334

> <ref_pdb>
x0195_0

$$$$
x0336
  -OEChem-05172015543D

 18 18  0     0  0  0  0  0  0999 V2000
    9.2748   -5.1828   24.2656 C   0  0  0  0  0  0  0  0  0  0  0  0
    9.6335   -2.9746   23.3535 C   0  0  0  0  0  0  0  0  0  0  0  0
    8.1130   -5.3087   23.5040 C   0  0  0  0  0  0  0  0  0  0  0  0
    8.4717   -3.1004   22.5919 C   0  0  0  0  0  0  0  0  0  0  0  0
   10.0350   -4.0157   24.1903 C   0  0  0  0  0  0  0  0  0  0  0  0
    7.7114   -4.2675   22.6672 C   0  0  0  0  0  0  0  0  0  0  0  0
   13.0814   -2.1812   25.2006 C   0  0  0  0  0  0  0  0  0  0  0  0
   13.3387   -0.7114   25.2416 C   0  0  0  0  0  0  0  0  0  0  0  0
   11.2769   -3.8806   25.0050 C   0  0  0  0  0  0  0  0  0  0  0  0
    5.0913   -3.7931   22.7878 N   0  0  0  0  0  0  0  0  0  0  0  0
   11.7458   -2.5195   25.0672 N   0  0  0  0  0  0  0  0  0  0  0  0
   14.0226   -2.9618   25.2819 O   0  0  0  0  0  0  0  0  0  0  0  0
    6.3661   -3.5397   20.5616 O   0  0  0  0  0  0  0  0  0  0  0  0
    5.9890   -5.8427   21.5111 O   0  0  0  0  0  0  0  0  0  0  0  0
    6.2585   -4.4257   21.7122 S   0  0  0  0  0  0  0  0  0  0  0  0
    4.6847   -2.8747   22.5720 H   0  0  0  0  0  0  0  0  0  0  0  0
    4.4295   -4.4487   23.2210 H   0  0  0  0  0  0  0  0  0  0  0  0
   11.0607   -1.7692   25.0103 H   0  0  0  0  0  0  0  0  0  0  0  0
  1  3  2  0  0  0  0
  1  5  1  0  0  0  0
  2  4  1  0  0  0  0
  2  5  2  0  0  0  0
  3  6  1  0  0  0  0
  4  6  2  0  0  0  0
  5  9  1  0  0  0  0
  6 15  1  0  0  0  0
  7  8  1  0  0  0  0
  7 11  1  0  0  0  0
  7 12  2  0  0  0  0
  9 11  1  0  0  0  0
 10 15  1  0  0  0  0
 13 15  2  0  0  0  0
 14 15  2  0  0  0  0
 10 16  1  0  0  0  0
 10 17  1  0  0  0  0
 11 18  1  0  0  0  0
M  END
> <ref_mols>
x0336_0

> <original SMILES>
CC(=O)NCC=1C=CC(=CC1)S(=O)(=O)N

> <Chemgauss4>
-7.839079

> <ref_pdb>
x0749_0

$$$$
x0044
  -OEChem-05172015543D

 18 18  0     0  0  0  0  0  0999 V2000
   12.4527   -1.6680   23.4846 C   0  0  0  0  0  0  0  0  0  0  0  0
   11.6472   -0.6252   23.9420 C   0  0  0  0  0  0  0  0  0  0  0  0
   13.9737   -0.0647   22.5082 C   0  0  0  0  0  0  0  0  0  0  0  0
   13.6161   -1.3877   22.7677 C   0  0  0  0  0  0  0  0  0  0  0  0
   13.1681    0.9781   22.9656 C   0  0  0  0  0  0  0  0  0  0  0  0
   12.0048    0.6978   23.6825 C   0  0  0  0  0  0  0  0  0  0  0  0
   12.7064    3.4134   22.5236 C   0  0  0  0  0  0  0  0  0  0  0  0
   14.4767   -2.5033   22.2790 C   0  0  0  0  0  0  0  0  0  0  0  0
   10.0355    1.3211   24.8612 C   0  0  0  0  0  0  0  0  0  0  0  0
   13.5184    4.6590   22.2496 C   0  0  0  0  0  0  0  0  0  0  0  0
   13.5390    2.2979   22.6977 N   0  0  0  0  0  0  0  0  0  0  0  0
   12.6480    5.8402   22.0359 N   0  3  0  0  0  0  0  0  0  0  0  0
   11.4813    3.4351   22.5792 O   0  0  0  0  0  0  0  0  0  0  0  0
   11.2038    1.7023   24.1381 O   0  0  0  0  0  0  0  0  0  0  0  0
   14.5457    2.4787   22.6178 H   0  0  0  0  0  0  0  0  0  0  0  0
   13.0093    6.6588   22.5376 H   0  0  0  0  0  0  0  0  0  0  0  0
   11.6953    5.6598   22.3714 H   0  0  0  0  0  0  0  0  0  0  0  0
   12.5918    6.0801   21.0399 H   0  0  0  0  0  0  0  0  0  0  0  0
  1  2  2  0  0  0  0
  1  4  1  0  0  0  0
  2  6  1  0  0  0  0
  3  4  2  0  0  0  0
  3  5  1  0  0  0  0
  4  8  1  0  0  0  0
  5  6  2  0  0  0  0
  5 11  1  0  0  0  0
  6 14  1  0  0  0  0
  7 10  1  0  0  0  0
  7 11  1  0  0  0  0
  7 13  2  0  0  0  0
  9 14  1  0  0  0  0
 10 12  1  0  0  0  0
 11 15  1  0  0  0  0
 12 16  1  0  0  0  0
 12 17  1  0  0  0  0
 12 18  1  0  0  0  0
M  CHG  1  12   1
M  END
> <ref_mols>
x0044_0

> <original SMILES>
COC=1C=CC(C)=CC1NC(=O)CN

> <Chemgauss4>
-7.838633

> <ref_pdb>
x0195_0

$$$$
x0889
  -OEChem-05172015543D

 17 19  0     0  0  0  0  0  0999 V2000
   12.1159   -1.4919   25.0428 C   0  0  0  0  0  0  0  0  0  0  0  0
   12.4830   -2.5070   25.9260 C   0  0  0  0  0  0  0  0  0  0  0  0
   11.1783   -1.7416   24.0398 C   0  0  0  0  0  0  0  0  0  0  0  0
   11.9110   -3.7738   25.8121 C   0  0  0  0  0  0  0  0  0  0  0  0
   10.5892   -3.0052   23.9277 C   0  0  0  0  0  0  0  0  0  0  0  0
   10.9585   -4.0160   24.8200 C   0  0  0  0  0  0  0  0  0  0  0  0
    9.3556   -5.6095   23.8387 C   0  0  0  0  0  0  0  0  0  0  0  0
    9.6403   -3.3285   22.8083 C   0  0  0  0  0  0  0  0  0  0  0  0
    7.8415   -4.8426   21.9343 C   0  0  0  0  0  0  0  0  0  0  0  0
    7.6043   -3.8389   24.2410 C   0  0  0  0  0  0  0  0  0  0  0  0
    6.5512   -5.6071   22.2200 C   0  0  0  0  0  0  0  0  0  0  0  0
    6.3668   -4.7157   24.3958 C   0  0  0  0  0  0  0  0  0  0  0  0
    8.6080   -4.4110   23.2078 C   0  0  0  0  0  0  0  0  0  0  0  0
   10.3939   -5.2959   24.6983 N   0  0  0  0  0  0  0  0  0  0  0  0
    9.0059   -6.7771   23.6606 O   0  0  0  0  0  0  0  0  0  0  0  0
    5.7251   -4.8980   23.1375 O   0  0  0  0  0  0  0  0  0  0  0  0
   10.8022   -6.0449   25.2505 H   0  0  0  0  0  0  0  0  0  0  0  0
  1  2  2  0  0  0  0
  1  3  1  0  0  0  0
  2  4  1  0  0  0  0
  3  5  2  0  0  0  0
  4  6  2  0  0  0  0
  5  6  1  0  0  0  0
  5  8  1  0  0  0  0
  6 14  1  0  0  0  0
  7 13  1  0  0  0  0
  7 14  1  0  0  0  0
  7 15  2  0  0  0  0
  8 13  1  0  0  0  0
  9 11  1  0  0  0  0
  9 13  1  0  0  0  0
 10 12  1  0  0  0  0
 10 13  1  0  0  0  0
 11 16  1  0  0  0  0
 12 16  1  0  0  0  0
 14 17  1  0  0  0  0
M  END
> <ref_mols>
x0889_0

> <original SMILES>
O=C(NC(C=CC=C1)=C1C2)C32CCOCC3

> <Chemgauss4>
-7.835081

> <ref_pdb>
x0749_0

$$$$
x0805
  -OEChem-05172015543D

 20 21  0     0  0  0  0  0  0999 V2000
   10.8843   -1.7773   25.8142 C   0  0  0  0  0  0  0  0  0  0  0  0
   11.9112   -3.8408   25.0902 C   0  0  0  0  0  0  0  0  0  0  0  0
    9.6531   -2.2205   25.3312 C   0  0  0  0  0  0  0  0  0  0  0  0
   10.6800   -4.2841   24.6072 C   0  0  0  0  0  0  0  0  0  0  0  0
   12.0134   -2.5874   25.6937 C   0  0  0  0  0  0  0  0  0  0  0  0
    9.5509   -3.4739   24.7277 C   0  0  0  0  0  0  0  0  0  0  0  0
    5.8883   -2.0158   19.6088 C   0  0  0  0  0  0  0  0  0  0  0  0
    7.3799   -1.8381   21.5752 C   0  0  0  0  0  0  0  0  0  0  0  0
    6.1077   -3.9341   21.2649 C   0  0  0  0  0  0  0  0  0  0  0  0
    8.6418   -2.6438   21.8581 C   0  0  0  0  0  0  0  0  0  0  0  0
    7.3700   -4.7401   21.5524 C   0  0  0  0  0  0  0  0  0  0  0  0
   13.3301   -2.1135   26.2093 C   0  0  0  0  0  0  0  0  0  0  0  0
    6.2992   -0.5958   19.3116 C   0  0  0  0  0  0  0  0  0  0  0  0
    6.4449   -2.6020   20.7450 N   0  0  0  0  0  0  0  0  0  0  0  0
    8.2892   -3.9708   22.4385 N   0  0  0  0  0  0  0  0  0  0  0  0
    5.0945   -2.5844   18.8547 O   0  0  0  0  0  0  0  0  0  0  0  0
    7.8339   -5.4182   24.5159 O   0  0  0  0  0  0  0  0  0  0  0  0
    6.9964   -3.0427   24.4576 O   0  0  0  0  0  0  0  0  0  0  0  0
    7.9925   -4.0360   24.1184 S   0  0  0  0  0  0  0  0  0  0  0  0
    5.4817   -0.1359   17.8222 Cl  0  0  0  0  0  0  0  0  0  0  0  0
  1  3  2  0  0  0  0
  1  5  1  0  0  0  0
  2  4  1  0  0  0  0
  2  5  2  0  0  0  0
  3  6  1  0  0  0  0
  4  6  2  0  0  0  0
  5 12  1  0  0  0  0
  6 19  1  0  0  0  0
  7 13  1  0  0  0  0
  7 14  1  0  0  0  0
  7 16  2  0  0  0  0
  8 10  1  0  0  0  0
  8 14  1  0  0  0  0
  9 11  1  0  0  0  0
  9 14  1  0  0  0  0
 10 15  1  0  0  0  0
 11 15  1  0  0  0  0
 13 20  1  0  0  0  0
 15 19  1  0  0  0  0
 17 19  2  0  0  0  0
 18 19  2  0  0  0  0
M  END
> <ref_mols>
x0805_0

> <original SMILES>
Cc1ccc(cc1)S(=O)(=O)N2CCN(CC2)C(=O)CCl

> <Chemgauss4>
-7.833354

> <ref_pdb>
x0749_0

$$$$
x1353
  -OEChem-05172015543D

 20 21  0     0  0  0  0  0  0999 V2000
   10.8843   -1.7773   25.8142 C   0  0  0  0  0  0  0  0  0  0  0  0
   11.9112   -3.8408   25.0902 C   0  0  0  0  0  0  0  0  0  0  0  0
    9.6531   -2.2205   25.3312 C   0  0  0  0  0  0  0  0  0  0  0  0
   10.6800   -4.2841   24.6072 C   0  0  0  0  0  0  0  0  0  0  0  0
   12.0134   -2.5874   25.6937 C   0  0  0  0  0  0  0  0  0  0  0  0
    9.5509   -3.4739   24.7277 C   0  0  0  0  0  0  0  0  0  0  0  0
    5.8883   -2.0158   19.6088 C   0  0  0  0  0  0  0  0  0  0  0  0
    7.3799   -1.8381   21.5752 C   0  0  0  0  0  0  0  0  0  0  0  0
    6.1077   -3.9341   21.2649 C   0  0  0  0  0  0  0  0  0  0  0  0
    8.6418   -2.6438   21.8581 C   0  0  0  0  0  0  0  0  0  0  0  0
    7.3700   -4.7401   21.5524 C   0  0  0  0  0  0  0  0  0  0  0  0
   13.3301   -2.1135   26.2093 C   0  0  0  0  0  0  0  0  0  0  0  0
    6.2992   -0.5958   19.3116 C   0  0  0  0  0  0  0  0  0  0  0  0
    6.4449   -2.6020   20.7450 N   0  0  0  0  0  0  0  0  0  0  0  0
    8.2892   -3.9708   22.4385 N   0  0  0  0  0  0  0  0  0  0  0  0
    5.0945   -2.5844   18.8547 O   0  0  0  0  0  0  0  0  0  0  0  0
    7.8339   -5.4182   24.5159 O   0  0  0  0  0  0  0  0  0  0  0  0
    6.9964   -3.0427   24.4576 O   0  0  0  0  0  0  0  0  0  0  0  0
    7.9925   -4.0360   24.1184 S   0  0  0  0  0  0  0  0  0  0  0  0
    5.4817   -0.1359   17.8222 Cl  0  0  0  0  0  0  0  0  0  0  0  0
  1  3  2  0  0  0  0
  1  5  1  0  0  0  0
  2  4  1  0  0  0  0
  2  5  2  0  0  0  0
  3  6  1  0  0  0  0
  4  6  2  0  0  0  0
  5 12  1  0  0  0  0
  6 19  1  0  0  0  0
  7 13  1  0  0  0  0
  7 14  1  0  0  0  0
  7 16  2  0  0  0  0
  8 10  1  0  0  0  0
  8 14  1  0  0  0  0
  9 11  1  0  0  0  0
  9 14  1  0  0  0  0
 10 15  1  0  0  0  0
 11 15  1  0  0  0  0
 13 20  1  0  0  0  0
 15 19  1  0  0  0  0
 17 19  2  0  0  0  0
 18 19  2  0  0  0  0
M  END
> <ref_mols>
x1353_0

> <original SMILES>
Cc1ccc(cc1)S(=O)(=O)N2CCN(CC2)C(=O)CCl

> <Chemgauss4>
-7.833354

> <ref_pdb>
x0749_0

$$$$
x1428
  -OEChem-05172015543D

 20 21  0     0  0  0  0  0  0999 V2000
   10.8843   -1.7773   25.8142 C   0  0  0  0  0  0  0  0  0  0  0  0
   11.9112   -3.8408   25.0902 C   0  0  0  0  0  0  0  0  0  0  0  0
    9.6531   -2.2205   25.3312 C   0  0  0  0  0  0  0  0  0  0  0  0
   10.6800   -4.2841   24.6072 C   0  0  0  0  0  0  0  0  0  0  0  0
   12.0134   -2.5874   25.6937 C   0  0  0  0  0  0  0  0  0  0  0  0
    9.5509   -3.4739   24.7277 C   0  0  0  0  0  0  0  0  0  0  0  0
    5.8883   -2.0158   19.6088 C   0  0  0  0  0  0  0  0  0  0  0  0
    7.3799   -1.8381   21.5752 C   0  0  0  0  0  0  0  0  0  0  0  0
    6.1077   -3.9341   21.2649 C   0  0  0  0  0  0  0  0  0  0  0  0
    8.6418   -2.6438   21.8581 C   0  0  0  0  0  0  0  0  0  0  0  0
    7.3700   -4.7401   21.5524 C   0  0  0  0  0  0  0  0  0  0  0  0
   13.3301   -2.1135   26.2093 C   0  0  0  0  0  0  0  0  0  0  0  0
    6.2992   -0.5958   19.3116 C   0  0  0  0  0  0  0  0  0  0  0  0
    6.4449   -2.6020   20.7450 N   0  0  0  0  0  0  0  0  0  0  0  0
    8.2892   -3.9708   22.4385 N   0  0  0  0  0  0  0  0  0  0  0  0
    5.0945   -2.5844   18.8547 O   0  0  0  0  0  0  0  0  0  0  0  0
    7.8339   -5.4182   24.5159 O   0  0  0  0  0  0  0  0  0  0  0  0
    6.9964   -3.0427   24.4576 O   0  0  0  0  0  0  0  0  0  0  0  0
    7.9925   -4.0360   24.1184 S   0  0  0  0  0  0  0  0  0  0  0  0
    5.4817   -0.1359   17.8222 Cl  0  0  0  0  0  0  0  0  0  0  0  0
  1  3  2  0  0  0  0
  1  5  1  0  0  0  0
  2  4  1  0  0  0  0
  2  5  2  0  0  0  0
  3  6  1  0  0  0  0
  4  6  2  0  0  0  0
  5 12  1  0  0  0  0
  6 19  1  0  0  0  0
  7 13  1  0  0  0  0
  7 14  1  0  0  0  0
  7 16  2  0  0  0  0
  8 10  1  0  0  0  0
  8 14  1  0  0  0  0
  9 11  1  0  0  0  0
  9 14  1  0  0  0  0
 10 15  1  0  0  0  0
 11 15  1  0  0  0  0
 13 20  1  0  0  0  0
 15 19  1  0  0  0  0
 17 19  2  0  0  0  0
 18 19  2  0  0  0  0
M  END
> <ref_mols>
x1428_0

> <original SMILES>
Cc1ccc(cc1)S(=O)(=O)N2CCN(CC2)C(=O)CCl

> <Chemgauss4>
-7.833354

> <ref_pdb>
x0749_0

$$$$
x1401
  -OEChem-05172015543D

 20 21  0     0  0  0  0  0  0999 V2000
   10.8843   -1.7773   25.8142 C   0  0  0  0  0  0  0  0  0  0  0  0
   11.9112   -3.8408   25.0902 C   0  0  0  0  0  0  0  0  0  0  0  0
    9.6531   -2.2205   25.3312 C   0  0  0  0  0  0  0  0  0  0  0  0
   10.6800   -4.2841   24.6072 C   0  0  0  0  0  0  0  0  0  0  0  0
   12.0134   -2.5874   25.6937 C   0  0  0  0  0  0  0  0  0  0  0  0
    9.5509   -3.4739   24.7277 C   0  0  0  0  0  0  0  0  0  0  0  0
    5.8883   -2.0158   19.6088 C   0  0  0  0  0  0  0  0  0  0  0  0
    7.3799   -1.8381   21.5752 C   0  0  0  0  0  0  0  0  0  0  0  0
    6.1077   -3.9341   21.2649 C   0  0  0  0  0  0  0  0  0  0  0  0
    8.6418   -2.6438   21.8581 C   0  0  0  0  0  0  0  0  0  0  0  0
    7.3700   -4.7401   21.5524 C   0  0  0  0  0  0  0  0  0  0  0  0
   13.3301   -2.1135   26.2093 C   0  0  0  0  0  0  0  0  0  0  0  0
    6.2992   -0.5958   19.3116 C   0  0  0  0  0  0  0  0  0  0  0  0
    6.4449   -2.6020   20.7450 N   0  0  0  0  0  0  0  0  0  0  0  0
    8.2892   -3.9708   22.4385 N   0  0  0  0  0  0  0  0  0  0  0  0
    5.0945   -2.5844   18.8547 O   0  0  0  0  0  0  0  0  0  0  0  0
    7.8339   -5.4182   24.5159 O   0  0  0  0  0  0  0  0  0  0  0  0
    6.9964   -3.0427   24.4576 O   0  0  0  0  0  0  0  0  0  0  0  0
    7.9925   -4.0360   24.1184 S   0  0  0  0  0  0  0  0  0  0  0  0
    5.4817   -0.1359   17.8222 Cl  0  0  0  0  0  0  0  0  0  0  0  0
  1  3  2  0  0  0  0
  1  5  1  0  0  0  0
  2  4  1  0  0  0  0
  2  5  2  0  0  0  0
  3  6  1  0  0  0  0
  4  6  2  0  0  0  0
  5 12  1  0  0  0  0
  6 19  1  0  0  0  0
  7 13  1  0  0  0  0
  7 14  1  0  0  0  0
  7 16  2  0  0  0  0
  8 10  1  0  0  0  0
  8 14  1  0  0  0  0
  9 11  1  0  0  0  0
  9 14  1  0  0  0  0
 10 15  1  0  0  0  0
 11 15  1  0  0  0  0
 13 20  1  0  0  0  0
 15 19  1  0  0  0  0
 17 19  2  0  0  0  0
 18 19  2  0  0  0  0
M  END
> <ref_mols>
x1401_0

> <original SMILES>
Cc1ccc(cc1)S(=O)(=O)N2CCN(CC2)C(=O)CCl

> <Chemgauss4>
-7.833354

> <ref_pdb>
x0749_0

$$$$
x0731
  -OEChem-05172015543D

 20 21  0     0  0  0  0  0  0999 V2000
   10.8843   -1.7773   25.8142 C   0  0  0  0  0  0  0  0  0  0  0  0
   11.9112   -3.8408   25.0902 C   0  0  0  0  0  0  0  0  0  0  0  0
    9.6531   -2.2205   25.3312 C   0  0  0  0  0  0  0  0  0  0  0  0
   10.6800   -4.2841   24.6072 C   0  0  0  0  0  0  0  0  0  0  0  0
   12.0134   -2.5874   25.6937 C   0  0  0  0  0  0  0  0  0  0  0  0
    9.5509   -3.4739   24.7277 C   0  0  0  0  0  0  0  0  0  0  0  0
    5.8883   -2.0158   19.6088 C   0  0  0  0  0  0  0  0  0  0  0  0
    7.3799   -1.8381   21.5752 C   0  0  0  0  0  0  0  0  0  0  0  0
    6.1077   -3.9341   21.2649 C   0  0  0  0  0  0  0  0  0  0  0  0
    8.6418   -2.6438   21.8581 C   0  0  0  0  0  0  0  0  0  0  0  0
    7.3700   -4.7401   21.5524 C   0  0  0  0  0  0  0  0  0  0  0  0
   13.3301   -2.1135   26.2093 C   0  0  0  0  0  0  0  0  0  0  0  0
    6.2992   -0.5958   19.3116 C   0  0  0  0  0  0  0  0  0  0  0  0
    6.4449   -2.6020   20.7450 N   0  0  0  0  0  0  0  0  0  0  0  0
    8.2892   -3.9708   22.4385 N   0  0  0  0  0  0  0  0  0  0  0  0
    5.0945   -2.5844   18.8547 O   0  0  0  0  0  0  0  0  0  0  0  0
    7.8339   -5.4182   24.5159 O   0  0  0  0  0  0  0  0  0  0  0  0
    6.9964   -3.0427   24.4576 O   0  0  0  0  0  0  0  0  0  0  0  0
    7.9925   -4.0360   24.1184 S   0  0  0  0  0  0  0  0  0  0  0  0
    5.4817   -0.1359   17.8222 Cl  0  0  0  0  0  0  0  0  0  0  0  0
  1  3  2  0  0  0  0
  1  5  1  0  0  0  0
  2  4  1  0  0  0  0
  2  5  2  0  0  0  0
  3  6  1  0  0  0  0
  4  6  2  0  0  0  0
  5 12  1  0  0  0  0
  6 19  1  0  0  0  0
  7 13  1  0  0  0  0
  7 14  1  0  0  0  0
  7 16  2  0  0  0  0
  8 10  1  0  0  0  0
  8 14  1  0  0  0  0
  9 11  1  0  0  0  0
  9 14  1  0  0  0  0
 10 15  1  0  0  0  0
 11 15  1  0  0  0  0
 13 20  1  0  0  0  0
 15 19  1  0  0  0  0
 17 19  2  0  0  0  0
 18 19  2  0  0  0  0
M  END
> <ref_mols>
x0731_0

> <original SMILES>
Cc1ccc(cc1)S(=O)(=O)N2CCN(CC2)C(=O)CCl

> <Chemgauss4>
-7.833354

> <ref_pdb>
x0749_0

> <CYS145-warhead dist minimum (A)>
6.7385364

> <CYS145-warhead dist mean (A)>
8.5632515

> <CYS145-warhead dist stddev (A)>
0.50001264

$$$$
x1264
  -OEChem-05172015543D

 13 13  0     0  0  0  0  0  0999 V2000
   14.0344   -0.6448   21.8246 C   0  0  0  0  0  0  0  0  0  0  0  0
   13.5944    0.2984   22.7230 C   0  0  0  0  0  0  0  0  0  0  0  0
   12.4931   -1.5980   22.9410 C   0  0  0  0  0  0  0  0  0  0  0  0
   11.6756    3.8033   23.7940 C   0  0  0  0  0  0  0  0  0  0  0  0
   12.4818    6.1367   23.3998 C   0  0  0  0  0  0  0  0  0  0  0  0
   13.8767    4.2212   22.6920 C   0  0  0  0  0  0  0  0  0  0  0  0
   11.8170    0.2559   24.5137 C   0  0  0  0  0  0  0  0  0  0  0  0
   11.0810    1.5182   24.0851 C   0  0  0  0  0  0  0  0  0  0  0  0
   13.3446   -1.8230   21.9652 N   0  0  0  0  0  0  0  0  0  0  0  0
   12.6068   -0.3266   23.4310 N   0  0  0  0  0  0  0  0  0  0  0  0
   12.6450    4.6889   23.3117 N   0  0  0  0  0  0  0  0  0  0  0  0
   10.6217    4.1509   24.3240 O   0  0  0  0  0  0  0  0  0  0  0  0
   12.0227    2.4900   23.6156 O   0  0  0  0  0  0  0  0  0  0  0  0
  1  2  2  0  0  0  0
  1  9  1  0  0  0  0
  2 10  1  0  0  0  0
  3  9  2  0  0  0  0
  3 10  1  0  0  0  0
  4 11  1  0  0  0  0
  4 12  2  0  0  0  0
  4 13  1  0  0  0  0
  5 11  1  0  0  0  0
  6 11  1  0  0  0  0
  7  8  1  0  0  0  0
  7 10  1  0  0  0  0
  8 13  1  0  0  0  0
M  END
> <ref_mols>
x1264_0

> <original SMILES>
CN(C)C(=O)OCCN1C=CN=C1

> <Chemgauss4>
-7.830452

> <ref_pdb>
x0195_0

$$$$
x0605
  -OEChem-05172015543D

 13 13  0     0  0  0  0  0  0999 V2000
   14.0344   -0.6448   21.8246 C   0  0  0  0  0  0  0  0  0  0  0  0
   13.5944    0.2984   22.7230 C   0  0  0  0  0  0  0  0  0  0  0  0
   12.4931   -1.5980   22.9410 C   0  0  0  0  0  0  0  0  0  0  0  0
   11.6756    3.8033   23.7940 C   0  0  0  0  0  0  0  0  0  0  0  0
   12.4818    6.1367   23.3998 C   0  0  0  0  0  0  0  0  0  0  0  0
   13.8767    4.2212   22.6920 C   0  0  0  0  0  0  0  0  0  0  0  0
   11.8170    0.2559   24.5137 C   0  0  0  0  0  0  0  0  0  0  0  0
   11.0810    1.5182   24.0851 C   0  0  0  0  0  0  0  0  0  0  0  0
   13.3446   -1.8230   21.9652 N   0  0  0  0  0  0  0  0  0  0  0  0
   12.6068   -0.3266   23.4310 N   0  0  0  0  0  0  0  0  0  0  0  0
   12.6450    4.6889   23.3117 N   0  0  0  0  0  0  0  0  0  0  0  0
   10.6217    4.1509   24.3240 O   0  0  0  0  0  0  0  0  0  0  0  0
   12.0227    2.4900   23.6156 O   0  0  0  0  0  0  0  0  0  0  0  0
  1  2  2  0  0  0  0
  1  9  1  0  0  0  0
  2 10  1  0  0  0  0
  3  9  2  0  0  0  0
  3 10  1  0  0  0  0
  4 11  1  0  0  0  0
  4 12  2  0  0  0  0
  4 13  1  0  0  0  0
  5 11  1  0  0  0  0
  6 11  1  0  0  0  0
  7  8  1  0  0  0  0
  7 10  1  0  0  0  0
  8 13  1  0  0  0  0
M  END
> <ref_mols>
x0605_0

> <original SMILES>
CN(C)C(=O)OCCN1C=CN=C1

> <Chemgauss4>
-7.830452

> <ref_pdb>
x0195_0

$$$$
x1154
  -OEChem-05172015543D

 15 16  0     1  0  0  0  0  0999 V2000
   14.1951   -0.4151   22.0022 C   0  0  0  0  0  0  0  0  0  0  0  0
   13.9981    0.9578   22.1942 C   0  0  0  0  0  0  0  0  0  0  0  0
   13.2993   -1.3352   22.5326 C   0  0  0  0  0  0  0  0  0  0  0  0
   12.8918    1.4415   22.9103 C   0  0  0  0  0  0  0  0  0  0  0  0
   11.9949    0.4901   23.4342 C   0  0  0  0  0  0  0  0  0  0  0  0
   12.2025   -0.8833   23.2558 C   0  0  0  0  0  0  0  0  0  0  0  0
   13.4259    3.8696   22.5844 C   0  0  0  0  0  0  0  0  0  0  0  0
   11.5984    3.1205   24.1407 C   0  0  0  0  0  0  0  0  0  0  0  0
   10.4410    2.1521   23.9531 C   0  0  2  0  0  0  0  0  0  0  0  0
   12.7041    5.1836   22.3814 C   0  0  0  0  0  0  0  0  0  0  0  0
    9.3281    2.4336   24.9556 C   0  0  0  0  0  0  0  0  0  0  0  0
   12.6724    2.8410   23.1741 N   0  0  0  0  0  0  0  0  0  0  0  0
   14.5974    3.7904   22.2104 O   0  0  0  0  0  0  0  0  0  0  0  0
   10.8805    0.8121   24.1677 O   0  0  0  0  0  0  0  0  0  0  0  0
   11.3409   -1.7710   23.7730 F   0  0  0  0  0  0  0  0  0  0  0  0
  1  2  2  0  0  0  0
  1  3  1  0  0  0  0
  2  4  1  0  0  0  0
  3  6  2  0  0  0  0
  4  5  2  0  0  0  0
  4 12  1  0  0  0  0
  5  6  1  0  0  0  0
  5 14  1  0  0  0  0
  6 15  1  0  0  0  0
  7 10  1  0  0  0  0
  7 12  1  0  0  0  0
  7 13  2  0  0  0  0
  8  9  1  0  0  0  0
  8 12  1  0  0  0  0
  9 11  1  0  0  0  0
  9 14  1  0  0  0  0
M  END
> <ref_mols>
x1154_0

> <original SMILES>
CC1CN(C(=O)C)C=2C=CC=C(F)C2O1

> <Chemgauss4>
-7.827809

> <ref_pdb>
x0195_0

$$$$
x0335
  -OEChem-05172015543D

 15 16  0     1  0  0  0  0  0999 V2000
   14.1951   -0.4151   22.0022 C   0  0  0  0  0  0  0  0  0  0  0  0
   13.9981    0.9578   22.1942 C   0  0  0  0  0  0  0  0  0  0  0  0
   13.2993   -1.3352   22.5326 C   0  0  0  0  0  0  0  0  0  0  0  0
   12.8918    1.4415   22.9103 C   0  0  0  0  0  0  0  0  0  0  0  0
   11.9949    0.4901   23.4342 C   0  0  0  0  0  0  0  0  0  0  0  0
   12.2025   -0.8833   23.2558 C   0  0  0  0  0  0  0  0  0  0  0  0
   13.4259    3.8696   22.5844 C   0  0  0  0  0  0  0  0  0  0  0  0
   11.5984    3.1205   24.1407 C   0  0  0  0  0  0  0  0  0  0  0  0
   10.4410    2.1521   23.9531 C   0  0  2  0  0  0  0  0  0  0  0  0
   12.7041    5.1836   22.3814 C   0  0  0  0  0  0  0  0  0  0  0  0
    9.3281    2.4336   24.9556 C   0  0  0  0  0  0  0  0  0  0  0  0
   12.6724    2.8410   23.1741 N   0  0  0  0  0  0  0  0  0  0  0  0
   14.5974    3.7904   22.2104 O   0  0  0  0  0  0  0  0  0  0  0  0
   10.8805    0.8121   24.1677 O   0  0  0  0  0  0  0  0  0  0  0  0
   11.3409   -1.7710   23.7730 F   0  0  0  0  0  0  0  0  0  0  0  0
  1  2  2  0  0  0  0
  1  3  1  0  0  0  0
  2  4  1  0  0  0  0
  3  6  2  0  0  0  0
  4  5  2  0  0  0  0
  4 12  1  0  0  0  0
  5  6  1  0  0  0  0
  5 14  1  0  0  0  0
  6 15  1  0  0  0  0
  7 10  1  0  0  0  0
  7 12  1  0  0  0  0
  7 13  2  0  0  0  0
  8  9  1  0  0  0  0
  8 12  1  0  0  0  0
  9 11  1  0  0  0  0
  9 14  1  0  0  0  0
M  END
> <ref_mols>
x0335_0

> <original SMILES>
CC1CN(C(=O)C)C=2C=CC=C(F)C2O1

> <Chemgauss4>
-7.827809

> <ref_pdb>
x0195_0

$$$$
x0484
  -OEChem-05172015543D

 19 19  0     1  0  0  0  0  0999 V2000
   10.7812   -1.8902   22.8686 C   0  0  0  0  0  0  0  0  0  0  0  0
   11.4716   -0.0094   21.5184 C   0  0  0  0  0  0  0  0  0  0  0  0
   12.0855   -2.0285   23.3431 C   0  0  0  0  0  0  0  0  0  0  0  0
   12.7760   -0.1476   21.9929 C   0  0  0  0  0  0  0  0  0  0  0  0
   10.4742   -0.8807   21.9562 C   0  0  0  0  0  0  0  0  0  0  0  0
   13.0829   -1.1572   22.9053 C   0  0  0  0  0  0  0  0  0  0  0  0
    8.6648    0.2032   20.5663 C   0  0  0  0  0  0  0  0  0  0  0  0
    4.9520    1.4723   21.3613 C   0  0  0  0  0  0  0  0  0  0  0  0
    5.0645    0.9025   19.9528 C   0  0  0  0  0  0  0  0  0  0  0  0
    6.5794    0.2315   18.0518 C   0  0  0  0  0  0  0  0  0  0  0  0
    6.5142    0.8304   19.4570 C   0  0  2  0  0  0  0  0  0  0  0  0
    9.1515   -0.7403   21.4754 N   0  0  0  0  0  0  0  0  0  0  0  0
    7.3004    0.0036   20.3531 N   0  0  0  0  0  0  0  0  0  0  0  0
    9.3114    1.0911   20.0155 O   0  0  0  0  0  0  0  0  0  0  0  0
    7.8134    0.5927   17.4415 O   0  0  0  0  0  0  0  0  0  0  0  0
   14.6924   -1.3278   23.4910 Cl  0  0  0  0  0  0  0  0  0  0  0  0
    8.4767   -1.4095   21.8374 H   0  0  0  0  0  0  0  0  0  0  0  0
    6.8389   -0.7512   20.8452 H   0  0  0  0  0  0  0  0  0  0  0  0
    7.8132    0.1943   16.5567 H   0  0  0  0  0  0  0  0  0  0  0  0
  1  3  2  0  0  0  0
  1  5  1  0  0  0  0
  2  4  1  0  0  0  0
  2  5  2  0  0  0  0
  3  6  1  0  0  0  0
  4  6  2  0  0  0  0
  5 12  1  0  0  0  0
  6 16  1  0  0  0  0
  7 12  1  0  0  0  0
  7 13  1  0  0  0  0
  7 14  2  0  0  0  0
  8  9  1  0  0  0  0
  9 11  1  0  0  0  0
 10 11  1  0  0  0  0
 10 15  1  0  0  0  0
 11 13  1  0  0  0  0
 12 17  1  0  0  0  0
 13 18  1  0  0  0  0
 15 19  1  0  0  0  0
M  END
> <ref_mols>
x0484_0

> <original SMILES>
CC[C@H](CO)NC(=O)NC=1C=CC(Cl)=CC1

> <Chemgauss4>
-7.825851

> <ref_pdb>
x0678_0

$$$$
x1152
  -OEChem-05172015543D

 19 19  0     1  0  0  0  0  0999 V2000
   10.7812   -1.8902   22.8686 C   0  0  0  0  0  0  0  0  0  0  0  0
   11.4716   -0.0094   21.5184 C   0  0  0  0  0  0  0  0  0  0  0  0
   12.0855   -2.0285   23.3431 C   0  0  0  0  0  0  0  0  0  0  0  0
   12.7760   -0.1476   21.9929 C   0  0  0  0  0  0  0  0  0  0  0  0
   10.4742   -0.8807   21.9562 C   0  0  0  0  0  0  0  0  0  0  0  0
   13.0829   -1.1572   22.9053 C   0  0  0  0  0  0  0  0  0  0  0  0
    8.6648    0.2032   20.5663 C   0  0  0  0  0  0  0  0  0  0  0  0
    4.9520    1.4723   21.3613 C   0  0  0  0  0  0  0  0  0  0  0  0
    5.0645    0.9025   19.9528 C   0  0  0  0  0  0  0  0  0  0  0  0
    6.5794    0.2315   18.0518 C   0  0  0  0  0  0  0  0  0  0  0  0
    6.5142    0.8304   19.4570 C   0  0  2  0  0  0  0  0  0  0  0  0
    9.1515   -0.7403   21.4754 N   0  0  0  0  0  0  0  0  0  0  0  0
    7.3004    0.0036   20.3531 N   0  0  0  0  0  0  0  0  0  0  0  0
    9.3114    1.0911   20.0155 O   0  0  0  0  0  0  0  0  0  0  0  0
    7.8134    0.5927   17.4415 O   0  0  0  0  0  0  0  0  0  0  0  0
   14.6924   -1.3278   23.4910 Cl  0  0  0  0  0  0  0  0  0  0  0  0
    8.4767   -1.4095   21.8374 H   0  0  0  0  0  0  0  0  0  0  0  0
    6.8389   -0.7512   20.8452 H   0  0  0  0  0  0  0  0  0  0  0  0
    7.8132    0.1943   16.5567 H   0  0  0  0  0  0  0  0  0  0  0  0
  1  3  2  0  0  0  0
  1  5  1  0  0  0  0
  2  4  1  0  0  0  0
  2  5  2  0  0  0  0
  3  6  1  0  0  0  0
  4  6  2  0  0  0  0
  5 12  1  0  0  0  0
  6 16  1  0  0  0  0
  7 12  1  0  0  0  0
  7 13  1  0  0  0  0
  7 14  2  0  0  0  0
  8  9  1  0  0  0  0
  9 11  1  0  0  0  0
 10 11  1  0  0  0  0
 10 15  1  0  0  0  0
 11 13  1  0  0  0  0
 12 17  1  0  0  0  0
 13 18  1  0  0  0  0
 15 19  1  0  0  0  0
M  END
> <ref_mols>
x1152_0

> <original SMILES>
CC[C@H](CO)NC(=O)NC=1C=CC(Cl)=CC1

> <Chemgauss4>
-7.825851

> <ref_pdb>
x0678_0

$$$$
x0575
  -OEChem-05172015543D

 15 16  0     0  0  0  0  0  0999 V2000
   13.6471   -2.9669   24.3487 C   0  0  0  0  0  0  0  0  0  0  0  0
   14.2342   -1.8208   24.8447 C   0  0  0  0  0  0  0  0  0  0  0  0
   12.4274   -2.7920   23.7273 C   0  0  0  0  0  0  0  0  0  0  0  0
   12.4918   -0.5539   24.1194 C   0  0  0  0  0  0  0  0  0  0  0  0
   11.9284    3.0071   23.1274 C   0  0  0  0  0  0  0  0  0  0  0  0
   10.3243    2.3600   24.9347 C   0  0  0  0  0  0  0  0  0  0  0  0
   12.1743    1.5300   22.8202 C   0  0  0  0  0  0  0  0  0  0  0  0
   10.5705    0.8857   24.6185 C   0  0  0  0  0  0  0  0  0  0  0  0
   10.5255    3.2400   23.6966 C   0  0  0  0  0  0  0  0  0  0  0  0
   10.3136    4.7133   24.0363 C   0  0  0  0  0  0  0  0  0  0  0  0
   13.6825   -0.5934   24.7472 N   0  0  0  0  0  0  0  0  0  0  0  0
   11.8185   -1.5954   23.5946 N   0  0  0  0  0  0  0  0  0  0  0  0
   11.8901    0.7044   23.9986 N   0  0  0  0  0  0  0  0  0  0  0  0
   10.0185    5.4122   22.8412 O   0  0  0  0  0  0  0  0  0  0  0  0
    9.8877    6.3456   23.0808 H   0  0  0  0  0  0  0  0  0  0  0  0
  1  2  1  0  0  0  0
  1  3  2  0  0  0  0
  2 11  2  0  0  0  0
  3 12  1  0  0  0  0
  4 11  1  0  0  0  0
  4 12  2  0  0  0  0
  4 13  1  0  0  0  0
  5  7  1  0  0  0  0
  5  9  1  0  0  0  0
  6  8  1  0  0  0  0
  6  9  1  0  0  0  0
  7 13  1  0  0  0  0
  8 13  1  0  0  0  0
  9 10  1  0  0  0  0
 10 14  1  0  0  0  0
 14 15  1  0  0  0  0
M  END
> <ref_mols>
x0575_0

> <original SMILES>
OCC1CCN(CC1)C=2N=CC=CN2

> <Chemgauss4>
-7.820461

> <ref_pdb>
x0161_0

$$$$
x2062
  -OEChem-05172015543D

 32 36  0     1  0  0  0  0  0999 V2000
    9.9814    3.2947   23.1289 C   0  0  0  0  0  0  0  0  0  0  0  0
    5.6538    0.7550   17.9998 C   0  0  0  0  0  0  0  0  0  0  0  0
   13.3929    0.0814   22.3587 C   0  0  0  0  0  0  0  0  0  0  0  0
    8.9922    2.9863   24.0627 C   0  0  0  0  0  0  0  0  0  0  0  0
    9.9622    2.6961   21.8691 C   0  0  0  0  0  0  0  0  0  0  0  0
    5.0854    1.6043   18.9491 C   0  0  0  0  0  0  0  0  0  0  0  0
    6.6158   -0.1783   18.3859 C   0  0  0  0  0  0  0  0  0  0  0  0
   13.4966    0.6950   23.6166 C   0  0  0  0  0  0  0  0  0  0  0  0
   12.2819   -0.7007   22.0398 C   0  0  0  0  0  0  0  0  0  0  0  0
    7.9838    2.0794   23.7368 C   0  0  0  0  0  0  0  0  0  0  0  0
    8.9539    1.7891   21.5432 C   0  0  0  0  0  0  0  0  0  0  0  0
    5.4792    1.5204   20.2846 C   0  0  0  0  0  0  0  0  0  0  0  0
    7.0097   -0.2622   19.7214 C   0  0  0  0  0  0  0  0  0  0  0  0
   12.4907    0.5348   24.5736 C   0  0  0  0  0  0  0  0  0  0  0  0
   11.2935   -0.8496   23.0008 C   0  0  0  0  0  0  0  0  0  0  0  0
    7.9646    1.4807   22.4770 C   0  0  0  0  0  0  0  0  0  0  0  0
    6.4414    0.5872   20.6708 C   0  0  0  0  0  0  0  0  0  0  0  0
   11.3900   -0.2430   24.2521 C   0  0  0  0  0  0  0  0  0  0  0  0
   10.0536   -1.6333   22.8477 C   0  0  0  0  0  0  0  0  0  0  0  0
    7.2522   -4.3306   24.0853 C   0  0  0  0  0  0  0  0  0  0  0  0
    7.0087   -1.2010   23.7614 C   0  0  0  0  0  0  0  0  0  0  0  0
    6.8921   -3.8390   25.4564 C   0  0  0  0  0  0  0  0  0  0  0  0
    7.8307   -2.6658   25.6373 C   0  0  0  0  0  0  0  0  0  0  0  0
    8.0363   -2.1938   24.2175 C   0  0  2  0  0  0  0  0  0  0  0  0
    6.8701    0.4956   22.1225 C   0  0  0  0  0  0  0  0  0  0  0  0
    9.3023   -1.5550   24.0128 N   0  0  0  0  0  0  0  0  0  0  0  0
    9.7883   -2.2376   21.8201 O   0  0  0  0  0  0  0  0  0  0  0  0
    6.9518   -5.4197   23.6215 O   0  0  0  0  0  0  0  0  0  0  0  0
    6.0861   -0.8006   24.4583 O   0  0  0  0  0  0  0  0  0  0  0  0
    7.9414   -3.3607   23.4079 O   0  0  0  0  0  0  0  0  0  0  0  0
    7.2706   -0.8323   22.4751 O   0  0  0  0  0  0  0  0  0  0  0  0
    9.9874   -0.6075   25.2640 S   0  0  0  0  0  0  0  0  0  0  0  0
  1  4  1  0  0  0  0
  1  5  2  0  0  0  0
  2  6  1  0  0  0  0
  2  7  2  0  0  0  0
  3  8  1  0  0  0  0
  3  9  2  0  0  0  0
  4 10  2  0  0  0  0
  5 11  1  0  0  0  0
  6 12  2  0  0  0  0
  7 13  1  0  0  0  0
  8 14  2  0  0  0  0
  9 15  1  0  0  0  0
 10 16  1  0  0  0  0
 11 16  2  0  0  0  0
 12 17  1  0  0  0  0
 13 17  2  0  0  0  0
 14 18  1  0  0  0  0
 15 18  2  0  0  0  0
 15 19  1  0  0  0  0
 16 25  1  0  0  0  0
 17 25  1  0  0  0  0
 18 32  1  0  0  0  0
 19 26  1  0  0  0  0
 19 27  2  0  0  0  0
 20 22  1  0  0  0  0
 20 28  2  0  0  0  0
 20 30  1  0  0  0  0
 21 24  1  0  0  0  0
 21 29  2  0  0  0  0
 21 31  1  0  0  0  0
 22 23  1  0  0  0  0
 23 24  1  0  0  0  0
 24 26  1  0  0  0  0
 24 30  1  0  0  0  0
 25 31  1  0  0  0  0
 26 32  1  0  0  0  0
M  END
> <ref_mols>
x2062_0

> <original SMILES>
O=C1C2=CC=CC=C2SN1C3(C(OC(C4=CC=CC=C4)C5=CC=CC=C5)=O)OC(CC3)=O

> <Chemgauss4>
-7.819194

> <ref_pdb>
x0874_0

$$$$
x0172
  -OEChem-05172015543D

 15 16  0     0  0  0  0  0  0999 V2000
    9.5547   -1.3951   21.2833 C   0  0  0  0  0  0  0  0  0  0  0  0
    8.8600   -0.2227   20.9856 C   0  0  0  0  0  0  0  0  0  0  0  0
   10.8951   -1.3339   21.6645 C   0  0  0  0  0  0  0  0  0  0  0  0
    9.5058    1.0108   21.0690 C   0  0  0  0  0  0  0  0  0  0  0  0
   11.5408   -0.1003   21.7479 C   0  0  0  0  0  0  0  0  0  0  0  0
   10.8462    1.0721   21.4501 C   0  0  0  0  0  0  0  0  0  0  0  0
   13.3399    0.6585   23.3160 C   0  0  0  0  0  0  0  0  0  0  0  0
   13.8215   -1.0777   21.6527 C   0  0  0  0  0  0  0  0  0  0  0  0
   13.6369   -0.3565   24.4146 C   0  0  0  0  0  0  0  0  0  0  0  0
   14.1155   -2.0332   22.8101 C   0  0  0  0  0  0  0  0  0  0  0  0
   12.8762   -0.0621   22.1283 N   0  0  0  0  0  0  0  0  0  0  0  0
   11.4807    2.3320   21.5281 N   0  0  0  0  0  0  0  0  0  0  0  0
   14.5975   -1.3124   23.9498 O   0  0  0  0  0  0  0  0  0  0  0  0
   10.9713    3.1493   21.2636 H   0  0  0  0  0  0  0  0  0  0  0  0
   12.4525    2.3726   21.7550 H   0  0  0  0  0  0  0  0  0  0  0  0
  1  2  1  0  0  0  0
  1  3  2  0  0  0  0
  2  4  2  0  0  0  0
  3  5  1  0  0  0  0
  4  6  1  0  0  0  0
  5  6  2  0  0  0  0
  5 11  1  0  0  0  0
  6 12  1  0  0  0  0
  7  9  1  0  0  0  0
  7 11  1  0  0  0  0
  8 10  1  0  0  0  0
  8 11  1  0  0  0  0
  9 13  1  0  0  0  0
 10 13  1  0  0  0  0
 12 14  1  0  0  0  0
 12 15  1  0  0  0  0
M  END
> <ref_mols>
x0172_0

> <original SMILES>
NC=1C=CC=CC1N2CCOCC2

> <Chemgauss4>
-7.817389

> <ref_pdb>
x0678_0

$$$$
x0035
  -OEChem-05172015543D

 15 16  0     0  0  0  0  0  0999 V2000
    7.6145   -0.0460   20.9126 C   0  0  0  0  0  0  0  0  0  0  0  0
   13.6053   -0.3111   22.6231 C   0  0  0  0  0  0  0  0  0  0  0  0
   12.9010    0.6816   23.5395 C   0  0  0  0  0  0  0  0  0  0  0  0
   12.7475   -1.4076   22.0013 C   0  0  0  0  0  0  0  0  0  0  0  0
   11.4920    1.0706   23.1067 C   0  0  0  0  0  0  0  0  0  0  0  0
    8.4698   -3.0759   23.0539 C   0  0  0  0  0  0  0  0  0  0  0  0
   11.6945   -2.0157   22.9284 C   0  0  0  0  0  0  0  0  0  0  0  0
   10.4236    0.1112   23.6377 C   0  0  0  0  0  0  0  0  0  0  0  0
    9.3610   -2.1471   23.8738 C   0  0  0  0  0  0  0  0  0  0  0  0
    7.5718   -2.2565   22.1305 C   0  0  0  0  0  0  0  0  0  0  0  0
    9.7295   -1.1731   21.5405 C   0  0  0  0  0  0  0  0  0  0  0  0
   10.3186   -1.2892   22.9773 C   0  0  0  0  0  0  0  0  0  0  0  0
    6.1072   -0.1179   20.8804 C   0  0  0  0  0  0  0  0  0  0  0  0
    8.2674   -1.1101   21.5374 N   0  0  0  0  0  0  0  0  0  0  0  0
    8.1875    0.9235   20.4102 O   0  0  0  0  0  0  0  0  0  0  0  0
  1 13  1  0  0  0  0
  1 14  1  0  0  0  0
  1 15  2  0  0  0  0
  2  3  1  0  0  0  0
  2  4  1  0  0  0  0
  3  5  1  0  0  0  0
  4  7  1  0  0  0  0
  5  8  1  0  0  0  0
  6  9  1  0  0  0  0
  6 10  1  0  0  0  0
  7 12  1  0  0  0  0
  8 12  1  0  0  0  0
  9 12  1  0  0  0  0
 10 14  1  0  0  0  0
 11 12  1  0  0  0  0
 11 14  1  0  0  0  0
M  END
> <ref_mols>
x0035_0

> <original SMILES>
CC(=O)N1CCCC2(C1)CCCCCC2

> <Chemgauss4>
-7.816387

> <ref_pdb>
x1093_0

$$$$
x0524
  -OEChem-05172015543D

 16 16  0     0  0  0  0  0  0999 V2000
   13.1954    1.4068   22.6061 C   0  0  0  0  0  0  0  0  0  0  0  0
   12.3660    0.4650   23.1740 C   0  0  0  0  0  0  0  0  0  0  0  0
   12.6674    2.7251   22.7229 C   0  0  0  0  0  0  0  0  0  0  0  0
   11.4542    2.7405   23.3755 C   0  0  0  0  0  0  0  0  0  0  0  0
   13.3527    3.9309   22.1993 C   0  0  0  0  0  0  0  0  0  0  0  0
    9.3477    6.3615   23.4469 C   0  0  0  0  0  0  0  0  0  0  0  0
    7.6753    4.7404   24.4099 C   0  0  0  0  0  0  0  0  0  0  0  0
   10.5746    3.9116   23.7007 C   0  0  0  0  0  0  0  0  0  0  0  0
    7.5290    5.3611   21.9720 C   0  0  0  0  0  0  0  0  0  0  0  0
    8.4679    5.1418   23.1649 C   0  0  0  0  0  0  0  0  0  0  0  0
    9.3802    4.0006   22.8280 N   0  3  0  0  0  0  0  0  0  0  0  0
    6.7366    4.2051   21.7298 O   0  0  0  0  0  0  0  0  0  0  0  0
   10.9570    1.1704   23.8444 S   0  0  0  0  0  0  0  0  0  0  0  0
    9.6725    4.0967   21.8500 H   0  0  0  0  0  0  0  0  0  0  0  0
    8.8442    3.1285   22.8850 H   0  0  0  0  0  0  0  0  0  0  0  0
    6.1700    4.4095   20.9688 H   0  0  0  0  0  0  0  0  0  0  0  0
  1  2  2  0  0  0  0
  1  3  1  0  0  0  0
  2 13  1  0  0  0  0
  3  4  2  0  0  0  0
  3  5  1  0  0  0  0
  4  8  1  0  0  0  0
  4 13  1  0  0  0  0
  6 10  1  0  0  0  0
  7 10  1  0  0  0  0
  8 11  1  0  0  0  0
  9 10  1  0  0  0  0
  9 12  1  0  0  0  0
 10 11  1  0  0  0  0
 11 14  1  0  0  0  0
 11 15  1  0  0  0  0
 12 16  1  0  0  0  0
M  CHG  1  11   1
M  END
> <ref_mols>
x0524_0

> <original SMILES>
CC=1C=CSC1CNC(C)(C)CO

> <Chemgauss4>
-7.816010

> <ref_pdb>
x0946_0

$$$$
x0073
  -OEChem-05172015543D

 16 17  0     0  0  0  0  0  0999 V2000
   10.7723   -4.3394   24.9906 C   0  0  0  0  0  0  0  0  0  0  0  0
   11.8564   -3.7314   25.6237 C   0  0  0  0  0  0  0  0  0  0  0  0
   10.5337   -2.4143   23.5504 C   0  0  0  0  0  0  0  0  0  0  0  0
    8.2942   -3.7738   22.3070 C   0  0  0  0  0  0  0  0  0  0  0  0
   10.1110   -3.6809   23.9539 C   0  0  0  0  0  0  0  0  0  0  0  0
   12.2790   -2.4648   25.2202 C   0  0  0  0  0  0  0  0  0  0  0  0
   11.6177   -1.8063   24.1835 C   0  0  0  0  0  0  0  0  0  0  0  0
    7.3700   -4.7571   22.0577 C   0  0  0  0  0  0  0  0  0  0  0  0
    6.2913   -4.7826   21.0617 C   0  0  0  0  0  0  0  0  0  0  0  0
    7.5748   -5.8068   22.9096 N   0  0  0  0  0  0  0  0  0  0  0  0
    8.6069   -5.5042   23.6895 N   0  0  0  0  0  0  0  0  0  0  0  0
    9.0367   -4.2848   23.3267 N   0  0  0  0  0  0  0  0  0  0  0  0
    5.2144   -3.9378   21.4762 O   0  0  0  0  0  0  0  0  0  0  0  0
   13.6284   -1.7648   26.0438 Cl  0  0  0  0  0  0  0  0  0  0  0  0
   12.0938   -0.2360   23.6390 Cl  0  0  0  0  0  0  0  0  0  0  0  0
    4.5406   -3.9975   20.7833 H   0  0  0  0  0  0  0  0  0  0  0  0
  1  2  2  0  0  0  0
  1  5  1  0  0  0  0
  2  6  1  0  0  0  0
  3  5  2  0  0  0  0
  3  7  1  0  0  0  0
  4  8  2  0  0  0  0
  4 12  1  0  0  0  0
  5 12  1  0  0  0  0
  6  7  2  0  0  0  0
  6 14  1  0  0  0  0
  7 15  1  0  0  0  0
  8  9  1  0  0  0  0
  8 10  1  0  0  0  0
  9 13  1  0  0  0  0
 10 11  2  0  0  0  0
 11 12  1  0  0  0  0
 13 16  1  0  0  0  0
M  END
> <ref_mols>
x0073_0

> <original SMILES>
OCC1=CN(N=N1)C=2C=CC(Cl)=C(Cl)C2

> <Chemgauss4>
-7.814584

> <ref_pdb>
x0749_0

$$$$
x0680
  -OEChem-05172015543D

 18 18  0     0  0  0  0  0  0999 V2000
    7.9169   -5.9486   22.5470 C   0  0  0  0  0  0  0  0  0  0  0  0
    7.3597   -4.8750   21.8524 C   0  0  0  0  0  0  0  0  0  0  0  0
    8.9595   -5.7310   23.4477 C   0  0  0  0  0  0  0  0  0  0  0  0
    8.8878   -3.3660   22.9592 C   0  0  0  0  0  0  0  0  0  0  0  0
    7.8451   -3.5837   22.0585 C   0  0  0  0  0  0  0  0  0  0  0  0
    9.4450   -4.4396   23.6538 C   0  0  0  0  0  0  0  0  0  0  0  0
    6.2437   -2.5334   20.4286 C   0  0  0  0  0  0  0  0  0  0  0  0
   11.1024   -3.0091   24.8914 C   0  0  0  0  0  0  0  0  0  0  0  0
    5.9336   -1.1544   19.9025 C   0  0  0  0  0  0  0  0  0  0  0  0
   14.0625   -2.5332   24.6379 C   0  0  0  0  0  0  0  0  0  0  0  0
   12.2022   -3.1893   25.9151 C   0  0  0  0  0  0  0  0  0  0  0  0
    7.2870   -2.5101   21.3638 N   0  0  0  0  0  0  0  0  0  0  0  0
   10.4878   -4.2226   24.5549 N   0  0  0  0  0  0  0  0  0  0  0  0
    5.6126   -3.5107   20.0395 O   0  0  0  0  0  0  0  0  0  0  0  0
   10.8408   -1.8950   24.4480 O   0  0  0  0  0  0  0  0  0  0  0  0
   13.1850   -2.1961   25.7080 O   0  0  0  0  0  0  0  0  0  0  0  0
    7.6858   -1.5845   21.5585 H   0  0  0  0  0  0  0  0  0  0  0  0
   10.8503   -5.0564   25.0312 H   0  0  0  0  0  0  0  0  0  0  0  0
  1  2  1  0  0  0  0
  1  3  2  0  0  0  0
  2  5  2  0  0  0  0
  3  6  1  0  0  0  0
  4  5  1  0  0  0  0
  4  6  2  0  0  0  0
  5 12  1  0  0  0  0
  6 13  1  0  0  0  0
  7  9  1  0  0  0  0
  7 12  1  0  0  0  0
  7 14  2  0  0  0  0
  8 11  1  0  0  0  0
  8 13  1  0  0  0  0
  8 15  2  0  0  0  0
 10 16  1  0  0  0  0
 11 16  1  0  0  0  0
 12 17  1  0  0  0  0
 13 18  1  0  0  0  0
M  END
> <ref_mols>
x0680_0

> <original SMILES>
COCC(=O)NC=1C=CC=C(NC(=O)C)C1

> <Chemgauss4>
-7.813489

> <ref_pdb>
x0749_0

$$$$
x1281
  -OEChem-05172015543D

 16 16  0     0  0  0  0  0  0999 V2000
   13.9850    0.6509   22.4007 C   0  0  0  0  0  0  0  0  0  0  0  0
   12.1593   -0.3442   23.6309 C   0  0  0  0  0  0  0  0  0  0  0  0
   13.4090   -0.4573   23.0219 C   0  0  0  0  0  0  0  0  0  0  0  0
   13.3112    1.8722   22.3886 C   0  0  0  0  0  0  0  0  0  0  0  0
   11.4854    0.8771   23.6188 C   0  0  0  0  0  0  0  0  0  0  0  0
   12.0614    1.9853   22.9976 C   0  0  0  0  0  0  0  0  0  0  0  0
   11.8073    4.4325   23.5188 C   0  0  0  0  0  0  0  0  0  0  0  0
   14.1295   -1.7628   23.0351 C   0  0  0  0  0  0  0  0  0  0  0  0
   13.9542    3.0416   21.7156 C   0  0  0  0  0  0  0  0  0  0  0  0
   10.1476    0.9671   24.2793 C   0  0  0  0  0  0  0  0  0  0  0  0
   10.2041    5.9923   25.5313 C   0  0  0  0  0  0  0  0  0  0  0  0
   10.7882    5.5300   23.3024 C   0  0  0  0  0  0  0  0  0  0  0  0
   11.3853    3.2103   22.9855 N   0  0  0  0  0  0  0  0  0  0  0  0
   12.8576    4.6656   24.1095 O   0  0  0  0  0  0  0  0  0  0  0  0
   10.8809    6.4546   24.3664 O   0  0  0  0  0  0  0  0  0  0  0  0
   10.4676    3.2121   22.5297 H   0  0  0  0  0  0  0  0  0  0  0  0
  1  3  1  0  0  0  0
  1  4  2  0  0  0  0
  2  3  2  0  0  0  0
  2  5  1  0  0  0  0
  3  8  1  0  0  0  0
  4  6  1  0  0  0  0
  4  9  1  0  0  0  0
  5  6  2  0  0  0  0
  5 10  1  0  0  0  0
  6 13  1  0  0  0  0
  7 12  1  0  0  0  0
  7 13  1  0  0  0  0
  7 14  2  0  0  0  0
 11 15  1  0  0  0  0
 12 15  1  0  0  0  0
 13 16  1  0  0  0  0
M  END
> <ref_mols>
x1281_0

> <original SMILES>
COCC(=O)NC=1C(C)=CC(C)=CC1C

> <Chemgauss4>
-7.810631

> <ref_pdb>
x0195_0

$$$$
x0577
  -OEChem-05172015543D

 16 16  0     0  0  0  0  0  0999 V2000
   13.9850    0.6509   22.4007 C   0  0  0  0  0  0  0  0  0  0  0  0
   12.1593   -0.3442   23.6309 C   0  0  0  0  0  0  0  0  0  0  0  0
   13.4090   -0.4573   23.0219 C   0  0  0  0  0  0  0  0  0  0  0  0
   13.3112    1.8722   22.3886 C   0  0  0  0  0  0  0  0  0  0  0  0
   11.4854    0.8771   23.6188 C   0  0  0  0  0  0  0  0  0  0  0  0
   12.0614    1.9853   22.9976 C   0  0  0  0  0  0  0  0  0  0  0  0
   11.8073    4.4325   23.5188 C   0  0  0  0  0  0  0  0  0  0  0  0
   14.1295   -1.7628   23.0351 C   0  0  0  0  0  0  0  0  0  0  0  0
   13.9542    3.0416   21.7156 C   0  0  0  0  0  0  0  0  0  0  0  0
   10.1476    0.9671   24.2793 C   0  0  0  0  0  0  0  0  0  0  0  0
   10.2041    5.9923   25.5313 C   0  0  0  0  0  0  0  0  0  0  0  0
   10.7882    5.5300   23.3024 C   0  0  0  0  0  0  0  0  0  0  0  0
   11.3853    3.2103   22.9855 N   0  0  0  0  0  0  0  0  0  0  0  0
   12.8576    4.6656   24.1095 O   0  0  0  0  0  0  0  0  0  0  0  0
   10.8809    6.4546   24.3664 O   0  0  0  0  0  0  0  0  0  0  0  0
   10.4676    3.2121   22.5297 H   0  0  0  0  0  0  0  0  0  0  0  0
  1  3  1  0  0  0  0
  1  4  2  0  0  0  0
  2  3  2  0  0  0  0
  2  5  1  0  0  0  0
  3  8  1  0  0  0  0
  4  6  1  0  0  0  0
  4  9  1  0  0  0  0
  5  6  2  0  0  0  0
  5 10  1  0  0  0  0
  6 13  1  0  0  0  0
  7 12  1  0  0  0  0
  7 13  1  0  0  0  0
  7 14  2  0  0  0  0
 11 15  1  0  0  0  0
 12 15  1  0  0  0  0
 13 16  1  0  0  0  0
M  END
> <ref_mols>
x0577_0

> <original SMILES>
COCC(=O)NC=1C(C)=CC(C)=CC1C

> <Chemgauss4>
-7.810631

> <ref_pdb>
x0195_0

$$$$
x0567
  -OEChem-05172015543D

 17 17  0     0  0  0  0  0  0999 V2000
   11.4964   -0.0336   23.7665 C   0  0  0  0  0  0  0  0  0  0  0  0
   12.3764   -1.0063   23.2920 C   0  0  0  0  0  0  0  0  0  0  0  0
   13.7688    0.7205   22.3346 C   0  0  0  0  0  0  0  0  0  0  0  0
   12.8887    1.6932   22.8090 C   0  0  0  0  0  0  0  0  0  0  0  0
   11.7525    1.3161   23.5249 C   0  0  0  0  0  0  0  0  0  0  0  0
   13.5126   -0.6292   22.5761 C   0  0  0  0  0  0  0  0  0  0  0  0
   13.1789    3.1249   22.5387 C   0  0  0  0  0  0  0  0  0  0  0  0
    9.8751    5.8309   22.9381 C   0  0  0  0  0  0  0  0  0  0  0  0
   11.2594    6.1036   25.0199 C   0  0  0  0  0  0  0  0  0  0  0  0
    9.7456    1.7743   24.7159 C   0  0  0  0  0  0  0  0  0  0  0  0
   12.3897    5.4580   22.8389 C   0  0  0  0  0  0  0  0  0  0  0  0
   11.2411    6.2328   23.4961 C   0  0  0  0  0  0  0  0  0  0  0  0
   12.2567    3.9983   23.0453 N   0  0  0  0  0  0  0  0  0  0  0  0
   14.1761    3.4223   21.8864 O   0  0  0  0  0  0  0  0  0  0  0  0
   10.8795    2.2514   23.9948 O   0  0  0  0  0  0  0  0  0  0  0  0
   14.5995   -1.8292   21.9926 Cl  0  0  0  0  0  0  0  0  0  0  0  0
   11.4248    3.7082   23.5170 H   0  0  0  0  0  0  0  0  0  0  0  0
  1  2  2  0  0  0  0
  1  5  1  0  0  0  0
  2  6  1  0  0  0  0
  3  4  1  0  0  0  0
  3  6  2  0  0  0  0
  4  5  2  0  0  0  0
  4  7  1  0  0  0  0
  5 15  1  0  0  0  0
  6 16  1  0  0  0  0
  7 13  1  0  0  0  0
  7 14  2  0  0  0  0
  8 12  1  0  0  0  0
  9 12  1  0  0  0  0
 10 15  1  0  0  0  0
 11 12  1  0  0  0  0
 11 13  1  0  0  0  0
 13 17  1  0  0  0  0
M  END
> <ref_mols>
x0567_0

> <original SMILES>
COC=1C=CC(Cl)=CC1C(=O)NCC(C)C

> <Chemgauss4>
-7.808305

> <ref_pdb>
x0195_0

$$$$
x0919
  -OEChem-05172015543D

 19 20  0     1  0  0  0  0  0999 V2000
    8.5623   -5.1206   23.0082 C   0  0  0  0  0  0  0  0  0  0  0  0
    6.8715   -5.0292   24.7316 C   0  0  0  0  0  0  0  0  0  0  0  0
    9.5503   -5.2495   23.9844 C   0  0  0  0  0  0  0  0  0  0  0  0
    7.8595   -5.1581   25.7077 C   0  0  0  0  0  0  0  0  0  0  0  0
    7.2229   -5.0104   23.3818 C   0  0  0  0  0  0  0  0  0  0  0  0
    9.1989   -5.2683   25.3341 C   0  0  0  0  0  0  0  0  0  0  0  0
    6.4766   -3.5902   21.5441 C   0  0  0  0  0  0  0  0  0  0  0  0
    3.2130   -5.6709   24.4427 C   0  0  0  0  0  0  0  0  0  0  0  0
    5.4680   -7.2734   21.9361 C   0  0  0  0  0  0  0  0  0  0  0  0
    6.1213   -6.0400   21.3178 C   0  0  0  0  0  0  0  0  0  0  0  0
    4.0615   -6.9670   22.4390 C   0  0  0  0  0  0  0  0  0  0  0  0
    4.7031   -4.5855   22.7952 C   0  0  0  0  0  0  0  0  0  0  0  0
    6.1419   -4.8694   22.3150 C   0  0  1  0  0  0  0  0  0  0  0  0
   10.2557   -5.4079   26.3772 C   0  0  0  0  0  0  0  0  0  0  0  0
    2.3440   -6.8576   24.7758 C   0  0  0  0  0  0  0  0  0  0  0  0
    4.0223   -5.7840   23.3075 N   0  0  0  0  0  0  0  0  0  0  0  0
    5.6821   -3.3023   20.6066 O   0  5  0  0  0  0  0  0  0  0  0  0
    7.5091   -2.9841   21.9465 O   0  0  0  0  0  0  0  0  0  0  0  0
    3.1795   -4.6769   25.1730 O   0  0  0  0  0  0  0  0  0  0  0  0
  1  3  2  0  0  0  0
  1  5  1  0  0  0  0
  2  4  1  0  0  0  0
  2  5  2  0  0  0  0
  3  6  1  0  0  0  0
  4  6  2  0  0  0  0
  5 13  1  0  0  0  0
  6 14  1  0  0  0  0
  7 13  1  0  0  0  0
  7 17  1  0  0  0  0
  7 18  2  0  0  0  0
  8 15  1  0  0  0  0
  8 16  1  0  0  0  0
  8 19  2  0  0  0  0
  9 10  1  0  0  0  0
  9 11  1  0  0  0  0
 10 13  1  0  0  0  0
 11 16  1  0  0  0  0
 12 13  1  0  0  0  0
 12 16  1  0  0  0  0
M  CHG  1  17  -1
M  END
> <ref_mols>
x0919_0

> <original SMILES>
OC(C1(C2=CC=C(C)C=C2)CN(C(C)=O)CCC1)=O

> <Chemgauss4>
-7.807623

> <ref_pdb>
x1311_0

$$$$
x0517
  -OEChem-05172015543D

 16 16  0     1  0  0  0  0  0999 V2000
   12.0173    3.1959   23.5408 C   0  0  0  0  0  0  0  0  0  0  0  0
   12.1017    0.3404   23.5460 C   0  0  0  0  0  0  0  0  0  0  0  0
   12.2072   -1.1332   23.1714 C   0  0  0  0  0  0  0  0  0  0  0  0
   14.1595    0.4228   22.2342 C   0  0  0  0  0  0  0  0  0  0  0  0
   12.8099    1.1127   22.4292 C   0  0  2  0  0  0  0  0  0  0  0  0
   10.3825    6.0111   23.6845 C   0  0  0  0  0  0  0  0  0  0  0  0
   12.3006    6.4376   25.2609 C   0  0  0  0  0  0  0  0  0  0  0  0
   14.1380    3.1772   22.1851 C   0  0  0  0  0  0  0  0  0  0  0  0
   11.4455    5.3829   24.5740 C   0  0  0  0  0  0  0  0  0  0  0  0
   12.2996    4.5401   23.7679 N   0  0  0  0  0  0  0  0  0  0  0  0
   12.9579    2.5072   22.7413 N   0  0  0  0  0  0  0  0  0  0  0  0
   11.0189    2.6465   24.0164 O   0  0  0  0  0  0  0  0  0  0  0  0
   13.6950   -1.9380   21.1516 O   0  0  0  0  0  0  0  0  0  0  0  0
   14.7324   -1.8356   23.4648 O   0  0  0  0  0  0  0  0  0  0  0  0
   13.8326   -1.3202   22.4541 S   0  0  0  0  0  0  0  0  0  0  0  0
   13.1324    4.9416   23.3539 H   0  0  0  0  0  0  0  0  0  0  0  0
  1 10  1  0  0  0  0
  1 11  1  0  0  0  0
  1 12  2  0  0  0  0
  2  3  1  0  0  0  0
  2  5  1  0  0  0  0
  3 15  1  0  0  0  0
  4  5  1  0  0  0  0
  4 15  1  0  0  0  0
  5 11  1  0  0  0  0
  6  9  1  0  0  0  0
  7  9  1  0  0  0  0
  8 11  1  0  0  0  0
  9 10  1  0  0  0  0
 13 15  2  0  0  0  0
 14 15  2  0  0  0  0
 10 16  1  0  0  0  0
M  END
> <ref_mols>
x0517_0

> <original SMILES>
CC(C)NC(=O)N(C)C1CCS(=O)(=O)C1

> <Chemgauss4>
-7.805090

> <ref_pdb>
x0195_0

$$$$
x1254
  -OEChem-05172015543D

 16 16  0     1  0  0  0  0  0999 V2000
   12.0173    3.1959   23.5408 C   0  0  0  0  0  0  0  0  0  0  0  0
   12.1017    0.3404   23.5460 C   0  0  0  0  0  0  0  0  0  0  0  0
   12.2072   -1.1332   23.1714 C   0  0  0  0  0  0  0  0  0  0  0  0
   14.1595    0.4228   22.2342 C   0  0  0  0  0  0  0  0  0  0  0  0
   12.8099    1.1127   22.4292 C   0  0  2  0  0  0  0  0  0  0  0  0
   10.3825    6.0111   23.6845 C   0  0  0  0  0  0  0  0  0  0  0  0
   12.3006    6.4376   25.2609 C   0  0  0  0  0  0  0  0  0  0  0  0
   14.1380    3.1772   22.1851 C   0  0  0  0  0  0  0  0  0  0  0  0
   11.4455    5.3829   24.5740 C   0  0  0  0  0  0  0  0  0  0  0  0
   12.2996    4.5401   23.7679 N   0  0  0  0  0  0  0  0  0  0  0  0
   12.9579    2.5072   22.7413 N   0  0  0  0  0  0  0  0  0  0  0  0
   11.0189    2.6465   24.0164 O   0  0  0  0  0  0  0  0  0  0  0  0
   13.6950   -1.9380   21.1516 O   0  0  0  0  0  0  0  0  0  0  0  0
   14.7324   -1.8356   23.4648 O   0  0  0  0  0  0  0  0  0  0  0  0
   13.8326   -1.3202   22.4541 S   0  0  0  0  0  0  0  0  0  0  0  0
   13.1324    4.9416   23.3539 H   0  0  0  0  0  0  0  0  0  0  0  0
  1 10  1  0  0  0  0
  1 11  1  0  0  0  0
  1 12  2  0  0  0  0
  2  3  1  0  0  0  0
  2  5  1  0  0  0  0
  3 15  1  0  0  0  0
  4  5  1  0  0  0  0
  4 15  1  0  0  0  0
  5 11  1  0  0  0  0
  6  9  1  0  0  0  0
  7  9  1  0  0  0  0
  8 11  1  0  0  0  0
  9 10  1  0  0  0  0
 13 15  2  0  0  0  0
 14 15  2  0  0  0  0
 10 16  1  0  0  0  0
M  END
> <ref_mols>
x1254_0

> <original SMILES>
CC(C)NC(=O)N(C)C1CCS(=O)(=O)C1

> <Chemgauss4>
-7.805090

> <ref_pdb>
x0195_0

$$$$
x0550
  -OEChem-05172015543D

 14 15  0     0  0  0  0  0  0999 V2000
   10.1277    0.2599   21.6178 C   0  0  0  0  0  0  0  0  0  0  0  0
    9.3343   -0.6750   22.2489 C   0  0  0  0  0  0  0  0  0  0  0  0
    8.6466   -0.0421   20.0288 C   0  0  0  0  0  0  0  0  0  0  0  0
   11.3188    0.8594   22.2117 C   0  0  0  0  0  0  0  0  0  0  0  0
   14.0999   -1.5786   22.4375 C   0  0  0  0  0  0  0  0  0  0  0  0
   14.1330   -0.9192   23.8101 C   0  0  0  0  0  0  0  0  0  0  0  0
   12.6818   -1.2950   21.9616 C   0  0  0  0  0  0  0  0  0  0  0  0
   13.3193    0.3474   23.5949 C   0  0  0  0  0  0  0  0  0  0  0  0
    9.4558   -1.2817   23.5904 C   0  0  0  0  0  0  0  0  0  0  0  0
    7.9325    0.0834   18.7399 C   0  0  0  0  0  0  0  0  0  0  0  0
    9.7352    0.6238   20.3444 N   0  0  0  0  0  0  0  0  0  0  0  0
   12.3466   -0.0081   22.5705 N   0  0  0  0  0  0  0  0  0  0  0  0
   11.3885    2.0796   22.3552 O   0  0  0  0  0  0  0  0  0  0  0  0
    8.0401   -1.1224   21.2163 S   0  0  0  0  0  0  0  0  0  0  0  0
  1  2  2  0  0  0  0
  1  4  1  0  0  0  0
  1 11  1  0  0  0  0
  2  9  1  0  0  0  0
  2 14  1  0  0  0  0
  3 10  1  0  0  0  0
  3 11  2  0  0  0  0
  3 14  1  0  0  0  0
  4 12  1  0  0  0  0
  4 13  2  0  0  0  0
  5  6  1  0  0  0  0
  5  7  1  0  0  0  0
  6  8  1  0  0  0  0
  7 12  1  0  0  0  0
  8 12  1  0  0  0  0
M  END
> <ref_mols>
x0550_0

> <original SMILES>
CC1=NC(C(=O)N2CCCC2)=C(C)S1

> <Chemgauss4>
-7.797816

> <ref_pdb>
x0678_0

$$$$
x0649
  -OEChem-05172015543D

 17 18  0     0  0  0  0  0  0999 V2000
   13.4295   -2.1217   25.6543 C   0  0  0  0  0  0  0  0  0  0  0  0
    7.6855   -6.5207   22.6066 C   0  0  0  0  0  0  0  0  0  0  0  0
    6.8105   -5.9642   21.6737 C   0  0  0  0  0  0  0  0  0  0  0  0
    8.5675   -5.7012   23.3111 C   0  0  0  0  0  0  0  0  0  0  0  0
    6.8176   -4.5882   21.4451 C   0  0  0  0  0  0  0  0  0  0  0  0
    8.5746   -4.3252   23.0825 C   0  0  0  0  0  0  0  0  0  0  0  0
    7.6996   -3.7687   22.1495 C   0  0  0  0  0  0  0  0  0  0  0  0
    9.3945   -3.4717   25.2601 C   0  0  0  0  0  0  0  0  0  0  0  0
    9.9576   -2.2934   23.1476 C   0  0  0  0  0  0  0  0  0  0  0  0
   10.7148   -2.9657   25.8465 C   0  0  0  0  0  0  0  0  0  0  0  0
   11.2600   -1.8265   23.8017 C   0  0  0  0  0  0  0  0  0  0  0  0
    6.7628   -1.9475   20.9406 C   0  0  0  0  0  0  0  0  0  0  0  0
   12.3306   -1.1799   25.8598 C   0  0  0  0  0  0  0  0  0  0  0  0
   14.3042   -2.8668   25.4926 N   0  0  0  0  0  0  0  0  0  0  0  0
    9.4645   -3.5149   23.7963 N   0  0  0  0  0  0  0  0  0  0  0  0
   11.0968   -1.6785   25.2532 N   0  0  0  0  0  0  0  0  0  0  0  0
    7.6909   -2.4269   21.9113 O   0  0  0  0  0  0  0  0  0  0  0  0
  1 13  1  0  0  0  0
  1 14  3  0  0  0  0
  2  3  1  0  0  0  0
  2  4  2  0  0  0  0
  3  5  2  0  0  0  0
  4  6  1  0  0  0  0
  5  7  1  0  0  0  0
  6  7  2  0  0  0  0
  6 15  1  0  0  0  0
  7 17  1  0  0  0  0
  8 10  1  0  0  0  0
  8 15  1  0  0  0  0
  9 11  1  0  0  0  0
  9 15  1  0  0  0  0
 10 16  1  0  0  0  0
 11 16  1  0  0  0  0
 12 17  1  0  0  0  0
 13 16  1  0  0  0  0
M  END
> <ref_mols>
x0649_0

> <original SMILES>
COC=1C=CC=CC1N2CCN(CC#N)CC2

> <Chemgauss4>
-7.797358

> <ref_pdb>
x0749_0

$$$$
x2823
  -OEChem-05172015543D

 28 30  0     1  0  0  0  0  0999 V2000
    7.9614    6.0699   23.5686 C   0  0  0  0  0  0  0  0  0  0  0  0
    7.4315    5.0435   24.3505 C   0  0  0  0  0  0  0  0  0  0  0  0
    9.1904    5.8979   22.9315 C   0  0  0  0  0  0  0  0  0  0  0  0
    8.1306    3.8452   24.4954 C   0  0  0  0  0  0  0  0  0  0  0  0
    9.8894    4.6996   23.0764 C   0  0  0  0  0  0  0  0  0  0  0  0
    9.3595    3.6732   23.8583 C   0  0  0  0  0  0  0  0  0  0  0  0
   10.1040    2.3969   24.0127 C   0  0  0  0  0  0  0  0  0  0  0  0
    8.8696    0.1943   21.4071 C   0  0  0  0  0  0  0  0  0  0  0  0
   14.1181   -0.0467   22.8140 C   0  0  0  0  0  0  0  0  0  0  0  0
   13.7454   -0.8749   21.5889 C   0  0  0  0  0  0  0  0  0  0  0  0
   13.2270    1.1843   22.9458 C   0  0  0  0  0  0  0  0  0  0  0  0
   12.2704   -1.2634   21.6059 C   0  0  0  0  0  0  0  0  0  0  0  0
    6.9886   -0.0753   23.0266 C   0  0  0  0  0  0  0  0  0  0  0  0
    6.5585   -0.1667   20.5346 C   0  0  0  0  0  0  0  0  0  0  0  0
    6.4541    1.3515   23.0531 C   0  0  0  0  0  0  0  0  0  0  0  0
    6.0284    1.2611   20.5873 C   0  0  0  0  0  0  0  0  0  0  0  0
    7.5474   -0.4741   21.6600 C   0  0  0  0  0  0  0  0  0  0  0  0
   11.7424    0.8111   22.9596 C   0  0  2  0  0  0  0  0  0  0  0  0
   11.3608   -0.0389   21.7408 C   0  0  2  0  0  0  0  0  0  0  0  0
    4.7832    2.8814   22.0142 C   0  0  0  0  0  0  0  0  0  0  0  0
   10.9472    2.0672   22.9684 N   0  0  0  0  0  0  0  0  0  0  0  0
    9.9574   -0.5125   21.8830 N   0  0  0  0  0  0  0  0  0  0  0  0
    5.4401    1.5299   21.9503 N   0  3  0  0  0  0  0  0  0  0  0  0
    9.9220    1.7138   25.0172 O   0  0  0  0  0  0  0  0  0  0  0  0
    8.9003    1.2706   20.8221 O   0  0  0  0  0  0  0  0  0  0  0  0
   11.0021    2.6458   22.1404 H   0  0  0  0  0  0  0  0  0  0  0  0
    9.7911   -1.3976   22.3524 H   0  0  0  0  0  0  0  0  0  0  0  0
    4.6944    0.8374   22.1045 H   0  0  0  0  0  0  0  0  0  0  0  0
  1  2  1  0  0  0  0
  1  3  2  0  0  0  0
  2  4  2  0  0  0  0
  3  5  1  0  0  0  0
  4  6  1  0  0  0  0
  5  6  2  0  0  0  0
  6  7  1  0  0  0  0
  7 21  1  0  0  0  0
  7 24  2  0  0  0  0
  8 17  1  0  0  0  0
  8 22  1  0  0  0  0
  8 25  2  0  0  0  0
  9 10  1  0  0  0  0
  9 11  1  0  0  0  0
 10 12  1  0  0  0  0
 11 18  1  0  0  0  0
 12 19  1  0  0  0  0
 13 15  1  0  0  0  0
 13 17  1  0  0  0  0
 14 16  1  0  0  0  0
 14 17  1  0  0  0  0
 15 23  1  0  0  0  0
 16 23  1  0  0  0  0
 18 19  1  0  0  0  0
 18 21  1  0  0  0  0
 19 22  1  0  0  0  0
 20 23  1  0  0  0  0
 21 26  1  0  0  0  0
 22 27  1  0  0  0  0
 23 28  1  0  0  0  0
M  CHG  1  23   1
M  END
> <ref_mols>
x2823_0

> <original SMILES>
CN1CCC(CC1)C(=O)N[C@@H]2CCCC[C@H]2NC(=O)C=3C=CC=CC3

> <Chemgauss4>
-7.797143

> <ref_pdb>
x0874_0

$$$$
x0502
  -OEChem-05172015543D

 19 20  0     0  0  0  0  0  0999 V2000
    4.9497    1.1874   19.0037 C   0  0  0  0  0  0  0  0  0  0  0  0
    4.9198    1.1134   17.6156 C   0  0  0  0  0  0  0  0  0  0  0  0
   10.1086   -1.8513   21.7276 C   0  0  0  0  0  0  0  0  0  0  0  0
   10.8986    0.4283   21.5991 C   0  0  0  0  0  0  0  0  0  0  0  0
   11.3780   -2.2686   22.1276 C   0  0  0  0  0  0  0  0  0  0  0  0
   12.1680    0.0110   21.9992 C   0  0  0  0  0  0  0  0  0  0  0  0
    6.0917    0.7916   19.6911 C   0  0  0  0  0  0  0  0  0  0  0  0
    6.0490    0.6401   16.9670 C   0  0  0  0  0  0  0  0  0  0  0  0
    9.8689   -0.5028   21.4633 C   0  0  0  0  0  0  0  0  0  0  0  0
   12.4077   -1.3375   22.2635 C   0  0  0  0  0  0  0  0  0  0  0  0
    7.1683    0.3326   18.9496 C   0  0  0  0  0  0  0  0  0  0  0  0
    8.5456   -0.0664   21.0466 C   0  0  0  0  0  0  0  0  0  0  0  0
   14.1951   -1.1565   24.0316 C   0  0  0  0  0  0  0  0  0  0  0  0
   14.8386   -1.5167   21.6209 C   0  0  0  0  0  0  0  0  0  0  0  0
   13.7646   -1.7842   22.6923 C   0  0  0  0  0  0  0  0  0  0  0  0
    7.1765    0.2464   17.6004 N   0  0  0  0  0  0  0  0  0  0  0  0
    8.3278   -0.0682   19.6601 N   0  0  0  0  0  0  0  0  0  0  0  0
    7.6959    0.3097   21.8659 O   0  0  0  0  0  0  0  0  0  0  0  0
    9.1026   -0.4003   19.0911 H   0  0  0  0  0  0  0  0  0  0  0  0
  1  2  1  0  0  0  0
  1  7  2  0  0  0  0
  2  8  2  0  0  0  0
  3  5  2  0  0  0  0
  3  9  1  0  0  0  0
  4  6  1  0  0  0  0
  4  9  2  0  0  0  0
  5 10  1  0  0  0  0
  6 10  2  0  0  0  0
  7 11  1  0  0  0  0
  8 16  1  0  0  0  0
  9 12  1  0  0  0  0
 10 15  1  0  0  0  0
 11 16  2  0  0  0  0
 11 17  1  0  0  0  0
 12 17  1  0  0  0  0
 12 18  2  0  0  0  0
 13 15  1  0  0  0  0
 14 15  1  0  0  0  0
 17 19  1  0  0  0  0
M  END
> <ref_mols>
x0502_0

> <original SMILES>
CC(C)C=1C=CC(=CC1)C(=O)NC=2C=CC=CN2

> <Chemgauss4>
-7.792404

> <ref_pdb>
x0678_0

$$$$
x1252
  -OEChem-05172015543D

 19 20  0     0  0  0  0  0  0999 V2000
    4.9497    1.1874   19.0037 C   0  0  0  0  0  0  0  0  0  0  0  0
    4.9198    1.1134   17.6156 C   0  0  0  0  0  0  0  0  0  0  0  0
   10.1086   -1.8513   21.7276 C   0  0  0  0  0  0  0  0  0  0  0  0
   10.8986    0.4283   21.5991 C   0  0  0  0  0  0  0  0  0  0  0  0
   11.3780   -2.2686   22.1276 C   0  0  0  0  0  0  0  0  0  0  0  0
   12.1680    0.0110   21.9992 C   0  0  0  0  0  0  0  0  0  0  0  0
    6.0917    0.7916   19.6911 C   0  0  0  0  0  0  0  0  0  0  0  0
    6.0490    0.6401   16.9670 C   0  0  0  0  0  0  0  0  0  0  0  0
    9.8689   -0.5028   21.4633 C   0  0  0  0  0  0  0  0  0  0  0  0
   12.4077   -1.3375   22.2635 C   0  0  0  0  0  0  0  0  0  0  0  0
    7.1683    0.3326   18.9496 C   0  0  0  0  0  0  0  0  0  0  0  0
    8.5456   -0.0664   21.0466 C   0  0  0  0  0  0  0  0  0  0  0  0
   14.1951   -1.1565   24.0316 C   0  0  0  0  0  0  0  0  0  0  0  0
   14.8386   -1.5167   21.6209 C   0  0  0  0  0  0  0  0  0  0  0  0
   13.7646   -1.7842   22.6923 C   0  0  0  0  0  0  0  0  0  0  0  0
    7.1765    0.2464   17.6004 N   0  0  0  0  0  0  0  0  0  0  0  0
    8.3278   -0.0682   19.6601 N   0  0  0  0  0  0  0  0  0  0  0  0
    7.6959    0.3097   21.8659 O   0  0  0  0  0  0  0  0  0  0  0  0
    9.1026   -0.4003   19.0911 H   0  0  0  0  0  0  0  0  0  0  0  0
  1  2  1  0  0  0  0
  1  7  2  0  0  0  0
  2  8  2  0  0  0  0
  3  5  2  0  0  0  0
  3  9  1  0  0  0  0
  4  6  1  0  0  0  0
  4  9  2  0  0  0  0
  5 10  1  0  0  0  0
  6 10  2  0  0  0  0
  7 11  1  0  0  0  0
  8 16  1  0  0  0  0
  9 12  1  0  0  0  0
 10 15  1  0  0  0  0
 11 16  2  0  0  0  0
 11 17  1  0  0  0  0
 12 17  1  0  0  0  0
 12 18  2  0  0  0  0
 13 15  1  0  0  0  0
 14 15  1  0  0  0  0
 17 19  1  0  0  0  0
M  END
> <ref_mols>
x1252_0

> <original SMILES>
CC(C)C=1C=CC(=CC1)C(=O)NC=2C=CC=CN2

> <Chemgauss4>
-7.792404

> <ref_pdb>
x0678_0

$$$$
x0119
  -OEChem-05172015543D

 13 13  0     0  0  0  0  0  0999 V2000
    5.3146   -0.2209   19.5373 C   0  0  0  0  0  0  0  0  0  0  0  0
    6.2780   -0.6232   18.5963 C   0  0  0  0  0  0  0  0  0  0  0  0
    5.0617    1.0841   19.2070 C   0  0  0  0  0  0  0  0  0  0  0  0
    6.9047   -1.9076   18.4762 C   0  0  0  0  0  0  0  0  0  0  0  0
    5.6346    3.2276   21.2327 C   0  0  0  0  0  0  0  0  0  0  0  0
    4.1544    2.1400   19.7668 C   0  0  0  0  0  0  0  0  0  0  0  0
    6.5982    0.3573   17.7472 N   0  0  0  0  0  0  0  0  0  0  0  0
    8.0931   -2.1394   19.1817 N   0  0  0  0  0  0  0  0  0  0  0  0
    6.4333   -2.8162   17.7514 O   0  0  0  0  0  0  0  0  0  0  0  0
    5.8218    1.4408   18.1401 O   0  0  0  0  0  0  0  0  0  0  0  0
    4.5011    2.3772   21.1245 O   0  0  0  0  0  0  0  0  0  0  0  0
    8.4757   -1.3956   19.7554 H   0  0  0  0  0  0  0  0  0  0  0  0
    8.5837   -3.0268   19.1377 H   0  0  0  0  0  0  0  0  0  0  0  0
  1  2  1  0  0  0  0
  1  3  2  0  0  0  0
  2  4  1  0  0  0  0
  2  7  2  0  0  0  0
  3  6  1  0  0  0  0
  3 10  1  0  0  0  0
  4  8  1  0  0  0  0
  4  9  2  0  0  0  0
  5 11  1  0  0  0  0
  6 11  1  0  0  0  0
  7 10  1  0  0  0  0
  8 12  1  0  0  0  0
  8 13  1  0  0  0  0
M  END
> <ref_mols>
x0119_0

> <original SMILES>
COCC1=CC(=NO1)C(=O)N

> <Chemgauss4>
-7.791372

> <ref_pdb>
x0397_0

$$$$
x0065
  -OEChem-05172015543D

 15 16  0     0  0  0  0  0  0999 V2000
   11.6709    2.5902   22.8426 C   0  0  0  0  0  0  0  0  0  0  0  0
   12.9159    3.1414   22.9569 C   0  0  0  0  0  0  0  0  0  0  0  0
   13.1596    0.9664   22.6250 C   0  0  0  0  0  0  0  0  0  0  0  0
   13.2406    4.4969   23.1751 C   0  0  0  0  0  0  0  0  0  0  0  0
   13.1006   -1.3943   21.4996 C   0  0  0  0  0  0  0  0  0  0  0  0
   13.0675   -1.6248   22.9781 C   0  0  0  0  0  0  0  0  0  0  0  0
   13.7857   -0.4065   22.4264 C   0  0  0  0  0  0  0  0  0  0  0  0
   11.8517    1.2437   22.6373 N   0  0  0  0  0  0  0  0  0  0  0  0
   13.8176    2.1139   22.8186 N   0  3  0  0  0  0  0  0  0  0  0  0
   14.5983    4.8764   23.2654 N   0  0  0  0  0  0  0  0  0  0  0  0
   12.3672    5.4041   23.3127 O   0  0  0  0  0  0  0  0  0  0  0  0
   11.1071    0.5629   22.5144 H   0  0  0  0  0  0  0  0  0  0  0  0
   14.8289    2.2088   22.8567 H   0  0  0  0  0  0  0  0  0  0  0  0
   15.3087    4.1587   23.1702 H   0  0  0  0  0  0  0  0  0  0  0  0
   14.8957    5.8342   23.4211 H   0  0  0  0  0  0  0  0  0  0  0  0
  1  2  2  0  0  0  0
  1  8  1  0  0  0  0
  2  4  1  0  0  0  0
  2  9  1  0  0  0  0
  3  7  1  0  0  0  0
  3  8  1  0  0  0  0
  3  9  2  0  0  0  0
  4 10  1  0  0  0  0
  4 11  2  0  0  0  0
  5  6  1  0  0  0  0
  5  7  1  0  0  0  0
  6  7  1  0  0  0  0
  8 12  1  0  0  0  0
  9 13  1  0  0  0  0
 10 14  1  0  0  0  0
 10 15  1  0  0  0  0
M  CHG  1   9   1
M  END
> <ref_mols>
x0065_0

> <original SMILES>
NC(=O)C1=CNC(=N1)C2CC2

> <Chemgauss4>
-7.790565

> <ref_pdb>
x0195_0

$$$$
x2833
  -OEChem-05172015543D

 21 22  0     0  0  0  0  0  0999 V2000
    7.8695   -5.7572   26.0141 C   0  0  0  0  0  0  0  0  0  0  0  0
    8.9483   -4.9256   25.7138 C   0  0  0  0  0  0  0  0  0  0  0  0
    6.5669   -5.2637   25.9404 C   0  0  0  0  0  0  0  0  0  0  0  0
    8.7246   -3.6005   25.3400 C   0  0  0  0  0  0  0  0  0  0  0  0
    6.3431   -3.9386   25.5666 C   0  0  0  0  0  0  0  0  0  0  0  0
    5.5145    0.7165   19.9388 C   0  0  0  0  0  0  0  0  0  0  0  0
    7.6714   -0.2135   20.4558 C   0  0  0  0  0  0  0  0  0  0  0  0
    5.8727    0.6648   18.6014 C   0  0  0  0  0  0  0  0  0  0  0  0
    7.9330   -0.2237   19.0952 C   0  0  0  0  0  0  0  0  0  0  0  0
    7.4220   -3.1070   25.2664 C   0  0  0  0  0  0  0  0  0  0  0  0
    6.4366    0.2670   20.8774 C   0  0  0  0  0  0  0  0  0  0  0  0
    6.1513   -0.9347   25.2853 C   0  0  0  0  0  0  0  0  0  0  0  0
    6.9959    0.4661   23.3228 C   0  0  0  0  0  0  0  0  0  0  0  0
    6.2656    0.4424   24.6545 C   0  0  0  0  0  0  0  0  0  0  0  0
    7.0625    0.2047   18.1538 N   0  0  0  0  0  0  0  0  0  0  0  0
    7.1952   -1.7623   24.8869 N   0  0  0  0  0  0  0  0  0  0  0  0
    6.1196    0.2986   22.2567 N   0  0  0  0  0  0  0  0  0  0  0  0
    5.2414   -1.2042   26.0639 O   0  0  0  0  0  0  0  0  0  0  0  0
    8.2096    0.6432   23.2697 O   0  0  0  0  0  0  0  0  0  0  0  0
    7.8889   -1.3689   24.2544 H   0  0  0  0  0  0  0  0  0  0  0  0
    5.1313    0.1920   22.4746 H   0  0  0  0  0  0  0  0  0  0  0  0
  1  2  1  0  0  0  0
  1  3  2  0  0  0  0
  2  4  2  0  0  0  0
  3  5  1  0  0  0  0
  4 10  1  0  0  0  0
  5 10  2  0  0  0  0
  6  8  2  0  0  0  0
  6 11  1  0  0  0  0
  7  9  1  0  0  0  0
  7 11  2  0  0  0  0
  8 15  1  0  0  0  0
  9 15  2  0  0  0  0
 10 16  1  0  0  0  0
 11 17  1  0  0  0  0
 12 14  1  0  0  0  0
 12 16  1  0  0  0  0
 12 18  2  0  0  0  0
 13 14  1  0  0  0  0
 13 17  1  0  0  0  0
 13 19  2  0  0  0  0
 16 20  1  0  0  0  0
 17 21  1  0  0  0  0
M  END
> <ref_mols>
x2833_0

> <original SMILES>
O=C(CC(=O)NC=1C=CN=CC1)NC=2C=CC=CC2

> <Chemgauss4>
-7.789352

> <ref_pdb>
x0107_0

$$$$
x2063
  -OEChem-05172015543D

 19 21  0     1  0  0  0  0  0999 V2000
   11.7978   -1.8405   23.3262 C   0  0  0  0  0  0  0  0  0  0  0  0
   13.1488   -1.8288   22.9261 C   0  0  0  0  0  0  0  0  0  0  0  0
   11.1248   -0.6493   23.6067 C   0  0  0  0  0  0  0  0  0  0  0  0
   13.8504   -0.6254   22.7998 C   0  0  0  0  0  0  0  0  0  0  0  0
   11.8438    0.5196   23.4729 C   0  0  0  0  0  0  0  0  0  0  0  0
   13.1707    0.5402   23.0806 C   0  0  0  0  0  0  0  0  0  0  0  0
   11.4595    1.9021   23.6810 C   0  0  0  0  0  0  0  0  0  0  0  0
   11.5109    5.8659   23.8177 C   0  0  0  0  0  0  0  0  0  0  0  0
   13.8917    4.4152   22.3891 C   0  0  0  0  0  0  0  0  0  0  0  0
   12.6481    5.9562   24.7909 C   0  0  0  0  0  0  0  0  0  0  0  0
   13.1775    4.5385   24.8030 C   0  0  0  0  0  0  0  0  0  0  0  0
   12.8384    4.0393   23.4171 C   0  0  2  0  0  0  0  0  0  0  0  0
   12.5855    2.6250   23.3966 N   0  0  0  0  0  0  0  0  0  0  0  0
   13.6601    4.0233   21.2118 O   0  5  0  0  0  0  0  0  0  0  0  0
   10.3552    2.2690   24.0331 O   0  0  0  0  0  0  0  0  0  0  0  0
   10.6199    6.6911   23.6899 O   0  0  0  0  0  0  0  0  0  0  0  0
   14.8673    5.0739   22.8469 O   0  0  0  0  0  0  0  0  0  0  0  0
   13.6837    1.8084   23.0152 O   0  0  0  0  0  0  0  0  0  0  0  0
   11.6356    4.7329   23.0601 O   0  0  0  0  0  0  0  0  0  0  0  0
  1  2  1  0  0  0  0
  1  3  2  0  0  0  0
  2  4  2  0  0  0  0
  3  5  1  0  0  0  0
  4  6  1  0  0  0  0
  5  6  2  0  0  0  0
  5  7  1  0  0  0  0
  6 18  1  0  0  0  0
  7 13  1  0  0  0  0
  7 15  2  0  0  0  0
  8 10  1  0  0  0  0
  8 16  2  0  0  0  0
  8 19  1  0  0  0  0
  9 12  1  0  0  0  0
  9 14  1  0  0  0  0
  9 17  2  0  0  0  0
 10 11  1  0  0  0  0
 11 12  1  0  0  0  0
 12 13  1  0  0  0  0
 12 19  1  0  0  0  0
 13 18  1  0  0  0  0
M  CHG  1  14  -1
M  END
> <ref_mols>
x2063_0

> <original SMILES>
O=C1C2=CC=CC=C2ON1C3(C(O)=O)OC(CC3)=O

> <Chemgauss4>
-7.788755

> <ref_pdb>
x0195_0

$$$$
x1183
  -OEChem-05172015543D

 14 14  0     1  0  0  0  0  0999 V2000
   14.3045   -0.7018   22.2496 C   0  0  0  0  0  0  0  0  0  0  0  0
   13.5458    0.0322   23.1545 C   0  0  0  0  0  0  0  0  0  0  0  0
   13.7318   -1.8328   21.6904 C   0  0  0  0  0  0  0  0  0  0  0  0
   12.2559   -0.3813   23.4682 C   0  0  0  0  0  0  0  0  0  0  0  0
   11.7748   -1.5265   22.8543 C   0  0  0  0  0  0  0  0  0  0  0  0
    9.2569    0.0627   22.5630 C   0  0  0  0  0  0  0  0  0  0  0  0
   10.2432   -2.8442   24.2958 C   0  0  0  0  0  0  0  0  0  0  0  0
    9.4590   -1.8745   20.9687 C   0  0  0  0  0  0  0  0  0  0  0  0
    9.3304   -1.4529   22.4305 C   0  0  1  0  0  0  0  0  0  0  0  0
   12.4820   -2.2656   21.9705 N   0  0  0  0  0  0  0  0  0  0  0  0
   10.4758   -1.9321   23.1784 N   0  0  3  0  0  0  0  0  0  0  0  0
   10.3651   -1.0013   20.3042 O   0  0  0  0  0  0  0  0  0  0  0  0
   11.5144    0.3153   24.3390 F   0  0  0  0  0  0  0  0  0  0  0  0
   10.4175   -1.3028   19.3834 H   0  0  0  0  0  0  0  0  0  0  0  0
  1  2  2  0  0  0  0
  1  3  1  0  0  0  0
  2  4  1  0  0  0  0
  3 10  2  0  0  0  0
  4  5  2  0  0  0  0
  4 13  1  0  0  0  0
  5 10  1  0  0  0  0
  5 11  1  0  0  0  0
  6  9  1  0  0  0  0
  7 11  1  0  0  0  0
  8  9  1  0  0  0  0
  8 12  1  0  0  0  0
  9 11  1  0  0  0  0
 12 14  1  0  0  0  0
M  END
> <ref_mols>
x1183_0

> <original SMILES>
C[C@@H](CO)N(C)C=1N=CC=CC1F

> <Chemgauss4>
-7.785793

> <ref_pdb>
x1382_0

$$$$
x1275
  -OEChem-05172015543D

 14 14  0     1  0  0  0  0  0999 V2000
   14.3045   -0.7018   22.2496 C   0  0  0  0  0  0  0  0  0  0  0  0
   13.5458    0.0322   23.1545 C   0  0  0  0  0  0  0  0  0  0  0  0
   13.7318   -1.8328   21.6904 C   0  0  0  0  0  0  0  0  0  0  0  0
   12.2559   -0.3813   23.4682 C   0  0  0  0  0  0  0  0  0  0  0  0
   11.7748   -1.5265   22.8543 C   0  0  0  0  0  0  0  0  0  0  0  0
    9.2569    0.0627   22.5630 C   0  0  0  0  0  0  0  0  0  0  0  0
   10.2432   -2.8442   24.2958 C   0  0  0  0  0  0  0  0  0  0  0  0
    9.4590   -1.8745   20.9687 C   0  0  0  0  0  0  0  0  0  0  0  0
    9.3304   -1.4529   22.4305 C   0  0  1  0  0  0  0  0  0  0  0  0
   12.4820   -2.2656   21.9705 N   0  0  0  0  0  0  0  0  0  0  0  0
   10.4758   -1.9321   23.1784 N   0  0  3  0  0  0  0  0  0  0  0  0
   10.3651   -1.0013   20.3042 O   0  0  0  0  0  0  0  0  0  0  0  0
   11.5144    0.3153   24.3390 F   0  0  0  0  0  0  0  0  0  0  0  0
   10.4175   -1.3028   19.3834 H   0  0  0  0  0  0  0  0  0  0  0  0
  1  2  2  0  0  0  0
  1  3  1  0  0  0  0
  2  4  1  0  0  0  0
  3 10  2  0  0  0  0
  4  5  2  0  0  0  0
  4 13  1  0  0  0  0
  5 10  1  0  0  0  0
  5 11  1  0  0  0  0
  6  9  1  0  0  0  0
  7 11  1  0  0  0  0
  8  9  1  0  0  0  0
  8 12  1  0  0  0  0
  9 11  1  0  0  0  0
 12 14  1  0  0  0  0
M  END
> <ref_mols>
x1275_0

> <original SMILES>
C[C@@H](CO)N(C)C=1N=CC=CC1F

> <Chemgauss4>
-7.785793

> <ref_pdb>
x1382_0

$$$$
x0291
  -OEChem-05172015543D

 14 14  0     1  0  0  0  0  0999 V2000
   14.3045   -0.7018   22.2496 C   0  0  0  0  0  0  0  0  0  0  0  0
   13.5458    0.0322   23.1545 C   0  0  0  0  0  0  0  0  0  0  0  0
   13.7318   -1.8328   21.6904 C   0  0  0  0  0  0  0  0  0  0  0  0
   12.2559   -0.3813   23.4682 C   0  0  0  0  0  0  0  0  0  0  0  0
   11.7748   -1.5265   22.8543 C   0  0  0  0  0  0  0  0  0  0  0  0
    9.2569    0.0627   22.5630 C   0  0  0  0  0  0  0  0  0  0  0  0
   10.2432   -2.8442   24.2958 C   0  0  0  0  0  0  0  0  0  0  0  0
    9.4590   -1.8745   20.9687 C   0  0  0  0  0  0  0  0  0  0  0  0
    9.3304   -1.4529   22.4305 C   0  0  1  0  0  0  0  0  0  0  0  0
   12.4820   -2.2656   21.9705 N   0  0  0  0  0  0  0  0  0  0  0  0
   10.4758   -1.9321   23.1784 N   0  0  3  0  0  0  0  0  0  0  0  0
   10.3651   -1.0013   20.3042 O   0  0  0  0  0  0  0  0  0  0  0  0
   11.5144    0.3153   24.3390 F   0  0  0  0  0  0  0  0  0  0  0  0
   10.4175   -1.3028   19.3834 H   0  0  0  0  0  0  0  0  0  0  0  0
  1  2  2  0  0  0  0
  1  3  1  0  0  0  0
  2  4  1  0  0  0  0
  3 10  2  0  0  0  0
  4  5  2  0  0  0  0
  4 13  1  0  0  0  0
  5 10  1  0  0  0  0
  5 11  1  0  0  0  0
  6  9  1  0  0  0  0
  7 11  1  0  0  0  0
  8  9  1  0  0  0  0
  8 12  1  0  0  0  0
  9 11  1  0  0  0  0
 12 14  1  0  0  0  0
M  END
> <ref_mols>
x0291_0

> <original SMILES>
C[C@@H](CO)N(C)C=1N=CC=CC1F

> <Chemgauss4>
-7.785793

> <ref_pdb>
x1382_0

$$$$
x0195
  -OEChem-05172015543D

 17 18  0     1  0  0  0  0  0999 V2000
   13.6221    2.0036   22.6487 C   0  0  0  0  0  0  0  0  0  0  0  0
   12.6383    2.9145   23.0163 C   0  0  0  0  0  0  0  0  0  0  0  0
   11.1449    1.0768   23.4935 C   0  0  0  0  0  0  0  0  0  0  0  0
   13.3698    0.6212   22.6926 C   0  0  0  0  0  0  0  0  0  0  0  0
   12.1201    0.1245   23.1373 C   0  0  0  0  0  0  0  0  0  0  0  0
   11.3988    2.4510   23.4354 C   0  0  0  0  0  0  0  0  0  0  0  0
   14.4818   -0.3199   22.2968 C   0  0  0  0  0  0  0  0  0  0  0  0
   13.9371   -1.6947   21.9364 C   0  0  0  0  0  0  0  0  0  0  0  0
   12.9952   -2.1764   23.0296 C   0  0  0  0  0  0  0  0  0  0  0  0
   10.6280   -1.7750   23.7250 C   0  0  0  0  0  0  0  0  0  0  0  0
   11.8763   -1.2491   23.1915 N   0  0  3  0  0  0  0  0  0  0  0  0
   10.9645    5.0718   23.6526 N   0  0  0  0  0  0  0  0  0  0  0  0
    9.0624    3.4847   22.9395 O   0  0  0  0  0  0  0  0  0  0  0  0
    9.8883    3.4282   25.3190 O   0  0  0  0  0  0  0  0  0  0  0  0
   10.1549    3.5872   23.8965 S   0  0  0  0  0  0  0  0  0  0  0  0
   10.6759    5.6528   22.8559 H   0  0  0  0  0  0  0  0  0  0  0  0
   11.2409    5.6118   24.4816 H   0  0  0  0  0  0  0  0  0  0  0  0
  1  2  2  0  0  0  0
  1  4  1  0  0  0  0
  2  6  1  0  0  0  0
  3  5  1  0  0  0  0
  3  6  2  0  0  0  0
  4  5  2  0  0  0  0
  4  7  1  0  0  0  0
  5 11  1  0  0  0  0
  6 15  1  0  0  0  0
  7  8  1  0  0  0  0
  8  9  1  0  0  0  0
  9 11  1  0  0  0  0
 10 11  1  0  0  0  0
 12 15  1  0  0  0  0
 13 15  2  0  0  0  0
 14 15  2  0  0  0  0
 12 16  1  0  0  0  0
 12 17  1  0  0  0  0
M  END
> <ref_mols>
x0195_0

> <original SMILES>
CN1CCCC=2C=CC(=CC12)S(=O)(=O)N

> <Chemgauss4>
-7.785240

> <ref_pdb>
x0195_0

$$$$
x0839
  -OEChem-05172015543D

 14 15  0     1  0  0  0  0  0999 V2000
   11.3057    2.0311   23.7750 C   0  0  0  0  0  0  0  0  0  0  0  0
   13.0751    2.8705   22.7752 C   0  0  0  0  0  0  0  0  0  0  0  0
   12.5665    1.6870   23.2518 C   0  0  0  0  0  0  0  0  0  0  0  0
   14.3332   -1.5131   22.0718 C   0  0  0  0  0  0  0  0  0  0  0  0
   14.1754    0.0074   22.0628 C   0  0  0  0  0  0  0  0  0  0  0  0
   13.2162   -2.0588   22.9612 C   0  0  0  0  0  0  0  0  0  0  0  0
   13.2184    0.3219   23.2224 C   0  0  2  0  0  0  0  0  0  0  0  0
   12.2560   -0.8876   23.1977 C   0  0  1  0  0  0  0  0  0  0  0  0
   12.2060    5.2199   22.7123 C   0  0  0  0  0  0  0  0  0  0  0  0
   11.1855   -0.8284   22.1036 C   0  0  0  0  0  0  0  0  0  0  0  0
   11.0302    3.3314   23.6434 N   0  0  0  0  0  0  0  0  0  0  0  0
   12.1251    3.8148   23.0322 N   0  0  0  0  0  0  0  0  0  0  0  0
   10.0832   -0.0798   22.5861 O   0  0  0  0  0  0  0  0  0  0  0  0
    9.4211   -0.0581   21.8747 H   0  0  0  0  0  0  0  0  0  0  0  0
  1  3  1  0  0  0  0
  1 11  2  0  0  0  0
  2  3  2  0  0  0  0
  2 12  1  0  0  0  0
  3  7  1  0  0  0  0
  4  5  1  0  0  0  0
  4  6  1  0  0  0  0
  5  7  1  0  0  0  0
  6  8  1  0  0  0  0
  7  8  1  0  0  0  0
  8 10  1  0  0  0  0
  9 12  1  0  0  0  0
 10 13  1  0  0  0  0
 11 12  1  0  0  0  0
 13 14  1  0  0  0  0
M  END
> <ref_mols>
x0839_0

> <original SMILES>
OC[C@@H]1[C@H](C2=CN(C)N=C2)CCC1

> <Chemgauss4>
-7.783470

> <ref_pdb>
x0195_0

$$$$
x0182
  -OEChem-05172015543D

 14 15  0     0  0  0  0  0  0999 V2000
   11.3727   -4.0991   25.0141 C   0  0  0  0  0  0  0  0  0  0  0  0
   11.0156   -1.9638   23.9417 C   0  0  0  0  0  0  0  0  0  0  0  0
   12.4848   -3.5802   25.6771 C   0  0  0  0  0  0  0  0  0  0  0  0
   12.1277   -1.4448   24.6048 C   0  0  0  0  0  0  0  0  0  0  0  0
   10.6382   -3.2909   24.1463 C   0  0  0  0  0  0  0  0  0  0  0  0
   12.8622   -2.2531   25.4725 C   0  0  0  0  0  0  0  0  0  0  0  0
    9.4931   -3.8250   23.4638 C   0  0  0  0  0  0  0  0  0  0  0  0
    8.0478   -5.1736   22.8539 C   0  0  0  0  0  0  0  0  0  0  0  0
    5.8035   -6.1917   23.3154 C   0  0  0  0  0  0  0  0  0  0  0  0
    7.1471   -6.3015   22.5810 C   0  0  0  0  0  0  0  0  0  0  0  0
    9.0936   -5.1180   23.6392 N   0  0  0  0  0  0  0  0  0  0  0  0
    8.7530   -3.0974   22.6220 N   0  0  0  0  0  0  0  0  0  0  0  0
    7.7741   -4.0097   22.2083 O   0  0  0  0  0  0  0  0  0  0  0  0
   14.2349   -1.6122   26.2892 Cl  0  0  0  0  0  0  0  0  0  0  0  0
  1  3  2  0  0  0  0
  1  5  1  0  0  0  0
  2  4  1  0  0  0  0
  2  5  2  0  0  0  0
  3  6  1  0  0  0  0
  4  6  2  0  0  0  0
  5  7  1  0  0  0  0
  6 14  1  0  0  0  0
  7 11  1  0  0  0  0
  7 12  2  0  0  0  0
  8 10  1  0  0  0  0
  8 11  2  0  0  0  0
  8 13  1  0  0  0  0
  9 10  1  0  0  0  0
 12 13  1  0  0  0  0
M  END
> <ref_mols>
x0182_0

> <original SMILES>
CCC1=NC(=NO1)C=2C=CC(Cl)=CC2

> <Chemgauss4>
-7.782921

> <ref_pdb>
x0749_0

$$$$
x0895
  -OEChem-05172015543D

 16 17  0     0  0  0  0  0  0999 V2000
   13.3120    0.4405   22.8049 C   0  0  0  0  0  0  0  0  0  0  0  0
   14.3147   -0.4792   22.5186 C   0  0  0  0  0  0  0  0  0  0  0  0
   11.9787    0.0543   22.7248 C   0  0  0  0  0  0  0  0  0  0  0  0
   13.9347   -1.7624   22.1599 C   0  0  0  0  0  0  0  0  0  0  0  0
   11.7032   -1.2527   22.3566 C   0  0  0  0  0  0  0  0  0  0  0  0
    9.7311   -2.2205   24.5840 C   0  0  0  0  0  0  0  0  0  0  0  0
    9.1878   -0.8259   24.2793 C   0  0  0  0  0  0  0  0  0  0  0  0
    9.9510   -2.8856   23.2260 C   0  0  0  0  0  0  0  0  0  0  0  0
    9.1759   -0.7093   22.7555 C   0  0  0  0  0  0  0  0  0  0  0  0
   10.2409   -1.7149   22.2575 C   0  0  0  0  0  0  0  0  0  0  0  0
    9.9393   -2.1063   20.8011 C   0  0  0  0  0  0  0  0  0  0  0  0
   12.6501   -2.1744   22.0712 N   0  0  0  0  0  0  0  0  0  0  0  0
   10.1196   -0.9162   19.9469 N   0  3  0  0  0  0  0  0  0  0  0  0
    9.5391   -0.9716   19.0999 H   0  0  0  0  0  0  0  0  0  0  0  0
   11.0980   -0.8167   19.6459 H   0  0  0  0  0  0  0  0  0  0  0  0
    9.8595   -0.0549   20.4450 H   0  0  0  0  0  0  0  0  0  0  0  0
  1  2  2  0  0  0  0
  1  3  1  0  0  0  0
  2  4  1  0  0  0  0
  3  5  2  0  0  0  0
  4 12  2  0  0  0  0
  5 10  1  0  0  0  0
  5 12  1  0  0  0  0
  6  7  1  0  0  0  0
  6  8  1  0  0  0  0
  7  9  1  0  0  0  0
  8 10  1  0  0  0  0
  9 10  1  0  0  0  0
 10 11  1  0  0  0  0
 11 13  1  0  0  0  0
 13 14  1  0  0  0  0
 13 15  1  0  0  0  0
 13 16  1  0  0  0  0
M  CHG  1  13   1
M  END
> <ref_mols>
x0895_0

> <original SMILES>
NCC1(C2=NC=CC=C2)CCCC1

> <Chemgauss4>
-7.781602

> <ref_pdb>
x1382_0

$$$$
x0884
  -OEChem-05172015543D

 14 14  0     1  0  0  0  0  0999 V2000
   11.5169    1.5407   23.2848 C   0  0  0  0  0  0  0  0  0  0  0  0
   10.3444   -1.3180   24.2077 C   0  0  0  0  0  0  0  0  0  0  0  0
   13.4260   -2.0209   22.5895 C   0  0  0  0  0  0  0  0  0  0  0  0
   14.1983   -1.1519   23.5844 C   0  0  0  0  0  0  0  0  0  0  0  0
   11.9835   -1.5642   22.3807 C   0  0  0  0  0  0  0  0  0  0  0  0
   12.2209    0.3788   23.9231 C   0  0  2  0  0  0  0  0  0  0  0  0
   13.7314    0.3117   23.5845 C   0  0  2  0  0  0  0  0  0  0  0  0
    9.8733   -0.5280   25.4043 C   0  0  0  0  0  0  0  0  0  0  0  0
   14.1505    1.0184   22.2897 C   0  0  0  0  0  0  0  0  0  0  0  0
   11.5394    3.8987   23.1329 C   0  0  0  0  0  0  0  0  0  0  0  0
   11.4742   -0.8344   23.5399 N   0  0  0  0  0  0  0  0  0  0  0  0
   10.5564    1.4318   22.5347 O   0  0  0  0  0  0  0  0  0  0  0  0
    9.7321   -2.3389   23.8829 O   0  0  0  0  0  0  0  0  0  0  0  0
   12.1137    2.7039   23.6720 O   0  0  0  0  0  0  0  0  0  0  0  0
  1  6  1  0  0  0  0
  1 12  2  0  0  0  0
  1 14  1  0  0  0  0
  2  8  1  0  0  0  0
  2 11  1  0  0  0  0
  2 13  2  0  0  0  0
  3  4  1  0  0  0  0
  3  5  1  0  0  0  0
  4  7  1  0  0  0  0
  5 11  1  0  0  0  0
  6  7  1  0  0  0  0
  6 11  1  0  0  0  0
  7  9  1  0  0  0  0
 10 14  1  0  0  0  0
M  END
> <ref_mols>
x0884_0

> <original SMILES>
C[C@H]1[C@@H](C(OC)=O)N(C(C)=O)CCC1

> <Chemgauss4>
-7.781389

> <ref_pdb>
x0195_0

$$$$
x0487
  -OEChem-05172015543D

 17 18  0     0  0  0  0  0  0999 V2000
   14.2960   -1.4926   26.5976 C   0  0  0  0  0  0  0  0  0  0  0  0
    6.1486   -5.5882   21.8456 C   0  0  0  0  0  0  0  0  0  0  0  0
   12.2874   -1.0262   25.2823 C   0  0  0  0  0  0  0  0  0  0  0  0
   12.8159   -3.3049   25.8868 C   0  0  0  0  0  0  0  0  0  0  0  0
   11.1445   -1.4681   24.6159 C   0  0  0  0  0  0  0  0  0  0  0  0
   11.6730   -3.7468   25.2204 C   0  0  0  0  0  0  0  0  0  0  0  0
    7.2896   -5.8680   22.6518 C   0  0  0  0  0  0  0  0  0  0  0  0
    6.0215   -4.2430   21.5779 C   0  0  0  0  0  0  0  0  0  0  0  0
   13.1232   -1.9447   25.9177 C   0  0  0  0  0  0  0  0  0  0  0  0
   10.8372   -2.8283   24.5850 C   0  0  0  0  0  0  0  0  0  0  0  0
    7.9913   -4.7258   22.9694 C   0  0  0  0  0  0  0  0  0  0  0  0
    9.2167   -4.5886   23.7751 C   0  0  0  0  0  0  0  0  0  0  0  0
   15.2483   -1.1253   27.1498 N   0  0  0  0  0  0  0  0  0  0  0  0
    9.6941   -3.2700   23.9181 N   0  0  0  0  0  0  0  0  0  0  0  0
    9.7778   -5.5755   24.2463 O   0  0  0  0  0  0  0  0  0  0  0  0
    7.2744   -3.3236   22.2971 S   0  0  0  0  0  0  0  0  0  0  0  0
    9.1266   -2.5393   23.4735 H   0  0  0  0  0  0  0  0  0  0  0  0
  1  9  1  0  0  0  0
  1 13  3  0  0  0  0
  2  7  1  0  0  0  0
  2  8  2  0  0  0  0
  3  5  2  0  0  0  0
  3  9  1  0  0  0  0
  4  6  1  0  0  0  0
  4  9  2  0  0  0  0
  5 10  1  0  0  0  0
  6 10  2  0  0  0  0
  7 11  2  0  0  0  0
  8 16  1  0  0  0  0
 10 14  1  0  0  0  0
 11 12  1  0  0  0  0
 11 16  1  0  0  0  0
 12 14  1  0  0  0  0
 12 15  2  0  0  0  0
 14 17  1  0  0  0  0
M  END
> <ref_mols>
x0487_0

> <original SMILES>
O=C(NC=1C=CC(C#N)=CC1)C2=CC=CS2

> <Chemgauss4>
-7.781003

> <ref_pdb>
x0749_0

> <CYS145-warhead dist minimum (A)>
5.731447

> <CYS145-warhead dist mean (A)>
6.541601

> <CYS145-warhead dist stddev (A)>
0.26931214

$$$$
x0355
  -OEChem-05172015543D

 16 17  0     1  0  0  0  0  0999 V2000
    6.7995   -5.8748   22.7011 C   0  0  0  0  0  0  0  0  0  0  0  0
    6.8359   -5.1583   21.5101 C   0  0  0  0  0  0  0  0  0  0  0  0
    6.2263   -5.3041   23.8320 C   0  0  0  0  0  0  0  0  0  0  0  0
    6.2898   -3.8849   21.5023 C   0  0  0  0  0  0  0  0  0  0  0  0
    5.7077   -4.0241   23.7204 C   0  0  0  0  0  0  0  0  0  0  0  0
    6.3009   -3.0736   20.2578 C   0  0  0  0  0  0  0  0  0  0  0  0
    4.9341    0.5308   19.6368 C   0  0  0  0  0  0  0  0  0  0  0  0
    5.4154    0.8536   18.2497 C   0  0  0  0  0  0  0  0  0  0  0  0
    5.6493   -0.5149   18.8269 C   0  0  0  0  0  0  0  0  0  0  0  0
    5.0848   -3.3804   24.9143 C   0  0  0  0  0  0  0  0  0  0  0  0
    7.7630   -1.6493   18.0578 C   0  0  0  0  0  0  0  0  0  0  0  0
    7.0548   -0.9541   19.2113 C   0  0  2  0  0  0  0  0  0  0  0  0
    5.7247   -3.2972   22.5807 N   0  0  0  0  0  0  0  0  0  0  0  0
    6.9743   -1.8897   20.3594 N   0  0  0  0  0  0  0  0  0  0  0  0
    5.7114   -3.4908   19.2644 O   0  0  0  0  0  0  0  0  0  0  0  0
    7.3870   -1.5583   21.2055 H   0  0  0  0  0  0  0  0  0  0  0  0
  1  2  2  0  0  0  0
  1  3  1  0  0  0  0
  2  4  1  0  0  0  0
  3  5  2  0  0  0  0
  4  6  1  0  0  0  0
  4 13  2  0  0  0  0
  5 10  1  0  0  0  0
  5 13  1  0  0  0  0
  6 14  1  0  0  0  0
  6 15  2  0  0  0  0
  7  8  1  0  0  0  0
  7  9  1  0  0  0  0
  8  9  1  0  0  0  0
  9 12  1  0  0  0  0
 11 12  1  0  0  0  0
 12 14  1  0  0  0  0
 14 16  1  0  0  0  0
M  END
> <ref_mols>
x0355_0

> <original SMILES>
CC(NC(=O)C=1C=CC=C(C)N1)C2CC2

> <Chemgauss4>
-7.779980

> <ref_pdb>
x0397_0

$$$$
x1271
  -OEChem-05172015543D

 16 17  0     0  0  0  0  0  0999 V2000
   14.1623   -1.5591   22.9066 C   0  0  0  0  0  0  0  0  0  0  0  0
   12.4110    0.0754   23.1595 C   0  0  0  0  0  0  0  0  0  0  0  0
   12.1189   -0.9966   22.3424 C   0  0  0  0  0  0  0  0  0  0  0  0
   12.0510    5.0267   23.6345 C   0  0  0  0  0  0  0  0  0  0  0  0
   11.5946    1.2406   23.5349 C   0  0  0  0  0  0  0  0  0  0  0  0
   11.6801    3.6247   24.0847 C   0  0  0  0  0  0  0  0  0  0  0  0
   13.8628    3.9553   22.3490 C   0  0  0  0  0  0  0  0  0  0  0  0
   12.9075    2.8201   22.0459 C   0  0  0  0  0  0  0  0  0  0  0  0
   10.8478   -1.2221   21.6234 C   0  0  0  0  0  0  0  0  0  0  0  0
   13.1221   -1.9347   22.1959 N   0  0  0  0  0  0  0  0  0  0  0  0
   13.1253    5.1178   22.7793 N   0  0  0  0  0  0  0  0  0  0  0  0
   12.0678    2.5194   23.2104 N   0  0  0  0  0  0  0  0  0  0  0  0
   11.4848    6.0149   24.1025 O   0  0  0  0  0  0  0  0  0  0  0  0
   10.5318    1.0065   24.1097 O   0  0  0  0  0  0  0  0  0  0  0  0
   14.0029   -0.0883   23.7763 S   0  0  0  0  0  0  0  0  0  0  0  0
   13.4030    6.0210   22.4456 H   0  0  0  0  0  0  0  0  0  0  0  0
  1 10  2  0  0  0  0
  1 15  1  0  0  0  0
  2  3  2  0  0  0  0
  2  5  1  0  0  0  0
  2 15  1  0  0  0  0
  3  9  1  0  0  0  0
  3 10  1  0  0  0  0
  4  6  1  0  0  0  0
  4 11  1  0  0  0  0
  4 13  2  0  0  0  0
  5 12  1  0  0  0  0
  5 14  2  0  0  0  0
  6 12  1  0  0  0  0
  7  8  1  0  0  0  0
  7 11  1  0  0  0  0
  8 12  1  0  0  0  0
 11 16  1  0  0  0  0
M  END
> <ref_mols>
x1271_0

> <original SMILES>
CC=1N=CSC1C(=O)N2CCNC(=O)C2

> <Chemgauss4>
-7.779962

> <ref_pdb>
x0195_0

$$$$
x0123
  -OEChem-05172015543D

 16 17  0     0  0  0  0  0  0999 V2000
   14.1623   -1.5591   22.9066 C   0  0  0  0  0  0  0  0  0  0  0  0
   12.4110    0.0754   23.1595 C   0  0  0  0  0  0  0  0  0  0  0  0
   12.1189   -0.9966   22.3424 C   0  0  0  0  0  0  0  0  0  0  0  0
   12.0510    5.0267   23.6345 C   0  0  0  0  0  0  0  0  0  0  0  0
   11.5946    1.2406   23.5349 C   0  0  0  0  0  0  0  0  0  0  0  0
   11.6801    3.6247   24.0847 C   0  0  0  0  0  0  0  0  0  0  0  0
   13.8628    3.9553   22.3490 C   0  0  0  0  0  0  0  0  0  0  0  0
   12.9075    2.8201   22.0459 C   0  0  0  0  0  0  0  0  0  0  0  0
   10.8478   -1.2221   21.6234 C   0  0  0  0  0  0  0  0  0  0  0  0
   13.1221   -1.9347   22.1959 N   0  0  0  0  0  0  0  0  0  0  0  0
   13.1253    5.1178   22.7793 N   0  0  0  0  0  0  0  0  0  0  0  0
   12.0678    2.5194   23.2104 N   0  0  0  0  0  0  0  0  0  0  0  0
   11.4848    6.0149   24.1025 O   0  0  0  0  0  0  0  0  0  0  0  0
   10.5318    1.0065   24.1097 O   0  0  0  0  0  0  0  0  0  0  0  0
   14.0029   -0.0883   23.7763 S   0  0  0  0  0  0  0  0  0  0  0  0
   13.4030    6.0210   22.4456 H   0  0  0  0  0  0  0  0  0  0  0  0
  1 10  2  0  0  0  0
  1 15  1  0  0  0  0
  2  3  2  0  0  0  0
  2  5  1  0  0  0  0
  2 15  1  0  0  0  0
  3  9  1  0  0  0  0
  3 10  1  0  0  0  0
  4  6  1  0  0  0  0
  4 11  1  0  0  0  0
  4 13  2  0  0  0  0
  5 12  1  0  0  0  0
  5 14  2  0  0  0  0
  6 12  1  0  0  0  0
  7  8  1  0  0  0  0
  7 11  1  0  0  0  0
  8 12  1  0  0  0  0
 11 16  1  0  0  0  0
M  END
> <ref_mols>
x0123_0

> <original SMILES>
CC=1N=CSC1C(=O)N2CCNC(=O)C2

> <Chemgauss4>
-7.779962

> <ref_pdb>
x0195_0

$$$$
x0323
  -OEChem-05172015543D

 14 15  0     0  0  0  0  0  0999 V2000
   14.2847   -0.2752   23.5204 C   0  0  0  0  0  0  0  0  0  0  0  0
   12.5703   -1.1439   22.0683 C   0  0  0  0  0  0  0  0  0  0  0  0
   13.2280    0.5731   23.2638 C   0  0  0  0  0  0  0  0  0  0  0  0
   13.1811    3.3369   21.8013 C   0  0  0  0  0  0  0  0  0  0  0  0
   11.6517    3.9286   23.5861 C   0  0  0  0  0  0  0  0  0  0  0  0
   14.1573    4.4274   22.2308 C   0  0  0  0  0  0  0  0  0  0  0  0
   12.5857    5.0357   24.0645 C   0  0  0  0  0  0  0  0  0  0  0  0
   13.0692    1.9640   23.8064 C   0  0  0  0  0  0  0  0  0  0  0  0
   12.2441    0.0769   22.4310 N   0  0  0  0  0  0  0  0  0  0  0  0
   12.3316    2.8284   22.8877 N   0  0  0  0  0  0  0  0  0  0  0  0
   13.3974    5.5185   22.9088 N   0  3  0  0  0  0  0  0  0  0  0  0
   14.0464   -1.7579   22.6920 S   0  0  0  0  0  0  0  0  0  0  0  0
   14.0532    6.2468   23.2293 H   0  0  0  0  0  0  0  0  0  0  0  0
   12.7804    5.9828   22.2261 H   0  0  0  0  0  0  0  0  0  0  0  0
  1  3  2  0  0  0  0
  1 12  1  0  0  0  0
  2  9  2  0  0  0  0
  2 12  1  0  0  0  0
  3  8  1  0  0  0  0
  3  9  1  0  0  0  0
  4  6  1  0  0  0  0
  4 10  1  0  0  0  0
  5  7  1  0  0  0  0
  5 10  1  0  0  0  0
  6 11  1  0  0  0  0
  7 11  1  0  0  0  0
  8 10  1  0  0  0  0
 11 13  1  0  0  0  0
 11 14  1  0  0  0  0
M  CHG  1  11   1
M  END
> <ref_mols>
x0323_0

> <original SMILES>
C(N1CCNCC1)C2=CSC=N2

> <Chemgauss4>
-7.778632

> <ref_pdb>
x0195_0

$$$$
x0879
  -OEChem-05172015543D

 15 16  0     0  0  0  0  0  0999 V2000
   13.4530    3.2626   22.4675 C   0  0  0  0  0  0  0  0  0  0  0  0
   12.5689    3.8352   23.3752 C   0  0  0  0  0  0  0  0  0  0  0  0
   13.4276    1.8891   22.2528 C   0  0  0  0  0  0  0  0  0  0  0  0
   11.6860    2.9973   24.0373 C   0  0  0  0  0  0  0  0  0  0  0  0
   12.5064    1.1383   22.9652 C   0  0  0  0  0  0  0  0  0  0  0  0
   11.0219   -0.8461   22.9937 C   0  0  0  0  0  0  0  0  0  0  0  0
   14.1335   -1.5429   21.4557 C   0  0  0  0  0  0  0  0  0  0  0  0
   14.1119   -2.1559   22.8440 C   0  0  0  0  0  0  0  0  0  0  0  0
   12.7499   -0.9141   21.3424 C   0  0  0  0  0  0  0  0  0  0  0  0
   13.4346   -1.0877   23.6966 C   0  0  0  0  0  0  0  0  0  0  0  0
   12.4504   -0.3637   22.7564 C   0  0  0  0  0  0  0  0  0  0  0  0
    9.7644   -2.7053   23.7328 C   0  0  0  0  0  0  0  0  0  0  0  0
   11.6318    1.6589   23.8550 N   0  0  0  0  0  0  0  0  0  0  0  0
   10.0258   -0.1671   22.7846 O   0  0  0  0  0  0  0  0  0  0  0  0
   11.0451   -2.1253   23.4650 O   0  0  0  0  0  0  0  0  0  0  0  0
  1  2  2  0  0  0  0
  1  3  1  0  0  0  0
  2  4  1  0  0  0  0
  3  5  2  0  0  0  0
  4 13  2  0  0  0  0
  5 11  1  0  0  0  0
  5 13  1  0  0  0  0
  6 11  1  0  0  0  0
  6 14  2  0  0  0  0
  6 15  1  0  0  0  0
  7  8  1  0  0  0  0
  7  9  1  0  0  0  0
  8 10  1  0  0  0  0
  9 11  1  0  0  0  0
 10 11  1  0  0  0  0
 12 15  1  0  0  0  0
M  END
> <ref_mols>
x0879_0

> <original SMILES>
O=C(OC)C1(C2=NC=CC=C2)CCCC1

> <Chemgauss4>
-7.777366

> <ref_pdb>
x0195_0

$$$$
x0468
  -OEChem-05172015543D

 15 15  0     0  0  0  0  0  0999 V2000
    8.9802    6.2581   23.0338 C   0  0  0  0  0  0  0  0  0  0  0  0
   12.3338    0.2283   23.4123 C   0  0  0  0  0  0  0  0  0  0  0  0
   11.1980    0.2986   24.4241 C   0  0  0  0  0  0  0  0  0  0  0  0
   13.0120    1.5776   23.1862 C   0  0  0  0  0  0  0  0  0  0  0  0
    9.8737    0.8663   23.9191 C   0  0  0  0  0  0  0  0  0  0  0  0
   12.2623    2.5307   22.2702 C   0  0  0  0  0  0  0  0  0  0  0  0
    9.8865    1.7696   22.6952 C   0  0  0  0  0  0  0  0  0  0  0  0
    8.1457    6.6820   21.8710 C   0  0  0  0  0  0  0  0  0  0  0  0
   11.1343    5.1790   23.6486 C   0  0  0  0  0  0  0  0  0  0  0  0
   10.8464    3.7305   23.9955 C   0  0  0  0  0  0  0  0  0  0  0  0
   10.1527    5.6735   22.6574 N   0  0  0  0  0  0  0  0  0  0  0  0
   10.8829    2.8934   22.7487 N   0  3  0  0  0  0  0  0  0  0  0  0
    8.5744    6.4565   24.1729 O   0  0  0  0  0  0  0  0  0  0  0  0
   10.3557    5.5758   21.6830 H   0  0  0  0  0  0  0  0  0  0  0  0
   10.5216    3.5835   21.9852 H   0  0  0  0  0  0  0  0  0  0  0  0
  1  8  1  0  0  0  0
  1 11  1  0  0  0  0
  1 13  2  0  0  0  0
  2  3  1  0  0  0  0
  2  4  1  0  0  0  0
  3  5  1  0  0  0  0
  4  6  1  0  0  0  0
  5  7  1  0  0  0  0
  6 12  1  0  0  0  0
  7 12  1  0  0  0  0
  9 10  1  0  0  0  0
  9 11  1  0  0  0  0
 10 12  1  0  0  0  0
 11 14  1  0  0  0  0
 12 15  1  0  0  0  0
M  CHG  1  12   1
M  END
> <ref_mols>
x0468_0

> <original SMILES>
CC(=O)NCCN1CCCCCC1

> <Chemgauss4>
-7.776066

> <ref_pdb>
x0104_0

$$$$
x0102
  -OEChem-05172015543D

 14 15  0     0  0  0  0  0  0999 V2000
   13.7683   -1.4241   22.4952 C   0  0  0  0  0  0  0  0  0  0  0  0
   12.5079   -1.7876   23.0034 C   0  0  0  0  0  0  0  0  0  0  0  0
   14.1777   -0.0763   22.3183 C   0  0  0  0  0  0  0  0  0  0  0  0
   11.6760   -0.6997   23.3259 C   0  0  0  0  0  0  0  0  0  0  0  0
   12.0963    0.6844   23.1441 C   0  0  0  0  0  0  0  0  0  0  0  0
   13.3624    1.0257   22.6339 C   0  0  0  0  0  0  0  0  0  0  0  0
   13.0935    3.5247   22.7198 C   0  0  0  0  0  0  0  0  0  0  0  0
   13.9120    4.7458   22.3831 C   0  0  0  0  0  0  0  0  0  0  0  0
   10.4331   -0.6969   23.8237 N   0  0  0  0  0  0  0  0  0  0  0  0
   11.0944    1.4806   23.5376 N   0  0  0  0  0  0  0  0  0  0  0  0
   13.7912    2.3362   22.4518 N   0  0  0  0  0  0  0  0  0  0  0  0
   11.9594    3.6345   23.1745 O   0  0  0  0  0  0  0  0  0  0  0  0
   10.0795    0.6353   23.9523 O   0  0  0  0  0  0  0  0  0  0  0  0
   14.7394    2.4617   22.0736 H   0  0  0  0  0  0  0  0  0  0  0  0
  1  2  2  0  0  0  0
  1  3  1  0  0  0  0
  2  4  1  0  0  0  0
  3  6  2  0  0  0  0
  4  5  1  0  0  0  0
  4  9  2  0  0  0  0
  5  6  1  0  0  0  0
  5 10  2  0  0  0  0
  6 11  1  0  0  0  0
  7  8  1  0  0  0  0
  7 11  1  0  0  0  0
  7 12  2  0  0  0  0
  9 13  1  0  0  0  0
 10 13  1  0  0  0  0
 11 14  1  0  0  0  0
M  END
> <ref_mols>
x0102_0

> <original SMILES>
CC(=O)NC1=CC=CC2=NON=C12

> <Chemgauss4>
-7.775321

> <ref_pdb>
x0195_0

$$$$
x1092
  -OEChem-05172015543D

 15 16  0     0  0  0  0  0  0999 V2000
    8.8790   -3.6224   24.7458 C   0  0  0  0  0  0  0  0  0  0  0  0
    8.9877   -3.1917   22.3710 C   0  0  0  0  0  0  0  0  0  0  0  0
    7.9922   -4.6739   24.5145 C   0  0  0  0  0  0  0  0  0  0  0  0
    8.1010   -4.2433   22.1397 C   0  0  0  0  0  0  0  0  0  0  0  0
    9.3767   -2.8812   23.6740 C   0  0  0  0  0  0  0  0  0  0  0  0
    7.6032   -4.9844   23.2115 C   0  0  0  0  0  0  0  0  0  0  0  0
   10.3101   -1.7750   23.9170 C   0  0  0  0  0  0  0  0  0  0  0  0
   11.6658   -3.1033   25.6178 C   0  0  0  0  0  0  0  0  0  0  0  0
   11.6491   -0.6304   25.6509 C   0  0  0  0  0  0  0  0  0  0  0  0
   13.1704   -3.2373   25.4162 C   0  0  0  0  0  0  0  0  0  0  0  0
   13.1525   -0.4741   25.4556 C   0  0  0  0  0  0  0  0  0  0  0  0
   11.1563   -1.8586   25.0266 N   0  0  0  0  0  0  0  0  0  0  0  0
   10.2766   -0.8505   23.1064 O   0  0  0  0  0  0  0  0  0  0  0  0
   14.0697   -1.8606   26.2004 S   0  0  0  0  0  0  0  0  0  0  0  0
    6.5104   -6.2825   22.9262 Cl  0  0  0  0  0  0  0  0  0  0  0  0
  1  3  2  0  0  0  0
  1  5  1  0  0  0  0
  2  4  1  0  0  0  0
  2  5  2  0  0  0  0
  3  6  1  0  0  0  0
  4  6  2  0  0  0  0
  5  7  1  0  0  0  0
  6 15  1  0  0  0  0
  7 12  1  0  0  0  0
  7 13  2  0  0  0  0
  8 10  1  0  0  0  0
  8 12  1  0  0  0  0
  9 11  1  0  0  0  0
  9 12  1  0  0  0  0
 10 14  1  0  0  0  0
 11 14  1  0  0  0  0
M  END
> <ref_mols>
x1092_0

> <original SMILES>
ClC=1C=CC(=CC1)C(=O)N2CCSCC2

> <Chemgauss4>
-7.772902

> <ref_pdb>
x0749_0

$$$$
x0545
  -OEChem-05172015543D

 15 16  0     0  0  0  0  0  0999 V2000
    8.8790   -3.6224   24.7458 C   0  0  0  0  0  0  0  0  0  0  0  0
    8.9877   -3.1917   22.3710 C   0  0  0  0  0  0  0  0  0  0  0  0
    7.9922   -4.6739   24.5145 C   0  0  0  0  0  0  0  0  0  0  0  0
    8.1010   -4.2433   22.1397 C   0  0  0  0  0  0  0  0  0  0  0  0
    9.3767   -2.8812   23.6740 C   0  0  0  0  0  0  0  0  0  0  0  0
    7.6032   -4.9844   23.2115 C   0  0  0  0  0  0  0  0  0  0  0  0
   10.3101   -1.7750   23.9170 C   0  0  0  0  0  0  0  0  0  0  0  0
   11.6658   -3.1033   25.6178 C   0  0  0  0  0  0  0  0  0  0  0  0
   11.6491   -0.6304   25.6509 C   0  0  0  0  0  0  0  0  0  0  0  0
   13.1704   -3.2373   25.4162 C   0  0  0  0  0  0  0  0  0  0  0  0
   13.1525   -0.4741   25.4556 C   0  0  0  0  0  0  0  0  0  0  0  0
   11.1563   -1.8586   25.0266 N   0  0  0  0  0  0  0  0  0  0  0  0
   10.2766   -0.8505   23.1064 O   0  0  0  0  0  0  0  0  0  0  0  0
   14.0697   -1.8606   26.2004 S   0  0  0  0  0  0  0  0  0  0  0  0
    6.5104   -6.2825   22.9262 Cl  0  0  0  0  0  0  0  0  0  0  0  0
  1  3  2  0  0  0  0
  1  5  1  0  0  0  0
  2  4  1  0  0  0  0
  2  5  2  0  0  0  0
  3  6  1  0  0  0  0
  4  6  2  0  0  0  0
  5  7  1  0  0  0  0
  6 15  1  0  0  0  0
  7 12  1  0  0  0  0
  7 13  2  0  0  0  0
  8 10  1  0  0  0  0
  8 12  1  0  0  0  0
  9 11  1  0  0  0  0
  9 12  1  0  0  0  0
 10 14  1  0  0  0  0
 11 14  1  0  0  0  0
M  END
> <ref_mols>
x0545_0

> <original SMILES>
ClC=1C=CC(=CC1)C(=O)N2CCSCC2

> <Chemgauss4>
-7.772902

> <ref_pdb>
x0749_0

$$$$
x0131
  -OEChem-05172015543D

 17 17  0     0  0  0  0  0  0999 V2000
   13.0569   -1.2730   22.9213 C   0  0  0  0  0  0  0  0  0  0  0  0
   13.1931   -0.2100   23.8140 C   0  0  0  0  0  0  0  0  0  0  0  0
   11.8855   -1.4130   22.1769 C   0  0  0  0  0  0  0  0  0  0  0  0
   12.1579    0.7131   23.9625 C   0  0  0  0  0  0  0  0  0  0  0  0
   10.8504   -0.4899   22.3254 C   0  0  0  0  0  0  0  0  0  0  0  0
   10.9865    0.5731   23.2182 C   0  0  0  0  0  0  0  0  0  0  0  0
    8.8113    0.3536   21.1105 C   0  0  0  0  0  0  0  0  0  0  0  0
    5.6186    0.4403   18.8482 C   0  0  0  0  0  0  0  0  0  0  0  0
    6.1616   -0.5569   22.3643 C   0  0  0  0  0  0  0  0  0  0  0  0
    6.7708    0.9045   19.7306 C   0  0  0  0  0  0  0  0  0  0  0  0
    6.8004   -1.2197   21.1492 C   0  0  0  0  0  0  0  0  0  0  0  0
    7.6350   -0.2323   20.3146 C   0  0  0  0  0  0  0  0  0  0  0  0
    9.6678   -0.6458   21.5637 N   0  0  0  0  0  0  0  0  0  0  0  0
    8.9360    1.5636   21.2773 O   0  0  0  0  0  0  0  0  0  0  0  0
    9.9871    1.4860   23.3786 O   0  0  0  0  0  0  0  0  0  0  0  0
    9.4139   -1.6004   21.3185 H   0  0  0  0  0  0  0  0  0  0  0  0
   10.2456    2.1532   24.0332 H   0  0  0  0  0  0  0  0  0  0  0  0
  1  2  1  0  0  0  0
  1  3  2  0  0  0  0
  2  4  2  0  0  0  0
  3  5  1  0  0  0  0
  4  6  1  0  0  0  0
  5  6  2  0  0  0  0
  5 13  1  0  0  0  0
  6 15  1  0  0  0  0
  7 12  1  0  0  0  0
  7 13  1  0  0  0  0
  7 14  2  0  0  0  0
  8 10  1  0  0  0  0
  9 11  1  0  0  0  0
 10 12  1  0  0  0  0
 11 12  1  0  0  0  0
 13 16  1  0  0  0  0
 15 17  1  0  0  0  0
M  END
> <ref_mols>
x0131_0

> <original SMILES>
CCC(CC)C(=O)NC=1C=CC=CC1O

> <Chemgauss4>
-7.769409

> <ref_pdb>
x1093_0

$$$$
x0903
  -OEChem-05172015543D

 19 20  0     0  0  0  0  0  0999 V2000
    9.9359   -4.4027   24.7456 C   0  0  0  0  0  0  0  0  0  0  0  0
    9.7753   -2.5464   23.2077 C   0  0  0  0  0  0  0  0  0  0  0  0
   11.1099   -3.8646   25.2726 C   0  0  0  0  0  0  0  0  0  0  0  0
   10.9493   -2.0082   23.7348 C   0  0  0  0  0  0  0  0  0  0  0  0
    9.2686   -3.7436   23.7131 C   0  0  0  0  0  0  0  0  0  0  0  0
   11.6166   -2.6674   24.7673 C   0  0  0  0  0  0  0  0  0  0  0  0
    7.0191   -4.3939   24.3285 C   0  0  0  0  0  0  0  0  0  0  0  0
    7.2629   -3.4504   22.0874 C   0  0  0  0  0  0  0  0  0  0  0  0
    8.2058   -5.7547   22.5758 C   0  0  0  0  0  0  0  0  0  0  0  0
    6.0374   -4.1077   21.4629 C   0  0  0  0  0  0  0  0  0  0  0  0
    6.9732   -6.3683   21.9203 C   0  0  0  0  0  0  0  0  0  0  0  0
    7.9793   -4.3339   23.1338 C   0  0  0  0  0  0  0  0  0  0  0  0
   12.8710   -2.0918   25.3325 C   0  0  0  0  0  0  0  0  0  0  0  0
    6.3090   -5.7862   26.1008 C   0  0  0  0  0  0  0  0  0  0  0  0
    6.4283   -5.4304   20.9019 N   0  3  0  0  0  0  0  0  0  0  0  0
    6.2607   -3.4871   24.6443 O   0  0  0  0  0  0  0  0  0  0  0  0
    7.1518   -5.5950   24.9601 O   0  0  0  0  0  0  0  0  0  0  0  0
    5.6087   -5.8603   20.4516 H   0  0  0  0  0  0  0  0  0  0  0  0
    7.1192   -5.2977   20.1500 H   0  0  0  0  0  0  0  0  0  0  0  0
  1  3  1  0  0  0  0
  1  5  2  0  0  0  0
  2  4  2  0  0  0  0
  2  5  1  0  0  0  0
  3  6  2  0  0  0  0
  4  6  1  0  0  0  0
  5 12  1  0  0  0  0
  6 13  1  0  0  0  0
  7 12  1  0  0  0  0
  7 16  2  0  0  0  0
  7 17  1  0  0  0  0
  8 10  1  0  0  0  0
  8 12  1  0  0  0  0
  9 11  1  0  0  0  0
  9 12  1  0  0  0  0
 10 15  1  0  0  0  0
 11 15  1  0  0  0  0
 14 17  1  0  0  0  0
 15 18  1  0  0  0  0
 15 19  1  0  0  0  0
M  CHG  1  15   1
M  END
> <ref_mols>
x0903_0

> <original SMILES>
CC(C=C1)=CC=C1C2(C(OC)=O)CCNCC2

> <Chemgauss4>
-7.760251

> <ref_pdb>
x0749_0

$$$$
x0188
  -OEChem-05172015543D

 14 14  0     1  0  0  0  0  0999 V2000
    5.6640    0.9491   18.0043 C   0  0  0  0  0  0  0  0  0  0  0  0
    5.0449    0.3582   20.1778 C   0  0  0  0  0  0  0  0  0  0  0  0
    4.9275    1.2505   19.1317 C   0  0  0  0  0  0  0  0  0  0  0  0
    6.4876   -0.9298   18.9833 C   0  0  0  0  0  0  0  0  0  0  0  0
    7.9973   -2.2307   21.2147 C   0  0  0  0  0  0  0  0  0  0  0  0
    8.0641   -2.3469   17.6922 C   0  0  0  0  0  0  0  0  0  0  0  0
    6.0500   -3.5714   20.3510 C   0  0  0  0  0  0  0  0  0  0  0  0
    7.4196   -2.9822   20.0224 C   0  0  1  0  0  0  0  0  0  0  0  0
    6.4574   -0.1367   17.8954 N   0  0  0  0  0  0  0  0  0  0  0  0
    5.8186   -0.7464   20.1376 N   0  0  0  0  0  0  0  0  0  0  0  0
    7.3006   -2.0657   18.9058 N   0  0  3  0  0  0  0  0  0  0  0  0
    5.3658   -3.8771   19.1413 O   0  0  0  0  0  0  0  0  0  0  0  0
    3.9343    2.6377   19.2257 Cl  0  0  0  0  0  0  0  0  0  0  0  0
    4.5051   -4.2470   19.3941 H   0  0  0  0  0  0  0  0  0  0  0  0
  1  3  1  0  0  0  0
  1  9  2  0  0  0  0
  2  3  2  0  0  0  0
  2 10  1  0  0  0  0
  3 13  1  0  0  0  0
  4  9  1  0  0  0  0
  4 10  2  0  0  0  0
  4 11  1  0  0  0  0
  5  8  1  0  0  0  0
  6 11  1  0  0  0  0
  7  8  1  0  0  0  0
  7 12  1  0  0  0  0
  8 11  1  0  0  0  0
 12 14  1  0  0  0  0
M  END
> <ref_mols>
x0188_0

> <original SMILES>
CC(CO)N(C)C=1N=CC(Cl)=CN1

> <Chemgauss4>
-7.759940

> <ref_pdb>
x0397_0

$$$$
x1194
  -OEChem-05172015543D

 14 14  0     1  0  0  0  0  0999 V2000
    5.6640    0.9491   18.0043 C   0  0  0  0  0  0  0  0  0  0  0  0
    5.0449    0.3582   20.1778 C   0  0  0  0  0  0  0  0  0  0  0  0
    4.9275    1.2505   19.1317 C   0  0  0  0  0  0  0  0  0  0  0  0
    6.4876   -0.9298   18.9833 C   0  0  0  0  0  0  0  0  0  0  0  0
    7.9973   -2.2307   21.2147 C   0  0  0  0  0  0  0  0  0  0  0  0
    8.0641   -2.3469   17.6922 C   0  0  0  0  0  0  0  0  0  0  0  0
    6.0500   -3.5714   20.3510 C   0  0  0  0  0  0  0  0  0  0  0  0
    7.4196   -2.9822   20.0224 C   0  0  1  0  0  0  0  0  0  0  0  0
    6.4574   -0.1367   17.8954 N   0  0  0  0  0  0  0  0  0  0  0  0
    5.8186   -0.7464   20.1376 N   0  0  0  0  0  0  0  0  0  0  0  0
    7.3006   -2.0657   18.9058 N   0  0  3  0  0  0  0  0  0  0  0  0
    5.3658   -3.8771   19.1413 O   0  0  0  0  0  0  0  0  0  0  0  0
    3.9343    2.6377   19.2257 Cl  0  0  0  0  0  0  0  0  0  0  0  0
    4.5051   -4.2470   19.3941 H   0  0  0  0  0  0  0  0  0  0  0  0
  1  3  1  0  0  0  0
  1  9  2  0  0  0  0
  2  3  2  0  0  0  0
  2 10  1  0  0  0  0
  3 13  1  0  0  0  0
  4  9  1  0  0  0  0
  4 10  2  0  0  0  0
  4 11  1  0  0  0  0
  5  8  1  0  0  0  0
  6 11  1  0  0  0  0
  7  8  1  0  0  0  0
  7 12  1  0  0  0  0
  8 11  1  0  0  0  0
 12 14  1  0  0  0  0
M  END
> <ref_mols>
x1194_0

> <original SMILES>
CC(CO)N(C)C=1N=CC(Cl)=CN1

> <Chemgauss4>
-7.759940

> <ref_pdb>
x0397_0

$$$$
x0152
  -OEChem-05172015543D

 18 19  0     0  0  0  0  0  0999 V2000
    6.4563    0.1753   21.5283 C   0  0  0  0  0  0  0  0  0  0  0  0
    7.6678   -0.4039   21.9185 C   0  0  0  0  0  0  0  0  0  0  0  0
    8.4471   -0.5209   19.6013 C   0  0  0  0  0  0  0  0  0  0  0  0
    6.2775    0.3889   20.1803 C   0  0  0  0  0  0  0  0  0  0  0  0
    7.2473    0.0498   19.2416 C   0  0  0  0  0  0  0  0  0  0  0  0
    8.6521   -0.7479   20.9659 C   0  0  0  0  0  0  0  0  0  0  0  0
    5.4720    0.9535   18.1128 C   0  0  0  0  0  0  0  0  0  0  0  0
   10.5137   -1.1373   22.6166 C   0  0  0  0  0  0  0  0  0  0  0  0
   12.9935   -1.2182   22.1169 C   0  0  0  0  0  0  0  0  0  0  0  0
   11.7928   -1.9589   22.6776 C   0  0  0  0  0  0  0  0  0  0  0  0
    5.1876    0.9417   19.5077 N   0  0  0  0  0  0  0  0  0  0  0  0
    6.7712    0.3878   17.9748 N   0  0  0  0  0  0  0  0  0  0  0  0
    9.8490   -1.3248   21.3946 N   0  0  0  0  0  0  0  0  0  0  0  0
    4.7491    1.3665   17.2175 O   0  0  0  0  0  0  0  0  0  0  0  0
   10.1564   -0.4200   23.5452 O   0  0  0  0  0  0  0  0  0  0  0  0
    4.3360    1.2785   19.9396 H   0  0  0  0  0  0  0  0  0  0  0  0
    7.2771    0.2486   17.1087 H   0  0  0  0  0  0  0  0  0  0  0  0
   10.3039   -1.9681   20.7371 H   0  0  0  0  0  0  0  0  0  0  0  0
  1  2  2  0  0  0  0
  1  4  1  0  0  0  0
  2  6  1  0  0  0  0
  3  5  1  0  0  0  0
  3  6  2  0  0  0  0
  4  5  2  0  0  0  0
  4 11  1  0  0  0  0
  5 12  1  0  0  0  0
  6 13  1  0  0  0  0
  7 11  1  0  0  0  0
  7 12  1  0  0  0  0
  7 14  2  0  0  0  0
  8 10  1  0  0  0  0
  8 13  1  0  0  0  0
  8 15  2  0  0  0  0
  9 10  1  0  0  0  0
 11 16  1  0  0  0  0
 12 17  1  0  0  0  0
 13 18  1  0  0  0  0
M  END
> <ref_mols>
x0152_0

> <original SMILES>
CCC(=O)NC=1C=CC=2NC(=O)NC2C1

> <Chemgauss4>
-7.757938

> <ref_pdb>
x1093_0

$$$$
x1115
  -OEChem-05172015543D

 18 19  0     0  0  0  0  0  0999 V2000
    6.4563    0.1753   21.5283 C   0  0  0  0  0  0  0  0  0  0  0  0
    7.6678   -0.4039   21.9185 C   0  0  0  0  0  0  0  0  0  0  0  0
    8.4471   -0.5209   19.6013 C   0  0  0  0  0  0  0  0  0  0  0  0
    6.2775    0.3889   20.1803 C   0  0  0  0  0  0  0  0  0  0  0  0
    7.2473    0.0498   19.2416 C   0  0  0  0  0  0  0  0  0  0  0  0
    8.6521   -0.7479   20.9659 C   0  0  0  0  0  0  0  0  0  0  0  0
    5.4720    0.9535   18.1128 C   0  0  0  0  0  0  0  0  0  0  0  0
   10.5137   -1.1373   22.6166 C   0  0  0  0  0  0  0  0  0  0  0  0
   12.9935   -1.2182   22.1169 C   0  0  0  0  0  0  0  0  0  0  0  0
   11.7928   -1.9589   22.6776 C   0  0  0  0  0  0  0  0  0  0  0  0
    5.1876    0.9417   19.5077 N   0  0  0  0  0  0  0  0  0  0  0  0
    6.7712    0.3878   17.9748 N   0  0  0  0  0  0  0  0  0  0  0  0
    9.8490   -1.3248   21.3946 N   0  0  0  0  0  0  0  0  0  0  0  0
    4.7491    1.3665   17.2175 O   0  0  0  0  0  0  0  0  0  0  0  0
   10.1564   -0.4200   23.5452 O   0  0  0  0  0  0  0  0  0  0  0  0
    4.3360    1.2785   19.9396 H   0  0  0  0  0  0  0  0  0  0  0  0
    7.2771    0.2486   17.1087 H   0  0  0  0  0  0  0  0  0  0  0  0
   10.3039   -1.9681   20.7371 H   0  0  0  0  0  0  0  0  0  0  0  0
  1  2  2  0  0  0  0
  1  4  1  0  0  0  0
  2  6  1  0  0  0  0
  3  5  1  0  0  0  0
  3  6  2  0  0  0  0
  4  5  2  0  0  0  0
  4 11  1  0  0  0  0
  5 12  1  0  0  0  0
  6 13  1  0  0  0  0
  7 11  1  0  0  0  0
  7 12  1  0  0  0  0
  7 14  2  0  0  0  0
  8 10  1  0  0  0  0
  8 13  1  0  0  0  0
  8 15  2  0  0  0  0
  9 10  1  0  0  0  0
 11 16  1  0  0  0  0
 12 17  1  0  0  0  0
 13 18  1  0  0  0  0
M  END
> <ref_mols>
x1115_0

> <original SMILES>
CCC(=O)NC=1C=CC=2NC(=O)NC2C1

> <Chemgauss4>
-7.757938

> <ref_pdb>
x1093_0

$$$$
x1105
  -OEChem-05172015543D

 14 14  0     0  0  0  0  0  0999 V2000
   13.8337   -1.3639   22.0854 C   0  0  0  0  0  0  0  0  0  0  0  0
   14.1544   -0.0124   22.2130 C   0  0  0  0  0  0  0  0  0  0  0  0
   12.6638   -1.8603   22.6604 C   0  0  0  0  0  0  0  0  0  0  0  0
   12.1354    0.3461   23.4906 C   0  0  0  0  0  0  0  0  0  0  0  0
   13.3053    0.8426   22.9156 C   0  0  0  0  0  0  0  0  0  0  0  0
   11.8147   -1.0053   23.3631 C   0  0  0  0  0  0  0  0  0  0  0  0
   12.7697    3.2846   23.1618 C   0  0  0  0  0  0  0  0  0  0  0  0
   12.5276    5.9305   24.8610 C   0  0  0  0  0  0  0  0  0  0  0  0
   12.7648    5.6502   23.3924 C   0  0  0  0  0  0  0  0  0  0  0  0
   13.6278    2.1940   23.0433 N   0  0  0  0  0  0  0  0  0  0  0  0
   11.5450    3.2642   23.1760 O   0  0  0  0  0  0  0  0  0  0  0  0
   13.5088    4.4330   23.2639 O   0  0  0  0  0  0  0  0  0  0  0  0
   10.3712   -1.6177   24.0725 Cl  0  0  0  0  0  0  0  0  0  0  0  0
   14.6293    2.4133   23.0509 H   0  0  0  0  0  0  0  0  0  0  0  0
  1  2  2  0  0  0  0
  1  3  1  0  0  0  0
  2  5  1  0  0  0  0
  3  6  2  0  0  0  0
  4  5  2  0  0  0  0
  4  6  1  0  0  0  0
  5 10  1  0  0  0  0
  6 13  1  0  0  0  0
  7 10  1  0  0  0  0
  7 11  2  0  0  0  0
  7 12  1  0  0  0  0
  8  9  1  0  0  0  0
  9 12  1  0  0  0  0
 10 14  1  0  0  0  0
M  END
> <ref_mols>
x1105_0

> <original SMILES>
CCOC(=O)NC=1C=CC=C(Cl)C1

> <Chemgauss4>
-7.756975

> <ref_pdb>
x0195_0

$$$$
x0186
  -OEChem-05172015543D

 14 14  0     0  0  0  0  0  0999 V2000
   13.8337   -1.3639   22.0854 C   0  0  0  0  0  0  0  0  0  0  0  0
   14.1544   -0.0124   22.2130 C   0  0  0  0  0  0  0  0  0  0  0  0
   12.6638   -1.8603   22.6604 C   0  0  0  0  0  0  0  0  0  0  0  0
   12.1354    0.3461   23.4906 C   0  0  0  0  0  0  0  0  0  0  0  0
   13.3053    0.8426   22.9156 C   0  0  0  0  0  0  0  0  0  0  0  0
   11.8147   -1.0053   23.3631 C   0  0  0  0  0  0  0  0  0  0  0  0
   12.7697    3.2846   23.1618 C   0  0  0  0  0  0  0  0  0  0  0  0
   12.5276    5.9305   24.8610 C   0  0  0  0  0  0  0  0  0  0  0  0
   12.7648    5.6502   23.3924 C   0  0  0  0  0  0  0  0  0  0  0  0
   13.6278    2.1940   23.0433 N   0  0  0  0  0  0  0  0  0  0  0  0
   11.5450    3.2642   23.1760 O   0  0  0  0  0  0  0  0  0  0  0  0
   13.5088    4.4330   23.2639 O   0  0  0  0  0  0  0  0  0  0  0  0
   10.3712   -1.6177   24.0725 Cl  0  0  0  0  0  0  0  0  0  0  0  0
   14.6293    2.4133   23.0509 H   0  0  0  0  0  0  0  0  0  0  0  0
  1  2  2  0  0  0  0
  1  3  1  0  0  0  0
  2  5  1  0  0  0  0
  3  6  2  0  0  0  0
  4  5  2  0  0  0  0
  4  6  1  0  0  0  0
  5 10  1  0  0  0  0
  6 13  1  0  0  0  0
  7 10  1  0  0  0  0
  7 11  2  0  0  0  0
  7 12  1  0  0  0  0
  8  9  1  0  0  0  0
  9 12  1  0  0  0  0
 10 14  1  0  0  0  0
M  END
> <ref_mols>
x0186_0

> <original SMILES>
CCOC(=O)NC=1C=CC=C(Cl)C1

> <Chemgauss4>
-7.756975

> <ref_pdb>
x0195_0

$$$$
x0666
  -OEChem-05172015543D

 14 14  0     0  0  0  0  0  0999 V2000
    6.5198   -4.2926   21.8857 C   0  0  0  0  0  0  0  0  0  0  0  0
    8.0669   -5.3667   23.4464 C   0  0  0  0  0  0  0  0  0  0  0  0
    8.4318   -3.0690   22.7945 C   0  0  0  0  0  0  0  0  0  0  0  0
    9.2017   -5.3172   24.2559 C   0  0  0  0  0  0  0  0  0  0  0  0
    9.5666   -3.0195   23.6041 C   0  0  0  0  0  0  0  0  0  0  0  0
    7.6820   -4.2426   22.7156 C   0  0  0  0  0  0  0  0  0  0  0  0
    9.9515   -4.1436   24.3348 C   0  0  0  0  0  0  0  0  0  0  0  0
   12.7637   -2.4284   25.2049 C   0  0  0  0  0  0  0  0  0  0  0  0
   13.8856   -0.7465   23.9772 C   0  0  0  0  0  0  0  0  0  0  0  0
   11.3971   -2.8314   25.6928 C   0  0  0  0  0  0  0  0  0  0  0  0
    5.5760   -4.3332   21.2118 N   0  0  0  0  0  0  0  0  0  0  0  0
   13.7938   -3.0570   25.4066 O   0  0  0  0  0  0  0  0  0  0  0  0
   11.0591   -4.0957   25.1244 O   0  0  0  0  0  0  0  0  0  0  0  0
   12.6592   -1.2588   24.5081 O   0  0  0  0  0  0  0  0  0  0  0  0
  1  6  1  0  0  0  0
  1 11  3  0  0  0  0
  2  4  2  0  0  0  0
  2  6  1  0  0  0  0
  3  5  1  0  0  0  0
  3  6  2  0  0  0  0
  4  7  1  0  0  0  0
  5  7  2  0  0  0  0
  7 13  1  0  0  0  0
  8 10  1  0  0  0  0
  8 12  2  0  0  0  0
  8 14  1  0  0  0  0
  9 14  1  0  0  0  0
 10 13  1  0  0  0  0
M  END
> <ref_mols>
x0666_0

> <original SMILES>
COC(=O)COC=1C=CC(C#N)=CC1

> <Chemgauss4>
-7.756852

> <ref_pdb>
x0749_0

$$$$
x0327
  -OEChem-05172015543D

 18 19  0     0  0  0  0  0  0999 V2000
   11.1769   -4.0714   25.2385 C   0  0  0  0  0  0  0  0  0  0  0  0
   10.5844   -2.4664   23.5327 C   0  0  0  0  0  0  0  0  0  0  0  0
   12.1018   -3.1700   25.7654 C   0  0  0  0  0  0  0  0  0  0  0  0
   11.5092   -1.5649   24.0596 C   0  0  0  0  0  0  0  0  0  0  0  0
    5.7420   -6.3367   21.5037 C   0  0  0  0  0  0  0  0  0  0  0  0
   10.4182   -3.7197   24.1221 C   0  0  0  0  0  0  0  0  0  0  0  0
   12.2679   -1.9168   25.1760 C   0  0  0  0  0  0  0  0  0  0  0  0
    7.2631   -4.7116   22.2860 C   0  0  0  0  0  0  0  0  0  0  0  0
    9.4532   -4.6586   23.5721 C   0  0  0  0  0  0  0  0  0  0  0  0
   14.7004   -1.4849   25.6761 C   0  0  0  0  0  0  0  0  0  0  0  0
   12.9160   -0.5385   27.1846 C   0  0  0  0  0  0  0  0  0  0  0  0
   13.2563   -0.9528   25.7405 C   0  0  0  0  0  0  0  0  0  0  0  0
    5.3567   -5.1177   21.1916 N   0  0  0  0  0  0  0  0  0  0  0  0
    6.2494   -4.1645   21.6496 N   0  0  0  0  0  0  0  0  0  0  0  0
    8.3732   -4.0727   22.8939 N   0  0  0  0  0  0  0  0  0  0  0  0
    9.5718   -5.8816   23.7300 O   0  0  0  0  0  0  0  0  0  0  0  0
    7.2147   -6.4235   22.3786 S   0  0  0  0  0  0  0  0  0  0  0  0
    8.3889   -3.0578   22.8301 H   0  0  0  0  0  0  0  0  0  0  0  0
  1  3  2  0  0  0  0
  1  6  1  0  0  0  0
  2  4  1  0  0  0  0
  2  6  2  0  0  0  0
  3  7  1  0  0  0  0
  4  7  2  0  0  0  0
  5 13  2  0  0  0  0
  5 17  1  0  0  0  0
  6  9  1  0  0  0  0
  7 12  1  0  0  0  0
  8 14  2  0  0  0  0
  8 15  1  0  0  0  0
  8 17  1  0  0  0  0
  9 15  1  0  0  0  0
  9 16  2  0  0  0  0
 10 12  1  0  0  0  0
 11 12  1  0  0  0  0
 13 14  1  0  0  0  0
 15 18  1  0  0  0  0
M  END
> <ref_mols>
x0327_0

> <original SMILES>
CC(C)C=1C=CC(=CC1)C(=O)NC2=NN=CS2

> <Chemgauss4>
-7.755654

> <ref_pdb>
x0749_0

$$$$
x0054
  -OEChem-05172015543D

 19 20  0     0  0  0  0  0  0999 V2000
    9.6111   -3.0236   23.1919 C   0  0  0  0  0  0  0  0  0  0  0  0
   10.1580   -4.5625   24.9722 C   0  0  0  0  0  0  0  0  0  0  0  0
    8.4171   -3.7085   22.9666 C   0  0  0  0  0  0  0  0  0  0  0  0
    8.9640   -5.2475   24.7469 C   0  0  0  0  0  0  0  0  0  0  0  0
   11.8490   -1.3953   24.1855 C   0  0  0  0  0  0  0  0  0  0  0  0
   10.4816   -3.4506   24.1947 C   0  0  0  0  0  0  0  0  0  0  0  0
    8.0935   -4.8204   23.7441 C   0  0  0  0  0  0  0  0  0  0  0  0
   11.7114   -2.7462   24.4264 C   0  0  0  0  0  0  0  0  0  0  0  0
   13.8069   -2.5152   25.0310 C   0  0  0  0  0  0  0  0  0  0  0  0
    5.9091   -5.2289   22.5669 C   0  0  0  0  0  0  0  0  0  0  0  0
    4.7668   -6.2103   22.6465 C   0  0  0  0  0  0  0  0  0  0  0  0
   12.8331   -3.3902   24.9109 N   0  0  0  0  0  0  0  0  0  0  0  0
   15.0542   -2.8147   25.4816 N   0  0  0  0  0  0  0  0  0  0  0  0
    6.8993   -5.5058   23.5189 N   0  0  0  0  0  0  0  0  0  0  0  0
    5.9032   -4.3240   21.7386 O   0  0  0  0  0  0  0  0  0  0  0  0
   13.4429   -0.9000   24.5798 S   0  0  0  0  0  0  0  0  0  0  0  0
   15.2982   -3.7569   25.8053 H   0  0  0  0  0  0  0  0  0  0  0  0
   15.7706   -2.0910   25.6041 H   0  0  0  0  0  0  0  0  0  0  0  0
    6.7180   -6.3160   24.1227 H   0  0  0  0  0  0  0  0  0  0  0  0
  1  3  2  0  0  0  0
  1  6  1  0  0  0  0
  2  4  1  0  0  0  0
  2  6  2  0  0  0  0
  3  7  1  0  0  0  0
  4  7  2  0  0  0  0
  5  8  2  0  0  0  0
  5 16  1  0  0  0  0
  6  8  1  0  0  0  0
  7 14  1  0  0  0  0
  8 12  1  0  0  0  0
  9 12  2  0  0  0  0
  9 13  1  0  0  0  0
  9 16  1  0  0  0  0
 10 11  1  0  0  0  0
 10 14  1  0  0  0  0
 10 15  2  0  0  0  0
 13 17  1  0  0  0  0
 13 18  1  0  0  0  0
 14 19  1  0  0  0  0
M  END
> <ref_mols>
x0054_0

> <original SMILES>
CC(=O)NC=1C=CC(=CC1)C2=CSC(N)=N2

> <Chemgauss4>
-7.753472

> <ref_pdb>
x0749_0

$$$$
x2610
  -OEChem-05172015543D

 29 31  0     0  0  0  0  0  0999 V2000
    6.4841    0.7203   17.6494 C   0  0  0  0  0  0  0  0  0  0  0  0
   13.8891   -0.0560   23.3361 C   0  0  0  0  0  0  0  0  0  0  0  0
    7.6035    0.0390   18.1271 C   0  0  0  0  0  0  0  0  0  0  0  0
    5.5132    1.1779   18.5404 C   0  0  0  0  0  0  0  0  0  0  0  0
   13.1232   -1.0294   22.7191 C   0  0  0  0  0  0  0  0  0  0  0  0
    6.7813    0.2727   20.3869 C   0  0  0  0  0  0  0  0  0  0  0  0
   13.3515    0.5920   24.4300 C   0  0  0  0  0  0  0  0  0  0  0  0
    7.7521   -0.1848   19.4959 C   0  0  0  0  0  0  0  0  0  0  0  0
    5.6618    0.9540   19.9091 C   0  0  0  0  0  0  0  0  0  0  0  0
   11.8705   -1.2906   23.2369 C   0  0  0  0  0  0  0  0  0  0  0  0
    9.2004   -1.1888   21.3056 C   0  0  0  0  0  0  0  0  0  0  0  0
    4.4739    4.0897   23.8581 C   0  0  0  0  0  0  0  0  0  0  0  0
    5.5254    4.8860   21.7505 C   0  0  0  0  0  0  0  0  0  0  0  0
    5.7710    4.4460   24.5642 C   0  0  0  0  0  0  0  0  0  0  0  0
    6.7681    5.2017   22.5657 C   0  0  0  0  0  0  0  0  0  0  0  0
   10.9996   -2.3382   22.6059 C   0  0  0  0  0  0  0  0  0  0  0  0
    3.5719    3.3305   21.6548 C   0  0  0  0  0  0  0  0  0  0  0  0
    3.9958    2.5753   20.4105 C   0  0  0  0  0  0  0  0  0  0  0  0
   12.1225    0.3159   24.9153 N   0  0  0  0  0  0  0  0  0  0  0  0
   11.3699   -0.6410   24.3090 N   0  0  0  0  0  0  0  0  0  0  0  0
    8.8722   -0.8662   19.9734 N   0  0  0  0  0  0  0  0  0  0  0  0
   10.4145   -1.8803   21.3668 N   0  0  0  0  0  0  0  0  0  0  0  0
    4.7937    3.7475   22.4219 N   0  3  0  0  0  0  0  0  0  0  0  0
    8.5329   -0.9149   22.3001 O   0  0  0  0  0  0  0  0  0  0  0  0
    6.4147    5.5392   23.9079 O   0  0  0  0  0  0  0  0  0  0  0  0
    4.7079    1.4034   20.7846 O   0  0  0  0  0  0  0  0  0  0  0  0
    9.5536   -1.1795   19.2741 H   0  0  0  0  0  0  0  0  0  0  0  0
   10.9078   -2.0694   20.4999 H   0  0  0  0  0  0  0  0  0  0  0  0
    5.4270    2.9359   22.4310 H   0  0  0  0  0  0  0  0  0  0  0  0
  1  3  2  0  0  0  0
  1  4  1  0  0  0  0
  2  5  2  0  0  0  0
  2  7  1  0  0  0  0
  3  8  1  0  0  0  0
  4  9  2  0  0  0  0
  5 10  1  0  0  0  0
  6  8  2  0  0  0  0
  6  9  1  0  0  0  0
  7 19  2  0  0  0  0
  8 21  1  0  0  0  0
  9 26  1  0  0  0  0
 10 16  1  0  0  0  0
 10 20  2  0  0  0  0
 11 21  1  0  0  0  0
 11 22  1  0  0  0  0
 11 24  2  0  0  0  0
 12 14  1  0  0  0  0
 12 23  1  0  0  0  0
 13 15  1  0  0  0  0
 13 23  1  0  0  0  0
 14 25  1  0  0  0  0
 15 25  1  0  0  0  0
 16 22  1  0  0  0  0
 17 18  1  0  0  0  0
 17 23  1  0  0  0  0
 18 26  1  0  0  0  0
 19 20  1  0  0  0  0
 21 27  1  0  0  0  0
 22 28  1  0  0  0  0
 23 29  1  0  0  0  0
M  CHG  1  23   1
M  END
> <ref_mols>
x2610_0

> <original SMILES>
O=C(NCC=1C=CC=NN1)NC=2C=CC=C(OCCN3CCOCC3)C2

> <Chemgauss4>
-7.753376

> <ref_pdb>
x0678_0

$$$$
x2620
  -OEChem-05172015543D

 23 25  0     0  0  0  0  0  0999 V2000
   13.3785   -0.6750   23.8953 C   0  0  0  0  0  0  0  0  0  0  0  0
   12.3101    0.0640   24.4029 C   0  0  0  0  0  0  0  0  0  0  0  0
   13.1367   -1.7868   23.0883 C   0  0  0  0  0  0  0  0  0  0  0  0
   10.9996   -0.3088   24.1038 C   0  0  0  0  0  0  0  0  0  0  0  0
   11.8263   -2.1596   22.7891 C   0  0  0  0  0  0  0  0  0  0  0  0
   10.7577   -1.4206   23.2969 C   0  0  0  0  0  0  0  0  0  0  0  0
    6.8112   -4.9576   26.3708 C   0  0  0  0  0  0  0  0  0  0  0  0
    7.9145   -2.7832   25.9864 C   0  0  0  0  0  0  0  0  0  0  0  0
    6.5878   -3.8751   24.1130 C   0  0  0  0  0  0  0  0  0  0  0  0
    9.1960   -3.2419   25.2956 C   0  0  0  0  0  0  0  0  0  0  0  0
    7.9073   -4.2901   23.4667 C   0  0  0  0  0  0  0  0  0  0  0  0
    5.6239   -6.8061   27.5084 C   0  0  0  0  0  0  0  0  0  0  0  0
    4.2716   -5.0641   26.4177 C   0  0  0  0  0  0  0  0  0  0  0  0
    4.6650   -6.7426   28.6887 C   0  0  0  0  0  0  0  0  0  0  0  0
    3.3652   -5.0771   27.6423 C   0  0  0  0  0  0  0  0  0  0  0  0
    6.7053   -3.6414   25.6166 C   0  0  0  0  0  0  0  0  0  0  0  0
    5.6121   -5.5414   26.7733 N   0  0  0  0  0  0  0  0  0  0  0  0
    8.9910   -3.3372   23.8256 N   0  0  0  0  0  0  0  0  0  0  0  0
    7.9246   -5.4400   26.5930 O   0  0  0  0  0  0  0  0  0  0  0  0
    8.2145   -0.9073   23.5015 O   0  0  0  0  0  0  0  0  0  0  0  0
    9.0357   -2.2181   21.5127 O   0  0  0  0  0  0  0  0  0  0  0  0
    3.3570   -6.3748   28.2430 O   0  0  0  0  0  0  0  0  0  0  0  0
    9.0993   -1.8939   22.9213 S   0  0  0  0  0  0  0  0  0  0  0  0
  1  2  1  0  0  0  0
  1  3  2  0  0  0  0
  2  4  2  0  0  0  0
  3  5  1  0  0  0  0
  4  6  1  0  0  0  0
  5  6  2  0  0  0  0
  6 23  1  0  0  0  0
  7 16  1  0  0  0  0
  7 17  1  0  0  0  0
  7 19  2  0  0  0  0
  8 10  1  0  0  0  0
  8 16  1  0  0  0  0
  9 11  1  0  0  0  0
  9 16  1  0  0  0  0
 10 18  1  0  0  0  0
 11 18  1  0  0  0  0
 12 14  1  0  0  0  0
 12 17  1  0  0  0  0
 13 15  1  0  0  0  0
 13 17  1  0  0  0  0
 14 22  1  0  0  0  0
 15 22  1  0  0  0  0
 18 23  1  0  0  0  0
 20 23  2  0  0  0  0
 21 23  2  0  0  0  0
M  END
> <ref_mols>
x2620_0

> <original SMILES>
O=C(C1CCN(CC1)S(=O)(=O)C=2C=CC=CC2)N3CCOCC3

> <Chemgauss4>
-7.749019

> <ref_pdb>
x0072_0

$$$$
x0240
  -OEChem-05172015543D

 15 16  0     0  0  0  0  0  0999 V2000
   13.9797   -0.7163   22.4129 C   0  0  0  0  0  0  0  0  0  0  0  0
   13.0897   -1.7691   22.6369 C   0  0  0  0  0  0  0  0  0  0  0  0
   11.3301   -0.2116   23.2733 C   0  0  0  0  0  0  0  0  0  0  0  0
   13.5297    0.5750   22.6232 C   0  0  0  0  0  0  0  0  0  0  0  0
   12.2189    0.8246   23.0487 C   0  0  0  0  0  0  0  0  0  0  0  0
   11.7751   -1.5187   23.0640 C   0  0  0  0  0  0  0  0  0  0  0  0
   13.5957    4.2306   22.7959 C   0  0  0  0  0  0  0  0  0  0  0  0
   14.2747    1.8571   22.4578 C   0  0  0  0  0  0  0  0  0  0  0  0
   11.9918    2.2926   23.1981 C   0  0  0  0  0  0  0  0  0  0  0  0
   12.4771    5.1588   23.1958 C   0  0  0  0  0  0  0  0  0  0  0  0
   13.2878    2.8811   22.8220 N   0  0  0  0  0  0  0  0  0  0  0  0
   10.8954   -2.6015   23.2839 N   0  0  0  0  0  0  0  0  0  0  0  0
   14.6964    4.6801   22.4731 O   0  0  0  0  0  0  0  0  0  0  0  0
   11.2081   -3.5295   23.0865 H   0  0  0  0  0  0  0  0  0  0  0  0
    9.9487   -2.4135   23.5418 H   0  0  0  0  0  0  0  0  0  0  0  0
  1  2  2  0  0  0  0
  1  4  1  0  0  0  0
  2  6  1  0  0  0  0
  3  5  1  0  0  0  0
  3  6  2  0  0  0  0
  4  5  2  0  0  0  0
  4  8  1  0  0  0  0
  5  9  1  0  0  0  0
  6 12  1  0  0  0  0
  7 10  1  0  0  0  0
  7 11  1  0  0  0  0
  7 13  2  0  0  0  0
  8 11  1  0  0  0  0
  9 11  1  0  0  0  0
 12 14  1  0  0  0  0
 12 15  1  0  0  0  0
M  END
> <ref_mols>
x0240_0

> <original SMILES>
CC(=O)N1CC=2C=CC(N)=CC2C1

> <Chemgauss4>
-7.746858

> <ref_pdb>
x0195_0

$$$$
x0447
  -OEChem-05172015543D

 18 19  0     0  0  0  0  0  0999 V2000
   12.5644    0.8137   23.3751 C   0  0  0  0  0  0  0  0  0  0  0  0
   11.8625    0.7403   24.5782 C   0  0  0  0  0  0  0  0  0  0  0  0
   12.4498   -0.2123   22.4370 C   0  0  0  0  0  0  0  0  0  0  0  0
   11.0459   -0.3590   24.8433 C   0  0  0  0  0  0  0  0  0  0  0  0
   11.6332   -1.3116   22.7021 C   0  0  0  0  0  0  0  0  0  0  0  0
    6.9972   -0.4339   20.3632 C   0  0  0  0  0  0  0  0  0  0  0  0
   10.9313   -1.3850   23.9053 C   0  0  0  0  0  0  0  0  0  0  0  0
    6.3786   -0.5657   19.1482 C   0  0  0  0  0  0  0  0  0  0  0  0
    6.7809   -1.6758   20.9849 C   0  0  0  0  0  0  0  0  0  0  0  0
    7.9735   -1.2218   23.1534 C   0  0  0  0  0  0  0  0  0  0  0  0
    6.2045    0.3251   17.9941 C   0  0  0  0  0  0  0  0  0  0  0  0
    8.3026   -1.9480   24.4401 C   0  0  0  0  0  0  0  0  0  0  0  0
    6.0816   -2.5138   20.2144 N   0  0  0  0  0  0  0  0  0  0  0  0
    7.2430   -2.0172   22.2786 N   0  0  0  0  0  0  0  0  0  0  0  0
    8.3586   -0.0694   22.9721 O   0  0  0  0  0  0  0  0  0  0  0  0
    5.8283   -1.8027   19.0476 O   0  0  0  0  0  0  0  0  0  0  0  0
    9.8885   -2.7899   24.2445 S   0  0  0  0  0  0  0  0  0  0  0  0
    7.0140   -2.9532   22.6059 H   0  0  0  0  0  0  0  0  0  0  0  0
  1  2  1  0  0  0  0
  1  3  2  0  0  0  0
  2  4  2  0  0  0  0
  3  5  1  0  0  0  0
  4  7  1  0  0  0  0
  5  7  2  0  0  0  0
  6  8  2  0  0  0  0
  6  9  1  0  0  0  0
  7 17  1  0  0  0  0
  8 11  1  0  0  0  0
  8 16  1  0  0  0  0
  9 13  2  0  0  0  0
  9 14  1  0  0  0  0
 10 12  1  0  0  0  0
 10 14  1  0  0  0  0
 10 15  2  0  0  0  0
 12 17  1  0  0  0  0
 13 16  1  0  0  0  0
 14 18  1  0  0  0  0
M  END
> <ref_mols>
x0447_0

> <original SMILES>
CC1=CC(NC(=O)CSC=2C=CC=CC2)=NO1

> <Chemgauss4>
-7.745981

> <ref_pdb>
x0831_0

> <CYS145-warhead dist minimum (A)>
8.402656

> <CYS145-warhead dist mean (A)>
9.758975

> <CYS145-warhead dist stddev (A)>
0.33577883

$$$$
x0269
  -OEChem-05172015543D

 11 11  0     0  0  0  0  0  0999 V2000
    6.2015   -0.0391   18.5784 C   0  0  0  0  0  0  0  0  0  0  0  0
    6.0890   -2.3608   19.5350 C   0  0  0  0  0  0  0  0  0  0  0  0
    8.0240   -1.7461   18.0402 C   0  0  0  0  0  0  0  0  0  0  0  0
    8.3231   -1.1997   19.4008 C   0  0  0  0  0  0  0  0  0  0  0  0
    6.8975   -1.3267   18.9423 C   0  0  0  0  0  0  0  0  0  0  0  0
    4.4093    1.4879   19.4163 C   0  0  0  0  0  0  0  0  0  0  0  0
    6.0869    0.6060   20.9932 C   0  0  0  0  0  0  0  0  0  0  0  0
    5.5894    0.6578   19.6209 N   0  0  0  0  0  0  0  0  0  0  0  0
    6.0144   -2.3314   20.7947 O   0  5  0  0  0  0  0  0  0  0  0  0
    6.2030    0.3343   17.4023 O   0  0  0  0  0  0  0  0  0  0  0  0
    5.5626   -3.1596   18.7104 O   0  0  0  0  0  0  0  0  0  0  0  0
  1  5  1  0  0  0  0
  1  8  1  0  0  0  0
  1 10  2  0  0  0  0
  2  5  1  0  0  0  0
  2  9  1  0  0  0  0
  2 11  2  0  0  0  0
  3  4  1  0  0  0  0
  3  5  1  0  0  0  0
  4  5  1  0  0  0  0
  6  8  1  0  0  0  0
  7  8  1  0  0  0  0
M  CHG  1   9  -1
M  END
> <ref_mols>
x0269_0

> <original SMILES>
CN(C)C(=O)C1(CC1)C(=O)O

> <Chemgauss4>
-7.745976

> <ref_pdb>
x0397_0

$$$$
x1290
  -OEChem-05172015543D

 17 18  0     1  0  0  0  0  0999 V2000
    8.6217   -6.3046   23.5160 C   0  0  0  0  0  0  0  0  0  0  0  0
    9.4518   -5.3080   24.0290 C   0  0  0  0  0  0  0  0  0  0  0  0
    7.6553   -5.9849   22.5622 C   0  0  0  0  0  0  0  0  0  0  0  0
    8.3491   -3.6718   22.6347 C   0  0  0  0  0  0  0  0  0  0  0  0
    9.3155   -3.9915   23.5884 C   0  0  0  0  0  0  0  0  0  0  0  0
    7.5190   -4.6685   22.1216 C   0  0  0  0  0  0  0  0  0  0  0  0
   11.1728   -3.1650   25.0687 C   0  0  0  0  0  0  0  0  0  0  0  0
   13.9736   -1.8855   24.3357 C   0  0  0  0  0  0  0  0  0  0  0  0
   12.5900   -1.3038   24.1704 C   0  0  0  0  0  0  0  0  0  0  0  0
   14.1299   -1.9011   25.8394 C   0  0  0  0  0  0  0  0  0  0  0  0
   11.8516   -1.8656   25.3703 C   0  0  2  0  0  0  0  0  0  0  0  0
    8.2127   -2.2543   22.1695 C   0  0  0  0  0  0  0  0  0  0  0  0
   10.1700   -2.9979   24.1222 N   0  0  0  0  0  0  0  0  0  0  0  0
   11.5211   -4.2001   25.6275 O   0  0  0  0  0  0  0  0  0  0  0  0
   12.8246   -2.1430   26.3813 O   0  0  0  0  0  0  0  0  0  0  0  0
    6.3100   -4.3159   20.9402 Cl  0  0  0  0  0  0  0  0  0  0  0  0
   10.0227   -2.0572   23.7623 H   0  0  0  0  0  0  0  0  0  0  0  0
  1  2  2  0  0  0  0
  1  3  1  0  0  0  0
  2  5  1  0  0  0  0
  3  6  2  0  0  0  0
  4  5  2  0  0  0  0
  4  6  1  0  0  0  0
  4 12  1  0  0  0  0
  5 13  1  0  0  0  0
  6 16  1  0  0  0  0
  7 11  1  0  0  0  0
  7 13  1  0  0  0  0
  7 14  2  0  0  0  0
  8  9  1  0  0  0  0
  8 10  1  0  0  0  0
  9 11  1  0  0  0  0
 10 15  1  0  0  0  0
 11 15  1  0  0  0  0
 13 17  1  0  0  0  0
M  END
> <ref_mols>
x1290_0

> <original SMILES>
CC=1C(Cl)=CC=CC1NC(=O)[C@@H]2CCCO2

> <Chemgauss4>
-7.738071

> <ref_pdb>
x0749_0

$$$$
x1202
  -OEChem-05172015543D

 17 18  0     1  0  0  0  0  0999 V2000
    8.6217   -6.3046   23.5160 C   0  0  0  0  0  0  0  0  0  0  0  0
    9.4518   -5.3080   24.0290 C   0  0  0  0  0  0  0  0  0  0  0  0
    7.6553   -5.9849   22.5622 C   0  0  0  0  0  0  0  0  0  0  0  0
    8.3491   -3.6718   22.6347 C   0  0  0  0  0  0  0  0  0  0  0  0
    9.3155   -3.9915   23.5884 C   0  0  0  0  0  0  0  0  0  0  0  0
    7.5190   -4.6685   22.1216 C   0  0  0  0  0  0  0  0  0  0  0  0
   11.1728   -3.1650   25.0687 C   0  0  0  0  0  0  0  0  0  0  0  0
   13.9736   -1.8855   24.3357 C   0  0  0  0  0  0  0  0  0  0  0  0
   12.5900   -1.3038   24.1704 C   0  0  0  0  0  0  0  0  0  0  0  0
   14.1299   -1.9011   25.8394 C   0  0  0  0  0  0  0  0  0  0  0  0
   11.8516   -1.8656   25.3703 C   0  0  2  0  0  0  0  0  0  0  0  0
    8.2127   -2.2543   22.1695 C   0  0  0  0  0  0  0  0  0  0  0  0
   10.1700   -2.9979   24.1222 N   0  0  0  0  0  0  0  0  0  0  0  0
   11.5211   -4.2001   25.6275 O   0  0  0  0  0  0  0  0  0  0  0  0
   12.8246   -2.1430   26.3813 O   0  0  0  0  0  0  0  0  0  0  0  0
    6.3100   -4.3159   20.9402 Cl  0  0  0  0  0  0  0  0  0  0  0  0
   10.0227   -2.0572   23.7623 H   0  0  0  0  0  0  0  0  0  0  0  0
  1  2  2  0  0  0  0
  1  3  1  0  0  0  0
  2  5  1  0  0  0  0
  3  6  2  0  0  0  0
  4  5  2  0  0  0  0
  4  6  1  0  0  0  0
  4 12  1  0  0  0  0
  5 13  1  0  0  0  0
  6 16  1  0  0  0  0
  7 11  1  0  0  0  0
  7 13  1  0  0  0  0
  7 14  2  0  0  0  0
  8  9  1  0  0  0  0
  8 10  1  0  0  0  0
  9 11  1  0  0  0  0
 10 15  1  0  0  0  0
 11 15  1  0  0  0  0
 13 17  1  0  0  0  0
M  END
> <ref_mols>
x1202_0

> <original SMILES>
CC=1C(Cl)=CC=CC1NC(=O)[C@@H]2CCCO2

> <Chemgauss4>
-7.738071

> <ref_pdb>
x0749_0

$$$$
x0422
  -OEChem-05172015543D

 17 18  0     1  0  0  0  0  0999 V2000
    8.6217   -6.3046   23.5160 C   0  0  0  0  0  0  0  0  0  0  0  0
    9.4518   -5.3080   24.0290 C   0  0  0  0  0  0  0  0  0  0  0  0
    7.6553   -5.9849   22.5622 C   0  0  0  0  0  0  0  0  0  0  0  0
    8.3491   -3.6718   22.6347 C   0  0  0  0  0  0  0  0  0  0  0  0
    9.3155   -3.9915   23.5884 C   0  0  0  0  0  0  0  0  0  0  0  0
    7.5190   -4.6685   22.1216 C   0  0  0  0  0  0  0  0  0  0  0  0
   11.1728   -3.1650   25.0687 C   0  0  0  0  0  0  0  0  0  0  0  0
   13.9736   -1.8855   24.3357 C   0  0  0  0  0  0  0  0  0  0  0  0
   12.5900   -1.3038   24.1704 C   0  0  0  0  0  0  0  0  0  0  0  0
   14.1299   -1.9011   25.8394 C   0  0  0  0  0  0  0  0  0  0  0  0
   11.8516   -1.8656   25.3703 C   0  0  2  0  0  0  0  0  0  0  0  0
    8.2127   -2.2543   22.1695 C   0  0  0  0  0  0  0  0  0  0  0  0
   10.1700   -2.9979   24.1222 N   0  0  0  0  0  0  0  0  0  0  0  0
   11.5211   -4.2001   25.6275 O   0  0  0  0  0  0  0  0  0  0  0  0
   12.8246   -2.1430   26.3813 O   0  0  0  0  0  0  0  0  0  0  0  0
    6.3100   -4.3159   20.9402 Cl  0  0  0  0  0  0  0  0  0  0  0  0
   10.0227   -2.0572   23.7623 H   0  0  0  0  0  0  0  0  0  0  0  0
  1  2  2  0  0  0  0
  1  3  1  0  0  0  0
  2  5  1  0  0  0  0
  3  6  2  0  0  0  0
  4  5  2  0  0  0  0
  4  6  1  0  0  0  0
  4 12  1  0  0  0  0
  5 13  1  0  0  0  0
  6 16  1  0  0  0  0
  7 11  1  0  0  0  0
  7 13  1  0  0  0  0
  7 14  2  0  0  0  0
  8  9  1  0  0  0  0
  8 10  1  0  0  0  0
  9 11  1  0  0  0  0
 10 15  1  0  0  0  0
 11 15  1  0  0  0  0
 13 17  1  0  0  0  0
M  END
> <ref_mols>
x0422_0

> <original SMILES>
CC=1C(Cl)=CC=CC1NC(=O)[C@@H]2CCCO2

> <Chemgauss4>
-7.738071

> <ref_pdb>
x0749_0

$$$$
x0564
  -OEChem-05172015543D

 19 20  0     0  0  0  0  0  0999 V2000
    5.9932   -2.8771   20.9352 C   0  0  0  0  0  0  0  0  0  0  0  0
    6.4802   -6.4372   21.9071 C   0  0  0  0  0  0  0  0  0  0  0  0
    5.9309   -5.2879   21.3388 C   0  0  0  0  0  0  0  0  0  0  0  0
    7.6546   -6.3526   22.6550 C   0  0  0  0  0  0  0  0  0  0  0  0
    7.7306   -3.9693   22.2660 C   0  0  0  0  0  0  0  0  0  0  0  0
    6.5562   -4.0540   21.5182 C   0  0  0  0  0  0  0  0  0  0  0  0
    8.2799   -5.1187   22.8343 C   0  0  0  0  0  0  0  0  0  0  0  0
    9.9178   -3.9546   24.3525 C   0  0  0  0  0  0  0  0  0  0  0  0
   13.5926   -0.6117   26.4580 C   0  0  0  0  0  0  0  0  0  0  0  0
   14.4133   -1.4091   25.4445 C   0  0  0  0  0  0  0  0  0  0  0  0
   12.1541   -0.6319   25.9495 C   0  0  0  0  0  0  0  0  0  0  0  0
   13.4299   -1.8791   24.3766 C   0  0  0  0  0  0  0  0  0  0  0  0
   12.0651   -1.8714   25.0618 C   0  0  0  0  0  0  0  0  0  0  0  0
   11.2518   -4.2809   25.0129 C   0  0  0  0  0  0  0  0  0  0  0  0
   11.8138   -3.1446   25.8670 C   0  0  0  0  0  0  0  0  0  0  0  0
    5.5359   -1.9213   20.4617 N   0  0  0  0  0  0  0  0  0  0  0  0
    9.4708   -5.0330   23.5942 N   0  0  0  0  0  0  0  0  0  0  0  0
    9.3720   -2.8647   24.4890 O   0  0  0  0  0  0  0  0  0  0  0  0
   10.0701   -5.8557   23.5852 H   0  0  0  0  0  0  0  0  0  0  0  0
  1  6  1  0  0  0  0
  1 16  3  0  0  0  0
  2  3  1  0  0  0  0
  2  4  2  0  0  0  0
  3  6  2  0  0  0  0
  4  7  1  0  0  0  0
  5  6  1  0  0  0  0
  5  7  2  0  0  0  0
  7 17  1  0  0  0  0
  8 14  1  0  0  0  0
  8 17  1  0  0  0  0
  8 18  2  0  0  0  0
  9 10  1  0  0  0  0
  9 11  1  0  0  0  0
 10 12  1  0  0  0  0
 11 13  1  0  0  0  0
 12 13  1  0  0  0  0
 13 15  1  0  0  0  0
 14 15  1  0  0  0  0
 17 19  1  0  0  0  0
M  END
> <ref_mols>
x0564_0

> <original SMILES>
O=C(CCC1CCCC1)NC=2C=CC=C(C#N)C2

> <Chemgauss4>
-7.734970

> <ref_pdb>
x0749_0

$$$$
x2041
  -OEChem-05172015543D

 28 30  0     0  0  0  0  0  0999 V2000
    5.9973   -4.5782   22.2302 C   0  0  0  0  0  0  0  0  0  0  0  0
    6.3766   -5.3814   23.3056 C   0  0  0  0  0  0  0  0  0  0  0  0
    7.7691   -3.0252   22.7650 C   0  0  0  0  0  0  0  0  0  0  0  0
    6.6936   -3.4001   21.9598 C   0  0  0  0  0  0  0  0  0  0  0  0
    7.4521   -5.0064   24.1108 C   0  0  0  0  0  0  0  0  0  0  0  0
    8.1484   -3.8283   23.8405 C   0  0  0  0  0  0  0  0  0  0  0  0
    6.3039   -2.5746   20.8512 C   0  0  0  0  0  0  0  0  0  0  0  0
    6.3096   -0.9787   19.5058 C   0  0  0  0  0  0  0  0  0  0  0  0
   10.0273   -2.2943   24.5045 C   0  0  0  0  0  0  0  0  0  0  0  0
   15.0269   -0.4923   24.8667 C   0  0  0  0  0  0  0  0  0  0  0  0
   12.3352   -3.0018   25.0950 C   0  0  0  0  0  0  0  0  0  0  0  0
   11.3967   -0.7808   25.9426 C   0  0  0  0  0  0  0  0  0  0  0  0
   13.6230   -2.3797   25.6216 C   0  0  0  0  0  0  0  0  0  0  0  0
   12.5292   -0.1935   25.1037 C   0  0  0  0  0  0  0  0  0  0  0  0
   11.0909   -2.2356   25.5640 C   0  0  0  0  0  0  0  0  0  0  0  0
    7.8352   -5.8852   25.2570 C   0  0  0  0  0  0  0  0  0  0  0  0
    6.5582    0.2473   18.7306 C   0  0  0  0  0  0  0  0  0  0  0  0
   15.0869    0.9522   24.4335 C   0  0  0  0  0  0  0  0  0  0  0  0
    6.9628   -1.4151   20.5576 N   0  0  0  0  0  0  0  0  0  0  0  0
    5.2842   -2.8830   20.0473 N   0  0  0  0  0  0  0  0  0  0  0  0
    5.3093   -1.8465   19.1957 N   0  0  0  0  0  0  0  0  0  0  0  0
   13.7614   -0.9882   25.1862 N   0  0  0  0  0  0  0  0  0  0  0  0
    9.2421   -3.4314   24.6459 N   0  0  0  0  0  0  0  0  0  0  0  0
    9.9310   -1.4084   23.6614 O   0  0  0  0  0  0  0  0  0  0  0  0
   16.0657   -1.1543   24.9246 O   0  0  0  0  0  0  0  0  0  0  0  0
   16.4657    1.0958   23.3490 Cl  0  0  0  0  0  0  0  0  0  0  0  0
    4.6282   -1.8040   18.4467 H   0  0  0  0  0  0  0  0  0  0  0  0
    9.4685   -4.0598   25.4140 H   0  0  0  0  0  0  0  0  0  0  0  0
  1  2  2  0  0  0  0
  1  4  1  0  0  0  0
  2  5  1  0  0  0  0
  3  4  2  0  0  0  0
  3  6  1  0  0  0  0
  4  7  1  0  0  0  0
  5  6  2  0  0  0  0
  5 16  1  0  0  0  0
  6 23  1  0  0  0  0
  7 19  1  0  0  0  0
  7 20  2  0  0  0  0
  8 17  1  0  0  0  0
  8 19  2  0  0  0  0
  8 21  1  0  0  0  0
  9 15  1  0  0  0  0
  9 23  1  0  0  0  0
  9 24  2  0  0  0  0
 10 18  1  0  0  0  0
 10 22  1  0  0  0  0
 10 25  2  0  0  0  0
 11 13  1  0  0  0  0
 11 15  1  0  0  0  0
 12 14  1  0  0  0  0
 12 15  1  0  0  0  0
 13 22  1  0  0  0  0
 14 22  1  0  0  0  0
 18 26  1  0  0  0  0
 20 21  1  0  0  0  0
 21 27  1  0  0  0  0
 23 28  1  0  0  0  0
M  END
> <ref_mols>
x2041_0

> <original SMILES>
O=C(C1CCN(C(CCl)=O)CC1)NC2=CC(C3=NC(C)=NN3)=CC=C2C

> <Chemgauss4>
-7.730350

> <ref_pdb>
x0749_0

$$$$
x2721
  -OEChem-05172015543D

 28 30  0     0  0  0  0  0  0999 V2000
    5.9973   -4.5782   22.2302 C   0  0  0  0  0  0  0  0  0  0  0  0
    6.3766   -5.3814   23.3056 C   0  0  0  0  0  0  0  0  0  0  0  0
    7.7691   -3.0252   22.7650 C   0  0  0  0  0  0  0  0  0  0  0  0
    6.6936   -3.4001   21.9598 C   0  0  0  0  0  0  0  0  0  0  0  0
    7.4521   -5.0064   24.1108 C   0  0  0  0  0  0  0  0  0  0  0  0
    8.1484   -3.8283   23.8405 C   0  0  0  0  0  0  0  0  0  0  0  0
    6.3039   -2.5746   20.8512 C   0  0  0  0  0  0  0  0  0  0  0  0
    6.3096   -0.9787   19.5058 C   0  0  0  0  0  0  0  0  0  0  0  0
   10.0273   -2.2943   24.5045 C   0  0  0  0  0  0  0  0  0  0  0  0
   15.0269   -0.4923   24.8667 C   0  0  0  0  0  0  0  0  0  0  0  0
   12.3352   -3.0018   25.0950 C   0  0  0  0  0  0  0  0  0  0  0  0
   11.3967   -0.7808   25.9426 C   0  0  0  0  0  0  0  0  0  0  0  0
   13.6230   -2.3797   25.6216 C   0  0  0  0  0  0  0  0  0  0  0  0
   12.5292   -0.1935   25.1037 C   0  0  0  0  0  0  0  0  0  0  0  0
   11.0909   -2.2356   25.5640 C   0  0  0  0  0  0  0  0  0  0  0  0
    7.8352   -5.8852   25.2570 C   0  0  0  0  0  0  0  0  0  0  0  0
    6.5582    0.2473   18.7306 C   0  0  0  0  0  0  0  0  0  0  0  0
   15.0869    0.9522   24.4335 C   0  0  0  0  0  0  0  0  0  0  0  0
    6.9628   -1.4151   20.5576 N   0  0  0  0  0  0  0  0  0  0  0  0
    5.2842   -2.8830   20.0473 N   0  0  0  0  0  0  0  0  0  0  0  0
    5.3093   -1.8465   19.1957 N   0  0  0  0  0  0  0  0  0  0  0  0
   13.7614   -0.9882   25.1862 N   0  0  0  0  0  0  0  0  0  0  0  0
    9.2421   -3.4314   24.6459 N   0  0  0  0  0  0  0  0  0  0  0  0
    9.9310   -1.4084   23.6614 O   0  0  0  0  0  0  0  0  0  0  0  0
   16.0657   -1.1543   24.9246 O   0  0  0  0  0  0  0  0  0  0  0  0
   16.4657    1.0958   23.3490 Cl  0  0  0  0  0  0  0  0  0  0  0  0
    4.6282   -1.8040   18.4467 H   0  0  0  0  0  0  0  0  0  0  0  0
    9.4685   -4.0598   25.4140 H   0  0  0  0  0  0  0  0  0  0  0  0
  1  2  2  0  0  0  0
  1  4  1  0  0  0  0
  2  5  1  0  0  0  0
  3  4  2  0  0  0  0
  3  6  1  0  0  0  0
  4  7  1  0  0  0  0
  5  6  2  0  0  0  0
  5 16  1  0  0  0  0
  6 23  1  0  0  0  0
  7 19  1  0  0  0  0
  7 20  2  0  0  0  0
  8 17  1  0  0  0  0
  8 19  2  0  0  0  0
  8 21  1  0  0  0  0
  9 15  1  0  0  0  0
  9 23  1  0  0  0  0
  9 24  2  0  0  0  0
 10 18  1  0  0  0  0
 10 22  1  0  0  0  0
 10 25  2  0  0  0  0
 11 13  1  0  0  0  0
 11 15  1  0  0  0  0
 12 14  1  0  0  0  0
 12 15  1  0  0  0  0
 13 22  1  0  0  0  0
 14 22  1  0  0  0  0
 18 26  1  0  0  0  0
 20 21  1  0  0  0  0
 21 27  1  0  0  0  0
 23 28  1  0  0  0  0
M  END
> <ref_mols>
x2721_0

> <original SMILES>
O=C(C1CCN(C(CCl)=O)CC1)NC2=CC(C3=NC(C)=NN3)=CC=C2C

> <Chemgauss4>
-7.730350

> <ref_pdb>
x0749_0

> <CYS145-warhead dist minimum (A)>
11.3802395

> <CYS145-warhead dist mean (A)>
13.909507

> <CYS145-warhead dist stddev (A)>
0.5737839

$$$$
x0134
  -OEChem-05172015543D

 12 12  0     0  0  0  0  0  0999 V2000
   13.5220   -1.8214   22.3120 C   0  0  0  0  0  0  0  0  0  0  0  0
   12.1677   -1.5387   22.1343 C   0  0  0  0  0  0  0  0  0  0  0  0
   14.3800   -0.8401   22.8086 C   0  0  0  0  0  0  0  0  0  0  0  0
   11.6714   -0.2747   22.4532 C   0  0  0  0  0  0  0  0  0  0  0  0
   13.8838    0.4239   23.1275 C   0  0  0  0  0  0  0  0  0  0  0  0
   12.5295    0.7066   22.9497 C   0  0  0  0  0  0  0  0  0  0  0  0
   13.5599    4.5809   22.9288 C   0  0  0  0  0  0  0  0  0  0  0  0
   11.9995    2.0585   23.2906 C   0  0  0  0  0  0  0  0  0  0  0  0
   13.3962    3.4117   21.9712 C   0  0  0  0  0  0  0  0  0  0  0  0
   14.6939    5.1372   22.9065 O   0  5  0  0  0  0  0  0  0  0  0  0
   12.5395    4.8535   23.6210 O   0  0  0  0  0  0  0  0  0  0  0  0
   12.0823    2.9004   22.1472 O   0  0  0  0  0  0  0  0  0  0  0  0
  1  2  1  0  0  0  0
  1  3  2  0  0  0  0
  2  4  2  0  0  0  0
  3  5  1  0  0  0  0
  4  6  1  0  0  0  0
  5  6  2  0  0  0  0
  6  8  1  0  0  0  0
  7  9  1  0  0  0  0
  7 10  1  0  0  0  0
  7 11  2  0  0  0  0
  8 12  1  0  0  0  0
  9 12  1  0  0  0  0
M  CHG  1  10  -1
M  END
> <ref_mols>
x0134_0

> <original SMILES>
[O-]C(=O)COCC=1C=CC=CC1

> <Chemgauss4>
-7.729171

> <ref_pdb>
x0195_0

$$$$
x1482
  -OEChem-05172015543D

 18 19  0     1  0  0  0  0  0999 V2000
   14.7357   -0.9701   21.8514 C   0  0  0  0  0  0  0  0  0  0  0  0
   13.9949   -1.7228   20.9451 C   0  0  0  0  0  0  0  0  0  0  0  0
   10.7863   -0.4449   24.6439 C   0  0  0  0  0  0  0  0  0  0  0  0
   14.1272   -0.4619   22.9994 C   0  0  0  0  0  0  0  0  0  0  0  0
   12.6427   -1.9703   21.1834 C   0  0  0  0  0  0  0  0  0  0  0  0
   12.1384   -0.1975   24.4057 C   0  0  0  0  0  0  0  0  0  0  0  0
   10.0454   -1.1976   23.7376 C   0  0  0  0  0  0  0  0  0  0  0  0
   12.7672   -0.7011   23.2553 C   0  0  0  0  0  0  0  0  0  0  0  0
   12.0138   -1.4666   22.3337 C   0  0  0  0  0  0  0  0  0  0  0  0
   10.6538   -1.7058   22.5895 C   0  0  0  0  0  0  0  0  0  0  0  0
    8.6770   -0.9264   20.1126 C   0  0  0  0  0  0  0  0  0  0  0  0
   10.2963   -3.9461   21.4737 C   0  0  0  0  0  0  0  0  0  0  0  0
    8.7376   -0.3788   18.7095 C   0  0  0  0  0  0  0  0  0  0  0  0
    9.7992   -2.5070   21.6568 C   0  0  2  0  0  0  0  0  0  0  0  0
    9.6599   -1.8635   20.3639 N   0  0  0  0  0  0  0  0  0  0  0  0
    7.8363   -0.5416   20.9234 O   0  0  0  0  0  0  0  0  0  0  0  0
    7.7252   -1.4041   17.6806 Cl  0  0  0  0  0  0  0  0  0  0  0  0
   10.3038   -2.1092   19.6223 H   0  0  0  0  0  0  0  0  0  0  0  0
  1  2  1  0  0  0  0
  1  4  2  0  0  0  0
  2  5  2  0  0  0  0
  3  6  1  0  0  0  0
  3  7  2  0  0  0  0
  4  8  1  0  0  0  0
  5  9  1  0  0  0  0
  6  8  2  0  0  0  0
  7 10  1  0  0  0  0
  8  9  1  0  0  0  0
  9 10  2  0  0  0  0
 10 14  1  0  0  0  0
 11 13  1  0  0  0  0
 11 15  1  0  0  0  0
 11 16  2  0  0  0  0
 12 14  1  0  0  0  0
 13 17  1  0  0  0  0
 14 15  1  0  0  0  0
 15 18  1  0  0  0  0
M  END
> <ref_mols>
x1482_0

> <original SMILES>
CC(NC(=O)CCl)c1cccc2ccccc12

> <Chemgauss4>
-7.728835

> <ref_pdb>
x1382_0

$$$$
x1363
  -OEChem-05172015543D

 18 19  0     1  0  0  0  0  0999 V2000
   14.7357   -0.9701   21.8514 C   0  0  0  0  0  0  0  0  0  0  0  0
   13.9949   -1.7228   20.9451 C   0  0  0  0  0  0  0  0  0  0  0  0
   10.7863   -0.4449   24.6439 C   0  0  0  0  0  0  0  0  0  0  0  0
   14.1272   -0.4619   22.9994 C   0  0  0  0  0  0  0  0  0  0  0  0
   12.6427   -1.9703   21.1834 C   0  0  0  0  0  0  0  0  0  0  0  0
   12.1384   -0.1975   24.4057 C   0  0  0  0  0  0  0  0  0  0  0  0
   10.0454   -1.1976   23.7376 C   0  0  0  0  0  0  0  0  0  0  0  0
   12.7672   -0.7011   23.2553 C   0  0  0  0  0  0  0  0  0  0  0  0
   12.0138   -1.4666   22.3337 C   0  0  0  0  0  0  0  0  0  0  0  0
   10.6538   -1.7058   22.5895 C   0  0  0  0  0  0  0  0  0  0  0  0
    8.6770   -0.9264   20.1126 C   0  0  0  0  0  0  0  0  0  0  0  0
   10.2963   -3.9461   21.4737 C   0  0  0  0  0  0  0  0  0  0  0  0
    8.7376   -0.3788   18.7095 C   0  0  0  0  0  0  0  0  0  0  0  0
    9.7992   -2.5070   21.6568 C   0  0  2  0  0  0  0  0  0  0  0  0
    9.6599   -1.8635   20.3639 N   0  0  0  0  0  0  0  0  0  0  0  0
    7.8363   -0.5416   20.9234 O   0  0  0  0  0  0  0  0  0  0  0  0
    7.7252   -1.4041   17.6806 Cl  0  0  0  0  0  0  0  0  0  0  0  0
   10.3038   -2.1092   19.6223 H   0  0  0  0  0  0  0  0  0  0  0  0
  1  2  1  0  0  0  0
  1  4  2  0  0  0  0
  2  5  2  0  0  0  0
  3  6  1  0  0  0  0
  3  7  2  0  0  0  0
  4  8  1  0  0  0  0
  5  9  1  0  0  0  0
  6  8  2  0  0  0  0
  7 10  1  0  0  0  0
  8  9  1  0  0  0  0
  9 10  2  0  0  0  0
 10 14  1  0  0  0  0
 11 13  1  0  0  0  0
 11 15  1  0  0  0  0
 11 16  2  0  0  0  0
 12 14  1  0  0  0  0
 13 17  1  0  0  0  0
 14 15  1  0  0  0  0
 15 18  1  0  0  0  0
M  END
> <ref_mols>
x1363_0

> <original SMILES>
CC(NC(=O)CCl)c1cccc2ccccc12

> <Chemgauss4>
-7.728835

> <ref_pdb>
x1382_0

$$$$
x0746
  -OEChem-05172015543D

 18 19  0     1  0  0  0  0  0999 V2000
   14.7357   -0.9701   21.8514 C   0  0  0  0  0  0  0  0  0  0  0  0
   13.9949   -1.7228   20.9451 C   0  0  0  0  0  0  0  0  0  0  0  0
   10.7863   -0.4449   24.6439 C   0  0  0  0  0  0  0  0  0  0  0  0
   14.1272   -0.4619   22.9994 C   0  0  0  0  0  0  0  0  0  0  0  0
   12.6427   -1.9703   21.1834 C   0  0  0  0  0  0  0  0  0  0  0  0
   12.1384   -0.1975   24.4057 C   0  0  0  0  0  0  0  0  0  0  0  0
   10.0454   -1.1976   23.7376 C   0  0  0  0  0  0  0  0  0  0  0  0
   12.7672   -0.7011   23.2553 C   0  0  0  0  0  0  0  0  0  0  0  0
   12.0138   -1.4666   22.3337 C   0  0  0  0  0  0  0  0  0  0  0  0
   10.6538   -1.7058   22.5895 C   0  0  0  0  0  0  0  0  0  0  0  0
    8.6770   -0.9264   20.1126 C   0  0  0  0  0  0  0  0  0  0  0  0
   10.2963   -3.9461   21.4737 C   0  0  0  0  0  0  0  0  0  0  0  0
    8.7376   -0.3788   18.7095 C   0  0  0  0  0  0  0  0  0  0  0  0
    9.7992   -2.5070   21.6568 C   0  0  2  0  0  0  0  0  0  0  0  0
    9.6599   -1.8635   20.3639 N   0  0  0  0  0  0  0  0  0  0  0  0
    7.8363   -0.5416   20.9234 O   0  0  0  0  0  0  0  0  0  0  0  0
    7.7252   -1.4041   17.6806 Cl  0  0  0  0  0  0  0  0  0  0  0  0
   10.3038   -2.1092   19.6223 H   0  0  0  0  0  0  0  0  0  0  0  0
  1  2  1  0  0  0  0
  1  4  2  0  0  0  0
  2  5  2  0  0  0  0
  3  6  1  0  0  0  0
  3  7  2  0  0  0  0
  4  8  1  0  0  0  0
  5  9  1  0  0  0  0
  6  8  2  0  0  0  0
  7 10  1  0  0  0  0
  8  9  1  0  0  0  0
  9 10  2  0  0  0  0
 10 14  1  0  0  0  0
 11 13  1  0  0  0  0
 11 15  1  0  0  0  0
 11 16  2  0  0  0  0
 12 14  1  0  0  0  0
 13 17  1  0  0  0  0
 14 15  1  0  0  0  0
 15 18  1  0  0  0  0
M  END
> <ref_mols>
x0746_0

> <original SMILES>
CC(NC(=O)CCl)c1cccc2ccccc12

> <Chemgauss4>
-7.728835

> <ref_pdb>
x1382_0

> <CYS145-warhead dist minimum (A)>
5.575794

> <CYS145-warhead dist mean (A)>
6.8164315

> <CYS145-warhead dist stddev (A)>
0.35161862

$$$$
x0820
  -OEChem-05172015543D

 18 19  0     1  0  0  0  0  0999 V2000
   14.7357   -0.9701   21.8514 C   0  0  0  0  0  0  0  0  0  0  0  0
   13.9949   -1.7228   20.9451 C   0  0  0  0  0  0  0  0  0  0  0  0
   10.7863   -0.4449   24.6439 C   0  0  0  0  0  0  0  0  0  0  0  0
   14.1272   -0.4619   22.9994 C   0  0  0  0  0  0  0  0  0  0  0  0
   12.6427   -1.9703   21.1834 C   0  0  0  0  0  0  0  0  0  0  0  0
   12.1384   -0.1975   24.4057 C   0  0  0  0  0  0  0  0  0  0  0  0
   10.0454   -1.1976   23.7376 C   0  0  0  0  0  0  0  0  0  0  0  0
   12.7672   -0.7011   23.2553 C   0  0  0  0  0  0  0  0  0  0  0  0
   12.0138   -1.4666   22.3337 C   0  0  0  0  0  0  0  0  0  0  0  0
   10.6538   -1.7058   22.5895 C   0  0  0  0  0  0  0  0  0  0  0  0
    8.6770   -0.9264   20.1126 C   0  0  0  0  0  0  0  0  0  0  0  0
   10.2963   -3.9461   21.4737 C   0  0  0  0  0  0  0  0  0  0  0  0
    8.7376   -0.3788   18.7095 C   0  0  0  0  0  0  0  0  0  0  0  0
    9.7992   -2.5070   21.6568 C   0  0  2  0  0  0  0  0  0  0  0  0
    9.6599   -1.8635   20.3639 N   0  0  0  0  0  0  0  0  0  0  0  0
    7.8363   -0.5416   20.9234 O   0  0  0  0  0  0  0  0  0  0  0  0
    7.7252   -1.4041   17.6806 Cl  0  0  0  0  0  0  0  0  0  0  0  0
   10.3038   -2.1092   19.6223 H   0  0  0  0  0  0  0  0  0  0  0  0
  1  2  1  0  0  0  0
  1  4  2  0  0  0  0
  2  5  2  0  0  0  0
  3  6  1  0  0  0  0
  3  7  2  0  0  0  0
  4  8  1  0  0  0  0
  5  9  1  0  0  0  0
  6  8  2  0  0  0  0
  7 10  1  0  0  0  0
  8  9  1  0  0  0  0
  9 10  2  0  0  0  0
 10 14  1  0  0  0  0
 11 13  1  0  0  0  0
 11 15  1  0  0  0  0
 11 16  2  0  0  0  0
 12 14  1  0  0  0  0
 13 17  1  0  0  0  0
 14 15  1  0  0  0  0
 15 18  1  0  0  0  0
M  END
> <ref_mols>
x0820_0

> <original SMILES>
CC(NC(=O)CCl)c1cccc2ccccc12

> <Chemgauss4>
-7.728835

> <ref_pdb>
x1382_0

$$$$
x2493
  -OEChem-05172015543D

 21 23  0     0  0  0  0  0  0999 V2000
   10.2749   -1.8478   23.0318 C   0  0  0  0  0  0  0  0  0  0  0  0
    9.6583   -3.0792   22.7976 C   0  0  0  0  0  0  0  0  0  0  0  0
    9.3475   -1.7629   25.2814 C   0  0  0  0  0  0  0  0  0  0  0  0
   10.1205   -1.1934   24.2666 C   0  0  0  0  0  0  0  0  0  0  0  0
    8.9005   -3.6198   23.8160 C   0  0  0  0  0  0  0  0  0  0  0  0
    8.7494   -2.9794   25.0247 C   0  0  0  0  0  0  0  0  0  0  0  0
   10.7795    0.1051   24.4902 C   0  0  0  0  0  0  0  0  0  0  0  0
   11.2130    0.9256   23.5201 C   0  0  0  0  0  0  0  0  0  0  0  0
   11.8479    2.1971   23.7953 C   0  0  0  0  0  0  0  0  0  0  0  0
   12.2826    3.0201   22.8304 C   0  0  0  0  0  0  0  0  0  0  0  0
   12.9305    4.3187   23.1029 C   0  0  0  0  0  0  0  0  0  0  0  0
   10.5387    6.3675   25.9186 C   0  0  0  0  0  0  0  0  0  0  0  0
   12.0559    6.2866   26.0623 C   0  0  0  0  0  0  0  0  0  0  0  0
   10.0275    5.2744   24.9842 C   0  0  0  0  0  0  0  0  0  0  0  0
   12.7538    6.3029   24.7025 C   0  0  0  0  0  0  0  0  0  0  0  0
   10.7459    5.3253   23.6400 C   0  0  0  0  0  0  0  0  0  0  0  0
    7.6399   -4.8361   25.0863 C   0  0  0  0  0  0  0  0  0  0  0  0
   12.2014    5.2736   23.8081 N   0  0  0  0  0  0  0  0  0  0  0  0
   14.0814    4.4774   22.6922 O   0  0  0  0  0  0  0  0  0  0  0  0
    8.2305   -4.8035   23.7709 O   0  0  0  0  0  0  0  0  0  0  0  0
    7.9656   -3.6817   25.8875 O   0  0  0  0  0  0  0  0  0  0  0  0
  1  2  2  0  0  0  0
  1  4  1  0  0  0  0
  2  5  1  0  0  0  0
  3  4  2  0  0  0  0
  3  6  1  0  0  0  0
  4  7  1  0  0  0  0
  5  6  2  0  0  0  0
  5 20  1  0  0  0  0
  6 21  1  0  0  0  0
  7  8  2  0  0  0  0
  8  9  1  0  0  0  0
  9 10  2  0  0  0  0
 10 11  1  0  0  0  0
 11 18  1  0  0  0  0
 11 19  2  0  0  0  0
 12 13  1  0  0  0  0
 12 14  1  0  0  0  0
 13 15  1  0  0  0  0
 14 16  1  0  0  0  0
 15 18  1  0  0  0  0
 16 18  1  0  0  0  0
 17 20  1  0  0  0  0
 17 21  1  0  0  0  0
M  END
> <ref_mols>
x2493_0

> <original SMILES>
O=C(C=CC=CC=1C=CC=2OCOC2C1)N3CCCCC3

> <Chemgauss4>
-7.724535

> <ref_pdb>
x0946_0

$$$$
x2661
  -OEChem-05172015543D

 21 23  0     0  0  0  0  0  0999 V2000
   10.2749   -1.8478   23.0318 C   0  0  0  0  0  0  0  0  0  0  0  0
    9.6583   -3.0792   22.7976 C   0  0  0  0  0  0  0  0  0  0  0  0
    9.3475   -1.7629   25.2814 C   0  0  0  0  0  0  0  0  0  0  0  0
   10.1205   -1.1934   24.2666 C   0  0  0  0  0  0  0  0  0  0  0  0
    8.9005   -3.6198   23.8160 C   0  0  0  0  0  0  0  0  0  0  0  0
    8.7494   -2.9794   25.0247 C   0  0  0  0  0  0  0  0  0  0  0  0
   10.7795    0.1051   24.4902 C   0  0  0  0  0  0  0  0  0  0  0  0
   11.2130    0.9256   23.5201 C   0  0  0  0  0  0  0  0  0  0  0  0
   11.8479    2.1971   23.7953 C   0  0  0  0  0  0  0  0  0  0  0  0
   12.2826    3.0201   22.8304 C   0  0  0  0  0  0  0  0  0  0  0  0
   12.9305    4.3187   23.1029 C   0  0  0  0  0  0  0  0  0  0  0  0
   10.5387    6.3675   25.9186 C   0  0  0  0  0  0  0  0  0  0  0  0
   12.0559    6.2866   26.0623 C   0  0  0  0  0  0  0  0  0  0  0  0
   10.0275    5.2744   24.9842 C   0  0  0  0  0  0  0  0  0  0  0  0
   12.7538    6.3029   24.7025 C   0  0  0  0  0  0  0  0  0  0  0  0
   10.7459    5.3253   23.6400 C   0  0  0  0  0  0  0  0  0  0  0  0
    7.6399   -4.8361   25.0863 C   0  0  0  0  0  0  0  0  0  0  0  0
   12.2014    5.2736   23.8081 N   0  0  0  0  0  0  0  0  0  0  0  0
   14.0814    4.4774   22.6922 O   0  0  0  0  0  0  0  0  0  0  0  0
    8.2305   -4.8035   23.7709 O   0  0  0  0  0  0  0  0  0  0  0  0
    7.9656   -3.6817   25.8875 O   0  0  0  0  0  0  0  0  0  0  0  0
  1  2  2  0  0  0  0
  1  4  1  0  0  0  0
  2  5  1  0  0  0  0
  3  4  2  0  0  0  0
  3  6  1  0  0  0  0
  4  7  1  0  0  0  0
  5  6  2  0  0  0  0
  5 20  1  0  0  0  0
  6 21  1  0  0  0  0
  7  8  2  0  0  0  0
  8  9  1  0  0  0  0
  9 10  2  0  0  0  0
 10 11  1  0  0  0  0
 11 18  1  0  0  0  0
 11 19  2  0  0  0  0
 12 13  1  0  0  0  0
 12 14  1  0  0  0  0
 13 15  1  0  0  0  0
 14 16  1  0  0  0  0
 15 18  1  0  0  0  0
 16 18  1  0  0  0  0
 17 20  1  0  0  0  0
 17 21  1  0  0  0  0
M  END
> <ref_mols>
x2661_0

> <original SMILES>
O=C(C=CC=CC=1C=CC=2OCOC2C1)N3CCCCC3

> <Chemgauss4>
-7.724535

> <ref_pdb>
x0946_0

$$$$
x0563
  -OEChem-05172015543D

 11 11  0     0  0  0  0  0  0999 V2000
    6.1950   -0.5039   20.0036 C   0  0  0  0  0  0  0  0  0  0  0  0
    5.1746    0.4306   20.0277 C   0  0  0  0  0  0  0  0  0  0  0  0
    6.9462   -0.6105   18.8505 C   0  0  0  0  0  0  0  0  0  0  0  0
    4.9733    1.1968   18.8973 C   0  0  0  0  0  0  0  0  0  0  0  0
    8.0581   -1.5998   18.7732 C   0  0  0  0  0  0  0  0  0  0  0  0
    2.0702    3.4041   19.8006 C   0  0  0  0  0  0  0  0  0  0  0  0
    3.0857    2.3433   20.0583 C   0  0  0  0  0  0  0  0  0  0  0  0
    6.7268    0.1525   17.7587 N   0  0  0  0  0  0  0  0  0  0  0  0
    5.7242    1.0712   17.7827 N   0  0  0  0  0  0  0  0  0  0  0  0
    3.9279    2.1493   18.9216 N   0  0  0  0  0  0  0  0  0  0  0  0
    3.7961    2.6945   18.0928 H   0  0  0  0  0  0  0  0  0  0  0  0
  1  2  2  0  0  0  0
  1  3  1  0  0  0  0
  2  4  1  0  0  0  0
  3  5  1  0  0  0  0
  3  8  2  0  0  0  0
  4  9  2  0  0  0  0
  4 10  1  0  0  0  0
  6  7  1  0  0  0  0
  7 10  1  0  0  0  0
  8  9  1  0  0  0  0
 10 11  1  0  0  0  0
M  END
> <ref_mols>
x0563_0

> <original SMILES>
CCNC=1C=CC(C)=NN1

> <Chemgauss4>
-7.721760

> <ref_pdb>
x0397_0

$$$$
x0602
  -OEChem-05172015543D

 12 12  0     1  0  0  0  0  0999 V2000
   12.1711    2.5254   22.6673 C   0  0  0  0  0  0  0  0  0  0  0  0
   14.1828   -0.3386   21.9527 C   0  0  0  0  0  0  0  0  0  0  0  0
   13.2767   -1.5137   22.3202 C   0  0  0  0  0  0  0  0  0  0  0  0
   13.9673    0.8401   22.8969 C   0  0  0  0  0  0  0  0  0  0  0  0
   11.6436    0.1257   23.3310 C   0  0  0  0  0  0  0  0  0  0  0  0
   11.8055   -1.0755   22.3884 C   0  0  2  0  0  0  0  0  0  0  0  0
   10.9153   -2.2346   22.8293 C   0  0  0  0  0  0  0  0  0  0  0  0
   13.2761    3.4929   22.3258 C   0  0  0  0  0  0  0  0  0  0  0  0
   12.5530    1.2138   22.9472 N   0  0  0  0  0  0  0  0  0  0  0  0
   11.0043    2.9258   22.6866 O   0  0  0  0  0  0  0  0  0  0  0  0
   12.7233    4.7692   22.0788 O   0  0  0  0  0  0  0  0  0  0  0  0
   13.4609    5.3664   21.8624 H   0  0  0  0  0  0  0  0  0  0  0  0
  1  8  1  0  0  0  0
  1  9  1  0  0  0  0
  1 10  2  0  0  0  0
  2  3  1  0  0  0  0
  2  4  1  0  0  0  0
  3  6  1  0  0  0  0
  4  9  1  0  0  0  0
  5  6  1  0  0  0  0
  5  9  1  0  0  0  0
  6  7  1  0  0  0  0
  8 11  1  0  0  0  0
 11 12  1  0  0  0  0
M  END
> <ref_mols>
x0602_0

> <original SMILES>
CC1CCCN(C1)C(=O)CO

> <Chemgauss4>
-7.719289

> <ref_pdb>
x0195_0

$$$$
x1262
  -OEChem-05172015543D

 12 12  0     1  0  0  0  0  0999 V2000
   12.1711    2.5254   22.6673 C   0  0  0  0  0  0  0  0  0  0  0  0
   14.1828   -0.3386   21.9527 C   0  0  0  0  0  0  0  0  0  0  0  0
   13.2767   -1.5137   22.3202 C   0  0  0  0  0  0  0  0  0  0  0  0
   13.9673    0.8401   22.8969 C   0  0  0  0  0  0  0  0  0  0  0  0
   11.6436    0.1257   23.3310 C   0  0  0  0  0  0  0  0  0  0  0  0
   11.8055   -1.0755   22.3884 C   0  0  2  0  0  0  0  0  0  0  0  0
   10.9153   -2.2346   22.8293 C   0  0  0  0  0  0  0  0  0  0  0  0
   13.2761    3.4929   22.3258 C   0  0  0  0  0  0  0  0  0  0  0  0
   12.5530    1.2138   22.9472 N   0  0  0  0  0  0  0  0  0  0  0  0
   11.0043    2.9258   22.6866 O   0  0  0  0  0  0  0  0  0  0  0  0
   12.7233    4.7692   22.0788 O   0  0  0  0  0  0  0  0  0  0  0  0
   13.4609    5.3664   21.8624 H   0  0  0  0  0  0  0  0  0  0  0  0
  1  8  1  0  0  0  0
  1  9  1  0  0  0  0
  1 10  2  0  0  0  0
  2  3  1  0  0  0  0
  2  4  1  0  0  0  0
  3  6  1  0  0  0  0
  4  9  1  0  0  0  0
  5  6  1  0  0  0  0
  5  9  1  0  0  0  0
  6  7  1  0  0  0  0
  8 11  1  0  0  0  0
 11 12  1  0  0  0  0
M  END
> <ref_mols>
x1262_0

> <original SMILES>
CC1CCCN(C1)C(=O)CO

> <Chemgauss4>
-7.719289

> <ref_pdb>
x0195_0

$$$$
x0615
  -OEChem-05172015543D

 15 15  0     0  0  0  0  0  0999 V2000
   11.9294    1.3749   23.6981 C   0  0  0  0  0  0  0  0  0  0  0  0
   13.5739    0.2802   22.2103 C   0  0  0  0  0  0  0  0  0  0  0  0
   13.4922   -0.4395   24.5555 C   0  0  0  0  0  0  0  0  0  0  0  0
   13.5964   -1.1816   21.7926 C   0  0  0  0  0  0  0  0  0  0  0  0
   13.5290   -1.9060   24.0897 C   0  0  0  0  0  0  0  0  0  0  0  0
   14.3936   -2.7235   25.0578 C   0  0  0  0  0  0  0  0  0  0  0  0
   12.1238   -2.5241   24.0456 C   0  0  0  0  0  0  0  0  0  0  0  0
   12.0187    2.6207   22.8535 C   0  0  0  0  0  0  0  0  0  0  0  0
   11.4458    3.7948   23.5957 C   0  0  0  0  0  0  0  0  0  0  0  0
   12.9315    0.4254   23.5132 N   0  0  0  0  0  0  0  0  0  0  0  0
   10.9999    1.2529   24.4998 O   0  0  0  0  0  0  0  0  0  0  0  0
   14.1747   -2.0012   22.8084 O   0  0  0  0  0  0  0  0  0  0  0  0
   10.1551    3.5906   23.9347 F   0  0  0  0  0  0  0  0  0  0  0  0
   11.5143    4.9300   22.8683 F   0  0  0  0  0  0  0  0  0  0  0  0
   12.1405    3.9990   24.7372 F   0  0  0  0  0  0  0  0  0  0  0  0
  1  8  1  0  0  0  0
  1 10  1  0  0  0  0
  1 11  2  0  0  0  0
  2  4  1  0  0  0  0
  2 10  1  0  0  0  0
  3  5  1  0  0  0  0
  3 10  1  0  0  0  0
  4 12  1  0  0  0  0
  5  6  1  0  0  0  0
  5  7  1  0  0  0  0
  5 12  1  0  0  0  0
  8  9  1  0  0  0  0
  9 13  1  0  0  0  0
  9 14  1  0  0  0  0
  9 15  1  0  0  0  0
M  END
> <ref_mols>
x0615_0

> <original SMILES>
CC1(C)CN(CCO1)C(=O)CC(F)(F)F

> <Chemgauss4>
-7.718914

> <ref_pdb>
x0161_0

$$$$
x0072
  -OEChem-05172015543D

 14 14  0     0  0  0  0  0  0999 V2000
   13.6915   -1.7777   23.0857 C   0  0  0  0  0  0  0  0  0  0  0  0
   12.2975   -1.7425   23.1176 C   0  0  0  0  0  0  0  0  0  0  0  0
   14.4183   -0.5881   23.0371 C   0  0  0  0  0  0  0  0  0  0  0  0
   11.6302   -0.5177   23.1008 C   0  0  0  0  0  0  0  0  0  0  0  0
   13.7510    0.6366   23.0204 C   0  0  0  0  0  0  0  0  0  0  0  0
   12.3570    0.6719   23.0522 C   0  0  0  0  0  0  0  0  0  0  0  0
   13.0137    5.1655   24.4978 C   0  0  0  0  0  0  0  0  0  0  0  0
   11.6358    1.9972   23.0339 C   0  0  0  0  0  0  0  0  0  0  0  0
   12.4036    3.0827   22.2835 C   0  0  0  0  0  0  0  0  0  0  0  0
   11.7042    4.3801   22.2938 N   0  0  0  0  0  0  0  0  0  0  0  0
   10.5520    4.2833   24.6084 O   0  0  0  0  0  0  0  0  0  0  0  0
   11.0032    6.5174   23.5305 O   0  0  0  0  0  0  0  0  0  0  0  0
   11.3836    5.1417   23.7877 S   0  0  0  0  0  0  0  0  0  0  0  0
   11.9467    4.9911   21.5031 H   0  0  0  0  0  0  0  0  0  0  0  0
  1  2  1  0  0  0  0
  1  3  2  0  0  0  0
  2  4  2  0  0  0  0
  3  5  1  0  0  0  0
  4  6  1  0  0  0  0
  5  6  2  0  0  0  0
  6  8  1  0  0  0  0
  7 13  1  0  0  0  0
  8  9  1  0  0  0  0
  9 10  1  0  0  0  0
 10 13  1  0  0  0  0
 11 13  2  0  0  0  0
 12 13  2  0  0  0  0
 10 14  1  0  0  0  0
M  END
> <ref_mols>
x0072_0

> <original SMILES>
CS(=O)(=O)NCCC=1C=CC=CC1

> <Chemgauss4>
-7.717687

> <ref_pdb>
x0195_0

$$$$
x0982
  -OEChem-05172015543D

 18 17  0     1  0  0  0  0  0999 V2000
   10.9075   -0.5830   23.9563 C   0  0  0  0  0  0  0  0  0  0  0  0
   10.8231    0.4459   24.5692 C   0  0  0  0  0  0  0  0  0  0  0  0
    6.4947   -0.4208   19.3466 C   0  0  0  0  0  0  0  0  0  0  0  0
    8.8805   -1.5652   21.9641 C   0  0  0  0  0  0  0  0  0  0  0  0
    6.4980   -3.4669   20.6724 C   0  0  0  0  0  0  0  0  0  0  0  0
    5.3901    0.5666   19.5285 C   0  0  0  0  0  0  0  0  0  0  0  0
   11.0134   -1.8380   23.2130 C   0  0  0  0  0  0  0  0  0  0  0  0
    7.8870   -3.0316   20.1884 C   0  0  0  0  0  0  0  0  0  0  0  0
    8.3170   -1.6114   20.5484 C   0  0  1  0  0  0  0  0  0  0  0  0
   10.2511   -1.7824   21.9873 N   0  0  0  0  0  0  0  0  0  0  0  0
    7.2113   -0.6882   20.5002 N   0  0  0  0  0  0  0  0  0  0  0  0
    6.3779   -3.5029   21.9315 O   0  5  0  0  0  0  0  0  0  0  0  0
    6.6899   -0.9123   18.2412 O   0  0  0  0  0  0  0  0  0  0  0  0
    8.1788   -1.3999   22.9598 O   0  0  0  0  0  0  0  0  0  0  0  0
    5.6498   -3.7438   19.7809 O   0  0  0  0  0  0  0  0  0  0  0  0
   10.6898    2.0744   25.5391 Br  0  0  0  0  0  0  0  0  0  0  0  0
   10.7459   -1.9438   21.1151 H   0  0  0  0  0  0  0  0  0  0  0  0
    6.9441   -0.2090   21.3571 H   0  0  0  0  0  0  0  0  0  0  0  0
  1  2  3  0  0  0  0
  1  7  1  0  0  0  0
  2 16  1  0  0  0  0
  3  6  1  0  0  0  0
  3 11  1  0  0  0  0
  3 13  2  0  0  0  0
  4  9  1  0  0  0  0
  4 10  1  0  0  0  0
  4 14  2  0  0  0  0
  5  8  1  0  0  0  0
  5 12  1  0  0  0  0
  5 15  2  0  0  0  0
  7 10  1  0  0  0  0
  8  9  1  0  0  0  0
  9 11  1  0  0  0  0
 10 17  1  0  0  0  0
 11 18  1  0  0  0  0
M  CHG  1  12  -1
M  END
> <ref_mols>
x0982_0

> <original SMILES>
CC(NC(CC(O)=O)C(NCC#CBr)=O)=O

> <Chemgauss4>
-7.707650

> <ref_pdb>
x0830_0

$$$$
x1342
  -OEChem-05172015543D

 21 22  0     0  0  0  0  0  0999 V2000
   14.0516   -2.6707   25.8349 C   0  0  0  0  0  0  0  0  0  0  0  0
   14.1129   -1.2994   26.0826 C   0  0  0  0  0  0  0  0  0  0  0  0
   12.8891   -3.2328   25.3073 C   0  0  0  0  0  0  0  0  0  0  0  0
   13.0118   -0.4902   25.8029 C   0  0  0  0  0  0  0  0  0  0  0  0
   11.7879   -2.4236   25.0276 C   0  0  0  0  0  0  0  0  0  0  0  0
   11.8492   -1.0523   25.2754 C   0  0  0  0  0  0  0  0  0  0  0  0
   10.5624   -3.0487   24.4669 C   0  0  0  0  0  0  0  0  0  0  0  0
    5.7315   -4.8982   21.9734 C   0  0  0  0  0  0  0  0  0  0  0  0
    7.8868   -4.4575   24.8026 C   0  0  0  0  0  0  0  0  0  0  0  0
    9.2427   -5.2539   22.8333 C   0  0  0  0  0  0  0  0  0  0  0  0
    6.6796   -5.2019   24.2384 C   0  0  0  0  0  0  0  0  0  0  0  0
    8.0077   -5.9828   22.3078 C   0  0  0  0  0  0  0  0  0  0  0  0
    9.1982   -5.1133   24.3586 C   0  0  0  0  0  0  0  0  0  0  0  0
   10.6847   -0.1627   24.9859 C   0  0  0  0  0  0  0  0  0  0  0  0
    6.1020   -4.4057   20.5972 C   0  0  0  0  0  0  0  0  0  0  0  0
    6.7790   -5.3352   22.7837 N   0  0  0  0  0  0  0  0  0  0  0  0
   10.3318   -4.3625   24.8394 N   0  0  0  0  0  0  0  0  0  0  0  0
    9.8491   -2.3966   23.7090 O   0  0  0  0  0  0  0  0  0  0  0  0
    4.5466   -4.8919   22.3169 O   0  0  0  0  0  0  0  0  0  0  0  0
    7.1665   -3.0230   20.8269 Cl  0  0  0  0  0  0  0  0  0  0  0  0
   10.9990   -4.8585   25.4199 H   0  0  0  0  0  0  0  0  0  0  0  0
  1  2  1  0  0  0  0
  1  3  2  0  0  0  0
  2  4  2  0  0  0  0
  3  5  1  0  0  0  0
  4  6  1  0  0  0  0
  5  6  2  0  0  0  0
  5  7  1  0  0  0  0
  6 14  1  0  0  0  0
  7 17  1  0  0  0  0
  7 18  2  0  0  0  0
  8 15  1  0  0  0  0
  8 16  1  0  0  0  0
  8 19  2  0  0  0  0
  9 11  1  0  0  0  0
  9 13  1  0  0  0  0
 10 12  1  0  0  0  0
 10 13  1  0  0  0  0
 11 16  1  0  0  0  0
 12 16  1  0  0  0  0
 13 17  1  0  0  0  0
 15 20  1  0  0  0  0
 17 21  1  0  0  0  0
M  END
> <ref_mols>
x1342_0

> <original SMILES>
Cc1ccccc1C(=O)NC2CCN(CC2)C(=O)CCl

> <Chemgauss4>
-7.706929

> <ref_pdb>
x0749_0

$$$$
x0787
  -OEChem-05172015543D

 21 22  0     0  0  0  0  0  0999 V2000
   14.0516   -2.6707   25.8349 C   0  0  0  0  0  0  0  0  0  0  0  0
   14.1129   -1.2994   26.0826 C   0  0  0  0  0  0  0  0  0  0  0  0
   12.8891   -3.2328   25.3073 C   0  0  0  0  0  0  0  0  0  0  0  0
   13.0118   -0.4902   25.8029 C   0  0  0  0  0  0  0  0  0  0  0  0
   11.7879   -2.4236   25.0276 C   0  0  0  0  0  0  0  0  0  0  0  0
   11.8492   -1.0523   25.2754 C   0  0  0  0  0  0  0  0  0  0  0  0
   10.5624   -3.0487   24.4669 C   0  0  0  0  0  0  0  0  0  0  0  0
    5.7315   -4.8982   21.9734 C   0  0  0  0  0  0  0  0  0  0  0  0
    7.8868   -4.4575   24.8026 C   0  0  0  0  0  0  0  0  0  0  0  0
    9.2427   -5.2539   22.8333 C   0  0  0  0  0  0  0  0  0  0  0  0
    6.6796   -5.2019   24.2384 C   0  0  0  0  0  0  0  0  0  0  0  0
    8.0077   -5.9828   22.3078 C   0  0  0  0  0  0  0  0  0  0  0  0
    9.1982   -5.1133   24.3586 C   0  0  0  0  0  0  0  0  0  0  0  0
   10.6847   -0.1627   24.9859 C   0  0  0  0  0  0  0  0  0  0  0  0
    6.1020   -4.4057   20.5972 C   0  0  0  0  0  0  0  0  0  0  0  0
    6.7790   -5.3352   22.7837 N   0  0  0  0  0  0  0  0  0  0  0  0
   10.3318   -4.3625   24.8394 N   0  0  0  0  0  0  0  0  0  0  0  0
    9.8491   -2.3966   23.7090 O   0  0  0  0  0  0  0  0  0  0  0  0
    4.5466   -4.8919   22.3169 O   0  0  0  0  0  0  0  0  0  0  0  0
    7.1665   -3.0230   20.8269 Cl  0  0  0  0  0  0  0  0  0  0  0  0
   10.9990   -4.8585   25.4199 H   0  0  0  0  0  0  0  0  0  0  0  0
  1  2  1  0  0  0  0
  1  3  2  0  0  0  0
  2  4  2  0  0  0  0
  3  5  1  0  0  0  0
  4  6  1  0  0  0  0
  5  6  2  0  0  0  0
  5  7  1  0  0  0  0
  6 14  1  0  0  0  0
  7 17  1  0  0  0  0
  7 18  2  0  0  0  0
  8 15  1  0  0  0  0
  8 16  1  0  0  0  0
  8 19  2  0  0  0  0
  9 11  1  0  0  0  0
  9 13  1  0  0  0  0
 10 12  1  0  0  0  0
 10 13  1  0  0  0  0
 11 16  1  0  0  0  0
 12 16  1  0  0  0  0
 13 17  1  0  0  0  0
 15 20  1  0  0  0  0
 17 21  1  0  0  0  0
M  END
> <ref_mols>
x0787_0

> <original SMILES>
Cc1ccccc1C(=O)NC2CCN(CC2)C(=O)CCl

> <Chemgauss4>
-7.706929

> <ref_pdb>
x0749_0

$$$$
x0713
  -OEChem-05172015543D

 21 22  0     0  0  0  0  0  0999 V2000
   14.0516   -2.6707   25.8349 C   0  0  0  0  0  0  0  0  0  0  0  0
   14.1129   -1.2994   26.0826 C   0  0  0  0  0  0  0  0  0  0  0  0
   12.8891   -3.2328   25.3073 C   0  0  0  0  0  0  0  0  0  0  0  0
   13.0118   -0.4902   25.8029 C   0  0  0  0  0  0  0  0  0  0  0  0
   11.7879   -2.4236   25.0276 C   0  0  0  0  0  0  0  0  0  0  0  0
   11.8492   -1.0523   25.2754 C   0  0  0  0  0  0  0  0  0  0  0  0
   10.5624   -3.0487   24.4669 C   0  0  0  0  0  0  0  0  0  0  0  0
    5.7315   -4.8982   21.9734 C   0  0  0  0  0  0  0  0  0  0  0  0
    7.8868   -4.4575   24.8026 C   0  0  0  0  0  0  0  0  0  0  0  0
    9.2427   -5.2539   22.8333 C   0  0  0  0  0  0  0  0  0  0  0  0
    6.6796   -5.2019   24.2384 C   0  0  0  0  0  0  0  0  0  0  0  0
    8.0077   -5.9828   22.3078 C   0  0  0  0  0  0  0  0  0  0  0  0
    9.1982   -5.1133   24.3586 C   0  0  0  0  0  0  0  0  0  0  0  0
   10.6847   -0.1627   24.9859 C   0  0  0  0  0  0  0  0  0  0  0  0
    6.1020   -4.4057   20.5972 C   0  0  0  0  0  0  0  0  0  0  0  0
    6.7790   -5.3352   22.7837 N   0  0  0  0  0  0  0  0  0  0  0  0
   10.3318   -4.3625   24.8394 N   0  0  0  0  0  0  0  0  0  0  0  0
    9.8491   -2.3966   23.7090 O   0  0  0  0  0  0  0  0  0  0  0  0
    4.5466   -4.8919   22.3169 O   0  0  0  0  0  0  0  0  0  0  0  0
    7.1665   -3.0230   20.8269 Cl  0  0  0  0  0  0  0  0  0  0  0  0
   10.9990   -4.8585   25.4199 H   0  0  0  0  0  0  0  0  0  0  0  0
  1  2  1  0  0  0  0
  1  3  2  0  0  0  0
  2  4  2  0  0  0  0
  3  5  1  0  0  0  0
  4  6  1  0  0  0  0
  5  6  2  0  0  0  0
  5  7  1  0  0  0  0
  6 14  1  0  0  0  0
  7 17  1  0  0  0  0
  7 18  2  0  0  0  0
  8 15  1  0  0  0  0
  8 16  1  0  0  0  0
  8 19  2  0  0  0  0
  9 11  1  0  0  0  0
  9 13  1  0  0  0  0
 10 12  1  0  0  0  0
 10 13  1  0  0  0  0
 11 16  1  0  0  0  0
 12 16  1  0  0  0  0
 13 17  1  0  0  0  0
 15 20  1  0  0  0  0
 17 21  1  0  0  0  0
M  END
> <ref_mols>
x0713_0

> <original SMILES>
Cc1ccccc1C(=O)NC2CCN(CC2)C(=O)CCl

> <Chemgauss4>
-7.706929

> <ref_pdb>
x0749_0

> <CYS145-warhead dist minimum (A)>
4.1183577

> <CYS145-warhead dist mean (A)>
5.804095

> <CYS145-warhead dist stddev (A)>
0.32440183

$$$$
x1445
  -OEChem-05172015543D

 21 22  0     0  0  0  0  0  0999 V2000
   14.0516   -2.6707   25.8349 C   0  0  0  0  0  0  0  0  0  0  0  0
   14.1129   -1.2994   26.0826 C   0  0  0  0  0  0  0  0  0  0  0  0
   12.8891   -3.2328   25.3073 C   0  0  0  0  0  0  0  0  0  0  0  0
   13.0118   -0.4902   25.8029 C   0  0  0  0  0  0  0  0  0  0  0  0
   11.7879   -2.4236   25.0276 C   0  0  0  0  0  0  0  0  0  0  0  0
   11.8492   -1.0523   25.2754 C   0  0  0  0  0  0  0  0  0  0  0  0
   10.5624   -3.0487   24.4669 C   0  0  0  0  0  0  0  0  0  0  0  0
    5.7315   -4.8982   21.9734 C   0  0  0  0  0  0  0  0  0  0  0  0
    7.8868   -4.4575   24.8026 C   0  0  0  0  0  0  0  0  0  0  0  0
    9.2427   -5.2539   22.8333 C   0  0  0  0  0  0  0  0  0  0  0  0
    6.6796   -5.2019   24.2384 C   0  0  0  0  0  0  0  0  0  0  0  0
    8.0077   -5.9828   22.3078 C   0  0  0  0  0  0  0  0  0  0  0  0
    9.1982   -5.1133   24.3586 C   0  0  0  0  0  0  0  0  0  0  0  0
   10.6847   -0.1627   24.9859 C   0  0  0  0  0  0  0  0  0  0  0  0
    6.1020   -4.4057   20.5972 C   0  0  0  0  0  0  0  0  0  0  0  0
    6.7790   -5.3352   22.7837 N   0  0  0  0  0  0  0  0  0  0  0  0
   10.3318   -4.3625   24.8394 N   0  0  0  0  0  0  0  0  0  0  0  0
    9.8491   -2.3966   23.7090 O   0  0  0  0  0  0  0  0  0  0  0  0
    4.5466   -4.8919   22.3169 O   0  0  0  0  0  0  0  0  0  0  0  0
    7.1665   -3.0230   20.8269 Cl  0  0  0  0  0  0  0  0  0  0  0  0
   10.9990   -4.8585   25.4199 H   0  0  0  0  0  0  0  0  0  0  0  0
  1  2  1  0  0  0  0
  1  3  2  0  0  0  0
  2  4  2  0  0  0  0
  3  5  1  0  0  0  0
  4  6  1  0  0  0  0
  5  6  2  0  0  0  0
  5  7  1  0  0  0  0
  6 14  1  0  0  0  0
  7 17  1  0  0  0  0
  7 18  2  0  0  0  0
  8 15  1  0  0  0  0
  8 16  1  0  0  0  0
  8 19  2  0  0  0  0
  9 11  1  0  0  0  0
  9 13  1  0  0  0  0
 10 12  1  0  0  0  0
 10 13  1  0  0  0  0
 11 16  1  0  0  0  0
 12 16  1  0  0  0  0
 13 17  1  0  0  0  0
 15 20  1  0  0  0  0
 17 21  1  0  0  0  0
M  END
> <ref_mols>
x1445_0

> <original SMILES>
Cc1ccccc1C(=O)NC2CCN(CC2)C(=O)CCl

> <Chemgauss4>
-7.706929

> <ref_pdb>
x0749_0

$$$$
x1231
  -OEChem-05172015543D

 12 13  0     0  0  0  0  0  0999 V2000
   13.8036   -1.6925   22.3017 C   0  0  0  0  0  0  0  0  0  0  0  0
   14.3007   -0.4340   21.9631 C   0  0  0  0  0  0  0  0  0  0  0  0
   12.6307   -1.8012   23.0489 C   0  0  0  0  0  0  0  0  0  0  0  0
   13.6250    0.7158   22.3718 C   0  0  0  0  0  0  0  0  0  0  0  0
   11.9550   -0.6514   23.4575 C   0  0  0  0  0  0  0  0  0  0  0  0
   12.4521    0.6071   23.1190 C   0  0  0  0  0  0  0  0  0  0  0  0
   11.7563    1.7907   23.5400 C   0  0  0  0  0  0  0  0  0  0  0  0
   11.3037    3.7935   23.7923 C   0  0  0  0  0  0  0  0  0  0  0  0
   11.2032    5.2585   23.8304 C   0  0  0  0  0  0  0  0  0  0  0  0
   12.2121    3.0385   23.2281 N   0  0  0  0  0  0  0  0  0  0  0  0
   10.6293    1.7464   24.2567 N   0  0  0  0  0  0  0  0  0  0  0  0
   10.3220    3.1020   24.4283 O   0  0  0  0  0  0  0  0  0  0  0  0
  1  2  1  0  0  0  0
  1  3  2  0  0  0  0
  2  4  2  0  0  0  0
  3  5  1  0  0  0  0
  4  6  1  0  0  0  0
  5  6  2  0  0  0  0
  6  7  1  0  0  0  0
  7 10  1  0  0  0  0
  7 11  2  0  0  0  0
  8  9  1  0  0  0  0
  8 10  2  0  0  0  0
  8 12  1  0  0  0  0
 11 12  1  0  0  0  0
M  END
> <ref_mols>
x1231_0

> <original SMILES>
CC1=NC(=NO1)C=2C=CC=CC2

> <Chemgauss4>
-7.706484

> <ref_pdb>
x0195_0

$$$$
x2757
  -OEChem-05172015543D

 20 21  0     0  0  0  0  0  0999 V2000
    6.8546   -0.3018   18.4430 C   0  0  0  0  0  0  0  0  0  0  0  0
    7.7460   -0.3227   19.5099 C   0  0  0  0  0  0  0  0  0  0  0  0
    5.8097   -1.2117   18.4529 C   0  0  0  0  0  0  0  0  0  0  0  0
    6.4910   -2.1077   20.4558 C   0  0  0  0  0  0  0  0  0  0  0  0
    7.5679   -1.2399   20.5396 C   0  0  0  0  0  0  0  0  0  0  0  0
    8.4089   -2.1405   22.7318 C   0  0  0  0  0  0  0  0  0  0  0  0
   12.8311    0.9883   23.5392 C   0  0  0  0  0  0  0  0  0  0  0  0
   10.8814   -2.1083   22.9818 C   0  0  0  0  0  0  0  0  0  0  0  0
    9.3944   -0.4463   24.2306 C   0  0  0  0  0  0  0  0  0  0  0  0
   11.5075   -0.8092   22.4831 C   0  0  0  0  0  0  0  0  0  0  0  0
   10.7355    0.1347   24.6654 C   0  0  0  0  0  0  0  0  0  0  0  0
    9.5375   -1.8694   23.6813 C   0  0  0  0  0  0  0  0  0  0  0  0
   12.9807    1.9452   24.6966 C   0  0  0  0  0  0  0  0  0  0  0  0
    5.6042   -2.1174   19.4353 N   0  0  0  0  0  0  0  0  0  0  0  0
   11.7203    0.1431   23.5760 N   0  0  0  0  0  0  0  0  0  0  0  0
    8.4585   -1.2854   21.6382 N   0  0  0  0  0  0  0  0  0  0  0  0
    7.5913   -3.0251   22.9641 O   0  0  0  0  0  0  0  0  0  0  0  0
   13.6676    0.9934   22.6330 O   0  0  0  0  0  0  0  0  0  0  0  0
   12.1571    3.4298   24.2325 Cl  0  0  0  0  0  0  0  0  0  0  0  0
    9.2188   -0.6090   21.6114 H   0  0  0  0  0  0  0  0  0  0  0  0
  1  2  1  0  0  0  0
  1  3  2  0  0  0  0
  2  5  2  0  0  0  0
  3 14  1  0  0  0  0
  4  5  1  0  0  0  0
  4 14  2  0  0  0  0
  5 16  1  0  0  0  0
  6 12  1  0  0  0  0
  6 16  1  0  0  0  0
  6 17  2  0  0  0  0
  7 13  1  0  0  0  0
  7 15  1  0  0  0  0
  7 18  2  0  0  0  0
  8 10  1  0  0  0  0
  8 12  1  0  0  0  0
  9 11  1  0  0  0  0
  9 12  1  0  0  0  0
 10 15  1  0  0  0  0
 11 15  1  0  0  0  0
 13 19  1  0  0  0  0
 16 20  1  0  0  0  0
M  END
> <ref_mols>
x2757_0

> <original SMILES>
O=C(C1CCN(C(CCl)=O)CC1)NC2=CN=CC=C2

> <Chemgauss4>
-7.704693

> <ref_pdb>
x0830_0

> <CYS145-warhead dist minimum (A)>
7.8886657

> <CYS145-warhead dist mean (A)>
9.497831

> <CYS145-warhead dist stddev (A)>
0.5145919

$$$$
x2723
  -OEChem-05172015543D

 20 21  0     0  0  0  0  0  0999 V2000
    6.8546   -0.3018   18.4430 C   0  0  0  0  0  0  0  0  0  0  0  0
    7.7460   -0.3227   19.5099 C   0  0  0  0  0  0  0  0  0  0  0  0
    5.8097   -1.2117   18.4529 C   0  0  0  0  0  0  0  0  0  0  0  0
    6.4910   -2.1077   20.4558 C   0  0  0  0  0  0  0  0  0  0  0  0
    7.5679   -1.2399   20.5396 C   0  0  0  0  0  0  0  0  0  0  0  0
    8.4089   -2.1405   22.7318 C   0  0  0  0  0  0  0  0  0  0  0  0
   12.8311    0.9883   23.5392 C   0  0  0  0  0  0  0  0  0  0  0  0
   10.8814   -2.1083   22.9818 C   0  0  0  0  0  0  0  0  0  0  0  0
    9.3944   -0.4463   24.2306 C   0  0  0  0  0  0  0  0  0  0  0  0
   11.5075   -0.8092   22.4831 C   0  0  0  0  0  0  0  0  0  0  0  0
   10.7355    0.1347   24.6654 C   0  0  0  0  0  0  0  0  0  0  0  0
    9.5375   -1.8694   23.6813 C   0  0  0  0  0  0  0  0  0  0  0  0
   12.9807    1.9452   24.6966 C   0  0  0  0  0  0  0  0  0  0  0  0
    5.6042   -2.1174   19.4353 N   0  0  0  0  0  0  0  0  0  0  0  0
   11.7203    0.1431   23.5760 N   0  0  0  0  0  0  0  0  0  0  0  0
    8.4585   -1.2854   21.6382 N   0  0  0  0  0  0  0  0  0  0  0  0
    7.5913   -3.0251   22.9641 O   0  0  0  0  0  0  0  0  0  0  0  0
   13.6676    0.9934   22.6330 O   0  0  0  0  0  0  0  0  0  0  0  0
   12.1571    3.4298   24.2325 Cl  0  0  0  0  0  0  0  0  0  0  0  0
    9.2188   -0.6090   21.6114 H   0  0  0  0  0  0  0  0  0  0  0  0
  1  2  1  0  0  0  0
  1  3  2  0  0  0  0
  2  5  2  0  0  0  0
  3 14  1  0  0  0  0
  4  5  1  0  0  0  0
  4 14  2  0  0  0  0
  5 16  1  0  0  0  0
  6 12  1  0  0  0  0
  6 16  1  0  0  0  0
  6 17  2  0  0  0  0
  7 13  1  0  0  0  0
  7 15  1  0  0  0  0
  7 18  2  0  0  0  0
  8 10  1  0  0  0  0
  8 12  1  0  0  0  0
  9 11  1  0  0  0  0
  9 12  1  0  0  0  0
 10 15  1  0  0  0  0
 11 15  1  0  0  0  0
 13 19  1  0  0  0  0
 16 20  1  0  0  0  0
M  END
> <ref_mols>
x2723_0

> <original SMILES>
O=C(C1CCN(C(CCl)=O)CC1)NC2=CN=CC=C2

> <Chemgauss4>
-7.704693

> <ref_pdb>
x0830_0

> <CYS145-warhead dist minimum (A)>
6.1845636

> <CYS145-warhead dist mean (A)>
7.92784

> <CYS145-warhead dist stddev (A)>
0.5421066

$$$$
x2045
  -OEChem-05172015543D

 20 21  0     0  0  0  0  0  0999 V2000
    6.8546   -0.3018   18.4430 C   0  0  0  0  0  0  0  0  0  0  0  0
    7.7460   -0.3227   19.5099 C   0  0  0  0  0  0  0  0  0  0  0  0
    5.8097   -1.2117   18.4529 C   0  0  0  0  0  0  0  0  0  0  0  0
    6.4910   -2.1077   20.4558 C   0  0  0  0  0  0  0  0  0  0  0  0
    7.5679   -1.2399   20.5396 C   0  0  0  0  0  0  0  0  0  0  0  0
    8.4089   -2.1405   22.7318 C   0  0  0  0  0  0  0  0  0  0  0  0
   12.8311    0.9883   23.5392 C   0  0  0  0  0  0  0  0  0  0  0  0
   10.8814   -2.1083   22.9818 C   0  0  0  0  0  0  0  0  0  0  0  0
    9.3944   -0.4463   24.2306 C   0  0  0  0  0  0  0  0  0  0  0  0
   11.5075   -0.8092   22.4831 C   0  0  0  0  0  0  0  0  0  0  0  0
   10.7355    0.1347   24.6654 C   0  0  0  0  0  0  0  0  0  0  0  0
    9.5375   -1.8694   23.6813 C   0  0  0  0  0  0  0  0  0  0  0  0
   12.9807    1.9452   24.6966 C   0  0  0  0  0  0  0  0  0  0  0  0
    5.6042   -2.1174   19.4353 N   0  0  0  0  0  0  0  0  0  0  0  0
   11.7203    0.1431   23.5760 N   0  0  0  0  0  0  0  0  0  0  0  0
    8.4585   -1.2854   21.6382 N   0  0  0  0  0  0  0  0  0  0  0  0
    7.5913   -3.0251   22.9641 O   0  0  0  0  0  0  0  0  0  0  0  0
   13.6676    0.9934   22.6330 O   0  0  0  0  0  0  0  0  0  0  0  0
   12.1571    3.4298   24.2325 Cl  0  0  0  0  0  0  0  0  0  0  0  0
    9.2188   -0.6090   21.6114 H   0  0  0  0  0  0  0  0  0  0  0  0
  1  2  1  0  0  0  0
  1  3  2  0  0  0  0
  2  5  2  0  0  0  0
  3 14  1  0  0  0  0
  4  5  1  0  0  0  0
  4 14  2  0  0  0  0
  5 16  1  0  0  0  0
  6 12  1  0  0  0  0
  6 16  1  0  0  0  0
  6 17  2  0  0  0  0
  7 13  1  0  0  0  0
  7 15  1  0  0  0  0
  7 18  2  0  0  0  0
  8 10  1  0  0  0  0
  8 12  1  0  0  0  0
  9 11  1  0  0  0  0
  9 12  1  0  0  0  0
 10 15  1  0  0  0  0
 11 15  1  0  0  0  0
 13 19  1  0  0  0  0
 16 20  1  0  0  0  0
M  END
> <ref_mols>
x2045_0

> <original SMILES>
O=C(C1CCN(C(CCl)=O)CC1)NC2=CN=CC=C2

> <Chemgauss4>
-7.704693

> <ref_pdb>
x0830_0

$$$$
x0650
  -OEChem-05172015543D

 17 18  0     1  0  0  0  0  0999 V2000
   11.4170    0.5685   23.3496 C   0  0  0  0  0  0  0  0  0  0  0  0
   14.1997   -1.8331   23.0162 C   0  0  0  0  0  0  0  0  0  0  0  0
   13.7154   -0.4455   23.3922 C   0  0  0  0  0  0  0  0  0  0  0  0
   10.1186    2.6473   23.0122 C   0  0  0  0  0  0  0  0  0  0  0  0
   12.4801    2.6307   22.3080 C   0  0  0  0  0  0  0  0  0  0  0  0
   12.9379   -2.6656   23.0836 C   0  0  0  0  0  0  0  0  0  0  0  0
   10.3256    3.9634   23.7473 C   0  0  0  0  0  0  0  0  0  0  0  0
   12.7224    3.9485   23.0314 C   0  0  0  0  0  0  0  0  0  0  0  0
   12.3900   -0.3223   22.6575 C   0  0  1  0  0  0  0  0  0  0  0  0
   11.6261    6.0942   23.6867 C   0  0  0  0  0  0  0  0  0  0  0  0
   11.3693    1.8940   22.9204 N   0  0  0  0  0  0  0  0  0  0  0  0
   11.8634   -1.7346   22.6033 N   0  3  0  0  0  0  0  0  0  0  0  0
   11.4330    4.7381   23.0685 N   0  3  0  0  0  0  0  0  0  0  0  0
   10.7140    0.1074   24.2525 O   0  0  0  0  0  0  0  0  0  0  0  0
   11.5760   -1.9772   21.6447 H   0  0  0  0  0  0  0  0  0  0  0  0
   11.0230   -1.8400   23.1895 H   0  0  0  0  0  0  0  0  0  0  0  0
   11.1436    4.8993   22.0939 H   0  0  0  0  0  0  0  0  0  0  0  0
  1  9  1  0  0  0  0
  1 11  1  0  0  0  0
  1 14  2  0  0  0  0
  2  3  1  0  0  0  0
  2  6  1  0  0  0  0
  3  9  1  0  0  0  0
  4  7  1  0  0  0  0
  4 11  1  0  0  0  0
  5  8  1  0  0  0  0
  5 11  1  0  0  0  0
  6 12  1  0  0  0  0
  7 13  1  0  0  0  0
  8 13  1  0  0  0  0
  9 12  1  0  0  0  0
 10 13  1  0  0  0  0
 12 15  1  0  0  0  0
 12 16  1  0  0  0  0
 13 17  1  0  0  0  0
M  CHG  2  12   1  13   1
M  END
> <ref_mols>
x0650_0

> <original SMILES>
CN1CCN(CC1)C(=O)C2CCCN2

> <Chemgauss4>
-7.697544

> <ref_pdb>
x0195_0

$$$$
x1278
  -OEChem-05172015543D

 17 18  0     1  0  0  0  0  0999 V2000
   11.4170    0.5685   23.3496 C   0  0  0  0  0  0  0  0  0  0  0  0
   14.1997   -1.8331   23.0162 C   0  0  0  0  0  0  0  0  0  0  0  0
   13.7154   -0.4455   23.3922 C   0  0  0  0  0  0  0  0  0  0  0  0
   10.1186    2.6473   23.0122 C   0  0  0  0  0  0  0  0  0  0  0  0
   12.4801    2.6307   22.3080 C   0  0  0  0  0  0  0  0  0  0  0  0
   12.9379   -2.6656   23.0836 C   0  0  0  0  0  0  0  0  0  0  0  0
   10.3256    3.9634   23.7473 C   0  0  0  0  0  0  0  0  0  0  0  0
   12.7224    3.9485   23.0314 C   0  0  0  0  0  0  0  0  0  0  0  0
   12.3900   -0.3223   22.6575 C   0  0  1  0  0  0  0  0  0  0  0  0
   11.6261    6.0942   23.6867 C   0  0  0  0  0  0  0  0  0  0  0  0
   11.3693    1.8940   22.9204 N   0  0  0  0  0  0  0  0  0  0  0  0
   11.8634   -1.7346   22.6033 N   0  3  0  0  0  0  0  0  0  0  0  0
   11.4330    4.7381   23.0685 N   0  3  0  0  0  0  0  0  0  0  0  0
   10.7140    0.1074   24.2525 O   0  0  0  0  0  0  0  0  0  0  0  0
   11.5760   -1.9772   21.6447 H   0  0  0  0  0  0  0  0  0  0  0  0
   11.0230   -1.8400   23.1895 H   0  0  0  0  0  0  0  0  0  0  0  0
   11.1436    4.8993   22.0939 H   0  0  0  0  0  0  0  0  0  0  0  0
  1  9  1  0  0  0  0
  1 11  1  0  0  0  0
  1 14  2  0  0  0  0
  2  3  1  0  0  0  0
  2  6  1  0  0  0  0
  3  9  1  0  0  0  0
  4  7  1  0  0  0  0
  4 11  1  0  0  0  0
  5  8  1  0  0  0  0
  5 11  1  0  0  0  0
  6 12  1  0  0  0  0
  7 13  1  0  0  0  0
  8 13  1  0  0  0  0
  9 12  1  0  0  0  0
 10 13  1  0  0  0  0
 12 15  1  0  0  0  0
 12 16  1  0  0  0  0
 13 17  1  0  0  0  0
M  CHG  2  12   1  13   1
M  END
> <ref_mols>
x1278_0

> <original SMILES>
CN1CCN(CC1)C(=O)C2CCCN2

> <Chemgauss4>
-7.697544

> <ref_pdb>
x0195_0

$$$$
x1157
  -OEChem-05172015543D

 17 18  0     1  0  0  0  0  0999 V2000
   11.4170    0.5685   23.3496 C   0  0  0  0  0  0  0  0  0  0  0  0
   14.1997   -1.8331   23.0162 C   0  0  0  0  0  0  0  0  0  0  0  0
   13.7154   -0.4455   23.3922 C   0  0  0  0  0  0  0  0  0  0  0  0
   10.1186    2.6473   23.0122 C   0  0  0  0  0  0  0  0  0  0  0  0
   12.4801    2.6307   22.3080 C   0  0  0  0  0  0  0  0  0  0  0  0
   12.9379   -2.6656   23.0836 C   0  0  0  0  0  0  0  0  0  0  0  0
   10.3256    3.9634   23.7473 C   0  0  0  0  0  0  0  0  0  0  0  0
   12.7224    3.9485   23.0314 C   0  0  0  0  0  0  0  0  0  0  0  0
   12.3900   -0.3223   22.6575 C   0  0  1  0  0  0  0  0  0  0  0  0
   11.6261    6.0942   23.6867 C   0  0  0  0  0  0  0  0  0  0  0  0
   11.3693    1.8940   22.9204 N   0  0  0  0  0  0  0  0  0  0  0  0
   11.8634   -1.7346   22.6033 N   0  3  0  0  0  0  0  0  0  0  0  0
   11.4330    4.7381   23.0685 N   0  3  0  0  0  0  0  0  0  0  0  0
   10.7140    0.1074   24.2525 O   0  0  0  0  0  0  0  0  0  0  0  0
   11.5760   -1.9772   21.6447 H   0  0  0  0  0  0  0  0  0  0  0  0
   11.0230   -1.8400   23.1895 H   0  0  0  0  0  0  0  0  0  0  0  0
   11.1436    4.8993   22.0939 H   0  0  0  0  0  0  0  0  0  0  0  0
  1  9  1  0  0  0  0
  1 11  1  0  0  0  0
  1 14  2  0  0  0  0
  2  3  1  0  0  0  0
  2  6  1  0  0  0  0
  3  9  1  0  0  0  0
  4  7  1  0  0  0  0
  4 11  1  0  0  0  0
  5  8  1  0  0  0  0
  5 11  1  0  0  0  0
  6 12  1  0  0  0  0
  7 13  1  0  0  0  0
  8 13  1  0  0  0  0
  9 12  1  0  0  0  0
 10 13  1  0  0  0  0
 12 15  1  0  0  0  0
 12 16  1  0  0  0  0
 13 17  1  0  0  0  0
M  CHG  2  12   1  13   1
M  END
> <ref_mols>
x1157_0

> <original SMILES>
CN1CCN(CC1)C(=O)C2CCCN2

> <Chemgauss4>
-7.697544

> <ref_pdb>
x0195_0

$$$$
x0063
  -OEChem-05172015543D

 18 19  0     0  0  0  0  0  0999 V2000
   13.4466   -1.0330   23.7139 C   0  0  0  0  0  0  0  0  0  0  0  0
   12.6110   -1.8771   22.9441 C   0  0  0  0  0  0  0  0  0  0  0  0
   12.6075   -0.2834   24.5051 C   0  0  0  0  0  0  0  0  0  0  0  0
   11.3209   -1.5832   23.3200 C   0  0  0  0  0  0  0  0  0  0  0  0
   10.0300   -2.1244   22.8768 C   0  0  0  0  0  0  0  0  0  0  0  0
    7.3197   -5.6043   26.2250 C   0  0  0  0  0  0  0  0  0  0  0  0
    9.5156   -2.8826   25.2564 C   0  0  0  0  0  0  0  0  0  0  0  0
    7.8942   -3.2354   23.4418 C   0  0  0  0  0  0  0  0  0  0  0  0
    9.3736   -4.3414   25.6752 C   0  0  0  0  0  0  0  0  0  0  0  0
    7.7212   -4.6939   23.8650 C   0  0  0  0  0  0  0  0  0  0  0  0
    9.2120   -2.7355   23.8282 N   0  0  0  0  0  0  0  0  0  0  0  0
    8.0655   -4.8828   25.2848 N   0  0  0  0  0  0  0  0  0  0  0  0
    8.0350   -6.2946   27.1798 N   0  0  0  0  0  0  0  0  0  0  0  0
    9.7710   -2.0035   21.6805 O   0  0  0  0  0  0  0  0  0  0  0  0
    6.0852   -5.6412   26.2342 O   0  0  0  0  0  0  0  0  0  0  0  0
   11.3101   -0.6128   24.2711 O   0  0  0  0  0  0  0  0  0  0  0  0
    9.0481   -6.2436   27.1505 H   0  0  0  0  0  0  0  0  0  0  0  0
    7.6042   -6.8502   27.9093 H   0  0  0  0  0  0  0  0  0  0  0  0
  1  2  1  0  0  0  0
  1  3  2  0  0  0  0
  2  4  2  0  0  0  0
  3 16  1  0  0  0  0
  4  5  1  0  0  0  0
  4 16  1  0  0  0  0
  5 11  1  0  0  0  0
  5 14  2  0  0  0  0
  6 12  1  0  0  0  0
  6 13  1  0  0  0  0
  6 15  2  0  0  0  0
  7  9  1  0  0  0  0
  7 11  1  0  0  0  0
  8 10  1  0  0  0  0
  8 11  1  0  0  0  0
  9 12  1  0  0  0  0
 10 12  1  0  0  0  0
 13 17  1  0  0  0  0
 13 18  1  0  0  0  0
M  END
> <ref_mols>
x0063_0

> <original SMILES>
NC(=O)N1CCN(CC1)C(=O)C2=CC=CO2

> <Chemgauss4>
-7.692810

> <ref_pdb>
x0072_0

$$$$
x0097
  -OEChem-05172015543D

 16 16  0     0  0  0  0  0  0999 V2000
   13.3978   -1.1411   22.4362 C   0  0  0  0  0  0  0  0  0  0  0  0
   11.6263   -0.6285   23.6337 C   0  0  0  0  0  0  0  0  0  0  0  0
   12.8612   -0.1460   23.2751 C   0  0  0  0  0  0  0  0  0  0  0  0
   11.8360    3.0232   23.5016 C   0  0  0  0  0  0  0  0  0  0  0  0
   10.5485    6.3384   22.5377 C   0  0  0  0  0  0  0  0  0  0  0  0
   11.2017    5.8770   24.9265 C   0  0  0  0  0  0  0  0  0  0  0  0
   10.3697   -2.7266   23.0879 C   0  0  0  0  0  0  0  0  0  0  0  0
   13.5346    2.6241   21.7033 C   0  0  0  0  0  0  0  0  0  0  0  0
   13.4953    1.1505   23.6888 C   0  0  0  0  0  0  0  0  0  0  0  0
   10.7780    5.2701   23.5969 C   0  0  0  0  0  0  0  0  0  0  0  0
   12.5715   -2.1775   22.2717 N   0  0  0  0  0  0  0  0  0  0  0  0
   11.5032   -1.8363   23.0122 N   0  0  0  0  0  0  0  0  0  0  0  0
   11.8125    4.3682   23.1433 N   0  0  0  0  0  0  0  0  0  0  0  0
   12.9190    2.2911   22.9812 N   0  0  0  0  0  0  0  0  0  0  0  0
   10.9723    2.5237   24.2291 O   0  0  0  0  0  0  0  0  0  0  0  0
   12.5459    4.7273   22.5437 H   0  0  0  0  0  0  0  0  0  0  0  0
  1  3  1  0  0  0  0
  1 11  2  0  0  0  0
  2  3  2  0  0  0  0
  2 12  1  0  0  0  0
  3  9  1  0  0  0  0
  4 13  1  0  0  0  0
  4 14  1  0  0  0  0
  4 15  2  0  0  0  0
  5 10  1  0  0  0  0
  6 10  1  0  0  0  0
  7 12  1  0  0  0  0
  8 14  1  0  0  0  0
  9 14  1  0  0  0  0
 10 13  1  0  0  0  0
 11 12  1  0  0  0  0
 13 16  1  0  0  0  0
M  END
> <ref_mols>
x0097_0

> <original SMILES>
CC(C)NC(=O)N(C)CC=1C=NN(C)C1

> <Chemgauss4>
-7.691730

> <ref_pdb>
x0195_0

$$$$
x1099
  -OEChem-05172015543D

 16 16  0     0  0  0  0  0  0999 V2000
   13.3978   -1.1411   22.4362 C   0  0  0  0  0  0  0  0  0  0  0  0
   11.6263   -0.6285   23.6337 C   0  0  0  0  0  0  0  0  0  0  0  0
   12.8612   -0.1460   23.2751 C   0  0  0  0  0  0  0  0  0  0  0  0
   11.8360    3.0232   23.5016 C   0  0  0  0  0  0  0  0  0  0  0  0
   10.5485    6.3384   22.5377 C   0  0  0  0  0  0  0  0  0  0  0  0
   11.2017    5.8770   24.9265 C   0  0  0  0  0  0  0  0  0  0  0  0
   10.3697   -2.7266   23.0879 C   0  0  0  0  0  0  0  0  0  0  0  0
   13.5346    2.6241   21.7033 C   0  0  0  0  0  0  0  0  0  0  0  0
   13.4953    1.1505   23.6888 C   0  0  0  0  0  0  0  0  0  0  0  0
   10.7780    5.2701   23.5969 C   0  0  0  0  0  0  0  0  0  0  0  0
   12.5715   -2.1775   22.2717 N   0  0  0  0  0  0  0  0  0  0  0  0
   11.5032   -1.8363   23.0122 N   0  0  0  0  0  0  0  0  0  0  0  0
   11.8125    4.3682   23.1433 N   0  0  0  0  0  0  0  0  0  0  0  0
   12.9190    2.2911   22.9812 N   0  0  0  0  0  0  0  0  0  0  0  0
   10.9723    2.5237   24.2291 O   0  0  0  0  0  0  0  0  0  0  0  0
   12.5459    4.7273   22.5437 H   0  0  0  0  0  0  0  0  0  0  0  0
  1  3  1  0  0  0  0
  1 11  2  0  0  0  0
  2  3  2  0  0  0  0
  2 12  1  0  0  0  0
  3  9  1  0  0  0  0
  4 13  1  0  0  0  0
  4 14  1  0  0  0  0
  4 15  2  0  0  0  0
  5 10  1  0  0  0  0
  6 10  1  0  0  0  0
  7 12  1  0  0  0  0
  8 14  1  0  0  0  0
  9 14  1  0  0  0  0
 10 13  1  0  0  0  0
 11 12  1  0  0  0  0
 13 16  1  0  0  0  0
M  END
> <ref_mols>
x1099_0

> <original SMILES>
CC(C)NC(=O)N(C)CC=1C=NN(C)C1

> <Chemgauss4>
-7.691730

> <ref_pdb>
x0195_0

$$$$
x0446
  -OEChem-05172015543D

 15 15  0     0  0  0  0  0  0999 V2000
   12.9603    1.8251   22.9395 C   0  0  0  0  0  0  0  0  0  0  0  0
   12.3576    4.8427   23.0363 C   0  0  0  0  0  0  0  0  0  0  0  0
   12.2464   -1.8536   22.5185 C   0  0  0  0  0  0  0  0  0  0  0  0
   11.5711   -0.9746   23.5646 C   0  0  0  0  0  0  0  0  0  0  0  0
   13.1618   -1.0386   21.6123 C   0  0  0  0  0  0  0  0  0  0  0  0
   12.5879   -0.1801   24.3837 C   0  0  0  0  0  0  0  0  0  0  0  0
   14.2039   -0.2617   22.4151 C   0  0  0  0  0  0  0  0  0  0  0  0
   13.5898    0.5942   23.5248 C   0  0  0  0  0  0  0  0  0  0  0  0
   10.4801    4.5263   24.4400 C   0  0  0  0  0  0  0  0  0  0  0  0
   13.4390    4.1602   22.2320 C   0  0  0  0  0  0  0  0  0  0  0  0
   13.8353    2.8825   22.7793 N   0  0  0  0  0  0  0  0  0  0  0  0
   11.7689    1.8164   22.6528 O   0  0  0  0  0  0  0  0  0  0  0  0
   12.2650    6.0641   23.1015 O   0  0  0  0  0  0  0  0  0  0  0  0
   11.5324    3.9546   23.6557 O   0  0  0  0  0  0  0  0  0  0  0  0
   14.8032    2.7559   23.0594 H   0  0  0  0  0  0  0  0  0  0  0  0
  1  8  1  0  0  0  0
  1 11  1  0  0  0  0
  1 12  2  0  0  0  0
  2 10  1  0  0  0  0
  2 13  2  0  0  0  0
  2 14  1  0  0  0  0
  3  4  1  0  0  0  0
  3  5  1  0  0  0  0
  4  6  1  0  0  0  0
  5  7  1  0  0  0  0
  6  8  1  0  0  0  0
  7  8  1  0  0  0  0
  9 14  1  0  0  0  0
 10 11  1  0  0  0  0
 11 15  1  0  0  0  0
M  END
> <ref_mols>
x0446_0

> <original SMILES>
COC(=O)CNC(=O)C1CCCCC1

> <Chemgauss4>
-7.687178

> <ref_pdb>
x0195_0

$$$$
x2890
  -OEChem-05172015543D

 15 16  0     1  0  0  0  0  0999 V2000
    7.2739   -5.1288   22.0676 C   0  0  0  0  0  0  0  0  0  0  0  0
    8.6014   -3.4222   22.4110 C   0  0  0  0  0  0  0  0  0  0  0  0
    9.2067   -4.3412   23.2447 C   0  0  0  0  0  0  0  0  0  0  0  0
   14.4014   -2.3455   26.0839 C   0  0  0  0  0  0  0  0  0  0  0  0
   13.7269   -1.2041   25.9151 C   0  0  0  0  0  0  0  0  0  0  0  0
   12.3016   -1.2276   25.4909 C   0  0  0  0  0  0  0  0  0  0  0  0
    9.0863   -2.0227   22.2618 C   0  0  0  0  0  0  0  0  0  0  0  0
   10.4333   -4.0941   24.0577 C   0  0  0  0  0  0  0  0  0  0  0  0
   10.5188   -1.8654   22.8062 C   0  0  0  0  0  0  0  0  0  0  0  0
   10.6976   -2.5757   24.1661 C   0  0  2  0  0  0  0  0  0  0  0  0
    7.4858   -3.8725   21.7367 N   0  0  0  0  0  0  0  0  0  0  0  0
   12.0145   -2.3310   24.7044 N   0  0  0  0  0  0  0  0  0  0  0  0
   11.5020   -0.3552   25.8145 O   0  0  0  0  0  0  0  0  0  0  0  0
    8.3772   -5.8259   23.1879 S   0  0  0  0  0  0  0  0  0  0  0  0
   12.7517   -2.9873   24.4614 H   0  0  0  0  0  0  0  0  0  0  0  0
  1 11  2  0  0  0  0
  1 14  1  0  0  0  0
  2  3  2  0  0  0  0
  2  7  1  0  0  0  0
  2 11  1  0  0  0  0
  3  8  1  0  0  0  0
  3 14  1  0  0  0  0
  4  5  2  0  0  0  0
  5  6  1  0  0  0  0
  6 12  1  0  0  0  0
  6 13  2  0  0  0  0
  7  9  1  0  0  0  0
  8 10  1  0  0  0  0
  9 10  1  0  0  0  0
 10 12  1  0  0  0  0
 12 15  1  0  0  0  0
M  END
> <ref_mols>
x2890_0

> <original SMILES>
C=CC(N[C@@H](CC1)Cc2c1ncs2)=O

> <Chemgauss4>
-7.685156

> <ref_pdb>
x0749_0

$$$$
x0218
  -OEChem-05172015543D

 14 14  0     0  0  0  0  0  0999 V2000
   14.5966   -0.2877   22.2043 C   0  0  0  0  0  0  0  0  0  0  0  0
   13.6707   -1.3309   22.1921 C   0  0  0  0  0  0  0  0  0  0  0  0
   14.1842    1.0071   22.5189 C   0  0  0  0  0  0  0  0  0  0  0  0
   12.3325   -1.0792   22.4944 C   0  0  0  0  0  0  0  0  0  0  0  0
   11.9201    0.2156   22.8090 C   0  0  0  0  0  0  0  0  0  0  0  0
   12.8460    1.2588   22.8212 C   0  0  0  0  0  0  0  0  0  0  0  0
   11.3460   -2.1979   22.4798 C   0  0  0  0  0  0  0  0  0  0  0  0
   13.7760    4.2058   21.2749 C   0  0  0  0  0  0  0  0  0  0  0  0
   12.4725    3.6842   21.7104 N   0  0  0  0  0  0  0  0  0  0  0  0
   10.9305    2.8515   23.5986 O   0  0  0  0  0  0  0  0  0  0  0  0
   13.3150    3.4460   24.1325 O   0  0  0  0  0  0  0  0  0  0  0  0
   10.6325    0.4552   23.0983 F   0  0  0  0  0  0  0  0  0  0  0  0
   12.3356    2.8820   23.2133 S   0  0  0  0  0  0  0  0  0  0  0  0
   11.6462    4.1583   21.3260 H   0  0  0  0  0  0  0  0  0  0  0  0
  1  2  1  0  0  0  0
  1  3  2  0  0  0  0
  2  4  2  0  0  0  0
  3  6  1  0  0  0  0
  4  5  1  0  0  0  0
  4  7  1  0  0  0  0
  5  6  2  0  0  0  0
  5 12  1  0  0  0  0
  6 13  1  0  0  0  0
  8  9  1  0  0  0  0
  9 13  1  0  0  0  0
 10 13  2  0  0  0  0
 11 13  2  0  0  0  0
  9 14  1  0  0  0  0
M  END
> <ref_mols>
x0218_0

> <original SMILES>
CNS(=O)(=O)C=1C=CC=C(C)C1F

> <Chemgauss4>
-7.684748

> <ref_pdb>
x0195_0

$$$$
x1241
  -OEChem-05172015543D

 14 14  0     0  0  0  0  0  0999 V2000
   14.5966   -0.2877   22.2043 C   0  0  0  0  0  0  0  0  0  0  0  0
   13.6707   -1.3309   22.1921 C   0  0  0  0  0  0  0  0  0  0  0  0
   14.1842    1.0071   22.5189 C   0  0  0  0  0  0  0  0  0  0  0  0
   12.3325   -1.0792   22.4944 C   0  0  0  0  0  0  0  0  0  0  0  0
   11.9201    0.2156   22.8090 C   0  0  0  0  0  0  0  0  0  0  0  0
   12.8460    1.2588   22.8212 C   0  0  0  0  0  0  0  0  0  0  0  0
   11.3460   -2.1979   22.4798 C   0  0  0  0  0  0  0  0  0  0  0  0
   13.7760    4.2058   21.2749 C   0  0  0  0  0  0  0  0  0  0  0  0
   12.4725    3.6842   21.7104 N   0  0  0  0  0  0  0  0  0  0  0  0
   10.9305    2.8515   23.5986 O   0  0  0  0  0  0  0  0  0  0  0  0
   13.3150    3.4460   24.1325 O   0  0  0  0  0  0  0  0  0  0  0  0
   10.6325    0.4552   23.0983 F   0  0  0  0  0  0  0  0  0  0  0  0
   12.3356    2.8820   23.2133 S   0  0  0  0  0  0  0  0  0  0  0  0
   11.6462    4.1583   21.3260 H   0  0  0  0  0  0  0  0  0  0  0  0
  1  2  1  0  0  0  0
  1  3  2  0  0  0  0
  2  4  2  0  0  0  0
  3  6  1  0  0  0  0
  4  5  1  0  0  0  0
  4  7  1  0  0  0  0
  5  6  2  0  0  0  0
  5 12  1  0  0  0  0
  6 13  1  0  0  0  0
  8  9  1  0  0  0  0
  9 13  1  0  0  0  0
 10 13  2  0  0  0  0
 11 13  2  0  0  0  0
  9 14  1  0  0  0  0
M  END
> <ref_mols>
x1241_0

> <original SMILES>
CNS(=O)(=O)C=1C=CC=C(C)C1F

> <Chemgauss4>
-7.684748

> <ref_pdb>
x0195_0

$$$$
x0541
  -OEChem-05172015543D

 15 15  0     0  0  0  0  0  0999 V2000
   14.0637   -1.1317   22.1735 C   0  0  0  0  0  0  0  0  0  0  0  0
   14.1050    0.2595   22.2649 C   0  0  0  0  0  0  0  0  0  0  0  0
   12.9626   -1.8308   22.6679 C   0  0  0  0  0  0  0  0  0  0  0  0
   11.9440    0.2526   23.3452 C   0  0  0  0  0  0  0  0  0  0  0  0
   13.0451    0.9517   22.8507 C   0  0  0  0  0  0  0  0  0  0  0  0
   11.9027   -1.1386   23.2538 C   0  0  0  0  0  0  0  0  0  0  0  0
   12.1297    3.2042   23.4913 C   0  0  0  0  0  0  0  0  0  0  0  0
   12.5573    4.6422   23.3946 C   0  0  0  0  0  0  0  0  0  0  0  0
   13.0881    2.3432   22.9425 N   0  0  0  0  0  0  0  0  0  0  0  0
   11.0557    2.8992   23.9986 O   0  0  0  0  0  0  0  0  0  0  0  0
   13.7701    4.7740   22.7993 F   0  0  0  0  0  0  0  0  0  0  0  0
   11.6798    5.3836   22.6714 F   0  0  0  0  0  0  0  0  0  0  0  0
   12.6538    5.2291   24.6147 F   0  0  0  0  0  0  0  0  0  0  0  0
   10.5440   -2.0011   23.8638 Cl  0  0  0  0  0  0  0  0  0  0  0  0
   13.9278    2.7924   22.5594 H   0  0  0  0  0  0  0  0  0  0  0  0
  1  2  2  0  0  0  0
  1  3  1  0  0  0  0
  2  5  1  0  0  0  0
  3  6  2  0  0  0  0
  4  5  2  0  0  0  0
  4  6  1  0  0  0  0
  5  9  1  0  0  0  0
  6 14  1  0  0  0  0
  7  8  1  0  0  0  0
  7  9  1  0  0  0  0
  7 10  2  0  0  0  0
  8 11  1  0  0  0  0
  8 12  1  0  0  0  0
  8 13  1  0  0  0  0
  9 15  1  0  0  0  0
M  END
> <ref_mols>
x0541_0

> <original SMILES>
FC(F)(F)C(=O)NC=1C=CC=C(Cl)C1

> <Chemgauss4>
-7.684249

> <ref_pdb>
x0195_0

$$$$
x0897
  -OEChem-05172015543D

 18 20  0     1  0  0  0  0  0999 V2000
   14.0328   -0.3103   23.1072 C   0  0  0  0  0  0  0  0  0  0  0  0
   13.5373   -0.7847   24.3216 C   0  0  0  0  0  0  0  0  0  0  0  0
   13.4903    0.8386   22.5300 C   0  0  0  0  0  0  0  0  0  0  0  0
   12.5012   -0.1095   24.9663 C   0  0  0  0  0  0  0  0  0  0  0  0
   12.4602    1.5301   23.1760 C   0  0  0  0  0  0  0  0  0  0  0  0
   11.9722    1.0515   24.3982 C   0  0  0  0  0  0  0  0  0  0  0  0
   10.4281    2.9528   24.6515 C   0  0  0  0  0  0  0  0  0  0  0  0
   11.7959    2.7165   22.5324 C   0  0  0  0  0  0  0  0  0  0  0  0
   11.7428    5.8610   24.5176 C   0  0  0  0  0  0  0  0  0  0  0  0
   12.3753    4.4997   24.2754 C   0  0  0  0  0  0  0  0  0  0  0  0
   10.9437    6.0983   23.2571 C   0  0  0  0  0  0  0  0  0  0  0  0
   11.2627    3.6829   23.5942 C   0  0  2  0  0  0  0  0  0  0  0  0
   10.9208    1.7219   25.0481 N   0  0  0  0  0  0  0  0  0  0  0  0
   10.4178    4.7409   22.9000 N   0  3  0  0  0  0  0  0  0  0  0  0
    9.4337    3.4616   25.1700 O   0  0  0  0  0  0  0  0  0  0  0  0
   10.4892    1.2640   25.8460 H   0  0  0  0  0  0  0  0  0  0  0  0
    9.4347    4.6585   23.1942 H   0  0  0  0  0  0  0  0  0  0  0  0
   10.4171    4.6221   21.8774 H   0  0  0  0  0  0  0  0  0  0  0  0
  1  2  2  0  0  0  0
  1  3  1  0  0  0  0
  2  4  1  0  0  0  0
  3  5  2  0  0  0  0
  4  6  2  0  0  0  0
  5  6  1  0  0  0  0
  5  8  1  0  0  0  0
  6 13  1  0  0  0  0
  7 12  1  0  0  0  0
  7 13  1  0  0  0  0
  7 15  2  0  0  0  0
  8 12  1  0  0  0  0
  9 10  1  0  0  0  0
  9 11  1  0  0  0  0
 10 12  1  0  0  0  0
 11 14  1  0  0  0  0
 12 14  1  0  0  0  0
 13 16  1  0  0  0  0
 14 17  1  0  0  0  0
 14 18  1  0  0  0  0
M  CHG  1  14   1
M  END
> <ref_mols>
x0897_0

> <original SMILES>
O=C1NC2=C(C=CC=C2)CC31NCCC3

> <Chemgauss4>
-7.683729

> <ref_pdb>
x0161_0

$$$$
x0150
  -OEChem-05172015543D

 13 13  0     0  0  0  0  0  0999 V2000
   14.4904   -0.2959   22.2815 C   0  0  0  0  0  0  0  0  0  0  0  0
   14.4343   -1.4800   21.5465 C   0  0  0  0  0  0  0  0  0  0  0  0
   13.3871    0.1129   23.0308 C   0  0  0  0  0  0  0  0  0  0  0  0
   13.2749   -2.2554   21.5607 C   0  0  0  0  0  0  0  0  0  0  0  0
   12.2277   -0.6625   23.0449 C   0  0  0  0  0  0  0  0  0  0  0  0
   12.1716   -1.8467   22.3099 C   0  0  0  0  0  0  0  0  0  0  0  0
    9.6993   -1.9661   21.8218 C   0  0  0  0  0  0  0  0  0  0  0  0
   11.0591   -0.2058   23.8553 C   0  0  0  0  0  0  0  0  0  0  0  0
   10.9410   -2.6931   22.3091 C   0  0  0  0  0  0  0  0  0  0  0  0
    9.8040   -1.5571   20.5091 N   0  0  0  0  0  0  0  0  0  0  0  0
    8.7105   -1.7614   22.5203 O   0  0  0  0  0  0  0  0  0  0  0  0
   10.6522   -1.7572   19.9889 H   0  0  0  0  0  0  0  0  0  0  0  0
    9.0452   -1.0588   20.0559 H   0  0  0  0  0  0  0  0  0  0  0  0
  1  2  1  0  0  0  0
  1  3  2  0  0  0  0
  2  4  2  0  0  0  0
  3  5  1  0  0  0  0
  4  6  1  0  0  0  0
  5  6  2  0  0  0  0
  5  8  1  0  0  0  0
  6  9  1  0  0  0  0
  7  9  1  0  0  0  0
  7 10  1  0  0  0  0
  7 11  2  0  0  0  0
 10 12  1  0  0  0  0
 10 13  1  0  0  0  0
M  END
> <ref_mols>
x0150_0

> <original SMILES>
CC=1C=CC=CC1CC(=O)N

> <Chemgauss4>
-7.681866

> <ref_pdb>
x1382_0

$$$$
x2582
  -OEChem-05172015543D

 24 25  0     0  0  0  0  0  0999 V2000
   10.1202   -2.9794   23.5236 C   0  0  0  0  0  0  0  0  0  0  0  0
    9.2571   -1.2175   24.9334 C   0  0  0  0  0  0  0  0  0  0  0  0
    9.6091   -3.9337   24.4032 C   0  0  0  0  0  0  0  0  0  0  0  0
    8.7459   -2.1717   25.8130 C   0  0  0  0  0  0  0  0  0  0  0  0
    9.9443   -1.6213   23.7887 C   0  0  0  0  0  0  0  0  0  0  0  0
    8.9219   -3.5298   25.5479 C   0  0  0  0  0  0  0  0  0  0  0  0
   12.5032    0.5604   23.4189 C   0  0  0  0  0  0  0  0  0  0  0  0
   10.2557    1.7324   23.3432 C   0  0  0  0  0  0  0  0  0  0  0  0
   11.8935   -0.6044   22.6306 C   0  0  0  0  0  0  0  0  0  0  0  0
    9.7074    0.5415   22.5548 C   0  0  0  0  0  0  0  0  0  0  0  0
   11.7642    1.8671   23.1189 C   0  0  0  0  0  0  0  0  0  0  0  0
   13.1128    4.6058   22.4271 C   0  0  0  0  0  0  0  0  0  0  0  0
   12.1567    5.2815   24.6640 C   0  0  0  0  0  0  0  0  0  0  0  0
   12.0704    4.3140   23.4945 C   0  0  0  0  0  0  0  0  0  0  0  0
   10.4539   -0.6692   22.9118 N   0  0  0  0  0  0  0  0  0  0  0  0
    7.5637   -3.7223   27.8333 N   0  0  0  0  0  0  0  0  0  0  0  0
   12.2921    2.9365   24.0053 N   0  3  0  0  0  0  0  0  0  0  0  0
    7.2344   -5.4669   25.9643 O   0  0  0  0  0  0  0  0  0  0  0  0
    9.3972   -5.4377   27.2563 O   0  0  0  0  0  0  0  0  0  0  0  0
    8.2823   -4.7235   26.6498 S   0  0  0  0  0  0  0  0  0  0  0  0
    6.5379   -3.6823   27.8724 H   0  0  0  0  0  0  0  0  0  0  0  0
    8.0169   -3.6618   28.7532 H   0  0  0  0  0  0  0  0  0  0  0  0
   11.8591    2.8453   24.9335 H   0  0  0  0  0  0  0  0  0  0  0  0
   13.2992    2.7855   24.1478 H   0  0  0  0  0  0  0  0  0  0  0  0
  1  3  2  0  0  0  0
  1  5  1  0  0  0  0
  2  4  1  0  0  0  0
  2  5  2  0  0  0  0
  3  6  1  0  0  0  0
  4  6  2  0  0  0  0
  5 15  1  0  0  0  0
  6 20  1  0  0  0  0
  7  9  1  0  0  0  0
  7 11  1  0  0  0  0
  8 10  1  0  0  0  0
  8 11  1  0  0  0  0
  9 15  1  0  0  0  0
 10 15  1  0  0  0  0
 11 17  1  0  0  0  0
 12 14  1  0  0  0  0
 13 14  1  0  0  0  0
 14 17  1  0  0  0  0
 16 20  1  0  0  0  0
 18 20  2  0  0  0  0
 19 20  2  0  0  0  0
 16 21  1  0  0  0  0
 16 22  1  0  0  0  0
 17 23  1  0  0  0  0
 17 24  1  0  0  0  0
M  CHG  1  17   1
M  END
> <ref_mols>
x2582_0

> <original SMILES>
CC(C)NC1CCN(CC1)C=2C=CC(=CC2)S(=O)(=O)N

> <Chemgauss4>
-7.678153

> <ref_pdb>
x0395_0

$$$$
x0846
  -OEChem-05172015543D

 15 17  0     1  0  0  0  0  0999 V2000
    4.6867    1.8208   18.8565 C   0  0  0  0  0  0  0  0  0  0  0  0
    5.0935    1.3588   20.1024 C   0  0  0  0  0  0  0  0  0  0  0  0
    5.4348    1.4563   17.7476 C   0  0  0  0  0  0  0  0  0  0  0  0
    6.2225    0.5489   20.1970 C   0  0  0  0  0  0  0  0  0  0  0  0
    6.9226    0.2387   19.0161 C   0  0  0  0  0  0  0  0  0  0  0  0
    6.7656   -2.4644   21.5814 C   0  0  0  0  0  0  0  0  0  0  0  0
    8.1470   -0.6615   19.0772 C   0  0  0  0  0  0  0  0  0  0  0  0
    7.9456    0.8873   21.9577 C   0  0  0  0  0  0  0  0  0  0  0  0
    9.1499    0.2449   21.2367 C   0  0  0  0  0  0  0  0  0  0  0  0
    6.7433    0.0408   21.5268 C   0  0  2  0  0  0  0  0  0  0  0  0
    8.5773   -0.9946   20.5257 C   0  0  1  0  0  0  0  0  0  0  0  0
    7.5858   -3.6876   21.2639 C   0  0  0  0  0  0  0  0  0  0  0  0
    6.5397    0.6776   17.7945 N   0  0  0  0  0  0  0  0  0  0  0  0
    7.3609   -1.2552   21.2883 N   0  0  0  0  0  0  0  0  0  0  0  0
    5.6440   -2.5790   22.0782 O   0  0  0  0  0  0  0  0  0  0  0  0
  1  2  1  0  0  0  0
  1  3  2  0  0  0  0
  2  4  2  0  0  0  0
  3 13  1  0  0  0  0
  4  5  1  0  0  0  0
  4 10  1  0  0  0  0
  5  7  1  0  0  0  0
  5 13  2  0  0  0  0
  6 12  1  0  0  0  0
  6 14  1  0  0  0  0
  6 15  2  0  0  0  0
  7 11  1  0  0  0  0
  8  9  1  0  0  0  0
  8 10  1  0  0  0  0
  9 11  1  0  0  0  0
 10 14  1  0  0  0  0
 11 14  1  0  0  0  0
M  END
> <ref_mols>
x0846_0

> <original SMILES>
O=C(N1[C@H]2CC3=C(C=CC=N3)[C@@H]1CC2)C

> <Chemgauss4>
-7.677588

> <ref_pdb>
x0397_0

$$$$
x2828
  -OEChem-05172015543D

 28 31  0     1  0  0  0  0  0999 V2000
   14.4669   -1.1173   24.6586 C   0  0  0  0  0  0  0  0  0  0  0  0
    5.2206    0.2361   18.9156 C   0  0  0  0  0  0  0  0  0  0  0  0
   13.4681   -0.1580   24.8247 C   0  0  0  0  0  0  0  0  0  0  0  0
   14.3488   -2.0810   23.6570 C   0  0  0  0  0  0  0  0  0  0  0  0
    6.0765    0.1700   20.0094 C   0  0  0  0  0  0  0  0  0  0  0  0
    5.7846    0.3847   17.6588 C   0  0  0  0  0  0  0  0  0  0  0  0
    7.9151    0.4010   18.5185 C   0  0  0  0  0  0  0  0  0  0  0  0
   12.3511   -0.1623   23.9892 C   0  0  0  0  0  0  0  0  0  0  0  0
    7.4509    0.2533   19.8156 C   0  0  0  0  0  0  0  0  0  0  0  0
   13.2318   -2.0853   22.8215 C   0  0  0  0  0  0  0  0  0  0  0  0
   12.2330   -1.1260   22.9876 C   0  0  0  0  0  0  0  0  0  0  0  0
   11.3346    0.8469   24.1888 C   0  0  0  0  0  0  0  0  0  0  0  0
    9.7849   -1.2678   22.5179 C   0  0  0  0  0  0  0  0  0  0  0  0
   13.6106    3.2477   23.1032 C   0  0  0  0  0  0  0  0  0  0  0  0
   12.5474    4.0871   22.4600 C   0  0  2  0  0  0  0  0  0  0  0  0
   12.3409    2.5937   22.6029 C   0  0  2  0  0  0  0  0  0  0  0  0
   13.1345   -3.1322   21.7592 C   0  0  0  0  0  0  0  0  0  0  0  0
   12.7763    4.6846   21.1147 C   0  0  0  0  0  0  0  0  0  0  0  0
    8.4059    0.1842   20.9818 C   0  0  0  0  0  0  0  0  0  0  0  0
    8.8547   -1.2398   21.3150 C   0  0  0  0  0  0  0  0  0  0  0  0
    7.1145    0.4692   17.4312 N   0  0  0  0  0  0  0  0  0  0  0  0
   10.2823    0.7580   24.9693 N   0  0  0  0  0  0  0  0  0  0  0  0
    9.6151    1.9541   24.8307 N   0  0  0  0  0  0  0  0  0  0  0  0
   10.2470    2.7574   23.9836 N   0  0  0  0  0  0  0  0  0  0  0  0
   11.3213    2.0631   23.5837 N   0  0  0  0  0  0  0  0  0  0  0  0
   11.1153   -1.1403   22.1432 N   0  0  0  0  0  0  0  0  0  0  0  0
    9.3268   -1.3642   23.6529 O   0  0  0  0  0  0  0  0  0  0  0  0
   11.3238   -1.0279   21.1543 H   0  0  0  0  0  0  0  0  0  0  0  0
  1  3  2  0  0  0  0
  1  4  1  0  0  0  0
  2  5  2  0  0  0  0
  2  6  1  0  0  0  0
  3  8  1  0  0  0  0
  4 10  2  0  0  0  0
  5  9  1  0  0  0  0
  6 21  2  0  0  0  0
  7  9  2  0  0  0  0
  7 21  1  0  0  0  0
  8 11  2  0  0  0  0
  8 12  1  0  0  0  0
  9 19  1  0  0  0  0
 10 11  1  0  0  0  0
 10 17  1  0  0  0  0
 11 26  1  0  0  0  0
 12 22  2  0  0  0  0
 12 25  1  0  0  0  0
 13 20  1  0  0  0  0
 13 26  1  0  0  0  0
 13 27  2  0  0  0  0
 14 15  1  0  0  0  0
 14 16  1  0  0  0  0
 15 16  1  0  0  0  0
 15 18  1  0  0  0  0
 16 25  1  0  0  0  0
 19 20  1  0  0  0  0
 22 23  1  0  0  0  0
 23 24  2  0  0  0  0
 24 25  1  0  0  0  0
 26 28  1  0  0  0  0
M  END
> <ref_mols>
x2828_0

> <original SMILES>
C[C@@H]1C[C@H]1N2N=NN=C2C=3C=CC=C(C)C3NC(=O)CCC=4C=CC=NC4

> <Chemgauss4>
-7.669563

> <ref_pdb>
x0678_0

$$$$
x2657
  -OEChem-05172015543D

 28 30  0     0  0  0  0  0  0999 V2000
   12.6085    1.5588   23.2903 C   0  0  0  0  0  0  0  0  0  0  0  0
    9.9228   -5.4673   24.5131 C   0  0  0  0  0  0  0  0  0  0  0  0
   11.8726    0.4816   23.7839 C   0  0  0  0  0  0  0  0  0  0  0  0
    8.7135   -5.5657   25.2012 C   0  0  0  0  0  0  0  0  0  0  0  0
   11.9677    2.7591   22.9834 C   0  0  0  0  0  0  0  0  0  0  0  0
   10.4390   -4.2135   24.1857 C   0  0  0  0  0  0  0  0  0  0  0  0
    9.8548    1.8050   23.6636 C   0  0  0  0  0  0  0  0  0  0  0  0
    8.5364   -3.1564   25.2344 C   0  0  0  0  0  0  0  0  0  0  0  0
   10.4957    0.6047   23.9705 C   0  0  0  0  0  0  0  0  0  0  0  0
    8.0203   -4.4103   25.5618 C   0  0  0  0  0  0  0  0  0  0  0  0
   10.5908    2.8822   23.1700 C   0  0  0  0  0  0  0  0  0  0  0  0
    9.7458   -3.0580   24.5463 C   0  0  0  0  0  0  0  0  0  0  0  0
    5.9720   -3.4442   26.6963 C   0  0  0  0  0  0  0  0  0  0  0  0
    9.7184   -0.5328   24.4915 C   0  0  0  0  0  0  0  0  0  0  0  0
    4.8271   -4.0411   27.4829 C   0  0  0  0  0  0  0  0  0  0  0  0
    4.7952   -5.4826   27.0159 C   0  0  0  0  0  0  0  0  0  0  0  0
    6.2469   -5.7842   26.7077 C   0  0  0  0  0  0  0  0  0  0  0  0
    9.1478    5.0839   25.2316 C   0  0  0  0  0  0  0  0  0  0  0  0
    6.7840   -4.5117   26.2659 N   0  0  0  0  0  0  0  0  0  0  0  0
   10.2626   -1.8042   24.2186 N   0  0  0  0  0  0  0  0  0  0  0  0
    9.9361    4.1115   22.8555 N   0  0  0  0  0  0  0  0  0  0  0  0
    6.1192   -2.2381   26.5620 O   0  0  0  0  0  0  0  0  0  0  0  0
    8.6582   -0.3546   25.0873 O   0  0  0  0  0  0  0  0  0  0  0  0
   11.5850    5.3867   24.3738 O   0  0  0  0  0  0  0  0  0  0  0  0
    9.7438    6.6914   23.2546 O   0  0  0  0  0  0  0  0  0  0  0  0
   10.2264    5.4716   23.8712 S   0  0  0  0  0  0  0  0  0  0  0  0
   11.1557   -1.8080   23.7127 H   0  0  0  0  0  0  0  0  0  0  0  0
    8.9543    4.0034   22.5515 H   0  0  0  0  0  0  0  0  0  0  0  0
  1  3  1  0  0  0  0
  1  5  2  0  0  0  0
  2  4  1  0  0  0  0
  2  6  2  0  0  0  0
  3  9  2  0  0  0  0
  4 10  2  0  0  0  0
  5 11  1  0  0  0  0
  6 12  1  0  0  0  0
  7  9  1  0  0  0  0
  7 11  2  0  0  0  0
  8 10  1  0  0  0  0
  8 12  2  0  0  0  0
  9 14  1  0  0  0  0
 10 19  1  0  0  0  0
 11 21  1  0  0  0  0
 12 20  1  0  0  0  0
 13 15  1  0  0  0  0
 13 19  1  0  0  0  0
 13 22  2  0  0  0  0
 14 20  1  0  0  0  0
 14 23  2  0  0  0  0
 15 16  1  0  0  0  0
 16 17  1  0  0  0  0
 17 19  1  0  0  0  0
 18 26  1  0  0  0  0
 21 26  1  0  0  0  0
 24 26  2  0  0  0  0
 25 26  2  0  0  0  0
 20 27  1  0  0  0  0
 21 28  1  0  0  0  0
M  END
> <ref_mols>
x2657_0

> <original SMILES>
CS(=O)(=O)NC=1C=CC=C(C1)C(=O)NC=2C=CC=C(C2)N3CCCC3=O

> <Chemgauss4>
-7.669181

> <ref_pdb>
x1077_0

$$$$
x2489
  -OEChem-05172015543D

 28 30  0     0  0  0  0  0  0999 V2000
   12.6085    1.5588   23.2903 C   0  0  0  0  0  0  0  0  0  0  0  0
    9.9228   -5.4673   24.5131 C   0  0  0  0  0  0  0  0  0  0  0  0
   11.8726    0.4816   23.7839 C   0  0  0  0  0  0  0  0  0  0  0  0
    8.7135   -5.5657   25.2012 C   0  0  0  0  0  0  0  0  0  0  0  0
   11.9677    2.7591   22.9834 C   0  0  0  0  0  0  0  0  0  0  0  0
   10.4390   -4.2135   24.1857 C   0  0  0  0  0  0  0  0  0  0  0  0
    9.8548    1.8050   23.6636 C   0  0  0  0  0  0  0  0  0  0  0  0
    8.5364   -3.1564   25.2344 C   0  0  0  0  0  0  0  0  0  0  0  0
   10.4957    0.6047   23.9705 C   0  0  0  0  0  0  0  0  0  0  0  0
    8.0203   -4.4103   25.5618 C   0  0  0  0  0  0  0  0  0  0  0  0
   10.5908    2.8822   23.1700 C   0  0  0  0  0  0  0  0  0  0  0  0
    9.7458   -3.0580   24.5463 C   0  0  0  0  0  0  0  0  0  0  0  0
    5.9720   -3.4442   26.6963 C   0  0  0  0  0  0  0  0  0  0  0  0
    9.7184   -0.5328   24.4915 C   0  0  0  0  0  0  0  0  0  0  0  0
    4.8271   -4.0411   27.4829 C   0  0  0  0  0  0  0  0  0  0  0  0
    4.7952   -5.4826   27.0159 C   0  0  0  0  0  0  0  0  0  0  0  0
    6.2469   -5.7842   26.7077 C   0  0  0  0  0  0  0  0  0  0  0  0
    9.1478    5.0839   25.2316 C   0  0  0  0  0  0  0  0  0  0  0  0
    6.7840   -4.5117   26.2659 N   0  0  0  0  0  0  0  0  0  0  0  0
   10.2626   -1.8042   24.2186 N   0  0  0  0  0  0  0  0  0  0  0  0
    9.9361    4.1115   22.8555 N   0  0  0  0  0  0  0  0  0  0  0  0
    6.1192   -2.2381   26.5620 O   0  0  0  0  0  0  0  0  0  0  0  0
    8.6582   -0.3546   25.0873 O   0  0  0  0  0  0  0  0  0  0  0  0
   11.5850    5.3867   24.3738 O   0  0  0  0  0  0  0  0  0  0  0  0
    9.7438    6.6914   23.2546 O   0  0  0  0  0  0  0  0  0  0  0  0
   10.2264    5.4716   23.8712 S   0  0  0  0  0  0  0  0  0  0  0  0
   11.1557   -1.8080   23.7127 H   0  0  0  0  0  0  0  0  0  0  0  0
    8.9543    4.0034   22.5515 H   0  0  0  0  0  0  0  0  0  0  0  0
  1  3  1  0  0  0  0
  1  5  2  0  0  0  0
  2  4  1  0  0  0  0
  2  6  2  0  0  0  0
  3  9  2  0  0  0  0
  4 10  2  0  0  0  0
  5 11  1  0  0  0  0
  6 12  1  0  0  0  0
  7  9  1  0  0  0  0
  7 11  2  0  0  0  0
  8 10  1  0  0  0  0
  8 12  2  0  0  0  0
  9 14  1  0  0  0  0
 10 19  1  0  0  0  0
 11 21  1  0  0  0  0
 12 20  1  0  0  0  0
 13 15  1  0  0  0  0
 13 19  1  0  0  0  0
 13 22  2  0  0  0  0
 14 20  1  0  0  0  0
 14 23  2  0  0  0  0
 15 16  1  0  0  0  0
 16 17  1  0  0  0  0
 17 19  1  0  0  0  0
 18 26  1  0  0  0  0
 21 26  1  0  0  0  0
 24 26  2  0  0  0  0
 25 26  2  0  0  0  0
 20 27  1  0  0  0  0
 21 28  1  0  0  0  0
M  END
> <ref_mols>
x2489_0

> <original SMILES>
CS(=O)(=O)NC=1C=CC=C(C1)C(=O)NC=2C=CC=C(C2)N3CCCC3=O

> <Chemgauss4>
-7.669181

> <ref_pdb>
x1077_0

$$$$
x0093
  -OEChem-05172015543D

 17 18  0     0  0  0  0  0  0999 V2000
   12.9742   -0.4515   24.3393 C   0  0  0  0  0  0  0  0  0  0  0  0
   13.7578   -1.0412   23.3475 C   0  0  0  0  0  0  0  0  0  0  0  0
   11.6098   -0.2554   24.1256 C   0  0  0  0  0  0  0  0  0  0  0  0
   13.1772   -1.4347   22.1419 C   0  0  0  0  0  0  0  0  0  0  0  0
   11.0291   -0.6489   22.9199 C   0  0  0  0  0  0  0  0  0  0  0  0
    9.6188   -0.4332   22.7293 C   0  0  0  0  0  0  0  0  0  0  0  0
   11.8128   -1.2386   21.9280 C   0  0  0  0  0  0  0  0  0  0  0  0
    8.9114    0.6615   22.1974 C   0  0  0  0  0  0  0  0  0  0  0  0
    8.6445   -1.3410   23.0656 C   0  0  0  0  0  0  0  0  0  0  0  0
    9.4591    1.9261   21.6747 C   0  0  0  0  0  0  0  0  0  0  0  0
    8.6999   -2.6867   23.6649 C   0  0  0  0  0  0  0  0  0  0  0  0
    7.5897    0.4687   22.1939 N   0  0  0  0  0  0  0  0  0  0  0  0
    7.4589   -0.7577   22.7277 N   0  0  0  0  0  0  0  0  0  0  0  0
   11.2521   -1.6475   20.6962 N   0  0  0  0  0  0  0  0  0  0  0  0
    6.5257   -1.1364   22.8323 H   0  0  0  0  0  0  0  0  0  0  0  0
   11.8517   -2.0226   19.9918 H   0  0  0  0  0  0  0  0  0  0  0  0
   10.2862   -1.4665   20.5201 H   0  0  0  0  0  0  0  0  0  0  0  0
  1  2  1  0  0  0  0
  1  3  2  0  0  0  0
  2  4  2  0  0  0  0
  3  5  1  0  0  0  0
  4  7  1  0  0  0  0
  5  6  1  0  0  0  0
  5  7  2  0  0  0  0
  6  8  1  0  0  0  0
  6  9  2  0  0  0  0
  7 14  1  0  0  0  0
  8 10  1  0  0  0  0
  8 12  2  0  0  0  0
  9 11  1  0  0  0  0
  9 13  1  0  0  0  0
 12 13  1  0  0  0  0
 13 15  1  0  0  0  0
 14 16  1  0  0  0  0
 14 17  1  0  0  0  0
M  END
> <ref_mols>
x0093_0

> <original SMILES>
CC1=NNC(C)=C1C=2C=CC=CC2N

> <Chemgauss4>
-7.665974

> <ref_pdb>
x0678_0

$$$$
x0926
  -OEChem-05172015543D

 17 19  0     1  0  0  0  0  0999 V2000
   12.1872    1.2098   23.0212 C   0  0  0  0  0  0  0  0  0  0  0  0
   14.3484    1.2560   22.1360 C   0  0  0  0  0  0  0  0  0  0  0  0
   13.2562    0.5010   22.5120 C   0  0  0  0  0  0  0  0  0  0  0  0
   13.2989    3.1747   22.7556 C   0  0  0  0  0  0  0  0  0  0  0  0
   10.8122   -1.6866   22.8195 C   0  0  0  0  0  0  0  0  0  0  0  0
   14.2062   -2.8807   23.6212 C   0  0  0  0  0  0  0  0  0  0  0  0
   14.0162   -1.7102   21.2811 C   0  0  0  0  0  0  0  0  0  0  0  0
   12.7574   -2.6364   24.0652 C   0  0  0  0  0  0  0  0  0  0  0  0
   14.5321   -1.7485   22.6888 C   0  0  1  0  0  0  0  0  0  0  0  0
   13.2342   -1.0143   22.3759 C   0  0  1  0  0  0  0  0  0  0  0  0
   10.4014   -1.2962   21.4239 C   0  0  0  0  0  0  0  0  0  0  0  0
   12.1565    5.1514   23.4215 C   0  0  0  0  0  0  0  0  0  0  0  0
   12.1745    2.5521   23.1576 N   0  0  0  0  0  0  0  0  0  0  0  0
   14.4040    2.5997   22.2442 N   0  0  0  0  0  0  0  0  0  0  0  0
   12.1722   -1.7248   23.0738 N   0  0  0  0  0  0  0  0  0  0  0  0
    9.9518   -1.9464   23.6638 O   0  0  0  0  0  0  0  0  0  0  0  0
   13.3214    4.5443   22.8815 O   0  0  0  0  0  0  0  0  0  0  0  0
  1  3  2  0  0  0  0
  1 13  1  0  0  0  0
  2  3  1  0  0  0  0
  2 14  2  0  0  0  0
  3 10  1  0  0  0  0
  4 13  2  0  0  0  0
  4 14  1  0  0  0  0
  4 17  1  0  0  0  0
  5 11  1  0  0  0  0
  5 15  1  0  0  0  0
  5 16  2  0  0  0  0
  6  8  1  0  0  0  0
  6  9  1  0  0  0  0
  7  9  1  0  0  0  0
  7 10  1  0  0  0  0
  8 15  1  0  0  0  0
  9 10  1  0  0  0  0
 10 15  1  0  0  0  0
 12 17  1  0  0  0  0
M  END
> <ref_mols>
x0926_0

> <original SMILES>
COC(N=C1)=NC=C1C23N(C(C)=O)CCC2C3

> <Chemgauss4>
-7.661506

> <ref_pdb>
x0195_0

$$$$
x0637
  -OEChem-05172015543D

 15 15  0     0  0  0  0  0  0999 V2000
    6.6446   -4.2209   21.4954 C   0  0  0  0  0  0  0  0  0  0  0  0
    9.0764   -5.7755   23.8461 C   0  0  0  0  0  0  0  0  0  0  0  0
    7.9877   -5.6152   22.9890 C   0  0  0  0  0  0  0  0  0  0  0  0
    9.9371   -4.7049   24.0882 C   0  0  0  0  0  0  0  0  0  0  0  0
    8.6205   -3.3136   22.6158 C   0  0  0  0  0  0  0  0  0  0  0  0
    7.7598   -4.3842   22.3738 C   0  0  0  0  0  0  0  0  0  0  0  0
    9.7092   -3.4739   23.4730 C   0  0  0  0  0  0  0  0  0  0  0  0
   11.7062   -2.3703   24.5406 C   0  0  0  0  0  0  0  0  0  0  0  0
   11.4187    0.0933   25.0085 C   0  0  0  0  0  0  0  0  0  0  0  0
   13.6285   -1.0204   25.4178 C   0  0  0  0  0  0  0  0  0  0  0  0
   12.3808   -0.9950   24.5367 C   0  0  0  0  0  0  0  0  0  0  0  0
    5.7390   -4.0882   20.7820 N   0  0  0  0  0  0  0  0  0  0  0  0
   10.5820   -2.3874   23.7199 N   0  0  0  0  0  0  0  0  0  0  0  0
   12.1540   -3.3039   25.2003 O   0  0  0  0  0  0  0  0  0  0  0  0
   10.3618   -1.5166   23.2414 H   0  0  0  0  0  0  0  0  0  0  0  0
  1  6  1  0  0  0  0
  1 12  3  0  0  0  0
  2  3  1  0  0  0  0
  2  4  2  0  0  0  0
  3  6  2  0  0  0  0
  4  7  1  0  0  0  0
  5  6  1  0  0  0  0
  5  7  2  0  0  0  0
  7 13  1  0  0  0  0
  8 11  1  0  0  0  0
  8 13  1  0  0  0  0
  8 14  2  0  0  0  0
  9 11  1  0  0  0  0
 10 11  1  0  0  0  0
 13 15  1  0  0  0  0
M  END
> <ref_mols>
x0637_0

> <original SMILES>
CC(C)C(=O)NC=1C=CC=C(C#N)C1

> <Chemgauss4>
-7.657379

> <ref_pdb>
x0749_0

$$$$
x0418
  -OEChem-05172015543D

 16 17  0     0  0  0  0  0  0999 V2000
   13.2278   -1.2877   24.6696 C   0  0  0  0  0  0  0  0  0  0  0  0
   13.5199   -2.2967   25.5633 C   0  0  0  0  0  0  0  0  0  0  0  0
   11.7143   -3.1617   24.6678 C   0  0  0  0  0  0  0  0  0  0  0  0
    9.6375   -3.7781   23.3907 C   0  0  0  0  0  0  0  0  0  0  0  0
    7.5285   -4.6413   24.3266 C   0  0  0  0  0  0  0  0  0  0  0  0
    8.1130   -5.0360   21.9202 C   0  0  0  0  0  0  0  0  0  0  0  0
    6.3927   -5.6406   24.1429 C   0  0  0  0  0  0  0  0  0  0  0  0
    6.9458   -6.0144   21.8686 C   0  0  0  0  0  0  0  0  0  0  0  0
    8.6538   -4.9307   23.3408 C   0  0  0  0  0  0  0  0  0  0  0  0
   14.6617   -2.3160   26.4989 C   0  0  0  0  0  0  0  0  0  0  0  0
   12.6529   -3.3719   25.5640 N   0  0  0  0  0  0  0  0  0  0  0  0
   10.6268   -4.0053   24.3390 N   0  0  0  0  0  0  0  0  0  0  0  0
    9.5064   -2.8080   22.6515 O   0  0  0  0  0  0  0  0  0  0  0  0
    5.9263   -5.6342   22.7933 O   0  0  0  0  0  0  0  0  0  0  0  0
   11.8135   -1.6918   23.7878 S   0  0  0  0  0  0  0  0  0  0  0  0
   10.5757   -4.8755   24.8645 H   0  0  0  0  0  0  0  0  0  0  0  0
  1  2  2  0  0  0  0
  1 15  1  0  0  0  0
  2 10  1  0  0  0  0
  2 11  1  0  0  0  0
  3 11  2  0  0  0  0
  3 12  1  0  0  0  0
  3 15  1  0  0  0  0
  4  9  1  0  0  0  0
  4 12  1  0  0  0  0
  4 13  2  0  0  0  0
  5  7  1  0  0  0  0
  5  9  1  0  0  0  0
  6  8  1  0  0  0  0
  6  9  1  0  0  0  0
  7 14  1  0  0  0  0
  8 14  1  0  0  0  0
 12 16  1  0  0  0  0
M  END
> <ref_mols>
x0418_0

> <original SMILES>
CC1=CSC(NC(=O)C2CCOCC2)=N1

> <Chemgauss4>
-7.657047

> <ref_pdb>
x0749_0

$$$$
x0930
  -OEChem-05172015543D

 18 20  0     1  0  0  0  0  0999 V2000
   13.3254    3.5962   21.9514 C   0  0  0  0  0  0  0  0  0  0  0  0
   13.5057    2.2293   22.1311 C   0  0  0  0  0  0  0  0  0  0  0  0
   12.3466    4.2256   22.7035 C   0  0  0  0  0  0  0  0  0  0  0  0
   12.7128    1.5432   23.0444 C   0  0  0  0  0  0  0  0  0  0  0  0
   11.7616    2.2646   23.7477 C   0  0  0  0  0  0  0  0  0  0  0  0
   14.4258   -1.7697   22.7292 C   0  0  0  0  0  0  0  0  0  0  0  0
   13.2759   -0.4392   24.6380 C   0  0  0  0  0  0  0  0  0  0  0  0
   13.2907   -1.7410   21.6967 C   0  0  0  0  0  0  0  0  0  0  0  0
   14.2769   -0.5133   23.5288 C   0  0  2  0  0  0  0  0  0  0  0  0
   12.9001    0.0529   23.2497 C   0  0  2  0  0  0  0  0  0  0  0  0
   10.0055    2.4263   25.3432 C   0  0  0  0  0  0  0  0  0  0  0  0
    9.8589   -1.4456   21.2183 C   0  0  0  0  0  0  0  0  0  0  0  0
   11.5573    3.5928   23.6002 N   0  0  0  0  0  0  0  0  0  0  0  0
   12.2275   -0.8374   22.2422 N   0  0  2  0  0  0  0  0  0  0  0  0
   10.1175   -0.6472   23.6927 O   0  0  0  0  0  0  0  0  0  0  0  0
   10.9824   -2.9328   23.0496 O   0  0  0  0  0  0  0  0  0  0  0  0
   10.9599    1.6251   24.6573 O   0  0  0  0  0  0  0  0  0  0  0  0
   10.7612   -1.5338   22.7447 S   0  0  0  0  0  0  0  0  0  0  0  0
  1  2  2  0  0  0  0
  1  3  1  0  0  0  0
  2  4  1  0  0  0  0
  3 13  2  0  0  0  0
  4  5  2  0  0  0  0
  4 10  1  0  0  0  0
  5 13  1  0  0  0  0
  5 17  1  0  0  0  0
  6  8  1  0  0  0  0
  6  9  1  0  0  0  0
  7  9  1  0  0  0  0
  7 10  1  0  0  0  0
  8 14  1  0  0  0  0
  9 10  1  0  0  0  0
 10 14  1  0  0  0  0
 11 17  1  0  0  0  0
 12 18  1  0  0  0  0
 14 18  1  0  0  0  0
 15 18  2  0  0  0  0
 16 18  2  0  0  0  0
M  END
> <ref_mols>
x0930_0

> <original SMILES>
COC1=NC=CC=C1C23N(S(C)(=O)=O)CCC2C3

> <Chemgauss4>
-7.650466

> <ref_pdb>
x0195_0

$$$$
x0261
  -OEChem-05172015543D

 11 11  0     0  0  0  0  0  0999 V2000
    5.2321    0.9447   19.5766 C   0  0  0  0  0  0  0  0  0  0  0  0
    5.9920    0.5361   20.6671 C   0  0  0  0  0  0  0  0  0  0  0  0
    5.7497    0.7316   18.3092 C   0  0  0  0  0  0  0  0  0  0  0  0
    7.6568   -0.2327   19.1526 C   0  0  0  0  0  0  0  0  0  0  0  0
    7.2287   -0.0646   20.4597 C   0  0  0  0  0  0  0  0  0  0  0  0
    9.3364    0.0188   21.7871 C   0  0  0  0  0  0  0  0  0  0  0  0
   10.2844   -0.8456   22.5864 C   0  0  0  0  0  0  0  0  0  0  0  0
    7.4165   -1.4343   22.5236 C   0  0  0  0  0  0  0  0  0  0  0  0
    6.9467    0.1513   18.0682 N   0  0  0  0  0  0  0  0  0  0  0  0
    8.0439   -0.5008   21.5755 N   0  0  0  0  0  0  0  0  0  0  0  0
    9.7420    1.1199   21.4067 O   0  0  0  0  0  0  0  0  0  0  0  0
  1  2  2  0  0  0  0
  1  3  1  0  0  0  0
  2  5  1  0  0  0  0
  3  9  2  0  0  0  0
  4  5  2  0  0  0  0
  4  9  1  0  0  0  0
  5 10  1  0  0  0  0
  6  7  1  0  0  0  0
  6 10  1  0  0  0  0
  6 11  2  0  0  0  0
  8 10  1  0  0  0  0
M  END
> <ref_mols>
x0261_0

> <original SMILES>
CN(C(=O)C)C=1C=CC=NC1

> <Chemgauss4>
-7.649648

> <ref_pdb>
x0107_0

$$$$
x2830
  -OEChem-05172015543D

 25 26  0     1  0  0  0  0  0999 V2000
   11.7461   -1.6165   24.1522 C   0  0  0  0  0  0  0  0  0  0  0  0
   10.5725   -1.0287   24.6098 C   0  0  0  0  0  0  0  0  0  0  0  0
   11.2291    1.0470   23.5636 C   0  0  0  0  0  0  0  0  0  0  0  0
   12.6658   -0.8775   23.3877 C   0  0  0  0  0  0  0  0  0  0  0  0
   12.4321    0.4873   23.0898 C   0  0  0  0  0  0  0  0  0  0  0  0
   10.3127    0.3021   24.3126 C   0  0  0  0  0  0  0  0  0  0  0  0
   13.9303   -1.5648   22.9323 C   0  0  0  0  0  0  0  0  0  0  0  0
   14.5616   -0.8325   21.7571 C   0  0  0  0  0  0  0  0  0  0  0  0
   14.6721    0.6509   22.0759 C   0  0  0  0  0  0  0  0  0  0  0  0
    9.9706    6.8753   23.3021 C   0  0  0  0  0  0  0  0  0  0  0  0
   13.6732    3.5064   23.2553 C   0  0  0  0  0  0  0  0  0  0  0  0
   13.1667    2.6459   22.0996 C   0  0  0  0  0  0  0  0  0  0  0  0
   13.5211    5.0074   23.0189 C   0  0  0  0  0  0  0  0  0  0  0  0
   13.3522    1.2220   22.3399 N   0  0  3  0  0  0  0  0  0  0  0  0
    9.3295    1.6511   26.3907 N   0  0  0  0  0  0  0  0  0  0  0  0
   12.1552    5.3953   22.7961 N   0  0  0  0  0  0  0  0  0  0  0  0
    8.5267    2.1685   23.9963 O   0  0  0  0  0  0  0  0  0  0  0  0
    7.8432    0.0014   25.0844 O   0  0  0  0  0  0  0  0  0  0  0  0
   11.9019    6.6428   25.0533 O   0  0  0  0  0  0  0  0  0  0  0  0
   10.4261    4.6522   24.5888 O   0  0  0  0  0  0  0  0  0  0  0  0
    8.8345    1.0463   24.8714 S   0  0  0  0  0  0  0  0  0  0  0  0
   11.1443    5.8245   24.1269 S   0  0  0  0  0  0  0  0  0  0  0  0
    9.4387    2.6675   26.4924 H   0  0  0  0  0  0  0  0  0  0  0  0
    8.9728    1.1855   27.2341 H   0  0  0  0  0  0  0  0  0  0  0  0
   11.6631    4.8993   22.0208 H   0  0  0  0  0  0  0  0  0  0  0  0
  1  2  2  0  0  0  0
  1  4  1  0  0  0  0
  2  6  1  0  0  0  0
  3  5  1  0  0  0  0
  3  6  2  0  0  0  0
  4  5  2  0  0  0  0
  4  7  1  0  0  0  0
  5 14  1  0  0  0  0
  6 21  1  0  0  0  0
  7  8  1  0  0  0  0
  8  9  1  0  0  0  0
  9 14  1  0  0  0  0
 10 22  1  0  0  0  0
 11 12  1  0  0  0  0
 11 13  1  0  0  0  0
 12 14  1  0  0  0  0
 13 16  1  0  0  0  0
 15 21  1  0  0  0  0
 16 22  1  0  0  0  0
 17 21  2  0  0  0  0
 18 21  2  0  0  0  0
 19 22  2  0  0  0  0
 20 22  2  0  0  0  0
 15 23  1  0  0  0  0
 15 24  1  0  0  0  0
 16 25  1  0  0  0  0
M  END
> <ref_mols>
x2830_0

> <original SMILES>
CS(=O)(=O)NCCCN1CCCC=2C=CC(=CC12)S(=O)(=O)N

> <Chemgauss4>
-7.647782

> <ref_pdb>
x0195_0

$$$$
x2494
  -OEChem-05172015543D

 20 21  0     0  0  0  0  0  0999 V2000
   11.9874    1.1540   24.5514 C   0  0  0  0  0  0  0  0  0  0  0  0
   12.9237    0.9425   23.5353 C   0  0  0  0  0  0  0  0  0  0  0  0
   11.8728   -1.1600   22.9253 C   0  0  0  0  0  0  0  0  0  0  0  0
    9.2332   -1.0193   25.4498 C   0  0  0  0  0  0  0  0  0  0  0  0
   10.9179   -0.9684   23.9436 C   0  0  0  0  0  0  0  0  0  0  0  0
    9.8001   -1.7166   24.4080 C   0  0  0  0  0  0  0  0  0  0  0  0
   10.9971    0.1819   24.7316 C   0  0  0  0  0  0  0  0  0  0  0  0
   12.8692   -0.1959   22.7336 C   0  0  0  0  0  0  0  0  0  0  0  0
   13.6861   -1.5589   20.9642 C   0  0  0  0  0  0  0  0  0  0  0  0
    6.2208   -0.3937   21.5204 C   0  0  0  0  0  0  0  0  0  0  0  0
    9.3244   -3.0090   23.8750 C   0  0  0  0  0  0  0  0  0  0  0  0
    8.0692   -2.8994   22.9903 C   0  0  0  0  0  0  0  0  0  0  0  0
    9.9619    0.1245   25.6373 N   0  0  0  0  0  0  0  0  0  0  0  0
    8.2924   -2.0757   21.8324 N   0  0  0  0  0  0  0  0  0  0  0  0
    6.0848   -2.8906   20.7475 O   0  0  0  0  0  0  0  0  0  0  0  0
    7.5555   -1.2926   19.4671 O   0  0  0  0  0  0  0  0  0  0  0  0
   13.7958   -0.3741   21.7500 O   0  0  0  0  0  0  0  0  0  0  0  0
    7.0082   -1.7733   20.7212 S   0  0  0  0  0  0  0  0  0  0  0  0
    9.7691    0.8255   26.3392 H   0  0  0  0  0  0  0  0  0  0  0  0
    8.9479   -1.2752   21.9657 H   0  0  0  0  0  0  0  0  0  0  0  0
  1  2  2  0  0  0  0
  1  7  1  0  0  0  0
  2  8  1  0  0  0  0
  3  5  1  0  0  0  0
  3  8  2  0  0  0  0
  4  6  2  0  0  0  0
  4 13  1  0  0  0  0
  5  6  1  0  0  0  0
  5  7  2  0  0  0  0
  6 11  1  0  0  0  0
  7 13  1  0  0  0  0
  8 17  1  0  0  0  0
  9 17  1  0  0  0  0
 10 18  1  0  0  0  0
 11 12  1  0  0  0  0
 12 14  1  0  0  0  0
 14 18  1  0  0  0  0
 15 18  2  0  0  0  0
 16 18  2  0  0  0  0
 13 19  1  0  0  0  0
 14 20  1  0  0  0  0
M  END
> <ref_mols>
x2494_0

> <original SMILES>
COC=1C=CC=2NC=C(CCNS(=O)(=O)C)C2C1

> <Chemgauss4>
-7.645136

> <ref_pdb>
x0831_0

$$$$
x2662
  -OEChem-05172015543D

 20 21  0     0  0  0  0  0  0999 V2000
   11.9874    1.1540   24.5514 C   0  0  0  0  0  0  0  0  0  0  0  0
   12.9237    0.9425   23.5353 C   0  0  0  0  0  0  0  0  0  0  0  0
   11.8728   -1.1600   22.9253 C   0  0  0  0  0  0  0  0  0  0  0  0
    9.2332   -1.0193   25.4498 C   0  0  0  0  0  0  0  0  0  0  0  0
   10.9179   -0.9684   23.9436 C   0  0  0  0  0  0  0  0  0  0  0  0
    9.8001   -1.7166   24.4080 C   0  0  0  0  0  0  0  0  0  0  0  0
   10.9971    0.1819   24.7316 C   0  0  0  0  0  0  0  0  0  0  0  0
   12.8692   -0.1959   22.7336 C   0  0  0  0  0  0  0  0  0  0  0  0
   13.6861   -1.5589   20.9642 C   0  0  0  0  0  0  0  0  0  0  0  0
    6.2208   -0.3937   21.5204 C   0  0  0  0  0  0  0  0  0  0  0  0
    9.3244   -3.0090   23.8750 C   0  0  0  0  0  0  0  0  0  0  0  0
    8.0692   -2.8994   22.9903 C   0  0  0  0  0  0  0  0  0  0  0  0
    9.9619    0.1245   25.6373 N   0  0  0  0  0  0  0  0  0  0  0  0
    8.2924   -2.0757   21.8324 N   0  0  0  0  0  0  0  0  0  0  0  0
    6.0848   -2.8906   20.7475 O   0  0  0  0  0  0  0  0  0  0  0  0
    7.5555   -1.2926   19.4671 O   0  0  0  0  0  0  0  0  0  0  0  0
   13.7958   -0.3741   21.7500 O   0  0  0  0  0  0  0  0  0  0  0  0
    7.0082   -1.7733   20.7212 S   0  0  0  0  0  0  0  0  0  0  0  0
    9.7691    0.8255   26.3392 H   0  0  0  0  0  0  0  0  0  0  0  0
    8.9479   -1.2752   21.9657 H   0  0  0  0  0  0  0  0  0  0  0  0
  1  2  2  0  0  0  0
  1  7  1  0  0  0  0
  2  8  1  0  0  0  0
  3  5  1  0  0  0  0
  3  8  2  0  0  0  0
  4  6  2  0  0  0  0
  4 13  1  0  0  0  0
  5  6  1  0  0  0  0
  5  7  2  0  0  0  0
  6 11  1  0  0  0  0
  7 13  1  0  0  0  0
  8 17  1  0  0  0  0
  9 17  1  0  0  0  0
 10 18  1  0  0  0  0
 11 12  1  0  0  0  0
 12 14  1  0  0  0  0
 14 18  1  0  0  0  0
 15 18  2  0  0  0  0
 16 18  2  0  0  0  0
 13 19  1  0  0  0  0
 14 20  1  0  0  0  0
M  END
> <ref_mols>
x2662_0

> <original SMILES>
COC=1C=CC=2NC=C(CCNS(=O)(=O)C)C2C1

> <Chemgauss4>
-7.645136

> <ref_pdb>
x0831_0

$$$$
x0103
  -OEChem-05172015543D

 14 14  0     0  0  0  0  0  0999 V2000
    6.1352    0.7195   17.9948 C   0  0  0  0  0  0  0  0  0  0  0  0
    5.5281    1.0298   19.1937 C   0  0  0  0  0  0  0  0  0  0  0  0
    7.8588    0.4344   19.3206 C   0  0  0  0  0  0  0  0  0  0  0  0
    9.5538    0.2221   21.1718 C   0  0  0  0  0  0  0  0  0  0  0  0
   10.5002   -2.3069   22.6759 C   0  0  0  0  0  0  0  0  0  0  0  0
   13.1880    0.2059   22.6224 C   0  0  0  0  0  0  0  0  0  0  0  0
   11.1629   -1.7036   21.4436 C   0  0  0  0  0  0  0  0  0  0  0  0
   11.7101    0.5579   22.4979 C   0  0  0  0  0  0  0  0  0  0  0  0
   11.0311   -0.1711   21.3249 C   0  0  0  0  0  0  0  0  0  0  0  0
    7.4717    0.3783   18.0656 N   0  0  0  0  0  0  0  0  0  0  0  0
    9.1459    0.1620   19.8422 N   0  0  0  0  0  0  0  0  0  0  0  0
    8.8648    0.5249   22.1419 O   0  0  0  0  0  0  0  0  0  0  0  0
    6.6671    0.8901   20.4683 S   0  0  0  0  0  0  0  0  0  0  0  0
    9.8565   -0.1095   19.1661 H   0  0  0  0  0  0  0  0  0  0  0  0
  1  2  2  0  0  0  0
  1 10  1  0  0  0  0
  2 13  1  0  0  0  0
  3 10  2  0  0  0  0
  3 11  1  0  0  0  0
  3 13  1  0  0  0  0
  4  9  1  0  0  0  0
  4 11  1  0  0  0  0
  4 12  2  0  0  0  0
  5  7  1  0  0  0  0
  6  8  1  0  0  0  0
  7  9  1  0  0  0  0
  8  9  1  0  0  0  0
 11 14  1  0  0  0  0
M  END
> <ref_mols>
x0103_0

> <original SMILES>
CCC(CC)C(=O)NC1=NC=CS1

> <Chemgauss4>
-7.638293

> <ref_pdb>
x0678_0

$$$$
x1097
  -OEChem-05172015543D

 12 12  0     0  0  0  0  0  0999 V2000
   14.3164    1.4507   22.1250 C   0  0  0  0  0  0  0  0  0  0  0  0
   13.4708    2.5085   22.4587 C   0  0  0  0  0  0  0  0  0  0  0  0
   13.9283    0.1372   22.3896 C   0  0  0  0  0  0  0  0  0  0  0  0
   11.8489    0.9396   23.3219 C   0  0  0  0  0  0  0  0  0  0  0  0
   12.2370    2.2530   23.0572 C   0  0  0  0  0  0  0  0  0  0  0  0
   12.6946   -0.1183   22.9881 C   0  0  0  0  0  0  0  0  0  0  0  0
   10.8579    5.8228   23.1546 C   0  0  0  0  0  0  0  0  0  0  0  0
   11.3338    3.3847   23.4149 C   0  0  0  0  0  0  0  0  0  0  0  0
   11.7119    4.6703   22.7658 N   0  3  0  0  0  0  0  0  0  0  0  0
   12.2168   -1.7389   23.3154 Cl  0  0  0  0  0  0  0  0  0  0  0  0
   11.6775    4.5527   21.7446 H   0  0  0  0  0  0  0  0  0  0  0  0
   12.6923    4.8842   22.9917 H   0  0  0  0  0  0  0  0  0  0  0  0
  1  2  2  0  0  0  0
  1  3  1  0  0  0  0
  2  5  1  0  0  0  0
  3  6  2  0  0  0  0
  4  5  2  0  0  0  0
  4  6  1  0  0  0  0
  5  8  1  0  0  0  0
  6 10  1  0  0  0  0
  7  9  1  0  0  0  0
  8  9  1  0  0  0  0
  9 11  1  0  0  0  0
  9 12  1  0  0  0  0
M  CHG  1   9   1
M  END
> <ref_mols>
x1097_0

> <original SMILES>
CNCC=1C=CC=C(Cl)C1

> <Chemgauss4>
-7.637341

> <ref_pdb>
x0195_0

$$$$
x0257
  -OEChem-05172015543D

 12 12  0     0  0  0  0  0  0999 V2000
   14.3164    1.4507   22.1250 C   0  0  0  0  0  0  0  0  0  0  0  0
   13.4708    2.5085   22.4587 C   0  0  0  0  0  0  0  0  0  0  0  0
   13.9283    0.1372   22.3896 C   0  0  0  0  0  0  0  0  0  0  0  0
   11.8489    0.9396   23.3219 C   0  0  0  0  0  0  0  0  0  0  0  0
   12.2370    2.2530   23.0572 C   0  0  0  0  0  0  0  0  0  0  0  0
   12.6946   -0.1183   22.9881 C   0  0  0  0  0  0  0  0  0  0  0  0
   10.8579    5.8228   23.1546 C   0  0  0  0  0  0  0  0  0  0  0  0
   11.3338    3.3847   23.4149 C   0  0  0  0  0  0  0  0  0  0  0  0
   11.7119    4.6703   22.7658 N   0  3  0  0  0  0  0  0  0  0  0  0
   12.2168   -1.7389   23.3154 Cl  0  0  0  0  0  0  0  0  0  0  0  0
   11.6775    4.5527   21.7446 H   0  0  0  0  0  0  0  0  0  0  0  0
   12.6923    4.8842   22.9917 H   0  0  0  0  0  0  0  0  0  0  0  0
  1  2  2  0  0  0  0
  1  3  1  0  0  0  0
  2  5  1  0  0  0  0
  3  6  2  0  0  0  0
  4  5  2  0  0  0  0
  4  6  1  0  0  0  0
  5  8  1  0  0  0  0
  6 10  1  0  0  0  0
  7  9  1  0  0  0  0
  8  9  1  0  0  0  0
  9 11  1  0  0  0  0
  9 12  1  0  0  0  0
M  CHG  1   9   1
M  END
> <ref_mols>
x0257_0

> <original SMILES>
CNCC=1C=CC=C(Cl)C1

> <Chemgauss4>
-7.637341

> <ref_pdb>
x0195_0

$$$$
x1155
  -OEChem-05172015543D

 16 17  0     1  0  0  0  0  0999 V2000
   11.0878    5.5338   23.6174 C   0  0  0  0  0  0  0  0  0  0  0  0
   12.3458    5.0559   23.1792 C   0  0  0  0  0  0  0  0  0  0  0  0
   10.2602    4.4365   23.6719 C   0  0  0  0  0  0  0  0  0  0  0  0
   12.1974    3.7006   22.9973 C   0  0  0  0  0  0  0  0  0  0  0  0
   13.1535    2.6562   22.5506 C   0  0  0  0  0  0  0  0  0  0  0  0
   12.4637   -1.5163   21.9047 C   0  0  0  0  0  0  0  0  0  0  0  0
   13.6204   -0.7362   22.5241 C   0  0  0  0  0  0  0  0  0  0  0  0
   11.4537   -1.9484   22.9569 C   0  0  0  0  0  0  0  0  0  0  0  0
   12.0856    0.0141   24.3939 C   0  0  0  0  0  0  0  0  0  0  0  0
   13.1260    0.4397   23.3646 C   0  0  2  0  0  0  0  0  0  0  0  0
    9.8608   -1.0839   24.6685 C   0  0  0  0  0  0  0  0  0  0  0  0
   10.9631   -0.7340   23.7070 N   0  3  2  0  0  0  0  0  0  0  0  0
   14.3151    2.8928   22.2572 O   0  0  0  0  0  0  0  0  0  0  0  0
   10.9290    3.3150   23.2955 O   0  0  0  0  0  0  0  0  0  0  0  0
   12.5514    1.4374   22.5226 O   0  0  0  0  0  0  0  0  0  0  0  0
   10.5522   -0.0929   23.0143 H   0  0  0  0  0  0  0  0  0  0  0  0
  1  2  1  0  0  0  0
  1  3  2  0  0  0  0
  2  4  2  0  0  0  0
  3 14  1  0  0  0  0
  4  5  1  0  0  0  0
  4 14  1  0  0  0  0
  5 13  2  0  0  0  0
  5 15  1  0  0  0  0
  6  7  1  0  0  0  0
  6  8  1  0  0  0  0
  7 10  1  0  0  0  0
  8 12  1  0  0  0  0
  9 10  1  0  0  0  0
  9 12  1  0  0  0  0
 10 15  1  0  0  0  0
 11 12  1  0  0  0  0
 12 16  1  0  0  0  0
M  CHG  1  12   1
M  END
> <ref_mols>
x1155_0

> <original SMILES>
CN1CCC[C@H](C1)OC(=O)C2=CC=CO2

> <Chemgauss4>
-7.635798

> <ref_pdb>
x0195_0

$$$$
x0071
  -OEChem-05172015543D

 16 17  0     1  0  0  0  0  0999 V2000
   11.0878    5.5338   23.6174 C   0  0  0  0  0  0  0  0  0  0  0  0
   12.3458    5.0559   23.1792 C   0  0  0  0  0  0  0  0  0  0  0  0
   10.2602    4.4365   23.6719 C   0  0  0  0  0  0  0  0  0  0  0  0
   12.1974    3.7006   22.9973 C   0  0  0  0  0  0  0  0  0  0  0  0
   13.1535    2.6562   22.5506 C   0  0  0  0  0  0  0  0  0  0  0  0
   12.4637   -1.5163   21.9047 C   0  0  0  0  0  0  0  0  0  0  0  0
   13.6204   -0.7362   22.5241 C   0  0  0  0  0  0  0  0  0  0  0  0
   11.4537   -1.9484   22.9569 C   0  0  0  0  0  0  0  0  0  0  0  0
   12.0856    0.0141   24.3939 C   0  0  0  0  0  0  0  0  0  0  0  0
   13.1260    0.4397   23.3646 C   0  0  2  0  0  0  0  0  0  0  0  0
    9.8608   -1.0839   24.6685 C   0  0  0  0  0  0  0  0  0  0  0  0
   10.9631   -0.7340   23.7070 N   0  3  2  0  0  0  0  0  0  0  0  0
   14.3151    2.8928   22.2572 O   0  0  0  0  0  0  0  0  0  0  0  0
   10.9290    3.3150   23.2955 O   0  0  0  0  0  0  0  0  0  0  0  0
   12.5514    1.4374   22.5226 O   0  0  0  0  0  0  0  0  0  0  0  0
   10.5522   -0.0929   23.0143 H   0  0  0  0  0  0  0  0  0  0  0  0
  1  2  1  0  0  0  0
  1  3  2  0  0  0  0
  2  4  2  0  0  0  0
  3 14  1  0  0  0  0
  4  5  1  0  0  0  0
  4 14  1  0  0  0  0
  5 13  2  0  0  0  0
  5 15  1  0  0  0  0
  6  7  1  0  0  0  0
  6  8  1  0  0  0  0
  7 10  1  0  0  0  0
  8 12  1  0  0  0  0
  9 10  1  0  0  0  0
  9 12  1  0  0  0  0
 10 15  1  0  0  0  0
 11 12  1  0  0  0  0
 12 16  1  0  0  0  0
M  CHG  1  12   1
M  END
> <ref_mols>
x0071_0

> <original SMILES>
CN1CCC[C@H](C1)OC(=O)C2=CC=CO2

> <Chemgauss4>
-7.635798

> <ref_pdb>
x0195_0

$$$$
x0613
  -OEChem-05172015543D

 17 17  0     0  0  0  0  0  0999 V2000
    9.4818   -1.4818   23.8015 C   0  0  0  0  0  0  0  0  0  0  0  0
    6.8170   -5.7123   26.0439 C   0  0  0  0  0  0  0  0  0  0  0  0
    8.7907   -2.8839   25.7137 C   0  0  0  0  0  0  0  0  0  0  0  0
   10.0562   -3.8899   23.7721 C   0  0  0  0  0  0  0  0  0  0  0  0
    9.0669   -4.1373   26.5324 C   0  0  0  0  0  0  0  0  0  0  0  0
   10.3249   -5.1361   24.6040 C   0  0  0  0  0  0  0  0  0  0  0  0
    9.8649   -2.6543   24.6510 C   0  0  0  0  0  0  0  0  0  0  0  0
   10.2142   -0.1561   21.9876 C   0  0  0  0  0  0  0  0  0  0  0  0
    7.9527   -5.8633   25.0663 C   0  0  0  0  0  0  0  0  0  0  0  0
    7.0342   -6.4167   27.2084 N   0  0  0  0  0  0  0  0  0  0  0  0
    9.2429   -5.3390   25.6364 N   0  3  0  0  0  0  0  0  0  0  0  0
    8.4478   -0.8429   23.9416 O   0  0  0  0  0  0  0  0  0  0  0  0
    5.8139   -5.0383   25.8289 O   0  0  0  0  0  0  0  0  0  0  0  0
   10.4536   -1.2552   22.8724 O   0  0  0  0  0  0  0  0  0  0  0  0
    7.8814   -6.9592   27.3399 H   0  0  0  0  0  0  0  0  0  0  0  0
    6.3658   -6.4217   27.9723 H   0  0  0  0  0  0  0  0  0  0  0  0
    9.5980   -6.1141   26.2696 H   0  0  0  0  0  0  0  0  0  0  0  0
  1  7  1  0  0  0  0
  1 12  2  0  0  0  0
  1 14  1  0  0  0  0
  2  9  1  0  0  0  0
  2 10  1  0  0  0  0
  2 13  2  0  0  0  0
  3  5  1  0  0  0  0
  3  7  1  0  0  0  0
  4  6  1  0  0  0  0
  4  7  1  0  0  0  0
  5 11  1  0  0  0  0
  6 11  1  0  0  0  0
  8 14  1  0  0  0  0
  9 11  1  0  0  0  0
 10 15  1  0  0  0  0
 10 16  1  0  0  0  0
 11 17  1  0  0  0  0
M  CHG  1  11   1
M  END
> <ref_mols>
x0613_0

> <original SMILES>
COC(=O)C1CCN(CC(=O)N)CC1

> <Chemgauss4>
-7.632456

> <ref_pdb>
x1077_0

$$$$
x0296
  -OEChem-05172015543D

 13 14  0     0  0  0  0  0  0999 V2000
   14.5979   -0.3500   22.3123 C   0  0  0  0  0  0  0  0  0  0  0  0
   14.0434   -1.6288   22.3633 C   0  0  0  0  0  0  0  0  0  0  0  0
   13.8494    0.7518   22.7264 C   0  0  0  0  0  0  0  0  0  0  0  0
   12.7403   -1.8059   22.8283 C   0  0  0  0  0  0  0  0  0  0  0  0
   11.4631    3.7718   23.9865 C   0  0  0  0  0  0  0  0  0  0  0  0
   12.5463    0.5747   23.1914 C   0  0  0  0  0  0  0  0  0  0  0  0
   11.9918   -0.7041   23.2424 C   0  0  0  0  0  0  0  0  0  0  0  0
   11.7878    1.7290   23.6157 C   0  0  0  0  0  0  0  0  0  0  0  0
   10.2453   -2.2506   23.7052 C   0  0  0  0  0  0  0  0  0  0  0  0
   10.3512    3.1634   24.3273 N   0  0  0  0  0  0  0  0  0  0  0  0
   10.5648    1.8195   24.0834 N   0  0  0  0  0  0  0  0  0  0  0  0
   12.4258    2.9278   23.5241 O   0  0  0  0  0  0  0  0  0  0  0  0
   10.7202   -0.9065   23.6919 O   0  0  0  0  0  0  0  0  0  0  0  0
  1  2  1  0  0  0  0
  1  3  2  0  0  0  0
  2  4  2  0  0  0  0
  3  6  1  0  0  0  0
  4  7  1  0  0  0  0
  5 10  2  0  0  0  0
  5 12  1  0  0  0  0
  6  7  2  0  0  0  0
  6  8  1  0  0  0  0
  7 13  1  0  0  0  0
  8 11  2  0  0  0  0
  8 12  1  0  0  0  0
  9 13  1  0  0  0  0
 10 11  1  0  0  0  0
M  END
> <ref_mols>
x0296_0

> <original SMILES>
COC=1C=CC=CC1C2=NN=CO2

> <Chemgauss4>
-7.631718

> <ref_pdb>
x0195_0

$$$$
x2061
  -OEChem-05172015543D

 32 36  0     1  0  0  0  0  0999 V2000
   13.2700    0.7261   23.3867 C   0  0  0  0  0  0  0  0  0  0  0  0
    9.2024   -4.8692   25.2996 C   0  0  0  0  0  0  0  0  0  0  0  0
    4.7473   -5.7427   23.5518 C   0  0  0  0  0  0  0  0  0  0  0  0
   13.5770   -0.5167   22.8328 C   0  0  0  0  0  0  0  0  0  0  0  0
   11.9382    1.0969   23.5730 C   0  0  0  0  0  0  0  0  0  0  0  0
    9.5886   -3.5782   25.6598 C   0  0  0  0  0  0  0  0  0  0  0  0
    9.1096   -5.2192   23.9526 C   0  0  0  0  0  0  0  0  0  0  0  0
    4.8464   -4.7788   24.5749 C   0  0  0  0  0  0  0  0  0  0  0  0
    5.1582   -5.4482   22.2500 C   0  0  0  0  0  0  0  0  0  0  0  0
   12.5523   -1.3887   22.4652 C   0  0  0  0  0  0  0  0  0  0  0  0
   10.9135    0.2248   23.2054 C   0  0  0  0  0  0  0  0  0  0  0  0
    9.8818   -2.6371   24.6728 C   0  0  0  0  0  0  0  0  0  0  0  0
    9.4028   -4.2781   22.9656 C   0  0  0  0  0  0  0  0  0  0  0  0
    5.3578   -3.5035   24.3135 C   0  0  0  0  0  0  0  0  0  0  0  0
    5.6577   -4.1828   22.0247 C   0  0  0  0  0  0  0  0  0  0  0  0
   11.2205   -1.0180   22.6515 C   0  0  0  0  0  0  0  0  0  0  0  0
    9.7889   -2.9870   23.3257 C   0  0  0  0  0  0  0  0  0  0  0  0
    5.7583   -3.2303   23.0234 C   0  0  0  0  0  0  0  0  0  0  0  0
    6.1620   -3.5603   20.8162 C   0  0  0  0  0  0  0  0  0  0  0  0
    6.4986   -0.0436   18.5810 C   0  0  0  0  0  0  0  0  0  0  0  0
    8.5650   -1.3690   20.5639 C   0  0  0  0  0  0  0  0  0  0  0  0
    6.6897    0.9794   19.6619 C   0  0  0  0  0  0  0  0  0  0  0  0
    6.5852    0.1454   20.9203 C   0  0  0  0  0  0  0  0  0  0  0  0
    7.0782   -1.2044   20.4558 C   0  0  2  0  0  0  0  0  0  0  0  0
   10.1073   -1.9643   22.2522 C   0  0  0  0  0  0  0  0  0  0  0  0
    6.5180   -2.2954   21.1966 N   0  0  0  0  0  0  0  0  0  0  0  0
    6.2261   -4.1046   19.7310 O   0  0  0  0  0  0  0  0  0  0  0  0
    6.2331    0.1997   17.4141 O   0  0  0  0  0  0  0  0  0  0  0  0
    9.2998   -1.5995   19.6130 O   0  0  0  0  0  0  0  0  0  0  0  0
    6.2810   -2.0465   22.5750 O   0  0  0  0  0  0  0  0  0  0  0  0
    6.7019   -1.2997   19.0863 O   0  0  0  0  0  0  0  0  0  0  0  0
    8.9465   -1.2225   21.8646 O   0  0  0  0  0  0  0  0  0  0  0  0
  1  4  1  0  0  0  0
  1  5  2  0  0  0  0
  2  6  1  0  0  0  0
  2  7  2  0  0  0  0
  3  8  1  0  0  0  0
  3  9  2  0  0  0  0
  4 10  2  0  0  0  0
  5 11  1  0  0  0  0
  6 12  2  0  0  0  0
  7 13  1  0  0  0  0
  8 14  2  0  0  0  0
  9 15  1  0  0  0  0
 10 16  1  0  0  0  0
 11 16  2  0  0  0  0
 12 17  1  0  0  0  0
 13 17  2  0  0  0  0
 14 18  1  0  0  0  0
 15 18  2  0  0  0  0
 15 19  1  0  0  0  0
 16 25  1  0  0  0  0
 17 25  1  0  0  0  0
 18 30  1  0  0  0  0
 19 26  1  0  0  0  0
 19 27  2  0  0  0  0
 20 22  1  0  0  0  0
 20 28  2  0  0  0  0
 20 31  1  0  0  0  0
 21 24  1  0  0  0  0
 21 29  2  0  0  0  0
 21 32  1  0  0  0  0
 22 23  1  0  0  0  0
 23 24  1  0  0  0  0
 24 26  1  0  0  0  0
 24 31  1  0  0  0  0
 25 32  1  0  0  0  0
 26 30  1  0  0  0  0
M  END
> <ref_mols>
x2061_0

> <original SMILES>
O=C1C2=CC=CC=C2ON1C3(C(OC(C4=CC=CC=C4)C5=CC=CC=C5)=O)OC(CC3)=O

> <Chemgauss4>
-7.631234

> <ref_pdb>
x1418_0

$$$$
x0855
  -OEChem-05172015543D

 13 14  0     1  0  0  0  0  0999 V2000
   10.6500    0.5403   21.2498 C   0  0  0  0  0  0  0  0  0  0  0  0
    9.1258   -1.0391   21.1180 C   0  0  0  0  0  0  0  0  0  0  0  0
   10.2473   -0.6799   21.8249 C   0  0  0  0  0  0  0  0  0  0  0  0
   11.4112   -0.0602   24.9536 C   0  0  0  0  0  0  0  0  0  0  0  0
   10.3946   -1.0463   24.3685 C   0  0  0  0  0  0  0  0  0  0  0  0
   12.5670    0.0187   23.9605 C   0  0  0  0  0  0  0  0  0  0  0  0
   10.9054   -1.4338   22.9686 C   0  0  2  0  0  0  0  0  0  0  0  0
   12.4299   -1.2400   23.1070 C   0  0  1  0  0  0  0  0  0  0  0  0
    7.8719    0.0143   19.2216 C   0  0  0  0  0  0  0  0  0  0  0  0
   13.2303   -1.1744   21.8151 C   0  0  0  0  0  0  0  0  0  0  0  0
    9.8494    0.9301   20.2542 N   0  0  0  0  0  0  0  0  0  0  0  0
    8.9326   -0.0509   20.1981 N   0  0  0  0  0  0  0  0  0  0  0  0
   14.5279   -1.4404   22.1034 F   0  0  0  0  0  0  0  0  0  0  0  0
  1  3  1  0  0  0  0
  1 11  2  0  0  0  0
  2  3  2  0  0  0  0
  2 12  1  0  0  0  0
  3  7  1  0  0  0  0
  4  5  1  0  0  0  0
  4  6  1  0  0  0  0
  5  7  1  0  0  0  0
  6  8  1  0  0  0  0
  7  8  1  0  0  0  0
  8 10  1  0  0  0  0
  9 12  1  0  0  0  0
 10 13  1  0  0  0  0
 11 12  1  0  0  0  0
M  END
> <ref_mols>
x0855_0

> <original SMILES>
FC[C@@H]1[C@H](C2=CN(C)N=C2)CCC1

> <Chemgauss4>
-7.629183

> <ref_pdb>
x0678_0

$$$$
x1080
  -OEChem-05172015543D

 15 15  0     0  0  0  0  0  0999 V2000
   11.5980    2.1967   23.6725 C   0  0  0  0  0  0  0  0  0  0  0  0
   12.0738    0.8860   23.7099 C   0  0  0  0  0  0  0  0  0  0  0  0
   13.8159    1.4737   22.1425 C   0  0  0  0  0  0  0  0  0  0  0  0
   12.2312    3.1459   22.8700 C   0  0  0  0  0  0  0  0  0  0  0  0
   13.3401    2.7843   22.1051 C   0  0  0  0  0  0  0  0  0  0  0  0
   13.1827    0.5245   22.9450 C   0  0  0  0  0  0  0  0  0  0  0  0
   11.7263    5.4490   25.0365 C   0  0  0  0  0  0  0  0  0  0  0  0
   14.9683   -1.1153   24.3149 C   0  0  0  0  0  0  0  0  0  0  0  0
   10.9168    5.0216   23.8598 C   0  0  0  0  0  0  0  0  0  0  0  0
   11.7479    4.4704   22.8346 N   0  0  0  0  0  0  0  0  0  0  0  0
   12.6757   -1.9824   23.3839 O   0  0  0  0  0  0  0  0  0  0  0  0
   14.5106   -1.3883   21.7635 O   0  0  0  0  0  0  0  0  0  0  0  0
   13.9565    3.6886   21.3307 F   0  0  0  0  0  0  0  0  0  0  0  0
   13.7785   -1.1160   22.9929 S   0  0  0  0  0  0  0  0  0  0  0  0
   12.0115    5.0293   22.0452 H   0  0  0  0  0  0  0  0  0  0  0  0
  1  2  2  0  0  0  0
  1  4  1  0  0  0  0
  2  6  1  0  0  0  0
  3  5  1  0  0  0  0
  3  6  2  0  0  0  0
  4  5  2  0  0  0  0
  4 10  1  0  0  0  0
  5 13  1  0  0  0  0
  6 14  1  0  0  0  0
  7  9  1  0  0  0  0
  8 14  1  0  0  0  0
  9 10  1  0  0  0  0
 11 14  2  0  0  0  0
 12 14  2  0  0  0  0
 10 15  1  0  0  0  0
M  END
> <ref_mols>
x1080_0

> <original SMILES>
CCNC=1C=CC(=CC1F)S(=O)(=O)C

> <Chemgauss4>
-7.626258

> <ref_pdb>
x0195_0

$$$$
x0592
  -OEChem-05172015543D

 15 15  0     0  0  0  0  0  0999 V2000
   11.5980    2.1967   23.6725 C   0  0  0  0  0  0  0  0  0  0  0  0
   12.0738    0.8860   23.7099 C   0  0  0  0  0  0  0  0  0  0  0  0
   13.8159    1.4737   22.1425 C   0  0  0  0  0  0  0  0  0  0  0  0
   12.2312    3.1459   22.8700 C   0  0  0  0  0  0  0  0  0  0  0  0
   13.3401    2.7843   22.1051 C   0  0  0  0  0  0  0  0  0  0  0  0
   13.1827    0.5245   22.9450 C   0  0  0  0  0  0  0  0  0  0  0  0
   11.7263    5.4490   25.0365 C   0  0  0  0  0  0  0  0  0  0  0  0
   14.9683   -1.1153   24.3149 C   0  0  0  0  0  0  0  0  0  0  0  0
   10.9168    5.0216   23.8598 C   0  0  0  0  0  0  0  0  0  0  0  0
   11.7479    4.4704   22.8346 N   0  0  0  0  0  0  0  0  0  0  0  0
   12.6757   -1.9824   23.3839 O   0  0  0  0  0  0  0  0  0  0  0  0
   14.5106   -1.3883   21.7635 O   0  0  0  0  0  0  0  0  0  0  0  0
   13.9565    3.6886   21.3307 F   0  0  0  0  0  0  0  0  0  0  0  0
   13.7785   -1.1160   22.9929 S   0  0  0  0  0  0  0  0  0  0  0  0
   12.0115    5.0293   22.0452 H   0  0  0  0  0  0  0  0  0  0  0  0
  1  2  2  0  0  0  0
  1  4  1  0  0  0  0
  2  6  1  0  0  0  0
  3  5  1  0  0  0  0
  3  6  2  0  0  0  0
  4  5  2  0  0  0  0
  4 10  1  0  0  0  0
  5 13  1  0  0  0  0
  6 14  1  0  0  0  0
  7  9  1  0  0  0  0
  8 14  1  0  0  0  0
  9 10  1  0  0  0  0
 11 14  2  0  0  0  0
 12 14  2  0  0  0  0
 10 15  1  0  0  0  0
M  END
> <ref_mols>
x0592_0

> <original SMILES>
CCNC=1C=CC(=CC1F)S(=O)(=O)C

> <Chemgauss4>
-7.626258

> <ref_pdb>
x0195_0

$$$$
x0641
  -OEChem-05172015543D

 19 19  0     0  0  0  0  0  0999 V2000
    9.0460   -2.5852   23.1380 C   0  0  0  0  0  0  0  0  0  0  0  0
    9.8891   -4.5749   24.2186 C   0  0  0  0  0  0  0  0  0  0  0  0
    8.0566   -3.3440   22.5128 C   0  0  0  0  0  0  0  0  0  0  0  0
    8.8996   -5.3337   23.5933 C   0  0  0  0  0  0  0  0  0  0  0  0
    9.9623   -3.2007   23.9909 C   0  0  0  0  0  0  0  0  0  0  0  0
    7.9834   -4.7182   22.7404 C   0  0  0  0  0  0  0  0  0  0  0  0
   11.9586   -2.8775   25.5032 C   0  0  0  0  0  0  0  0  0  0  0  0
   14.2933   -2.4155   26.3107 C   0  0  0  0  0  0  0  0  0  0  0  0
   13.3180   -0.9901   24.5421 C   0  0  0  0  0  0  0  0  0  0  0  0
    5.4866   -5.5753   23.1095 N   0  0  0  0  0  0  0  0  0  0  0  0
   10.9675   -2.4299   24.6261 N   0  0  0  0  0  0  0  0  0  0  0  0
   13.1517   -2.1196   25.4544 N   0  0  0  0  0  0  0  0  0  0  0  0
   11.8244   -3.8294   26.2752 O   0  0  0  0  0  0  0  0  0  0  0  0
    6.3276   -4.9717   20.7486 O   0  0  0  0  0  0  0  0  0  0  0  0
    7.2030   -7.0480   21.8759 O   0  0  0  0  0  0  0  0  0  0  0  0
    6.7451   -5.6680   21.9576 S   0  0  0  0  0  0  0  0  0  0  0  0
    4.6653   -5.0020   22.8809 H   0  0  0  0  0  0  0  0  0  0  0  0
    5.2657   -6.4198   23.6511 H   0  0  0  0  0  0  0  0  0  0  0  0
   10.9675   -1.4361   24.4196 H   0  0  0  0  0  0  0  0  0  0  0  0
  1  3  2  0  0  0  0
  1  5  1  0  0  0  0
  2  4  1  0  0  0  0
  2  5  2  0  0  0  0
  3  6  1  0  0  0  0
  4  6  2  0  0  0  0
  5 11  1  0  0  0  0
  6 16  1  0  0  0  0
  7 11  1  0  0  0  0
  7 12  1  0  0  0  0
  7 13  2  0  0  0  0
  8 12  1  0  0  0  0
  9 12  1  0  0  0  0
 10 16  1  0  0  0  0
 14 16  2  0  0  0  0
 15 16  2  0  0  0  0
 10 17  1  0  0  0  0
 10 18  1  0  0  0  0
 11 19  1  0  0  0  0
M  END
> <ref_mols>
x0641_0

> <original SMILES>
CN(C)C(=O)NC=1C=CC(=CC1)S(=O)(=O)N

> <Chemgauss4>
-7.623562

> <ref_pdb>
x0749_0

$$$$
x1018
  -OEChem-05172015543D

  8  8  0     0  0  0  0  0  0999 V2000
    6.0768    1.1993   19.1345 C   0  0  0  0  0  0  0  0  0  0  0  0
    6.7700    1.0416   20.2606 C   0  0  0  0  0  0  0  0  0  0  0  0
    6.6936    0.6708   17.9125 C   0  0  0  0  0  0  0  0  0  0  0  0
    8.0844    0.3634   20.2276 C   0  0  0  0  0  0  0  0  0  0  0  0
    7.8351    0.0734   17.8310 N   0  0  0  0  0  0  0  0  0  0  0  0
    8.5175   -0.0724   18.9949 N   0  0  0  0  0  0  0  0  0  0  0  0
    8.7252    0.2165   21.2663 O   0  0  0  0  0  0  0  0  0  0  0  0
    9.4179   -0.5393   18.9538 H   0  0  0  0  0  0  0  0  0  0  0  0
  1  2  2  0  0  0  0
  1  3  1  0  0  0  0
  2  4  1  0  0  0  0
  3  5  2  0  0  0  0
  4  6  1  0  0  0  0
  4  7  2  0  0  0  0
  5  6  1  0  0  0  0
  6  8  1  0  0  0  0
M  END
> <ref_mols>
x1018_0

> <original SMILES>
O=C1C=CC=NN1

> <Chemgauss4>
-7.623253

> <ref_pdb>
x0678_0

$$$$
x0837
  -OEChem-05172015543D

 19 20  0     1  0  0  0  0  0999 V2000
   11.7335   -0.0510   23.2694 C   0  0  0  0  0  0  0  0  0  0  0  0
   13.8830    0.7964   22.5633 C   0  0  0  0  0  0  0  0  0  0  0  0
   12.2519   -1.3457   23.2937 C   0  0  0  0  0  0  0  0  0  0  0  0
   14.4014   -0.4983   22.5876 C   0  0  0  0  0  0  0  0  0  0  0  0
   12.5490    1.0201   22.9042 C   0  0  0  0  0  0  0  0  0  0  0  0
   13.5858   -1.5694   22.9529 C   0  0  0  0  0  0  0  0  0  0  0  0
   10.8361    2.3740   21.8577 C   0  0  0  0  0  0  0  0  0  0  0  0
   10.9250    4.2965   24.3203 C   0  0  0  0  0  0  0  0  0  0  0  0
   11.4271    2.8514   24.2589 C   0  0  0  0  0  0  0  0  0  0  0  0
   11.9536    5.2795   23.7973 C   0  0  0  0  0  0  0  0  0  0  0  0
   12.9488    3.5091   22.3373 C   0  0  0  0  0  0  0  0  0  0  0  0
   11.9804    2.4427   22.8780 C   0  0  1  0  0  0  0  0  0  0  0  0
    8.5211    1.9450   21.6560 C   0  0  0  0  0  0  0  0  0  0  0  0
   12.3444    4.8756   22.4183 N   0  3  0  0  0  0  0  0  0  0  0  0
   10.9717    2.5881   20.6606 O   0  0  0  0  0  0  0  0  0  0  0  0
    9.6767    2.0438   22.4945 O   0  0  0  0  0  0  0  0  0  0  0  0
   14.0845   -2.8123   22.9788 F   0  0  0  0  0  0  0  0  0  0  0  0
   11.5256    4.9300   21.7965 H   0  0  0  0  0  0  0  0  0  0  0  0
   13.0174    5.5601   22.0467 H   0  0  0  0  0  0  0  0  0  0  0  0
  1  3  2  0  0  0  0
  1  5  1  0  0  0  0
  2  4  1  0  0  0  0
  2  5  2  0  0  0  0
  3  6  1  0  0  0  0
  4  6  2  0  0  0  0
  5 12  1  0  0  0  0
  6 17  1  0  0  0  0
  7 12  1  0  0  0  0
  7 15  2  0  0  0  0
  7 16  1  0  0  0  0
  8  9  1  0  0  0  0
  8 10  1  0  0  0  0
  9 12  1  0  0  0  0
 10 14  1  0  0  0  0
 11 12  1  0  0  0  0
 11 14  1  0  0  0  0
 13 16  1  0  0  0  0
 14 18  1  0  0  0  0
 14 19  1  0  0  0  0
M  CHG  1  14   1
M  END
> <ref_mols>
x0837_0

> <original SMILES>
O=C(OC)C1(C2=CC=C(F)C=C2)CNCCC1

> <Chemgauss4>
-7.617676

> <ref_pdb>
x0195_0

$$$$
x0639
  -OEChem-05172015543D

 15 16  0     0  0  0  0  0  0999 V2000
   11.9641   -0.2350   23.3609 C   0  0  0  0  0  0  0  0  0  0  0  0
   11.0227    0.5887   23.9418 C   0  0  0  0  0  0  0  0  0  0  0  0
   12.2827    2.1279   23.0181 C   0  0  0  0  0  0  0  0  0  0  0  0
   11.3222    5.2767   23.4491 C   0  0  0  0  0  0  0  0  0  0  0  0
    8.1738    6.8595   23.4103 C   0  0  0  0  0  0  0  0  0  0  0  0
    8.7887    5.5934   22.7856 C   0  0  0  0  0  0  0  0  0  0  0  0
    9.5003    7.0422   24.1711 C   0  0  0  0  0  0  0  0  0  0  0  0
   10.1840    6.2185   23.0482 C   0  0  0  0  0  0  0  0  0  0  0  0
    9.8623    0.1440   24.7388 C   0  0  0  0  0  0  0  0  0  0  0  0
   12.8044    3.4713   22.5969 C   0  0  0  0  0  0  0  0  0  0  0  0
   11.2040    1.9440   23.7466 N   0  0  0  0  0  0  0  0  0  0  0  0
   11.7418    4.4375   22.4346 N   0  0  0  0  0  0  0  0  0  0  0  0
   11.7713    5.3224   24.5883 O   0  0  0  0  0  0  0  0  0  0  0  0
   13.1271    0.7151   22.5326 S   0  0  0  0  0  0  0  0  0  0  0  0
   11.2816    4.5029   21.5316 H   0  0  0  0  0  0  0  0  0  0  0  0
  1  2  2  0  0  0  0
  1 14  1  0  0  0  0
  2  9  1  0  0  0  0
  2 11  1  0  0  0  0
  3 10  1  0  0  0  0
  3 11  2  0  0  0  0
  3 14  1  0  0  0  0
  4  8  1  0  0  0  0
  4 12  1  0  0  0  0
  4 13  2  0  0  0  0
  5  6  1  0  0  0  0
  5  7  1  0  0  0  0
  6  8  1  0  0  0  0
  7  8  1  0  0  0  0
 10 12  1  0  0  0  0
 12 15  1  0  0  0  0
M  END
> <ref_mols>
x0639_0

> <original SMILES>
CC1=CSC(CNC(=O)C2CCC2)=N1

> <Chemgauss4>
-7.613187

> <ref_pdb>
x0104_0

$$$$
x0556
  -OEChem-05172015543D

 12 12  0     0  0  0  0  0  0999 V2000
    7.3942   -1.8081   19.0482 C   0  0  0  0  0  0  0  0  0  0  0  0
    6.5377   -2.6025   19.8232 C   0  0  0  0  0  0  0  0  0  0  0  0
    6.7544   -3.1622   21.1822 C   0  0  0  0  0  0  0  0  0  0  0  0
    6.3562   -5.7551   22.9949 C   0  0  0  0  0  0  0  0  0  0  0  0
    7.5940   -5.1040   22.4785 C   0  0  0  0  0  0  0  0  0  0  0  0
    6.8119   -1.5193   17.8810 N   0  0  0  0  0  0  0  0  0  0  0  0
    5.4013   -2.8260   19.1574 N   0  0  0  0  0  0  0  0  0  0  0  0
    5.6371   -2.1549   18.0187 N   0  0  0  0  0  0  0  0  0  0  0  0
    7.3422   -4.4208   21.2398 N   0  0  0  0  0  0  0  0  0  0  0  0
    6.3956   -2.5143   22.1621 O   0  0  0  0  0  0  0  0  0  0  0  0
    4.9449   -2.1310   17.2782 H   0  0  0  0  0  0  0  0  0  0  0  0
    7.5534   -4.9191   20.3769 H   0  0  0  0  0  0  0  0  0  0  0  0
  1  2  1  0  0  0  0
  1  6  2  0  0  0  0
  2  3  1  0  0  0  0
  2  7  2  0  0  0  0
  3  9  1  0  0  0  0
  3 10  2  0  0  0  0
  4  5  1  0  0  0  0
  5  9  1  0  0  0  0
  6  8  1  0  0  0  0
  7  8  1  0  0  0  0
  8 11  1  0  0  0  0
  9 12  1  0  0  0  0
M  END
> <ref_mols>
x0556_0

> <original SMILES>
CCNC(=O)C1=CNN=N1

> <Chemgauss4>
-7.610065

> <ref_pdb>
x0397_0

$$$$
x0629
  -OEChem-05172015543D

 17 18  0     0  0  0  0  0  0999 V2000
   12.3926    0.2720   23.2294 C   0  0  0  0  0  0  0  0  0  0  0  0
   13.1850   -0.5422   22.3982 C   0  0  0  0  0  0  0  0  0  0  0  0
   11.3088   -0.5107   23.5445 C   0  0  0  0  0  0  0  0  0  0  0  0
   12.3708    2.9548   21.6226 C   0  0  0  0  0  0  0  0  0  0  0  0
   11.6273    3.8783   23.7366 C   0  0  0  0  0  0  0  0  0  0  0  0
   13.6109    3.8430   21.6324 C   0  0  0  0  0  0  0  0  0  0  0  0
   12.8467    4.7921   23.8044 C   0  0  0  0  0  0  0  0  0  0  0  0
   14.4730   -0.2060   21.7662 C   0  0  0  0  0  0  0  0  0  0  0  0
   10.1214   -0.2405   24.3771 C   0  0  0  0  0  0  0  0  0  0  0  0
   10.6425   -2.8546   22.9302 C   0  0  0  0  0  0  0  0  0  0  0  0
   12.6668    1.6799   23.6731 C   0  0  0  0  0  0  0  0  0  0  0  0
   12.6503   -1.7497   22.1980 N   0  0  0  0  0  0  0  0  0  0  0  0
   11.5103   -1.7000   22.9080 N   0  0  0  0  0  0  0  0  0  0  0  0
   11.8394    2.6494   22.9585 N   0  0  0  0  0  0  0  0  0  0  0  0
   13.3161    5.0780   22.4168 N   0  3  0  0  0  0  0  0  0  0  0  0
   14.1587    5.6713   22.4540 H   0  0  0  0  0  0  0  0  0  0  0  0
   12.6056    5.6374   21.9224 H   0  0  0  0  0  0  0  0  0  0  0  0
  1  2  1  0  0  0  0
  1  3  2  0  0  0  0
  1 11  1  0  0  0  0
  2  8  1  0  0  0  0
  2 12  2  0  0  0  0
  3  9  1  0  0  0  0
  3 13  1  0  0  0  0
  4  6  1  0  0  0  0
  4 14  1  0  0  0  0
  5  7  1  0  0  0  0
  5 14  1  0  0  0  0
  6 15  1  0  0  0  0
  7 15  1  0  0  0  0
 10 13  1  0  0  0  0
 11 14  1  0  0  0  0
 12 13  1  0  0  0  0
 15 16  1  0  0  0  0
 15 17  1  0  0  0  0
M  CHG  1  15   1
M  END
> <ref_mols>
x0629_0

> <original SMILES>
CC1=NN(C)C(C)=C1CN2CCNCC2

> <Chemgauss4>
-7.609858

> <ref_pdb>
x0195_0

$$$$
x2057
  -OEChem-05172015543D

 20 22  0     1  0  0  0  0  0999 V2000
    8.0298   -2.7345   22.4010 C   0  0  0  0  0  0  0  0  0  0  0  0
    7.9723   -3.1532   23.6766 C   0  0  0  0  0  0  0  0  0  0  0  0
    9.4335   -0.8673   21.7247 C   0  0  0  0  0  0  0  0  0  0  0  0
    6.8527   -2.7719   21.4452 C   0  0  0  0  0  0  0  0  0  0  0  0
    7.6797   -5.6429   25.6168 C   0  0  0  0  0  0  0  0  0  0  0  0
    6.9242   -5.2999   24.3550 C   0  0  0  0  0  0  0  0  0  0  0  0
    7.1803   -4.5898   26.5791 C   0  0  0  0  0  0  0  0  0  0  0  0
    6.8198   -3.7900   24.4236 C   0  0  1  0  0  0  0  0  0  0  0  0
   10.5394   -0.7742   22.8129 C   0  0  1  0  0  0  0  0  0  0  0  0
   10.3008   -2.2900   23.0182 C   0  0  2  0  0  0  0  0  0  0  0  0
   12.8110    0.1282   23.4269 C   0  0  0  0  0  0  0  0  0  0  0  0
   11.9121   -0.3745   22.3055 C   0  0  1  0  0  0  0  0  0  0  0  0
    9.2275   -2.1830   22.0208 N   0  0  0  0  0  0  0  0  0  0  0  0
    6.0235   -3.6993   21.6570 O   0  5  0  0  0  0  0  0  0  0  0  0
    8.8683   -0.0880   20.9912 O   0  0  0  0  0  0  0  0  0  0  0  0
    6.8547   -1.8709   20.5618 O   0  0  0  0  0  0  0  0  0  0  0  0
    6.9434   -3.4104   25.7993 O   0  0  0  0  0  0  0  0  0  0  0  0
   12.5304   -1.4969   21.6807 O   0  0  0  0  0  0  0  0  0  0  0  0
    9.4548   -2.8016   24.5582 S   0  0  0  0  0  0  0  0  0  0  0  0
   13.3999   -1.1972   21.3735 H   0  0  0  0  0  0  0  0  0  0  0  0
  1  2  2  0  0  0  0
  1  4  1  0  0  0  0
  1 13  1  0  0  0  0
  2  8  1  0  0  0  0
  2 19  1  0  0  0  0
  3  9  1  0  0  0  0
  3 13  1  0  0  0  0
  3 15  2  0  0  0  0
  4 14  1  0  0  0  0
  4 16  2  0  0  0  0
  5  6  1  0  0  0  0
  5  7  1  0  0  0  0
  6  8  1  0  0  0  0
  7 17  1  0  0  0  0
  8 17  1  0  0  0  0
  9 10  1  0  0  0  0
  9 12  1  0  0  0  0
 10 13  1  0  0  0  0
 10 19  1  0  0  0  0
 11 12  1  0  0  0  0
 12 18  1  0  0  0  0
 18 20  1  0  0  0  0
M  CHG  1  14  -1
M  END
> <ref_mols>
x2057_0

> <original SMILES>
[Na+].C[C@@H](O)[C@@H]1[C@H]2SC([C@H]3CCCO3)=C(N2C1=O)C([O-])=O

> <Chemgauss4>
-7.608813

> <ref_pdb>
x1392_0

$$$$
x0971
  -OEChem-05172015543D

 19 18  0     1  0  0  0  0  0999 V2000
   12.9029   -0.0113   22.6716 C   0  0  0  0  0  0  0  0  0  0  0  0
   13.0040    1.1391   22.9998 C   0  0  0  0  0  0  0  0  0  0  0  0
    7.6484   -4.1827   23.0164 C   0  0  0  0  0  0  0  0  0  0  0  0
   10.4745   -2.1866   22.7759 C   0  0  0  0  0  0  0  0  0  0  0  0
    6.2420   -2.0131   20.9891 C   0  0  0  0  0  0  0  0  0  0  0  0
    6.7564   -4.5300   24.1618 C   0  0  0  0  0  0  0  0  0  0  0  0
   12.7845   -1.4131   22.2725 C   0  0  0  0  0  0  0  0  0  0  0  0
    7.4817   -1.2544   20.5041 C   0  0  0  0  0  0  0  0  0  0  0  0
    8.6036   -1.0723   21.5256 C   0  0  0  0  0  0  0  0  0  0  0  0
    9.1179   -2.3932   22.1104 C   0  0  2  0  0  0  0  0  0  0  0  0
   11.4308   -1.7296   21.8798 N   0  0  0  0  0  0  0  0  0  0  0  0
    8.2238   -2.9267   23.1059 N   0  0  0  0  0  0  0  0  0  0  0  0
    5.5971   -1.4247   21.9043 O   0  5  0  0  0  0  0  0  0  0  0  0
    7.8112   -4.9917   22.1104 O   0  0  0  0  0  0  0  0  0  0  0  0
   10.6664   -2.3694   23.9763 O   0  0  0  0  0  0  0  0  0  0  0  0
    6.0005   -3.1131   20.4199 O   0  0  0  0  0  0  0  0  0  0  0  0
   13.1641    2.9600   23.5188 Br  0  0  0  0  0  0  0  0  0  0  0  0
   11.1918   -1.6425   20.8965 H   0  0  0  0  0  0  0  0  0  0  0  0
    8.0040   -2.3511   23.9161 H   0  0  0  0  0  0  0  0  0  0  0  0
  1  2  3  0  0  0  0
  1  7  1  0  0  0  0
  2 17  1  0  0  0  0
  3  6  1  0  0  0  0
  3 12  1  0  0  0  0
  3 14  2  0  0  0  0
  4 10  1  0  0  0  0
  4 11  1  0  0  0  0
  4 15  2  0  0  0  0
  5  8  1  0  0  0  0
  5 13  1  0  0  0  0
  5 16  2  0  0  0  0
  7 11  1  0  0  0  0
  8  9  1  0  0  0  0
  9 10  1  0  0  0  0
 10 12  1  0  0  0  0
 11 18  1  0  0  0  0
 12 19  1  0  0  0  0
M  CHG  1  13  -1
M  END
> <ref_mols>
x0971_0

> <original SMILES>
CC(=O)N[C@@H](CCC(=O)O)C(=O)NCC#CBr

> <Chemgauss4>
-7.607946

> <ref_pdb>
x0831_0

$$$$
x0483
  -OEChem-05172015543D

 14 14  0     0  0  0  0  0  0999 V2000
   13.9306   -1.5647   25.4888 C   0  0  0  0  0  0  0  0  0  0  0  0
   13.3077   -2.8118   25.5368 C   0  0  0  0  0  0  0  0  0  0  0  0
   13.3942   -0.5469   24.7000 C   0  0  0  0  0  0  0  0  0  0  0  0
   12.1484   -3.0412   24.7959 C   0  0  0  0  0  0  0  0  0  0  0  0
   12.2349   -0.7764   23.9591 C   0  0  0  0  0  0  0  0  0  0  0  0
   11.6119   -2.0235   24.0070 C   0  0  0  0  0  0  0  0  0  0  0  0
    8.5377   -3.3975   22.3395 C   0  0  0  0  0  0  0  0  0  0  0  0
    6.5387   -4.6017   21.4251 C   0  0  0  0  0  0  0  0  0  0  0  0
    8.0380   -5.7595   23.0020 C   0  0  0  0  0  0  0  0  0  0  0  0
    9.7459   -3.4987   23.2537 C   0  0  0  0  0  0  0  0  0  0  0  0
   10.4560   -2.2519   23.2683 N   0  0  0  0  0  0  0  0  0  0  0  0
    7.7366   -4.5420   22.2592 N   0  0  0  0  0  0  0  0  0  0  0  0
    8.3004   -2.3574   21.7194 O   0  0  0  0  0  0  0  0  0  0  0  0
   10.0992   -1.4825   22.7052 H   0  0  0  0  0  0  0  0  0  0  0  0
  1  2  1  0  0  0  0
  1  3  2  0  0  0  0
  2  4  2  0  0  0  0
  3  5  1  0  0  0  0
  4  6  1  0  0  0  0
  5  6  2  0  0  0  0
  6 11  1  0  0  0  0
  7 10  1  0  0  0  0
  7 12  1  0  0  0  0
  7 13  2  0  0  0  0
  8 12  1  0  0  0  0
  9 12  1  0  0  0  0
 10 11  1  0  0  0  0
 11 14  1  0  0  0  0
M  END
> <ref_mols>
x0483_0

> <original SMILES>
CN(C)C(=O)CNC=1C=CC=CC1

> <Chemgauss4>
-7.606360

> <ref_pdb>
x0749_0

$$$$
x0264
  -OEChem-05172015543D

 13 14  0     0  0  0  0  0  0999 V2000
    5.2225    0.3484   19.3406 C   0  0  0  0  0  0  0  0  0  0  0  0
    6.1735   -0.2255   18.5207 C   0  0  0  0  0  0  0  0  0  0  0  0
    6.7387   -1.5654   18.7289 C   0  0  0  0  0  0  0  0  0  0  0  0
    7.6094   -0.8554   21.0172 C   0  0  0  0  0  0  0  0  0  0  0  0
    8.0617   -3.1097   20.1355 C   0  0  0  0  0  0  0  0  0  0  0  0
    7.2854   -1.5063   22.3567 C   0  0  0  0  0  0  0  0  0  0  0  0
    7.7077   -3.6643   21.5076 C   0  0  0  0  0  0  0  0  0  0  0  0
    6.5863    0.5519   17.4501 N   0  0  0  0  0  0  0  0  0  0  0  0
    5.9661    1.7210   17.4315 N   0  0  0  0  0  0  0  0  0  0  0  0
    7.4129   -1.8164   19.9251 N   0  0  0  0  0  0  0  0  0  0  0  0
    6.5760   -2.3735   17.8158 O   0  0  0  0  0  0  0  0  0  0  0  0
    8.0357   -2.7119   22.5229 O   0  0  0  0  0  0  0  0  0  0  0  0
    4.8820    1.9017   18.6957 S   0  0  0  0  0  0  0  0  0  0  0  0
  1  2  2  0  0  0  0
  1 13  1  0  0  0  0
  2  3  1  0  0  0  0
  2  8  1  0  0  0  0
  3 10  1  0  0  0  0
  3 11  2  0  0  0  0
  4  6  1  0  0  0  0
  4 10  1  0  0  0  0
  5  7  1  0  0  0  0
  5 10  1  0  0  0  0
  6 12  1  0  0  0  0
  7 12  1  0  0  0  0
  8  9  2  0  0  0  0
  9 13  1  0  0  0  0
M  END
> <ref_mols>
x0264_0

> <original SMILES>
O=C(N1CCOCC1)C2=CSN=N2

> <Chemgauss4>
-7.600346

> <ref_pdb>
x0397_0

$$$$
x0155
  -OEChem-05172015543D

 11 12  0     0  0  0  0  0  0999 V2000
    7.9007   -6.4870   22.7644 C   0  0  0  0  0  0  0  0  0  0  0  0
    9.0563   -6.1037   23.5047 C   0  0  0  0  0  0  0  0  0  0  0  0
   11.2428   -2.4681   25.3295 C   0  0  0  0  0  0  0  0  0  0  0  0
   11.9409   -3.6272   25.5741 C   0  0  0  0  0  0  0  0  0  0  0  0
    7.1050   -5.4070   22.4514 C   0  0  0  0  0  0  0  0  0  0  0  0
    9.0998   -4.7452   23.7291 C   0  0  0  0  0  0  0  0  0  0  0  0
   10.1014   -4.0210   24.4260 C   0  0  0  0  0  0  0  0  0  0  0  0
   10.0986   -2.7201   24.6147 N   0  0  0  0  0  0  0  0  0  0  0  0
   11.1972   -4.6134   24.9897 N   0  0  0  0  0  0  0  0  0  0  0  0
    7.7513   -3.9381   23.0490 S   0  0  0  0  0  0  0  0  0  0  0  0
   11.4221   -5.5996   24.9756 H   0  0  0  0  0  0  0  0  0  0  0  0
  1  2  1  0  0  0  0
  1  5  2  0  0  0  0
  2  6  2  0  0  0  0
  3  4  2  0  0  0  0
  3  8  1  0  0  0  0
  4  9  1  0  0  0  0
  5 10  1  0  0  0  0
  6  7  1  0  0  0  0
  6 10  1  0  0  0  0
  7  8  2  0  0  0  0
  7  9  1  0  0  0  0
  9 11  1  0  0  0  0
M  END
> <ref_mols>
x0155_0

> <original SMILES>
C1=CSC(=C1)C2=NC=CN2

> <Chemgauss4>
-7.597924

> <ref_pdb>
x0749_0

$$$$
x0682
  -OEChem-05172015543D

 14 14  0     0  0  0  0  0  0999 V2000
   14.4365   -1.9343   23.5724 C   0  0  0  0  0  0  0  0  0  0  0  0
   14.1297   -0.9403   24.5015 C   0  0  0  0  0  0  0  0  0  0  0  0
   13.6382   -2.1017   22.4408 C   0  0  0  0  0  0  0  0  0  0  0  0
   13.0246   -0.1136   24.2991 C   0  0  0  0  0  0  0  0  0  0  0  0
   12.5331   -1.2750   22.2384 C   0  0  0  0  0  0  0  0  0  0  0  0
   12.2263   -0.2809   23.1676 C   0  0  0  0  0  0  0  0  0  0  0  0
    9.5101    0.3867   20.9955 C   0  0  0  0  0  0  0  0  0  0  0  0
    6.5738    0.9519   20.4474 C   0  0  0  0  0  0  0  0  0  0  0  0
   11.0365    0.6084   22.9492 C   0  0  0  0  0  0  0  0  0  0  0  0
    8.4142   -0.5094   20.4592 C   0  0  0  0  0  0  0  0  0  0  0  0
    9.9870   -0.0626   22.2170 N   0  0  0  0  0  0  0  0  0  0  0  0
    9.9062    1.3828   20.3963 O   0  0  0  0  0  0  0  0  0  0  0  0
    7.5142    0.2277   19.6594 O   0  0  0  0  0  0  0  0  0  0  0  0
    9.5794   -0.9032   22.6162 H   0  0  0  0  0  0  0  0  0  0  0  0
  1  2  1  0  0  0  0
  1  3  2  0  0  0  0
  2  4  2  0  0  0  0
  3  5  1  0  0  0  0
  4  6  1  0  0  0  0
  5  6  2  0  0  0  0
  6  9  1  0  0  0  0
  7 10  1  0  0  0  0
  7 11  1  0  0  0  0
  7 12  2  0  0  0  0
  8 13  1  0  0  0  0
  9 11  1  0  0  0  0
 10 13  1  0  0  0  0
 11 14  1  0  0  0  0
M  END
> <ref_mols>
x0682_0

> <original SMILES>
COCC(=O)NCC=1C=CC=CC1

> <Chemgauss4>
-7.594203

> <ref_pdb>
x0678_0

$$$$
x0634
  -OEChem-05172015543D

 20 20  0     0  0  0  0  0  0999 V2000
   14.0779   -2.0337   25.3992 C   0  0  0  0  0  0  0  0  0  0  0  0
   13.6478   -1.2944   24.2974 C   0  0  0  0  0  0  0  0  0  0  0  0
   13.2397   -2.9949   25.9644 C   0  0  0  0  0  0  0  0  0  0  0  0
   12.3795   -1.5161   23.7608 C   0  0  0  0  0  0  0  0  0  0  0  0
   11.9715   -3.2166   25.4278 C   0  0  0  0  0  0  0  0  0  0  0  0
   11.5413   -2.4772   24.3260 C   0  0  0  0  0  0  0  0  0  0  0  0
    9.5235   -3.8927   23.7733 C   0  0  0  0  0  0  0  0  0  0  0  0
    6.9068   -5.2633   24.3643 C   0  0  0  0  0  0  0  0  0  0  0  0
    6.0733   -4.1781   22.2693 C   0  0  0  0  0  0  0  0  0  0  0  0
    7.9367   -5.8870   22.1340 C   0  0  0  0  0  0  0  0  0  0  0  0
    7.3170   -4.7537   22.9741 C   0  0  0  0  0  0  0  0  0  0  0  0
   10.2554   -2.7020   23.7816 N   0  0  0  0  0  0  0  0  0  0  0  0
    8.3001   -3.6931   23.1382 N   0  0  0  0  0  0  0  0  0  0  0  0
    9.8743   -4.9714   24.2456 O   0  0  0  0  0  0  0  0  0  0  0  0
    6.4067   -3.6912   20.9741 O   0  0  0  0  0  0  0  0  0  0  0  0
    8.7740   -6.7254   22.9233 O   0  0  0  0  0  0  0  0  0  0  0  0
    9.8137   -1.8966   23.3451 H   0  0  0  0  0  0  0  0  0  0  0  0
    8.0864   -2.7745   22.7765 H   0  0  0  0  0  0  0  0  0  0  0  0
    5.5867   -3.3453   20.5874 H   0  0  0  0  0  0  0  0  0  0  0  0
    9.1234   -7.4078   22.3287 H   0  0  0  0  0  0  0  0  0  0  0  0
  1  2  1  0  0  0  0
  1  3  2  0  0  0  0
  2  4  2  0  0  0  0
  3  5  1  0  0  0  0
  4  6  1  0  0  0  0
  5  6  2  0  0  0  0
  6 12  1  0  0  0  0
  7 12  1  0  0  0  0
  7 13  1  0  0  0  0
  7 14  2  0  0  0  0
  8 11  1  0  0  0  0
  9 11  1  0  0  0  0
  9 15  1  0  0  0  0
 10 11  1  0  0  0  0
 10 16  1  0  0  0  0
 11 13  1  0  0  0  0
 12 17  1  0  0  0  0
 13 18  1  0  0  0  0
 15 19  1  0  0  0  0
 16 20  1  0  0  0  0
M  END
> <ref_mols>
x0634_0

> <original SMILES>
CC(CO)(CO)NC(=O)NC=1C=CC=CC1

> <Chemgauss4>
-7.592712

> <ref_pdb>
x0749_0

$$$$
x0169
  -OEChem-05172015543D

 16 16  0     0  0  0  0  0  0999 V2000
   10.1319    0.8039   21.0345 C   0  0  0  0  0  0  0  0  0  0  0  0
    9.1434   -1.3950   21.1927 C   0  0  0  0  0  0  0  0  0  0  0  0
   11.0636    0.4554   22.0123 C   0  0  0  0  0  0  0  0  0  0  0  0
   10.0751   -1.7435   22.1705 C   0  0  0  0  0  0  0  0  0  0  0  0
    9.1718   -0.1213   20.6247 C   0  0  0  0  0  0  0  0  0  0  0  0
   11.0352   -0.8182   22.5803 C   0  0  0  0  0  0  0  0  0  0  0  0
    8.2002    0.2408   19.6048 C   0  0  0  0  0  0  0  0  0  0  0  0
    5.9286    1.2019   19.1568 C   0  0  0  0  0  0  0  0  0  0  0  0
   14.6432   -2.0764   23.9816 C   0  0  0  0  0  0  0  0  0  0  0  0
   12.0323   -1.1907   23.6252 C   0  0  0  0  0  0  0  0  0  0  0  0
    7.0000    0.8111   20.0446 N   0  0  0  0  0  0  0  0  0  0  0  0
    8.4367    0.0254   18.4029 O   0  0  0  0  0  0  0  0  0  0  0  0
   13.6057   -1.7274   21.6079 O   0  0  0  0  0  0  0  0  0  0  0  0
   14.0981    0.2973   23.0327 O   0  0  0  0  0  0  0  0  0  0  0  0
   13.6391   -1.0761   22.9070 S   0  0  0  0  0  0  0  0  0  0  0  0
    6.8320    0.9068   21.0408 H   0  0  0  0  0  0  0  0  0  0  0  0
  1  3  2  0  0  0  0
  1  5  1  0  0  0  0
  2  4  1  0  0  0  0
  2  5  2  0  0  0  0
  3  6  1  0  0  0  0
  4  6  2  0  0  0  0
  5  7  1  0  0  0  0
  6 10  1  0  0  0  0
  7 11  1  0  0  0  0
  7 12  2  0  0  0  0
  8 11  1  0  0  0  0
  9 15  1  0  0  0  0
 10 15  1  0  0  0  0
 13 15  2  0  0  0  0
 14 15  2  0  0  0  0
 11 16  1  0  0  0  0
M  END
> <ref_mols>
x0169_0

> <original SMILES>
CNC(=O)C=1C=CC(CS(=O)(=O)C)=CC1

> <Chemgauss4>
-7.576478

> <ref_pdb>
x0678_0

$$$$
x1289
  -OEChem-05172015543D

 16 16  0     0  0  0  0  0  0999 V2000
   10.1319    0.8039   21.0345 C   0  0  0  0  0  0  0  0  0  0  0  0
    9.1434   -1.3950   21.1927 C   0  0  0  0  0  0  0  0  0  0  0  0
   11.0636    0.4554   22.0123 C   0  0  0  0  0  0  0  0  0  0  0  0
   10.0751   -1.7435   22.1705 C   0  0  0  0  0  0  0  0  0  0  0  0
    9.1718   -0.1213   20.6247 C   0  0  0  0  0  0  0  0  0  0  0  0
   11.0352   -0.8182   22.5803 C   0  0  0  0  0  0  0  0  0  0  0  0
    8.2002    0.2408   19.6048 C   0  0  0  0  0  0  0  0  0  0  0  0
    5.9286    1.2019   19.1568 C   0  0  0  0  0  0  0  0  0  0  0  0
   14.6432   -2.0764   23.9816 C   0  0  0  0  0  0  0  0  0  0  0  0
   12.0323   -1.1907   23.6252 C   0  0  0  0  0  0  0  0  0  0  0  0
    7.0000    0.8111   20.0446 N   0  0  0  0  0  0  0  0  0  0  0  0
    8.4367    0.0254   18.4029 O   0  0  0  0  0  0  0  0  0  0  0  0
   13.6057   -1.7274   21.6079 O   0  0  0  0  0  0  0  0  0  0  0  0
   14.0981    0.2973   23.0327 O   0  0  0  0  0  0  0  0  0  0  0  0
   13.6391   -1.0761   22.9070 S   0  0  0  0  0  0  0  0  0  0  0  0
    6.8320    0.9068   21.0408 H   0  0  0  0  0  0  0  0  0  0  0  0
  1  3  2  0  0  0  0
  1  5  1  0  0  0  0
  2  4  1  0  0  0  0
  2  5  2  0  0  0  0
  3  6  1  0  0  0  0
  4  6  2  0  0  0  0
  5  7  1  0  0  0  0
  6 10  1  0  0  0  0
  7 11  1  0  0  0  0
  7 12  2  0  0  0  0
  8 11  1  0  0  0  0
  9 15  1  0  0  0  0
 10 15  1  0  0  0  0
 13 15  2  0  0  0  0
 14 15  2  0  0  0  0
 11 16  1  0  0  0  0
M  END
> <ref_mols>
x1289_0

> <original SMILES>
CNC(=O)C=1C=CC(CS(=O)(=O)C)=CC1

> <Chemgauss4>
-7.576478

> <ref_pdb>
x0678_0

$$$$
x1041
  -OEChem-05172015543D

  8  8  0     0  0  0  0  0  0999 V2000
    7.1388    0.6684   20.6692 C   0  0  0  0  0  0  0  0  0  0  0  0
    8.2113    0.0008   20.2429 C   0  0  0  0  0  0  0  0  0  0  0  0
    6.6707    0.8329   18.1783 C   0  0  0  0  0  0  0  0  0  0  0  0
    6.2621    1.1461   19.5891 C   0  0  0  0  0  0  0  0  0  0  0  0
    7.7423    0.1716   17.8779 N   0  0  0  0  0  0  0  0  0  0  0  0
    8.4983   -0.2351   18.9269 N   0  0  0  0  0  0  0  0  0  0  0  0
    5.2343    1.7752   19.7772 O   0  0  0  0  0  0  0  0  0  0  0  0
    9.3455   -0.7561   18.7264 H   0  0  0  0  0  0  0  0  0  0  0  0
  1  2  2  0  0  0  0
  1  4  1  0  0  0  0
  2  6  1  0  0  0  0
  3  4  1  0  0  0  0
  3  5  2  0  0  0  0
  4  7  2  0  0  0  0
  5  6  1  0  0  0  0
  6  8  1  0  0  0  0
M  END
> <ref_mols>
x1041_0

> <original SMILES>
OC=1C=CN=NC1

> <Chemgauss4>
-7.560664

> <ref_pdb>
x0678_0

$$$$
x0100
  -OEChem-05172015543D

 16 16  0     0  0  0  0  0  0999 V2000
   12.7562    3.4294   22.3741 C   0  0  0  0  0  0  0  0  0  0  0  0
   13.9101    2.8017   21.9050 C   0  0  0  0  0  0  0  0  0  0  0  0
   11.8465    2.7206   23.1587 C   0  0  0  0  0  0  0  0  0  0  0  0
   14.1543    1.4651   22.2204 C   0  0  0  0  0  0  0  0  0  0  0  0
   12.0906    1.3840   23.4741 C   0  0  0  0  0  0  0  0  0  0  0  0
   13.2445    0.7562   23.0050 C   0  0  0  0  0  0  0  0  0  0  0  0
   11.1058    0.6408   24.3147 C   0  0  0  0  0  0  0  0  0  0  0  0
   13.6244   -1.4720   22.2283 C   0  0  0  0  0  0  0  0  0  0  0  0
   10.0480   -0.0408   23.5197 N   0  3  0  0  0  0  0  0  0  0  0  0
   13.4977   -0.5489   23.3032 O   0  0  0  0  0  0  0  0  0  0  0  0
   14.1086   -0.8674   21.1227 F   0  0  0  0  0  0  0  0  0  0  0  0
   12.4001   -1.9641   21.9315 F   0  0  0  0  0  0  0  0  0  0  0  0
   14.4179   -2.5096   22.5690 F   0  0  0  0  0  0  0  0  0  0  0  0
    9.7460   -0.9026   23.9826 H   0  0  0  0  0  0  0  0  0  0  0  0
   10.3960   -0.2831   22.5876 H   0  0  0  0  0  0  0  0  0  0  0  0
    9.2310    0.5663   23.4087 H   0  0  0  0  0  0  0  0  0  0  0  0
  1  2  1  0  0  0  0
  1  3  2  0  0  0  0
  2  4  2  0  0  0  0
  3  5  1  0  0  0  0
  4  6  1  0  0  0  0
  5  6  2  0  0  0  0
  5  7  1  0  0  0  0
  6 10  1  0  0  0  0
  7  9  1  0  0  0  0
  8 10  1  0  0  0  0
  8 11  1  0  0  0  0
  8 12  1  0  0  0  0
  8 13  1  0  0  0  0
  9 14  1  0  0  0  0
  9 15  1  0  0  0  0
  9 16  1  0  0  0  0
M  CHG  1   9   1
M  END
> <ref_mols>
x0100_0

> <original SMILES>
NCC=1C=CC=CC1OC(F)(F)F

> <Chemgauss4>
-7.556645

> <ref_pdb>
x0195_0

$$$$
x0298
  -OEChem-05172015543D

 13 13  0     0  0  0  0  0  0999 V2000
   12.9766   -1.1674   21.6886 C   0  0  0  0  0  0  0  0  0  0  0  0
   13.9293   -1.7516   22.5233 C   0  0  0  0  0  0  0  0  0  0  0  0
   13.1559   -0.3871   24.3610 C   0  0  0  0  0  0  0  0  0  0  0  0
   12.1136   -0.1930   22.1901 C   0  0  0  0  0  0  0  0  0  0  0  0
   14.0189   -1.3615   23.8595 C   0  0  0  0  0  0  0  0  0  0  0  0
   12.2032    0.1971   23.5263 C   0  0  0  0  0  0  0  0  0  0  0  0
   11.1213    0.4140   21.3174 C   0  0  0  0  0  0  0  0  0  0  0  0
   15.0376   -1.9863   24.7517 C   0  0  0  0  0  0  0  0  0  0  0  0
    9.8706   -0.1917   21.2389 N   0  0  0  0  0  0  0  0  0  0  0  0
   11.3808    1.4298   20.6485 O   0  0  0  0  0  0  0  0  0  0  0  0
   11.3785    1.1322   24.0188 F   0  0  0  0  0  0  0  0  0  0  0  0
    9.6890   -1.0271   21.7845 H   0  0  0  0  0  0  0  0  0  0  0  0
    9.1362    0.1842   20.6477 H   0  0  0  0  0  0  0  0  0  0  0  0
  1  2  2  0  0  0  0
  1  4  1  0  0  0  0
  2  5  1  0  0  0  0
  3  5  2  0  0  0  0
  3  6  1  0  0  0  0
  4  6  2  0  0  0  0
  4  7  1  0  0  0  0
  5  8  1  0  0  0  0
  6 11  1  0  0  0  0
  7  9  1  0  0  0  0
  7 10  2  0  0  0  0
  9 12  1  0  0  0  0
  9 13  1  0  0  0  0
M  END
> <ref_mols>
x0298_0

> <original SMILES>
CC=1C=CC(C(=O)N)=C(F)C1

> <Chemgauss4>
-7.552393

> <ref_pdb>
x0678_0

$$$$
x0346
  -OEChem-05172015543D

 12 13  0     0  0  0  0  0  0999 V2000
   14.3525   -0.8255   22.4224 C   0  0  0  0  0  0  0  0  0  0  0  0
   14.2325    0.5669   22.4453 C   0  0  0  0  0  0  0  0  0  0  0  0
   13.3249   -1.6431   22.8888 C   0  0  0  0  0  0  0  0  0  0  0  0
   10.9682    1.1924   23.8589 C   0  0  0  0  0  0  0  0  0  0  0  0
   11.4006    2.4805   23.6430 C   0  0  0  0  0  0  0  0  0  0  0  0
   11.9989    0.3115   23.4270 C   0  0  0  0  0  0  0  0  0  0  0  0
   13.0450    1.1059   22.9529 C   0  0  0  0  0  0  0  0  0  0  0  0
   12.1426   -1.0899   23.3938 C   0  0  0  0  0  0  0  0  0  0  0  0
   10.1787   -2.3335   22.8920 C   0  0  0  0  0  0  0  0  0  0  0  0
   12.6541    2.4181   23.0960 N   0  0  0  0  0  0  0  0  0  0  0  0
   11.1514   -1.9202   23.8448 O   0  0  0  0  0  0  0  0  0  0  0  0
   13.2126    3.2190   22.8351 H   0  0  0  0  0  0  0  0  0  0  0  0
  1  2  1  0  0  0  0
  1  3  2  0  0  0  0
  2  7  2  0  0  0  0
  3  8  1  0  0  0  0
  4  5  2  0  0  0  0
  4  6  1  0  0  0  0
  5 10  1  0  0  0  0
  6  7  1  0  0  0  0
  6  8  2  0  0  0  0
  7 10  1  0  0  0  0
  8 11  1  0  0  0  0
  9 11  1  0  0  0  0
 10 12  1  0  0  0  0
M  END
> <ref_mols>
x0346_0

> <original SMILES>
COC=1C=CC=C2NC=CC12

> <Chemgauss4>
-7.549317

> <ref_pdb>
x0195_0

$$$$
x0079
  -OEChem-05172015543D

 15 15  0     1  0  0  0  0  0999 V2000
   13.4137   -2.1457   22.8490 C   0  0  0  0  0  0  0  0  0  0  0  0
   14.4561   -1.2343   23.0173 C   0  0  0  0  0  0  0  0  0  0  0  0
   12.0932   -1.6973   22.8196 C   0  0  0  0  0  0  0  0  0  0  0  0
   14.1781    0.1255   23.1562 C   0  0  0  0  0  0  0  0  0  0  0  0
   11.8151   -0.3375   22.9586 C   0  0  0  0  0  0  0  0  0  0  0  0
   12.8575    0.5739   23.1269 C   0  0  0  0  0  0  0  0  0  0  0  0
   11.2744    2.4244   22.5194 C   0  0  0  0  0  0  0  0  0  0  0  0
   13.7153    2.9508   22.8292 C   0  0  0  0  0  0  0  0  0  0  0  0
   12.5538    2.0552   23.2784 C   0  0  2  0  0  0  0  0  0  0  0  0
   14.9084    5.3193   22.9620 N   0  0  0  0  0  0  0  0  0  0  0  0
   12.6676    5.0735   21.7232 O   0  0  0  0  0  0  0  0  0  0  0  0
   12.7168    4.9074   24.2442 O   0  0  0  0  0  0  0  0  0  0  0  0
   13.3317    4.6719   22.9502 S   0  0  0  0  0  0  0  0  0  0  0  0
   15.2232    5.8284   22.1269 H   0  0  0  0  0  0  0  0  0  0  0  0
   15.2567    5.7150   23.8439 H   0  0  0  0  0  0  0  0  0  0  0  0
  1  2  1  0  0  0  0
  1  3  2  0  0  0  0
  2  4  2  0  0  0  0
  3  5  1  0  0  0  0
  4  6  1  0  0  0  0
  5  6  2  0  0  0  0
  6  9  1  0  0  0  0
  7  9  1  0  0  0  0
  8  9  1  0  0  0  0
  8 13  1  0  0  0  0
 10 13  1  0  0  0  0
 11 13  2  0  0  0  0
 12 13  2  0  0  0  0
 10 14  1  0  0  0  0
 10 15  1  0  0  0  0
M  END
> <ref_mols>
x0079_0

> <original SMILES>
CC(CS(=O)(=O)N)C=1C=CC=CC1

> <Chemgauss4>
-7.548541

> <ref_pdb>
x0195_0

$$$$
x1191
  -OEChem-05172015543D

 15 15  0     1  0  0  0  0  0999 V2000
   13.4137   -2.1457   22.8490 C   0  0  0  0  0  0  0  0  0  0  0  0
   14.4561   -1.2343   23.0173 C   0  0  0  0  0  0  0  0  0  0  0  0
   12.0932   -1.6973   22.8196 C   0  0  0  0  0  0  0  0  0  0  0  0
   14.1781    0.1255   23.1562 C   0  0  0  0  0  0  0  0  0  0  0  0
   11.8151   -0.3375   22.9586 C   0  0  0  0  0  0  0  0  0  0  0  0
   12.8575    0.5739   23.1269 C   0  0  0  0  0  0  0  0  0  0  0  0
   11.2744    2.4244   22.5194 C   0  0  0  0  0  0  0  0  0  0  0  0
   13.7153    2.9508   22.8292 C   0  0  0  0  0  0  0  0  0  0  0  0
   12.5538    2.0552   23.2784 C   0  0  2  0  0  0  0  0  0  0  0  0
   14.9084    5.3193   22.9620 N   0  0  0  0  0  0  0  0  0  0  0  0
   12.6676    5.0735   21.7232 O   0  0  0  0  0  0  0  0  0  0  0  0
   12.7168    4.9074   24.2442 O   0  0  0  0  0  0  0  0  0  0  0  0
   13.3317    4.6719   22.9502 S   0  0  0  0  0  0  0  0  0  0  0  0
   15.2232    5.8284   22.1269 H   0  0  0  0  0  0  0  0  0  0  0  0
   15.2567    5.7150   23.8439 H   0  0  0  0  0  0  0  0  0  0  0  0
  1  2  1  0  0  0  0
  1  3  2  0  0  0  0
  2  4  2  0  0  0  0
  3  5  1  0  0  0  0
  4  6  1  0  0  0  0
  5  6  2  0  0  0  0
  6  9  1  0  0  0  0
  7  9  1  0  0  0  0
  8  9  1  0  0  0  0
  8 13  1  0  0  0  0
 10 13  1  0  0  0  0
 11 13  2  0  0  0  0
 12 13  2  0  0  0  0
 10 14  1  0  0  0  0
 10 15  1  0  0  0  0
M  END
> <ref_mols>
x1191_0

> <original SMILES>
CC(CS(=O)(=O)N)C=1C=CC=CC1

> <Chemgauss4>
-7.548541

> <ref_pdb>
x0195_0

$$$$
x1468
  -OEChem-05172015543D

 21 22  0     0  0  0  0  0  0999 V2000
   11.8423    1.6890   24.7587 C   0  0  0  0  0  0  0  0  0  0  0  0
   10.9027    0.6631   24.8600 C   0  0  0  0  0  0  0  0  0  0  0  0
   13.0241    0.4391   23.0622 C   0  0  0  0  0  0  0  0  0  0  0  0
   12.9030    1.5770   23.8598 C   0  0  0  0  0  0  0  0  0  0  0  0
   12.0845   -0.5868   23.1635 C   0  0  0  0  0  0  0  0  0  0  0  0
   11.0237   -0.4748   24.0625 C   0  0  0  0  0  0  0  0  0  0  0  0
    6.1198   -1.6379   19.5875 C   0  0  0  0  0  0  0  0  0  0  0  0
    7.9605   -0.4599   20.8531 C   0  0  0  0  0  0  0  0  0  0  0  0
    6.9961   -2.5926   21.6935 C   0  0  0  0  0  0  0  0  0  0  0  0
    8.4787   -0.3876   22.2840 C   0  0  0  0  0  0  0  0  0  0  0  0
    8.4057   -2.9029   22.1793 C   0  0  0  0  0  0  0  0  0  0  0  0
   13.9076    2.6743   23.7519 C   0  0  0  0  0  0  0  0  0  0  0  0
   12.2424   -1.7916   22.2947 C   0  0  0  0  0  0  0  0  0  0  0  0
    6.1924   -0.5170   18.5795 C   0  0  0  0  0  0  0  0  0  0  0  0
    6.9993   -1.5512   20.6671 N   0  0  0  0  0  0  0  0  0  0  0  0
    9.1074   -1.6797   22.6665 N   0  0  0  0  0  0  0  0  0  0  0  0
    5.3091   -2.5528   19.4250 O   0  0  0  0  0  0  0  0  0  0  0  0
   10.5185   -3.0111   24.3539 O   0  0  0  0  0  0  0  0  0  0  0  0
    8.8417   -1.3309   25.1983 O   0  0  0  0  0  0  0  0  0  0  0  0
    9.8165   -1.7534   24.2159 S   0  0  0  0  0  0  0  0  0  0  0  0
    5.0329    0.7019   19.0971 Cl  0  0  0  0  0  0  0  0  0  0  0  0
  1  2  2  0  0  0  0
  1  4  1  0  0  0  0
  2  6  1  0  0  0  0
  3  4  2  0  0  0  0
  3  5  1  0  0  0  0
  4 12  1  0  0  0  0
  5  6  2  0  0  0  0
  5 13  1  0  0  0  0
  6 20  1  0  0  0  0
  7 14  1  0  0  0  0
  7 15  1  0  0  0  0
  7 17  2  0  0  0  0
  8 10  1  0  0  0  0
  8 15  1  0  0  0  0
  9 11  1  0  0  0  0
  9 15  1  0  0  0  0
 10 16  1  0  0  0  0
 11 16  1  0  0  0  0
 14 21  1  0  0  0  0
 16 20  1  0  0  0  0
 18 20  2  0  0  0  0
 19 20  2  0  0  0  0
M  END
> <ref_mols>
x1468_0

> <original SMILES>
Cc1ccc(c(C)c1)S(=O)(=O)N2CCN(CC2)C(=O)CCl

> <Chemgauss4>
-7.543831

> <ref_pdb>
x0831_0

$$$$
x1488
  -OEChem-05172015543D

 21 22  0     0  0  0  0  0  0999 V2000
   11.8423    1.6890   24.7587 C   0  0  0  0  0  0  0  0  0  0  0  0
   10.9027    0.6631   24.8600 C   0  0  0  0  0  0  0  0  0  0  0  0
   13.0241    0.4391   23.0622 C   0  0  0  0  0  0  0  0  0  0  0  0
   12.9030    1.5770   23.8598 C   0  0  0  0  0  0  0  0  0  0  0  0
   12.0845   -0.5868   23.1635 C   0  0  0  0  0  0  0  0  0  0  0  0
   11.0237   -0.4748   24.0625 C   0  0  0  0  0  0  0  0  0  0  0  0
    6.1198   -1.6379   19.5875 C   0  0  0  0  0  0  0  0  0  0  0  0
    7.9605   -0.4599   20.8531 C   0  0  0  0  0  0  0  0  0  0  0  0
    6.9961   -2.5926   21.6935 C   0  0  0  0  0  0  0  0  0  0  0  0
    8.4787   -0.3876   22.2840 C   0  0  0  0  0  0  0  0  0  0  0  0
    8.4057   -2.9029   22.1793 C   0  0  0  0  0  0  0  0  0  0  0  0
   13.9076    2.6743   23.7519 C   0  0  0  0  0  0  0  0  0  0  0  0
   12.2424   -1.7916   22.2947 C   0  0  0  0  0  0  0  0  0  0  0  0
    6.1924   -0.5170   18.5795 C   0  0  0  0  0  0  0  0  0  0  0  0
    6.9993   -1.5512   20.6671 N   0  0  0  0  0  0  0  0  0  0  0  0
    9.1074   -1.6797   22.6665 N   0  0  0  0  0  0  0  0  0  0  0  0
    5.3091   -2.5528   19.4250 O   0  0  0  0  0  0  0  0  0  0  0  0
   10.5185   -3.0111   24.3539 O   0  0  0  0  0  0  0  0  0  0  0  0
    8.8417   -1.3309   25.1983 O   0  0  0  0  0  0  0  0  0  0  0  0
    9.8165   -1.7534   24.2159 S   0  0  0  0  0  0  0  0  0  0  0  0
    5.0329    0.7019   19.0971 Cl  0  0  0  0  0  0  0  0  0  0  0  0
  1  2  2  0  0  0  0
  1  4  1  0  0  0  0
  2  6  1  0  0  0  0
  3  4  2  0  0  0  0
  3  5  1  0  0  0  0
  4 12  1  0  0  0  0
  5  6  2  0  0  0  0
  5 13  1  0  0  0  0
  6 20  1  0  0  0  0
  7 14  1  0  0  0  0
  7 15  1  0  0  0  0
  7 17  2  0  0  0  0
  8 10  1  0  0  0  0
  8 15  1  0  0  0  0
  9 11  1  0  0  0  0
  9 15  1  0  0  0  0
 10 16  1  0  0  0  0
 11 16  1  0  0  0  0
 14 21  1  0  0  0  0
 16 20  1  0  0  0  0
 18 20  2  0  0  0  0
 19 20  2  0  0  0  0
M  END
> <ref_mols>
x1488_0

> <original SMILES>
Cc1ccc(c(C)c1)S(=O)(=O)N2CCN(CC2)C(=O)CCl

> <Chemgauss4>
-7.543831

> <ref_pdb>
x0831_0

> <CYS145-warhead dist minimum (A)>
3.8669257

> <CYS145-warhead dist mean (A)>
7.8876514

> <CYS145-warhead dist stddev (A)>
1.2381928

$$$$
x0697
  -OEChem-05172015543D

 21 22  0     0  0  0  0  0  0999 V2000
   11.8423    1.6890   24.7587 C   0  0  0  0  0  0  0  0  0  0  0  0
   10.9027    0.6631   24.8600 C   0  0  0  0  0  0  0  0  0  0  0  0
   13.0241    0.4391   23.0622 C   0  0  0  0  0  0  0  0  0  0  0  0
   12.9030    1.5770   23.8598 C   0  0  0  0  0  0  0  0  0  0  0  0
   12.0845   -0.5868   23.1635 C   0  0  0  0  0  0  0  0  0  0  0  0
   11.0237   -0.4748   24.0625 C   0  0  0  0  0  0  0  0  0  0  0  0
    6.1198   -1.6379   19.5875 C   0  0  0  0  0  0  0  0  0  0  0  0
    7.9605   -0.4599   20.8531 C   0  0  0  0  0  0  0  0  0  0  0  0
    6.9961   -2.5926   21.6935 C   0  0  0  0  0  0  0  0  0  0  0  0
    8.4787   -0.3876   22.2840 C   0  0  0  0  0  0  0  0  0  0  0  0
    8.4057   -2.9029   22.1793 C   0  0  0  0  0  0  0  0  0  0  0  0
   13.9076    2.6743   23.7519 C   0  0  0  0  0  0  0  0  0  0  0  0
   12.2424   -1.7916   22.2947 C   0  0  0  0  0  0  0  0  0  0  0  0
    6.1924   -0.5170   18.5795 C   0  0  0  0  0  0  0  0  0  0  0  0
    6.9993   -1.5512   20.6671 N   0  0  0  0  0  0  0  0  0  0  0  0
    9.1074   -1.6797   22.6665 N   0  0  0  0  0  0  0  0  0  0  0  0
    5.3091   -2.5528   19.4250 O   0  0  0  0  0  0  0  0  0  0  0  0
   10.5185   -3.0111   24.3539 O   0  0  0  0  0  0  0  0  0  0  0  0
    8.8417   -1.3309   25.1983 O   0  0  0  0  0  0  0  0  0  0  0  0
    9.8165   -1.7534   24.2159 S   0  0  0  0  0  0  0  0  0  0  0  0
    5.0329    0.7019   19.0971 Cl  0  0  0  0  0  0  0  0  0  0  0  0
  1  2  2  0  0  0  0
  1  4  1  0  0  0  0
  2  6  1  0  0  0  0
  3  4  2  0  0  0  0
  3  5  1  0  0  0  0
  4 12  1  0  0  0  0
  5  6  2  0  0  0  0
  5 13  1  0  0  0  0
  6 20  1  0  0  0  0
  7 14  1  0  0  0  0
  7 15  1  0  0  0  0
  7 17  2  0  0  0  0
  8 10  1  0  0  0  0
  8 15  1  0  0  0  0
  9 11  1  0  0  0  0
  9 15  1  0  0  0  0
 10 16  1  0  0  0  0
 11 16  1  0  0  0  0
 14 21  1  0  0  0  0
 16 20  1  0  0  0  0
 18 20  2  0  0  0  0
 19 20  2  0  0  0  0
M  END
> <ref_mols>
x0697_0

> <original SMILES>
Cc1ccc(c(C)c1)S(=O)(=O)N2CCN(CC2)C(=O)CCl

> <Chemgauss4>
-7.543831

> <ref_pdb>
x0831_0

$$$$
x1333
  -OEChem-05172015543D

 21 22  0     0  0  0  0  0  0999 V2000
   11.8423    1.6890   24.7587 C   0  0  0  0  0  0  0  0  0  0  0  0
   10.9027    0.6631   24.8600 C   0  0  0  0  0  0  0  0  0  0  0  0
   13.0241    0.4391   23.0622 C   0  0  0  0  0  0  0  0  0  0  0  0
   12.9030    1.5770   23.8598 C   0  0  0  0  0  0  0  0  0  0  0  0
   12.0845   -0.5868   23.1635 C   0  0  0  0  0  0  0  0  0  0  0  0
   11.0237   -0.4748   24.0625 C   0  0  0  0  0  0  0  0  0  0  0  0
    6.1198   -1.6379   19.5875 C   0  0  0  0  0  0  0  0  0  0  0  0
    7.9605   -0.4599   20.8531 C   0  0  0  0  0  0  0  0  0  0  0  0
    6.9961   -2.5926   21.6935 C   0  0  0  0  0  0  0  0  0  0  0  0
    8.4787   -0.3876   22.2840 C   0  0  0  0  0  0  0  0  0  0  0  0
    8.4057   -2.9029   22.1793 C   0  0  0  0  0  0  0  0  0  0  0  0
   13.9076    2.6743   23.7519 C   0  0  0  0  0  0  0  0  0  0  0  0
   12.2424   -1.7916   22.2947 C   0  0  0  0  0  0  0  0  0  0  0  0
    6.1924   -0.5170   18.5795 C   0  0  0  0  0  0  0  0  0  0  0  0
    6.9993   -1.5512   20.6671 N   0  0  0  0  0  0  0  0  0  0  0  0
    9.1074   -1.6797   22.6665 N   0  0  0  0  0  0  0  0  0  0  0  0
    5.3091   -2.5528   19.4250 O   0  0  0  0  0  0  0  0  0  0  0  0
   10.5185   -3.0111   24.3539 O   0  0  0  0  0  0  0  0  0  0  0  0
    8.8417   -1.3309   25.1983 O   0  0  0  0  0  0  0  0  0  0  0  0
    9.8165   -1.7534   24.2159 S   0  0  0  0  0  0  0  0  0  0  0  0
    5.0329    0.7019   19.0971 Cl  0  0  0  0  0  0  0  0  0  0  0  0
  1  2  2  0  0  0  0
  1  4  1  0  0  0  0
  2  6  1  0  0  0  0
  3  4  2  0  0  0  0
  3  5  1  0  0  0  0
  4 12  1  0  0  0  0
  5  6  2  0  0  0  0
  5 13  1  0  0  0  0
  6 20  1  0  0  0  0
  7 14  1  0  0  0  0
  7 15  1  0  0  0  0
  7 17  2  0  0  0  0
  8 10  1  0  0  0  0
  8 15  1  0  0  0  0
  9 11  1  0  0  0  0
  9 15  1  0  0  0  0
 10 16  1  0  0  0  0
 11 16  1  0  0  0  0
 14 21  1  0  0  0  0
 16 20  1  0  0  0  0
 18 20  2  0  0  0  0
 19 20  2  0  0  0  0
M  END
> <ref_mols>
x1333_0

> <original SMILES>
Cc1ccc(c(C)c1)S(=O)(=O)N2CCN(CC2)C(=O)CCl

> <Chemgauss4>
-7.543831

> <ref_pdb>
x0831_0

$$$$
x1390
  -OEChem-05172015543D

 21 22  0     0  0  0  0  0  0999 V2000
   11.8423    1.6890   24.7587 C   0  0  0  0  0  0  0  0  0  0  0  0
   10.9027    0.6631   24.8600 C   0  0  0  0  0  0  0  0  0  0  0  0
   13.0241    0.4391   23.0622 C   0  0  0  0  0  0  0  0  0  0  0  0
   12.9030    1.5770   23.8598 C   0  0  0  0  0  0  0  0  0  0  0  0
   12.0845   -0.5868   23.1635 C   0  0  0  0  0  0  0  0  0  0  0  0
   11.0237   -0.4748   24.0625 C   0  0  0  0  0  0  0  0  0  0  0  0
    6.1198   -1.6379   19.5875 C   0  0  0  0  0  0  0  0  0  0  0  0
    7.9605   -0.4599   20.8531 C   0  0  0  0  0  0  0  0  0  0  0  0
    6.9961   -2.5926   21.6935 C   0  0  0  0  0  0  0  0  0  0  0  0
    8.4787   -0.3876   22.2840 C   0  0  0  0  0  0  0  0  0  0  0  0
    8.4057   -2.9029   22.1793 C   0  0  0  0  0  0  0  0  0  0  0  0
   13.9076    2.6743   23.7519 C   0  0  0  0  0  0  0  0  0  0  0  0
   12.2424   -1.7916   22.2947 C   0  0  0  0  0  0  0  0  0  0  0  0
    6.1924   -0.5170   18.5795 C   0  0  0  0  0  0  0  0  0  0  0  0
    6.9993   -1.5512   20.6671 N   0  0  0  0  0  0  0  0  0  0  0  0
    9.1074   -1.6797   22.6665 N   0  0  0  0  0  0  0  0  0  0  0  0
    5.3091   -2.5528   19.4250 O   0  0  0  0  0  0  0  0  0  0  0  0
   10.5185   -3.0111   24.3539 O   0  0  0  0  0  0  0  0  0  0  0  0
    8.8417   -1.3309   25.1983 O   0  0  0  0  0  0  0  0  0  0  0  0
    9.8165   -1.7534   24.2159 S   0  0  0  0  0  0  0  0  0  0  0  0
    5.0329    0.7019   19.0971 Cl  0  0  0  0  0  0  0  0  0  0  0  0
  1  2  2  0  0  0  0
  1  4  1  0  0  0  0
  2  6  1  0  0  0  0
  3  4  2  0  0  0  0
  3  5  1  0  0  0  0
  4 12  1  0  0  0  0
  5  6  2  0  0  0  0
  5 13  1  0  0  0  0
  6 20  1  0  0  0  0
  7 14  1  0  0  0  0
  7 15  1  0  0  0  0
  7 17  2  0  0  0  0
  8 10  1  0  0  0  0
  8 15  1  0  0  0  0
  9 11  1  0  0  0  0
  9 15  1  0  0  0  0
 10 16  1  0  0  0  0
 11 16  1  0  0  0  0
 14 21  1  0  0  0  0
 16 20  1  0  0  0  0
 18 20  2  0  0  0  0
 19 20  2  0  0  0  0
M  END
> <ref_mols>
x1390_0

> <original SMILES>
Cc1ccc(c(C)c1)S(=O)(=O)N2CCN(CC2)C(=O)CCl

> <Chemgauss4>
-7.543831

> <ref_pdb>
x0831_0

$$$$
x0771
  -OEChem-05172015543D

 21 22  0     0  0  0  0  0  0999 V2000
   11.8423    1.6890   24.7587 C   0  0  0  0  0  0  0  0  0  0  0  0
   10.9027    0.6631   24.8600 C   0  0  0  0  0  0  0  0  0  0  0  0
   13.0241    0.4391   23.0622 C   0  0  0  0  0  0  0  0  0  0  0  0
   12.9030    1.5770   23.8598 C   0  0  0  0  0  0  0  0  0  0  0  0
   12.0845   -0.5868   23.1635 C   0  0  0  0  0  0  0  0  0  0  0  0
   11.0237   -0.4748   24.0625 C   0  0  0  0  0  0  0  0  0  0  0  0
    6.1198   -1.6379   19.5875 C   0  0  0  0  0  0  0  0  0  0  0  0
    7.9605   -0.4599   20.8531 C   0  0  0  0  0  0  0  0  0  0  0  0
    6.9961   -2.5926   21.6935 C   0  0  0  0  0  0  0  0  0  0  0  0
    8.4787   -0.3876   22.2840 C   0  0  0  0  0  0  0  0  0  0  0  0
    8.4057   -2.9029   22.1793 C   0  0  0  0  0  0  0  0  0  0  0  0
   13.9076    2.6743   23.7519 C   0  0  0  0  0  0  0  0  0  0  0  0
   12.2424   -1.7916   22.2947 C   0  0  0  0  0  0  0  0  0  0  0  0
    6.1924   -0.5170   18.5795 C   0  0  0  0  0  0  0  0  0  0  0  0
    6.9993   -1.5512   20.6671 N   0  0  0  0  0  0  0  0  0  0  0  0
    9.1074   -1.6797   22.6665 N   0  0  0  0  0  0  0  0  0  0  0  0
    5.3091   -2.5528   19.4250 O   0  0  0  0  0  0  0  0  0  0  0  0
   10.5185   -3.0111   24.3539 O   0  0  0  0  0  0  0  0  0  0  0  0
    8.8417   -1.3309   25.1983 O   0  0  0  0  0  0  0  0  0  0  0  0
    9.8165   -1.7534   24.2159 S   0  0  0  0  0  0  0  0  0  0  0  0
    5.0329    0.7019   19.0971 Cl  0  0  0  0  0  0  0  0  0  0  0  0
  1  2  2  0  0  0  0
  1  4  1  0  0  0  0
  2  6  1  0  0  0  0
  3  4  2  0  0  0  0
  3  5  1  0  0  0  0
  4 12  1  0  0  0  0
  5  6  2  0  0  0  0
  5 13  1  0  0  0  0
  6 20  1  0  0  0  0
  7 14  1  0  0  0  0
  7 15  1  0  0  0  0
  7 17  2  0  0  0  0
  8 10  1  0  0  0  0
  8 15  1  0  0  0  0
  9 11  1  0  0  0  0
  9 15  1  0  0  0  0
 10 16  1  0  0  0  0
 11 16  1  0  0  0  0
 14 21  1  0  0  0  0
 16 20  1  0  0  0  0
 18 20  2  0  0  0  0
 19 20  2  0  0  0  0
M  END
> <ref_mols>
x0771_0

> <original SMILES>
Cc1ccc(c(C)c1)S(=O)(=O)N2CCN(CC2)C(=O)CCl

> <Chemgauss4>
-7.543831

> <ref_pdb>
x0831_0

> <CYS145-warhead dist minimum (A)>
6.379485

> <CYS145-warhead dist mean (A)>
7.722277

> <CYS145-warhead dist stddev (A)>
0.44899264

$$$$
x0597
  -OEChem-05172015543D

 20 21  0     0  0  0  0  0  0999 V2000
    6.6395   -4.8858   21.2484 C   0  0  0  0  0  0  0  0  0  0  0  0
    7.7820   -3.5983   22.9853 C   0  0  0  0  0  0  0  0  0  0  0  0
    8.3153   -5.9356   22.6866 C   0  0  0  0  0  0  0  0  0  0  0  0
    8.7060   -3.5206   24.0273 C   0  0  0  0  0  0  0  0  0  0  0  0
    9.2394   -5.8580   23.7286 C   0  0  0  0  0  0  0  0  0  0  0  0
   12.2897   -1.6256   23.3775 C   0  0  0  0  0  0  0  0  0  0  0  0
   12.6630   -2.2349   25.6854 C   0  0  0  0  0  0  0  0  0  0  0  0
   12.3769   -0.2762   23.7196 C   0  0  0  0  0  0  0  0  0  0  0  0
   12.7503   -0.8855   26.0275 C   0  0  0  0  0  0  0  0  0  0  0  0
    7.5866   -4.8058   22.3150 C   0  0  0  0  0  0  0  0  0  0  0  0
    9.4347   -4.6505   24.3989 C   0  0  0  0  0  0  0  0  0  0  0  0
   12.4327   -2.6050   24.3604 C   0  0  0  0  0  0  0  0  0  0  0  0
   12.6072    0.0939   25.0446 C   0  0  0  0  0  0  0  0  0  0  0  0
   10.4237   -4.5671   25.5119 C   0  0  0  0  0  0  0  0  0  0  0  0
   12.3397   -4.0567   23.9929 C   0  0  0  0  0  0  0  0  0  0  0  0
    5.8701   -4.9507   20.3820 N   0  0  0  0  0  0  0  0  0  0  0  0
   11.8130   -4.9036   25.0947 N   0  3  0  0  0  0  0  0  0  0  0  0
   12.6937    1.3897   25.3728 F   0  0  0  0  0  0  0  0  0  0  0  0
   12.4358   -4.8250   25.9094 H   0  0  0  0  0  0  0  0  0  0  0  0
   11.8469   -5.8910   24.8087 H   0  0  0  0  0  0  0  0  0  0  0  0
  1 10  1  0  0  0  0
  1 16  3  0  0  0  0
  2  4  2  0  0  0  0
  2 10  1  0  0  0  0
  3  5  1  0  0  0  0
  3 10  2  0  0  0  0
  4 11  1  0  0  0  0
  5 11  2  0  0  0  0
  6  8  2  0  0  0  0
  6 12  1  0  0  0  0
  7  9  1  0  0  0  0
  7 12  2  0  0  0  0
  8 13  1  0  0  0  0
  9 13  2  0  0  0  0
 11 14  1  0  0  0  0
 12 15  1  0  0  0  0
 13 18  1  0  0  0  0
 14 17  1  0  0  0  0
 15 17  1  0  0  0  0
 17 19  1  0  0  0  0
 17 20  1  0  0  0  0
M  CHG  1  17   1
M  END
> <ref_mols>
x0597_0

> <original SMILES>
FC=1C=CC(CNCC=2C=CC(C#N)=CC2)=CC1

> <Chemgauss4>
-7.543612

> <ref_pdb>
x0749_0

> <CYS145-warhead dist minimum (A)>
7.3906174

> <CYS145-warhead dist mean (A)>
16.324385

> <CYS145-warhead dist stddev (A)>
4.8071766

$$$$
x0236
  -OEChem-05172015543D

 18 18  0     0  0  0  0  0  0999 V2000
    7.9475   -6.1806   23.1154 C   0  0  0  0  0  0  0  0  0  0  0  0
    9.0948   -5.9245   23.8662 C   0  0  0  0  0  0  0  0  0  0  0  0
    7.3289   -5.1468   22.4123 C   0  0  0  0  0  0  0  0  0  0  0  0
    9.0048   -3.6007   23.2109 C   0  0  0  0  0  0  0  0  0  0  0  0
    9.6234   -4.6346   23.9140 C   0  0  0  0  0  0  0  0  0  0  0  0
    7.8575   -3.8569   22.4601 C   0  0  0  0  0  0  0  0  0  0  0  0
   11.4425   -3.1605   24.8319 C   0  0  0  0  0  0  0  0  0  0  0  0
    6.0876   -2.8810   20.9530 C   0  0  0  0  0  0  0  0  0  0  0  0
   12.6487   -3.3045   25.7257 C   0  0  0  0  0  0  0  0  0  0  0  0
    5.7755   -1.6398   20.4149 N   0  0  0  0  0  0  0  0  0  0  0  0
   10.7714   -4.3792   24.6648 N   0  0  0  0  0  0  0  0  0  0  0  0
    7.2384   -2.8233   21.7565 N   0  0  0  0  0  0  0  0  0  0  0  0
   11.1453   -2.0730   24.3483 O   0  0  0  0  0  0  0  0  0  0  0  0
    5.4027   -3.8735   20.7190 O   0  0  0  0  0  0  0  0  0  0  0  0
    6.3669   -0.8448   20.6328 H   0  0  0  0  0  0  0  0  0  0  0  0
    4.9725   -1.5059   19.8098 H   0  0  0  0  0  0  0  0  0  0  0  0
   11.1798   -5.1805   25.1597 H   0  0  0  0  0  0  0  0  0  0  0  0
    7.6678   -1.8947   21.8257 H   0  0  0  0  0  0  0  0  0  0  0  0
  1  2  2  0  0  0  0
  1  3  1  0  0  0  0
  2  5  1  0  0  0  0
  3  6  2  0  0  0  0
  4  5  2  0  0  0  0
  4  6  1  0  0  0  0
  5 11  1  0  0  0  0
  6 12  1  0  0  0  0
  7  9  1  0  0  0  0
  7 11  1  0  0  0  0
  7 13  2  0  0  0  0
  8 10  1  0  0  0  0
  8 12  1  0  0  0  0
  8 14  2  0  0  0  0
 10 15  1  0  0  0  0
 10 16  1  0  0  0  0
 11 17  1  0  0  0  0
 12 18  1  0  0  0  0
M  END
> <ref_mols>
x0236_0

> <original SMILES>
CC(=O)NC=1C=CC=C(NC(=O)N)C1

> <Chemgauss4>
-7.542804

> <ref_pdb>
x0749_0

$$$$
x0041
  -OEChem-05172015543D

 13 13  0     0  0  0  0  0  0999 V2000
    9.4057   -5.0393   23.9767 C   0  0  0  0  0  0  0  0  0  0  0  0
    9.4318   -3.0285   22.6377 C   0  0  0  0  0  0  0  0  0  0  0  0
   10.4637   -4.5451   24.7395 C   0  0  0  0  0  0  0  0  0  0  0  0
   10.4898   -2.5343   23.4005 C   0  0  0  0  0  0  0  0  0  0  0  0
    8.8897   -4.2811   22.9257 C   0  0  0  0  0  0  0  0  0  0  0  0
   11.0058   -3.2926   24.4515 C   0  0  0  0  0  0  0  0  0  0  0  0
    7.7865   -4.7961   22.1304 C   0  0  0  0  0  0  0  0  0  0  0  0
    7.6814   -6.2852   21.9724 C   0  0  0  0  0  0  0  0  0  0  0  0
   12.9576   -1.9370   24.5503 C   0  0  0  0  0  0  0  0  0  0  0  0
    6.9338   -4.1024   21.5721 O   0  0  0  0  0  0  0  0  0  0  0  0
   12.0383   -2.8102   25.1955 O   0  0  0  0  0  0  0  0  0  0  0  0
   12.5001   -0.6685   24.7117 F   0  0  0  0  0  0  0  0  0  0  0  0
   14.1527   -1.9997   25.1873 F   0  0  0  0  0  0  0  0  0  0  0  0
  1  3  2  0  0  0  0
  1  5  1  0  0  0  0
  2  4  1  0  0  0  0
  2  5  2  0  0  0  0
  3  6  1  0  0  0  0
  4  6  2  0  0  0  0
  5  7  1  0  0  0  0
  6 11  1  0  0  0  0
  7  8  1  0  0  0  0
  7 10  2  0  0  0  0
  9 11  1  0  0  0  0
  9 12  1  0  0  0  0
  9 13  1  0  0  0  0
M  END
> <ref_mols>
x0041_0

> <original SMILES>
CC(=O)C=1C=CC(OC(F)F)=CC1

> <Chemgauss4>
-7.542289

> <ref_pdb>
x0749_0

$$$$
x0826
  -OEChem-05172015543D

 16 17  0     0  0  0  0  0  0999 V2000
    9.8746   -3.0874   23.5227 C   0  0  0  0  0  0  0  0  0  0  0  0
    8.9003   -2.9987   22.5256 C   0  0  0  0  0  0  0  0  0  0  0  0
    9.3026   -5.4180   23.9340 C   0  0  0  0  0  0  0  0  0  0  0  0
   10.0747   -4.2901   24.2229 C   0  0  0  0  0  0  0  0  0  0  0  0
    8.1516   -4.1267   22.2597 C   0  0  0  0  0  0  0  0  0  0  0  0
    8.3474   -5.3040   22.9450 C   0  0  0  0  0  0  0  0  0  0  0  0
   12.9068   -2.6655   25.5641 C   0  0  0  0  0  0  0  0  0  0  0  0
    6.7601   -5.6019   21.5050 C   0  0  0  0  0  0  0  0  0  0  0  0
   11.1208   -4.3608   25.2848 C   0  0  0  0  0  0  0  0  0  0  0  0
   13.1526   -1.2521   26.0271 C   0  0  0  0  0  0  0  0  0  0  0  0
   11.5820   -3.0562   25.6857 N   0  0  0  0  0  0  0  0  0  0  0  0
   13.8109   -3.3671   25.1139 O   0  0  0  0  0  0  0  0  0  0  0  0
    7.1644   -4.2287   21.3286 O   0  0  0  0  0  0  0  0  0  0  0  0
    7.5072   -6.2903   22.5289 O   0  0  0  0  0  0  0  0  0  0  0  0
   14.8108   -1.1608   26.6410 Cl  0  0  0  0  0  0  0  0  0  0  0  0
   10.9107   -2.3971   26.0724 H   0  0  0  0  0  0  0  0  0  0  0  0
  1  2  2  0  0  0  0
  1  4  1  0  0  0  0
  2  5  1  0  0  0  0
  3  4  2  0  0  0  0
  3  6  1  0  0  0  0
  4  9  1  0  0  0  0
  5  6  2  0  0  0  0
  5 13  1  0  0  0  0
  6 14  1  0  0  0  0
  7 10  1  0  0  0  0
  7 11  1  0  0  0  0
  7 12  2  0  0  0  0
  8 13  1  0  0  0  0
  8 14  1  0  0  0  0
  9 11  1  0  0  0  0
 10 15  1  0  0  0  0
 11 16  1  0  0  0  0
M  END
> <ref_mols>
x0826_0

> <original SMILES>
ClCC(=O)NCc1ccc2OCOc2c1

> <Chemgauss4>
-7.540138

> <ref_pdb>
x0749_0

$$$$
x0752
  -OEChem-05172015543D

 16 17  0     0  0  0  0  0  0999 V2000
    9.8746   -3.0874   23.5227 C   0  0  0  0  0  0  0  0  0  0  0  0
    8.9003   -2.9987   22.5256 C   0  0  0  0  0  0  0  0  0  0  0  0
    9.3026   -5.4180   23.9340 C   0  0  0  0  0  0  0  0  0  0  0  0
   10.0747   -4.2901   24.2229 C   0  0  0  0  0  0  0  0  0  0  0  0
    8.1516   -4.1267   22.2597 C   0  0  0  0  0  0  0  0  0  0  0  0
    8.3474   -5.3040   22.9450 C   0  0  0  0  0  0  0  0  0  0  0  0
   12.9068   -2.6655   25.5641 C   0  0  0  0  0  0  0  0  0  0  0  0
    6.7601   -5.6019   21.5050 C   0  0  0  0  0  0  0  0  0  0  0  0
   11.1208   -4.3608   25.2848 C   0  0  0  0  0  0  0  0  0  0  0  0
   13.1526   -1.2521   26.0271 C   0  0  0  0  0  0  0  0  0  0  0  0
   11.5820   -3.0562   25.6857 N   0  0  0  0  0  0  0  0  0  0  0  0
   13.8109   -3.3671   25.1139 O   0  0  0  0  0  0  0  0  0  0  0  0
    7.1644   -4.2287   21.3286 O   0  0  0  0  0  0  0  0  0  0  0  0
    7.5072   -6.2903   22.5289 O   0  0  0  0  0  0  0  0  0  0  0  0
   14.8108   -1.1608   26.6410 Cl  0  0  0  0  0  0  0  0  0  0  0  0
   10.9107   -2.3971   26.0724 H   0  0  0  0  0  0  0  0  0  0  0  0
  1  2  2  0  0  0  0
  1  4  1  0  0  0  0
  2  5  1  0  0  0  0
  3  4  2  0  0  0  0
  3  6  1  0  0  0  0
  4  9  1  0  0  0  0
  5  6  2  0  0  0  0
  5 13  1  0  0  0  0
  6 14  1  0  0  0  0
  7 10  1  0  0  0  0
  7 11  1  0  0  0  0
  7 12  2  0  0  0  0
  8 13  1  0  0  0  0
  8 14  1  0  0  0  0
  9 11  1  0  0  0  0
 10 15  1  0  0  0  0
 11 16  1  0  0  0  0
M  END
> <ref_mols>
x0752_0

> <original SMILES>
ClCC(=O)NCc1ccc2OCOc2c1

> <Chemgauss4>
-7.540138

> <ref_pdb>
x0749_0

> <CYS145-warhead dist minimum (A)>
16.43204

> <CYS145-warhead dist mean (A)>
17.379017

> <CYS145-warhead dist stddev (A)>
0.3691864

$$$$
x0287
  -OEChem-05172015543D

 11 11  0     1  0  0  0  0  0999 V2000
   14.3129   -1.2146   21.7624 C   0  0  0  0  0  0  0  0  0  0  0  0
   14.0642   -0.0473   22.4451 C   0  0  0  0  0  0  0  0  0  0  0  0
   12.3794   -1.4573   22.6186 C   0  0  0  0  0  0  0  0  0  0  0  0
   11.0607   -1.9781   23.0331 C   0  0  0  0  0  0  0  0  0  0  0  0
   12.5526    2.9279   22.6179 C   0  0  0  0  0  0  0  0  0  0  0  0
   12.1111    0.7595   23.8122 C   0  0  0  0  0  0  0  0  0  0  0  0
   11.4976    1.8944   22.9871 C   0  0  1  0  0  0  0  0  0  0  0  0
   13.2602   -2.0880   21.8741 N   0  0  0  0  0  0  0  0  0  0  0  0
   12.8218   -0.2175   22.9880 N   0  0  0  0  0  0  0  0  0  0  0  0
   10.4952    2.5631   23.7495 O   0  0  0  0  0  0  0  0  0  0  0  0
   10.1347    3.2598   23.1796 H   0  0  0  0  0  0  0  0  0  0  0  0
  1  2  2  0  0  0  0
  1  8  1  0  0  0  0
  2  9  1  0  0  0  0
  3  4  1  0  0  0  0
  3  8  2  0  0  0  0
  3  9  1  0  0  0  0
  5  7  1  0  0  0  0
  6  7  1  0  0  0  0
  6  9  1  0  0  0  0
  7 10  1  0  0  0  0
 10 11  1  0  0  0  0
M  END
> <ref_mols>
x0287_0

> <original SMILES>
CC(O)CN1C=CN=C1C

> <Chemgauss4>
-7.538646

> <ref_pdb>
x0195_0

$$$$
x1147
  -OEChem-05172015543D

 11 11  0     1  0  0  0  0  0999 V2000
   14.3129   -1.2146   21.7624 C   0  0  0  0  0  0  0  0  0  0  0  0
   14.0642   -0.0473   22.4451 C   0  0  0  0  0  0  0  0  0  0  0  0
   12.3794   -1.4573   22.6186 C   0  0  0  0  0  0  0  0  0  0  0  0
   11.0607   -1.9781   23.0331 C   0  0  0  0  0  0  0  0  0  0  0  0
   12.5526    2.9279   22.6179 C   0  0  0  0  0  0  0  0  0  0  0  0
   12.1111    0.7595   23.8122 C   0  0  0  0  0  0  0  0  0  0  0  0
   11.4976    1.8944   22.9871 C   0  0  1  0  0  0  0  0  0  0  0  0
   13.2602   -2.0880   21.8741 N   0  0  0  0  0  0  0  0  0  0  0  0
   12.8218   -0.2175   22.9880 N   0  0  0  0  0  0  0  0  0  0  0  0
   10.4952    2.5631   23.7495 O   0  0  0  0  0  0  0  0  0  0  0  0
   10.1347    3.2598   23.1796 H   0  0  0  0  0  0  0  0  0  0  0  0
  1  2  2  0  0  0  0
  1  8  1  0  0  0  0
  2  9  1  0  0  0  0
  3  4  1  0  0  0  0
  3  8  2  0  0  0  0
  3  9  1  0  0  0  0
  5  7  1  0  0  0  0
  6  7  1  0  0  0  0
  6  9  1  0  0  0  0
  7 10  1  0  0  0  0
 10 11  1  0  0  0  0
M  END
> <ref_mols>
x1147_0

> <original SMILES>
CC(O)CN1C=CN=C1C

> <Chemgauss4>
-7.538646

> <ref_pdb>
x0195_0

$$$$
x0173
  -OEChem-05172015543D

 14 15  0     1  0  0  0  0  0999 V2000
    7.5971   -1.1889   20.3603 C   0  0  0  0  0  0  0  0  0  0  0  0
    7.9887   -0.1416   19.5529 C   0  0  0  0  0  0  0  0  0  0  0  0
    9.6628   -0.1099   20.9694 C   0  0  0  0  0  0  0  0  0  0  0  0
   14.0417   -2.1673   22.8705 C   0  0  0  0  0  0  0  0  0  0  0  0
   13.7136   -1.0041   21.9679 C   0  0  0  0  0  0  0  0  0  0  0  0
   14.1998   -1.4858   24.2106 C   0  0  0  0  0  0  0  0  0  0  0  0
   12.8781   -0.1058   22.8677 C   0  0  1  0  0  0  0  0  0  0  0  0
    7.2581    0.3553   18.3701 C   0  0  0  0  0  0  0  0  0  0  0  0
   11.3843   -0.3776   22.7556 C   0  0  0  0  0  0  0  0  0  0  0  0
    9.1728    0.4786   19.9009 N   0  0  0  0  0  0  0  0  0  0  0  0
   10.8525    0.2619   21.5950 N   0  0  0  0  0  0  0  0  0  0  0  0
   13.2872   -0.3800   24.2193 O   0  0  0  0  0  0  0  0  0  0  0  0
    8.7517   -1.4164   21.6079 S   0  0  0  0  0  0  0  0  0  0  0  0
   11.3644    1.0451   21.1851 H   0  0  0  0  0  0  0  0  0  0  0  0
  1  2  2  0  0  0  0
  1 13  1  0  0  0  0
  2  8  1  0  0  0  0
  2 10  1  0  0  0  0
  3 10  2  0  0  0  0
  3 11  1  0  0  0  0
  3 13  1  0  0  0  0
  4  5  1  0  0  0  0
  4  6  1  0  0  0  0
  5  7  1  0  0  0  0
  6 12  1  0  0  0  0
  7  9  1  0  0  0  0
  7 12  1  0  0  0  0
  9 11  1  0  0  0  0
 11 14  1  0  0  0  0
M  END
> <ref_mols>
x0173_0

> <original SMILES>
CC1=CSC(NCC2CCCO2)=N1

> <Chemgauss4>
-7.535992

> <ref_pdb>
x0678_0

$$$$
x1159
  -OEChem-05172015543D

 14 15  0     1  0  0  0  0  0999 V2000
    7.5971   -1.1889   20.3603 C   0  0  0  0  0  0  0  0  0  0  0  0
    7.9887   -0.1416   19.5529 C   0  0  0  0  0  0  0  0  0  0  0  0
    9.6628   -0.1099   20.9694 C   0  0  0  0  0  0  0  0  0  0  0  0
   14.0417   -2.1673   22.8705 C   0  0  0  0  0  0  0  0  0  0  0  0
   13.7136   -1.0041   21.9679 C   0  0  0  0  0  0  0  0  0  0  0  0
   14.1998   -1.4858   24.2106 C   0  0  0  0  0  0  0  0  0  0  0  0
   12.8781   -0.1058   22.8677 C   0  0  1  0  0  0  0  0  0  0  0  0
    7.2581    0.3553   18.3701 C   0  0  0  0  0  0  0  0  0  0  0  0
   11.3843   -0.3776   22.7556 C   0  0  0  0  0  0  0  0  0  0  0  0
    9.1728    0.4786   19.9009 N   0  0  0  0  0  0  0  0  0  0  0  0
   10.8525    0.2619   21.5950 N   0  0  0  0  0  0  0  0  0  0  0  0
   13.2872   -0.3800   24.2193 O   0  0  0  0  0  0  0  0  0  0  0  0
    8.7517   -1.4164   21.6079 S   0  0  0  0  0  0  0  0  0  0  0  0
   11.3644    1.0451   21.1851 H   0  0  0  0  0  0  0  0  0  0  0  0
  1  2  2  0  0  0  0
  1 13  1  0  0  0  0
  2  8  1  0  0  0  0
  2 10  1  0  0  0  0
  3 10  2  0  0  0  0
  3 11  1  0  0  0  0
  3 13  1  0  0  0  0
  4  5  1  0  0  0  0
  4  6  1  0  0  0  0
  5  7  1  0  0  0  0
  6 12  1  0  0  0  0
  7  9  1  0  0  0  0
  7 12  1  0  0  0  0
  9 11  1  0  0  0  0
 11 14  1  0  0  0  0
M  END
> <ref_mols>
x1159_0

> <original SMILES>
CC1=CSC(NCC2CCCO2)=N1

> <Chemgauss4>
-7.535992

> <ref_pdb>
x0678_0

$$$$
x0536
  -OEChem-05172015543D

 17 19  0     0  0  0  0  0  0999 V2000
   11.7432   -3.3595   24.8153 C   0  0  0  0  0  0  0  0  0  0  0  0
    9.8289   -3.4995   24.0437 C   0  0  0  0  0  0  0  0  0  0  0  0
   13.5631   -2.6160   26.5494 C   0  0  0  0  0  0  0  0  0  0  0  0
   13.2884   -1.4271   25.6825 C   0  0  0  0  0  0  0  0  0  0  0  0
    6.8646   -4.5945   21.8855 C   0  0  0  0  0  0  0  0  0  0  0  0
    7.2793   -5.3871   24.2474 C   0  0  0  0  0  0  0  0  0  0  0  0
    6.2120   -5.9308   21.5641 C   0  0  0  0  0  0  0  0  0  0  0  0
    6.6231   -6.7162   23.9040 C   0  0  0  0  0  0  0  0  0  0  0  0
   13.1464   -2.8210   25.1082 C   0  0  0  0  0  0  0  0  0  0  0  0
    7.9025   -4.7264   23.0093 C   0  0  0  0  0  0  0  0  0  0  0  0
    8.4950   -3.3640   23.3624 C   0  0  0  0  0  0  0  0  0  0  0  0
   10.8642   -2.6993   24.0069 N   0  0  0  0  0  0  0  0  0  0  0  0
   11.3025   -4.5083   25.3368 N   0  0  0  0  0  0  0  0  0  0  0  0
    5.6276   -6.5056   22.8118 N   0  3  0  0  0  0  0  0  0  0  0  0
   10.0063   -4.6040   24.8151 O   0  0  0  0  0  0  0  0  0  0  0  0
    4.8716   -5.8938   23.1500 H   0  0  0  0  0  0  0  0  0  0  0  0
    5.1774   -7.4041   22.5893 H   0  0  0  0  0  0  0  0  0  0  0  0
  1  9  1  0  0  0  0
  1 12  1  0  0  0  0
  1 13  2  0  0  0  0
  2 11  1  0  0  0  0
  2 12  2  0  0  0  0
  2 15  1  0  0  0  0
  3  4  1  0  0  0  0
  3  9  1  0  0  0  0
  4  9  1  0  0  0  0
  5  7  1  0  0  0  0
  5 10  1  0  0  0  0
  6  8  1  0  0  0  0
  6 10  1  0  0  0  0
  7 14  1  0  0  0  0
  8 14  1  0  0  0  0
 10 11  1  0  0  0  0
 13 15  1  0  0  0  0
 14 16  1  0  0  0  0
 14 17  1  0  0  0  0
M  CHG  1  14   1
M  END
> <ref_mols>
x0536_0

> <original SMILES>
C(C1CCNCC1)C2=NC(=NO2)C3CC3

> <Chemgauss4>
-7.528134

> <ref_pdb>
x0749_0

$$$$
x2749
  -OEChem-05172015543D

 30 33  0     0  0  0  0  0  0999 V2000
    8.0926   -3.7084   24.2526 C   0  0  0  0  0  0  0  0  0  0  0  0
    7.3772   -3.5881   23.0613 C   0  0  0  0  0  0  0  0  0  0  0  0
    9.2740   -2.9887   24.4324 C   0  0  0  0  0  0  0  0  0  0  0  0
    9.0244   -2.0286   22.2295 C   0  0  0  0  0  0  0  0  0  0  0  0
    7.8430   -2.7482   22.0497 C   0  0  0  0  0  0  0  0  0  0  0  0
    6.9732   -1.5815   19.9333 C   0  0  0  0  0  0  0  0  0  0  0  0
    9.7398   -2.1489   23.4209 C   0  0  0  0  0  0  0  0  0  0  0  0
    7.1028   -2.6230   20.8181 C   0  0  0  0  0  0  0  0  0  0  0  0
    6.1128   -2.0772   18.9251 C   0  0  0  0  0  0  0  0  0  0  0  0
   11.5415   -0.5457   22.7080 C   0  0  0  0  0  0  0  0  0  0  0  0
   13.1087    4.1652   23.8962 C   0  0  0  0  0  0  0  0  0  0  0  0
    7.5654   -0.2212   19.9157 C   0  0  0  0  0  0  0  0  0  0  0  0
    5.6648   -1.2769   17.7566 C   0  0  0  0  0  0  0  0  0  0  0  0
    6.8251    0.6866   18.9150 C   0  0  0  0  0  0  0  0  0  0  0  0
    6.5469   -0.0262   17.5780 C   0  0  0  0  0  0  0  0  0  0  0  0
   13.4954    0.9558   22.2744 C   0  0  0  0  0  0  0  0  0  0  0  0
   12.5166    0.7290   24.6096 C   0  0  0  0  0  0  0  0  0  0  0  0
   12.8223    2.3247   22.1653 C   0  0  0  0  0  0  0  0  0  0  0  0
   11.8597    2.0953   24.4210 C   0  0  0  0  0  0  0  0  0  0  0  0
   12.8061    0.0269   23.2791 C   0  0  0  0  0  0  0  0  0  0  0  0
   13.8838    4.9565   22.8731 C   0  0  0  0  0  0  0  0  0  0  0  0
    5.7191   -3.3321   19.1539 N   0  0  0  0  0  0  0  0  0  0  0  0
    6.3392   -3.6361   20.3102 N   0  0  0  0  0  0  0  0  0  0  0  0
   12.6327    2.9187   23.4920 N   0  0  0  0  0  0  0  0  0  0  0  0
   10.9393   -1.4205   23.6033 N   0  0  0  0  0  0  0  0  0  0  0  0
   11.1575   -0.2267   21.5874 O   0  0  0  0  0  0  0  0  0  0  0  0
   12.9343    4.6416   25.0207 O   0  0  0  0  0  0  0  0  0  0  0  0
   12.7072    5.9118   21.9782 Cl  0  0  0  0  0  0  0  0  0  0  0  0
    6.1950   -4.5604   20.6979 H   0  0  0  0  0  0  0  0  0  0  0  0
   11.4037   -1.5624   24.4979 H   0  0  0  0  0  0  0  0  0  0  0  0
  1  2  2  0  0  0  0
  1  3  1  0  0  0  0
  2  5  1  0  0  0  0
  3  7  2  0  0  0  0
  4  5  2  0  0  0  0
  4  7  1  0  0  0  0
  5  8  1  0  0  0  0
  6  8  2  0  0  0  0
  6  9  1  0  0  0  0
  6 12  1  0  0  0  0
  7 25  1  0  0  0  0
  8 23  1  0  0  0  0
  9 13  1  0  0  0  0
  9 22  2  0  0  0  0
 10 20  1  0  0  0  0
 10 25  1  0  0  0  0
 10 26  2  0  0  0  0
 11 21  1  0  0  0  0
 11 24  1  0  0  0  0
 11 27  2  0  0  0  0
 12 14  1  0  0  0  0
 13 15  1  0  0  0  0
 14 15  1  0  0  0  0
 16 18  1  0  0  0  0
 16 20  1  0  0  0  0
 17 19  1  0  0  0  0
 17 20  1  0  0  0  0
 18 24  1  0  0  0  0
 19 24  1  0  0  0  0
 21 28  1  0  0  0  0
 22 23  1  0  0  0  0
 23 29  1  0  0  0  0
 25 30  1  0  0  0  0
M  END
> <ref_mols>
x2749_0

> <original SMILES>
O=C(C1CCN(C(CCl)=O)CC1)NC2=CC(C3=NN=C4C3CCCC4)=CC=C2

> <Chemgauss4>
-7.526568

> <ref_pdb>
x0830_0

> <CYS145-warhead dist minimum (A)>
7.409013

> <CYS145-warhead dist mean (A)>
8.360604

> <CYS145-warhead dist stddev (A)>
0.36339167

$$$$
x2755
  -OEChem-05172015543D

 30 33  0     0  0  0  0  0  0999 V2000
    8.0926   -3.7084   24.2526 C   0  0  0  0  0  0  0  0  0  0  0  0
    7.3772   -3.5881   23.0613 C   0  0  0  0  0  0  0  0  0  0  0  0
    9.2740   -2.9887   24.4324 C   0  0  0  0  0  0  0  0  0  0  0  0
    9.0244   -2.0286   22.2295 C   0  0  0  0  0  0  0  0  0  0  0  0
    7.8430   -2.7482   22.0497 C   0  0  0  0  0  0  0  0  0  0  0  0
    6.9732   -1.5815   19.9333 C   0  0  0  0  0  0  0  0  0  0  0  0
    9.7398   -2.1489   23.4209 C   0  0  0  0  0  0  0  0  0  0  0  0
    7.1028   -2.6230   20.8181 C   0  0  0  0  0  0  0  0  0  0  0  0
    6.1128   -2.0772   18.9251 C   0  0  0  0  0  0  0  0  0  0  0  0
   11.5415   -0.5457   22.7080 C   0  0  0  0  0  0  0  0  0  0  0  0
   13.1087    4.1652   23.8962 C   0  0  0  0  0  0  0  0  0  0  0  0
    7.5654   -0.2212   19.9157 C   0  0  0  0  0  0  0  0  0  0  0  0
    5.6648   -1.2769   17.7566 C   0  0  0  0  0  0  0  0  0  0  0  0
    6.8251    0.6866   18.9150 C   0  0  0  0  0  0  0  0  0  0  0  0
    6.5469   -0.0262   17.5780 C   0  0  0  0  0  0  0  0  0  0  0  0
   13.4954    0.9558   22.2744 C   0  0  0  0  0  0  0  0  0  0  0  0
   12.5166    0.7290   24.6096 C   0  0  0  0  0  0  0  0  0  0  0  0
   12.8223    2.3247   22.1653 C   0  0  0  0  0  0  0  0  0  0  0  0
   11.8597    2.0953   24.4210 C   0  0  0  0  0  0  0  0  0  0  0  0
   12.8061    0.0269   23.2791 C   0  0  0  0  0  0  0  0  0  0  0  0
   13.8838    4.9565   22.8731 C   0  0  0  0  0  0  0  0  0  0  0  0
    5.7191   -3.3321   19.1539 N   0  0  0  0  0  0  0  0  0  0  0  0
    6.3392   -3.6361   20.3102 N   0  0  0  0  0  0  0  0  0  0  0  0
   12.6327    2.9187   23.4920 N   0  0  0  0  0  0  0  0  0  0  0  0
   10.9393   -1.4205   23.6033 N   0  0  0  0  0  0  0  0  0  0  0  0
   11.1575   -0.2267   21.5874 O   0  0  0  0  0  0  0  0  0  0  0  0
   12.9343    4.6416   25.0207 O   0  0  0  0  0  0  0  0  0  0  0  0
   12.7072    5.9118   21.9782 Cl  0  0  0  0  0  0  0  0  0  0  0  0
    6.1950   -4.5604   20.6979 H   0  0  0  0  0  0  0  0  0  0  0  0
   11.4037   -1.5624   24.4979 H   0  0  0  0  0  0  0  0  0  0  0  0
  1  2  2  0  0  0  0
  1  3  1  0  0  0  0
  2  5  1  0  0  0  0
  3  7  2  0  0  0  0
  4  5  2  0  0  0  0
  4  7  1  0  0  0  0
  5  8  1  0  0  0  0
  6  8  2  0  0  0  0
  6  9  1  0  0  0  0
  6 12  1  0  0  0  0
  7 25  1  0  0  0  0
  8 23  1  0  0  0  0
  9 13  1  0  0  0  0
  9 22  2  0  0  0  0
 10 20  1  0  0  0  0
 10 25  1  0  0  0  0
 10 26  2  0  0  0  0
 11 21  1  0  0  0  0
 11 24  1  0  0  0  0
 11 27  2  0  0  0  0
 12 14  1  0  0  0  0
 13 15  1  0  0  0  0
 14 15  1  0  0  0  0
 16 18  1  0  0  0  0
 16 20  1  0  0  0  0
 17 19  1  0  0  0  0
 17 20  1  0  0  0  0
 18 24  1  0  0  0  0
 19 24  1  0  0  0  0
 21 28  1  0  0  0  0
 22 23  1  0  0  0  0
 23 29  1  0  0  0  0
 25 30  1  0  0  0  0
M  END
> <ref_mols>
x2755_0

> <original SMILES>
O=C(C1CCN(C(CCl)=O)CC1)NC2=CC(C3=NN=C4C3CCCC4)=CC=C2

> <Chemgauss4>
-7.526568

> <ref_pdb>
x0830_0

> <CYS145-warhead dist minimum (A)>
7.103861

> <CYS145-warhead dist mean (A)>
7.956064

> <CYS145-warhead dist stddev (A)>
0.3247018

$$$$
x2040
  -OEChem-05172015543D

 30 33  0     0  0  0  0  0  0999 V2000
    8.0926   -3.7084   24.2526 C   0  0  0  0  0  0  0  0  0  0  0  0
    7.3772   -3.5881   23.0613 C   0  0  0  0  0  0  0  0  0  0  0  0
    9.2740   -2.9887   24.4324 C   0  0  0  0  0  0  0  0  0  0  0  0
    9.0244   -2.0286   22.2295 C   0  0  0  0  0  0  0  0  0  0  0  0
    7.8430   -2.7482   22.0497 C   0  0  0  0  0  0  0  0  0  0  0  0
    6.9732   -1.5815   19.9333 C   0  0  0  0  0  0  0  0  0  0  0  0
    9.7398   -2.1489   23.4209 C   0  0  0  0  0  0  0  0  0  0  0  0
    7.1028   -2.6230   20.8181 C   0  0  0  0  0  0  0  0  0  0  0  0
    6.1128   -2.0772   18.9251 C   0  0  0  0  0  0  0  0  0  0  0  0
   11.5415   -0.5457   22.7080 C   0  0  0  0  0  0  0  0  0  0  0  0
   13.1087    4.1652   23.8962 C   0  0  0  0  0  0  0  0  0  0  0  0
    7.5654   -0.2212   19.9157 C   0  0  0  0  0  0  0  0  0  0  0  0
    5.6648   -1.2769   17.7566 C   0  0  0  0  0  0  0  0  0  0  0  0
    6.8251    0.6866   18.9150 C   0  0  0  0  0  0  0  0  0  0  0  0
    6.5469   -0.0262   17.5780 C   0  0  0  0  0  0  0  0  0  0  0  0
   13.4954    0.9558   22.2744 C   0  0  0  0  0  0  0  0  0  0  0  0
   12.5166    0.7290   24.6096 C   0  0  0  0  0  0  0  0  0  0  0  0
   12.8223    2.3247   22.1653 C   0  0  0  0  0  0  0  0  0  0  0  0
   11.8597    2.0953   24.4210 C   0  0  0  0  0  0  0  0  0  0  0  0
   12.8061    0.0269   23.2791 C   0  0  0  0  0  0  0  0  0  0  0  0
   13.8838    4.9565   22.8731 C   0  0  0  0  0  0  0  0  0  0  0  0
    5.7191   -3.3321   19.1539 N   0  0  0  0  0  0  0  0  0  0  0  0
    6.3392   -3.6361   20.3102 N   0  0  0  0  0  0  0  0  0  0  0  0
   12.6327    2.9187   23.4920 N   0  0  0  0  0  0  0  0  0  0  0  0
   10.9393   -1.4205   23.6033 N   0  0  0  0  0  0  0  0  0  0  0  0
   11.1575   -0.2267   21.5874 O   0  0  0  0  0  0  0  0  0  0  0  0
   12.9343    4.6416   25.0207 O   0  0  0  0  0  0  0  0  0  0  0  0
   12.7072    5.9118   21.9782 Cl  0  0  0  0  0  0  0  0  0  0  0  0
    6.1950   -4.5604   20.6979 H   0  0  0  0  0  0  0  0  0  0  0  0
   11.4037   -1.5624   24.4979 H   0  0  0  0  0  0  0  0  0  0  0  0
  1  2  2  0  0  0  0
  1  3  1  0  0  0  0
  2  5  1  0  0  0  0
  3  7  2  0  0  0  0
  4  5  2  0  0  0  0
  4  7  1  0  0  0  0
  5  8  1  0  0  0  0
  6  8  2  0  0  0  0
  6  9  1  0  0  0  0
  6 12  1  0  0  0  0
  7 25  1  0  0  0  0
  8 23  1  0  0  0  0
  9 13  1  0  0  0  0
  9 22  2  0  0  0  0
 10 20  1  0  0  0  0
 10 25  1  0  0  0  0
 10 26  2  0  0  0  0
 11 21  1  0  0  0  0
 11 24  1  0  0  0  0
 11 27  2  0  0  0  0
 12 14  1  0  0  0  0
 13 15  1  0  0  0  0
 14 15  1  0  0  0  0
 16 18  1  0  0  0  0
 16 20  1  0  0  0  0
 17 19  1  0  0  0  0
 17 20  1  0  0  0  0
 18 24  1  0  0  0  0
 19 24  1  0  0  0  0
 21 28  1  0  0  0  0
 22 23  1  0  0  0  0
 23 29  1  0  0  0  0
 25 30  1  0  0  0  0
M  END
> <ref_mols>
x2040_0

> <original SMILES>
O=C(C1CCN(C(CCl)=O)CC1)NC2=CC(C3=NN=C4C3CCCC4)=CC=C2

> <Chemgauss4>
-7.526568

> <ref_pdb>
x0830_0

> <CYS145-warhead dist minimum (A)>
11.420557

> <CYS145-warhead dist mean (A)>
12.967643

> <CYS145-warhead dist stddev (A)>
0.49813378

$$$$
x1230
  -OEChem-05172015543D

 14 15  0     0  0  0  0  0  0999 V2000
   11.3583    3.3202   23.7243 C   0  0  0  0  0  0  0  0  0  0  0  0
   11.7697    0.7227   23.2665 C   0  0  0  0  0  0  0  0  0  0  0  0
   12.2683   -0.5723   22.9193 C   0  0  0  0  0  0  0  0  0  0  0  0
   13.5456   -0.5253   22.4043 C   0  0  0  0  0  0  0  0  0  0  0  0
   10.5584    1.1632   23.8092 C   0  0  0  0  0  0  0  0  0  0  0  0
   12.7122    1.7053   22.9921 C   0  0  0  0  0  0  0  0  0  0  0  0
   11.5108   -1.8393   23.0869 C   0  0  0  0  0  0  0  0  0  0  0  0
   14.3996   -1.6387   21.9327 C   0  0  0  0  0  0  0  0  0  0  0  0
    9.4611   -0.3478   25.4441 C   0  0  0  0  0  0  0  0  0  0  0  0
    8.5152   -0.0800   23.1459 C   0  0  0  0  0  0  0  0  0  0  0  0
   10.3548    2.4780   24.0391 N   0  0  0  0  0  0  0  0  0  0  0  0
   12.5624    3.0280   23.2009 N   0  0  0  0  0  0  0  0  0  0  0  0
    9.5300    0.2555   24.1267 N   0  0  0  0  0  0  0  0  0  0  0  0
   14.1516    1.0728   22.3346 S   0  0  0  0  0  0  0  0  0  0  0  0
  1 11  2  0  0  0  0
  1 12  1  0  0  0  0
  2  3  1  0  0  0  0
  2  5  2  0  0  0  0
  2  6  1  0  0  0  0
  3  4  2  0  0  0  0
  3  7  1  0  0  0  0
  4  8  1  0  0  0  0
  4 14  1  0  0  0  0
  5 11  1  0  0  0  0
  5 13  1  0  0  0  0
  6 12  2  0  0  0  0
  6 14  1  0  0  0  0
  9 13  1  0  0  0  0
 10 13  1  0  0  0  0
M  END
> <ref_mols>
x1230_0

> <original SMILES>
CN(C)C=1N=CN=C2SC(C)=C(C)C12

> <Chemgauss4>
-7.526505

> <ref_pdb>
x0195_0

$$$$
x2726
  -OEChem-05172015543D

 21 22  0     0  0  0  0  0  0999 V2000
   12.5070   -0.8051   25.0251 C   0  0  0  0  0  0  0  0  0  0  0  0
   13.6679   -1.0765   25.7491 C   0  0  0  0  0  0  0  0  0  0  0  0
   11.5967   -1.8277   24.7577 C   0  0  0  0  0  0  0  0  0  0  0  0
   13.9188   -2.3704   26.2055 C   0  0  0  0  0  0  0  0  0  0  0  0
   11.8476   -3.1217   25.2142 C   0  0  0  0  0  0  0  0  0  0  0  0
   13.0086   -3.3931   25.9381 C   0  0  0  0  0  0  0  0  0  0  0  0
    9.7124   -3.9994   24.2168 C   0  0  0  0  0  0  0  0  0  0  0  0
    5.2731   -5.4925   22.1861 C   0  0  0  0  0  0  0  0  0  0  0  0
    7.6333   -5.2186   24.8350 C   0  0  0  0  0  0  0  0  0  0  0  0
    8.8468   -5.7640   22.6687 C   0  0  0  0  0  0  0  0  0  0  0  0
    6.5900   -4.4656   24.0114 C   0  0  0  0  0  0  0  0  0  0  0  0
    7.7543   -5.0092   21.9101 C   0  0  0  0  0  0  0  0  0  0  0  0
    8.9879   -5.3108   24.1254 C   0  0  0  0  0  0  0  0  0  0  0  0
    4.3180   -6.0482   23.2122 C   0  0  0  0  0  0  0  0  0  0  0  0
    6.4958   -5.0205   22.6618 N   0  0  0  0  0  0  0  0  0  0  0  0
   10.9008   -4.1324   24.9234 N   0  0  0  0  0  0  0  0  0  0  0  0
    9.2471   -2.9876   23.7024 O   0  0  0  0  0  0  0  0  0  0  0  0
    4.9399   -5.4774   20.9983 O   0  0  0  0  0  0  0  0  0  0  0  0
    3.3516   -4.6939   23.7863 Cl  0  0  0  0  0  0  0  0  0  0  0  0
   13.4019   -5.1357   26.5799 Br  0  0  0  0  0  0  0  0  0  0  0  0
   11.1294   -5.0588   25.2780 H   0  0  0  0  0  0  0  0  0  0  0  0
  1  2  2  0  0  0  0
  1  3  1  0  0  0  0
  2  4  1  0  0  0  0
  3  5  2  0  0  0  0
  4  6  2  0  0  0  0
  5  6  1  0  0  0  0
  5 16  1  0  0  0  0
  6 20  1  0  0  0  0
  7 13  1  0  0  0  0
  7 16  1  0  0  0  0
  7 17  2  0  0  0  0
  8 14  1  0  0  0  0
  8 15  1  0  0  0  0
  8 18  2  0  0  0  0
  9 11  1  0  0  0  0
  9 13  1  0  0  0  0
 10 12  1  0  0  0  0
 10 13  1  0  0  0  0
 11 15  1  0  0  0  0
 12 15  1  0  0  0  0
 14 19  1  0  0  0  0
 16 21  1  0  0  0  0
M  END
> <ref_mols>
x2726_0

> <original SMILES>
O=C(C1CCN(C(CCl)=O)CC1)NC2=C(Br)C=CC=C2

> <Chemgauss4>
-7.525287

> <ref_pdb>
x0749_0

> <CYS145-warhead dist minimum (A)>
7.103511

> <CYS145-warhead dist mean (A)>
9.183595

> <CYS145-warhead dist stddev (A)>
0.50041956

$$$$
x2051
  -OEChem-05172015543D

 21 22  0     0  0  0  0  0  0999 V2000
   12.5070   -0.8051   25.0251 C   0  0  0  0  0  0  0  0  0  0  0  0
   13.6679   -1.0765   25.7491 C   0  0  0  0  0  0  0  0  0  0  0  0
   11.5967   -1.8277   24.7577 C   0  0  0  0  0  0  0  0  0  0  0  0
   13.9188   -2.3704   26.2055 C   0  0  0  0  0  0  0  0  0  0  0  0
   11.8476   -3.1217   25.2142 C   0  0  0  0  0  0  0  0  0  0  0  0
   13.0086   -3.3931   25.9381 C   0  0  0  0  0  0  0  0  0  0  0  0
    9.7124   -3.9994   24.2168 C   0  0  0  0  0  0  0  0  0  0  0  0
    5.2731   -5.4925   22.1861 C   0  0  0  0  0  0  0  0  0  0  0  0
    7.6333   -5.2186   24.8350 C   0  0  0  0  0  0  0  0  0  0  0  0
    8.8468   -5.7640   22.6687 C   0  0  0  0  0  0  0  0  0  0  0  0
    6.5900   -4.4656   24.0114 C   0  0  0  0  0  0  0  0  0  0  0  0
    7.7543   -5.0092   21.9101 C   0  0  0  0  0  0  0  0  0  0  0  0
    8.9879   -5.3108   24.1254 C   0  0  0  0  0  0  0  0  0  0  0  0
    4.3180   -6.0482   23.2122 C   0  0  0  0  0  0  0  0  0  0  0  0
    6.4958   -5.0205   22.6618 N   0  0  0  0  0  0  0  0  0  0  0  0
   10.9008   -4.1324   24.9234 N   0  0  0  0  0  0  0  0  0  0  0  0
    9.2471   -2.9876   23.7024 O   0  0  0  0  0  0  0  0  0  0  0  0
    4.9399   -5.4774   20.9983 O   0  0  0  0  0  0  0  0  0  0  0  0
    3.3516   -4.6939   23.7863 Cl  0  0  0  0  0  0  0  0  0  0  0  0
   13.4019   -5.1357   26.5799 Br  0  0  0  0  0  0  0  0  0  0  0  0
   11.1294   -5.0588   25.2780 H   0  0  0  0  0  0  0  0  0  0  0  0
  1  2  2  0  0  0  0
  1  3  1  0  0  0  0
  2  4  1  0  0  0  0
  3  5  2  0  0  0  0
  4  6  2  0  0  0  0
  5  6  1  0  0  0  0
  5 16  1  0  0  0  0
  6 20  1  0  0  0  0
  7 13  1  0  0  0  0
  7 16  1  0  0  0  0
  7 17  2  0  0  0  0
  8 14  1  0  0  0  0
  8 15  1  0  0  0  0
  8 18  2  0  0  0  0
  9 11  1  0  0  0  0
  9 13  1  0  0  0  0
 10 12  1  0  0  0  0
 10 13  1  0  0  0  0
 11 15  1  0  0  0  0
 12 15  1  0  0  0  0
 14 19  1  0  0  0  0
 16 21  1  0  0  0  0
M  END
> <ref_mols>
x2051_0

> <original SMILES>
O=C(C1CCN(C(CCl)=O)CC1)NC2=C(Br)C=CC=C2

> <Chemgauss4>
-7.525287

> <ref_pdb>
x0749_0

> <CYS145-warhead dist minimum (A)>
7.8555536

> <CYS145-warhead dist mean (A)>
9.8146

> <CYS145-warhead dist stddev (A)>
0.5857297

$$$$
x0894
  -OEChem-05172015543D

 14 15  0     0  0  0  0  0  0999 V2000
   13.9802   -0.1107   23.0001 C   0  0  0  0  0  0  0  0  0  0  0  0
   14.7756   -1.0337   22.3303 C   0  0  0  0  0  0  0  0  0  0  0  0
   12.6250   -0.3672   23.1759 C   0  0  0  0  0  0  0  0  0  0  0  0
   14.1724   -2.1887   21.8592 C   0  0  0  0  0  0  0  0  0  0  0  0
   12.1180   -1.5520   22.6668 C   0  0  0  0  0  0  0  0  0  0  0  0
    9.8453   -0.7564   23.6084 C   0  0  0  0  0  0  0  0  0  0  0  0
   10.4328   -3.1909   23.6457 C   0  0  0  0  0  0  0  0  0  0  0  0
    8.4327   -1.1632   24.0176 C   0  0  0  0  0  0  0  0  0  0  0  0
    8.9871   -3.4545   24.0576 C   0  0  0  0  0  0  0  0  0  0  0  0
   10.6161   -1.8708   22.8432 C   0  0  0  0  0  0  0  0  0  0  0  0
   10.0157   -2.0206   21.4253 C   0  0  0  0  0  0  0  0  0  0  0  0
   12.8594   -2.4726   22.0108 N   0  0  0  0  0  0  0  0  0  0  0  0
    8.4576   -2.3569   24.7924 O   0  0  0  0  0  0  0  0  0  0  0  0
    8.7038   -2.3220   21.5581 F   0  0  0  0  0  0  0  0  0  0  0  0
  1  2  1  0  0  0  0
  1  3  2  0  0  0  0
  2  4  2  0  0  0  0
  3  5  1  0  0  0  0
  4 12  1  0  0  0  0
  5 10  1  0  0  0  0
  5 12  2  0  0  0  0
  6  8  1  0  0  0  0
  6 10  1  0  0  0  0
  7  9  1  0  0  0  0
  7 10  1  0  0  0  0
  8 13  1  0  0  0  0
  9 13  1  0  0  0  0
 10 11  1  0  0  0  0
 11 14  1  0  0  0  0
M  END
> <ref_mols>
x0894_0

> <original SMILES>
FCC1(C2=CC=CC=N2)CCOCC1

> <Chemgauss4>
-7.524755

> <ref_pdb>
x1382_0

$$$$
x2777
  -OEChem-05172015543D

 32 35  0     1  0  0  0  0  0999 V2000
    7.0045    0.5359   17.9177 C   0  0  0  0  0  0  0  0  0  0  0  0
    7.7729   -0.1347   18.8627 C   0  0  0  0  0  0  0  0  0  0  0  0
   11.9354   -1.2264   22.4567 C   0  0  0  0  0  0  0  0  0  0  0  0
   10.5832   -1.4386   22.1729 C   0  0  0  0  0  0  0  0  0  0  0  0
    7.5044   -4.1675   24.9589 C   0  0  0  0  0  0  0  0  0  0  0  0
    6.1071   -4.9647   23.1563 C   0  0  0  0  0  0  0  0  0  0  0  0
    7.0193   -5.1824   25.7837 C   0  0  0  0  0  0  0  0  0  0  0  0
    5.6220   -5.9796   23.9812 C   0  0  0  0  0  0  0  0  0  0  0  0
   10.0488    0.8321   22.8341 C   0  0  0  0  0  0  0  0  0  0  0  0
    5.6259    0.4818   18.0461 C   0  0  0  0  0  0  0  0  0  0  0  0
    5.7632   -0.8219   19.9328 C   0  0  0  0  0  0  0  0  0  0  0  0
   13.6901    1.6309   23.6728 C   0  0  0  0  0  0  0  0  0  0  0  0
    7.1482   -0.8291   19.8927 C   0  0  0  0  0  0  0  0  0  0  0  0
   12.3614    0.0309   22.9371 C   0  0  0  0  0  0  0  0  0  0  0  0
    7.0483   -4.0586   23.6452 C   0  0  0  0  0  0  0  0  0  0  0  0
    9.6538   -0.4214   22.3599 C   0  0  0  0  0  0  0  0  0  0  0  0
   11.4086    1.0383   23.1170 C   0  0  0  0  0  0  0  0  0  0  0  0
    6.0782   -6.0884   25.2949 C   0  0  0  0  0  0  0  0  0  0  0  0
    6.8298    1.4224   24.7216 C   0  0  0  0  0  0  0  0  0  0  0  0
    7.4392    0.3574   24.1912 C   0  0  0  0  0  0  0  0  0  0  0  0
    7.2272    0.0057   22.7564 C   0  0  0  0  0  0  0  0  0  0  0  0
    7.1979   -2.7754   21.4826 C   0  0  0  0  0  0  0  0  0  0  0  0
    7.9561   -1.5681   20.9365 C   0  0  2  0  0  0  0  0  0  0  0  0
    4.9832   -0.1822   19.0328 N   0  0  0  0  0  0  0  0  0  0  0  0
   13.6633    0.3855   23.2594 N   0  0  0  0  0  0  0  0  0  0  0  0
    7.5407   -3.0293   22.8082 N   0  0  0  0  0  0  0  0  0  0  0  0
    8.3079   -0.6533   22.0707 N   0  0  0  0  0  0  0  0  0  0  0  0
    6.1624    0.3137   22.2203 O   0  0  0  0  0  0  0  0  0  0  0  0
    6.4078   -3.4087   20.7876 O   0  0  0  0  0  0  0  0  0  0  0  0
   12.1923    2.4564   23.7065 S   0  0  0  0  0  0  0  0  0  0  0  0
    5.4211   -7.4634   26.4126 Br  0  0  0  0  0  0  0  0  0  0  0  0
    8.2254   -2.4011   23.2237 H   0  0  0  0  0  0  0  0  0  0  0  0
  1  2  2  0  0  0  0
  1 10  1  0  0  0  0
  2 13  1  0  0  0  0
  3  4  2  0  0  0  0
  3 14  1  0  0  0  0
  4 16  1  0  0  0  0
  5  7  2  0  0  0  0
  5 15  1  0  0  0  0
  6  8  1  0  0  0  0
  6 15  2  0  0  0  0
  7 18  1  0  0  0  0
  8 18  2  0  0  0  0
  9 16  2  0  0  0  0
  9 17  1  0  0  0  0
 10 24  2  0  0  0  0
 11 13  2  0  0  0  0
 11 24  1  0  0  0  0
 12 25  2  0  0  0  0
 12 30  1  0  0  0  0
 13 23  1  0  0  0  0
 14 17  2  0  0  0  0
 14 25  1  0  0  0  0
 15 26  1  0  0  0  0
 16 27  1  0  0  0  0
 17 30  1  0  0  0  0
 18 31  1  0  0  0  0
 19 20  2  0  0  0  0
 20 21  1  0  0  0  0
 21 27  1  0  0  0  0
 21 28  2  0  0  0  0
 22 23  1  0  0  0  0
 22 26  1  0  0  0  0
 22 29  2  0  0  0  0
 23 27  1  0  0  0  0
 26 32  1  0  0  0  0
M  END
> <ref_mols>
x2777_0

> <original SMILES>
BrC=1C=CC(NC(=O)C(N(C(=O)C=C)C=2C=CC=3N=CSC3C2)C=4C=CC=NC4)=CC1

> <Chemgauss4>
-7.523878

> <ref_pdb>
x0831_0

> <CYS145-warhead dist minimum (A)>
4.388608

> <CYS145-warhead dist mean (A)>
7.1517043

> <CYS145-warhead dist stddev (A)>
0.6026336

$$$$
x2688
  -OEChem-05172015543D

 32 35  0     1  0  0  0  0  0999 V2000
    7.0045    0.5359   17.9177 C   0  0  0  0  0  0  0  0  0  0  0  0
    7.7729   -0.1347   18.8627 C   0  0  0  0  0  0  0  0  0  0  0  0
   11.9354   -1.2264   22.4567 C   0  0  0  0  0  0  0  0  0  0  0  0
   10.5832   -1.4386   22.1729 C   0  0  0  0  0  0  0  0  0  0  0  0
    7.5044   -4.1675   24.9589 C   0  0  0  0  0  0  0  0  0  0  0  0
    6.1071   -4.9647   23.1563 C   0  0  0  0  0  0  0  0  0  0  0  0
    7.0193   -5.1824   25.7837 C   0  0  0  0  0  0  0  0  0  0  0  0
    5.6220   -5.9796   23.9812 C   0  0  0  0  0  0  0  0  0  0  0  0
   10.0488    0.8321   22.8341 C   0  0  0  0  0  0  0  0  0  0  0  0
    5.6259    0.4818   18.0461 C   0  0  0  0  0  0  0  0  0  0  0  0
    5.7632   -0.8219   19.9328 C   0  0  0  0  0  0  0  0  0  0  0  0
   13.6901    1.6309   23.6728 C   0  0  0  0  0  0  0  0  0  0  0  0
    7.1482   -0.8291   19.8927 C   0  0  0  0  0  0  0  0  0  0  0  0
   12.3614    0.0309   22.9371 C   0  0  0  0  0  0  0  0  0  0  0  0
    7.0483   -4.0586   23.6452 C   0  0  0  0  0  0  0  0  0  0  0  0
    9.6538   -0.4214   22.3599 C   0  0  0  0  0  0  0  0  0  0  0  0
   11.4086    1.0383   23.1170 C   0  0  0  0  0  0  0  0  0  0  0  0
    6.0782   -6.0884   25.2949 C   0  0  0  0  0  0  0  0  0  0  0  0
    6.8298    1.4224   24.7216 C   0  0  0  0  0  0  0  0  0  0  0  0
    7.4392    0.3574   24.1912 C   0  0  0  0  0  0  0  0  0  0  0  0
    7.2272    0.0057   22.7564 C   0  0  0  0  0  0  0  0  0  0  0  0
    7.1979   -2.7754   21.4826 C   0  0  0  0  0  0  0  0  0  0  0  0
    7.9561   -1.5681   20.9365 C   0  0  2  0  0  0  0  0  0  0  0  0
    4.9832   -0.1822   19.0328 N   0  0  0  0  0  0  0  0  0  0  0  0
   13.6633    0.3855   23.2594 N   0  0  0  0  0  0  0  0  0  0  0  0
    7.5407   -3.0293   22.8082 N   0  0  0  0  0  0  0  0  0  0  0  0
    8.3079   -0.6533   22.0707 N   0  0  0  0  0  0  0  0  0  0  0  0
    6.1624    0.3137   22.2203 O   0  0  0  0  0  0  0  0  0  0  0  0
    6.4078   -3.4087   20.7876 O   0  0  0  0  0  0  0  0  0  0  0  0
   12.1923    2.4564   23.7065 S   0  0  0  0  0  0  0  0  0  0  0  0
    5.4211   -7.4634   26.4126 Br  0  0  0  0  0  0  0  0  0  0  0  0
    8.2254   -2.4011   23.2237 H   0  0  0  0  0  0  0  0  0  0  0  0
  1  2  2  0  0  0  0
  1 10  1  0  0  0  0
  2 13  1  0  0  0  0
  3  4  2  0  0  0  0
  3 14  1  0  0  0  0
  4 16  1  0  0  0  0
  5  7  2  0  0  0  0
  5 15  1  0  0  0  0
  6  8  1  0  0  0  0
  6 15  2  0  0  0  0
  7 18  1  0  0  0  0
  8 18  2  0  0  0  0
  9 16  2  0  0  0  0
  9 17  1  0  0  0  0
 10 24  2  0  0  0  0
 11 13  2  0  0  0  0
 11 24  1  0  0  0  0
 12 25  2  0  0  0  0
 12 30  1  0  0  0  0
 13 23  1  0  0  0  0
 14 17  2  0  0  0  0
 14 25  1  0  0  0  0
 15 26  1  0  0  0  0
 16 27  1  0  0  0  0
 17 30  1  0  0  0  0
 18 31  1  0  0  0  0
 19 20  2  0  0  0  0
 20 21  1  0  0  0  0
 21 27  1  0  0  0  0
 21 28  2  0  0  0  0
 22 23  1  0  0  0  0
 22 26  1  0  0  0  0
 22 29  2  0  0  0  0
 23 27  1  0  0  0  0
 26 32  1  0  0  0  0
M  END
> <ref_mols>
x2688_0

> <original SMILES>
BrC=1C=CC(NC(=O)C(N(C(=O)C=C)C=2C=CC=3N=CSC3C2)C=4C=CC=NC4)=CC1

> <Chemgauss4>
-7.523878

> <ref_pdb>
x0831_0

> <CYS145-warhead dist minimum (A)>
6.403267

> <CYS145-warhead dist mean (A)>
7.642366

> <CYS145-warhead dist stddev (A)>
0.4763311

$$$$
x2520
  -OEChem-05172015543D

 32 35  0     1  0  0  0  0  0999 V2000
    7.0045    0.5359   17.9177 C   0  0  0  0  0  0  0  0  0  0  0  0
    7.7729   -0.1347   18.8627 C   0  0  0  0  0  0  0  0  0  0  0  0
   11.9354   -1.2264   22.4567 C   0  0  0  0  0  0  0  0  0  0  0  0
   10.5832   -1.4386   22.1729 C   0  0  0  0  0  0  0  0  0  0  0  0
    7.5044   -4.1675   24.9589 C   0  0  0  0  0  0  0  0  0  0  0  0
    6.1071   -4.9647   23.1563 C   0  0  0  0  0  0  0  0  0  0  0  0
    7.0193   -5.1824   25.7837 C   0  0  0  0  0  0  0  0  0  0  0  0
    5.6220   -5.9796   23.9812 C   0  0  0  0  0  0  0  0  0  0  0  0
   10.0488    0.8321   22.8341 C   0  0  0  0  0  0  0  0  0  0  0  0
    5.6259    0.4818   18.0461 C   0  0  0  0  0  0  0  0  0  0  0  0
    5.7632   -0.8219   19.9328 C   0  0  0  0  0  0  0  0  0  0  0  0
   13.6901    1.6309   23.6728 C   0  0  0  0  0  0  0  0  0  0  0  0
    7.1482   -0.8291   19.8927 C   0  0  0  0  0  0  0  0  0  0  0  0
   12.3614    0.0309   22.9371 C   0  0  0  0  0  0  0  0  0  0  0  0
    7.0483   -4.0586   23.6452 C   0  0  0  0  0  0  0  0  0  0  0  0
    9.6538   -0.4214   22.3599 C   0  0  0  0  0  0  0  0  0  0  0  0
   11.4086    1.0383   23.1170 C   0  0  0  0  0  0  0  0  0  0  0  0
    6.0782   -6.0884   25.2949 C   0  0  0  0  0  0  0  0  0  0  0  0
    6.8298    1.4224   24.7216 C   0  0  0  0  0  0  0  0  0  0  0  0
    7.4392    0.3574   24.1912 C   0  0  0  0  0  0  0  0  0  0  0  0
    7.2272    0.0057   22.7564 C   0  0  0  0  0  0  0  0  0  0  0  0
    7.1979   -2.7754   21.4826 C   0  0  0  0  0  0  0  0  0  0  0  0
    7.9561   -1.5681   20.9365 C   0  0  2  0  0  0  0  0  0  0  0  0
    4.9832   -0.1822   19.0328 N   0  0  0  0  0  0  0  0  0  0  0  0
   13.6633    0.3855   23.2594 N   0  0  0  0  0  0  0  0  0  0  0  0
    7.5407   -3.0293   22.8082 N   0  0  0  0  0  0  0  0  0  0  0  0
    8.3079   -0.6533   22.0707 N   0  0  0  0  0  0  0  0  0  0  0  0
    6.1624    0.3137   22.2203 O   0  0  0  0  0  0  0  0  0  0  0  0
    6.4078   -3.4087   20.7876 O   0  0  0  0  0  0  0  0  0  0  0  0
   12.1923    2.4564   23.7065 S   0  0  0  0  0  0  0  0  0  0  0  0
    5.4211   -7.4634   26.4126 Br  0  0  0  0  0  0  0  0  0  0  0  0
    8.2254   -2.4011   23.2237 H   0  0  0  0  0  0  0  0  0  0  0  0
  1  2  2  0  0  0  0
  1 10  1  0  0  0  0
  2 13  1  0  0  0  0
  3  4  2  0  0  0  0
  3 14  1  0  0  0  0
  4 16  1  0  0  0  0
  5  7  2  0  0  0  0
  5 15  1  0  0  0  0
  6  8  1  0  0  0  0
  6 15  2  0  0  0  0
  7 18  1  0  0  0  0
  8 18  2  0  0  0  0
  9 16  2  0  0  0  0
  9 17  1  0  0  0  0
 10 24  2  0  0  0  0
 11 13  2  0  0  0  0
 11 24  1  0  0  0  0
 12 25  2  0  0  0  0
 12 30  1  0  0  0  0
 13 23  1  0  0  0  0
 14 17  2  0  0  0  0
 14 25  1  0  0  0  0
 15 26  1  0  0  0  0
 16 27  1  0  0  0  0
 17 30  1  0  0  0  0
 18 31  1  0  0  0  0
 19 20  2  0  0  0  0
 20 21  1  0  0  0  0
 21 27  1  0  0  0  0
 21 28  2  0  0  0  0
 22 23  1  0  0  0  0
 22 26  1  0  0  0  0
 22 29  2  0  0  0  0
 23 27  1  0  0  0  0
 26 32  1  0  0  0  0
M  END
> <ref_mols>
x2520_0

> <original SMILES>
BrC=1C=CC(NC(=O)C(N(C(=O)C=C)C=2C=CC=3N=CSC3C2)C=4C=CC=NC4)=CC1

> <Chemgauss4>
-7.523878

> <ref_pdb>
x0831_0

$$$$
x2790
  -OEChem-05172015543D

 32 35  0     1  0  0  0  0  0999 V2000
    7.0045    0.5359   17.9177 C   0  0  0  0  0  0  0  0  0  0  0  0
    7.7729   -0.1347   18.8627 C   0  0  0  0  0  0  0  0  0  0  0  0
   11.9354   -1.2264   22.4567 C   0  0  0  0  0  0  0  0  0  0  0  0
   10.5832   -1.4386   22.1729 C   0  0  0  0  0  0  0  0  0  0  0  0
    7.5044   -4.1675   24.9589 C   0  0  0  0  0  0  0  0  0  0  0  0
    6.1071   -4.9647   23.1563 C   0  0  0  0  0  0  0  0  0  0  0  0
    7.0193   -5.1824   25.7837 C   0  0  0  0  0  0  0  0  0  0  0  0
    5.6220   -5.9796   23.9812 C   0  0  0  0  0  0  0  0  0  0  0  0
   10.0488    0.8321   22.8341 C   0  0  0  0  0  0  0  0  0  0  0  0
    5.6259    0.4818   18.0461 C   0  0  0  0  0  0  0  0  0  0  0  0
    5.7632   -0.8219   19.9328 C   0  0  0  0  0  0  0  0  0  0  0  0
   13.6901    1.6309   23.6728 C   0  0  0  0  0  0  0  0  0  0  0  0
    7.1482   -0.8291   19.8927 C   0  0  0  0  0  0  0  0  0  0  0  0
   12.3614    0.0309   22.9371 C   0  0  0  0  0  0  0  0  0  0  0  0
    7.0483   -4.0586   23.6452 C   0  0  0  0  0  0  0  0  0  0  0  0
    9.6538   -0.4214   22.3599 C   0  0  0  0  0  0  0  0  0  0  0  0
   11.4086    1.0383   23.1170 C   0  0  0  0  0  0  0  0  0  0  0  0
    6.0782   -6.0884   25.2949 C   0  0  0  0  0  0  0  0  0  0  0  0
    6.8298    1.4224   24.7216 C   0  0  0  0  0  0  0  0  0  0  0  0
    7.4392    0.3574   24.1912 C   0  0  0  0  0  0  0  0  0  0  0  0
    7.2272    0.0057   22.7564 C   0  0  0  0  0  0  0  0  0  0  0  0
    7.1979   -2.7754   21.4826 C   0  0  0  0  0  0  0  0  0  0  0  0
    7.9561   -1.5681   20.9365 C   0  0  2  0  0  0  0  0  0  0  0  0
    4.9832   -0.1822   19.0328 N   0  0  0  0  0  0  0  0  0  0  0  0
   13.6633    0.3855   23.2594 N   0  0  0  0  0  0  0  0  0  0  0  0
    7.5407   -3.0293   22.8082 N   0  0  0  0  0  0  0  0  0  0  0  0
    8.3079   -0.6533   22.0707 N   0  0  0  0  0  0  0  0  0  0  0  0
    6.1624    0.3137   22.2203 O   0  0  0  0  0  0  0  0  0  0  0  0
    6.4078   -3.4087   20.7876 O   0  0  0  0  0  0  0  0  0  0  0  0
   12.1923    2.4564   23.7065 S   0  0  0  0  0  0  0  0  0  0  0  0
    5.4211   -7.4634   26.4126 Br  0  0  0  0  0  0  0  0  0  0  0  0
    8.2254   -2.4011   23.2237 H   0  0  0  0  0  0  0  0  0  0  0  0
  1  2  2  0  0  0  0
  1 10  1  0  0  0  0
  2 13  1  0  0  0  0
  3  4  2  0  0  0  0
  3 14  1  0  0  0  0
  4 16  1  0  0  0  0
  5  7  2  0  0  0  0
  5 15  1  0  0  0  0
  6  8  1  0  0  0  0
  6 15  2  0  0  0  0
  7 18  1  0  0  0  0
  8 18  2  0  0  0  0
  9 16  2  0  0  0  0
  9 17  1  0  0  0  0
 10 24  2  0  0  0  0
 11 13  2  0  0  0  0
 11 24  1  0  0  0  0
 12 25  2  0  0  0  0
 12 30  1  0  0  0  0
 13 23  1  0  0  0  0
 14 17  2  0  0  0  0
 14 25  1  0  0  0  0
 15 26  1  0  0  0  0
 16 27  1  0  0  0  0
 17 30  1  0  0  0  0
 18 31  1  0  0  0  0
 19 20  2  0  0  0  0
 20 21  1  0  0  0  0
 21 27  1  0  0  0  0
 21 28  2  0  0  0  0
 22 23  1  0  0  0  0
 22 26  1  0  0  0  0
 22 29  2  0  0  0  0
 23 27  1  0  0  0  0
 26 32  1  0  0  0  0
M  END
> <ref_mols>
x2790_0

> <original SMILES>
BrC=1C=CC(NC(=O)C(N(C(=O)C=C)C=2C=CC=3N=CSC3C2)C=4C=CC=NC4)=CC1

> <Chemgauss4>
-7.523878

> <ref_pdb>
x0831_0

> <CYS145-warhead dist minimum (A)>
6.2131405

> <CYS145-warhead dist mean (A)>
7.342897

> <CYS145-warhead dist stddev (A)>
0.39979103

$$$$
x0880
  -OEChem-05172015543D

 17 18  0     0  0  0  0  0  0999 V2000
    9.8299   -4.8691   24.6089 C   0  0  0  0  0  0  0  0  0  0  0  0
    9.8135   -2.8533   23.2773 C   0  0  0  0  0  0  0  0  0  0  0  0
   11.0089   -4.4517   25.2264 C   0  0  0  0  0  0  0  0  0  0  0  0
   10.9925   -2.4358   23.8948 C   0  0  0  0  0  0  0  0  0  0  0  0
    9.2322   -4.0699   23.6343 C   0  0  0  0  0  0  0  0  0  0  0  0
   11.5902   -3.2350   24.8694 C   0  0  0  0  0  0  0  0  0  0  0  0
    6.9149   -4.6759   24.0673 C   0  0  0  0  0  0  0  0  0  0  0  0
    8.0402   -5.8963   22.2316 C   0  0  0  0  0  0  0  0  0  0  0  0
    7.4380   -3.4777   21.9271 C   0  0  0  0  0  0  0  0  0  0  0  0
    6.7946   -6.2323   21.4155 C   0  0  0  0  0  0  0  0  0  0  0  0
    6.2421   -3.9604   21.1091 C   0  0  0  0  0  0  0  0  0  0  0  0
    7.9270   -4.5313   22.9502 C   0  0  0  0  0  0  0  0  0  0  0  0
   12.8499   -2.7885   25.5313 C   0  0  0  0  0  0  0  0  0  0  0  0
    6.3215   -3.8194   26.1882 C   0  0  0  0  0  0  0  0  0  0  0  0
    5.9875   -5.4739   24.0526 O   0  0  0  0  0  0  0  0  0  0  0  0
    6.5237   -5.2014   20.4708 O   0  0  0  0  0  0  0  0  0  0  0  0
    7.2050   -3.7904   25.0627 O   0  0  0  0  0  0  0  0  0  0  0  0
  1  3  2  0  0  0  0
  1  5  1  0  0  0  0
  2  4  1  0  0  0  0
  2  5  2  0  0  0  0
  3  6  1  0  0  0  0
  4  6  2  0  0  0  0
  5 12  1  0  0  0  0
  6 13  1  0  0  0  0
  7 12  1  0  0  0  0
  7 15  2  0  0  0  0
  7 17  1  0  0  0  0
  8 10  1  0  0  0  0
  8 12  1  0  0  0  0
  9 11  1  0  0  0  0
  9 12  1  0  0  0  0
 10 16  1  0  0  0  0
 11 16  1  0  0  0  0
 14 17  1  0  0  0  0
M  END
> <ref_mols>
x0880_0

> <original SMILES>
O=C(OC)C1(C2=CC=C(C)C=C2)CCOCC1

> <Chemgauss4>
-7.521312

> <ref_pdb>
x0749_0

$$$$
x0554
  -OEChem-05172015543D

 19 20  0     0  0  0  0  0  0999 V2000
   10.5498    1.8039   24.0488 C   0  0  0  0  0  0  0  0  0  0  0  0
   12.5152    2.1840   22.6962 C   0  0  0  0  0  0  0  0  0  0  0  0
   10.6141    0.4410   23.7594 C   0  0  0  0  0  0  0  0  0  0  0  0
   12.5796    0.8210   22.4068 C   0  0  0  0  0  0  0  0  0  0  0  0
   11.5003    2.6755   23.5172 C   0  0  0  0  0  0  0  0  0  0  0  0
   11.6290   -0.0505   22.9384 C   0  0  0  0  0  0  0  0  0  0  0  0
   10.8374   -2.4329   23.0867 C   0  0  0  0  0  0  0  0  0  0  0  0
   10.3292    6.3351   23.3611 C   0  0  0  0  0  0  0  0  0  0  0  0
    8.9807    4.2464   23.3487 C   0  0  0  0  0  0  0  0  0  0  0  0
    9.2323    6.9720   22.5249 C   0  0  0  0  0  0  0  0  0  0  0  0
    7.9531    4.9913   22.5135 C   0  0  0  0  0  0  0  0  0  0  0  0
   11.2503   -3.7799   22.5486 C   0  0  0  0  0  0  0  0  0  0  0  0
   11.4309    4.1415   23.8285 C   0  0  0  0  0  0  0  0  0  0  0  0
   11.6938   -1.4137   22.6490 N   0  0  0  0  0  0  0  0  0  0  0  0
   10.3389    4.8509   23.0804 N   0  3  0  0  0  0  0  0  0  0  0  0
    9.8549   -2.3208   23.8127 O   0  0  0  0  0  0  0  0  0  0  0  0
    7.9662    6.3845   22.8283 O   0  0  0  0  0  0  0  0  0  0  0  0
   12.4628   -1.7141   22.0388 H   0  0  0  0  0  0  0  0  0  0  0  0
   10.5398    4.7269   22.0784 H   0  0  0  0  0  0  0  0  0  0  0  0
  1  3  2  0  0  0  0
  1  5  1  0  0  0  0
  2  4  1  0  0  0  0
  2  5  2  0  0  0  0
  3  6  1  0  0  0  0
  4  6  2  0  0  0  0
  5 13  1  0  0  0  0
  6 14  1  0  0  0  0
  7 12  1  0  0  0  0
  7 14  1  0  0  0  0
  7 16  2  0  0  0  0
  8 10  1  0  0  0  0
  8 15  1  0  0  0  0
  9 11  1  0  0  0  0
  9 15  1  0  0  0  0
 10 17  1  0  0  0  0
 11 17  1  0  0  0  0
 13 15  1  0  0  0  0
 14 18  1  0  0  0  0
 15 19  1  0  0  0  0
M  CHG  1  15   1
M  END
> <ref_mols>
x0554_0

> <original SMILES>
CC(=O)NC=1C=CC(CN2CCOCC2)=CC1

> <Chemgauss4>
-7.520943

> <ref_pdb>
x0104_0

$$$$
x0871
  -OEChem-05172015543D

 13 13  0     1  0  0  0  0  0999 V2000
   13.0829    1.1248   23.1589 C   0  0  0  0  0  0  0  0  0  0  0  0
   10.6453   -0.6274   24.1066 C   0  0  0  0  0  0  0  0  0  0  0  0
   14.2779   -1.0182   23.6707 C   0  0  0  0  0  0  0  0  0  0  0  0
   12.2887   -2.1192   22.8857 C   0  0  0  0  0  0  0  0  0  0  0  0
   13.0823   -0.1258   23.9882 C   0  0  2  0  0  0  0  0  0  0  0  0
   13.7768   -1.9692   22.5735 C   0  0  1  0  0  0  0  0  0  0  0  0
    9.5845   -1.6560   23.8047 C   0  0  0  0  0  0  0  0  0  0  0  0
   14.0142   -1.4274   21.1661 C   0  0  0  0  0  0  0  0  0  0  0  0
   11.8065    3.0499   22.6603 C   0  0  0  0  0  0  0  0  0  0  0  0
   11.9152   -0.9182   23.6286 N   0  0  0  0  0  0  0  0  0  0  0  0
   13.9875    1.4422   22.3985 O   0  0  0  0  0  0  0  0  0  0  0  0
   10.3589    0.3954   24.7312 O   0  0  0  0  0  0  0  0  0  0  0  0
   11.9371    1.8264   23.3911 O   0  0  0  0  0  0  0  0  0  0  0  0
  1  5  1  0  0  0  0
  1 11  2  0  0  0  0
  1 13  1  0  0  0  0
  2  7  1  0  0  0  0
  2 10  1  0  0  0  0
  2 12  2  0  0  0  0
  3  5  1  0  0  0  0
  3  6  1  0  0  0  0
  4  6  1  0  0  0  0
  4 10  1  0  0  0  0
  5 10  1  0  0  0  0
  6  8  1  0  0  0  0
  9 13  1  0  0  0  0
M  END
> <ref_mols>
x0871_0

> <original SMILES>
CC(=O)N1C[C@@H](C)C[C@H]1C(=O)OC

> <Chemgauss4>
-7.518708

> <ref_pdb>
x0195_0

$$$$
x0887
  -OEChem-05172015543D

 14 15  0     0  0  0  0  0  0999 V2000
    9.2509   -1.4316   22.6206 C   0  0  0  0  0  0  0  0  0  0  0  0
   10.3045   -0.5326   22.4983 C   0  0  0  0  0  0  0  0  0  0  0  0
    8.1414   -1.3108   21.7912 C   0  0  0  0  0  0  0  0  0  0  0  0
   10.2008    0.4615   21.5388 C   0  0  0  0  0  0  0  0  0  0  0  0
    8.1344   -0.2817   20.8634 C   0  0  0  0  0  0  0  0  0  0  0  0
    5.0051    1.2632   19.3100 C   0  0  0  0  0  0  0  0  0  0  0  0
    5.9243    1.1552   18.0989 C   0  0  0  0  0  0  0  0  0  0  0  0
    5.8281    0.7992   20.5087 C   0  0  0  0  0  0  0  0  0  0  0  0
    7.2585    0.6340   18.6258 C   0  0  0  0  0  0  0  0  0  0  0  0
    6.9314   -0.1183   19.9353 C   0  0  0  0  0  0  0  0  0  0  0  0
    6.3686   -1.5218   19.6311 C   0  0  0  0  0  0  0  0  0  0  0  0
    9.1391    0.6106   20.7152 N   0  0  0  0  0  0  0  0  0  0  0  0
    5.5796   -1.4417   18.4599 O   0  0  0  0  0  0  0  0  0  0  0  0
    5.2344   -2.3343   18.2848 H   0  0  0  0  0  0  0  0  0  0  0  0
  1  2  2  0  0  0  0
  1  3  1  0  0  0  0
  2  4  1  0  0  0  0
  3  5  2  0  0  0  0
  4 12  2  0  0  0  0
  5 10  1  0  0  0  0
  5 12  1  0  0  0  0
  6  7  1  0  0  0  0
  6  8  1  0  0  0  0
  7  9  1  0  0  0  0
  8 10  1  0  0  0  0
  9 10  1  0  0  0  0
 10 11  1  0  0  0  0
 11 13  1  0  0  0  0
 13 14  1  0  0  0  0
M  END
> <ref_mols>
x0887_0

> <original SMILES>
OCC1(C2=NC=CC=C2)CCCC1

> <Chemgauss4>
-7.516777

> <ref_pdb>
x0434_0

$$$$
x0838
  -OEChem-05172015543D

 14 16  0     1  0  0  0  0  0999 V2000
   13.1849   -0.3117   24.3059 C   0  0  0  0  0  0  0  0  0  0  0  0
   11.8508   -0.0991   24.6317 C   0  0  0  0  0  0  0  0  0  0  0  0
   13.4910   -1.3736   23.4697 C   0  0  0  0  0  0  0  0  0  0  0  0
   10.8745   -0.9446   24.1103 C   0  0  0  0  0  0  0  0  0  0  0  0
   11.2815   -1.9986   23.2800 C   0  0  0  0  0  0  0  0  0  0  0  0
   10.2424   -2.9253   22.6813 C   0  0  0  0  0  0  0  0  0  0  0  0
    9.0037   -1.8129   25.5151 C   0  0  0  0  0  0  0  0  0  0  0  0
    8.7130   -3.1044   24.7347 C   0  0  0  0  0  0  0  0  0  0  0  0
    9.4141   -0.7954   24.4502 C   0  0  2  0  0  0  0  0  0  0  0  0
    8.8260   -2.7249   23.2536 C   0  0  1  0  0  0  0  0  0  0  0  0
   12.5749   -2.2206   22.9479 N   0  0  0  0  0  0  0  0  0  0  0  0
    8.5663   -1.2442   23.2865 N   0  3  0  0  0  0  0  0  0  0  0  0
    7.5703   -1.0486   23.4598 H   0  0  0  0  0  0  0  0  0  0  0  0
    8.8185   -0.7749   22.4054 H   0  0  0  0  0  0  0  0  0  0  0  0
  1  2  1  0  0  0  0
  1  3  2  0  0  0  0
  2  4  2  0  0  0  0
  3 11  1  0  0  0  0
  4  5  1  0  0  0  0
  4  9  1  0  0  0  0
  5  6  1  0  0  0  0
  5 11  2  0  0  0  0
  6 10  1  0  0  0  0
  7  8  1  0  0  0  0
  7  9  1  0  0  0  0
  8 10  1  0  0  0  0
  9 12  1  0  0  0  0
 10 12  1  0  0  0  0
 12 13  1  0  0  0  0
 12 14  1  0  0  0  0
M  CHG  1  12   1
M  END
> <ref_mols>
x0838_0

> <original SMILES>
[C@@H]1(CC2)CC3=C(C=CC=N3)[C@H]2N1

> <Chemgauss4>
-7.516714

> <ref_pdb>
x0072_0

$$$$
x0933
  -OEChem-05172015543D

 18 20  0     1  0  0  0  0  0999 V2000
   13.8462    3.5506   22.1356 C   0  0  0  0  0  0  0  0  0  0  0  0
   12.7593    4.3179   22.5544 C   0  0  0  0  0  0  0  0  0  0  0  0
   13.8710    2.1792   22.3896 C   0  0  0  0  0  0  0  0  0  0  0  0
   11.6972    3.7139   23.2273 C   0  0  0  0  0  0  0  0  0  0  0  0
   12.8089    1.5752   23.0624 C   0  0  0  0  0  0  0  0  0  0  0  0
   11.7219    2.3426   23.4813 C   0  0  0  0  0  0  0  0  0  0  0  0
   14.3608   -1.8244   23.2708 C   0  0  0  0  0  0  0  0  0  0  0  0
   12.8066   -0.3888   24.7740 C   0  0  0  0  0  0  0  0  0  0  0  0
   13.5546   -1.7682   21.9661 C   0  0  0  0  0  0  0  0  0  0  0  0
   14.0671   -0.5412   23.9832 C   0  0  2  0  0  0  0  0  0  0  0  0
   12.8519    0.0837   23.3298 C   0  0  2  0  0  0  0  0  0  0  0  0
    9.6073    2.6316   24.5304 C   0  0  0  0  0  0  0  0  0  0  0  0
   10.4056   -1.3191   20.5605 C   0  0  0  0  0  0  0  0  0  0  0  0
   12.4332   -0.7997   22.1876 N   0  0  2  0  0  0  0  0  0  0  0  0
   10.0205   -0.4681   23.0007 O   0  0  0  0  0  0  0  0  0  0  0  0
   10.9033   -2.8095   22.6482 O   0  0  0  0  0  0  0  0  0  0  0  0
   10.6751    1.7707   24.1397 O   0  0  0  0  0  0  0  0  0  0  0  0
   10.8500   -1.4101   22.2769 S   0  0  0  0  0  0  0  0  0  0  0  0
  1  2  1  0  0  0  0
  1  3  2  0  0  0  0
  2  4  2  0  0  0  0
  3  5  1  0  0  0  0
  4  6  1  0  0  0  0
  5  6  2  0  0  0  0
  5 11  1  0  0  0  0
  6 17  1  0  0  0  0
  7  9  1  0  0  0  0
  7 10  1  0  0  0  0
  8 10  1  0  0  0  0
  8 11  1  0  0  0  0
  9 14  1  0  0  0  0
 10 11  1  0  0  0  0
 11 14  1  0  0  0  0
 12 17  1  0  0  0  0
 13 18  1  0  0  0  0
 14 18  1  0  0  0  0
 15 18  2  0  0  0  0
 16 18  2  0  0  0  0
M  END
> <ref_mols>
x0933_0

> <original SMILES>
CS(N1CCC2C1(C3=CC=CC=C3OC)C2)(=O)=O

> <Chemgauss4>
-7.511943

> <ref_pdb>
x0195_0

$$$$
x0216
  -OEChem-05172015543D

 14 14  0     0  0  0  0  0  0999 V2000
    5.6446    0.9507   17.7752 C   0  0  0  0  0  0  0  0  0  0  0  0
    6.1478    0.6426   19.8934 C   0  0  0  0  0  0  0  0  0  0  0  0
    5.2273    1.2615   19.0833 C   0  0  0  0  0  0  0  0  0  0  0  0
    4.1110    2.0410   19.5221 C   0  0  0  0  0  0  0  0  0  0  0  0
    8.1730   -0.7621   19.4429 C   0  0  0  0  0  0  0  0  0  0  0  0
    7.9199   -2.2594   19.3298 C   0  0  0  0  0  0  0  0  0  0  0  0
    6.7446    0.1935   17.7510 N   0  0  0  0  0  0  0  0  0  0  0  0
    7.0264    0.0232   19.0540 N   0  0  0  0  0  0  0  0  0  0  0  0
    3.2669    2.6084   18.5555 N   0  0  0  0  0  0  0  0  0  0  0  0
    3.8717    2.2472   20.7378 O   0  0  0  0  0  0  0  0  0  0  0  0
    6.8106   -2.6205   20.1424 O   0  0  0  0  0  0  0  0  0  0  0  0
    3.4709    2.4507   17.5746 H   0  0  0  0  0  0  0  0  0  0  0  0
    2.4595    3.1711   18.8033 H   0  0  0  0  0  0  0  0  0  0  0  0
    6.6878   -3.5778   20.0388 H   0  0  0  0  0  0  0  0  0  0  0  0
  1  3  1  0  0  0  0
  1  7  2  0  0  0  0
  2  3  2  0  0  0  0
  2  8  1  0  0  0  0
  3  4  1  0  0  0  0
  4  9  1  0  0  0  0
  4 10  2  0  0  0  0
  5  6  1  0  0  0  0
  5  8  1  0  0  0  0
  6 11  1  0  0  0  0
  7  8  1  0  0  0  0
  9 12  1  0  0  0  0
  9 13  1  0  0  0  0
 11 14  1  0  0  0  0
M  END
> <ref_mols>
x0216_0

> <original SMILES>
NC(=O)C=1C=NN(CCO)C1

> <Chemgauss4>
-7.510542

> <ref_pdb>
x0397_0

$$$$
x0049
  -OEChem-05172015543D

 12 12  0     0  0  0  0  0  0999 V2000
   13.2942   -1.5726   21.5910 C   0  0  0  0  0  0  0  0  0  0  0  0
   14.3282   -1.0005   22.3561 C   0  0  0  0  0  0  0  0  0  0  0  0
   12.1482   -1.2803   22.2894 C   0  0  0  0  0  0  0  0  0  0  0  0
   10.9916    1.2246   24.0022 C   0  0  0  0  0  0  0  0  0  0  0  0
    8.6859   -1.0366   20.6620 C   0  0  0  0  0  0  0  0  0  0  0  0
   10.7115   -1.6076   22.0073 C   0  0  0  0  0  0  0  0  0  0  0  0
   11.7073   -0.0443   24.4325 C   0  0  0  0  0  0  0  0  0  0  0  0
   13.8789   -0.3907   23.4562 N   0  0  0  0  0  0  0  0  0  0  0  0
   12.5498   -0.5779   23.3874 N   0  0  0  0  0  0  0  0  0  0  0  0
   10.1257   -0.7736   20.9246 N   0  3  0  0  0  0  0  0  0  0  0  0
   10.6594   -0.9237   20.0574 H   0  0  0  0  0  0  0  0  0  0  0  0
   10.2491    0.2207   21.1606 H   0  0  0  0  0  0  0  0  0  0  0  0
  1  2  1  0  0  0  0
  1  3  2  0  0  0  0
  2  8  2  0  0  0  0
  3  6  1  0  0  0  0
  3  9  1  0  0  0  0
  4  7  1  0  0  0  0
  5 10  1  0  0  0  0
  6 10  1  0  0  0  0
  7  9  1  0  0  0  0
  8  9  1  0  0  0  0
 10 11  1  0  0  0  0
 10 12  1  0  0  0  0
M  CHG  1  10   1
M  END
> <ref_mols>
x0049_0

> <original SMILES>
CCN1N=CC=C1CNC

> <Chemgauss4>
-7.509080

> <ref_pdb>
x0678_0

$$$$
x0647
  -OEChem-05172015543D

 14 15  0     0  0  0  0  0  0999 V2000
   14.1133   -0.7864   23.7653 C   0  0  0  0  0  0  0  0  0  0  0  0
   14.1391   -1.9685   23.0737 C   0  0  0  0  0  0  0  0  0  0  0  0
   12.9226   -0.1745   23.3368 C   0  0  0  0  0  0  0  0  0  0  0  0
   12.4444    2.4497   21.7045 C   0  0  0  0  0  0  0  0  0  0  0  0
   10.5770    2.7124   23.2272 C   0  0  0  0  0  0  0  0  0  0  0  0
   13.0661    3.7558   22.1885 C   0  0  0  0  0  0  0  0  0  0  0  0
   11.1472    4.0259   23.7529 C   0  0  0  0  0  0  0  0  0  0  0  0
   12.3666    1.1538   23.7618 C   0  0  0  0  0  0  0  0  0  0  0  0
   12.2607   -0.9199   22.4475 N   0  0  0  0  0  0  0  0  0  0  0  0
   11.5888    1.7864   22.6987 N   0  0  0  0  0  0  0  0  0  0  0  0
   11.9825    4.6530   22.6868 N   0  3  0  0  0  0  0  0  0  0  0  0
   13.0387   -2.0597   22.2838 O   0  0  0  0  0  0  0  0  0  0  0  0
   12.3966    5.5273   23.0438 H   0  0  0  0  0  0  0  0  0  0  0  0
   11.3799    4.9338   21.8992 H   0  0  0  0  0  0  0  0  0  0  0  0
  1  2  2  0  0  0  0
  1  3  1  0  0  0  0
  2 12  1  0  0  0  0
  3  8  1  0  0  0  0
  3  9  2  0  0  0  0
  4  6  1  0  0  0  0
  4 10  1  0  0  0  0
  5  7  1  0  0  0  0
  5 10  1  0  0  0  0
  6 11  1  0  0  0  0
  7 11  1  0  0  0  0
  8 10  1  0  0  0  0
  9 12  1  0  0  0  0
 11 13  1  0  0  0  0
 11 14  1  0  0  0  0
M  CHG  1  11   1
M  END
> <ref_mols>
x0647_0

> <original SMILES>
C(N1CCNCC1)C=2C=CON2

> <Chemgauss4>
-7.507279

> <ref_pdb>
x0195_0

$$$$
x1083
  -OEChem-05172015543D

 16 17  0     0  0  0  0  0  0999 V2000
    9.2408   -4.5856   23.6158 C   0  0  0  0  0  0  0  0  0  0  0  0
    8.1525   -4.8376   22.8055 C   0  0  0  0  0  0  0  0  0  0  0  0
    9.8245   -3.3446   23.4625 C   0  0  0  0  0  0  0  0  0  0  0  0
    8.3191   -2.7791   21.8560 C   0  0  0  0  0  0  0  0  0  0  0  0
   11.8514   -1.1635   25.5875 C   0  0  0  0  0  0  0  0  0  0  0  0
   13.1530   -1.9604   24.0973 C   0  0  0  0  0  0  0  0  0  0  0  0
   11.6227   -1.8026   24.2030 C   0  0  0  0  0  0  0  0  0  0  0  0
   13.2768   -0.7961   25.1091 C   0  0  0  0  0  0  0  0  0  0  0  0
    7.4549   -6.1530   22.8992 C   0  0  0  0  0  0  0  0  0  0  0  0
    7.8071   -1.7758   20.8790 C   0  0  0  0  0  0  0  0  0  0  0  0
   11.4025   -4.0678   25.2366 C   0  0  0  0  0  0  0  0  0  0  0  0
    7.6631   -3.9538   21.9113 N   0  0  0  0  0  0  0  0  0  0  0  0
    9.3882   -2.4136   22.5889 N   0  0  0  0  0  0  0  0  0  0  0  0
   10.9437   -3.0464   24.2752 N   0  0  3  0  0  0  0  0  0  0  0  0
   14.3245   -0.9218   26.0848 O   0  0  0  0  0  0  0  0  0  0  0  0
   15.1382   -0.6592   25.6343 H   0  0  0  0  0  0  0  0  0  0  0  0
  1  2  2  0  0  0  0
  1  3  1  0  0  0  0
  2  9  1  0  0  0  0
  2 12  1  0  0  0  0
  3 13  2  0  0  0  0
  3 14  1  0  0  0  0
  4 10  1  0  0  0  0
  4 12  2  0  0  0  0
  4 13  1  0  0  0  0
  5  7  1  0  0  0  0
  5  8  1  0  0  0  0
  6  7  1  0  0  0  0
  6  8  1  0  0  0  0
  7 14  1  0  0  0  0
  8 15  1  0  0  0  0
 11 14  1  0  0  0  0
 15 16  1  0  0  0  0
M  END
> <ref_mols>
x1083_0

> <original SMILES>
CN(C1CC(O)C1)C=2C=C(C)N=C(C)N2

> <Chemgauss4>
-7.505018

> <ref_pdb>
x0749_0

$$$$
x0396
  -OEChem-05172015543D

 16 17  0     0  0  0  0  0  0999 V2000
    9.2408   -4.5856   23.6158 C   0  0  0  0  0  0  0  0  0  0  0  0
    8.1525   -4.8376   22.8055 C   0  0  0  0  0  0  0  0  0  0  0  0
    9.8245   -3.3446   23.4625 C   0  0  0  0  0  0  0  0  0  0  0  0
    8.3191   -2.7791   21.8560 C   0  0  0  0  0  0  0  0  0  0  0  0
   11.8514   -1.1635   25.5875 C   0  0  0  0  0  0  0  0  0  0  0  0
   13.1530   -1.9604   24.0973 C   0  0  0  0  0  0  0  0  0  0  0  0
   11.6227   -1.8026   24.2030 C   0  0  0  0  0  0  0  0  0  0  0  0
   13.2768   -0.7961   25.1091 C   0  0  0  0  0  0  0  0  0  0  0  0
    7.4549   -6.1530   22.8992 C   0  0  0  0  0  0  0  0  0  0  0  0
    7.8071   -1.7758   20.8790 C   0  0  0  0  0  0  0  0  0  0  0  0
   11.4025   -4.0678   25.2366 C   0  0  0  0  0  0  0  0  0  0  0  0
    7.6631   -3.9538   21.9113 N   0  0  0  0  0  0  0  0  0  0  0  0
    9.3882   -2.4136   22.5889 N   0  0  0  0  0  0  0  0  0  0  0  0
   10.9437   -3.0464   24.2752 N   0  0  3  0  0  0  0  0  0  0  0  0
   14.3245   -0.9218   26.0848 O   0  0  0  0  0  0  0  0  0  0  0  0
   15.1382   -0.6592   25.6343 H   0  0  0  0  0  0  0  0  0  0  0  0
  1  2  2  0  0  0  0
  1  3  1  0  0  0  0
  2  9  1  0  0  0  0
  2 12  1  0  0  0  0
  3 13  2  0  0  0  0
  3 14  1  0  0  0  0
  4 10  1  0  0  0  0
  4 12  2  0  0  0  0
  4 13  1  0  0  0  0
  5  7  1  0  0  0  0
  5  8  1  0  0  0  0
  6  7  1  0  0  0  0
  6  8  1  0  0  0  0
  7 14  1  0  0  0  0
  8 15  1  0  0  0  0
 11 14  1  0  0  0  0
 15 16  1  0  0  0  0
M  END
> <ref_mols>
x0396_0

> <original SMILES>
CN(C1CC(O)C1)C=2C=C(C)N=C(C)N2

> <Chemgauss4>
-7.505018

> <ref_pdb>
x0749_0

$$$$
x0217
  -OEChem-05172015543D

 15 15  0     0  0  0  0  0  0999 V2000
   12.9189    0.5183   23.6921 C   0  0  0  0  0  0  0  0  0  0  0  0
   13.6676   -0.3528   24.4834 C   0  0  0  0  0  0  0  0  0  0  0  0
   13.6657   -1.9781   22.6957 C   0  0  0  0  0  0  0  0  0  0  0  0
   12.5436    0.1413   22.4026 C   0  0  0  0  0  0  0  0  0  0  0  0
   12.9170   -1.1069   21.9045 C   0  0  0  0  0  0  0  0  0  0  0  0
   14.0410   -1.6011   23.9852 C   0  0  0  0  0  0  0  0  0  0  0  0
   12.5253   -1.5335   20.5278 C   0  0  0  0  0  0  0  0  0  0  0  0
   11.7413    1.0906   21.5747 C   0  0  0  0  0  0  0  0  0  0  0  0
    9.2682    1.9142   21.0678 N   0  0  0  0  0  0  0  0  0  0  0  0
    9.9937   -0.4646   20.4109 O   0  0  0  0  0  0  0  0  0  0  0  0
    9.6843    0.1089   22.8524 O   0  0  0  0  0  0  0  0  0  0  0  0
   14.7605   -2.4375   24.7447 F   0  0  0  0  0  0  0  0  0  0  0  0
   10.0870    0.4845   21.5075 S   0  0  0  0  0  0  0  0  0  0  0  0
    9.1892    2.6562   21.7741 H   0  0  0  0  0  0  0  0  0  0  0  0
    9.3999    2.2654   20.1113 H   0  0  0  0  0  0  0  0  0  0  0  0
  1  2  2  0  0  0  0
  1  4  1  0  0  0  0
  2  6  1  0  0  0  0
  3  5  1  0  0  0  0
  3  6  2  0  0  0  0
  4  5  2  0  0  0  0
  4  8  1  0  0  0  0
  5  7  1  0  0  0  0
  6 12  1  0  0  0  0
  8 13  1  0  0  0  0
  9 13  1  0  0  0  0
 10 13  2  0  0  0  0
 11 13  2  0  0  0  0
  9 14  1  0  0  0  0
  9 15  1  0  0  0  0
M  END
> <ref_mols>
x0217_0

> <original SMILES>
CC=1C=C(F)C=CC1CS(=O)(=O)N

> <Chemgauss4>
-7.504725

> <ref_pdb>
x0678_0

$$$$
x1086
  -OEChem-05172015543D

 15 15  0     0  0  0  0  0  0999 V2000
   12.9189    0.5183   23.6921 C   0  0  0  0  0  0  0  0  0  0  0  0
   13.6676   -0.3528   24.4834 C   0  0  0  0  0  0  0  0  0  0  0  0
   13.6657   -1.9781   22.6957 C   0  0  0  0  0  0  0  0  0  0  0  0
   12.5436    0.1413   22.4026 C   0  0  0  0  0  0  0  0  0  0  0  0
   12.9170   -1.1069   21.9045 C   0  0  0  0  0  0  0  0  0  0  0  0
   14.0410   -1.6011   23.9852 C   0  0  0  0  0  0  0  0  0  0  0  0
   12.5253   -1.5335   20.5278 C   0  0  0  0  0  0  0  0  0  0  0  0
   11.7413    1.0906   21.5747 C   0  0  0  0  0  0  0  0  0  0  0  0
    9.2682    1.9142   21.0678 N   0  0  0  0  0  0  0  0  0  0  0  0
    9.9937   -0.4646   20.4109 O   0  0  0  0  0  0  0  0  0  0  0  0
    9.6843    0.1089   22.8524 O   0  0  0  0  0  0  0  0  0  0  0  0
   14.7605   -2.4375   24.7447 F   0  0  0  0  0  0  0  0  0  0  0  0
   10.0870    0.4845   21.5075 S   0  0  0  0  0  0  0  0  0  0  0  0
    9.1892    2.6562   21.7741 H   0  0  0  0  0  0  0  0  0  0  0  0
    9.3999    2.2654   20.1113 H   0  0  0  0  0  0  0  0  0  0  0  0
  1  2  2  0  0  0  0
  1  4  1  0  0  0  0
  2  6  1  0  0  0  0
  3  5  1  0  0  0  0
  3  6  2  0  0  0  0
  4  5  2  0  0  0  0
  4  8  1  0  0  0  0
  5  7  1  0  0  0  0
  6 12  1  0  0  0  0
  8 13  1  0  0  0  0
  9 13  1  0  0  0  0
 10 13  2  0  0  0  0
 11 13  2  0  0  0  0
  9 14  1  0  0  0  0
  9 15  1  0  0  0  0
M  END
> <ref_mols>
x1086_0

> <original SMILES>
CC=1C=C(F)C=CC1CS(=O)(=O)N

> <Chemgauss4>
-7.504725

> <ref_pdb>
x0678_0

$$$$
x0937
  -OEChem-05172015543D

 10 10  0     0  0  0  0  0  0999 V2000
    4.9371    1.3076   18.8417 C   0  0  0  0  0  0  0  0  0  0  0  0
    6.6857    0.4760   20.2684 C   0  0  0  0  0  0  0  0  0  0  0  0
    5.7160    0.9324   17.7590 C   0  0  0  0  0  0  0  0  0  0  0  0
    5.4384    1.0716   20.1170 C   0  0  0  0  0  0  0  0  0  0  0  0
    7.3862    0.1379   19.1218 C   0  0  0  0  0  0  0  0  0  0  0  0
    6.9320    0.3516   17.8665 N   0  0  0  0  0  0  0  0  0  0  0  0
    8.6549   -0.4704   19.2922 N   0  0  0  0  0  0  0  0  0  0  0  0
    4.3293    1.6105   21.7867 I   0  0  0  0  0  0  0  0  0  0  0  0
    9.0123   -0.5873   20.2151 H   0  0  0  0  0  0  0  0  0  0  0  0
    9.1998   -0.6804   18.4845 H   0  0  0  0  0  0  0  0  0  0  0  0
  1  3  1  0  0  0  0
  1  4  2  0  0  0  0
  2  4  1  0  0  0  0
  2  5  2  0  0  0  0
  3  6  2  0  0  0  0
  4  8  1  0  0  0  0
  5  6  1  0  0  0  0
  5  7  1  0  0  0  0
  7  9  1  0  0  0  0
  7 10  1  0  0  0  0
M  END
> <ref_mols>
x0937_0

> <original SMILES>
NC1=NC=CC(I)=C1

> <Chemgauss4>
-7.495326

> <ref_pdb>
x0540_0

$$$$
x1149
  -OEChem-05172015543D

 15 15  0     1  0  0  0  0  0999 V2000
   12.3620    0.2514   23.5536 C   0  0  0  0  0  0  0  0  0  0  0  0
   14.2303    0.8220   22.1970 C   0  0  0  0  0  0  0  0  0  0  0  0
   11.9270    1.5683   23.4554 C   0  0  0  0  0  0  0  0  0  0  0  0
   13.5346   -0.1370   22.9154 C   0  0  0  0  0  0  0  0  0  0  0  0
   12.6947    2.4511   22.7130 C   0  0  0  0  0  0  0  0  0  0  0  0
   14.0823    5.2261   22.0432 C   0  0  0  0  0  0  0  0  0  0  0  0
   12.0878    6.0838   23.3166 C   0  0  0  0  0  0  0  0  0  0  0  0
   13.0197    4.8971   23.0836 C   0  0  1  0  0  0  0  0  0  0  0  0
   13.8392    2.1107   22.0789 N   0  0  0  0  0  0  0  0  0  0  0  0
   12.2516    3.7576   22.6225 N   0  0  0  0  0  0  0  0  0  0  0  0
   11.4146    6.3998   22.1033 O   0  0  0  0  0  0  0  0  0  0  0  0
   10.7994    1.9564   24.0646 F   0  0  0  0  0  0  0  0  0  0  0  0
   14.1014   -1.7523   23.0163 Cl  0  0  0  0  0  0  0  0  0  0  0  0
   11.3433    3.9348   22.2148 H   0  0  0  0  0  0  0  0  0  0  0  0
   10.8360    7.1550   22.2945 H   0  0  0  0  0  0  0  0  0  0  0  0
  1  3  1  0  0  0  0
  1  4  2  0  0  0  0
  2  4  1  0  0  0  0
  2  9  2  0  0  0  0
  3  5  2  0  0  0  0
  3 12  1  0  0  0  0
  4 13  1  0  0  0  0
  5  9  1  0  0  0  0
  5 10  1  0  0  0  0
  6  8  1  0  0  0  0
  7  8  1  0  0  0  0
  7 11  1  0  0  0  0
  8 10  1  0  0  0  0
 10 14  1  0  0  0  0
 11 15  1  0  0  0  0
M  END
> <ref_mols>
x1149_0

> <original SMILES>
C[C@@H](CO)NC=1N=CC(Cl)=CC1F

> <Chemgauss4>
-7.494957

> <ref_pdb>
x0195_0

$$$$
x0051
  -OEChem-05172015543D

 15 15  0     1  0  0  0  0  0999 V2000
   12.3620    0.2514   23.5536 C   0  0  0  0  0  0  0  0  0  0  0  0
   14.2303    0.8220   22.1970 C   0  0  0  0  0  0  0  0  0  0  0  0
   11.9270    1.5683   23.4554 C   0  0  0  0  0  0  0  0  0  0  0  0
   13.5346   -0.1370   22.9154 C   0  0  0  0  0  0  0  0  0  0  0  0
   12.6947    2.4511   22.7130 C   0  0  0  0  0  0  0  0  0  0  0  0
   14.0823    5.2261   22.0432 C   0  0  0  0  0  0  0  0  0  0  0  0
   12.0878    6.0838   23.3166 C   0  0  0  0  0  0  0  0  0  0  0  0
   13.0197    4.8971   23.0836 C   0  0  1  0  0  0  0  0  0  0  0  0
   13.8392    2.1107   22.0789 N   0  0  0  0  0  0  0  0  0  0  0  0
   12.2516    3.7576   22.6225 N   0  0  0  0  0  0  0  0  0  0  0  0
   11.4146    6.3998   22.1033 O   0  0  0  0  0  0  0  0  0  0  0  0
   10.7994    1.9564   24.0646 F   0  0  0  0  0  0  0  0  0  0  0  0
   14.1014   -1.7523   23.0163 Cl  0  0  0  0  0  0  0  0  0  0  0  0
   11.3433    3.9348   22.2148 H   0  0  0  0  0  0  0  0  0  0  0  0
   10.8360    7.1550   22.2945 H   0  0  0  0  0  0  0  0  0  0  0  0
  1  3  1  0  0  0  0
  1  4  2  0  0  0  0
  2  4  1  0  0  0  0
  2  9  2  0  0  0  0
  3  5  2  0  0  0  0
  3 12  1  0  0  0  0
  4 13  1  0  0  0  0
  5  9  1  0  0  0  0
  5 10  1  0  0  0  0
  6  8  1  0  0  0  0
  7  8  1  0  0  0  0
  7 11  1  0  0  0  0
  8 10  1  0  0  0  0
 10 14  1  0  0  0  0
 11 15  1  0  0  0  0
M  END
> <ref_mols>
x0051_0

> <original SMILES>
C[C@@H](CO)NC=1N=CC(Cl)=CC1F

> <Chemgauss4>
-7.494957

> <ref_pdb>
x0195_0

$$$$
x2627
  -OEChem-05172015543D

 28 30  0     0  0  0  0  0  0999 V2000
   12.9682   -1.8458   22.2673 C   0  0  0  0  0  0  0  0  0  0  0  0
   12.9987   -0.4554   22.3742 C   0  0  0  0  0  0  0  0  0  0  0  0
   11.8749   -2.5593   22.7587 C   0  0  0  0  0  0  0  0  0  0  0  0
   10.8427   -0.4919   23.4640 C   0  0  0  0  0  0  0  0  0  0  0  0
   11.0144    2.4052   23.6326 C   0  0  0  0  0  0  0  0  0  0  0  0
   11.9360    0.2216   22.9726 C   0  0  0  0  0  0  0  0  0  0  0  0
   10.8122   -1.8823   23.3570 C   0  0  0  0  0  0  0  0  0  0  0  0
   11.5281    3.6692   23.4860 C   0  0  0  0  0  0  0  0  0  0  0  0
    6.0973    7.2552   22.4484 C   0  0  0  0  0  0  0  0  0  0  0  0
    8.5411    7.3326   22.0699 C   0  0  0  0  0  0  0  0  0  0  0  0
    7.4730    5.1223   22.2865 C   0  0  0  0  0  0  0  0  0  0  0  0
    9.6167    6.9337   23.0696 C   0  0  0  0  0  0  0  0  0  0  0  0
    8.5344    4.6891   23.2888 C   0  0  0  0  0  0  0  0  0  0  0  0
    6.1659    8.6367   23.0488 C   0  0  0  0  0  0  0  0  0  0  0  0
   10.9371    4.9843   23.9012 C   0  0  0  0  0  0  0  0  0  0  0  0
   12.7448    3.6017   22.8659 N   0  0  0  0  0  0  0  0  0  0  0  0
   13.0065    2.3228   22.6186 N   0  0  0  0  0  0  0  0  0  0  0  0
   11.9677    1.6071   23.0790 N   0  0  0  0  0  0  0  0  0  0  0  0
    7.3074    6.5797   22.2966 N   0  0  0  0  0  0  0  0  0  0  0  0
    8.4324   -2.8100   22.5950 N   0  0  0  0  0  0  0  0  0  0  0  0
    9.8184    5.4362   23.0052 N   0  3  0  0  0  0  0  0  0  0  0  0
    5.0008    6.7932   22.1224 O   0  0  0  0  0  0  0  0  0  0  0  0
    9.8774   -4.1328   24.2707 O   0  0  0  0  0  0  0  0  0  0  0  0
    8.7979   -1.9782   25.0056 O   0  0  0  0  0  0  0  0  0  0  0  0
    9.4437   -2.7751   23.9718 S   0  0  0  0  0  0  0  0  0  0  0  0
    8.3190   -3.7047   22.1029 H   0  0  0  0  0  0  0  0  0  0  0  0
    7.5836   -2.2315   22.6055 H   0  0  0  0  0  0  0  0  0  0  0  0
   10.1021    5.2047   22.0432 H   0  0  0  0  0  0  0  0  0  0  0  0
  1  2  2  0  0  0  0
  1  3  1  0  0  0  0
  2  6  1  0  0  0  0
  3  7  2  0  0  0  0
  4  6  2  0  0  0  0
  4  7  1  0  0  0  0
  5  8  2  0  0  0  0
  5 18  1  0  0  0  0
  6 18  1  0  0  0  0
  7 25  1  0  0  0  0
  8 15  1  0  0  0  0
  8 16  1  0  0  0  0
  9 14  1  0  0  0  0
  9 19  1  0  0  0  0
  9 22  2  0  0  0  0
 10 12  1  0  0  0  0
 10 19  1  0  0  0  0
 11 13  1  0  0  0  0
 11 19  1  0  0  0  0
 12 21  1  0  0  0  0
 13 21  1  0  0  0  0
 15 21  1  0  0  0  0
 16 17  2  0  0  0  0
 17 18  1  0  0  0  0
 20 25  1  0  0  0  0
 23 25  2  0  0  0  0
 24 25  2  0  0  0  0
 20 26  1  0  0  0  0
 20 27  1  0  0  0  0
 21 28  1  0  0  0  0
M  CHG  1  21   1
M  END
> <ref_mols>
x2627_0

> <original SMILES>
CC(=O)N1CCN(CC2=CN(N=N2)C=3C=CC=C(C3)S(=O)(=O)N)CC1

> <Chemgauss4>
-7.492530

> <ref_pdb>
x0104_0

$$$$
x0249
  -OEChem-05172015543D

 12 12  0     0  0  0  0  0  0999 V2000
    5.4440    1.3104   17.9534 C   0  0  0  0  0  0  0  0  0  0  0  0
    6.0731    0.8209   19.8826 C   0  0  0  0  0  0  0  0  0  0  0  0
    6.0920   -2.8407   19.5563 C   0  0  0  0  0  0  0  0  0  0  0  0
    4.7084    1.9679   16.8669 C   0  0  0  0  0  0  0  0  0  0  0  0
    6.2930    0.7095   21.3358 C   0  0  0  0  0  0  0  0  0  0  0  0
    7.2878   -2.0549   20.1027 C   0  0  0  0  0  0  0  0  0  0  0  0
    7.7826   -0.9282   19.2035 C   0  0  0  0  0  0  0  0  0  0  0  0
    5.2292    1.6159   19.2669 N   0  0  0  0  0  0  0  0  0  0  0  0
    6.3677    0.3762   17.7178 N   0  0  0  0  0  0  0  0  0  0  0  0
    6.7543    0.0799   18.9679 N   0  0  0  0  0  0  0  0  0  0  0  0
    5.3059   -3.2702   20.4500 O   0  5  0  0  0  0  0  0  0  0  0  0
    6.0234   -2.9686   18.3033 O   0  0  0  0  0  0  0  0  0  0  0  0
  1  4  1  0  0  0  0
  1  8  1  0  0  0  0
  1  9  2  0  0  0  0
  2  5  1  0  0  0  0
  2  8  2  0  0  0  0
  2 10  1  0  0  0  0
  3  6  1  0  0  0  0
  3 11  1  0  0  0  0
  3 12  2  0  0  0  0
  6  7  1  0  0  0  0
  7 10  1  0  0  0  0
  9 10  1  0  0  0  0
M  CHG  1  11  -1
M  END
> <ref_mols>
x0249_0

> <original SMILES>
CC=1N=C(C)N(CCC(=O)O)N1

> <Chemgauss4>
-7.484049

> <ref_pdb>
x0397_0

$$$$
x1226
  -OEChem-05172015543D

 12 12  0     0  0  0  0  0  0999 V2000
    7.3914    0.5076   20.0722 C   0  0  0  0  0  0  0  0  0  0  0  0
    8.7248    0.1872   20.0237 C   0  0  0  0  0  0  0  0  0  0  0  0
   12.2954   -0.8873   22.1437 C   0  0  0  0  0  0  0  0  0  0  0  0
    5.7174    0.8203   18.2214 C   0  0  0  0  0  0  0  0  0  0  0  0
    9.6943    0.0051   21.1542 C   0  0  0  0  0  0  0  0  0  0  0  0
   11.0245   -1.6294   22.4950 C   0  0  0  0  0  0  0  0  0  0  0  0
    9.1135    0.0337   18.7219 N   0  0  0  0  0  0  0  0  0  0  0  0
    8.0535    0.2516   17.9510 N   0  0  0  0  0  0  0  0  0  0  0  0
    7.0221    0.5357   18.7626 N   0  0  0  0  0  0  0  0  0  0  0  0
   10.0219   -1.4213   21.4167 N   0  3  0  0  0  0  0  0  0  0  0  0
    9.1583   -1.9268   21.6576 H   0  0  0  0  0  0  0  0  0  0  0  0
   10.3662   -1.8534   20.5483 H   0  0  0  0  0  0  0  0  0  0  0  0
  1  2  2  0  0  0  0
  1  9  1  0  0  0  0
  2  5  1  0  0  0  0
  2  7  1  0  0  0  0
  3  6  1  0  0  0  0
  4  9  1  0  0  0  0
  5 10  1  0  0  0  0
  6 10  1  0  0  0  0
  7  8  2  0  0  0  0
  8  9  1  0  0  0  0
 10 11  1  0  0  0  0
 10 12  1  0  0  0  0
M  CHG  1  10   1
M  END
> <ref_mols>
x1226_0

> <original SMILES>
CCNCC1=CN(C)N=N1

> <Chemgauss4>
-7.483360

> <ref_pdb>
x0678_0

$$$$
x0625
  -OEChem-05172015543D

 17 17  0     0  0  0  0  0  0999 V2000
   11.4458    1.1864   23.5029 C   0  0  0  0  0  0  0  0  0  0  0  0
   13.7071    1.6841   22.8130 C   0  0  0  0  0  0  0  0  0  0  0  0
   11.7087   -0.1779   23.3804 C   0  0  0  0  0  0  0  0  0  0  0  0
   13.9700    0.3198   22.6906 C   0  0  0  0  0  0  0  0  0  0  0  0
   12.4450    2.1175   23.2191 C   0  0  0  0  0  0  0  0  0  0  0  0
   12.9708   -0.6113   22.9743 C   0  0  0  0  0  0  0  0  0  0  0  0
   13.0511    4.5584   23.1021 C   0  0  0  0  0  0  0  0  0  0  0  0
   14.5390   -2.3159   22.4350 C   0  0  0  0  0  0  0  0  0  0  0  0
   12.3627    5.8803   23.3561 C   0  0  0  0  0  0  0  0  0  0  0  0
   12.1821    3.4822   23.3416 N   0  0  0  0  0  0  0  0  0  0  0  0
   11.1970    6.0683   22.4592 N   0  3  0  0  0  0  0  0  0  0  0  0
   14.2187    4.4941   22.7319 O   0  0  0  0  0  0  0  0  0  0  0  0
   13.2274   -1.9426   22.8547 O   0  0  0  0  0  0  0  0  0  0  0  0
   11.2350    3.7379   23.6443 H   0  0  0  0  0  0  0  0  0  0  0  0
   11.4917    6.4215   21.5423 H   0  0  0  0  0  0  0  0  0  0  0  0
   10.5321    6.7407   22.8574 H   0  0  0  0  0  0  0  0  0  0  0  0
   10.7002    5.1830   22.3116 H   0  0  0  0  0  0  0  0  0  0  0  0
  1  3  2  0  0  0  0
  1  5  1  0  0  0  0
  2  4  1  0  0  0  0
  2  5  2  0  0  0  0
  3  6  1  0  0  0  0
  4  6  2  0  0  0  0
  5 10  1  0  0  0  0
  6 13  1  0  0  0  0
  7  9  1  0  0  0  0
  7 10  1  0  0  0  0
  7 12  2  0  0  0  0
  8 13  1  0  0  0  0
  9 11  1  0  0  0  0
 10 14  1  0  0  0  0
 11 15  1  0  0  0  0
 11 16  1  0  0  0  0
 11 17  1  0  0  0  0
M  CHG  1  11   1
M  END
> <ref_mols>
x0625_0

> <original SMILES>
COC=1C=CC(NC(=O)CN)=CC1

> <Chemgauss4>
-7.482520

> <ref_pdb>
x0195_0

$$$$
x1087
  -OEChem-05172015543D

 17 17  0     0  0  0  0  0  0999 V2000
   11.4458    1.1864   23.5029 C   0  0  0  0  0  0  0  0  0  0  0  0
   13.7071    1.6841   22.8130 C   0  0  0  0  0  0  0  0  0  0  0  0
   11.7087   -0.1779   23.3804 C   0  0  0  0  0  0  0  0  0  0  0  0
   13.9700    0.3198   22.6906 C   0  0  0  0  0  0  0  0  0  0  0  0
   12.4450    2.1175   23.2191 C   0  0  0  0  0  0  0  0  0  0  0  0
   12.9708   -0.6113   22.9743 C   0  0  0  0  0  0  0  0  0  0  0  0
   13.0511    4.5584   23.1021 C   0  0  0  0  0  0  0  0  0  0  0  0
   14.5390   -2.3159   22.4350 C   0  0  0  0  0  0  0  0  0  0  0  0
   12.3627    5.8803   23.3561 C   0  0  0  0  0  0  0  0  0  0  0  0
   12.1821    3.4822   23.3416 N   0  0  0  0  0  0  0  0  0  0  0  0
   11.1970    6.0683   22.4592 N   0  3  0  0  0  0  0  0  0  0  0  0
   14.2187    4.4941   22.7319 O   0  0  0  0  0  0  0  0  0  0  0  0
   13.2274   -1.9426   22.8547 O   0  0  0  0  0  0  0  0  0  0  0  0
   11.2350    3.7379   23.6443 H   0  0  0  0  0  0  0  0  0  0  0  0
   11.4917    6.4215   21.5423 H   0  0  0  0  0  0  0  0  0  0  0  0
   10.5321    6.7407   22.8574 H   0  0  0  0  0  0  0  0  0  0  0  0
   10.7002    5.1830   22.3116 H   0  0  0  0  0  0  0  0  0  0  0  0
  1  3  2  0  0  0  0
  1  5  1  0  0  0  0
  2  4  1  0  0  0  0
  2  5  2  0  0  0  0
  3  6  1  0  0  0  0
  4  6  2  0  0  0  0
  5 10  1  0  0  0  0
  6 13  1  0  0  0  0
  7  9  1  0  0  0  0
  7 10  1  0  0  0  0
  7 12  2  0  0  0  0
  8 13  1  0  0  0  0
  9 11  1  0  0  0  0
 10 14  1  0  0  0  0
 11 15  1  0  0  0  0
 11 16  1  0  0  0  0
 11 17  1  0  0  0  0
M  CHG  1  11   1
M  END
> <ref_mols>
x1087_0

> <original SMILES>
COC=1C=CC(NC(=O)CN)=CC1

> <Chemgauss4>
-7.482520

> <ref_pdb>
x0195_0

$$$$
x0311
  -OEChem-05172015543D

 15 16  0     0  0  0  0  0  0999 V2000
   12.0598    2.9617   23.1743 C   0  0  0  0  0  0  0  0  0  0  0  0
   11.4874    1.7027   23.3764 C   0  0  0  0  0  0  0  0  0  0  0  0
   14.0940    1.9492   22.3078 C   0  0  0  0  0  0  0  0  0  0  0  0
   13.3552    3.0838   22.6467 C   0  0  0  0  0  0  0  0  0  0  0  0
   13.5174    0.7102   22.5225 C   0  0  0  0  0  0  0  0  0  0  0  0
   12.2365    0.5816   23.0656 C   0  0  0  0  0  0  0  0  0  0  0  0
   13.9261    4.4051   22.4372 C   0  0  0  0  0  0  0  0  0  0  0  0
   14.0551   -0.6456   22.2002 C   0  0  0  0  0  0  0  0  0  0  0  0
   13.0195   -1.5592   22.8908 C   0  0  0  0  0  0  0  0  0  0  0  0
   11.8325   -0.7503   23.1394 N   0  0  0  0  0  0  0  0  0  0  0  0
   13.1473    5.5079   22.7755 N   0  0  0  0  0  0  0  0  0  0  0  0
   15.0637    4.5509   21.9567 O   0  0  0  0  0  0  0  0  0  0  0  0
   11.0771   -1.0468   23.7414 H   0  0  0  0  0  0  0  0  0  0  0  0
   12.2175    5.3614   23.1531 H   0  0  0  0  0  0  0  0  0  0  0  0
   13.4895    6.4555   22.6527 H   0  0  0  0  0  0  0  0  0  0  0  0
  1  2  2  0  0  0  0
  1  4  1  0  0  0  0
  2  6  1  0  0  0  0
  3  4  2  0  0  0  0
  3  5  1  0  0  0  0
  4  7  1  0  0  0  0
  5  6  2  0  0  0  0
  5  8  1  0  0  0  0
  6 10  1  0  0  0  0
  7 11  1  0  0  0  0
  7 12  2  0  0  0  0
  8  9  1  0  0  0  0
  9 10  1  0  0  0  0
 10 13  1  0  0  0  0
 11 14  1  0  0  0  0
 11 15  1  0  0  0  0
M  END
> <ref_mols>
x0311_0

> <original SMILES>
NC(=O)C=1C=CC=2NCCC2C1

> <Chemgauss4>
-7.481947

> <ref_pdb>
x0195_0

$$$$
x1098
  -OEChem-05172015543D

 11 11  0     0  0  0  0  0  0999 V2000
    6.2217    0.8370   19.7269 C   0  0  0  0  0  0  0  0  0  0  0  0
    7.1669    0.5791   20.7134 C   0  0  0  0  0  0  0  0  0  0  0  0
    6.5726    0.5843   18.4105 C   0  0  0  0  0  0  0  0  0  0  0  0
    8.6692   -0.1359   19.0139 C   0  0  0  0  0  0  0  0  0  0  0  0
    8.4166    0.0833   20.3585 C   0  0  0  0  0  0  0  0  0  0  0  0
    8.9501   -2.3756   22.3044 C   0  0  0  0  0  0  0  0  0  0  0  0
   11.2736   -1.4068   22.2111 C   0  0  0  0  0  0  0  0  0  0  0  0
    9.9329   -1.5343   21.5029 C   0  0  0  0  0  0  0  0  0  0  0  0
    7.7763    0.1028   18.0272 N   0  0  0  0  0  0  0  0  0  0  0  0
    9.3635   -0.1792   21.3048 N   0  0  0  0  0  0  0  0  0  0  0  0
    9.7119    0.5344   21.9060 H   0  0  0  0  0  0  0  0  0  0  0  0
  1  2  2  0  0  0  0
  1  3  1  0  0  0  0
  2  5  1  0  0  0  0
  3  9  2  0  0  0  0
  4  5  2  0  0  0  0
  4  9  1  0  0  0  0
  5 10  1  0  0  0  0
  6  8  1  0  0  0  0
  7  8  1  0  0  0  0
  8 10  1  0  0  0  0
 10 11  1  0  0  0  0
M  END
> <ref_mols>
x1098_0

> <original SMILES>
CC(C)NC=1C=CC=NC1

> <Chemgauss4>
-7.474369

> <ref_pdb>
x0678_0

$$$$
x0572
  -OEChem-05172015543D

 11 11  0     0  0  0  0  0  0999 V2000
    6.2217    0.8370   19.7269 C   0  0  0  0  0  0  0  0  0  0  0  0
    7.1669    0.5791   20.7134 C   0  0  0  0  0  0  0  0  0  0  0  0
    6.5726    0.5843   18.4105 C   0  0  0  0  0  0  0  0  0  0  0  0
    8.6692   -0.1359   19.0139 C   0  0  0  0  0  0  0  0  0  0  0  0
    8.4166    0.0833   20.3585 C   0  0  0  0  0  0  0  0  0  0  0  0
    8.9501   -2.3756   22.3044 C   0  0  0  0  0  0  0  0  0  0  0  0
   11.2736   -1.4068   22.2111 C   0  0  0  0  0  0  0  0  0  0  0  0
    9.9329   -1.5343   21.5029 C   0  0  0  0  0  0  0  0  0  0  0  0
    7.7763    0.1028   18.0272 N   0  0  0  0  0  0  0  0  0  0  0  0
    9.3635   -0.1792   21.3048 N   0  0  0  0  0  0  0  0  0  0  0  0
    9.7119    0.5344   21.9060 H   0  0  0  0  0  0  0  0  0  0  0  0
  1  2  2  0  0  0  0
  1  3  1  0  0  0  0
  2  5  1  0  0  0  0
  3  9  2  0  0  0  0
  4  5  2  0  0  0  0
  4  9  1  0  0  0  0
  5 10  1  0  0  0  0
  6  8  1  0  0  0  0
  7  8  1  0  0  0  0
  8 10  1  0  0  0  0
 10 11  1  0  0  0  0
M  END
> <ref_mols>
x0572_0

> <original SMILES>
CC(C)NC=1C=CC=NC1

> <Chemgauss4>
-7.474369

> <ref_pdb>
x0678_0

$$$$
x0135
  -OEChem-05172015543D

 10 10  0     0  0  0  0  0  0999 V2000
    5.1928    0.9366   19.1995 C   0  0  0  0  0  0  0  0  0  0  0  0
    7.2014   -0.0108   20.1226 C   0  0  0  0  0  0  0  0  0  0  0  0
    5.7927    0.8574   17.9530 C   0  0  0  0  0  0  0  0  0  0  0  0
    7.7113   -0.0477   18.8348 C   0  0  0  0  0  0  0  0  0  0  0  0
    5.9173    0.4922   20.2998 C   0  0  0  0  0  0  0  0  0  0  0  0
    5.3343    0.5528   21.6303 C   0  0  0  0  0  0  0  0  0  0  0  0
    5.7325    0.0778   23.9346 C   0  0  0  0  0  0  0  0  0  0  0  0
    7.0377    0.3750   17.7416 N   0  0  0  0  0  0  0  0  0  0  0  0
    4.2004    0.9841   21.8795 O   0  0  0  0  0  0  0  0  0  0  0  0
    6.1945    0.0716   22.5795 O   0  0  0  0  0  0  0  0  0  0  0  0
  1  3  2  0  0  0  0
  1  5  1  0  0  0  0
  2  4  1  0  0  0  0
  2  5  2  0  0  0  0
  3  8  1  0  0  0  0
  4  8  2  0  0  0  0
  5  6  1  0  0  0  0
  6  9  2  0  0  0  0
  6 10  1  0  0  0  0
  7 10  1  0  0  0  0
M  END
> <ref_mols>
x0135_0

> <original SMILES>
COC(=O)C=1C=CN=CC1

> <Chemgauss4>
-7.473463

> <ref_pdb>
x0540_0

$$$$
x2058
  -OEChem-05172015543D

 31 32  0     1  0  0  0  0  0999 V2000
   11.2001    0.5554   23.5921 C   0  0  0  0  0  0  0  0  0  0  0  0
   10.3775    0.8234   22.5180 C   0  0  0  0  0  0  0  0  0  0  0  0
   11.6239    2.6262   22.4368 C   0  0  0  0  0  0  0  0  0  0  0  0
    8.2958   -4.3150   23.0395 C   0  0  0  0  0  0  0  0  0  0  0  0
    9.2877   -0.0821   22.0647 C   0  0  0  0  0  0  0  0  0  0  0  0
    9.0547   -1.3702   22.8097 C   0  0  0  0  0  0  0  0  0  0  0  0
    6.9322    0.5479   18.8946 C   0  0  0  0  0  0  0  0  0  0  0  0
    9.7396   -3.7510   22.8426 C   0  0  2  0  0  0  0  0  0  0  0  0
    9.8324   -3.8131   24.3923 C   0  0  2  0  0  0  0  0  0  0  0  0
   10.9848   -4.6039   24.9743 C   0  0  0  0  0  0  0  0  0  0  0  0
    5.8575    0.8188   21.2268 C   0  0  0  0  0  0  0  0  0  0  0  0
    5.4565   -1.2222   19.8259 C   0  0  0  0  0  0  0  0  0  0  0  0
    6.4577   -0.1327   20.1981 C   0  0  0  0  0  0  0  0  0  0  0  0
   10.6188    2.0106   21.8546 N   0  0  0  0  0  0  0  0  0  0  0  0
    8.5502    0.2243   21.0403 N   0  0  0  0  0  0  0  0  0  0  0  0
    8.5651   -4.5981   24.4002 N   0  0  0  0  0  0  0  0  0  0  0  0
   12.1227    3.8258   22.0361 N   0  0  0  0  0  0  0  0  0  0  0  0
    9.7898   -2.4053   22.2924 N   0  0  0  0  0  0  0  0  0  0  0  0
    7.4315   -0.2171   18.0219 O   0  5  0  0  0  0  0  0  0  0  0  0
    6.6259   -5.9897   25.2078 O   0  5  0  0  0  0  0  0  0  0  0  0
    7.2790   -4.4657   22.4010 O   0  0  0  0  0  0  0  0  0  0  0  0
    8.2773   -1.3591   23.7506 O   0  0  0  0  0  0  0  0  0  0  0  0
    6.7633    1.8011   18.8471 O   0  0  0  0  0  0  0  0  0  0  0  0
    8.2283   -5.0950   26.8470 O   0  0  0  0  0  0  0  0  0  0  0  0
    6.6643   -3.5788   25.7029 O   0  0  0  0  0  0  0  0  0  0  0  0
    7.5898   -0.7624   20.7778 O   0  0  0  0  0  0  0  0  0  0  0  0
   12.3263    1.8340   23.7874 S   0  0  0  0  0  0  0  0  0  0  0  0
    7.4418   -4.8318   25.6252 S   0  0  0  0  0  0  0  0  0  0  0  0
   11.7623    4.3090   21.2062 H   0  0  0  0  0  0  0  0  0  0  0  0
   12.9393    4.2484   22.4907 H   0  0  0  0  0  0  0  0  0  0  0  0
   10.3880   -2.2552   21.4914 H   0  0  0  0  0  0  0  0  0  0  0  0
  1  2  2  0  0  0  0
  1 27  1  0  0  0  0
  2  5  1  0  0  0  0
  2 14  1  0  0  0  0
  3 14  2  0  0  0  0
  3 17  1  0  0  0  0
  3 27  1  0  0  0  0
  4  8  1  0  0  0  0
  4 16  1  0  0  0  0
  4 21  2  0  0  0  0
  5  6  1  0  0  0  0
  5 15  2  0  0  0  0
  6 18  1  0  0  0  0
  6 22  2  0  0  0  0
  7 13  1  0  0  0  0
  7 19  1  0  0  0  0
  7 23  2  0  0  0  0
  8  9  1  0  0  0  0
  8 18  1  0  0  0  0
  9 10  1  0  0  0  0
  9 16  1  0  0  0  0
 11 13  1  0  0  0  0
 12 13  1  0  0  0  0
 13 26  1  0  0  0  0
 15 26  1  0  0  0  0
 16 28  1  0  0  0  0
 20 28  1  0  0  0  0
 24 28  2  0  0  0  0
 25 28  2  0  0  0  0
 17 29  1  0  0  0  0
 17 30  1  0  0  0  0
 18 31  1  0  0  0  0
M  CHG  2  19  -1  20  -1
M  END
> <ref_mols>
x2058_0

> <original SMILES>
C[C@H]1[C@H](NC(=O)C(=N/OC(C)(C)C(O)=O)\C2=CSC([NH3+])=N2)C(=O)N1S([O-])(=O)=O

> <Chemgauss4>
-7.470818

> <ref_pdb>
x1077_0

$$$$
x0853
  -OEChem-05172015543D

 20 21  0     1  0  0  0  0  0999 V2000
   14.0362    1.2955   22.0062 C   0  0  0  0  0  0  0  0  0  0  0  0
   12.5404    0.9606   23.8737 C   0  0  0  0  0  0  0  0  0  0  0  0
   14.3920   -0.0525   22.0494 C   0  0  0  0  0  0  0  0  0  0  0  0
   12.8961   -0.3875   23.9168 C   0  0  0  0  0  0  0  0  0  0  0  0
   13.1104    1.8021   22.9184 C   0  0  0  0  0  0  0  0  0  0  0  0
   13.8219   -0.8940   23.0047 C   0  0  0  0  0  0  0  0  0  0  0  0
   12.1252    3.4722   21.4684 C   0  0  0  0  0  0  0  0  0  0  0  0
   11.2880    5.1013   24.0010 C   0  0  0  0  0  0  0  0  0  0  0  0
   11.6562    3.6165   23.9387 C   0  0  0  0  0  0  0  0  0  0  0  0
   12.5129    5.9877   24.1095 C   0  0  0  0  0  0  0  0  0  0  0  0
   13.9033    4.2611   22.9511 C   0  0  0  0  0  0  0  0  0  0  0  0
   12.7186    3.2827   22.8710 C   0  0  1  0  0  0  0  0  0  0  0  0
   11.0265    2.6840   21.2200 N   0  0  0  0  0  0  0  0  0  0  0  0
   13.4288    5.6801   22.9764 N   0  3  0  0  0  0  0  0  0  0  0  0
   12.5948    4.2730   20.6637 O   0  0  0  0  0  0  0  0  0  0  0  0
   14.1614   -2.1892   23.0445 F   0  0  0  0  0  0  0  0  0  0  0  0
   10.6999    2.0597   21.9502 H   0  0  0  0  0  0  0  0  0  0  0  0
   10.5290    2.7014   20.3356 H   0  0  0  0  0  0  0  0  0  0  0  0
   12.9653    5.9065   22.0853 H   0  0  0  0  0  0  0  0  0  0  0  0
   14.2460    6.3037   23.0271 H   0  0  0  0  0  0  0  0  0  0  0  0
  1  3  2  0  0  0  0
  1  5  1  0  0  0  0
  2  4  1  0  0  0  0
  2  5  2  0  0  0  0
  3  6  1  0  0  0  0
  4  6  2  0  0  0  0
  5 12  1  0  0  0  0
  6 16  1  0  0  0  0
  7 12  1  0  0  0  0
  7 13  1  0  0  0  0
  7 15  2  0  0  0  0
  8  9  1  0  0  0  0
  8 10  1  0  0  0  0
  9 12  1  0  0  0  0
 10 14  1  0  0  0  0
 11 12  1  0  0  0  0
 11 14  1  0  0  0  0
 13 17  1  0  0  0  0
 13 18  1  0  0  0  0
 14 19  1  0  0  0  0
 14 20  1  0  0  0  0
M  CHG  1  14   1
M  END
> <ref_mols>
x0853_0

> <original SMILES>
O=C(N)C1(C2=CC=C(F)C=C2)CNCCC1

> <Chemgauss4>
-7.457406

> <ref_pdb>
x0195_0

$$$$
x1148
  -OEChem-05172015543D

 15 16  0     1  0  0  0  0  0999 V2000
    9.4473   -3.5538   24.0244 C   0  0  0  0  0  0  0  0  0  0  0  0
    9.1391   -2.6295   25.0035 C   0  0  0  0  0  0  0  0  0  0  0  0
    9.8817   -1.7120   22.9184 C   0  0  0  0  0  0  0  0  0  0  0  0
    8.1254   -5.4937   23.4362 C   0  0  0  0  0  0  0  0  0  0  0  0
    8.6868   -2.9550   26.3851 C   0  0  0  0  0  0  0  0  0  0  0  0
    8.1755   -4.4044   26.4443 C   0  0  0  0  0  0  0  0  0  0  0  0
    9.1072   -5.3868   25.7055 C   0  0  0  0  0  0  0  0  0  0  0  0
    9.3293   -5.0216   24.2272 C   0  0  2  0  0  0  0  0  0  0  0  0
   10.2820   -0.7961   21.8281 C   0  0  0  0  0  0  0  0  0  0  0  0
    7.4153   -6.3385   21.2080 C   0  0  0  0  0  0  0  0  0  0  0  0
    9.8783   -3.0247   22.8239 N   0  0  0  0  0  0  0  0  0  0  0  0
    8.4147   -5.8580   22.1350 N   0  0  0  0  0  0  0  0  0  0  0  0
    7.0239   -5.5235   23.9725 O   0  0  0  0  0  0  0  0  0  0  0  0
    9.3843   -1.0484   24.4244 S   0  0  0  0  0  0  0  0  0  0  0  0
    9.3757   -5.7847   21.8148 H   0  0  0  0  0  0  0  0  0  0  0  0
  1  2  2  0  0  0  0
  1  8  1  0  0  0  0
  1 11  1  0  0  0  0
  2  5  1  0  0  0  0
  2 14  1  0  0  0  0
  3  9  1  0  0  0  0
  3 11  2  0  0  0  0
  3 14  1  0  0  0  0
  4  8  1  0  0  0  0
  4 12  1  0  0  0  0
  4 13  2  0  0  0  0
  5  6  1  0  0  0  0
  6  7  1  0  0  0  0
  7  8  1  0  0  0  0
 10 12  1  0  0  0  0
 12 15  1  0  0  0  0
M  END
> <ref_mols>
x1148_0

> <original SMILES>
CNC(=O)C1CCCC=2SC(C)=NC12

> <Chemgauss4>
-7.454516

> <ref_pdb>
x1077_0

$$$$
x0337
  -OEChem-05172015543D

 15 16  0     1  0  0  0  0  0999 V2000
    9.4473   -3.5538   24.0244 C   0  0  0  0  0  0  0  0  0  0  0  0
    9.1391   -2.6295   25.0035 C   0  0  0  0  0  0  0  0  0  0  0  0
    9.8817   -1.7120   22.9184 C   0  0  0  0  0  0  0  0  0  0  0  0
    8.1254   -5.4937   23.4362 C   0  0  0  0  0  0  0  0  0  0  0  0
    8.6868   -2.9550   26.3851 C   0  0  0  0  0  0  0  0  0  0  0  0
    8.1755   -4.4044   26.4443 C   0  0  0  0  0  0  0  0  0  0  0  0
    9.1072   -5.3868   25.7055 C   0  0  0  0  0  0  0  0  0  0  0  0
    9.3293   -5.0216   24.2272 C   0  0  2  0  0  0  0  0  0  0  0  0
   10.2820   -0.7961   21.8281 C   0  0  0  0  0  0  0  0  0  0  0  0
    7.4153   -6.3385   21.2080 C   0  0  0  0  0  0  0  0  0  0  0  0
    9.8783   -3.0247   22.8239 N   0  0  0  0  0  0  0  0  0  0  0  0
    8.4147   -5.8580   22.1350 N   0  0  0  0  0  0  0  0  0  0  0  0
    7.0239   -5.5235   23.9725 O   0  0  0  0  0  0  0  0  0  0  0  0
    9.3843   -1.0484   24.4244 S   0  0  0  0  0  0  0  0  0  0  0  0
    9.3757   -5.7847   21.8148 H   0  0  0  0  0  0  0  0  0  0  0  0
  1  2  2  0  0  0  0
  1  8  1  0  0  0  0
  1 11  1  0  0  0  0
  2  5  1  0  0  0  0
  2 14  1  0  0  0  0
  3  9  1  0  0  0  0
  3 11  2  0  0  0  0
  3 14  1  0  0  0  0
  4  8  1  0  0  0  0
  4 12  1  0  0  0  0
  4 13  2  0  0  0  0
  5  6  1  0  0  0  0
  6  7  1  0  0  0  0
  7  8  1  0  0  0  0
 10 12  1  0  0  0  0
 12 15  1  0  0  0  0
M  END
> <ref_mols>
x0337_0

> <original SMILES>
CNC(=O)C1CCCC=2SC(C)=NC12

> <Chemgauss4>
-7.454516

> <ref_pdb>
x1077_0

$$$$
x1409
  -OEChem-05172015543D

 17 17  0     1  0  0  0  0  0999 V2000
    8.7718   -5.4305   23.6677 C   0  0  0  0  0  0  0  0  0  0  0  0
    8.1967   -3.1067   22.2353 C   0  0  0  0  0  0  0  0  0  0  0  0
    7.8437   -5.4645   22.6270 C   0  0  0  0  0  0  0  0  0  0  0  0
    9.4123   -4.2346   23.9923 C   0  0  0  0  0  0  0  0  0  0  0  0
    7.5562   -4.3026   21.9108 C   0  0  0  0  0  0  0  0  0  0  0  0
    9.1248   -3.0727   23.2760 C   0  0  0  0  0  0  0  0  0  0  0  0
   12.0658   -1.1038   24.3396 C   0  0  0  0  0  0  0  0  0  0  0  0
    7.1710   -6.7564   22.2972 C   0  0  0  0  0  0  0  0  0  0  0  0
   10.4017   -4.2223   25.1110 C   0  0  0  0  0  0  0  0  0  0  0  0
    6.5666   -4.3149   20.7922 C   0  0  0  0  0  0  0  0  0  0  0  0
    9.3385   -0.6163   22.7170 C   0  0  0  0  0  0  0  0  0  0  0  0
   13.5283   -1.4099   24.1404 C   0  0  0  0  0  0  0  0  0  0  0  0
    9.7974   -1.7807   23.6059 C   0  0  2  0  0  0  0  0  0  0  0  0
   11.2447   -1.8931   23.5598 N   0  0  0  0  0  0  0  0  0  0  0  0
   11.6849   -0.2460   25.1342 O   0  0  0  0  0  0  0  0  0  0  0  0
   14.1952   -1.9192   25.6995 Cl  0  0  0  0  0  0  0  0  0  0  0  0
   11.6641   -2.5710   22.9368 H   0  0  0  0  0  0  0  0  0  0  0  0
  1  3  2  0  0  0  0
  1  4  1  0  0  0  0
  2  5  2  0  0  0  0
  2  6  1  0  0  0  0
  3  5  1  0  0  0  0
  3  8  1  0  0  0  0
  4  6  2  0  0  0  0
  4  9  1  0  0  0  0
  5 10  1  0  0  0  0
  6 13  1  0  0  0  0
  7 12  1  0  0  0  0
  7 14  1  0  0  0  0
  7 15  2  0  0  0  0
 11 13  1  0  0  0  0
 12 16  1  0  0  0  0
 13 14  1  0  0  0  0
 14 17  1  0  0  0  0
M  END
> <ref_mols>
x1409_0

> <original SMILES>
CC(NC(=O)CCl)c1cc(C)c(C)cc1C

> <Chemgauss4>
-7.452919

> <ref_pdb>
x0749_0

$$$$
x0821
  -OEChem-05172015543D

 17 17  0     1  0  0  0  0  0999 V2000
    8.7718   -5.4305   23.6677 C   0  0  0  0  0  0  0  0  0  0  0  0
    8.1967   -3.1067   22.2353 C   0  0  0  0  0  0  0  0  0  0  0  0
    7.8437   -5.4645   22.6270 C   0  0  0  0  0  0  0  0  0  0  0  0
    9.4123   -4.2346   23.9923 C   0  0  0  0  0  0  0  0  0  0  0  0
    7.5562   -4.3026   21.9108 C   0  0  0  0  0  0  0  0  0  0  0  0
    9.1248   -3.0727   23.2760 C   0  0  0  0  0  0  0  0  0  0  0  0
   12.0658   -1.1038   24.3396 C   0  0  0  0  0  0  0  0  0  0  0  0
    7.1710   -6.7564   22.2972 C   0  0  0  0  0  0  0  0  0  0  0  0
   10.4017   -4.2223   25.1110 C   0  0  0  0  0  0  0  0  0  0  0  0
    6.5666   -4.3149   20.7922 C   0  0  0  0  0  0  0  0  0  0  0  0
    9.3385   -0.6163   22.7170 C   0  0  0  0  0  0  0  0  0  0  0  0
   13.5283   -1.4099   24.1404 C   0  0  0  0  0  0  0  0  0  0  0  0
    9.7974   -1.7807   23.6059 C   0  0  2  0  0  0  0  0  0  0  0  0
   11.2447   -1.8931   23.5598 N   0  0  0  0  0  0  0  0  0  0  0  0
   11.6849   -0.2460   25.1342 O   0  0  0  0  0  0  0  0  0  0  0  0
   14.1952   -1.9192   25.6995 Cl  0  0  0  0  0  0  0  0  0  0  0  0
   11.6641   -2.5710   22.9368 H   0  0  0  0  0  0  0  0  0  0  0  0
  1  3  2  0  0  0  0
  1  4  1  0  0  0  0
  2  5  2  0  0  0  0
  2  6  1  0  0  0  0
  3  5  1  0  0  0  0
  3  8  1  0  0  0  0
  4  6  2  0  0  0  0
  4  9  1  0  0  0  0
  5 10  1  0  0  0  0
  6 13  1  0  0  0  0
  7 12  1  0  0  0  0
  7 14  1  0  0  0  0
  7 15  2  0  0  0  0
 11 13  1  0  0  0  0
 12 16  1  0  0  0  0
 13 14  1  0  0  0  0
 14 17  1  0  0  0  0
M  END
> <ref_mols>
x0821_0

> <original SMILES>
CC(NC(=O)CCl)c1cc(C)c(C)cc1C

> <Chemgauss4>
-7.452919

> <ref_pdb>
x0749_0

> <CYS145-warhead dist minimum (A)>
18.106813

> <CYS145-warhead dist mean (A)>
30.748798

> <CYS145-warhead dist stddev (A)>
4.320759

$$$$
x1459
  -OEChem-05172015543D

 17 17  0     1  0  0  0  0  0999 V2000
    8.7718   -5.4305   23.6677 C   0  0  0  0  0  0  0  0  0  0  0  0
    8.1967   -3.1067   22.2353 C   0  0  0  0  0  0  0  0  0  0  0  0
    7.8437   -5.4645   22.6270 C   0  0  0  0  0  0  0  0  0  0  0  0
    9.4123   -4.2346   23.9923 C   0  0  0  0  0  0  0  0  0  0  0  0
    7.5562   -4.3026   21.9108 C   0  0  0  0  0  0  0  0  0  0  0  0
    9.1248   -3.0727   23.2760 C   0  0  0  0  0  0  0  0  0  0  0  0
   12.0658   -1.1038   24.3396 C   0  0  0  0  0  0  0  0  0  0  0  0
    7.1710   -6.7564   22.2972 C   0  0  0  0  0  0  0  0  0  0  0  0
   10.4017   -4.2223   25.1110 C   0  0  0  0  0  0  0  0  0  0  0  0
    6.5666   -4.3149   20.7922 C   0  0  0  0  0  0  0  0  0  0  0  0
    9.3385   -0.6163   22.7170 C   0  0  0  0  0  0  0  0  0  0  0  0
   13.5283   -1.4099   24.1404 C   0  0  0  0  0  0  0  0  0  0  0  0
    9.7974   -1.7807   23.6059 C   0  0  2  0  0  0  0  0  0  0  0  0
   11.2447   -1.8931   23.5598 N   0  0  0  0  0  0  0  0  0  0  0  0
   11.6849   -0.2460   25.1342 O   0  0  0  0  0  0  0  0  0  0  0  0
   14.1952   -1.9192   25.6995 Cl  0  0  0  0  0  0  0  0  0  0  0  0
   11.6641   -2.5710   22.9368 H   0  0  0  0  0  0  0  0  0  0  0  0
  1  3  2  0  0  0  0
  1  4  1  0  0  0  0
  2  5  2  0  0  0  0
  2  6  1  0  0  0  0
  3  5  1  0  0  0  0
  3  8  1  0  0  0  0
  4  6  2  0  0  0  0
  4  9  1  0  0  0  0
  5 10  1  0  0  0  0
  6 13  1  0  0  0  0
  7 12  1  0  0  0  0
  7 14  1  0  0  0  0
  7 15  2  0  0  0  0
 11 13  1  0  0  0  0
 12 16  1  0  0  0  0
 13 14  1  0  0  0  0
 14 17  1  0  0  0  0
M  END
> <ref_mols>
x1459_0

> <original SMILES>
CC(NC(=O)CCl)c1cc(C)c(C)cc1C

> <Chemgauss4>
-7.452919

> <ref_pdb>
x0749_0

$$$$
x1381
  -OEChem-05172015543D

 17 17  0     1  0  0  0  0  0999 V2000
    8.7718   -5.4305   23.6677 C   0  0  0  0  0  0  0  0  0  0  0  0
    8.1967   -3.1067   22.2353 C   0  0  0  0  0  0  0  0  0  0  0  0
    7.8437   -5.4645   22.6270 C   0  0  0  0  0  0  0  0  0  0  0  0
    9.4123   -4.2346   23.9923 C   0  0  0  0  0  0  0  0  0  0  0  0
    7.5562   -4.3026   21.9108 C   0  0  0  0  0  0  0  0  0  0  0  0
    9.1248   -3.0727   23.2760 C   0  0  0  0  0  0  0  0  0  0  0  0
   12.0658   -1.1038   24.3396 C   0  0  0  0  0  0  0  0  0  0  0  0
    7.1710   -6.7564   22.2972 C   0  0  0  0  0  0  0  0  0  0  0  0
   10.4017   -4.2223   25.1110 C   0  0  0  0  0  0  0  0  0  0  0  0
    6.5666   -4.3149   20.7922 C   0  0  0  0  0  0  0  0  0  0  0  0
    9.3385   -0.6163   22.7170 C   0  0  0  0  0  0  0  0  0  0  0  0
   13.5283   -1.4099   24.1404 C   0  0  0  0  0  0  0  0  0  0  0  0
    9.7974   -1.7807   23.6059 C   0  0  2  0  0  0  0  0  0  0  0  0
   11.2447   -1.8931   23.5598 N   0  0  0  0  0  0  0  0  0  0  0  0
   11.6849   -0.2460   25.1342 O   0  0  0  0  0  0  0  0  0  0  0  0
   14.1952   -1.9192   25.6995 Cl  0  0  0  0  0  0  0  0  0  0  0  0
   11.6641   -2.5710   22.9368 H   0  0  0  0  0  0  0  0  0  0  0  0
  1  3  2  0  0  0  0
  1  4  1  0  0  0  0
  2  5  2  0  0  0  0
  2  6  1  0  0  0  0
  3  5  1  0  0  0  0
  3  8  1  0  0  0  0
  4  6  2  0  0  0  0
  4  9  1  0  0  0  0
  5 10  1  0  0  0  0
  6 13  1  0  0  0  0
  7 12  1  0  0  0  0
  7 14  1  0  0  0  0
  7 15  2  0  0  0  0
 11 13  1  0  0  0  0
 12 16  1  0  0  0  0
 13 14  1  0  0  0  0
 14 17  1  0  0  0  0
M  END
> <ref_mols>
x1381_0

> <original SMILES>
CC(NC(=O)CCl)c1cc(C)c(C)cc1C

> <Chemgauss4>
-7.452919

> <ref_pdb>
x0749_0

$$$$
x1323
  -OEChem-05172015543D

 17 17  0     1  0  0  0  0  0999 V2000
    8.7718   -5.4305   23.6677 C   0  0  0  0  0  0  0  0  0  0  0  0
    8.1967   -3.1067   22.2353 C   0  0  0  0  0  0  0  0  0  0  0  0
    7.8437   -5.4645   22.6270 C   0  0  0  0  0  0  0  0  0  0  0  0
    9.4123   -4.2346   23.9923 C   0  0  0  0  0  0  0  0  0  0  0  0
    7.5562   -4.3026   21.9108 C   0  0  0  0  0  0  0  0  0  0  0  0
    9.1248   -3.0727   23.2760 C   0  0  0  0  0  0  0  0  0  0  0  0
   12.0658   -1.1038   24.3396 C   0  0  0  0  0  0  0  0  0  0  0  0
    7.1710   -6.7564   22.2972 C   0  0  0  0  0  0  0  0  0  0  0  0
   10.4017   -4.2223   25.1110 C   0  0  0  0  0  0  0  0  0  0  0  0
    6.5666   -4.3149   20.7922 C   0  0  0  0  0  0  0  0  0  0  0  0
    9.3385   -0.6163   22.7170 C   0  0  0  0  0  0  0  0  0  0  0  0
   13.5283   -1.4099   24.1404 C   0  0  0  0  0  0  0  0  0  0  0  0
    9.7974   -1.7807   23.6059 C   0  0  2  0  0  0  0  0  0  0  0  0
   11.2447   -1.8931   23.5598 N   0  0  0  0  0  0  0  0  0  0  0  0
   11.6849   -0.2460   25.1342 O   0  0  0  0  0  0  0  0  0  0  0  0
   14.1952   -1.9192   25.6995 Cl  0  0  0  0  0  0  0  0  0  0  0  0
   11.6641   -2.5710   22.9368 H   0  0  0  0  0  0  0  0  0  0  0  0
  1  3  2  0  0  0  0
  1  4  1  0  0  0  0
  2  5  2  0  0  0  0
  2  6  1  0  0  0  0
  3  5  1  0  0  0  0
  3  8  1  0  0  0  0
  4  6  2  0  0  0  0
  4  9  1  0  0  0  0
  5 10  1  0  0  0  0
  6 13  1  0  0  0  0
  7 12  1  0  0  0  0
  7 14  1  0  0  0  0
  7 15  2  0  0  0  0
 11 13  1  0  0  0  0
 12 16  1  0  0  0  0
 13 14  1  0  0  0  0
 14 17  1  0  0  0  0
M  END
> <ref_mols>
x1323_0

> <original SMILES>
CC(NC(=O)CCl)c1cc(C)c(C)cc1C

> <Chemgauss4>
-7.452919

> <ref_pdb>
x0749_0

$$$$
x0747
  -OEChem-05172015543D

 17 17  0     1  0  0  0  0  0999 V2000
    8.7718   -5.4305   23.6677 C   0  0  0  0  0  0  0  0  0  0  0  0
    8.1967   -3.1067   22.2353 C   0  0  0  0  0  0  0  0  0  0  0  0
    7.8437   -5.4645   22.6270 C   0  0  0  0  0  0  0  0  0  0  0  0
    9.4123   -4.2346   23.9923 C   0  0  0  0  0  0  0  0  0  0  0  0
    7.5562   -4.3026   21.9108 C   0  0  0  0  0  0  0  0  0  0  0  0
    9.1248   -3.0727   23.2760 C   0  0  0  0  0  0  0  0  0  0  0  0
   12.0658   -1.1038   24.3396 C   0  0  0  0  0  0  0  0  0  0  0  0
    7.1710   -6.7564   22.2972 C   0  0  0  0  0  0  0  0  0  0  0  0
   10.4017   -4.2223   25.1110 C   0  0  0  0  0  0  0  0  0  0  0  0
    6.5666   -4.3149   20.7922 C   0  0  0  0  0  0  0  0  0  0  0  0
    9.3385   -0.6163   22.7170 C   0  0  0  0  0  0  0  0  0  0  0  0
   13.5283   -1.4099   24.1404 C   0  0  0  0  0  0  0  0  0  0  0  0
    9.7974   -1.7807   23.6059 C   0  0  2  0  0  0  0  0  0  0  0  0
   11.2447   -1.8931   23.5598 N   0  0  0  0  0  0  0  0  0  0  0  0
   11.6849   -0.2460   25.1342 O   0  0  0  0  0  0  0  0  0  0  0  0
   14.1952   -1.9192   25.6995 Cl  0  0  0  0  0  0  0  0  0  0  0  0
   11.6641   -2.5710   22.9368 H   0  0  0  0  0  0  0  0  0  0  0  0
  1  3  2  0  0  0  0
  1  4  1  0  0  0  0
  2  5  2  0  0  0  0
  2  6  1  0  0  0  0
  3  5  1  0  0  0  0
  3  8  1  0  0  0  0
  4  6  2  0  0  0  0
  4  9  1  0  0  0  0
  5 10  1  0  0  0  0
  6 13  1  0  0  0  0
  7 12  1  0  0  0  0
  7 14  1  0  0  0  0
  7 15  2  0  0  0  0
 11 13  1  0  0  0  0
 12 16  1  0  0  0  0
 13 14  1  0  0  0  0
 14 17  1  0  0  0  0
M  END
> <ref_mols>
x0747_0

> <original SMILES>
CC(NC(=O)CCl)c1cc(C)c(C)cc1C

> <Chemgauss4>
-7.452919

> <ref_pdb>
x0749_0

$$$$
x1364
  -OEChem-05172015543D

 17 17  0     1  0  0  0  0  0999 V2000
    8.7718   -5.4305   23.6677 C   0  0  0  0  0  0  0  0  0  0  0  0
    8.1967   -3.1067   22.2353 C   0  0  0  0  0  0  0  0  0  0  0  0
    7.8437   -5.4645   22.6270 C   0  0  0  0  0  0  0  0  0  0  0  0
    9.4123   -4.2346   23.9923 C   0  0  0  0  0  0  0  0  0  0  0  0
    7.5562   -4.3026   21.9108 C   0  0  0  0  0  0  0  0  0  0  0  0
    9.1248   -3.0727   23.2760 C   0  0  0  0  0  0  0  0  0  0  0  0
   12.0658   -1.1038   24.3396 C   0  0  0  0  0  0  0  0  0  0  0  0
    7.1710   -6.7564   22.2972 C   0  0  0  0  0  0  0  0  0  0  0  0
   10.4017   -4.2223   25.1110 C   0  0  0  0  0  0  0  0  0  0  0  0
    6.5666   -4.3149   20.7922 C   0  0  0  0  0  0  0  0  0  0  0  0
    9.3385   -0.6163   22.7170 C   0  0  0  0  0  0  0  0  0  0  0  0
   13.5283   -1.4099   24.1404 C   0  0  0  0  0  0  0  0  0  0  0  0
    9.7974   -1.7807   23.6059 C   0  0  2  0  0  0  0  0  0  0  0  0
   11.2447   -1.8931   23.5598 N   0  0  0  0  0  0  0  0  0  0  0  0
   11.6849   -0.2460   25.1342 O   0  0  0  0  0  0  0  0  0  0  0  0
   14.1952   -1.9192   25.6995 Cl  0  0  0  0  0  0  0  0  0  0  0  0
   11.6641   -2.5710   22.9368 H   0  0  0  0  0  0  0  0  0  0  0  0
  1  3  2  0  0  0  0
  1  4  1  0  0  0  0
  2  5  2  0  0  0  0
  2  6  1  0  0  0  0
  3  5  1  0  0  0  0
  3  8  1  0  0  0  0
  4  6  2  0  0  0  0
  4  9  1  0  0  0  0
  5 10  1  0  0  0  0
  6 13  1  0  0  0  0
  7 12  1  0  0  0  0
  7 14  1  0  0  0  0
  7 15  2  0  0  0  0
 11 13  1  0  0  0  0
 12 16  1  0  0  0  0
 13 14  1  0  0  0  0
 14 17  1  0  0  0  0
M  END
> <ref_mols>
x1364_0

> <original SMILES>
CC(NC(=O)CCl)c1cc(C)c(C)cc1C

> <Chemgauss4>
-7.452919

> <ref_pdb>
x0749_0

$$$$
x1220
  -OEChem-05172015543D

 16 16  0     1  0  0  0  0  0999 V2000
   12.5295    3.0433   23.1465 C   0  0  0  0  0  0  0  0  0  0  0  0
   13.7605    1.0112   22.4609 C   0  0  0  0  0  0  0  0  0  0  0  0
   12.1671    0.8450   24.3485 C   0  0  0  0  0  0  0  0  0  0  0  0
   13.3618   -0.4458   22.2735 C   0  0  0  0  0  0  0  0  0  0  0  0
   13.0372   -0.3662   24.6570 C   0  0  0  0  0  0  0  0  0  0  0  0
    9.9563    5.2784   24.8816 C   0  0  0  0  0  0  0  0  0  0  0  0
   11.2137    5.9816   22.8324 C   0  0  0  0  0  0  0  0  0  0  0  0
   11.1442    3.5029   23.5284 C   0  0  1  0  0  0  0  0  0  0  0  0
   11.1581    4.9698   23.9826 C   0  0  0  0  0  0  0  0  0  0  0  0
   12.7989    1.6887   23.3295 N   0  0  0  0  0  0  0  0  0  0  0  0
   10.2274    3.2738   22.3880 N   0  3  0  0  0  0  0  0  0  0  0  0
   13.3446    3.8572   22.7063 O   0  0  0  0  0  0  0  0  0  0  0  0
   13.2941   -1.1698   23.5042 O   0  0  0  0  0  0  0  0  0  0  0  0
    9.2469    3.3601   22.6792 H   0  0  0  0  0  0  0  0  0  0  0  0
   10.3564    2.3346   21.9939 H   0  0  0  0  0  0  0  0  0  0  0  0
   10.3935    3.9547   21.6379 H   0  0  0  0  0  0  0  0  0  0  0  0
  1  8  1  0  0  0  0
  1 10  1  0  0  0  0
  1 12  2  0  0  0  0
  2  4  1  0  0  0  0
  2 10  1  0  0  0  0
  3  5  1  0  0  0  0
  3 10  1  0  0  0  0
  4 13  1  0  0  0  0
  5 13  1  0  0  0  0
  6  9  1  0  0  0  0
  7  9  1  0  0  0  0
  8  9  1  0  0  0  0
  8 11  1  0  0  0  0
 11 14  1  0  0  0  0
 11 15  1  0  0  0  0
 11 16  1  0  0  0  0
M  CHG  1  11   1
M  END
> <ref_mols>
x1220_0

> <original SMILES>
CC(C)C(N)C(=O)N1CCOCC1

> <Chemgauss4>
-7.444896

> <ref_pdb>
x0161_0

$$$$
x0252
  -OEChem-05172015543D

 17 18  0     0  0  0  0  0  0999 V2000
   10.3005    0.4116   25.0217 C   0  0  0  0  0  0  0  0  0  0  0  0
   10.3619    1.0970   23.7850 C   0  0  0  0  0  0  0  0  0  0  0  0
    9.4839   -0.6759   24.8156 C   0  0  0  0  0  0  0  0  0  0  0  0
    9.5787    0.3793   22.9112 C   0  0  0  0  0  0  0  0  0  0  0  0
    7.4158    0.1386   19.8170 C   0  0  0  0  0  0  0  0  0  0  0  0
    9.2528    0.5917   21.4905 C   0  0  0  0  0  0  0  0  0  0  0  0
    4.0206    1.5619   22.5364 C   0  0  0  0  0  0  0  0  0  0  0  0
    5.1495    1.5006   21.5207 C   0  0  0  0  0  0  0  0  0  0  0  0
    4.9934    0.3022   20.5873 C   0  0  0  0  0  0  0  0  0  0  0  0
    8.0138    0.0836   18.6493 N   0  0  0  0  0  0  0  0  0  0  0  0
    7.0059    0.1356   17.7131 N   0  0  0  0  0  0  0  0  0  0  0  0
    5.8166    0.2197   18.2968 N   0  0  0  0  0  0  0  0  0  0  0  0
    6.0755    0.2216   19.6119 N   0  0  0  0  0  0  0  0  0  0  0  0
    7.9777    0.1154   21.0651 N   0  0  0  0  0  0  0  0  0  0  0  0
   10.0598    1.1199   20.7285 O   0  0  0  0  0  0  0  0  0  0  0  0
    9.0399   -0.7030   23.5316 O   0  0  0  0  0  0  0  0  0  0  0  0
    7.3915   -0.3100   21.8087 H   0  0  0  0  0  0  0  0  0  0  0  0
  1  2  1  0  0  0  0
  1  3  2  0  0  0  0
  2  4  2  0  0  0  0
  3 16  1  0  0  0  0
  4  6  1  0  0  0  0
  4 16  1  0  0  0  0
  5 10  2  0  0  0  0
  5 13  1  0  0  0  0
  5 14  1  0  0  0  0
  6 14  1  0  0  0  0
  6 15  2  0  0  0  0
  7  8  1  0  0  0  0
  8  9  1  0  0  0  0
  9 13  1  0  0  0  0
 10 11  1  0  0  0  0
 11 12  2  0  0  0  0
 12 13  1  0  0  0  0
 14 17  1  0  0  0  0
M  END
> <ref_mols>
x0252_0

> <original SMILES>
CCCN1N=NN=C1NC(=O)C2=CC=CO2

> <Chemgauss4>
-7.444524

> <ref_pdb>
x0107_0

$$$$
x0526
  -OEChem-05172015543D

 13 13  0     0  0  0  0  0  0999 V2000
    7.7077    0.5235   20.1655 C   0  0  0  0  0  0  0  0  0  0  0  0
    8.9825    0.0389   20.2933 C   0  0  0  0  0  0  0  0  0  0  0  0
    7.4590    0.4495   18.7841 C   0  0  0  0  0  0  0  0  0  0  0  0
    9.8589   -0.1580   21.4766 C   0  0  0  0  0  0  0  0  0  0  0  0
    6.2354    0.8406   18.0662 C   0  0  0  0  0  0  0  0  0  0  0  0
   13.4786   -0.7729   21.7162 C   0  0  0  0  0  0  0  0  0  0  0  0
   11.8480   -2.3707   22.7813 C   0  0  0  0  0  0  0  0  0  0  0  0
   12.0715   -0.9565   22.2658 C   0  0  0  0  0  0  0  0  0  0  0  0
    8.4998   -0.0433   18.1069 N   0  0  0  0  0  0  0  0  0  0  0  0
   11.0895   -0.6767   21.1900 N   0  0  0  0  0  0  0  0  0  0  0  0
    9.4326    0.1262   22.5929 O   0  0  0  0  0  0  0  0  0  0  0  0
    9.4660   -0.3027   19.0716 O   0  0  0  0  0  0  0  0  0  0  0  0
   11.3741   -0.9533   20.2743 H   0  0  0  0  0  0  0  0  0  0  0  0
  1  2  2  0  0  0  0
  1  3  1  0  0  0  0
  2  4  1  0  0  0  0
  2 12  1  0  0  0  0
  3  5  1  0  0  0  0
  3  9  2  0  0  0  0
  4 10  1  0  0  0  0
  4 11  2  0  0  0  0
  6  8  1  0  0  0  0
  7  8  1  0  0  0  0
  8 10  1  0  0  0  0
  9 12  1  0  0  0  0
 10 13  1  0  0  0  0
M  END
> <ref_mols>
x0526_0

> <original SMILES>
CC(C)NC(=O)C1=CC(C)=NO1

> <Chemgauss4>
-7.442532

> <ref_pdb>
x0678_0

$$$$
x0229
  -OEChem-05172015543D

 13 13  0     0  0  0  0  0  0999 V2000
   11.3833   -1.3516   22.8923 C   0  0  0  0  0  0  0  0  0  0  0  0
   10.5943   -0.4187   23.8056 C   0  0  0  0  0  0  0  0  0  0  0  0
   12.3084   -0.5814   21.9552 C   0  0  0  0  0  0  0  0  0  0  0  0
   11.5137    0.5284   24.5748 C   0  0  0  0  0  0  0  0  0  0  0  0
   13.2286    0.3654   22.7239 C   0  0  0  0  0  0  0  0  0  0  0  0
   12.4683    1.3134   23.6632 C   0  0  0  0  0  0  0  0  0  0  0  0
    9.7882    5.9303   23.3421 C   0  0  0  0  0  0  0  0  0  0  0  0
   11.7340    2.4097   22.8864 C   0  0  0  0  0  0  0  0  0  0  0  0
   10.6451    4.8586   22.8040 N   0  0  0  0  0  0  0  0  0  0  0  0
   10.5531    3.4547   24.9754 O   0  0  0  0  0  0  0  0  0  0  0  0
   12.7513    4.4185   24.2037 O   0  0  0  0  0  0  0  0  0  0  0  0
   11.4585    3.8223   23.8958 S   0  0  0  0  0  0  0  0  0  0  0  0
   11.1530    5.1202   21.9490 H   0  0  0  0  0  0  0  0  0  0  0  0
  1  2  1  0  0  0  0
  1  3  1  0  0  0  0
  2  4  1  0  0  0  0
  3  5  1  0  0  0  0
  4  6  1  0  0  0  0
  5  6  1  0  0  0  0
  6  8  1  0  0  0  0
  7  9  1  0  0  0  0
  8 12  1  0  0  0  0
  9 12  1  0  0  0  0
 10 12  2  0  0  0  0
 11 12  2  0  0  0  0
  9 13  1  0  0  0  0
M  END
> <ref_mols>
x0229_0

> <original SMILES>
CNS(=O)(=O)CC1CCCCC1

> <Chemgauss4>
-7.442280

> <ref_pdb>
x0104_0

$$$$
x0527
  -OEChem-05172015543D

 19 20  0     0  0  0  0  0  0999 V2000
   13.3909   -0.1713   22.5527 C   0  0  0  0  0  0  0  0  0  0  0  0
   12.4535   -1.2034   22.5920 C   0  0  0  0  0  0  0  0  0  0  0  0
   13.1946    0.9787   23.3173 C   0  0  0  0  0  0  0  0  0  0  0  0
   11.1232    0.0645   24.1604 C   0  0  0  0  0  0  0  0  0  0  0  0
   11.3196   -1.0855   23.3958 C   0  0  0  0  0  0  0  0  0  0  0  0
   12.0607    1.0966   24.1211 C   0  0  0  0  0  0  0  0  0  0  0  0
    8.2037   -2.9302   22.3014 C   0  0  0  0  0  0  0  0  0  0  0  0
   10.3419   -2.1615   23.4373 C   0  0  0  0  0  0  0  0  0  0  0  0
   10.4587    4.1092   25.2812 C   0  0  0  0  0  0  0  0  0  0  0  0
    6.1247   -5.6106   22.8627 C   0  0  0  0  0  0  0  0  0  0  0  0
   10.5196    2.6048   25.1243 C   0  0  0  0  0  0  0  0  0  0  0  0
    7.2836   -2.6955   21.3232 N   0  0  0  0  0  0  0  0  0  0  0  0
    7.9553   -4.0191   23.0335 N   0  0  0  0  0  0  0  0  0  0  0  0
    6.3918   -3.6739   21.4179 N   0  0  0  0  0  0  0  0  0  0  0  0
    6.8266   -4.4280   22.4371 N   0  0  0  0  0  0  0  0  0  0  0  0
    9.3125   -2.0667   22.4881 N   0  0  0  0  0  0  0  0  0  0  0  0
   10.4077   -3.0690   24.2781 O   0  0  0  0  0  0  0  0  0  0  0  0
   11.8689    2.2186   24.8673 O   0  0  0  0  0  0  0  0  0  0  0  0
    9.3694   -1.2757   21.8514 H   0  0  0  0  0  0  0  0  0  0  0  0
  1  2  1  0  0  0  0
  1  3  2  0  0  0  0
  2  5  2  0  0  0  0
  3  6  1  0  0  0  0
  4  5  1  0  0  0  0
  4  6  2  0  0  0  0
  5  8  1  0  0  0  0
  6 18  1  0  0  0  0
  7 12  1  0  0  0  0
  7 13  2  0  0  0  0
  7 16  1  0  0  0  0
  8 16  1  0  0  0  0
  8 17  2  0  0  0  0
  9 11  1  0  0  0  0
 10 15  1  0  0  0  0
 11 18  1  0  0  0  0
 12 14  2  0  0  0  0
 13 15  1  0  0  0  0
 14 15  1  0  0  0  0
 16 19  1  0  0  0  0
M  END
> <ref_mols>
x0527_0

> <original SMILES>
CCOC=1C=CC=C(C1)C(=O)NC=2N=NN(C)N2

> <Chemgauss4>
-7.439372

> <ref_pdb>
x0830_0

$$$$
x0212
  -OEChem-05172015543D

 13 13  0     0  0  0  0  0  0999 V2000
   11.8752    2.5688   23.0707 C   0  0  0  0  0  0  0  0  0  0  0  0
   13.8898    1.2930   22.3730 C   0  0  0  0  0  0  0  0  0  0  0  0
   11.7716    0.1032   23.1153 C   0  0  0  0  0  0  0  0  0  0  0  0
   14.3505   -0.1207   22.0092 C   0  0  0  0  0  0  0  0  0  0  0  0
   12.5109   -1.2144   23.3617 C   0  0  0  0  0  0  0  0  0  0  0  0
   12.6716    1.3219   23.3067 C   0  0  0  0  0  0  0  0  0  0  0  0
   14.0069   -1.1202   23.0964 C   0  0  0  0  0  0  0  0  0  0  0  0
   12.5948    3.7274   23.2436 N   0  0  0  0  0  0  0  0  0  0  0  0
   10.6933    2.5351   22.7372 O   0  0  0  0  0  0  0  0  0  0  0  0
   14.6439   -0.7587   24.2419 F   0  0  0  0  0  0  0  0  0  0  0  0
   14.4849   -2.3455   22.7669 F   0  0  0  0  0  0  0  0  0  0  0  0
   13.5722    3.6589   23.5074 H   0  0  0  0  0  0  0  0  0  0  0  0
   12.1877    4.6485   23.1179 H   0  0  0  0  0  0  0  0  0  0  0  0
  1  6  1  0  0  0  0
  1  8  1  0  0  0  0
  1  9  2  0  0  0  0
  2  4  1  0  0  0  0
  2  6  1  0  0  0  0
  3  5  1  0  0  0  0
  3  6  1  0  0  0  0
  4  7  1  0  0  0  0
  5  7  1  0  0  0  0
  7 10  1  0  0  0  0
  7 11  1  0  0  0  0
  8 12  1  0  0  0  0
  8 13  1  0  0  0  0
M  END
> <ref_mols>
x0212_0

> <original SMILES>
NC(=O)C1CCC(F)(F)CC1

> <Chemgauss4>
-7.435218

> <ref_pdb>
x0195_0

$$$$
x1240
  -OEChem-05172015543D

 13 13  0     0  0  0  0  0  0999 V2000
   11.8752    2.5688   23.0707 C   0  0  0  0  0  0  0  0  0  0  0  0
   13.8898    1.2930   22.3730 C   0  0  0  0  0  0  0  0  0  0  0  0
   11.7716    0.1032   23.1153 C   0  0  0  0  0  0  0  0  0  0  0  0
   14.3505   -0.1207   22.0092 C   0  0  0  0  0  0  0  0  0  0  0  0
   12.5109   -1.2144   23.3617 C   0  0  0  0  0  0  0  0  0  0  0  0
   12.6716    1.3219   23.3067 C   0  0  0  0  0  0  0  0  0  0  0  0
   14.0069   -1.1202   23.0964 C   0  0  0  0  0  0  0  0  0  0  0  0
   12.5948    3.7274   23.2436 N   0  0  0  0  0  0  0  0  0  0  0  0
   10.6933    2.5351   22.7372 O   0  0  0  0  0  0  0  0  0  0  0  0
   14.6439   -0.7587   24.2419 F   0  0  0  0  0  0  0  0  0  0  0  0
   14.4849   -2.3455   22.7669 F   0  0  0  0  0  0  0  0  0  0  0  0
   13.5722    3.6589   23.5074 H   0  0  0  0  0  0  0  0  0  0  0  0
   12.1877    4.6485   23.1179 H   0  0  0  0  0  0  0  0  0  0  0  0
  1  6  1  0  0  0  0
  1  8  1  0  0  0  0
  1  9  2  0  0  0  0
  2  4  1  0  0  0  0
  2  6  1  0  0  0  0
  3  5  1  0  0  0  0
  3  6  1  0  0  0  0
  4  7  1  0  0  0  0
  5  7  1  0  0  0  0
  7 10  1  0  0  0  0
  7 11  1  0  0  0  0
  8 12  1  0  0  0  0
  8 13  1  0  0  0  0
M  END
> <ref_mols>
x1240_0

> <original SMILES>
NC(=O)C1CCC(F)(F)CC1

> <Chemgauss4>
-7.435218

> <ref_pdb>
x0195_0

$$$$
x2844
  -OEChem-05172015543D

 28 30  0     1  0  0  0  0  0999 V2000
   12.2593    1.3543   24.2735 C   0  0  0  0  0  0  0  0  0  0  0  0
   11.8409    1.9847   23.1017 C   0  0  0  0  0  0  0  0  0  0  0  0
   11.6307    0.1839   24.6985 C   0  0  0  0  0  0  0  0  0  0  0  0
   10.7938    1.4447   22.3549 C   0  0  0  0  0  0  0  0  0  0  0  0
    4.9893    1.5038   18.5371 C   0  0  0  0  0  0  0  0  0  0  0  0
    3.9233    2.0504   19.2130 C   0  0  0  0  0  0  0  0  0  0  0  0
    4.8366    0.6192   20.5794 C   0  0  0  0  0  0  0  0  0  0  0  0
   10.5835   -0.3560   23.9518 C   0  0  0  0  0  0  0  0  0  0  0  0
    5.5823    0.5741   19.4244 C   0  0  0  0  0  0  0  0  0  0  0  0
   10.1651    0.2744   22.7800 C   0  0  0  0  0  0  0  0  0  0  0  0
    9.9478   -1.5806   24.4241 C   0  0  0  0  0  0  0  0  0  0  0  0
    8.5714    0.2558   20.8203 C   0  0  0  0  0  0  0  0  0  0  0  0
    6.0551   -1.3241   26.0209 C   0  0  0  0  0  0  0  0  0  0  0  0
    8.2825   -0.1736   25.7647 C   0  0  0  0  0  0  0  0  0  0  0  0
    8.2082   -2.6376   25.8506 C   0  0  0  0  0  0  0  0  0  0  0  0
    6.7853   -0.1003   25.4424 C   0  0  2  0  0  0  0  0  0  0  0  0
    6.7040   -2.6354   25.5463 C   0  0  1  0  0  0  0  0  0  0  0  0
    6.1789    1.1950   25.9755 C   0  0  0  0  0  0  0  0  0  0  0  0
    6.0206   -3.8407   26.1870 C   0  0  0  0  0  0  0  0  0  0  0  0
    6.7829   -0.2879   19.1606 C   0  0  0  0  0  0  0  0  0  0  0  0
    8.8476   -1.4449   25.2906 N   0  0  0  0  0  0  0  0  0  0  0  0
    9.1169   -0.2474   22.0168 N   0  0  0  0  0  0  0  0  0  0  0  0
    7.5292   -0.5596   20.3675 N   0  0  0  0  0  0  0  0  0  0  0  0
   10.3748   -2.6786   24.0627 O   0  0  0  0  0  0  0  0  0  0  0  0
    8.9370    1.2687   20.2286 O   0  0  0  0  0  0  0  0  0  0  0  0
    3.8234    1.5167   20.4586 O   0  0  0  0  0  0  0  0  0  0  0  0
    8.6820   -1.1078   22.3631 H   0  0  0  0  0  0  0  0  0  0  0  0
    7.2857   -1.3808   20.9124 H   0  0  0  0  0  0  0  0  0  0  0  0
  1  2  1  0  0  0  0
  1  3  2  0  0  0  0
  2  4  2  0  0  0  0
  3  8  1  0  0  0  0
  4 10  1  0  0  0  0
  5  6  2  0  0  0  0
  5  9  1  0  0  0  0
  6 26  1  0  0  0  0
  7  9  2  0  0  0  0
  7 26  1  0  0  0  0
  8 10  2  0  0  0  0
  8 11  1  0  0  0  0
  9 20  1  0  0  0  0
 10 22  1  0  0  0  0
 11 21  1  0  0  0  0
 11 24  2  0  0  0  0
 12 22  1  0  0  0  0
 12 23  1  0  0  0  0
 12 25  2  0  0  0  0
 13 16  1  0  0  0  0
 13 17  1  0  0  0  0
 14 16  1  0  0  0  0
 14 21  1  0  0  0  0
 15 17  1  0  0  0  0
 15 21  1  0  0  0  0
 16 18  1  0  0  0  0
 17 19  1  0  0  0  0
 20 23  1  0  0  0  0
 22 27  1  0  0  0  0
 23 28  1  0  0  0  0
M  END
> <ref_mols>
x2844_0

> <original SMILES>
CC1CC(C)CN(C1)C(=O)C=2C=CC=CC2NC(=O)NCC=3C=COC3

> <Chemgauss4>
-7.434844

> <ref_pdb>
x0434_0

$$$$
x1268
  -OEChem-05172015543D

 13 13  0     0  0  0  0  0  0999 V2000
   14.0230   -1.5704   23.2548 C   0  0  0  0  0  0  0  0  0  0  0  0
   14.0952   -0.7858   24.4057 C   0  0  0  0  0  0  0  0  0  0  0  0
   12.8000   -1.7492   22.6081 C   0  0  0  0  0  0  0  0  0  0  0  0
   12.9444   -0.1800   24.9102 C   0  0  0  0  0  0  0  0  0  0  0  0
   11.6492   -1.1434   23.1126 C   0  0  0  0  0  0  0  0  0  0  0  0
   11.7214   -0.3588   24.2636 C   0  0  0  0  0  0  0  0  0  0  0  0
   10.1409    0.9367   20.8023 C   0  0  0  0  0  0  0  0  0  0  0  0
   10.3841   -0.5129   20.8196 N   0  0  0  0  0  0  0  0  0  0  0  0
   10.0350   -2.8141   21.9238 O   0  0  0  0  0  0  0  0  0  0  0  0
    9.0855   -0.7646   23.0294 O   0  0  0  0  0  0  0  0  0  0  0  0
   10.1416   -1.4016   22.2576 S   0  0  0  0  0  0  0  0  0  0  0  0
   10.3271    0.4127   24.9292 Cl  0  0  0  0  0  0  0  0  0  0  0  0
   10.2902   -0.9963   19.9180 H   0  0  0  0  0  0  0  0  0  0  0  0
  1  2  1  0  0  0  0
  1  3  2  0  0  0  0
  2  4  2  0  0  0  0
  3  5  1  0  0  0  0
  4  6  1  0  0  0  0
  5  6  2  0  0  0  0
  5 11  1  0  0  0  0
  6 12  1  0  0  0  0
  7  8  1  0  0  0  0
  8 11  1  0  0  0  0
  9 11  2  0  0  0  0
 10 11  2  0  0  0  0
  8 13  1  0  0  0  0
M  END
> <ref_mols>
x1268_0

> <original SMILES>
CNS(=O)(=O)C=1C=CC=CC1Cl

> <Chemgauss4>
-7.434351

> <ref_pdb>
x0678_0

$$$$
x0665
  -OEChem-05172015543D

 13 13  0     0  0  0  0  0  0999 V2000
   14.0230   -1.5704   23.2548 C   0  0  0  0  0  0  0  0  0  0  0  0
   14.0952   -0.7858   24.4057 C   0  0  0  0  0  0  0  0  0  0  0  0
   12.8000   -1.7492   22.6081 C   0  0  0  0  0  0  0  0  0  0  0  0
   12.9444   -0.1800   24.9102 C   0  0  0  0  0  0  0  0  0  0  0  0
   11.6492   -1.1434   23.1126 C   0  0  0  0  0  0  0  0  0  0  0  0
   11.7214   -0.3588   24.2636 C   0  0  0  0  0  0  0  0  0  0  0  0
   10.1409    0.9367   20.8023 C   0  0  0  0  0  0  0  0  0  0  0  0
   10.3841   -0.5129   20.8196 N   0  0  0  0  0  0  0  0  0  0  0  0
   10.0350   -2.8141   21.9238 O   0  0  0  0  0  0  0  0  0  0  0  0
    9.0855   -0.7646   23.0294 O   0  0  0  0  0  0  0  0  0  0  0  0
   10.1416   -1.4016   22.2576 S   0  0  0  0  0  0  0  0  0  0  0  0
   10.3271    0.4127   24.9292 Cl  0  0  0  0  0  0  0  0  0  0  0  0
   10.2902   -0.9963   19.9180 H   0  0  0  0  0  0  0  0  0  0  0  0
  1  2  1  0  0  0  0
  1  3  2  0  0  0  0
  2  4  2  0  0  0  0
  3  5  1  0  0  0  0
  4  6  1  0  0  0  0
  5  6  2  0  0  0  0
  5 11  1  0  0  0  0
  6 12  1  0  0  0  0
  7  8  1  0  0  0  0
  8 11  1  0  0  0  0
  9 11  2  0  0  0  0
 10 11  2  0  0  0  0
  8 13  1  0  0  0  0
M  END
> <ref_mols>
x0665_0

> <original SMILES>
CNS(=O)(=O)C=1C=CC=CC1Cl

> <Chemgauss4>
-7.434351

> <ref_pdb>
x0678_0

$$$$
x1338
  -OEChem-05172015543D

 13 13  0     0  0  0  0  0  0999 V2000
    6.8343   -4.6344   21.9446 C   0  0  0  0  0  0  0  0  0  0  0  0
   11.0111   -2.3464   24.7419 C   0  0  0  0  0  0  0  0  0  0  0  0
    8.0910   -2.5327   22.6362 C   0  0  0  0  0  0  0  0  0  0  0  0
    8.2384   -4.5960   23.9829 C   0  0  0  0  0  0  0  0  0  0  0  0
    9.6088   -2.3855   22.7021 C   0  0  0  0  0  0  0  0  0  0  0  0
    9.7562   -4.4487   24.0487 C   0  0  0  0  0  0  0  0  0  0  0  0
    7.0701   -6.1174   21.8084 C   0  0  0  0  0  0  0  0  0  0  0  0
   12.0321   -3.1692   25.4863 C   0  0  0  0  0  0  0  0  0  0  0  0
    7.6998   -3.9405   22.7885 N   0  0  0  0  0  0  0  0  0  0  0  0
   10.1469   -3.0408   23.8970 N   0  0  0  0  0  0  0  0  0  0  0  0
    5.9070   -4.1109   21.3218 O   0  0  0  0  0  0  0  0  0  0  0  0
   10.9823   -1.1246   24.9093 O   0  0  0  0  0  0  0  0  0  0  0  0
   13.6142   -2.5982   24.9678 Cl  0  0  0  0  0  0  0  0  0  0  0  0
  1  7  1  0  0  0  0
  1  9  1  0  0  0  0
  1 11  2  0  0  0  0
  2  8  1  0  0  0  0
  2 10  1  0  0  0  0
  2 12  2  0  0  0  0
  3  5  1  0  0  0  0
  3  9  1  0  0  0  0
  4  6  1  0  0  0  0
  4  9  1  0  0  0  0
  5 10  1  0  0  0  0
  6 10  1  0  0  0  0
  8 13  1  0  0  0  0
M  END
> <ref_mols>
x1338_0

> <original SMILES>
CC(=O)N1CCN(CC1)C(=O)CCl

> <Chemgauss4>
-7.432066

> <ref_pdb>
x0749_0

$$$$
x0777
  -OEChem-05172015543D

 13 13  0     0  0  0  0  0  0999 V2000
    6.8343   -4.6344   21.9446 C   0  0  0  0  0  0  0  0  0  0  0  0
   11.0111   -2.3464   24.7419 C   0  0  0  0  0  0  0  0  0  0  0  0
    8.0910   -2.5327   22.6362 C   0  0  0  0  0  0  0  0  0  0  0  0
    8.2384   -4.5960   23.9829 C   0  0  0  0  0  0  0  0  0  0  0  0
    9.6088   -2.3855   22.7021 C   0  0  0  0  0  0  0  0  0  0  0  0
    9.7562   -4.4487   24.0487 C   0  0  0  0  0  0  0  0  0  0  0  0
    7.0701   -6.1174   21.8084 C   0  0  0  0  0  0  0  0  0  0  0  0
   12.0321   -3.1692   25.4863 C   0  0  0  0  0  0  0  0  0  0  0  0
    7.6998   -3.9405   22.7885 N   0  0  0  0  0  0  0  0  0  0  0  0
   10.1469   -3.0408   23.8970 N   0  0  0  0  0  0  0  0  0  0  0  0
    5.9070   -4.1109   21.3218 O   0  0  0  0  0  0  0  0  0  0  0  0
   10.9823   -1.1246   24.9093 O   0  0  0  0  0  0  0  0  0  0  0  0
   13.6142   -2.5982   24.9678 Cl  0  0  0  0  0  0  0  0  0  0  0  0
  1  7  1  0  0  0  0
  1  9  1  0  0  0  0
  1 11  2  0  0  0  0
  2  8  1  0  0  0  0
  2 10  1  0  0  0  0
  2 12  2  0  0  0  0
  3  5  1  0  0  0  0
  3  9  1  0  0  0  0
  4  6  1  0  0  0  0
  4  9  1  0  0  0  0
  5 10  1  0  0  0  0
  6 10  1  0  0  0  0
  8 13  1  0  0  0  0
M  END
> <ref_mols>
x0777_0

> <original SMILES>
CC(=O)N1CCN(CC1)C(=O)CCl

> <Chemgauss4>
-7.432066

> <ref_pdb>
x0749_0

$$$$
x0703
  -OEChem-05172015543D

 13 13  0     0  0  0  0  0  0999 V2000
    6.8343   -4.6344   21.9446 C   0  0  0  0  0  0  0  0  0  0  0  0
   11.0111   -2.3464   24.7419 C   0  0  0  0  0  0  0  0  0  0  0  0
    8.0910   -2.5327   22.6362 C   0  0  0  0  0  0  0  0  0  0  0  0
    8.2384   -4.5960   23.9829 C   0  0  0  0  0  0  0  0  0  0  0  0
    9.6088   -2.3855   22.7021 C   0  0  0  0  0  0  0  0  0  0  0  0
    9.7562   -4.4487   24.0487 C   0  0  0  0  0  0  0  0  0  0  0  0
    7.0701   -6.1174   21.8084 C   0  0  0  0  0  0  0  0  0  0  0  0
   12.0321   -3.1692   25.4863 C   0  0  0  0  0  0  0  0  0  0  0  0
    7.6998   -3.9405   22.7885 N   0  0  0  0  0  0  0  0  0  0  0  0
   10.1469   -3.0408   23.8970 N   0  0  0  0  0  0  0  0  0  0  0  0
    5.9070   -4.1109   21.3218 O   0  0  0  0  0  0  0  0  0  0  0  0
   10.9823   -1.1246   24.9093 O   0  0  0  0  0  0  0  0  0  0  0  0
   13.6142   -2.5982   24.9678 Cl  0  0  0  0  0  0  0  0  0  0  0  0
  1  7  1  0  0  0  0
  1  9  1  0  0  0  0
  1 11  2  0  0  0  0
  2  8  1  0  0  0  0
  2 10  1  0  0  0  0
  2 12  2  0  0  0  0
  3  5  1  0  0  0  0
  3  9  1  0  0  0  0
  4  6  1  0  0  0  0
  4  9  1  0  0  0  0
  5 10  1  0  0  0  0
  6 10  1  0  0  0  0
  8 13  1  0  0  0  0
M  END
> <ref_mols>
x0703_0

> <original SMILES>
CC(=O)N1CCN(CC1)C(=O)CCl

> <Chemgauss4>
-7.432066

> <ref_pdb>
x0749_0

> <CYS145-warhead dist minimum (A)>
27.117

> <CYS145-warhead dist mean (A)>
31.267872

> <CYS145-warhead dist stddev (A)>
1.6662536

$$$$
x1493
  -OEChem-05172015543D

 13 13  0     0  0  0  0  0  0999 V2000
    6.8343   -4.6344   21.9446 C   0  0  0  0  0  0  0  0  0  0  0  0
   11.0111   -2.3464   24.7419 C   0  0  0  0  0  0  0  0  0  0  0  0
    8.0910   -2.5327   22.6362 C   0  0  0  0  0  0  0  0  0  0  0  0
    8.2384   -4.5960   23.9829 C   0  0  0  0  0  0  0  0  0  0  0  0
    9.6088   -2.3855   22.7021 C   0  0  0  0  0  0  0  0  0  0  0  0
    9.7562   -4.4487   24.0487 C   0  0  0  0  0  0  0  0  0  0  0  0
    7.0701   -6.1174   21.8084 C   0  0  0  0  0  0  0  0  0  0  0  0
   12.0321   -3.1692   25.4863 C   0  0  0  0  0  0  0  0  0  0  0  0
    7.6998   -3.9405   22.7885 N   0  0  0  0  0  0  0  0  0  0  0  0
   10.1469   -3.0408   23.8970 N   0  0  0  0  0  0  0  0  0  0  0  0
    5.9070   -4.1109   21.3218 O   0  0  0  0  0  0  0  0  0  0  0  0
   10.9823   -1.1246   24.9093 O   0  0  0  0  0  0  0  0  0  0  0  0
   13.6142   -2.5982   24.9678 Cl  0  0  0  0  0  0  0  0  0  0  0  0
  1  7  1  0  0  0  0
  1  9  1  0  0  0  0
  1 11  2  0  0  0  0
  2  8  1  0  0  0  0
  2 10  1  0  0  0  0
  2 12  2  0  0  0  0
  3  5  1  0  0  0  0
  3  9  1  0  0  0  0
  4  6  1  0  0  0  0
  4  9  1  0  0  0  0
  5 10  1  0  0  0  0
  6 10  1  0  0  0  0
  8 13  1  0  0  0  0
M  END
> <ref_mols>
x1493_0

> <original SMILES>
CC(=O)N1CCN(CC1)C(=O)CCl

> <Chemgauss4>
-7.432066

> <ref_pdb>
x0749_0

$$$$
x1421
  -OEChem-05172015543D

 13 13  0     0  0  0  0  0  0999 V2000
    6.8343   -4.6344   21.9446 C   0  0  0  0  0  0  0  0  0  0  0  0
   11.0111   -2.3464   24.7419 C   0  0  0  0  0  0  0  0  0  0  0  0
    8.0910   -2.5327   22.6362 C   0  0  0  0  0  0  0  0  0  0  0  0
    8.2384   -4.5960   23.9829 C   0  0  0  0  0  0  0  0  0  0  0  0
    9.6088   -2.3855   22.7021 C   0  0  0  0  0  0  0  0  0  0  0  0
    9.7562   -4.4487   24.0487 C   0  0  0  0  0  0  0  0  0  0  0  0
    7.0701   -6.1174   21.8084 C   0  0  0  0  0  0  0  0  0  0  0  0
   12.0321   -3.1692   25.4863 C   0  0  0  0  0  0  0  0  0  0  0  0
    7.6998   -3.9405   22.7885 N   0  0  0  0  0  0  0  0  0  0  0  0
   10.1469   -3.0408   23.8970 N   0  0  0  0  0  0  0  0  0  0  0  0
    5.9070   -4.1109   21.3218 O   0  0  0  0  0  0  0  0  0  0  0  0
   10.9823   -1.1246   24.9093 O   0  0  0  0  0  0  0  0  0  0  0  0
   13.6142   -2.5982   24.9678 Cl  0  0  0  0  0  0  0  0  0  0  0  0
  1  7  1  0  0  0  0
  1  9  1  0  0  0  0
  1 11  2  0  0  0  0
  2  8  1  0  0  0  0
  2 10  1  0  0  0  0
  2 12  2  0  0  0  0
  3  5  1  0  0  0  0
  3  9  1  0  0  0  0
  4  6  1  0  0  0  0
  4  9  1  0  0  0  0
  5 10  1  0  0  0  0
  6 10  1  0  0  0  0
  8 13  1  0  0  0  0
M  END
> <ref_mols>
x1421_0

> <original SMILES>
CC(=O)N1CCN(CC1)C(=O)CCl

> <Chemgauss4>
-7.432066

> <ref_pdb>
x0749_0

$$$$
x0873
  -OEChem-05172015543D

 17 18  0     0  0  0  0  0  0999 V2000
   10.5431   -4.7904   25.0251 C   0  0  0  0  0  0  0  0  0  0  0  0
   10.2317   -2.6982   23.8577 C   0  0  0  0  0  0  0  0  0  0  0  0
   11.7219   -4.3011   25.5876 C   0  0  0  0  0  0  0  0  0  0  0  0
   11.4105   -2.2089   24.4202 C   0  0  0  0  0  0  0  0  0  0  0  0
    9.7979   -3.9890   24.1600 C   0  0  0  0  0  0  0  0  0  0  0  0
   12.1556   -3.0103   25.2852 C   0  0  0  0  0  0  0  0  0  0  0  0
    7.3946   -4.1512   24.5091 C   0  0  0  0  0  0  0  0  0  0  0  0
    8.4658   -6.0673   23.3662 C   0  0  0  0  0  0  0  0  0  0  0  0
    8.2268   -3.8785   22.1591 C   0  0  0  0  0  0  0  0  0  0  0  0
    7.2459   -6.5470   22.5839 C   0  0  0  0  0  0  0  0  0  0  0  0
    7.0359   -4.4999   21.4326 C   0  0  0  0  0  0  0  0  0  0  0  0
    8.4926   -4.5303   23.5377 C   0  0  0  0  0  0  0  0  0  0  0  0
   13.6905   -1.2046   25.4834 C   0  0  0  0  0  0  0  0  0  0  0  0
    7.1504   -5.0045   25.4066 O   0  5  0  0  0  0  0  0  0  0  0  0
    6.8630   -3.0257   24.2947 O   0  0  0  0  0  0  0  0  0  0  0  0
    7.1870   -5.9103   21.3112 O   0  0  0  0  0  0  0  0  0  0  0  0
   13.3053   -2.5326   25.8353 O   0  0  0  0  0  0  0  0  0  0  0  0
  1  3  2  0  0  0  0
  1  5  1  0  0  0  0
  2  4  1  0  0  0  0
  2  5  2  0  0  0  0
  3  6  1  0  0  0  0
  4  6  2  0  0  0  0
  5 12  1  0  0  0  0
  6 17  1  0  0  0  0
  7 12  1  0  0  0  0
  7 14  1  0  0  0  0
  7 15  2  0  0  0  0
  8 10  1  0  0  0  0
  8 12  1  0  0  0  0
  9 11  1  0  0  0  0
  9 12  1  0  0  0  0
 10 16  1  0  0  0  0
 11 16  1  0  0  0  0
 13 17  1  0  0  0  0
M  CHG  1  14  -1
M  END
> <ref_mols>
x0873_0

> <original SMILES>
O=C(O)C1(C2=CC=C(OC)C=C2)CCOCC1

> <Chemgauss4>
-7.430744

> <ref_pdb>
x0749_0

$$$$
x0940
  -OEChem-05172015543D

 12 12  0     0  0  0  0  0  0999 V2000
   11.6418    1.7278   23.6736 C   0  0  0  0  0  0  0  0  0  0  0  0
   13.3602    2.5225   22.1728 C   0  0  0  0  0  0  0  0  0  0  0  0
   12.2315    0.4638   23.6795 C   0  0  0  0  0  0  0  0  0  0  0  0
   13.9499    1.2585   22.1787 C   0  0  0  0  0  0  0  0  0  0  0  0
   12.2061    2.7572   22.9202 C   0  0  0  0  0  0  0  0  0  0  0  0
   13.3856    0.2291   22.9321 C   0  0  0  0  0  0  0  0  0  0  0  0
   10.4668    4.4432   23.5960 C   0  0  0  0  0  0  0  0  0  0  0  0
   10.1575    5.8944   23.3262 C   0  0  0  0  0  0  0  0  0  0  0  0
   11.6164    4.0216   22.9146 N   0  0  0  0  0  0  0  0  0  0  0  0
    9.7530    3.7762   24.3380 O   0  0  0  0  0  0  0  0  0  0  0  0
   14.1845   -1.4836   22.9403 Br  0  0  0  0  0  0  0  0  0  0  0  0
   12.0784    4.7374   22.3418 H   0  0  0  0  0  0  0  0  0  0  0  0
  1  3  2  0  0  0  0
  1  5  1  0  0  0  0
  2  4  1  0  0  0  0
  2  5  2  0  0  0  0
  3  6  1  0  0  0  0
  4  6  2  0  0  0  0
  5  9  1  0  0  0  0
  6 11  1  0  0  0  0
  7  8  1  0  0  0  0
  7  9  1  0  0  0  0
  7 10  2  0  0  0  0
  9 12  1  0  0  0  0
M  END
> <ref_mols>
x0940_0

> <original SMILES>
BrC1=CC=C(NC(C)=O)C=C1

> <Chemgauss4>
-7.428520

> <ref_pdb>
x0195_0

$$$$
x2840
  -OEChem-05172015543D

 30 32  0     1  0  0  0  0  0999 V2000
    3.3852   -3.2034   25.0031 C   0  0  0  0  0  0  0  0  0  0  0  0
   10.9754   -2.4691   23.2447 C   0  0  0  0  0  0  0  0  0  0  0  0
    9.6796   -1.9339   25.2123 C   0  0  0  0  0  0  0  0  0  0  0  0
    4.4830   -2.6466   24.3564 C   0  0  0  0  0  0  0  0  0  0  0  0
    9.8389   -3.0094   22.6431 C   0  0  0  0  0  0  0  0  0  0  0  0
    8.5430   -2.4742   24.6107 C   0  0  0  0  0  0  0  0  0  0  0  0
    2.9145   -4.4242   24.5473 C   0  0  0  0  0  0  0  0  0  0  0  0
    4.5223   -4.5340   22.9099 C   0  0  0  0  0  0  0  0  0  0  0  0
   10.8958   -1.9313   24.5293 C   0  0  0  0  0  0  0  0  0  0  0  0
    5.0682   -3.3182   23.2888 C   0  0  0  0  0  0  0  0  0  0  0  0
    8.6227   -3.0120   23.3261 C   0  0  0  0  0  0  0  0  0  0  0  0
    8.9134   -6.8948   22.5229 C   0  0  0  0  0  0  0  0  0  0  0  0
    8.3565   -5.8192   23.0887 C   0  0  0  0  0  0  0  0  0  0  0  0
    7.4293   -4.9513   22.3049 C   0  0  0  0  0  0  0  0  0  0  0  0
    5.9819   -2.5377   21.0816 C   0  0  0  0  0  0  0  0  0  0  0  0
   13.3042   -2.2672   25.3833 C   0  0  0  0  0  0  0  0  0  0  0  0
   12.4806   -1.8456   26.5598 C   0  0  0  0  0  0  0  0  0  0  0  0
   12.1100   -1.3541   25.1721 C   0  0  0  0  0  0  0  0  0  0  0  0
   12.3791    0.0881   24.8432 C   0  0  0  0  0  0  0  0  0  0  0  0
    7.5284    0.1408   18.9383 C   0  0  0  0  0  0  0  0  0  0  0  0
    6.9806   -2.2090   18.2549 C   0  0  0  0  0  0  0  0  0  0  0  0
    5.1443   -0.6269   18.8979 C   0  0  0  0  0  0  0  0  0  0  0  0
    6.2624   -2.7399   22.5659 C   0  0  2  0  0  0  0  0  0  0  0  0
    6.5915   -1.0489   19.1772 C   0  0  0  0  0  0  0  0  0  0  0  0
    3.4567   -5.1063   23.5137 N   0  0  0  0  0  0  0  0  0  0  0  0
    6.7072   -1.4811   20.5581 N   0  0  0  0  0  0  0  0  0  0  0  0
    7.4277   -3.5802   22.6938 N   0  0  0  0  0  0  0  0  0  0  0  0
    6.7531   -5.4600   21.4104 O   0  0  0  0  0  0  0  0  0  0  0  0
    5.1726   -3.2208   20.4571 O   0  0  0  0  0  0  0  0  0  0  0  0
    7.3532   -0.9709   21.1481 H   0  0  0  0  0  0  0  0  0  0  0  0
  1  4  2  0  0  0  0
  1  7  1  0  0  0  0
  2  5  2  0  0  0  0
  2  9  1  0  0  0  0
  3  6  1  0  0  0  0
  3  9  2  0  0  0  0
  4 10  1  0  0  0  0
  5 11  1  0  0  0  0
  6 11  2  0  0  0  0
  7 25  2  0  0  0  0
  8 10  2  0  0  0  0
  8 25  1  0  0  0  0
  9 18  1  0  0  0  0
 10 23  1  0  0  0  0
 11 27  1  0  0  0  0
 12 13  2  0  0  0  0
 13 14  1  0  0  0  0
 14 27  1  0  0  0  0
 14 28  2  0  0  0  0
 15 23  1  0  0  0  0
 15 26  1  0  0  0  0
 15 29  2  0  0  0  0
 16 17  1  0  0  0  0
 16 18  1  0  0  0  0
 17 18  1  0  0  0  0
 18 19  1  0  0  0  0
 20 24  1  0  0  0  0
 21 24  1  0  0  0  0
 22 24  1  0  0  0  0
 23 27  1  0  0  0  0
 24 26  1  0  0  0  0
 26 30  1  0  0  0  0
M  END
> <ref_mols>
x2840_0

> <original SMILES>
CC(C)(C)NC(=O)C(N(C(=O)C=C)C=1C=CC(=CC1)C2(C)CC2)C=3C=CC=NC3

> <Chemgauss4>
-7.423429

> <ref_pdb>
x0749_0

$$$$
x0339
  -OEChem-05172015543D

 13 13  0     0  0  0  0  0  0999 V2000
    8.7872   -1.4757   21.4546 C   0  0  0  0  0  0  0  0  0  0  0  0
    8.7760   -3.1438   23.2023 C   0  0  0  0  0  0  0  0  0  0  0  0
   10.1002   -1.1395   21.7839 C   0  0  0  0  0  0  0  0  0  0  0  0
   10.0891   -2.8076   23.5316 C   0  0  0  0  0  0  0  0  0  0  0  0
    8.1250   -2.4778   22.1638 C   0  0  0  0  0  0  0  0  0  0  0  0
   10.7512   -1.8054   22.8223 C   0  0  0  0  0  0  0  0  0  0  0  0
    6.7237   -3.9437   20.7567 C   0  0  0  0  0  0  0  0  0  0  0  0
   13.3237    0.4061   22.4228 C   0  0  0  0  0  0  0  0  0  0  0  0
    6.7214   -2.8378   21.8116 C   0  0  0  0  0  0  0  0  0  0  0  0
   12.8632   -0.9963   22.0870 C   0  0  0  0  0  0  0  0  0  0  0  0
    5.5821   -4.2994   20.3482 O   0  5  0  0  0  0  0  0  0  0  0  0
    7.8666   -4.3714   20.4287 O   0  0  0  0  0  0  0  0  0  0  0  0
   12.0329   -1.4781   23.1426 O   0  0  0  0  0  0  0  0  0  0  0  0
  1  3  2  0  0  0  0
  1  5  1  0  0  0  0
  2  4  1  0  0  0  0
  2  5  2  0  0  0  0
  3  6  1  0  0  0  0
  4  6  2  0  0  0  0
  5  9  1  0  0  0  0
  6 13  1  0  0  0  0
  7  9  1  0  0  0  0
  7 11  1  0  0  0  0
  7 12  2  0  0  0  0
  8 10  1  0  0  0  0
 10 13  1  0  0  0  0
M  CHG  1  11  -1
M  END
> <ref_mols>
x0339_0

> <original SMILES>
CCOC=1C=CC(CC(=O)O)=CC1

> <Chemgauss4>
-7.423053

> <ref_pdb>
x0830_0

$$$$
x1068
  -OEChem-05172015543D

 13 13  0     0  0  0  0  0  0999 V2000
    8.7872   -1.4757   21.4546 C   0  0  0  0  0  0  0  0  0  0  0  0
    8.7760   -3.1438   23.2023 C   0  0  0  0  0  0  0  0  0  0  0  0
   10.1002   -1.1395   21.7839 C   0  0  0  0  0  0  0  0  0  0  0  0
   10.0891   -2.8076   23.5316 C   0  0  0  0  0  0  0  0  0  0  0  0
    8.1250   -2.4778   22.1638 C   0  0  0  0  0  0  0  0  0  0  0  0
   10.7512   -1.8054   22.8223 C   0  0  0  0  0  0  0  0  0  0  0  0
    6.7237   -3.9437   20.7567 C   0  0  0  0  0  0  0  0  0  0  0  0
   13.3237    0.4061   22.4228 C   0  0  0  0  0  0  0  0  0  0  0  0
    6.7214   -2.8378   21.8116 C   0  0  0  0  0  0  0  0  0  0  0  0
   12.8632   -0.9963   22.0870 C   0  0  0  0  0  0  0  0  0  0  0  0
    5.5821   -4.2994   20.3482 O   0  5  0  0  0  0  0  0  0  0  0  0
    7.8666   -4.3714   20.4287 O   0  0  0  0  0  0  0  0  0  0  0  0
   12.0329   -1.4781   23.1426 O   0  0  0  0  0  0  0  0  0  0  0  0
  1  3  2  0  0  0  0
  1  5  1  0  0  0  0
  2  4  1  0  0  0  0
  2  5  2  0  0  0  0
  3  6  1  0  0  0  0
  4  6  2  0  0  0  0
  5  9  1  0  0  0  0
  6 13  1  0  0  0  0
  7  9  1  0  0  0  0
  7 11  1  0  0  0  0
  7 12  2  0  0  0  0
  8 10  1  0  0  0  0
 10 13  1  0  0  0  0
M  CHG  1  11  -1
M  END
> <ref_mols>
x1068_0

> <original SMILES>
CCOC=1C=CC(CC(=O)O)=CC1

> <Chemgauss4>
-7.423053

> <ref_pdb>
x0830_0

$$$$
x0849
  -OEChem-05172015543D

 18 19  0     1  0  0  0  0  0999 V2000
   10.7844   -0.0443   23.7369 C   0  0  0  0  0  0  0  0  0  0  0  0
   13.6172   -1.6532   22.0316 C   0  0  0  0  0  0  0  0  0  0  0  0
   14.2203   -1.3863   23.4050 C   0  0  0  0  0  0  0  0  0  0  0  0
    9.5338    3.2104   25.3345 C   0  0  0  0  0  0  0  0  0  0  0  0
    9.4597    1.8051   24.7448 C   0  0  0  0  0  0  0  0  0  0  0  0
   12.1221   -1.5661   22.2965 C   0  0  0  0  0  0  0  0  0  0  0  0
   13.2984   -0.3210   23.9815 C   0  0  0  0  0  0  0  0  0  0  0  0
   10.1993    4.1933   24.3781 C   0  0  0  0  0  0  0  0  0  0  0  0
   10.8492    1.3406   24.3070 C   0  0  2  0  0  0  0  0  0  0  0  0
   11.5151    2.3227   23.3255 C   0  0  1  0  0  0  0  0  0  0  0  0
   10.8678    2.3746   21.9386 C   0  0  0  0  0  0  0  0  0  0  0  0
   12.7324    5.9349   24.7078 C   0  0  0  0  0  0  0  0  0  0  0  0
   11.9993   -0.5982   23.3766 N   0  0  0  0  0  0  0  0  0  0  0  0
   11.5382    3.6825   23.9662 N   0  0  1  0  0  0  0  0  0  0  0  0
    9.7018   -0.6203   23.6183 O   0  0  0  0  0  0  0  0  0  0  0  0
   11.9597    5.5442   22.2425 O   0  0  0  0  0  0  0  0  0  0  0  0
   13.9137    4.2141   23.1358 O   0  0  0  0  0  0  0  0  0  0  0  0
   12.6202    4.8367   23.3184 S   0  0  0  0  0  0  0  0  0  0  0  0
  1  9  1  0  0  0  0
  1 13  1  0  0  0  0
  1 15  2  0  0  0  0
  2  3  1  0  0  0  0
  2  6  1  0  0  0  0
  3  7  1  0  0  0  0
  4  5  1  0  0  0  0
  4  8  1  0  0  0  0
  5  9  1  0  0  0  0
  6 13  1  0  0  0  0
  7 13  1  0  0  0  0
  8 14  1  0  0  0  0
  9 10  1  0  0  0  0
 10 11  1  0  0  0  0
 10 14  1  0  0  0  0
 12 18  1  0  0  0  0
 14 18  1  0  0  0  0
 16 18  2  0  0  0  0
 17 18  2  0  0  0  0
M  END
> <ref_mols>
x0849_0

> <original SMILES>
C[C@H]1N(S(=O)(C)=O)CCC[C@H]1C(N2CCCC2)=O

> <Chemgauss4>
-7.417205

> <ref_pdb>
x0195_0

$$$$
x0785
  -OEChem-05172015543D

 19 20  0     1  0  0  0  0  0999 V2000
   10.2226   -0.1435   24.3481 C   0  0  0  0  0  0  0  0  0  0  0  0
   11.4867   -1.2028   22.5827 C   0  0  0  0  0  0  0  0  0  0  0  0
    9.1848   -1.0545   24.1517 C   0  0  0  0  0  0  0  0  0  0  0  0
   10.4490   -2.1140   22.3863 C   0  0  0  0  0  0  0  0  0  0  0  0
   11.3735   -0.2176   23.5635 C   0  0  0  0  0  0  0  0  0  0  0  0
    9.2980   -2.0398   23.1708 C   0  0  0  0  0  0  0  0  0  0  0  0
    7.0320   -4.4043   24.4989 C   0  0  0  0  0  0  0  0  0  0  0  0
    7.2349   -4.9100   25.7197 C   0  0  0  0  0  0  0  0  0  0  0  0
    7.2137   -2.6132   22.0219 C   0  0  0  0  0  0  0  0  0  0  0  0
    9.4693   -4.4679   24.4729 C   0  0  0  0  0  0  0  0  0  0  0  0
    8.2289   -4.2747   23.6032 C   0  0  2  0  0  0  0  0  0  0  0  0
   12.4830    0.7566   23.7735 C   0  0  0  0  0  0  0  0  0  0  0  0
    7.3508   -1.1961   21.4939 C   0  0  0  0  0  0  0  0  0  0  0  0
    8.2217   -2.9853   22.9670 N   0  0  0  0  0  0  0  0  0  0  0  0
    6.2726   -3.3219   21.6561 O   0  0  0  0  0  0  0  0  0  0  0  0
    9.4200   -4.6038   27.1092 O   0  0  0  0  0  0  0  0  0  0  0  0
    9.0916   -6.7311   25.7754 O   0  0  0  0  0  0  0  0  0  0  0  0
    8.9012   -5.3054   25.9528 S   0  0  0  0  0  0  0  0  0  0  0  0
    6.6879   -1.0913   19.8493 Cl  0  0  0  0  0  0  0  0  0  0  0  0
  1  3  2  0  0  0  0
  1  5  1  0  0  0  0
  2  4  1  0  0  0  0
  2  5  2  0  0  0  0
  3  6  1  0  0  0  0
  4  6  2  0  0  0  0
  5 12  1  0  0  0  0
  6 14  1  0  0  0  0
  7  8  2  0  0  0  0
  7 11  1  0  0  0  0
  8 18  1  0  0  0  0
  9 13  1  0  0  0  0
  9 14  1  0  0  0  0
  9 15  2  0  0  0  0
 10 11  1  0  0  0  0
 10 18  1  0  0  0  0
 11 14  1  0  0  0  0
 13 19  1  0  0  0  0
 16 18  2  0  0  0  0
 17 18  2  0  0  0  0
M  END
> <ref_mols>
x0785_0

> <original SMILES>
Cc1ccc(cc1)N(C2CS(=O)(=O)C=C2)C(=O)CCl

> <Chemgauss4>
-7.416115

> <ref_pdb>
x1392_0

$$$$
x1374
  -OEChem-05172015543D

 19 20  0     1  0  0  0  0  0999 V2000
   10.2226   -0.1435   24.3481 C   0  0  0  0  0  0  0  0  0  0  0  0
   11.4867   -1.2028   22.5827 C   0  0  0  0  0  0  0  0  0  0  0  0
    9.1848   -1.0545   24.1517 C   0  0  0  0  0  0  0  0  0  0  0  0
   10.4490   -2.1140   22.3863 C   0  0  0  0  0  0  0  0  0  0  0  0
   11.3735   -0.2176   23.5635 C   0  0  0  0  0  0  0  0  0  0  0  0
    9.2980   -2.0398   23.1708 C   0  0  0  0  0  0  0  0  0  0  0  0
    7.0320   -4.4043   24.4989 C   0  0  0  0  0  0  0  0  0  0  0  0
    7.2349   -4.9100   25.7197 C   0  0  0  0  0  0  0  0  0  0  0  0
    7.2137   -2.6132   22.0219 C   0  0  0  0  0  0  0  0  0  0  0  0
    9.4693   -4.4679   24.4729 C   0  0  0  0  0  0  0  0  0  0  0  0
    8.2289   -4.2747   23.6032 C   0  0  2  0  0  0  0  0  0  0  0  0
   12.4830    0.7566   23.7735 C   0  0  0  0  0  0  0  0  0  0  0  0
    7.3508   -1.1961   21.4939 C   0  0  0  0  0  0  0  0  0  0  0  0
    8.2217   -2.9853   22.9670 N   0  0  0  0  0  0  0  0  0  0  0  0
    6.2726   -3.3219   21.6561 O   0  0  0  0  0  0  0  0  0  0  0  0
    9.4200   -4.6038   27.1092 O   0  0  0  0  0  0  0  0  0  0  0  0
    9.0916   -6.7311   25.7754 O   0  0  0  0  0  0  0  0  0  0  0  0
    8.9012   -5.3054   25.9528 S   0  0  0  0  0  0  0  0  0  0  0  0
    6.6879   -1.0913   19.8493 Cl  0  0  0  0  0  0  0  0  0  0  0  0
  1  3  2  0  0  0  0
  1  5  1  0  0  0  0
  2  4  1  0  0  0  0
  2  5  2  0  0  0  0
  3  6  1  0  0  0  0
  4  6  2  0  0  0  0
  5 12  1  0  0  0  0
  6 14  1  0  0  0  0
  7  8  2  0  0  0  0
  7 11  1  0  0  0  0
  8 18  1  0  0  0  0
  9 13  1  0  0  0  0
  9 14  1  0  0  0  0
  9 15  2  0  0  0  0
 10 11  1  0  0  0  0
 10 18  1  0  0  0  0
 11 14  1  0  0  0  0
 13 19  1  0  0  0  0
 16 18  2  0  0  0  0
 17 18  2  0  0  0  0
M  END
> <ref_mols>
x1374_0

> <original SMILES>
Cc1ccc(cc1)N(C2CS(=O)(=O)C=C2)C(=O)CCl

> <Chemgauss4>
-7.416115

> <ref_pdb>
x1392_0

$$$$
x1444
  -OEChem-05172015543D

 19 20  0     1  0  0  0  0  0999 V2000
   10.2226   -0.1435   24.3481 C   0  0  0  0  0  0  0  0  0  0  0  0
   11.4867   -1.2028   22.5827 C   0  0  0  0  0  0  0  0  0  0  0  0
    9.1848   -1.0545   24.1517 C   0  0  0  0  0  0  0  0  0  0  0  0
   10.4490   -2.1140   22.3863 C   0  0  0  0  0  0  0  0  0  0  0  0
   11.3735   -0.2176   23.5635 C   0  0  0  0  0  0  0  0  0  0  0  0
    9.2980   -2.0398   23.1708 C   0  0  0  0  0  0  0  0  0  0  0  0
    7.0320   -4.4043   24.4989 C   0  0  0  0  0  0  0  0  0  0  0  0
    7.2349   -4.9100   25.7197 C   0  0  0  0  0  0  0  0  0  0  0  0
    7.2137   -2.6132   22.0219 C   0  0  0  0  0  0  0  0  0  0  0  0
    9.4693   -4.4679   24.4729 C   0  0  0  0  0  0  0  0  0  0  0  0
    8.2289   -4.2747   23.6032 C   0  0  2  0  0  0  0  0  0  0  0  0
   12.4830    0.7566   23.7735 C   0  0  0  0  0  0  0  0  0  0  0  0
    7.3508   -1.1961   21.4939 C   0  0  0  0  0  0  0  0  0  0  0  0
    8.2217   -2.9853   22.9670 N   0  0  0  0  0  0  0  0  0  0  0  0
    6.2726   -3.3219   21.6561 O   0  0  0  0  0  0  0  0  0  0  0  0
    9.4200   -4.6038   27.1092 O   0  0  0  0  0  0  0  0  0  0  0  0
    9.0916   -6.7311   25.7754 O   0  0  0  0  0  0  0  0  0  0  0  0
    8.9012   -5.3054   25.9528 S   0  0  0  0  0  0  0  0  0  0  0  0
    6.6879   -1.0913   19.8493 Cl  0  0  0  0  0  0  0  0  0  0  0  0
  1  3  2  0  0  0  0
  1  5  1  0  0  0  0
  2  4  1  0  0  0  0
  2  5  2  0  0  0  0
  3  6  1  0  0  0  0
  4  6  2  0  0  0  0
  5 12  1  0  0  0  0
  6 14  1  0  0  0  0
  7  8  2  0  0  0  0
  7 11  1  0  0  0  0
  8 18  1  0  0  0  0
  9 13  1  0  0  0  0
  9 14  1  0  0  0  0
  9 15  2  0  0  0  0
 10 11  1  0  0  0  0
 10 18  1  0  0  0  0
 11 14  1  0  0  0  0
 13 19  1  0  0  0  0
 16 18  2  0  0  0  0
 17 18  2  0  0  0  0
M  END
> <ref_mols>
x1444_0

> <original SMILES>
Cc1ccc(cc1)N(C2CS(=O)(=O)C=C2)C(=O)CCl

> <Chemgauss4>
-7.416115

> <ref_pdb>
x1392_0

$$$$
x0711
  -OEChem-05172015543D

 19 20  0     1  0  0  0  0  0999 V2000
   10.2226   -0.1435   24.3481 C   0  0  0  0  0  0  0  0  0  0  0  0
   11.4867   -1.2028   22.5827 C   0  0  0  0  0  0  0  0  0  0  0  0
    9.1848   -1.0545   24.1517 C   0  0  0  0  0  0  0  0  0  0  0  0
   10.4490   -2.1140   22.3863 C   0  0  0  0  0  0  0  0  0  0  0  0
   11.3735   -0.2176   23.5635 C   0  0  0  0  0  0  0  0  0  0  0  0
    9.2980   -2.0398   23.1708 C   0  0  0  0  0  0  0  0  0  0  0  0
    7.0320   -4.4043   24.4989 C   0  0  0  0  0  0  0  0  0  0  0  0
    7.2349   -4.9100   25.7197 C   0  0  0  0  0  0  0  0  0  0  0  0
    7.2137   -2.6132   22.0219 C   0  0  0  0  0  0  0  0  0  0  0  0
    9.4693   -4.4679   24.4729 C   0  0  0  0  0  0  0  0  0  0  0  0
    8.2289   -4.2747   23.6032 C   0  0  2  0  0  0  0  0  0  0  0  0
   12.4830    0.7566   23.7735 C   0  0  0  0  0  0  0  0  0  0  0  0
    7.3508   -1.1961   21.4939 C   0  0  0  0  0  0  0  0  0  0  0  0
    8.2217   -2.9853   22.9670 N   0  0  0  0  0  0  0  0  0  0  0  0
    6.2726   -3.3219   21.6561 O   0  0  0  0  0  0  0  0  0  0  0  0
    9.4200   -4.6038   27.1092 O   0  0  0  0  0  0  0  0  0  0  0  0
    9.0916   -6.7311   25.7754 O   0  0  0  0  0  0  0  0  0  0  0  0
    8.9012   -5.3054   25.9528 S   0  0  0  0  0  0  0  0  0  0  0  0
    6.6879   -1.0913   19.8493 Cl  0  0  0  0  0  0  0  0  0  0  0  0
  1  3  2  0  0  0  0
  1  5  1  0  0  0  0
  2  4  1  0  0  0  0
  2  5  2  0  0  0  0
  3  6  1  0  0  0  0
  4  6  2  0  0  0  0
  5 12  1  0  0  0  0
  6 14  1  0  0  0  0
  7  8  2  0  0  0  0
  7 11  1  0  0  0  0
  8 18  1  0  0  0  0
  9 13  1  0  0  0  0
  9 14  1  0  0  0  0
  9 15  2  0  0  0  0
 10 11  1  0  0  0  0
 10 18  1  0  0  0  0
 11 14  1  0  0  0  0
 13 19  1  0  0  0  0
 16 18  2  0  0  0  0
 17 18  2  0  0  0  0
M  END
> <ref_mols>
x0711_0

> <original SMILES>
Cc1ccc(cc1)N(C2CS(=O)(=O)C=C2)C(=O)CCl

> <Chemgauss4>
-7.416115

> <ref_pdb>
x1392_0

$$$$
x2616
  -OEChem-05172015543D

 16 16  0     0  0  0  0  0  0999 V2000
    7.7266   -6.3200   22.5286 C   0  0  0  0  0  0  0  0  0  0  0  0
    8.4395   -5.3767   23.2686 C   0  0  0  0  0  0  0  0  0  0  0  0
    6.8481   -5.9029   21.5286 C   0  0  0  0  0  0  0  0  0  0  0  0
    7.3953   -3.5992   22.0088 C   0  0  0  0  0  0  0  0  0  0  0  0
    8.2738   -4.0163   23.0088 C   0  0  0  0  0  0  0  0  0  0  0  0
    6.6824   -4.5425   21.2687 C   0  0  0  0  0  0  0  0  0  0  0  0
   13.6725   -2.5550   24.1968 C   0  0  0  0  0  0  0  0  0  0  0  0
    9.0447   -2.9960   23.8098 C   0  0  0  0  0  0  0  0  0  0  0  0
   10.3935   -2.6451   23.1866 C   0  0  0  0  0  0  0  0  0  0  0  0
   11.1506   -1.6681   23.9896 N   0  0  0  0  0  0  0  0  0  0  0  0
   11.7603   -3.4966   25.7157 O   0  0  0  0  0  0  0  0  0  0  0  0
   12.5515   -1.1294   26.0720 O   0  0  0  0  0  0  0  0  0  0  0  0
    5.8256   -4.1356   20.2924 O   0  0  0  0  0  0  0  0  0  0  0  0
   12.2305   -2.2317   25.1858 S   0  0  0  0  0  0  0  0  0  0  0  0
   11.4320   -0.8279   23.4679 H   0  0  0  0  0  0  0  0  0  0  0  0
    5.8199   -3.1670   20.2324 H   0  0  0  0  0  0  0  0  0  0  0  0
  1  2  2  0  0  0  0
  1  3  1  0  0  0  0
  2  5  1  0  0  0  0
  3  6  2  0  0  0  0
  4  5  2  0  0  0  0
  4  6  1  0  0  0  0
  5  8  1  0  0  0  0
  6 13  1  0  0  0  0
  7 14  1  0  0  0  0
  8  9  1  0  0  0  0
  9 10  1  0  0  0  0
 10 14  1  0  0  0  0
 11 14  2  0  0  0  0
 12 14  2  0  0  0  0
 10 15  1  0  0  0  0
 13 16  1  0  0  0  0
M  END
> <ref_mols>
x2616_0

> <original SMILES>
CS(=O)(=O)NCCC=1C=CC=C(O)C1

> <Chemgauss4>
-7.416083

> <ref_pdb>
x0749_0

$$$$
x0294
  -OEChem-05172015543D

 14 15  0     1  0  0  0  0  0999 V2000
   12.2207    3.9222   23.0029 C   0  0  0  0  0  0  0  0  0  0  0  0
   13.3699    3.3875   22.4436 C   0  0  0  0  0  0  0  0  0  0  0  0
   11.3144    3.0764   23.6271 C   0  0  0  0  0  0  0  0  0  0  0  0
   13.6008    2.0068   22.4846 C   0  0  0  0  0  0  0  0  0  0  0  0
   11.5452    1.6881   23.6904 C   0  0  0  0  0  0  0  0  0  0  0  0
   12.6842    1.1158   23.0736 C   0  0  0  0  0  0  0  0  0  0  0  0
   13.9702   -0.9488   22.4179 C   0  0  0  0  0  0  0  0  0  0  0  0
   10.5287    0.8634   24.4323 C   0  0  0  0  0  0  0  0  0  0  0  0
   11.1472   -0.4396   24.8929 C   0  0  0  0  0  0  0  0  0  0  0  0
   11.8317   -1.1540   23.7301 C   0  0  1  0  0  0  0  0  0  0  0  0
   14.3855   -2.3120   22.9298 C   0  0  0  0  0  0  0  0  0  0  0  0
   10.8260   -1.6332   22.6723 C   0  0  0  0  0  0  0  0  0  0  0  0
   12.8957   -0.3272   23.0966 N   0  0  0  0  0  0  0  0  0  0  0  0
   14.5980   -0.4900   21.4617 O   0  0  0  0  0  0  0  0  0  0  0  0
  1  2  1  0  0  0  0
  1  3  2  0  0  0  0
  2  4  2  0  0  0  0
  3  5  1  0  0  0  0
  4  6  1  0  0  0  0
  5  6  2  0  0  0  0
  5  8  1  0  0  0  0
  6 13  1  0  0  0  0
  7 11  1  0  0  0  0
  7 13  1  0  0  0  0
  7 14  2  0  0  0  0
  8  9  1  0  0  0  0
  9 10  1  0  0  0  0
 10 12  1  0  0  0  0
 10 13  1  0  0  0  0
M  END
> <ref_mols>
x0294_0

> <original SMILES>
CC1CCC=2C=CC=CC2N1C(=O)C

> <Chemgauss4>
-7.414208

> <ref_pdb>
x0195_0

$$$$
x1145
  -OEChem-05172015543D

 14 15  0     1  0  0  0  0  0999 V2000
   12.2207    3.9222   23.0029 C   0  0  0  0  0  0  0  0  0  0  0  0
   13.3699    3.3875   22.4436 C   0  0  0  0  0  0  0  0  0  0  0  0
   11.3144    3.0764   23.6271 C   0  0  0  0  0  0  0  0  0  0  0  0
   13.6008    2.0068   22.4846 C   0  0  0  0  0  0  0  0  0  0  0  0
   11.5452    1.6881   23.6904 C   0  0  0  0  0  0  0  0  0  0  0  0
   12.6842    1.1158   23.0736 C   0  0  0  0  0  0  0  0  0  0  0  0
   13.9702   -0.9488   22.4179 C   0  0  0  0  0  0  0  0  0  0  0  0
   10.5287    0.8634   24.4323 C   0  0  0  0  0  0  0  0  0  0  0  0
   11.1472   -0.4396   24.8929 C   0  0  0  0  0  0  0  0  0  0  0  0
   11.8317   -1.1540   23.7301 C   0  0  1  0  0  0  0  0  0  0  0  0
   14.3855   -2.3120   22.9298 C   0  0  0  0  0  0  0  0  0  0  0  0
   10.8260   -1.6332   22.6723 C   0  0  0  0  0  0  0  0  0  0  0  0
   12.8957   -0.3272   23.0966 N   0  0  0  0  0  0  0  0  0  0  0  0
   14.5980   -0.4900   21.4617 O   0  0  0  0  0  0  0  0  0  0  0  0
  1  2  1  0  0  0  0
  1  3  2  0  0  0  0
  2  4  2  0  0  0  0
  3  5  1  0  0  0  0
  4  6  1  0  0  0  0
  5  6  2  0  0  0  0
  5  8  1  0  0  0  0
  6 13  1  0  0  0  0
  7 11  1  0  0  0  0
  7 13  1  0  0  0  0
  7 14  2  0  0  0  0
  8  9  1  0  0  0  0
  9 10  1  0  0  0  0
 10 12  1  0  0  0  0
 10 13  1  0  0  0  0
M  END
> <ref_mols>
x1145_0

> <original SMILES>
CC1CCC=2C=CC=CC2N1C(=O)C

> <Chemgauss4>
-7.414208

> <ref_pdb>
x0195_0

$$$$
x0266
  -OEChem-05172015543D

 15 16  0     0  0  0  0  0  0999 V2000
    8.5249   -4.2045   24.1881 C   0  0  0  0  0  0  0  0  0  0  0  0
   10.5959   -4.6628   25.3219 C   0  0  0  0  0  0  0  0  0  0  0  0
    8.0221   -5.3666   24.7508 C   0  0  0  0  0  0  0  0  0  0  0  0
   10.0003   -5.8042   25.8340 C   0  0  0  0  0  0  0  0  0  0  0  0
   11.0574   -0.5878   23.5765 C   0  0  0  0  0  0  0  0  0  0  0  0
    9.8372   -3.8530   24.4841 C   0  0  0  0  0  0  0  0  0  0  0  0
   10.3859   -1.3672   24.4865 C   0  0  0  0  0  0  0  0  0  0  0  0
   10.4066   -2.6588   23.9268 C   0  0  0  0  0  0  0  0  0  0  0  0
    9.7680   -0.9143   25.7973 C   0  0  0  0  0  0  0  0  0  0  0  0
   12.1572   -1.0656   21.3761 C   0  0  0  0  0  0  0  0  0  0  0  0
    8.7285   -6.1784   25.5690 N   0  0  0  0  0  0  0  0  0  0  0  0
   11.0409   -2.7015   22.7521 N   0  0  0  0  0  0  0  0  0  0  0  0
   11.4248   -1.4271   22.5662 N   0  0  0  0  0  0  0  0  0  0  0  0
    9.8796    0.3125   26.0901 O   0  5  0  0  0  0  0  0  0  0  0  0
    9.1900   -1.7991   26.4947 O   0  0  0  0  0  0  0  0  0  0  0  0
  1  3  2  0  0  0  0
  1  6  1  0  0  0  0
  2  4  1  0  0  0  0
  2  6  2  0  0  0  0
  3 11  1  0  0  0  0
  4 11  2  0  0  0  0
  5  7  2  0  0  0  0
  5 13  1  0  0  0  0
  6  8  1  0  0  0  0
  7  8  1  0  0  0  0
  7  9  1  0  0  0  0
  8 12  2  0  0  0  0
  9 14  1  0  0  0  0
  9 15  2  0  0  0  0
 10 13  1  0  0  0  0
 12 13  1  0  0  0  0
M  CHG  1  14  -1
M  END
> <ref_mols>
x0266_0

> <original SMILES>
CN1C=C(C(=O)O)C(=N1)C=2C=CN=CC2

> <Chemgauss4>
-7.413765

> <ref_pdb>
x0387_0

$$$$
x0247
  -OEChem-05172015543D

 14 14  0     0  0  0  0  0  0999 V2000
   14.2952   -2.0195   22.5665 C   0  0  0  0  0  0  0  0  0  0  0  0
   14.5077   -1.5262   23.8538 C   0  0  0  0  0  0  0  0  0  0  0  0
   13.3461   -1.4207   21.7380 C   0  0  0  0  0  0  0  0  0  0  0  0
   13.7711   -0.4342   24.3126 C   0  0  0  0  0  0  0  0  0  0  0  0
   12.6095   -0.3287   22.1969 C   0  0  0  0  0  0  0  0  0  0  0  0
   12.8220    0.1646   23.4842 C   0  0  0  0  0  0  0  0  0  0  0  0
    7.5932   -0.0091   20.9853 C   0  0  0  0  0  0  0  0  0  0  0  0
    9.0695   -0.1264   20.6789 C   0  0  0  0  0  0  0  0  0  0  0  0
   11.6385    0.2820   21.3467 N   0  0  0  0  0  0  0  0  0  0  0  0
    9.8795   -0.2823   23.1461 O   0  0  0  0  0  0  0  0  0  0  0  0
    9.7798    1.9846   22.0525 O   0  0  0  0  0  0  0  0  0  0  0  0
   12.1190    1.2133   23.9352 F   0  0  0  0  0  0  0  0  0  0  0  0
   10.0632    0.5649   21.9825 S   0  0  0  0  0  0  0  0  0  0  0  0
   12.0097    1.0484   20.7610 H   0  0  0  0  0  0  0  0  0  0  0  0
  1  2  1  0  0  0  0
  1  3  2  0  0  0  0
  2  4  2  0  0  0  0
  3  5  1  0  0  0  0
  4  6  1  0  0  0  0
  5  6  2  0  0  0  0
  5  9  1  0  0  0  0
  6 12  1  0  0  0  0
  7  8  1  0  0  0  0
  8 13  1  0  0  0  0
  9 13  1  0  0  0  0
 10 13  2  0  0  0  0
 11 13  2  0  0  0  0
  9 14  1  0  0  0  0
M  END
> <ref_mols>
x0247_0

> <original SMILES>
CCS(=O)(=O)NC=1C=CC=CC1F

> <Chemgauss4>
-7.413380

> <ref_pdb>
x0678_0

$$$$
x0551
  -OEChem-05172015543D

 15 15  0     0  0  0  0  0  0999 V2000
    9.9487   -2.0145   23.5034 C   0  0  0  0  0  0  0  0  0  0  0  0
    9.4428   -1.2025   22.4884 C   0  0  0  0  0  0  0  0  0  0  0  0
   11.3241   -2.0761   23.7271 C   0  0  0  0  0  0  0  0  0  0  0  0
   11.6879   -0.5137   21.9206 C   0  0  0  0  0  0  0  0  0  0  0  0
   10.3124   -0.4521   21.6970 C   0  0  0  0  0  0  0  0  0  0  0  0
   12.1937   -1.3258   22.9356 C   0  0  0  0  0  0  0  0  0  0  0  0
    9.7846    0.3950   20.6392 C   0  0  0  0  0  0  0  0  0  0  0  0
    6.6329   -0.0088   18.7001 C   0  0  0  0  0  0  0  0  0  0  0  0
   13.6646   -1.3917   23.1746 C   0  0  0  0  0  0  0  0  0  0  0  0
    7.9202    0.7411   18.9993 C   0  0  0  0  0  0  0  0  0  0  0  0
    8.5615    0.0169   20.0731 N   0  0  0  0  0  0  0  0  0  0  0  0
    5.8256   -0.0974   19.6680 O   0  5  0  0  0  0  0  0  0  0  0  0
   10.4179    1.3943   20.2554 O   0  0  0  0  0  0  0  0  0  0  0  0
    6.5249   -0.4401   17.5174 O   0  0  0  0  0  0  0  0  0  0  0  0
    8.1174   -0.8424   20.3799 H   0  0  0  0  0  0  0  0  0  0  0  0
  1  2  1  0  0  0  0
  1  3  2  0  0  0  0
  2  5  2  0  0  0  0
  3  6  1  0  0  0  0
  4  5  1  0  0  0  0
  4  6  2  0  0  0  0
  5  7  1  0  0  0  0
  6  9  1  0  0  0  0
  7 11  1  0  0  0  0
  7 13  2  0  0  0  0
  8 10  1  0  0  0  0
  8 12  1  0  0  0  0
  8 14  2  0  0  0  0
 10 11  1  0  0  0  0
 11 15  1  0  0  0  0
M  CHG  1  12  -1
M  END
> <ref_mols>
x0551_0

> <original SMILES>
CC=1C=CC=C(C1)C(=O)NCC(=O)O

> <Chemgauss4>
-7.411170

> <ref_pdb>
x0678_0

$$$$
x0176
  -OEChem-05172015543D

 15 15  0     0  0  0  0  0  0999 V2000
   11.7981   -0.0455   23.6555 C   0  0  0  0  0  0  0  0  0  0  0  0
   10.5979    0.0297   24.3623 C   0  0  0  0  0  0  0  0  0  0  0  0
   10.6568    2.4400   24.2056 C   0  0  0  0  0  0  0  0  0  0  0  0
   11.8570    2.3647   23.4988 C   0  0  0  0  0  0  0  0  0  0  0  0
   12.4276    1.1220   23.2238 C   0  0  0  0  0  0  0  0  0  0  0  0
   10.0273    1.2725   24.6373 C   0  0  0  0  0  0  0  0  0  0  0  0
   11.1767    5.6102   23.7091 C   0  0  0  0  0  0  0  0  0  0  0  0
   10.1826    6.6033   23.2051 C   0  0  0  0  0  0  0  0  0  0  0  0
   14.1107   -0.2799   22.2976 C   0  0  0  0  0  0  0  0  0  0  0  0
   12.5175    3.6244   23.0448 C   0  0  0  0  0  0  0  0  0  0  0  0
   11.5670    4.6710   22.7697 N   0  0  0  0  0  0  0  0  0  0  0  0
   11.5696    5.6833   24.8675 O   0  0  0  0  0  0  0  0  0  0  0  0
   13.5991    1.0302   22.5342 O   0  0  0  0  0  0  0  0  0  0  0  0
    8.4007    1.3737   25.5949 Br  0  0  0  0  0  0  0  0  0  0  0  0
   11.1617    4.7227   21.8374 H   0  0  0  0  0  0  0  0  0  0  0  0
  1  2  2  0  0  0  0
  1  5  1  0  0  0  0
  2  6  1  0  0  0  0
  3  4  1  0  0  0  0
  3  6  2  0  0  0  0
  4  5  2  0  0  0  0
  4 10  1  0  0  0  0
  5 13  1  0  0  0  0
  6 14  1  0  0  0  0
  7  8  1  0  0  0  0
  7 11  1  0  0  0  0
  7 12  2  0  0  0  0
  9 13  1  0  0  0  0
 10 11  1  0  0  0  0
 11 15  1  0  0  0  0
M  END
> <ref_mols>
x0176_0

> <original SMILES>
COC=1C=CC(Br)=CC1CNC(=O)C

> <Chemgauss4>
-7.411050

> <ref_pdb>
x0104_0

$$$$
x0075
  -OEChem-05172015543D

 12 12  0     0  0  0  0  0  0999 V2000
   13.5400    2.1504   22.3170 C   0  0  0  0  0  0  0  0  0  0  0  0
   13.7998    0.8102   22.1661 C   0  0  0  0  0  0  0  0  0  0  0  0
   12.4335    2.1987   23.1859 C   0  0  0  0  0  0  0  0  0  0  0  0
   13.9496   -2.0165   22.5567 C   0  0  0  0  0  0  0  0  0  0  0  0
   11.4148    5.8851   23.4473 C   0  0  0  0  0  0  0  0  0  0  0  0
   11.7241    3.4190   23.6946 C   0  0  0  0  0  0  0  0  0  0  0  0
   12.7383   -1.2660   23.0832 C   0  0  0  0  0  0  0  0  0  0  0  0
   12.0187    0.9856   23.5605 N   0  0  0  0  0  0  0  0  0  0  0  0
   12.8691    0.1624   22.9239 N   0  0  0  0  0  0  0  0  0  0  0  0
   12.0594    4.6492   22.9296 N   0  3  0  0  0  0  0  0  0  0  0  0
   11.7922    4.5167   21.9446 H   0  0  0  0  0  0  0  0  0  0  0  0
   13.0807    4.7772   22.9278 H   0  0  0  0  0  0  0  0  0  0  0  0
  1  2  2  0  0  0  0
  1  3  1  0  0  0  0
  2  9  1  0  0  0  0
  3  6  1  0  0  0  0
  3  8  2  0  0  0  0
  4  7  1  0  0  0  0
  5 10  1  0  0  0  0
  6 10  1  0  0  0  0
  7  9  1  0  0  0  0
  8  9  1  0  0  0  0
 10 11  1  0  0  0  0
 10 12  1  0  0  0  0
M  CHG  1  10   1
M  END
> <ref_mols>
x0075_0

> <original SMILES>
CCN1C=CC(CNC)=N1

> <Chemgauss4>
-7.405569

> <ref_pdb>
x0195_0

$$$$
x1060
  -OEChem-05172015543D

 12 12  0     0  0  0  0  0  0999 V2000
   13.5400    2.1504   22.3170 C   0  0  0  0  0  0  0  0  0  0  0  0
   13.7998    0.8102   22.1661 C   0  0  0  0  0  0  0  0  0  0  0  0
   12.4335    2.1987   23.1859 C   0  0  0  0  0  0  0  0  0  0  0  0
   13.9496   -2.0165   22.5567 C   0  0  0  0  0  0  0  0  0  0  0  0
   11.4148    5.8851   23.4473 C   0  0  0  0  0  0  0  0  0  0  0  0
   11.7241    3.4190   23.6946 C   0  0  0  0  0  0  0  0  0  0  0  0
   12.7383   -1.2660   23.0832 C   0  0  0  0  0  0  0  0  0  0  0  0
   12.0187    0.9856   23.5605 N   0  0  0  0  0  0  0  0  0  0  0  0
   12.8691    0.1624   22.9239 N   0  0  0  0  0  0  0  0  0  0  0  0
   12.0594    4.6492   22.9296 N   0  3  0  0  0  0  0  0  0  0  0  0
   11.7922    4.5167   21.9446 H   0  0  0  0  0  0  0  0  0  0  0  0
   13.0807    4.7772   22.9278 H   0  0  0  0  0  0  0  0  0  0  0  0
  1  2  2  0  0  0  0
  1  3  1  0  0  0  0
  2  9  1  0  0  0  0
  3  6  1  0  0  0  0
  3  8  2  0  0  0  0
  4  7  1  0  0  0  0
  5 10  1  0  0  0  0
  6 10  1  0  0  0  0
  7  9  1  0  0  0  0
  8  9  1  0  0  0  0
 10 11  1  0  0  0  0
 10 12  1  0  0  0  0
M  CHG  1  10   1
M  END
> <ref_mols>
x1060_0

> <original SMILES>
CCN1C=CC(CNC)=N1

> <Chemgauss4>
-7.405569

> <ref_pdb>
x0195_0

$$$$
x2728
  -OEChem-05172015543D

 23 24  0     0  0  0  0  0  0999 V2000
   13.3893   -2.5393   26.1140 C   0  0  0  0  0  0  0  0  0  0  0  0
   13.2080   -1.2294   25.6703 C   0  0  0  0  0  0  0  0  0  0  0  0
   12.5223   -3.5460   25.6889 C   0  0  0  0  0  0  0  0  0  0  0  0
   11.2925   -1.9327   24.3767 C   0  0  0  0  0  0  0  0  0  0  0  0
   12.1596   -0.9261   24.8017 C   0  0  0  0  0  0  0  0  0  0  0  0
   11.4739   -3.2426   24.8203 C   0  0  0  0  0  0  0  0  0  0  0  0
   11.9718    0.4400   24.3400 C   0  0  0  0  0  0  0  0  0  0  0  0
    9.5087   -4.1384   23.5320 C   0  0  0  0  0  0  0  0  0  0  0  0
    4.6913   -5.5757   22.6450 C   0  0  0  0  0  0  0  0  0  0  0  0
    7.7775   -5.6937   24.4124 C   0  0  0  0  0  0  0  0  0  0  0  0
    8.2331   -5.5589   21.9150 C   0  0  0  0  0  0  0  0  0  0  0  0
    6.5033   -4.8835   24.1807 C   0  0  0  0  0  0  0  0  0  0  0  0
    6.9335   -4.7682   21.7582 C   0  0  0  0  0  0  0  0  0  0  0  0
    8.8289   -5.4602   23.3230 C   0  0  0  0  0  0  0  0  0  0  0  0
   11.3642    0.6356   22.9812 C   0  0  0  0  0  0  0  0  0  0  0  0
    3.8842   -5.8368   23.8917 C   0  0  0  0  0  0  0  0  0  0  0  0
    5.9892   -5.1009   22.8291 N   0  0  0  0  0  0  0  0  0  0  0  0
   10.5946   -4.2640   24.3890 N   0  0  0  0  0  0  0  0  0  0  0  0
   12.2779    1.4498   24.9777 O   0  0  0  0  0  0  0  0  0  0  0  0
    9.0962   -3.1253   22.9766 O   0  0  0  0  0  0  0  0  0  0  0  0
    4.1810   -5.7860   21.5416 O   0  0  0  0  0  0  0  0  0  0  0  0
    2.2988   -6.3856   23.3597 Cl  0  0  0  0  0  0  0  0  0  0  0  0
   10.7922   -5.1928   24.7557 H   0  0  0  0  0  0  0  0  0  0  0  0
  1  2  2  0  0  0  0
  1  3  1  0  0  0  0
  2  5  1  0  0  0  0
  3  6  2  0  0  0  0
  4  5  2  0  0  0  0
  4  6  1  0  0  0  0
  5  7  1  0  0  0  0
  6 18  1  0  0  0  0
  7 15  1  0  0  0  0
  7 19  2  0  0  0  0
  8 14  1  0  0  0  0
  8 18  1  0  0  0  0
  8 20  2  0  0  0  0
  9 16  1  0  0  0  0
  9 17  1  0  0  0  0
  9 21  2  0  0  0  0
 10 12  1  0  0  0  0
 10 14  1  0  0  0  0
 11 13  1  0  0  0  0
 11 14  1  0  0  0  0
 12 17  1  0  0  0  0
 13 17  1  0  0  0  0
 16 22  1  0  0  0  0
 18 23  1  0  0  0  0
M  END
> <ref_mols>
x2728_0

> <original SMILES>
O=C(C1CCN(C(CCl)=O)CC1)NC2=CC(C(C)=O)=CC=C2

> <Chemgauss4>
-7.405107

> <ref_pdb>
x0749_0

> <CYS145-warhead dist minimum (A)>
5.0015664

> <CYS145-warhead dist mean (A)>
8.409041

> <CYS145-warhead dist stddev (A)>
0.64497364

$$$$
x2759
  -OEChem-05172015543D

 23 24  0     0  0  0  0  0  0999 V2000
   13.3893   -2.5393   26.1140 C   0  0  0  0  0  0  0  0  0  0  0  0
   13.2080   -1.2294   25.6703 C   0  0  0  0  0  0  0  0  0  0  0  0
   12.5223   -3.5460   25.6889 C   0  0  0  0  0  0  0  0  0  0  0  0
   11.2925   -1.9327   24.3767 C   0  0  0  0  0  0  0  0  0  0  0  0
   12.1596   -0.9261   24.8017 C   0  0  0  0  0  0  0  0  0  0  0  0
   11.4739   -3.2426   24.8203 C   0  0  0  0  0  0  0  0  0  0  0  0
   11.9718    0.4400   24.3400 C   0  0  0  0  0  0  0  0  0  0  0  0
    9.5087   -4.1384   23.5320 C   0  0  0  0  0  0  0  0  0  0  0  0
    4.6913   -5.5757   22.6450 C   0  0  0  0  0  0  0  0  0  0  0  0
    7.7775   -5.6937   24.4124 C   0  0  0  0  0  0  0  0  0  0  0  0
    8.2331   -5.5589   21.9150 C   0  0  0  0  0  0  0  0  0  0  0  0
    6.5033   -4.8835   24.1807 C   0  0  0  0  0  0  0  0  0  0  0  0
    6.9335   -4.7682   21.7582 C   0  0  0  0  0  0  0  0  0  0  0  0
    8.8289   -5.4602   23.3230 C   0  0  0  0  0  0  0  0  0  0  0  0
   11.3642    0.6356   22.9812 C   0  0  0  0  0  0  0  0  0  0  0  0
    3.8842   -5.8368   23.8917 C   0  0  0  0  0  0  0  0  0  0  0  0
    5.9892   -5.1009   22.8291 N   0  0  0  0  0  0  0  0  0  0  0  0
   10.5946   -4.2640   24.3890 N   0  0  0  0  0  0  0  0  0  0  0  0
   12.2779    1.4498   24.9777 O   0  0  0  0  0  0  0  0  0  0  0  0
    9.0962   -3.1253   22.9766 O   0  0  0  0  0  0  0  0  0  0  0  0
    4.1810   -5.7860   21.5416 O   0  0  0  0  0  0  0  0  0  0  0  0
    2.2988   -6.3856   23.3597 Cl  0  0  0  0  0  0  0  0  0  0  0  0
   10.7922   -5.1928   24.7557 H   0  0  0  0  0  0  0  0  0  0  0  0
  1  2  2  0  0  0  0
  1  3  1  0  0  0  0
  2  5  1  0  0  0  0
  3  6  2  0  0  0  0
  4  5  2  0  0  0  0
  4  6  1  0  0  0  0
  5  7  1  0  0  0  0
  6 18  1  0  0  0  0
  7 15  1  0  0  0  0
  7 19  2  0  0  0  0
  8 14  1  0  0  0  0
  8 18  1  0  0  0  0
  8 20  2  0  0  0  0
  9 16  1  0  0  0  0
  9 17  1  0  0  0  0
  9 21  2  0  0  0  0
 10 12  1  0  0  0  0
 10 14  1  0  0  0  0
 11 13  1  0  0  0  0
 11 14  1  0  0  0  0
 12 17  1  0  0  0  0
 13 17  1  0  0  0  0
 16 22  1  0  0  0  0
 18 23  1  0  0  0  0
M  END
> <ref_mols>
x2759_0

> <original SMILES>
O=C(C1CCN(C(CCl)=O)CC1)NC2=CC(C(C)=O)=CC=C2

> <Chemgauss4>
-7.405107

> <ref_pdb>
x0749_0

> <CYS145-warhead dist minimum (A)>
9.633668

> <CYS145-warhead dist mean (A)>
10.292935

> <CYS145-warhead dist stddev (A)>
0.3424431

$$$$
x2770
  -OEChem-05172015543D

 23 24  0     0  0  0  0  0  0999 V2000
   13.3893   -2.5393   26.1140 C   0  0  0  0  0  0  0  0  0  0  0  0
   13.2080   -1.2294   25.6703 C   0  0  0  0  0  0  0  0  0  0  0  0
   12.5223   -3.5460   25.6889 C   0  0  0  0  0  0  0  0  0  0  0  0
   11.2925   -1.9327   24.3767 C   0  0  0  0  0  0  0  0  0  0  0  0
   12.1596   -0.9261   24.8017 C   0  0  0  0  0  0  0  0  0  0  0  0
   11.4739   -3.2426   24.8203 C   0  0  0  0  0  0  0  0  0  0  0  0
   11.9718    0.4400   24.3400 C   0  0  0  0  0  0  0  0  0  0  0  0
    9.5087   -4.1384   23.5320 C   0  0  0  0  0  0  0  0  0  0  0  0
    4.6913   -5.5757   22.6450 C   0  0  0  0  0  0  0  0  0  0  0  0
    7.7775   -5.6937   24.4124 C   0  0  0  0  0  0  0  0  0  0  0  0
    8.2331   -5.5589   21.9150 C   0  0  0  0  0  0  0  0  0  0  0  0
    6.5033   -4.8835   24.1807 C   0  0  0  0  0  0  0  0  0  0  0  0
    6.9335   -4.7682   21.7582 C   0  0  0  0  0  0  0  0  0  0  0  0
    8.8289   -5.4602   23.3230 C   0  0  0  0  0  0  0  0  0  0  0  0
   11.3642    0.6356   22.9812 C   0  0  0  0  0  0  0  0  0  0  0  0
    3.8842   -5.8368   23.8917 C   0  0  0  0  0  0  0  0  0  0  0  0
    5.9892   -5.1009   22.8291 N   0  0  0  0  0  0  0  0  0  0  0  0
   10.5946   -4.2640   24.3890 N   0  0  0  0  0  0  0  0  0  0  0  0
   12.2779    1.4498   24.9777 O   0  0  0  0  0  0  0  0  0  0  0  0
    9.0962   -3.1253   22.9766 O   0  0  0  0  0  0  0  0  0  0  0  0
    4.1810   -5.7860   21.5416 O   0  0  0  0  0  0  0  0  0  0  0  0
    2.2988   -6.3856   23.3597 Cl  0  0  0  0  0  0  0  0  0  0  0  0
   10.7922   -5.1928   24.7557 H   0  0  0  0  0  0  0  0  0  0  0  0
  1  2  2  0  0  0  0
  1  3  1  0  0  0  0
  2  5  1  0  0  0  0
  3  6  2  0  0  0  0
  4  5  2  0  0  0  0
  4  6  1  0  0  0  0
  5  7  1  0  0  0  0
  6 18  1  0  0  0  0
  7 15  1  0  0  0  0
  7 19  2  0  0  0  0
  8 14  1  0  0  0  0
  8 18  1  0  0  0  0
  8 20  2  0  0  0  0
  9 16  1  0  0  0  0
  9 17  1  0  0  0  0
  9 21  2  0  0  0  0
 10 12  1  0  0  0  0
 10 14  1  0  0  0  0
 11 13  1  0  0  0  0
 11 14  1  0  0  0  0
 12 17  1  0  0  0  0
 13 17  1  0  0  0  0
 16 22  1  0  0  0  0
 18 23  1  0  0  0  0
M  END
> <ref_mols>
x2770_0

> <original SMILES>
O=C(C1CCN(C(CCl)=O)CC1)NC2=CC(C(C)=O)=CC=C2

> <Chemgauss4>
-7.405107

> <ref_pdb>
x0749_0

> <CYS145-warhead dist minimum (A)>
11.394381

> <CYS145-warhead dist mean (A)>
13.212801

> <CYS145-warhead dist stddev (A)>
0.5199214

$$$$
x2054
  -OEChem-05172015543D

 23 24  0     0  0  0  0  0  0999 V2000
   13.3893   -2.5393   26.1140 C   0  0  0  0  0  0  0  0  0  0  0  0
   13.2080   -1.2294   25.6703 C   0  0  0  0  0  0  0  0  0  0  0  0
   12.5223   -3.5460   25.6889 C   0  0  0  0  0  0  0  0  0  0  0  0
   11.2925   -1.9327   24.3767 C   0  0  0  0  0  0  0  0  0  0  0  0
   12.1596   -0.9261   24.8017 C   0  0  0  0  0  0  0  0  0  0  0  0
   11.4739   -3.2426   24.8203 C   0  0  0  0  0  0  0  0  0  0  0  0
   11.9718    0.4400   24.3400 C   0  0  0  0  0  0  0  0  0  0  0  0
    9.5087   -4.1384   23.5320 C   0  0  0  0  0  0  0  0  0  0  0  0
    4.6913   -5.5757   22.6450 C   0  0  0  0  0  0  0  0  0  0  0  0
    7.7775   -5.6937   24.4124 C   0  0  0  0  0  0  0  0  0  0  0  0
    8.2331   -5.5589   21.9150 C   0  0  0  0  0  0  0  0  0  0  0  0
    6.5033   -4.8835   24.1807 C   0  0  0  0  0  0  0  0  0  0  0  0
    6.9335   -4.7682   21.7582 C   0  0  0  0  0  0  0  0  0  0  0  0
    8.8289   -5.4602   23.3230 C   0  0  0  0  0  0  0  0  0  0  0  0
   11.3642    0.6356   22.9812 C   0  0  0  0  0  0  0  0  0  0  0  0
    3.8842   -5.8368   23.8917 C   0  0  0  0  0  0  0  0  0  0  0  0
    5.9892   -5.1009   22.8291 N   0  0  0  0  0  0  0  0  0  0  0  0
   10.5946   -4.2640   24.3890 N   0  0  0  0  0  0  0  0  0  0  0  0
   12.2779    1.4498   24.9777 O   0  0  0  0  0  0  0  0  0  0  0  0
    9.0962   -3.1253   22.9766 O   0  0  0  0  0  0  0  0  0  0  0  0
    4.1810   -5.7860   21.5416 O   0  0  0  0  0  0  0  0  0  0  0  0
    2.2988   -6.3856   23.3597 Cl  0  0  0  0  0  0  0  0  0  0  0  0
   10.7922   -5.1928   24.7557 H   0  0  0  0  0  0  0  0  0  0  0  0
  1  2  2  0  0  0  0
  1  3  1  0  0  0  0
  2  5  1  0  0  0  0
  3  6  2  0  0  0  0
  4  5  2  0  0  0  0
  4  6  1  0  0  0  0
  5  7  1  0  0  0  0
  6 18  1  0  0  0  0
  7 15  1  0  0  0  0
  7 19  2  0  0  0  0
  8 14  1  0  0  0  0
  8 18  1  0  0  0  0
  8 20  2  0  0  0  0
  9 16  1  0  0  0  0
  9 17  1  0  0  0  0
  9 21  2  0  0  0  0
 10 12  1  0  0  0  0
 10 14  1  0  0  0  0
 11 13  1  0  0  0  0
 11 14  1  0  0  0  0
 12 17  1  0  0  0  0
 13 17  1  0  0  0  0
 16 22  1  0  0  0  0
 18 23  1  0  0  0  0
M  END
> <ref_mols>
x2054_0

> <original SMILES>
O=C(C1CCN(C(CCl)=O)CC1)NC2=CC(C(C)=O)=CC=C2

> <Chemgauss4>
-7.405107

> <ref_pdb>
x0749_0

$$$$
x2781
  -OEChem-05172015543D

 23 24  0     0  0  0  0  0  0999 V2000
   13.3893   -2.5393   26.1140 C   0  0  0  0  0  0  0  0  0  0  0  0
   13.2080   -1.2294   25.6703 C   0  0  0  0  0  0  0  0  0  0  0  0
   12.5223   -3.5460   25.6889 C   0  0  0  0  0  0  0  0  0  0  0  0
   11.2925   -1.9327   24.3767 C   0  0  0  0  0  0  0  0  0  0  0  0
   12.1596   -0.9261   24.8017 C   0  0  0  0  0  0  0  0  0  0  0  0
   11.4739   -3.2426   24.8203 C   0  0  0  0  0  0  0  0  0  0  0  0
   11.9718    0.4400   24.3400 C   0  0  0  0  0  0  0  0  0  0  0  0
    9.5087   -4.1384   23.5320 C   0  0  0  0  0  0  0  0  0  0  0  0
    4.6913   -5.5757   22.6450 C   0  0  0  0  0  0  0  0  0  0  0  0
    7.7775   -5.6937   24.4124 C   0  0  0  0  0  0  0  0  0  0  0  0
    8.2331   -5.5589   21.9150 C   0  0  0  0  0  0  0  0  0  0  0  0
    6.5033   -4.8835   24.1807 C   0  0  0  0  0  0  0  0  0  0  0  0
    6.9335   -4.7682   21.7582 C   0  0  0  0  0  0  0  0  0  0  0  0
    8.8289   -5.4602   23.3230 C   0  0  0  0  0  0  0  0  0  0  0  0
   11.3642    0.6356   22.9812 C   0  0  0  0  0  0  0  0  0  0  0  0
    3.8842   -5.8368   23.8917 C   0  0  0  0  0  0  0  0  0  0  0  0
    5.9892   -5.1009   22.8291 N   0  0  0  0  0  0  0  0  0  0  0  0
   10.5946   -4.2640   24.3890 N   0  0  0  0  0  0  0  0  0  0  0  0
   12.2779    1.4498   24.9777 O   0  0  0  0  0  0  0  0  0  0  0  0
    9.0962   -3.1253   22.9766 O   0  0  0  0  0  0  0  0  0  0  0  0
    4.1810   -5.7860   21.5416 O   0  0  0  0  0  0  0  0  0  0  0  0
    2.2988   -6.3856   23.3597 Cl  0  0  0  0  0  0  0  0  0  0  0  0
   10.7922   -5.1928   24.7557 H   0  0  0  0  0  0  0  0  0  0  0  0
  1  2  2  0  0  0  0
  1  3  1  0  0  0  0
  2  5  1  0  0  0  0
  3  6  2  0  0  0  0
  4  5  2  0  0  0  0
  4  6  1  0  0  0  0
  5  7  1  0  0  0  0
  6 18  1  0  0  0  0
  7 15  1  0  0  0  0
  7 19  2  0  0  0  0
  8 14  1  0  0  0  0
  8 18  1  0  0  0  0
  8 20  2  0  0  0  0
  9 16  1  0  0  0  0
  9 17  1  0  0  0  0
  9 21  2  0  0  0  0
 10 12  1  0  0  0  0
 10 14  1  0  0  0  0
 11 13  1  0  0  0  0
 11 14  1  0  0  0  0
 12 17  1  0  0  0  0
 13 17  1  0  0  0  0
 16 22  1  0  0  0  0
 18 23  1  0  0  0  0
M  END
> <ref_mols>
x2781_0

> <original SMILES>
O=C(C1CCN(C(CCl)=O)CC1)NC2=CC(C(C)=O)=CC=C2

> <Chemgauss4>
-7.405107

> <ref_pdb>
x0749_0

> <CYS145-warhead dist minimum (A)>
6.5371466

> <CYS145-warhead dist mean (A)>
8.984386

> <CYS145-warhead dist stddev (A)>
0.86243695

$$$$
x1174
  -OEChem-05172015543D

 15 17  0     1  0  0  0  0  0999 V2000
   10.2765   -1.4293   22.9041 C   0  0  0  0  0  0  0  0  0  0  0  0
    9.9621   -3.3382   23.6367 C   0  0  0  0  0  0  0  0  0  0  0  0
   11.1012    1.0472   22.6614 C   0  0  0  0  0  0  0  0  0  0  0  0
    9.8913    0.9129   21.7906 C   0  0  0  0  0  0  0  0  0  0  0  0
    8.7357   -5.5123   23.2354 C   0  0  0  0  0  0  0  0  0  0  0  0
    7.5411   -5.3110   24.1486 C   0  0  0  0  0  0  0  0  0  0  0  0
    9.6242   -5.2024   25.4197 C   0  0  0  0  0  0  0  0  0  0  0  0
   10.7854   -0.2874   22.0197 C   0  0  0  0  0  0  0  0  0  0  0  0
    9.8893   -4.8198   23.9643 C   0  0  2  0  0  0  0  0  0  0  0  0
   10.5957   -2.7340   22.6635 N   0  0  0  0  0  0  0  0  0  0  0  0
    9.4904   -1.2091   23.9620 N   0  0  0  0  0  0  0  0  0  0  0  0
    8.1277   -5.3007   25.5286 N   0  3  0  0  0  0  0  0  0  0  0  0
    9.2767   -2.5011   24.4588 O   0  0  0  0  0  0  0  0  0  0  0  0
    7.7603   -4.5081   26.0738 H   0  0  0  0  0  0  0  0  0  0  0  0
    7.8547   -6.1535   26.0370 H   0  0  0  0  0  0  0  0  0  0  0  0
  1  8  1  0  0  0  0
  1 10  1  0  0  0  0
  1 11  2  0  0  0  0
  2  9  1  0  0  0  0
  2 10  2  0  0  0  0
  2 13  1  0  0  0  0
  3  4  1  0  0  0  0
  3  8  1  0  0  0  0
  4  8  1  0  0  0  0
  5  6  1  0  0  0  0
  5  9  1  0  0  0  0
  6 12  1  0  0  0  0
  7  9  1  0  0  0  0
  7 12  1  0  0  0  0
 11 13  1  0  0  0  0
 12 14  1  0  0  0  0
 12 15  1  0  0  0  0
M  CHG  1  12   1
M  END
> <ref_mols>
x1174_0

> <original SMILES>
C1CC1C2=NOC(=N2)C3CCNC3

> <Chemgauss4>
-7.404920

> <ref_pdb>
x1077_0

$$$$
x0203
  -OEChem-05172015543D

 15 17  0     1  0  0  0  0  0999 V2000
   10.2765   -1.4293   22.9041 C   0  0  0  0  0  0  0  0  0  0  0  0
    9.9621   -3.3382   23.6367 C   0  0  0  0  0  0  0  0  0  0  0  0
   11.1012    1.0472   22.6614 C   0  0  0  0  0  0  0  0  0  0  0  0
    9.8913    0.9129   21.7906 C   0  0  0  0  0  0  0  0  0  0  0  0
    8.7357   -5.5123   23.2354 C   0  0  0  0  0  0  0  0  0  0  0  0
    7.5411   -5.3110   24.1486 C   0  0  0  0  0  0  0  0  0  0  0  0
    9.6242   -5.2024   25.4197 C   0  0  0  0  0  0  0  0  0  0  0  0
   10.7854   -0.2874   22.0197 C   0  0  0  0  0  0  0  0  0  0  0  0
    9.8893   -4.8198   23.9643 C   0  0  2  0  0  0  0  0  0  0  0  0
   10.5957   -2.7340   22.6635 N   0  0  0  0  0  0  0  0  0  0  0  0
    9.4904   -1.2091   23.9620 N   0  0  0  0  0  0  0  0  0  0  0  0
    8.1277   -5.3007   25.5286 N   0  3  0  0  0  0  0  0  0  0  0  0
    9.2767   -2.5011   24.4588 O   0  0  0  0  0  0  0  0  0  0  0  0
    7.7603   -4.5081   26.0738 H   0  0  0  0  0  0  0  0  0  0  0  0
    7.8547   -6.1535   26.0370 H   0  0  0  0  0  0  0  0  0  0  0  0
  1  8  1  0  0  0  0
  1 10  1  0  0  0  0
  1 11  2  0  0  0  0
  2  9  1  0  0  0  0
  2 10  2  0  0  0  0
  2 13  1  0  0  0  0
  3  4  1  0  0  0  0
  3  8  1  0  0  0  0
  4  8  1  0  0  0  0
  5  6  1  0  0  0  0
  5  9  1  0  0  0  0
  6 12  1  0  0  0  0
  7  9  1  0  0  0  0
  7 12  1  0  0  0  0
 11 13  1  0  0  0  0
 12 14  1  0  0  0  0
 12 15  1  0  0  0  0
M  CHG  1  12   1
M  END
> <ref_mols>
x0203_0

> <original SMILES>
C1CC1C2=NOC(=N2)C3CCNC3

> <Chemgauss4>
-7.404920

> <ref_pdb>
x1077_0

$$$$
x1201
  -OEChem-05172015543D

 15 15  0     1  0  0  0  0  0999 V2000
   11.5037    1.0677   24.0430 C   0  0  0  0  0  0  0  0  0  0  0  0
   13.2867    1.3764   22.4423 C   0  0  0  0  0  0  0  0  0  0  0  0
   12.0620   -0.1505   24.4301 C   0  0  0  0  0  0  0  0  0  0  0  0
   13.8451    0.1582   22.8294 C   0  0  0  0  0  0  0  0  0  0  0  0
   12.1160    1.8311   23.0491 C   0  0  0  0  0  0  0  0  0  0  0  0
   13.2327   -0.6053   23.8233 C   0  0  0  0  0  0  0  0  0  0  0  0
    9.9679    4.3782   23.8328 C   0  0  0  0  0  0  0  0  0  0  0  0
   12.2509    5.2363   23.2455 C   0  0  0  0  0  0  0  0  0  0  0  0
   11.4370    4.0243   23.6694 C   0  0  2  0  0  0  0  0  0  0  0  0
    9.2525    4.2822   22.6596 N   0  0  0  0  0  0  0  0  0  0  0  0
    9.4768    4.7331   24.9015 O   0  0  0  0  0  0  0  0  0  0  0  0
   11.5665    3.0293   22.6678 O   0  0  0  0  0  0  0  0  0  0  0  0
   13.9210   -2.1089   24.2997 Cl  0  0  0  0  0  0  0  0  0  0  0  0
    9.7244    3.9971   21.8075 H   0  0  0  0  0  0  0  0  0  0  0  0
    8.2601    4.4924   22.6356 H   0  0  0  0  0  0  0  0  0  0  0  0
  1  3  2  0  0  0  0
  1  5  1  0  0  0  0
  2  4  1  0  0  0  0
  2  5  2  0  0  0  0
  3  6  1  0  0  0  0
  4  6  2  0  0  0  0
  5 12  1  0  0  0  0
  6 13  1  0  0  0  0
  7  9  1  0  0  0  0
  7 10  1  0  0  0  0
  7 11  2  0  0  0  0
  8  9  1  0  0  0  0
  9 12  1  0  0  0  0
 10 14  1  0  0  0  0
 10 15  1  0  0  0  0
M  END
> <ref_mols>
x1201_0

> <original SMILES>
CC(OC=1C=CC(Cl)=CC1)C(=O)N

> <Chemgauss4>
-7.401634

> <ref_pdb>
x0161_0

$$$$
x0082
  -OEChem-05172015543D

 15 15  0     1  0  0  0  0  0999 V2000
   11.5037    1.0677   24.0430 C   0  0  0  0  0  0  0  0  0  0  0  0
   13.2867    1.3764   22.4423 C   0  0  0  0  0  0  0  0  0  0  0  0
   12.0620   -0.1505   24.4301 C   0  0  0  0  0  0  0  0  0  0  0  0
   13.8451    0.1582   22.8294 C   0  0  0  0  0  0  0  0  0  0  0  0
   12.1160    1.8311   23.0491 C   0  0  0  0  0  0  0  0  0  0  0  0
   13.2327   -0.6053   23.8233 C   0  0  0  0  0  0  0  0  0  0  0  0
    9.9679    4.3782   23.8328 C   0  0  0  0  0  0  0  0  0  0  0  0
   12.2509    5.2363   23.2455 C   0  0  0  0  0  0  0  0  0  0  0  0
   11.4370    4.0243   23.6694 C   0  0  2  0  0  0  0  0  0  0  0  0
    9.2525    4.2822   22.6596 N   0  0  0  0  0  0  0  0  0  0  0  0
    9.4768    4.7331   24.9015 O   0  0  0  0  0  0  0  0  0  0  0  0
   11.5665    3.0293   22.6678 O   0  0  0  0  0  0  0  0  0  0  0  0
   13.9210   -2.1089   24.2997 Cl  0  0  0  0  0  0  0  0  0  0  0  0
    9.7244    3.9971   21.8075 H   0  0  0  0  0  0  0  0  0  0  0  0
    8.2601    4.4924   22.6356 H   0  0  0  0  0  0  0  0  0  0  0  0
  1  3  2  0  0  0  0
  1  5  1  0  0  0  0
  2  4  1  0  0  0  0
  2  5  2  0  0  0  0
  3  6  1  0  0  0  0
  4  6  2  0  0  0  0
  5 12  1  0  0  0  0
  6 13  1  0  0  0  0
  7  9  1  0  0  0  0
  7 10  1  0  0  0  0
  7 11  2  0  0  0  0
  8  9  1  0  0  0  0
  9 12  1  0  0  0  0
 10 14  1  0  0  0  0
 10 15  1  0  0  0  0
M  END
> <ref_mols>
x0082_0

> <original SMILES>
CC(OC=1C=CC(Cl)=CC1)C(=O)N

> <Chemgauss4>
-7.401634

> <ref_pdb>
x0161_0

$$$$
x0206
  -OEChem-05172015543D

 16 16  0     1  0  0  0  0  0999 V2000
    6.8559   -5.4339   21.4412 C   0  0  0  0  0  0  0  0  0  0  0  0
   12.0588   -3.4555   25.1921 C   0  0  0  0  0  0  0  0  0  0  0  0
   11.8183   -1.0516   25.1695 C   0  0  0  0  0  0  0  0  0  0  0  0
   10.8542   -3.5824   24.5003 C   0  0  0  0  0  0  0  0  0  0  0  0
   10.6138   -1.1785   24.4777 C   0  0  0  0  0  0  0  0  0  0  0  0
   12.5408   -2.1900   25.5267 C   0  0  0  0  0  0  0  0  0  0  0  0
   10.1318   -2.4440   24.1431 C   0  0  0  0  0  0  0  0  0  0  0  0
   13.8283   -2.0540   26.2670 C   0  0  0  0  0  0  0  0  0  0  0  0
    7.7527   -4.2797   25.2732 C   0  0  0  0  0  0  0  0  0  0  0  0
    7.5067   -6.1812   22.5276 C   0  0  0  0  0  0  0  0  0  0  0  0
    8.5850   -5.3555   23.2212 C   0  0  0  0  0  0  0  0  0  0  0  0
    6.3411   -4.8460   20.5835 N   0  0  0  0  0  0  0  0  0  0  0  0
    8.0072   -4.1247   23.8184 N   0  0  2  0  0  0  0  0  0  0  0  0
    7.7268   -1.5442   23.7241 O   0  0  0  0  0  0  0  0  0  0  0  0
    8.9277   -2.6994   21.8513 O   0  0  0  0  0  0  0  0  0  0  0  0
    8.6035   -2.6049   23.2628 S   0  0  0  0  0  0  0  0  0  0  0  0
  1 10  1  0  0  0  0
  1 12  3  0  0  0  0
  2  4  2  0  0  0  0
  2  6  1  0  0  0  0
  3  5  1  0  0  0  0
  3  6  2  0  0  0  0
  4  7  1  0  0  0  0
  5  7  2  0  0  0  0
  6  8  1  0  0  0  0
  7 16  1  0  0  0  0
  9 13  1  0  0  0  0
 10 11  1  0  0  0  0
 11 13  1  0  0  0  0
 13 16  1  0  0  0  0
 14 16  2  0  0  0  0
 15 16  2  0  0  0  0
M  END
> <ref_mols>
x0206_0

> <original SMILES>
CN(CCC#N)S(=O)(=O)C=1C=CC(C)=CC1

> <Chemgauss4>
-7.400806

> <ref_pdb>
x0749_0

$$$$
x0882
  -OEChem-05172015543D

 15 16  0     1  0  0  0  0  0999 V2000
    5.3184    0.5283   19.6716 C   0  0  0  0  0  0  0  0  0  0  0  0
    6.1103   -0.0724   20.6439 C   0  0  0  0  0  0  0  0  0  0  0  0
    5.8397    0.6476   18.3933 C   0  0  0  0  0  0  0  0  0  0  0  0
    7.8101   -0.3625   19.0059 C   0  0  0  0  0  0  0  0  0  0  0  0
    7.3813   -0.5290   20.3129 C   0  0  0  0  0  0  0  0  0  0  0  0
    9.5318    0.9519   21.8011 C   0  0  0  0  0  0  0  0  0  0  0  0
    7.7253   -1.3206   22.7690 C   0  0  0  0  0  0  0  0  0  0  0  0
   10.0516   -1.1962   22.9085 C   0  0  0  0  0  0  0  0  0  0  0  0
    8.2662   -1.1870   21.3471 C   0  0  2  0  0  0  0  0  0  0  0  0
    9.6229   -0.5368   21.6087 C   0  0  1  0  0  0  0  0  0  0  0  0
    8.4666    2.6180   23.0946 C   0  0  0  0  0  0  0  0  0  0  0  0
    7.0695    0.2162   18.0342 N   0  0  0  0  0  0  0  0  0  0  0  0
   10.1642    1.7676   21.1441 O   0  0  0  0  0  0  0  0  0  0  0  0
    8.8562   -1.5477   23.6221 O   0  0  0  0  0  0  0  0  0  0  0  0
    8.6504    1.2289   22.8038 O   0  0  0  0  0  0  0  0  0  0  0  0
  1  2  1  0  0  0  0
  1  3  2  0  0  0  0
  2  5  2  0  0  0  0
  3 12  1  0  0  0  0
  4  5  1  0  0  0  0
  4 12  2  0  0  0  0
  5  9  1  0  0  0  0
  6 10  1  0  0  0  0
  6 13  2  0  0  0  0
  6 15  1  0  0  0  0
  7  9  1  0  0  0  0
  7 14  1  0  0  0  0
  8 10  1  0  0  0  0
  8 14  1  0  0  0  0
  9 10  1  0  0  0  0
 11 15  1  0  0  0  0
M  END
> <ref_mols>
x0882_0

> <original SMILES>
O=C([C@@H]1[C@H](C2=CN=CC=C2)COC1)OC

> <Chemgauss4>
-7.400062

> <ref_pdb>
x0107_0

$$$$
x0121
  -OEChem-05172015543D

 13 13  0     1  0  0  0  0  0999 V2000
   12.3840   -1.1231   21.7873 C   0  0  0  0  0  0  0  0  0  0  0  0
   11.9958    0.3298   23.6782 C   0  0  0  0  0  0  0  0  0  0  0  0
   13.5435   -1.6044   22.3951 C   0  0  0  0  0  0  0  0  0  0  0  0
   13.1553   -0.1515   24.2860 C   0  0  0  0  0  0  0  0  0  0  0  0
   11.6101   -0.1560   22.4288 C   0  0  0  0  0  0  0  0  0  0  0  0
   13.9292   -1.1186   23.6444 C   0  0  0  0  0  0  0  0  0  0  0  0
   10.6128    1.5840   20.8891 C   0  0  0  0  0  0  0  0  0  0  0  0
    8.4348   -0.1645   20.2896 C   0  0  0  0  0  0  0  0  0  0  0  0
   10.3698    0.3584   21.7799 C   0  0  1  0  0  0  0  0  0  0  0  0
    9.6638   -0.6704   20.9415 N   0  3  0  0  0  0  0  0  0  0  0  0
   15.0413   -1.5827   24.2294 F   0  0  0  0  0  0  0  0  0  0  0  0
    9.4377   -1.4707   21.5390 H   0  0  0  0  0  0  0  0  0  0  0  0
   10.3195   -1.0115   20.2327 H   0  0  0  0  0  0  0  0  0  0  0  0
  1  3  2  0  0  0  0
  1  5  1  0  0  0  0
  2  4  1  0  0  0  0
  2  5  2  0  0  0  0
  3  6  1  0  0  0  0
  4  6  2  0  0  0  0
  5  9  1  0  0  0  0
  6 11  1  0  0  0  0
  7  9  1  0  0  0  0
  8 10  1  0  0  0  0
  9 10  1  0  0  0  0
 10 12  1  0  0  0  0
 10 13  1  0  0  0  0
M  CHG  1  10   1
M  END
> <ref_mols>
x0121_0

> <original SMILES>
CNC(C)C=1C=CC(F)=CC1

> <Chemgauss4>
-7.399781

> <ref_pdb>
x0678_0

$$$$
x1170
  -OEChem-05172015543D

 13 13  0     1  0  0  0  0  0999 V2000
   12.3840   -1.1231   21.7873 C   0  0  0  0  0  0  0  0  0  0  0  0
   11.9958    0.3298   23.6782 C   0  0  0  0  0  0  0  0  0  0  0  0
   13.5435   -1.6044   22.3951 C   0  0  0  0  0  0  0  0  0  0  0  0
   13.1553   -0.1515   24.2860 C   0  0  0  0  0  0  0  0  0  0  0  0
   11.6101   -0.1560   22.4288 C   0  0  0  0  0  0  0  0  0  0  0  0
   13.9292   -1.1186   23.6444 C   0  0  0  0  0  0  0  0  0  0  0  0
   10.6128    1.5840   20.8891 C   0  0  0  0  0  0  0  0  0  0  0  0
    8.4348   -0.1645   20.2896 C   0  0  0  0  0  0  0  0  0  0  0  0
   10.3698    0.3584   21.7799 C   0  0  1  0  0  0  0  0  0  0  0  0
    9.6638   -0.6704   20.9415 N   0  3  0  0  0  0  0  0  0  0  0  0
   15.0413   -1.5827   24.2294 F   0  0  0  0  0  0  0  0  0  0  0  0
    9.4377   -1.4707   21.5390 H   0  0  0  0  0  0  0  0  0  0  0  0
   10.3195   -1.0115   20.2327 H   0  0  0  0  0  0  0  0  0  0  0  0
  1  3  2  0  0  0  0
  1  5  1  0  0  0  0
  2  4  1  0  0  0  0
  2  5  2  0  0  0  0
  3  6  1  0  0  0  0
  4  6  2  0  0  0  0
  5  9  1  0  0  0  0
  6 11  1  0  0  0  0
  7  9  1  0  0  0  0
  8 10  1  0  0  0  0
  9 10  1  0  0  0  0
 10 12  1  0  0  0  0
 10 13  1  0  0  0  0
M  CHG  1  10   1
M  END
> <ref_mols>
x1170_0

> <original SMILES>
CNC(C)C=1C=CC(F)=CC1

> <Chemgauss4>
-7.399781

> <ref_pdb>
x0678_0

$$$$
x0387
  -OEChem-05172015543D

 15 16  0     0  0  0  0  0  0999 V2000
   11.3874   -4.2088   25.4508 C   0  0  0  0  0  0  0  0  0  0  0  0
   12.1161   -3.1123   25.8561 C   0  0  0  0  0  0  0  0  0  0  0  0
   10.6492   -2.5937   23.9511 C   0  0  0  0  0  0  0  0  0  0  0  0
   10.5377   -3.9085   24.3472 C   0  0  0  0  0  0  0  0  0  0  0  0
    6.6266   -5.0972   24.6805 C   0  0  0  0  0  0  0  0  0  0  0  0
    7.0523   -6.3066   22.5043 C   0  0  0  0  0  0  0  0  0  0  0  0
    7.3672   -3.8789   24.1396 C   0  0  0  0  0  0  0  0  0  0  0  0
    7.7884   -5.0805   21.9759 C   0  0  0  0  0  0  0  0  0  0  0  0
    6.0148   -5.9443   23.5664 C   0  0  0  0  0  0  0  0  0  0  0  0
    9.6284   -4.9081   23.6952 C   0  0  0  0  0  0  0  0  0  0  0  0
    8.3911   -4.2845   23.1077 N   0  3  0  0  0  0  0  0  0  0  0  0
    4.9495   -5.2086   22.9674 O   0  0  0  0  0  0  0  0  0  0  0  0
   11.7748   -1.7278   24.9079 S   0  0  0  0  0  0  0  0  0  0  0  0
    8.7232   -3.3766   22.6686 H   0  0  0  0  0  0  0  0  0  0  0  0
    4.3036   -5.0321   23.6697 H   0  0  0  0  0  0  0  0  0  0  0  0
  1  2  2  0  0  0  0
  1  4  1  0  0  0  0
  2 13  1  0  0  0  0
  3  4  2  0  0  0  0
  3 13  1  0  0  0  0
  4 10  1  0  0  0  0
  5  7  1  0  0  0  0
  5  9  1  0  0  0  0
  6  8  1  0  0  0  0
  6  9  1  0  0  0  0
  7 11  1  0  0  0  0
  8 11  1  0  0  0  0
  9 12  1  0  0  0  0
 10 11  1  0  0  0  0
 11 14  1  0  0  0  0
 12 15  1  0  0  0  0
M  CHG  1  11   1
M  END
> <ref_mols>
x0387_0

> <original SMILES>
OC1CCN(CC=2C=CSC2)CC1

> <Chemgauss4>
-7.394868

> <ref_pdb>
x0749_0

$$$$
x1104
  -OEChem-05172015543D

 15 16  0     0  0  0  0  0  0999 V2000
    9.0564   -2.1263   21.5413 C   0  0  0  0  0  0  0  0  0  0  0  0
    9.9115   -2.0202   22.6127 C   0  0  0  0  0  0  0  0  0  0  0  0
   12.8863   -3.0264   24.9384 C   0  0  0  0  0  0  0  0  0  0  0  0
   12.4974   -0.6581   25.1442 C   0  0  0  0  0  0  0  0  0  0  0  0
   11.5751   -2.6193   24.8077 C   0  0  0  0  0  0  0  0  0  0  0  0
    8.7713   -3.9050   22.6751 C   0  0  0  0  0  0  0  0  0  0  0  0
    6.9826   -5.9160   21.9608 C   0  0  0  0  0  0  0  0  0  0  0  0
   10.3969   -3.5202   24.5538 C   0  0  0  0  0  0  0  0  0  0  0  0
    8.3493   -3.3017   21.5861 N   0  0  0  0  0  0  0  0  0  0  0  0
   11.3501   -1.2616   24.9258 N   0  0  0  0  0  0  0  0  0  0  0  0
    9.7173   -3.1667   23.3303 N   0  0  0  0  0  0  0  0  0  0  0  0
    9.2799   -6.4099   23.1239 O   0  0  0  0  0  0  0  0  0  0  0  0
    7.4506   -5.2940   24.4484 O   0  0  0  0  0  0  0  0  0  0  0  0
   13.8871   -1.6622   25.2189 S   0  0  0  0  0  0  0  0  0  0  0  0
    8.1762   -5.4652   23.1985 S   0  0  0  0  0  0  0  0  0  0  0  0
  1  2  2  0  0  0  0
  1  9  1  0  0  0  0
  2 11  1  0  0  0  0
  3  5  2  0  0  0  0
  3 14  1  0  0  0  0
  4 10  2  0  0  0  0
  4 14  1  0  0  0  0
  5  8  1  0  0  0  0
  5 10  1  0  0  0  0
  6  9  2  0  0  0  0
  6 11  1  0  0  0  0
  6 15  1  0  0  0  0
  7 15  1  0  0  0  0
  8 11  1  0  0  0  0
 12 15  2  0  0  0  0
 13 15  2  0  0  0  0
M  END
> <ref_mols>
x1104_0

> <original SMILES>
CS(=O)(=O)C1=NC=CN1CC2=CSC=N2

> <Chemgauss4>
-7.394627

> <ref_pdb>
x0749_0

$$$$
x0569
  -OEChem-05172015543D

 15 16  0     0  0  0  0  0  0999 V2000
    9.0564   -2.1263   21.5413 C   0  0  0  0  0  0  0  0  0  0  0  0
    9.9115   -2.0202   22.6127 C   0  0  0  0  0  0  0  0  0  0  0  0
   12.8863   -3.0264   24.9384 C   0  0  0  0  0  0  0  0  0  0  0  0
   12.4974   -0.6581   25.1442 C   0  0  0  0  0  0  0  0  0  0  0  0
   11.5751   -2.6193   24.8077 C   0  0  0  0  0  0  0  0  0  0  0  0
    8.7713   -3.9050   22.6751 C   0  0  0  0  0  0  0  0  0  0  0  0
    6.9826   -5.9160   21.9608 C   0  0  0  0  0  0  0  0  0  0  0  0
   10.3969   -3.5202   24.5538 C   0  0  0  0  0  0  0  0  0  0  0  0
    8.3493   -3.3017   21.5861 N   0  0  0  0  0  0  0  0  0  0  0  0
   11.3501   -1.2616   24.9258 N   0  0  0  0  0  0  0  0  0  0  0  0
    9.7173   -3.1667   23.3303 N   0  0  0  0  0  0  0  0  0  0  0  0
    9.2799   -6.4099   23.1239 O   0  0  0  0  0  0  0  0  0  0  0  0
    7.4506   -5.2940   24.4484 O   0  0  0  0  0  0  0  0  0  0  0  0
   13.8871   -1.6622   25.2189 S   0  0  0  0  0  0  0  0  0  0  0  0
    8.1762   -5.4652   23.1985 S   0  0  0  0  0  0  0  0  0  0  0  0
  1  2  2  0  0  0  0
  1  9  1  0  0  0  0
  2 11  1  0  0  0  0
  3  5  2  0  0  0  0
  3 14  1  0  0  0  0
  4 10  2  0  0  0  0
  4 14  1  0  0  0  0
  5  8  1  0  0  0  0
  5 10  1  0  0  0  0
  6  9  2  0  0  0  0
  6 11  1  0  0  0  0
  6 15  1  0  0  0  0
  7 15  1  0  0  0  0
  8 11  1  0  0  0  0
 12 15  2  0  0  0  0
 13 15  2  0  0  0  0
M  END
> <ref_mols>
x0569_0

> <original SMILES>
CS(=O)(=O)C1=NC=CN1CC2=CSC=N2

> <Chemgauss4>
-7.394627

> <ref_pdb>
x0749_0

$$$$
x1207
  -OEChem-05172015543D

 17 17  0     1  0  0  0  0  0999 V2000
   10.3592    4.2384   23.2555 C   0  0  0  0  0  0  0  0  0  0  0  0
   10.9011    5.5236   23.2422 C   0  0  0  0  0  0  0  0  0  0  0  0
   11.1894    3.1296   23.0910 C   0  0  0  0  0  0  0  0  0  0  0  0
   12.2733    5.7000   23.0643 C   0  0  0  0  0  0  0  0  0  0  0  0
   12.5616    3.3061   22.9132 C   0  0  0  0  0  0  0  0  0  0  0  0
   13.1035    4.5913   22.8998 C   0  0  0  0  0  0  0  0  0  0  0  0
   13.4182    2.1047   22.7402 C   0  0  0  0  0  0  0  0  0  0  0  0
   13.7926   -2.6991   24.1357 C   0  0  0  0  0  0  0  0  0  0  0  0
   13.9058   -0.7119   21.8687 C   0  0  0  0  0  0  0  0  0  0  0  0
   13.0117   -1.3912   24.1229 C   0  0  0  0  0  0  0  0  0  0  0  0
   13.7162   -0.2889   23.3217 C   0  0  2  0  0  0  0  0  0  0  0  0
   14.4902    4.7920   22.7191 N   0  0  0  0  0  0  0  0  0  0  0  0
   12.9804    0.9528   23.3752 N   0  0  0  0  0  0  0  0  0  0  0  0
   14.4506    2.1938   22.0808 O   0  0  0  0  0  0  0  0  0  0  0  0
   14.8428    5.7250   22.6654 H   0  0  0  0  0  0  0  0  0  0  0  0
   15.0776    4.0011   22.5543 H   0  0  0  0  0  0  0  0  0  0  0  0
   12.1478    0.9723   23.9558 H   0  0  0  0  0  0  0  0  0  0  0  0
  1  2  1  0  0  0  0
  1  3  2  0  0  0  0
  2  4  2  0  0  0  0
  3  5  1  0  0  0  0
  4  6  1  0  0  0  0
  5  6  2  0  0  0  0
  5  7  1  0  0  0  0
  6 12  1  0  0  0  0
  7 13  1  0  0  0  0
  7 14  2  0  0  0  0
  8 10  1  0  0  0  0
  9 11  1  0  0  0  0
 10 11  1  0  0  0  0
 11 13  1  0  0  0  0
 12 15  1  0  0  0  0
 12 16  1  0  0  0  0
 13 17  1  0  0  0  0
M  END
> <ref_mols>
x1207_0

> <original SMILES>
CCC(C)NC(=O)C=1C=CC=CC1N

> <Chemgauss4>
-7.389420

> <ref_pdb>
x0161_0

$$$$
x0599
  -OEChem-05172015543D

 17 17  0     1  0  0  0  0  0999 V2000
   10.3592    4.2384   23.2555 C   0  0  0  0  0  0  0  0  0  0  0  0
   10.9011    5.5236   23.2422 C   0  0  0  0  0  0  0  0  0  0  0  0
   11.1894    3.1296   23.0910 C   0  0  0  0  0  0  0  0  0  0  0  0
   12.2733    5.7000   23.0643 C   0  0  0  0  0  0  0  0  0  0  0  0
   12.5616    3.3061   22.9132 C   0  0  0  0  0  0  0  0  0  0  0  0
   13.1035    4.5913   22.8998 C   0  0  0  0  0  0  0  0  0  0  0  0
   13.4182    2.1047   22.7402 C   0  0  0  0  0  0  0  0  0  0  0  0
   13.7926   -2.6991   24.1357 C   0  0  0  0  0  0  0  0  0  0  0  0
   13.9058   -0.7119   21.8687 C   0  0  0  0  0  0  0  0  0  0  0  0
   13.0117   -1.3912   24.1229 C   0  0  0  0  0  0  0  0  0  0  0  0
   13.7162   -0.2889   23.3217 C   0  0  2  0  0  0  0  0  0  0  0  0
   14.4902    4.7920   22.7191 N   0  0  0  0  0  0  0  0  0  0  0  0
   12.9804    0.9528   23.3752 N   0  0  0  0  0  0  0  0  0  0  0  0
   14.4506    2.1938   22.0808 O   0  0  0  0  0  0  0  0  0  0  0  0
   14.8428    5.7250   22.6654 H   0  0  0  0  0  0  0  0  0  0  0  0
   15.0776    4.0011   22.5543 H   0  0  0  0  0  0  0  0  0  0  0  0
   12.1478    0.9723   23.9558 H   0  0  0  0  0  0  0  0  0  0  0  0
  1  2  1  0  0  0  0
  1  3  2  0  0  0  0
  2  4  2  0  0  0  0
  3  5  1  0  0  0  0
  4  6  1  0  0  0  0
  5  6  2  0  0  0  0
  5  7  1  0  0  0  0
  6 12  1  0  0  0  0
  7 13  1  0  0  0  0
  7 14  2  0  0  0  0
  8 10  1  0  0  0  0
  9 11  1  0  0  0  0
 10 11  1  0  0  0  0
 11 13  1  0  0  0  0
 12 15  1  0  0  0  0
 12 16  1  0  0  0  0
 13 17  1  0  0  0  0
M  END
> <ref_mols>
x0599_0

> <original SMILES>
CCC(C)NC(=O)C=1C=CC=CC1N

> <Chemgauss4>
-7.389420

> <ref_pdb>
x0161_0

$$$$
x0338
  -OEChem-05172015543D

 15 15  0     0  0  0  0  0  0999 V2000
    6.7327   -4.8098   21.8336 C   0  0  0  0  0  0  0  0  0  0  0  0
   11.1274   -3.4142   24.8828 C   0  0  0  0  0  0  0  0  0  0  0  0
    8.1011   -5.0452   23.8818 C   0  0  0  0  0  0  0  0  0  0  0  0
    8.3829   -2.9986   22.5199 C   0  0  0  0  0  0  0  0  0  0  0  0
    9.6177   -5.1697   23.9983 C   0  0  0  0  0  0  0  0  0  0  0  0
    9.8986   -3.1409   22.6408 C   0  0  0  0  0  0  0  0  0  0  0  0
    6.5936   -6.3103   21.7819 C   0  0  0  0  0  0  0  0  0  0  0  0
   13.9753   -2.1062   25.4640 C   0  0  0  0  0  0  0  0  0  0  0  0
   12.5973   -1.5665   25.6448 C   0  0  0  0  0  0  0  0  0  0  0  0
    7.7226   -4.3035   22.6750 N   0  0  0  0  0  0  0  0  0  0  0  0
   10.2488   -3.8521   23.8797 N   0  0  0  0  0  0  0  0  0  0  0  0
   11.6785   -2.1528   24.6945 N   0  0  0  0  0  0  0  0  0  0  0  0
    5.9819   -4.1102   21.1489 O   0  0  0  0  0  0  0  0  0  0  0  0
   11.3989   -4.0965   25.8767 O   0  0  0  0  0  0  0  0  0  0  0  0
   11.4300   -1.6264   23.8665 H   0  0  0  0  0  0  0  0  0  0  0  0
  1  7  1  0  0  0  0
  1 10  1  0  0  0  0
  1 13  2  0  0  0  0
  2 11  1  0  0  0  0
  2 12  1  0  0  0  0
  2 14  2  0  0  0  0
  3  5  1  0  0  0  0
  3 10  1  0  0  0  0
  4  6  1  0  0  0  0
  4 10  1  0  0  0  0
  5 11  1  0  0  0  0
  6 11  1  0  0  0  0
  8  9  1  0  0  0  0
  9 12  1  0  0  0  0
 12 15  1  0  0  0  0
M  END
> <ref_mols>
x0338_0

> <original SMILES>
CCNC(=O)N1CCN(CC1)C(=O)C

> <Chemgauss4>
-7.388501

> <ref_pdb>
x0749_0

$$$$
x0978
  -OEChem-05172015543D

 18 17  0     1  0  0  0  0  0999 V2000
   11.7517    0.1739   23.0032 C   0  0  0  0  0  0  0  0  0  0  0  0
   11.5822    1.2584   23.4897 C   0  0  0  0  0  0  0  0  0  0  0  0
    6.5077   -3.8201   21.7498 C   0  0  0  0  0  0  0  0  0  0  0  0
    9.5718   -1.8172   22.4542 C   0  0  0  0  0  0  0  0  0  0  0  0
    5.7653   -4.6763   22.7214 C   0  0  0  0  0  0  0  0  0  0  0  0
    8.4359   -0.4538   19.7635 C   0  0  0  0  0  0  0  0  0  0  0  0
   11.9628   -1.1468   22.4119 C   0  0  0  0  0  0  0  0  0  0  0  0
    8.4442   -2.2754   21.5339 C   0  0  2  0  0  0  0  0  0  0  0  0
    7.6867   -1.0828   20.9320 C   0  0  1  0  0  0  0  0  0  0  0  0
   10.7625   -1.6259   21.7676 N   0  0  0  0  0  0  0  0  0  0  0  0
    7.5908   -3.1518   22.2948 N   0  0  0  0  0  0  0  0  0  0  0  0
    6.1330   -3.7642   20.5844 O   0  0  0  0  0  0  0  0  0  0  0  0
    9.4130   -1.6053   23.6547 O   0  0  0  0  0  0  0  0  0  0  0  0
    7.4807   -0.0688   21.9144 O   0  0  0  0  0  0  0  0  0  0  0  0
   11.3140    2.9748   24.2594 Br  0  0  0  0  0  0  0  0  0  0  0  0
   10.7909   -1.8308   20.7731 H   0  0  0  0  0  0  0  0  0  0  0  0
    7.7944   -3.2866   23.2828 H   0  0  0  0  0  0  0  0  0  0  0  0
    6.9584    0.6264   21.4861 H   0  0  0  0  0  0  0  0  0  0  0  0
  1  2  3  0  0  0  0
  1  7  1  0  0  0  0
  2 15  1  0  0  0  0
  3  5  1  0  0  0  0
  3 11  1  0  0  0  0
  3 12  2  0  0  0  0
  4  8  1  0  0  0  0
  4 10  1  0  0  0  0
  4 13  2  0  0  0  0
  6  9  1  0  0  0  0
  7 10  1  0  0  0  0
  8  9  1  0  0  0  0
  8 11  1  0  0  0  0
  9 14  1  0  0  0  0
 10 16  1  0  0  0  0
 11 17  1  0  0  0  0
 14 18  1  0  0  0  0
M  END
> <ref_mols>
x0978_0

> <original SMILES>
C[C@H](O)[C@H](NC(=O)C)C(=O)NCC#CBr

> <Chemgauss4>
-7.387796

> <ref_pdb>
x1386_0

$$$$
x0325
  -OEChem-05172015543D

 14 14  0     0  0  0  0  0  0999 V2000
   14.0263    0.6591   22.6865 C   0  0  0  0  0  0  0  0  0  0  0  0
   12.9891    1.6017   22.5544 C   0  0  0  0  0  0  0  0  0  0  0  0
   13.4014   -0.5581   22.5667 C   0  0  0  0  0  0  0  0  0  0  0  0
   13.1013    3.0821   22.6086 C   0  0  0  0  0  0  0  0  0  0  0  0
   13.9369   -1.9309   22.6153 C   0  0  0  0  0  0  0  0  0  0  0  0
   12.4756    5.6324   24.5325 C   0  0  0  0  0  0  0  0  0  0  0  0
   10.4967    5.6493   22.9737 C   0  0  0  0  0  0  0  0  0  0  0  0
   11.0098   -1.2353   22.1967 C   0  0  0  0  0  0  0  0  0  0  0  0
   11.9350    5.1966   23.1783 C   0  0  0  0  0  0  0  0  0  0  0  0
   11.7959    1.0322   22.3650 N   0  0  0  0  0  0  0  0  0  0  0  0
   12.0795   -0.2814   22.3771 N   0  0  0  0  0  0  0  0  0  0  0  0
   11.9905    3.7173   23.0863 N   0  0  0  0  0  0  0  0  0  0  0  0
   14.1338    3.6203   22.2176 O   0  0  0  0  0  0  0  0  0  0  0  0
   11.1469    3.2454   23.3350 H   0  0  0  0  0  0  0  0  0  0  0  0
  1  2  1  0  0  0  0
  1  3  2  0  0  0  0
  2  4  1  0  0  0  0
  2 10  2  0  0  0  0
  3  5  1  0  0  0  0
  3 11  1  0  0  0  0
  4 12  1  0  0  0  0
  4 13  2  0  0  0  0
  6  9  1  0  0  0  0
  7  9  1  0  0  0  0
  8 11  1  0  0  0  0
  9 12  1  0  0  0  0
 10 11  1  0  0  0  0
 12 14  1  0  0  0  0
M  END
> <ref_mols>
x0325_0

> <original SMILES>
CC(C)NC(=O)C=1C=C(C)N(C)N1

> <Chemgauss4>
-7.378558

> <ref_pdb>
x0195_0

$$$$
x2727
  -OEChem-05172015543D

 25 27  0     0  0  0  0  0  0999 V2000
    7.3419   -5.5696   28.9567 C   0  0  0  0  0  0  0  0  0  0  0  0
    6.3701   -4.5675   29.0288 C   0  0  0  0  0  0  0  0  0  0  0  0
    6.9150   -3.7976   26.7911 C   0  0  0  0  0  0  0  0  0  0  0  0
    9.5492   -6.2540   26.1681 C   0  0  0  0  0  0  0  0  0  0  0  0
    7.9006   -4.8001   26.6953 C   0  0  0  0  0  0  0  0  0  0  0  0
    8.0909   -5.6612   27.7782 C   0  0  0  0  0  0  0  0  0  0  0  0
    8.8274   -5.1861   25.6869 C   0  0  0  0  0  0  0  0  0  0  0  0
    6.1582   -3.6941   27.9639 C   0  0  0  0  0  0  0  0  0  0  0  0
    8.7907   -3.2778   24.0494 C   0  0  0  0  0  0  0  0  0  0  0  0
    6.0412   -1.7731   20.0201 C   0  0  0  0  0  0  0  0  0  0  0  0
    8.2378   -3.9895   21.7302 C   0  0  0  0  0  0  0  0  0  0  0  0
    8.9127   -1.5859   22.2103 C   0  0  0  0  0  0  0  0  0  0  0  0
    6.7909   -3.5144   21.6095 C   0  0  0  0  0  0  0  0  0  0  0  0
    7.4457   -1.1823   22.0558 C   0  0  0  0  0  0  0  0  0  0  0  0
    9.0922   -3.0579   22.5956 C   0  0  0  0  0  0  0  0  0  0  0  0
    6.0382   -0.3128   19.6437 C   0  0  0  0  0  0  0  0  0  0  0  0
    9.0976   -6.5334   27.4301 N   0  0  0  0  0  0  0  0  0  0  0  0
    6.7379   -2.1184   21.1773 N   0  0  0  0  0  0  0  0  0  0  0  0
    9.0037   -4.6022   24.4100 N   0  0  0  0  0  0  0  0  0  0  0  0
    8.4125   -2.3517   24.7595 O   0  0  0  0  0  0  0  0  0  0  0  0
    5.4434   -2.5811   19.3046 O   0  0  0  0  0  0  0  0  0  0  0  0
    7.4567   -0.0496   18.6357 Cl  0  0  0  0  0  0  0  0  0  0  0  0
    4.8324   -2.3514   28.1020 Br  0  0  0  0  0  0  0  0  0  0  0  0
    9.4518   -7.2724   28.0214 H   0  0  0  0  0  0  0  0  0  0  0  0
    9.3244   -5.2364   23.6812 H   0  0  0  0  0  0  0  0  0  0  0  0
  1  2  1  0  0  0  0
  1  6  2  0  0  0  0
  2  8  2  0  0  0  0
  3  5  2  0  0  0  0
  3  8  1  0  0  0  0
  4  7  2  0  0  0  0
  4 17  1  0  0  0  0
  5  6  1  0  0  0  0
  5  7  1  0  0  0  0
  6 17  1  0  0  0  0
  7 19  1  0  0  0  0
  8 23  1  0  0  0  0
  9 15  1  0  0  0  0
  9 19  1  0  0  0  0
  9 20  2  0  0  0  0
 10 16  1  0  0  0  0
 10 18  1  0  0  0  0
 10 21  2  0  0  0  0
 11 13  1  0  0  0  0
 11 15  1  0  0  0  0
 12 14  1  0  0  0  0
 12 15  1  0  0  0  0
 13 18  1  0  0  0  0
 14 18  1  0  0  0  0
 16 22  1  0  0  0  0
 17 24  1  0  0  0  0
 19 25  1  0  0  0  0
M  END
> <ref_mols>
x2727_0

> <original SMILES>
O=C(C1CCN(C(CCl)=O)CC1)NC2=CNC3=C2C=C(Br)C=C3

> <Chemgauss4>
-7.377210

> <ref_pdb>
x1334_0

> <CYS145-warhead dist minimum (A)>
3.121179

> <CYS145-warhead dist mean (A)>
3.575122

> <CYS145-warhead dist stddev (A)>
0.25529367

$$$$
x2053
  -OEChem-05172015543D

 25 27  0     0  0  0  0  0  0999 V2000
    7.3419   -5.5696   28.9567 C   0  0  0  0  0  0  0  0  0  0  0  0
    6.3701   -4.5675   29.0288 C   0  0  0  0  0  0  0  0  0  0  0  0
    6.9150   -3.7976   26.7911 C   0  0  0  0  0  0  0  0  0  0  0  0
    9.5492   -6.2540   26.1681 C   0  0  0  0  0  0  0  0  0  0  0  0
    7.9006   -4.8001   26.6953 C   0  0  0  0  0  0  0  0  0  0  0  0
    8.0909   -5.6612   27.7782 C   0  0  0  0  0  0  0  0  0  0  0  0
    8.8274   -5.1861   25.6869 C   0  0  0  0  0  0  0  0  0  0  0  0
    6.1582   -3.6941   27.9639 C   0  0  0  0  0  0  0  0  0  0  0  0
    8.7907   -3.2778   24.0494 C   0  0  0  0  0  0  0  0  0  0  0  0
    6.0412   -1.7731   20.0201 C   0  0  0  0  0  0  0  0  0  0  0  0
    8.2378   -3.9895   21.7302 C   0  0  0  0  0  0  0  0  0  0  0  0
    8.9127   -1.5859   22.2103 C   0  0  0  0  0  0  0  0  0  0  0  0
    6.7909   -3.5144   21.6095 C   0  0  0  0  0  0  0  0  0  0  0  0
    7.4457   -1.1823   22.0558 C   0  0  0  0  0  0  0  0  0  0  0  0
    9.0922   -3.0579   22.5956 C   0  0  0  0  0  0  0  0  0  0  0  0
    6.0382   -0.3128   19.6437 C   0  0  0  0  0  0  0  0  0  0  0  0
    9.0976   -6.5334   27.4301 N   0  0  0  0  0  0  0  0  0  0  0  0
    6.7379   -2.1184   21.1773 N   0  0  0  0  0  0  0  0  0  0  0  0
    9.0037   -4.6022   24.4100 N   0  0  0  0  0  0  0  0  0  0  0  0
    8.4125   -2.3517   24.7595 O   0  0  0  0  0  0  0  0  0  0  0  0
    5.4434   -2.5811   19.3046 O   0  0  0  0  0  0  0  0  0  0  0  0
    7.4567   -0.0496   18.6357 Cl  0  0  0  0  0  0  0  0  0  0  0  0
    4.8324   -2.3514   28.1020 Br  0  0  0  0  0  0  0  0  0  0  0  0
    9.4518   -7.2724   28.0214 H   0  0  0  0  0  0  0  0  0  0  0  0
    9.3244   -5.2364   23.6812 H   0  0  0  0  0  0  0  0  0  0  0  0
  1  2  1  0  0  0  0
  1  6  2  0  0  0  0
  2  8  2  0  0  0  0
  3  5  2  0  0  0  0
  3  8  1  0  0  0  0
  4  7  2  0  0  0  0
  4 17  1  0  0  0  0
  5  6  1  0  0  0  0
  5  7  1  0  0  0  0
  6 17  1  0  0  0  0
  7 19  1  0  0  0  0
  8 23  1  0  0  0  0
  9 15  1  0  0  0  0
  9 19  1  0  0  0  0
  9 20  2  0  0  0  0
 10 16  1  0  0  0  0
 10 18  1  0  0  0  0
 10 21  2  0  0  0  0
 11 13  1  0  0  0  0
 11 15  1  0  0  0  0
 12 14  1  0  0  0  0
 12 15  1  0  0  0  0
 13 18  1  0  0  0  0
 14 18  1  0  0  0  0
 16 22  1  0  0  0  0
 17 24  1  0  0  0  0
 19 25  1  0  0  0  0
M  END
> <ref_mols>
x2053_0

> <original SMILES>
O=C(C1CCN(C(CCl)=O)CC1)NC2=CNC3=C2C=C(Br)C=C3

> <Chemgauss4>
-7.377210

> <ref_pdb>
x1334_0

$$$$
x2758
  -OEChem-05172015543D

 25 27  0     0  0  0  0  0  0999 V2000
    7.3419   -5.5696   28.9567 C   0  0  0  0  0  0  0  0  0  0  0  0
    6.3701   -4.5675   29.0288 C   0  0  0  0  0  0  0  0  0  0  0  0
    6.9150   -3.7976   26.7911 C   0  0  0  0  0  0  0  0  0  0  0  0
    9.5492   -6.2540   26.1681 C   0  0  0  0  0  0  0  0  0  0  0  0
    7.9006   -4.8001   26.6953 C   0  0  0  0  0  0  0  0  0  0  0  0
    8.0909   -5.6612   27.7782 C   0  0  0  0  0  0  0  0  0  0  0  0
    8.8274   -5.1861   25.6869 C   0  0  0  0  0  0  0  0  0  0  0  0
    6.1582   -3.6941   27.9639 C   0  0  0  0  0  0  0  0  0  0  0  0
    8.7907   -3.2778   24.0494 C   0  0  0  0  0  0  0  0  0  0  0  0
    6.0412   -1.7731   20.0201 C   0  0  0  0  0  0  0  0  0  0  0  0
    8.2378   -3.9895   21.7302 C   0  0  0  0  0  0  0  0  0  0  0  0
    8.9127   -1.5859   22.2103 C   0  0  0  0  0  0  0  0  0  0  0  0
    6.7909   -3.5144   21.6095 C   0  0  0  0  0  0  0  0  0  0  0  0
    7.4457   -1.1823   22.0558 C   0  0  0  0  0  0  0  0  0  0  0  0
    9.0922   -3.0579   22.5956 C   0  0  0  0  0  0  0  0  0  0  0  0
    6.0382   -0.3128   19.6437 C   0  0  0  0  0  0  0  0  0  0  0  0
    9.0976   -6.5334   27.4301 N   0  0  0  0  0  0  0  0  0  0  0  0
    6.7379   -2.1184   21.1773 N   0  0  0  0  0  0  0  0  0  0  0  0
    9.0037   -4.6022   24.4100 N   0  0  0  0  0  0  0  0  0  0  0  0
    8.4125   -2.3517   24.7595 O   0  0  0  0  0  0  0  0  0  0  0  0
    5.4434   -2.5811   19.3046 O   0  0  0  0  0  0  0  0  0  0  0  0
    7.4567   -0.0496   18.6357 Cl  0  0  0  0  0  0  0  0  0  0  0  0
    4.8324   -2.3514   28.1020 Br  0  0  0  0  0  0  0  0  0  0  0  0
    9.4518   -7.2724   28.0214 H   0  0  0  0  0  0  0  0  0  0  0  0
    9.3244   -5.2364   23.6812 H   0  0  0  0  0  0  0  0  0  0  0  0
  1  2  1  0  0  0  0
  1  6  2  0  0  0  0
  2  8  2  0  0  0  0
  3  5  2  0  0  0  0
  3  8  1  0  0  0  0
  4  7  2  0  0  0  0
  4 17  1  0  0  0  0
  5  6  1  0  0  0  0
  5  7  1  0  0  0  0
  6 17  1  0  0  0  0
  7 19  1  0  0  0  0
  8 23  1  0  0  0  0
  9 15  1  0  0  0  0
  9 19  1  0  0  0  0
  9 20  2  0  0  0  0
 10 16  1  0  0  0  0
 10 18  1  0  0  0  0
 10 21  2  0  0  0  0
 11 13  1  0  0  0  0
 11 15  1  0  0  0  0
 12 14  1  0  0  0  0
 12 15  1  0  0  0  0
 13 18  1  0  0  0  0
 14 18  1  0  0  0  0
 16 22  1  0  0  0  0
 17 24  1  0  0  0  0
 19 25  1  0  0  0  0
M  END
> <ref_mols>
x2758_0

> <original SMILES>
O=C(C1CCN(C(CCl)=O)CC1)NC2=CNC3=C2C=C(Br)C=C3

> <Chemgauss4>
-7.377210

> <ref_pdb>
x1334_0

> <CYS145-warhead dist minimum (A)>
5.9381623

> <CYS145-warhead dist mean (A)>
7.423536

> <CYS145-warhead dist stddev (A)>
0.5294776

$$$$
x2769
  -OEChem-05172015543D

 25 27  0     0  0  0  0  0  0999 V2000
    7.3419   -5.5696   28.9567 C   0  0  0  0  0  0  0  0  0  0  0  0
    6.3701   -4.5675   29.0288 C   0  0  0  0  0  0  0  0  0  0  0  0
    6.9150   -3.7976   26.7911 C   0  0  0  0  0  0  0  0  0  0  0  0
    9.5492   -6.2540   26.1681 C   0  0  0  0  0  0  0  0  0  0  0  0
    7.9006   -4.8001   26.6953 C   0  0  0  0  0  0  0  0  0  0  0  0
    8.0909   -5.6612   27.7782 C   0  0  0  0  0  0  0  0  0  0  0  0
    8.8274   -5.1861   25.6869 C   0  0  0  0  0  0  0  0  0  0  0  0
    6.1582   -3.6941   27.9639 C   0  0  0  0  0  0  0  0  0  0  0  0
    8.7907   -3.2778   24.0494 C   0  0  0  0  0  0  0  0  0  0  0  0
    6.0412   -1.7731   20.0201 C   0  0  0  0  0  0  0  0  0  0  0  0
    8.2378   -3.9895   21.7302 C   0  0  0  0  0  0  0  0  0  0  0  0
    8.9127   -1.5859   22.2103 C   0  0  0  0  0  0  0  0  0  0  0  0
    6.7909   -3.5144   21.6095 C   0  0  0  0  0  0  0  0  0  0  0  0
    7.4457   -1.1823   22.0558 C   0  0  0  0  0  0  0  0  0  0  0  0
    9.0922   -3.0579   22.5956 C   0  0  0  0  0  0  0  0  0  0  0  0
    6.0382   -0.3128   19.6437 C   0  0  0  0  0  0  0  0  0  0  0  0
    9.0976   -6.5334   27.4301 N   0  0  0  0  0  0  0  0  0  0  0  0
    6.7379   -2.1184   21.1773 N   0  0  0  0  0  0  0  0  0  0  0  0
    9.0037   -4.6022   24.4100 N   0  0  0  0  0  0  0  0  0  0  0  0
    8.4125   -2.3517   24.7595 O   0  0  0  0  0  0  0  0  0  0  0  0
    5.4434   -2.5811   19.3046 O   0  0  0  0  0  0  0  0  0  0  0  0
    7.4567   -0.0496   18.6357 Cl  0  0  0  0  0  0  0  0  0  0  0  0
    4.8324   -2.3514   28.1020 Br  0  0  0  0  0  0  0  0  0  0  0  0
    9.4518   -7.2724   28.0214 H   0  0  0  0  0  0  0  0  0  0  0  0
    9.3244   -5.2364   23.6812 H   0  0  0  0  0  0  0  0  0  0  0  0
  1  2  1  0  0  0  0
  1  6  2  0  0  0  0
  2  8  2  0  0  0  0
  3  5  2  0  0  0  0
  3  8  1  0  0  0  0
  4  7  2  0  0  0  0
  4 17  1  0  0  0  0
  5  6  1  0  0  0  0
  5  7  1  0  0  0  0
  6 17  1  0  0  0  0
  7 19  1  0  0  0  0
  8 23  1  0  0  0  0
  9 15  1  0  0  0  0
  9 19  1  0  0  0  0
  9 20  2  0  0  0  0
 10 16  1  0  0  0  0
 10 18  1  0  0  0  0
 10 21  2  0  0  0  0
 11 13  1  0  0  0  0
 11 15  1  0  0  0  0
 12 14  1  0  0  0  0
 12 15  1  0  0  0  0
 13 18  1  0  0  0  0
 14 18  1  0  0  0  0
 16 22  1  0  0  0  0
 17 24  1  0  0  0  0
 19 25  1  0  0  0  0
M  END
> <ref_mols>
x2769_0

> <original SMILES>
O=C(C1CCN(C(CCl)=O)CC1)NC2=CNC3=C2C=C(Br)C=C3

> <Chemgauss4>
-7.377210

> <ref_pdb>
x1334_0

> <CYS145-warhead dist minimum (A)>
4.7779574

> <CYS145-warhead dist mean (A)>
7.192363

> <CYS145-warhead dist stddev (A)>
0.3681256

$$$$
x0954
  -OEChem-05172015543D

 10 10  0     0  0  0  0  0  0999 V2000
    5.9727    1.2278   17.9361 C   0  0  0  0  0  0  0  0  0  0  0  0
    5.4926   -0.2770   19.4659 C   0  0  0  0  0  0  0  0  0  0  0  0
    5.1743    1.0000   19.0730 C   0  0  0  0  0  0  0  0  0  0  0  0
    7.0666   -2.0127   18.5774 C   0  0  0  0  0  0  0  0  0  0  0  0
    7.2594   -2.5659   19.9829 C   0  0  0  0  0  0  0  0  0  0  0  0
    6.7406    0.1795   17.6270 N   0  0  0  0  0  0  0  0  0  0  0  0
    6.4262   -0.7192   18.5754 N   0  0  0  0  0  0  0  0  0  0  0  0
    5.9938   -2.7418   20.6063 O   0  0  0  0  0  0  0  0  0  0  0  0
    3.9700    2.1982   19.8337 Br  0  0  0  0  0  0  0  0  0  0  0  0
    6.1660   -3.0940   21.4944 H   0  0  0  0  0  0  0  0  0  0  0  0
  1  3  1  0  0  0  0
  1  6  2  0  0  0  0
  2  3  2  0  0  0  0
  2  7  1  0  0  0  0
  3  9  1  0  0  0  0
  4  5  1  0  0  0  0
  4  7  1  0  0  0  0
  5  8  1  0  0  0  0
  6  7  1  0  0  0  0
  8 10  1  0  0  0  0
M  END
> <ref_mols>
x0954_0

> <original SMILES>
BrC1=CN(CCO)N=C1

> <Chemgauss4>
-7.376765

> <ref_pdb>
x0397_0

$$$$
x1206
  -OEChem-05172015543D

 14 14  0     1  0  0  0  0  0999 V2000
   12.7691   -1.9256   22.7315 C   0  0  0  0  0  0  0  0  0  0  0  0
   13.9178   -1.4071   22.1338 C   0  0  0  0  0  0  0  0  0  0  0  0
   11.8854   -1.0763   23.3974 C   0  0  0  0  0  0  0  0  0  0  0  0
   14.1828   -0.0393   22.2020 C   0  0  0  0  0  0  0  0  0  0  0  0
   12.1504    0.2914   23.4657 C   0  0  0  0  0  0  0  0  0  0  0  0
   13.2991    0.8100   22.8680 C   0  0  0  0  0  0  0  0  0  0  0  0
   10.9961    5.5555   23.2298 C   0  0  0  0  0  0  0  0  0  0  0  0
   12.2971    3.1087   23.0093 C   0  0  0  0  0  0  0  0  0  0  0  0
   13.5820    2.2725   22.9416 C   0  0  2  0  0  0  0  0  0  0  0  0
   13.3366    5.1233   24.3106 O   0  0  0  0  0  0  0  0  0  0  0  0
   13.1611    5.2567   21.7960 O   0  0  0  0  0  0  0  0  0  0  0  0
   14.3359    2.6557   21.7840 O   0  0  0  0  0  0  0  0  0  0  0  0
   12.6189    4.8455   23.0790 S   0  0  0  0  0  0  0  0  0  0  0  0
   13.7823    2.4404   21.0205 H   0  0  0  0  0  0  0  0  0  0  0  0
  1  2  1  0  0  0  0
  1  3  2  0  0  0  0
  2  4  2  0  0  0  0
  3  5  1  0  0  0  0
  4  6  1  0  0  0  0
  5  6  2  0  0  0  0
  6  9  1  0  0  0  0
  7 13  1  0  0  0  0
  8  9  1  0  0  0  0
  8 13  1  0  0  0  0
  9 12  1  0  0  0  0
 10 13  2  0  0  0  0
 11 13  2  0  0  0  0
 12 14  1  0  0  0  0
M  END
> <ref_mols>
x1206_0

> <original SMILES>
CS(=O)(=O)CC(O)C=1C=CC=CC1

> <Chemgauss4>
-7.373852

> <ref_pdb>
x0195_0

$$$$
x0143
  -OEChem-05172015543D

 14 14  0     1  0  0  0  0  0999 V2000
   12.7691   -1.9256   22.7315 C   0  0  0  0  0  0  0  0  0  0  0  0
   13.9178   -1.4071   22.1338 C   0  0  0  0  0  0  0  0  0  0  0  0
   11.8854   -1.0763   23.3974 C   0  0  0  0  0  0  0  0  0  0  0  0
   14.1828   -0.0393   22.2020 C   0  0  0  0  0  0  0  0  0  0  0  0
   12.1504    0.2914   23.4657 C   0  0  0  0  0  0  0  0  0  0  0  0
   13.2991    0.8100   22.8680 C   0  0  0  0  0  0  0  0  0  0  0  0
   10.9961    5.5555   23.2298 C   0  0  0  0  0  0  0  0  0  0  0  0
   12.2971    3.1087   23.0093 C   0  0  0  0  0  0  0  0  0  0  0  0
   13.5820    2.2725   22.9416 C   0  0  2  0  0  0  0  0  0  0  0  0
   13.3366    5.1233   24.3106 O   0  0  0  0  0  0  0  0  0  0  0  0
   13.1611    5.2567   21.7960 O   0  0  0  0  0  0  0  0  0  0  0  0
   14.3359    2.6557   21.7840 O   0  0  0  0  0  0  0  0  0  0  0  0
   12.6189    4.8455   23.0790 S   0  0  0  0  0  0  0  0  0  0  0  0
   13.7823    2.4404   21.0205 H   0  0  0  0  0  0  0  0  0  0  0  0
  1  2  1  0  0  0  0
  1  3  2  0  0  0  0
  2  4  2  0  0  0  0
  3  5  1  0  0  0  0
  4  6  1  0  0  0  0
  5  6  2  0  0  0  0
  6  9  1  0  0  0  0
  7 13  1  0  0  0  0
  8  9  1  0  0  0  0
  8 13  1  0  0  0  0
  9 12  1  0  0  0  0
 10 13  2  0  0  0  0
 11 13  2  0  0  0  0
 12 14  1  0  0  0  0
M  END
> <ref_mols>
x0143_0

> <original SMILES>
CS(=O)(=O)CC(O)C=1C=CC=CC1

> <Chemgauss4>
-7.373852

> <ref_pdb>
x0195_0

$$$$
x0200
  -OEChem-05172015543D

 12 12  0     0  0  0  0  0  0999 V2000
    6.2694   -2.8645   19.4892 C   0  0  0  0  0  0  0  0  0  0  0  0
   11.5374    0.3567   22.1970 C   0  0  0  0  0  0  0  0  0  0  0  0
   10.4583    0.8776   21.2538 C   0  0  0  0  0  0  0  0  0  0  0  0
   11.7975   -1.1289   21.9718 C   0  0  0  0  0  0  0  0  0  0  0  0
    9.1820    0.0538   21.3478 C   0  0  0  0  0  0  0  0  0  0  0  0
   10.5165   -1.9456   22.0629 C   0  0  0  0  0  0  0  0  0  0  0  0
    7.5908   -2.1132   19.6905 C   0  0  0  0  0  0  0  0  0  0  0  0
    8.2583   -2.2433   21.0481 C   0  0  0  0  0  0  0  0  0  0  0  0
    9.5022   -1.3990   21.0863 N   0  3  0  0  0  0  0  0  0  0  0  0
    5.7713   -2.7337   18.3337 O   0  5  0  0  0  0  0  0  0  0  0  0
    5.8314   -3.5105   20.4801 O   0  0  0  0  0  0  0  0  0  0  0  0
    9.9206   -1.4556   20.1475 H   0  0  0  0  0  0  0  0  0  0  0  0
  1  7  1  0  0  0  0
  1 10  1  0  0  0  0
  1 11  2  0  0  0  0
  2  3  1  0  0  0  0
  2  4  1  0  0  0  0
  3  5  1  0  0  0  0
  4  6  1  0  0  0  0
  5  9  1  0  0  0  0
  6  9  1  0  0  0  0
  7  8  1  0  0  0  0
  8  9  1  0  0  0  0
  9 12  1  0  0  0  0
M  CHG  2   9   1  10  -1
M  END
> <ref_mols>
x0200_0

> <original SMILES>
OC(=O)CCN1CCCCC1

> <Chemgauss4>
-7.369176

> <ref_pdb>
x0708_0

$$$$
x0578
  -OEChem-05172015543D

 18 19  0     0  0  0  0  0  0999 V2000
    9.2837   -5.4894   25.0526 C   0  0  0  0  0  0  0  0  0  0  0  0
    8.9319   -4.2479   25.5823 C   0  0  0  0  0  0  0  0  0  0  0  0
    9.5280   -5.6205   23.6855 C   0  0  0  0  0  0  0  0  0  0  0  0
    8.8242   -3.1376   24.7449 C   0  0  0  0  0  0  0  0  0  0  0  0
    9.4204   -4.5101   22.8481 C   0  0  0  0  0  0  0  0  0  0  0  0
    9.0685   -3.2686   23.3778 C   0  0  0  0  0  0  0  0  0  0  0  0
    6.3290   -2.5943   22.1844 C   0  0  0  0  0  0  0  0  0  0  0  0
    4.6317   -7.4537   23.8744 C   0  0  0  0  0  0  0  0  0  0  0  0
    5.3745   -7.1542   22.5754 C   0  0  0  0  0  0  0  0  0  0  0  0
    3.7436   -6.2868   24.2972 C   0  0  0  0  0  0  0  0  0  0  0  0
    6.1664   -5.8509   22.6666 C   0  0  0  0  0  0  0  0  0  0  0  0
    4.5339   -4.9828   24.3911 C   0  0  0  0  0  0  0  0  0  0  0  0
    5.2685   -4.6798   23.0805 C   0  0  0  0  0  0  0  0  0  0  0  0
    7.1971   -1.4269   22.5911 C   0  0  0  0  0  0  0  0  0  0  0  0
    6.0709   -3.4672   23.2296 N   0  0  0  0  0  0  0  0  0  0  0  0
    5.9249   -2.7285   21.0306 O   0  0  0  0  0  0  0  0  0  0  0  0
    8.9314   -1.8616   22.3169 S   0  0  0  0  0  0  0  0  0  0  0  0
    6.4669   -3.2787   24.1463 H   0  0  0  0  0  0  0  0  0  0  0  0
  1  2  1  0  0  0  0
  1  3  2  0  0  0  0
  2  4  2  0  0  0  0
  3  5  1  0  0  0  0
  4  6  1  0  0  0  0
  5  6  2  0  0  0  0
  6 17  1  0  0  0  0
  7 14  1  0  0  0  0
  7 15  1  0  0  0  0
  7 16  2  0  0  0  0
  8  9  1  0  0  0  0
  8 10  1  0  0  0  0
  9 11  1  0  0  0  0
 10 12  1  0  0  0  0
 11 13  1  0  0  0  0
 12 13  1  0  0  0  0
 13 15  1  0  0  0  0
 14 17  1  0  0  0  0
 15 18  1  0  0  0  0
M  END
> <ref_mols>
x0578_0

> <original SMILES>
O=C(CSC=1C=CC=CC1)NC2CCCCC2

> <Chemgauss4>
-7.362150

> <ref_pdb>
x1311_0

$$$$
x2896
  -OEChem-05172015543D

 18 19  0     0  0  0  0  0  0999 V2000
    7.8625   -3.8198   23.7066 C   0  0  0  0  0  0  0  0  0  0  0  0
    9.1526   -3.5296   24.1219 C   0  0  0  0  0  0  0  0  0  0  0  0
    7.2744   -3.0687   22.6888 C   0  0  0  0  0  0  0  0  0  0  0  0
    9.8424   -2.4646   23.5455 C   0  0  0  0  0  0  0  0  0  0  0  0
    7.9717   -2.0300   22.0456 C   0  0  0  0  0  0  0  0  0  0  0  0
    9.2599   -1.6904   22.5249 C   0  0  0  0  0  0  0  0  0  0  0  0
    6.4003   -0.8670   17.8642 C   0  0  0  0  0  0  0  0  0  0  0  0
    5.8457   -0.8187   19.0772 C   0  0  0  0  0  0  0  0  0  0  0  0
    6.3366   -1.7401   20.1239 C   0  0  0  0  0  0  0  0  0  0  0  0
   11.3101   -0.3407   22.0623 C   0  0  0  0  0  0  0  0  0  0  0  0
    7.9994   -0.0380   20.5601 C   0  0  0  0  0  0  0  0  0  0  0  0
    9.0036    0.5165   21.5449 C   0  0  0  0  0  0  0  0  0  0  0  0
   13.4231   -1.4394   21.9742 C   0  0  0  0  0  0  0  0  0  0  0  0
    7.3930   -1.3107   20.9417 N   0  0  0  0  0  0  0  0  0  0  0  0
    9.9175   -0.5224   22.0206 N   0  0  0  0  0  0  0  0  0  0  0  0
    5.7088   -2.7877   20.2952 O   0  0  0  0  0  0  0  0  0  0  0  0
   11.8866    0.7318   22.2311 O   0  0  0  0  0  0  0  0  0  0  0  0
   11.9941   -1.5218   21.9178 O   0  0  0  0  0  0  0  0  0  0  0  0
  1  2  2  0  0  0  0
  1  3  1  0  0  0  0
  2  4  1  0  0  0  0
  3  5  2  0  0  0  0
  4  6  2  0  0  0  0
  5  6  1  0  0  0  0
  5 14  1  0  0  0  0
  6 15  1  0  0  0  0
  7  8  2  0  0  0  0
  8  9  1  0  0  0  0
  9 14  1  0  0  0  0
  9 16  2  0  0  0  0
 10 15  1  0  0  0  0
 10 17  2  0  0  0  0
 10 18  1  0  0  0  0
 11 12  1  0  0  0  0
 11 14  1  0  0  0  0
 12 15  1  0  0  0  0
 13 18  1  0  0  0  0
M  END
> <ref_mols>
x2896_0

> <original SMILES>
O=C(C=C)N(CCN1C(OC)=O)C2=C1C=CC=C2

> <Chemgauss4>
-7.361166

> <ref_pdb>
x0831_0

$$$$
x0795
  -OEChem-05172015543D

 17 18  0     0  0  0  0  0  0999 V2000
    7.0173   -6.2609   21.9605 C   0  0  0  0  0  0  0  0  0  0  0  0
    6.2935   -5.1044   21.6922 C   0  0  0  0  0  0  0  0  0  0  0  0
    8.2114   -6.2075   22.6839 C   0  0  0  0  0  0  0  0  0  0  0  0
    7.9514   -3.7792   22.8756 C   0  0  0  0  0  0  0  0  0  0  0  0
    6.7478   -3.8614   22.1424 C   0  0  0  0  0  0  0  0  0  0  0  0
    8.6618   -4.9556   23.1332 C   0  0  0  0  0  0  0  0  0  0  0  0
    9.6373   -2.9195   24.0094 C   0  0  0  0  0  0  0  0  0  0  0  0
   11.6849   -2.3970   25.3122 C   0  0  0  0  0  0  0  0  0  0  0  0
    6.3185   -2.0599   20.6505 C   0  0  0  0  0  0  0  0  0  0  0  0
   12.3665   -1.1961   25.9259 C   0  0  0  0  0  0  0  0  0  0  0  0
    8.5225   -2.6217   23.3840 N   0  0  0  0  0  0  0  0  0  0  0  0
   10.4936   -2.0611   24.6464 N   0  0  0  0  0  0  0  0  0  0  0  0
   12.1716   -3.5168   25.4427 O   0  0  0  0  0  0  0  0  0  0  0  0
    6.0135   -2.7395   21.8628 O   0  0  0  0  0  0  0  0  0  0  0  0
   10.0786   -4.5719   24.0378 S   0  0  0  0  0  0  0  0  0  0  0  0
   13.4722   -0.5258   24.7161 Cl  0  0  0  0  0  0  0  0  0  0  0  0
   10.2374   -1.0638   24.6365 H   0  0  0  0  0  0  0  0  0  0  0  0
  1  2  2  0  0  0  0
  1  3  1  0  0  0  0
  2  5  1  0  0  0  0
  3  6  2  0  0  0  0
  4  5  2  0  0  0  0
  4  6  1  0  0  0  0
  4 11  1  0  0  0  0
  5 14  1  0  0  0  0
  6 15  1  0  0  0  0
  7 11  2  0  0  0  0
  7 12  1  0  0  0  0
  7 15  1  0  0  0  0
  8 10  1  0  0  0  0
  8 12  1  0  0  0  0
  8 13  2  0  0  0  0
  9 14  1  0  0  0  0
 10 16  1  0  0  0  0
 12 17  1  0  0  0  0
M  END
> <ref_mols>
x0795_0

> <original SMILES>
COc1cccc2sc(NC(=O)CCl)nc12

> <Chemgauss4>
-7.360106

> <ref_pdb>
x0749_0

$$$$
x1475
  -OEChem-05172015543D

 17 18  0     0  0  0  0  0  0999 V2000
    7.0173   -6.2609   21.9605 C   0  0  0  0  0  0  0  0  0  0  0  0
    6.2935   -5.1044   21.6922 C   0  0  0  0  0  0  0  0  0  0  0  0
    8.2114   -6.2075   22.6839 C   0  0  0  0  0  0  0  0  0  0  0  0
    7.9514   -3.7792   22.8756 C   0  0  0  0  0  0  0  0  0  0  0  0
    6.7478   -3.8614   22.1424 C   0  0  0  0  0  0  0  0  0  0  0  0
    8.6618   -4.9556   23.1332 C   0  0  0  0  0  0  0  0  0  0  0  0
    9.6373   -2.9195   24.0094 C   0  0  0  0  0  0  0  0  0  0  0  0
   11.6849   -2.3970   25.3122 C   0  0  0  0  0  0  0  0  0  0  0  0
    6.3185   -2.0599   20.6505 C   0  0  0  0  0  0  0  0  0  0  0  0
   12.3665   -1.1961   25.9259 C   0  0  0  0  0  0  0  0  0  0  0  0
    8.5225   -2.6217   23.3840 N   0  0  0  0  0  0  0  0  0  0  0  0
   10.4936   -2.0611   24.6464 N   0  0  0  0  0  0  0  0  0  0  0  0
   12.1716   -3.5168   25.4427 O   0  0  0  0  0  0  0  0  0  0  0  0
    6.0135   -2.7395   21.8628 O   0  0  0  0  0  0  0  0  0  0  0  0
   10.0786   -4.5719   24.0378 S   0  0  0  0  0  0  0  0  0  0  0  0
   13.4722   -0.5258   24.7161 Cl  0  0  0  0  0  0  0  0  0  0  0  0
   10.2374   -1.0638   24.6365 H   0  0  0  0  0  0  0  0  0  0  0  0
  1  2  2  0  0  0  0
  1  3  1  0  0  0  0
  2  5  1  0  0  0  0
  3  6  2  0  0  0  0
  4  5  2  0  0  0  0
  4  6  1  0  0  0  0
  4 11  1  0  0  0  0
  5 14  1  0  0  0  0
  6 15  1  0  0  0  0
  7 11  2  0  0  0  0
  7 12  1  0  0  0  0
  7 15  1  0  0  0  0
  8 10  1  0  0  0  0
  8 12  1  0  0  0  0
  8 13  2  0  0  0  0
  9 14  1  0  0  0  0
 10 16  1  0  0  0  0
 12 17  1  0  0  0  0
M  END
> <ref_mols>
x1475_0

> <original SMILES>
COc1cccc2sc(NC(=O)CCl)nc12

> <Chemgauss4>
-7.360106

> <ref_pdb>
x0749_0

$$$$
x0721
  -OEChem-05172015543D

 17 18  0     0  0  0  0  0  0999 V2000
    7.0173   -6.2609   21.9605 C   0  0  0  0  0  0  0  0  0  0  0  0
    6.2935   -5.1044   21.6922 C   0  0  0  0  0  0  0  0  0  0  0  0
    8.2114   -6.2075   22.6839 C   0  0  0  0  0  0  0  0  0  0  0  0
    7.9514   -3.7792   22.8756 C   0  0  0  0  0  0  0  0  0  0  0  0
    6.7478   -3.8614   22.1424 C   0  0  0  0  0  0  0  0  0  0  0  0
    8.6618   -4.9556   23.1332 C   0  0  0  0  0  0  0  0  0  0  0  0
    9.6373   -2.9195   24.0094 C   0  0  0  0  0  0  0  0  0  0  0  0
   11.6849   -2.3970   25.3122 C   0  0  0  0  0  0  0  0  0  0  0  0
    6.3185   -2.0599   20.6505 C   0  0  0  0  0  0  0  0  0  0  0  0
   12.3665   -1.1961   25.9259 C   0  0  0  0  0  0  0  0  0  0  0  0
    8.5225   -2.6217   23.3840 N   0  0  0  0  0  0  0  0  0  0  0  0
   10.4936   -2.0611   24.6464 N   0  0  0  0  0  0  0  0  0  0  0  0
   12.1716   -3.5168   25.4427 O   0  0  0  0  0  0  0  0  0  0  0  0
    6.0135   -2.7395   21.8628 O   0  0  0  0  0  0  0  0  0  0  0  0
   10.0786   -4.5719   24.0378 S   0  0  0  0  0  0  0  0  0  0  0  0
   13.4722   -0.5258   24.7161 Cl  0  0  0  0  0  0  0  0  0  0  0  0
   10.2374   -1.0638   24.6365 H   0  0  0  0  0  0  0  0  0  0  0  0
  1  2  2  0  0  0  0
  1  3  1  0  0  0  0
  2  5  1  0  0  0  0
  3  6  2  0  0  0  0
  4  5  2  0  0  0  0
  4  6  1  0  0  0  0
  4 11  1  0  0  0  0
  5 14  1  0  0  0  0
  6 15  1  0  0  0  0
  7 11  2  0  0  0  0
  7 12  1  0  0  0  0
  7 15  1  0  0  0  0
  8 10  1  0  0  0  0
  8 12  1  0  0  0  0
  8 13  2  0  0  0  0
  9 14  1  0  0  0  0
 10 16  1  0  0  0  0
 12 17  1  0  0  0  0
M  END
> <ref_mols>
x0721_0

> <original SMILES>
COc1cccc2sc(NC(=O)CCl)nc12

> <Chemgauss4>
-7.360106

> <ref_pdb>
x0749_0

> <CYS145-warhead dist minimum (A)>
7.6606092

> <CYS145-warhead dist mean (A)>
8.911616

> <CYS145-warhead dist stddev (A)>
0.42935738

$$$$
x1396
  -OEChem-05172015543D

 17 18  0     0  0  0  0  0  0999 V2000
    7.0173   -6.2609   21.9605 C   0  0  0  0  0  0  0  0  0  0  0  0
    6.2935   -5.1044   21.6922 C   0  0  0  0  0  0  0  0  0  0  0  0
    8.2114   -6.2075   22.6839 C   0  0  0  0  0  0  0  0  0  0  0  0
    7.9514   -3.7792   22.8756 C   0  0  0  0  0  0  0  0  0  0  0  0
    6.7478   -3.8614   22.1424 C   0  0  0  0  0  0  0  0  0  0  0  0
    8.6618   -4.9556   23.1332 C   0  0  0  0  0  0  0  0  0  0  0  0
    9.6373   -2.9195   24.0094 C   0  0  0  0  0  0  0  0  0  0  0  0
   11.6849   -2.3970   25.3122 C   0  0  0  0  0  0  0  0  0  0  0  0
    6.3185   -2.0599   20.6505 C   0  0  0  0  0  0  0  0  0  0  0  0
   12.3665   -1.1961   25.9259 C   0  0  0  0  0  0  0  0  0  0  0  0
    8.5225   -2.6217   23.3840 N   0  0  0  0  0  0  0  0  0  0  0  0
   10.4936   -2.0611   24.6464 N   0  0  0  0  0  0  0  0  0  0  0  0
   12.1716   -3.5168   25.4427 O   0  0  0  0  0  0  0  0  0  0  0  0
    6.0135   -2.7395   21.8628 O   0  0  0  0  0  0  0  0  0  0  0  0
   10.0786   -4.5719   24.0378 S   0  0  0  0  0  0  0  0  0  0  0  0
   13.4722   -0.5258   24.7161 Cl  0  0  0  0  0  0  0  0  0  0  0  0
   10.2374   -1.0638   24.6365 H   0  0  0  0  0  0  0  0  0  0  0  0
  1  2  2  0  0  0  0
  1  3  1  0  0  0  0
  2  5  1  0  0  0  0
  3  6  2  0  0  0  0
  4  5  2  0  0  0  0
  4  6  1  0  0  0  0
  4 11  1  0  0  0  0
  5 14  1  0  0  0  0
  6 15  1  0  0  0  0
  7 11  2  0  0  0  0
  7 12  1  0  0  0  0
  7 15  1  0  0  0  0
  8 10  1  0  0  0  0
  8 12  1  0  0  0  0
  8 13  2  0  0  0  0
  9 14  1  0  0  0  0
 10 16  1  0  0  0  0
 12 17  1  0  0  0  0
M  END
> <ref_mols>
x1396_0

> <original SMILES>
COc1cccc2sc(NC(=O)CCl)nc12

> <Chemgauss4>
-7.360106

> <ref_pdb>
x0749_0

$$$$
x1449
  -OEChem-05172015543D

 17 18  0     0  0  0  0  0  0999 V2000
    7.0173   -6.2609   21.9605 C   0  0  0  0  0  0  0  0  0  0  0  0
    6.2935   -5.1044   21.6922 C   0  0  0  0  0  0  0  0  0  0  0  0
    8.2114   -6.2075   22.6839 C   0  0  0  0  0  0  0  0  0  0  0  0
    7.9514   -3.7792   22.8756 C   0  0  0  0  0  0  0  0  0  0  0  0
    6.7478   -3.8614   22.1424 C   0  0  0  0  0  0  0  0  0  0  0  0
    8.6618   -4.9556   23.1332 C   0  0  0  0  0  0  0  0  0  0  0  0
    9.6373   -2.9195   24.0094 C   0  0  0  0  0  0  0  0  0  0  0  0
   11.6849   -2.3970   25.3122 C   0  0  0  0  0  0  0  0  0  0  0  0
    6.3185   -2.0599   20.6505 C   0  0  0  0  0  0  0  0  0  0  0  0
   12.3665   -1.1961   25.9259 C   0  0  0  0  0  0  0  0  0  0  0  0
    8.5225   -2.6217   23.3840 N   0  0  0  0  0  0  0  0  0  0  0  0
   10.4936   -2.0611   24.6464 N   0  0  0  0  0  0  0  0  0  0  0  0
   12.1716   -3.5168   25.4427 O   0  0  0  0  0  0  0  0  0  0  0  0
    6.0135   -2.7395   21.8628 O   0  0  0  0  0  0  0  0  0  0  0  0
   10.0786   -4.5719   24.0378 S   0  0  0  0  0  0  0  0  0  0  0  0
   13.4722   -0.5258   24.7161 Cl  0  0  0  0  0  0  0  0  0  0  0  0
   10.2374   -1.0638   24.6365 H   0  0  0  0  0  0  0  0  0  0  0  0
  1  2  2  0  0  0  0
  1  3  1  0  0  0  0
  2  5  1  0  0  0  0
  3  6  2  0  0  0  0
  4  5  2  0  0  0  0
  4  6  1  0  0  0  0
  4 11  1  0  0  0  0
  5 14  1  0  0  0  0
  6 15  1  0  0  0  0
  7 11  2  0  0  0  0
  7 12  1  0  0  0  0
  7 15  1  0  0  0  0
  8 10  1  0  0  0  0
  8 12  1  0  0  0  0
  8 13  2  0  0  0  0
  9 14  1  0  0  0  0
 10 16  1  0  0  0  0
 12 17  1  0  0  0  0
M  END
> <ref_mols>
x1449_0

> <original SMILES>
COc1cccc2sc(NC(=O)CCl)nc12

> <Chemgauss4>
-7.360106

> <ref_pdb>
x0749_0

$$$$
x1310
  -OEChem-05172015543D

 17 18  0     0  0  0  0  0  0999 V2000
    7.0173   -6.2609   21.9605 C   0  0  0  0  0  0  0  0  0  0  0  0
    6.2935   -5.1044   21.6922 C   0  0  0  0  0  0  0  0  0  0  0  0
    8.2114   -6.2075   22.6839 C   0  0  0  0  0  0  0  0  0  0  0  0
    7.9514   -3.7792   22.8756 C   0  0  0  0  0  0  0  0  0  0  0  0
    6.7478   -3.8614   22.1424 C   0  0  0  0  0  0  0  0  0  0  0  0
    8.6618   -4.9556   23.1332 C   0  0  0  0  0  0  0  0  0  0  0  0
    9.6373   -2.9195   24.0094 C   0  0  0  0  0  0  0  0  0  0  0  0
   11.6849   -2.3970   25.3122 C   0  0  0  0  0  0  0  0  0  0  0  0
    6.3185   -2.0599   20.6505 C   0  0  0  0  0  0  0  0  0  0  0  0
   12.3665   -1.1961   25.9259 C   0  0  0  0  0  0  0  0  0  0  0  0
    8.5225   -2.6217   23.3840 N   0  0  0  0  0  0  0  0  0  0  0  0
   10.4936   -2.0611   24.6464 N   0  0  0  0  0  0  0  0  0  0  0  0
   12.1716   -3.5168   25.4427 O   0  0  0  0  0  0  0  0  0  0  0  0
    6.0135   -2.7395   21.8628 O   0  0  0  0  0  0  0  0  0  0  0  0
   10.0786   -4.5719   24.0378 S   0  0  0  0  0  0  0  0  0  0  0  0
   13.4722   -0.5258   24.7161 Cl  0  0  0  0  0  0  0  0  0  0  0  0
   10.2374   -1.0638   24.6365 H   0  0  0  0  0  0  0  0  0  0  0  0
  1  2  2  0  0  0  0
  1  3  1  0  0  0  0
  2  5  1  0  0  0  0
  3  6  2  0  0  0  0
  4  5  2  0  0  0  0
  4  6  1  0  0  0  0
  4 11  1  0  0  0  0
  5 14  1  0  0  0  0
  6 15  1  0  0  0  0
  7 11  2  0  0  0  0
  7 12  1  0  0  0  0
  7 15  1  0  0  0  0
  8 10  1  0  0  0  0
  8 12  1  0  0  0  0
  8 13  2  0  0  0  0
  9 14  1  0  0  0  0
 10 16  1  0  0  0  0
 12 17  1  0  0  0  0
M  END
> <ref_mols>
x1310_0

> <original SMILES>
COc1cccc2sc(NC(=O)CCl)nc12

> <Chemgauss4>
-7.360106

> <ref_pdb>
x0749_0

$$$$
x1348
  -OEChem-05172015543D

 17 18  0     0  0  0  0  0  0999 V2000
    7.0173   -6.2609   21.9605 C   0  0  0  0  0  0  0  0  0  0  0  0
    6.2935   -5.1044   21.6922 C   0  0  0  0  0  0  0  0  0  0  0  0
    8.2114   -6.2075   22.6839 C   0  0  0  0  0  0  0  0  0  0  0  0
    7.9514   -3.7792   22.8756 C   0  0  0  0  0  0  0  0  0  0  0  0
    6.7478   -3.8614   22.1424 C   0  0  0  0  0  0  0  0  0  0  0  0
    8.6618   -4.9556   23.1332 C   0  0  0  0  0  0  0  0  0  0  0  0
    9.6373   -2.9195   24.0094 C   0  0  0  0  0  0  0  0  0  0  0  0
   11.6849   -2.3970   25.3122 C   0  0  0  0  0  0  0  0  0  0  0  0
    6.3185   -2.0599   20.6505 C   0  0  0  0  0  0  0  0  0  0  0  0
   12.3665   -1.1961   25.9259 C   0  0  0  0  0  0  0  0  0  0  0  0
    8.5225   -2.6217   23.3840 N   0  0  0  0  0  0  0  0  0  0  0  0
   10.4936   -2.0611   24.6464 N   0  0  0  0  0  0  0  0  0  0  0  0
   12.1716   -3.5168   25.4427 O   0  0  0  0  0  0  0  0  0  0  0  0
    6.0135   -2.7395   21.8628 O   0  0  0  0  0  0  0  0  0  0  0  0
   10.0786   -4.5719   24.0378 S   0  0  0  0  0  0  0  0  0  0  0  0
   13.4722   -0.5258   24.7161 Cl  0  0  0  0  0  0  0  0  0  0  0  0
   10.2374   -1.0638   24.6365 H   0  0  0  0  0  0  0  0  0  0  0  0
  1  2  2  0  0  0  0
  1  3  1  0  0  0  0
  2  5  1  0  0  0  0
  3  6  2  0  0  0  0
  4  5  2  0  0  0  0
  4  6  1  0  0  0  0
  4 11  1  0  0  0  0
  5 14  1  0  0  0  0
  6 15  1  0  0  0  0
  7 11  2  0  0  0  0
  7 12  1  0  0  0  0
  7 15  1  0  0  0  0
  8 10  1  0  0  0  0
  8 12  1  0  0  0  0
  8 13  2  0  0  0  0
  9 14  1  0  0  0  0
 10 16  1  0  0  0  0
 12 17  1  0  0  0  0
M  END
> <ref_mols>
x1348_0

> <original SMILES>
COc1cccc2sc(NC(=O)CCl)nc12

> <Chemgauss4>
-7.360106

> <ref_pdb>
x0749_0

$$$$
x0931
  -OEChem-05172015543D

 18 20  0     1  0  0  0  0  0999 V2000
   13.4568    3.8893   22.2302 C   0  0  0  0  0  0  0  0  0  0  0  0
   11.4774    3.8643   23.5484 C   0  0  0  0  0  0  0  0  0  0  0  0
   13.5164    2.5051   22.3480 C   0  0  0  0  0  0  0  0  0  0  0  0
   12.4211    4.5893   22.8388 C   0  0  0  0  0  0  0  0  0  0  0  0
   12.5238    1.8734   23.0798 C   0  0  0  0  0  0  0  0  0  0  0  0
   13.9826   -1.5677   22.8801 C   0  0  0  0  0  0  0  0  0  0  0  0
   12.6405   -0.2105   24.6388 C   0  0  0  0  0  0  0  0  0  0  0  0
   13.0457   -1.3970   21.6766 C   0  0  0  0  0  0  0  0  0  0  0  0
   13.8055   -0.3339   23.7086 C   0  0  2  0  0  0  0  0  0  0  0  0
   12.5483    0.3656   23.2350 C   0  0  2  0  0  0  0  0  0  0  0  0
   14.6252    1.7528   21.6967 C   0  0  0  0  0  0  0  0  0  0  0  0
    9.7819   -0.7723   20.6518 C   0  0  0  0  0  0  0  0  0  0  0  0
   11.5021    2.5195   23.6850 N   0  0  0  0  0  0  0  0  0  0  0  0
   11.9846   -0.4214   22.0848 N   0  0  2  0  0  0  0  0  0  0  0  0
    9.6823   -0.0942   23.1732 O   0  0  0  0  0  0  0  0  0  0  0  0
   10.4499   -2.4233   22.5638 O   0  0  0  0  0  0  0  0  0  0  0  0
   12.3389    5.9210   22.7421 F   0  0  0  0  0  0  0  0  0  0  0  0
   10.4013   -0.9995   22.3000 S   0  0  0  0  0  0  0  0  0  0  0  0
  1  3  2  0  0  0  0
  1  4  1  0  0  0  0
  2  4  2  0  0  0  0
  2 13  1  0  0  0  0
  3  5  1  0  0  0  0
  3 11  1  0  0  0  0
  4 17  1  0  0  0  0
  5 10  1  0  0  0  0
  5 13  2  0  0  0  0
  6  8  1  0  0  0  0
  6  9  1  0  0  0  0
  7  9  1  0  0  0  0
  7 10  1  0  0  0  0
  8 14  1  0  0  0  0
  9 10  1  0  0  0  0
 10 14  1  0  0  0  0
 12 18  1  0  0  0  0
 14 18  1  0  0  0  0
 15 18  2  0  0  0  0
 16 18  2  0  0  0  0
M  END
> <ref_mols>
x0931_0

> <original SMILES>
CC(C=C(F)C=N1)=C1C23N(S(C)(=O)=O)CCC2C3

> <Chemgauss4>
-7.359055

> <ref_pdb>
x0195_0

$$$$
x0561
  -OEChem-05172015543D

 18 18  0     0  0  0  0  0  0999 V2000
    9.6088   -2.2251   22.7053 C   0  0  0  0  0  0  0  0  0  0  0  0
   10.1447   -4.0009   24.2534 C   0  0  0  0  0  0  0  0  0  0  0  0
    8.5180   -2.9596   22.2404 C   0  0  0  0  0  0  0  0  0  0  0  0
    9.0538   -4.7354   23.7885 C   0  0  0  0  0  0  0  0  0  0  0  0
   10.4223   -2.7458   23.7117 C   0  0  0  0  0  0  0  0  0  0  0  0
    8.2404   -4.2147   22.7820 C   0  0  0  0  0  0  0  0  0  0  0  0
   12.4377   -2.3650   25.1730 C   0  0  0  0  0  0  0  0  0  0  0  0
   14.4748   -1.6030   26.4672 C   0  0  0  0  0  0  0  0  0  0  0  0
   13.4766   -1.2715   25.3725 C   0  0  0  0  0  0  0  0  0  0  0  0
    6.2487   -4.0729   21.0163 N   0  0  0  0  0  0  0  0  0  0  0  0
   11.5134   -2.0112   24.1767 N   0  0  0  0  0  0  0  0  0  0  0  0
   12.4526   -3.4034   25.8257 O   0  0  0  0  0  0  0  0  0  0  0  0
    7.3757   -6.3316   21.5394 O   0  0  0  0  0  0  0  0  0  0  0  0
    5.9050   -5.2554   23.2792 O   0  0  0  0  0  0  0  0  0  0  0  0
    6.8752   -5.1342   22.1999 S   0  0  0  0  0  0  0  0  0  0  0  0
    6.3656   -4.3297   20.0285 H   0  0  0  0  0  0  0  0  0  0  0  0
    5.3626   -3.5942   21.2188 H   0  0  0  0  0  0  0  0  0  0  0  0
   11.6651   -1.0952   23.7386 H   0  0  0  0  0  0  0  0  0  0  0  0
  1  3  2  0  0  0  0
  1  5  1  0  0  0  0
  2  4  1  0  0  0  0
  2  5  2  0  0  0  0
  3  6  1  0  0  0  0
  4  6  2  0  0  0  0
  5 11  1  0  0  0  0
  6 15  1  0  0  0  0
  7  9  1  0  0  0  0
  7 11  1  0  0  0  0
  7 12  2  0  0  0  0
  8  9  1  0  0  0  0
 10 15  1  0  0  0  0
 13 15  2  0  0  0  0
 14 15  2  0  0  0  0
 10 16  1  0  0  0  0
 10 17  1  0  0  0  0
 11 18  1  0  0  0  0
M  END
> <ref_mols>
x0561_0

> <original SMILES>
CCC(=O)NC=1C=CC(=CC1)S(=O)(=O)N

> <Chemgauss4>
-7.355818

> <ref_pdb>
x0749_0

$$$$
x0942
  -OEChem-05172015543D

  9  9  0     0  0  0  0  0  0999 V2000
    4.5025    1.2239   18.7741 C   0  0  0  0  0  0  0  0  0  0  0  0
    6.3143    0.7477   20.2825 C   0  0  0  0  0  0  0  0  0  0  0  0
    5.3249    0.8065   17.7401 C   0  0  0  0  0  0  0  0  0  0  0  0
    5.0142    1.1909   20.0666 C   0  0  0  0  0  0  0  0  0  0  0  0
    7.0555    0.3513   19.1810 C   0  0  0  0  0  0  0  0  0  0  0  0
    8.8228   -0.1057   20.7053 C   0  0  0  0  0  0  0  0  0  0  0  0
    6.5928    0.3695   17.9109 N   0  0  0  0  0  0  0  0  0  0  0  0
    8.3398   -0.0891   19.3674 O   0  0  0  0  0  0  0  0  0  0  0  0
    3.9462    1.7459   21.5226 Br  0  0  0  0  0  0  0  0  0  0  0  0
  1  3  1  0  0  0  0
  1  4  2  0  0  0  0
  2  4  1  0  0  0  0
  2  5  2  0  0  0  0
  3  7  2  0  0  0  0
  4  9  1  0  0  0  0
  5  7  1  0  0  0  0
  5  8  1  0  0  0  0
  6  8  1  0  0  0  0
M  END
> <ref_mols>
x0942_0

> <original SMILES>
BrC1=CC(OC)=NC=C1

> <Chemgauss4>
-7.351359

> <ref_pdb>
x0540_0

$$$$
x0573
  -OEChem-05172015543D

 15 16  0     1  0  0  0  0  0999 V2000
    5.8959   -5.1960   24.9598 C   0  0  0  0  0  0  0  0  0  0  0  0
    6.7866   -5.2233   21.0494 C   0  0  0  0  0  0  0  0  0  0  0  0
    6.5014   -5.2177   23.6896 C   0  0  0  0  0  0  0  0  0  0  0  0
    5.4382   -5.1725   22.8049 C   0  0  0  0  0  0  0  0  0  0  0  0
    7.7786   -5.2679   23.1411 C   0  0  0  0  0  0  0  0  0  0  0  0
    8.5920   -3.2545   25.1978 C   0  0  0  0  0  0  0  0  0  0  0  0
   10.0674   -3.3459   23.1580 C   0  0  0  0  0  0  0  0  0  0  0  0
    2.9472   -5.0713   23.1047 C   0  0  0  0  0  0  0  0  0  0  0  0
    9.4644   -6.5885   24.3958 C   0  0  0  0  0  0  0  0  0  0  0  0
    9.5727   -4.0912   24.3889 C   0  0  0  0  0  0  0  0  0  0  0  0
    4.5610   -5.1419   24.8947 N   0  0  0  0  0  0  0  0  0  0  0  0
    5.5023   -5.1720   21.4640 N   0  0  0  0  0  0  0  0  0  0  0  0
    7.9172   -5.2706   21.7936 N   0  0  0  0  0  0  0  0  0  0  0  0
    4.3121   -5.1286   23.5719 N   0  0  0  0  0  0  0  0  0  0  0  0
    8.9168   -5.3150   23.9654 N   0  0  3  0  0  0  0  0  0  0  0  0
  1  3  1  0  0  0  0
  1 11  2  0  0  0  0
  2 12  1  0  0  0  0
  2 13  2  0  0  0  0
  3  4  1  0  0  0  0
  3  5  2  0  0  0  0
  4 12  2  0  0  0  0
  4 14  1  0  0  0  0
  5 13  1  0  0  0  0
  5 15  1  0  0  0  0
  6 10  1  0  0  0  0
  7 10  1  0  0  0  0
  8 14  1  0  0  0  0
  9 15  1  0  0  0  0
 10 15  1  0  0  0  0
 11 14  1  0  0  0  0
M  END
> <ref_mols>
x0573_0

> <original SMILES>
CC(C)N(C)C=1N=CN=C2N(C)N=CC12

> <Chemgauss4>
-7.350864

> <ref_pdb>
x1375_0

$$$$
x1101
  -OEChem-05172015543D

 15 16  0     1  0  0  0  0  0999 V2000
    5.8959   -5.1960   24.9598 C   0  0  0  0  0  0  0  0  0  0  0  0
    6.7866   -5.2233   21.0494 C   0  0  0  0  0  0  0  0  0  0  0  0
    6.5014   -5.2177   23.6896 C   0  0  0  0  0  0  0  0  0  0  0  0
    5.4382   -5.1725   22.8049 C   0  0  0  0  0  0  0  0  0  0  0  0
    7.7786   -5.2679   23.1411 C   0  0  0  0  0  0  0  0  0  0  0  0
    8.5920   -3.2545   25.1978 C   0  0  0  0  0  0  0  0  0  0  0  0
   10.0674   -3.3459   23.1580 C   0  0  0  0  0  0  0  0  0  0  0  0
    2.9472   -5.0713   23.1047 C   0  0  0  0  0  0  0  0  0  0  0  0
    9.4644   -6.5885   24.3958 C   0  0  0  0  0  0  0  0  0  0  0  0
    9.5727   -4.0912   24.3889 C   0  0  0  0  0  0  0  0  0  0  0  0
    4.5610   -5.1419   24.8947 N   0  0  0  0  0  0  0  0  0  0  0  0
    5.5023   -5.1720   21.4640 N   0  0  0  0  0  0  0  0  0  0  0  0
    7.9172   -5.2706   21.7936 N   0  0  0  0  0  0  0  0  0  0  0  0
    4.3121   -5.1286   23.5719 N   0  0  0  0  0  0  0  0  0  0  0  0
    8.9168   -5.3150   23.9654 N   0  0  3  0  0  0  0  0  0  0  0  0
  1  3  1  0  0  0  0
  1 11  2  0  0  0  0
  2 12  1  0  0  0  0
  2 13  2  0  0  0  0
  3  4  1  0  0  0  0
  3  5  2  0  0  0  0
  4 12  2  0  0  0  0
  4 14  1  0  0  0  0
  5 13  1  0  0  0  0
  5 15  1  0  0  0  0
  6 10  1  0  0  0  0
  7 10  1  0  0  0  0
  8 14  1  0  0  0  0
  9 15  1  0  0  0  0
 10 15  1  0  0  0  0
 11 14  1  0  0  0  0
M  END
> <ref_mols>
x1101_0

> <original SMILES>
CC(C)N(C)C=1N=CN=C2N(C)N=CC12

> <Chemgauss4>
-7.350864

> <ref_pdb>
x1375_0

$$$$
x0683
  -OEChem-05172015543D

 15 16  0     0  0  0  0  0  0999 V2000
   11.8246   -0.2464   23.7349 C   0  0  0  0  0  0  0  0  0  0  0  0
   13.8311    1.3551   22.5484 C   0  0  0  0  0  0  0  0  0  0  0  0
   11.7319    1.1471   23.7641 C   0  0  0  0  0  0  0  0  0  0  0  0
   12.7293    1.9433   23.1742 C   0  0  0  0  0  0  0  0  0  0  0  0
   12.9225   -0.8022   23.1108 C   0  0  0  0  0  0  0  0  0  0  0  0
   13.8988   -0.0229   22.5333 C   0  0  0  0  0  0  0  0  0  0  0  0
   13.5279    4.2745   22.6722 C   0  0  0  0  0  0  0  0  0  0  0  0
   14.4293   -2.1031   22.2628 C   0  0  0  0  0  0  0  0  0  0  0  0
   10.5507    1.7717   24.4353 C   0  0  0  0  0  0  0  0  0  0  0  0
   13.0631    5.6883   22.9158 C   0  0  0  0  0  0  0  0  0  0  0  0
   12.6347    3.3374   23.2044 N   0  0  0  0  0  0  0  0  0  0  0  0
   14.5728    4.0520   22.0691 O   0  0  0  0  0  0  0  0  0  0  0  0
   13.1807   -2.1323   22.9841 O   0  0  0  0  0  0  0  0  0  0  0  0
   14.8905   -0.7675   21.9730 O   0  0  0  0  0  0  0  0  0  0  0  0
   11.8093    3.7257   23.6731 H   0  0  0  0  0  0  0  0  0  0  0  0
  1  3  1  0  0  0  0
  1  5  2  0  0  0  0
  2  4  1  0  0  0  0
  2  6  2  0  0  0  0
  3  4  2  0  0  0  0
  3  9  1  0  0  0  0
  4 11  1  0  0  0  0
  5  6  1  0  0  0  0
  5 13  1  0  0  0  0
  6 14  1  0  0  0  0
  7 10  1  0  0  0  0
  7 11  1  0  0  0  0
  7 12  2  0  0  0  0
  8 13  1  0  0  0  0
  8 14  1  0  0  0  0
 11 15  1  0  0  0  0
M  END
> <ref_mols>
x0683_0

> <original SMILES>
CC(=O)NC=1C=C2OCOC2=CC1C

> <Chemgauss4>
-7.341823

> <ref_pdb>
x0195_0

$$$$
x2767
  -OEChem-05172015543D

 21 22  0     0  0  0  0  0  0999 V2000
   14.0005   -1.5694   26.0270 C   0  0  0  0  0  0  0  0  0  0  0  0
   12.0433   -1.8278   24.6534 C   0  0  0  0  0  0  0  0  0  0  0  0
   13.8257   -2.8837   26.4292 C   0  0  0  0  0  0  0  0  0  0  0  0
   13.0880   -1.0389   25.1219 C   0  0  0  0  0  0  0  0  0  0  0  0
   11.9562   -3.1306   25.1169 C   0  0  0  0  0  0  0  0  0  0  0  0
    9.8986   -3.5546   23.7345 C   0  0  0  0  0  0  0  0  0  0  0  0
    4.9232   -5.4813   22.5653 C   0  0  0  0  0  0  0  0  0  0  0  0
    7.8175   -4.6468   24.5003 C   0  0  0  0  0  0  0  0  0  0  0  0
    8.4044   -4.5965   22.0488 C   0  0  0  0  0  0  0  0  0  0  0  0
    6.7671   -5.7125   24.1990 C   0  0  0  0  0  0  0  0  0  0  0  0
    7.3413   -5.6639   21.7975 C   0  0  0  0  0  0  0  0  0  0  0  0
    8.9540   -4.6871   23.4750 C   0  0  0  0  0  0  0  0  0  0  0  0
   13.2296    0.3702   24.6561 C   0  0  0  0  0  0  0  0  0  0  0  0
    4.0103   -5.4799   23.7653 C   0  0  0  0  0  0  0  0  0  0  0  0
   12.8235   -3.6809   25.9960 N   0  0  0  0  0  0  0  0  0  0  0  0
    6.2891   -5.6000   22.8195 N   0  0  0  0  0  0  0  0  0  0  0  0
   10.8897   -3.9257   24.6343 N   0  0  0  0  0  0  0  0  0  0  0  0
    9.7475   -2.4709   23.1798 O   0  0  0  0  0  0  0  0  0  0  0  0
    4.4350   -5.3819   21.4368 O   0  0  0  0  0  0  0  0  0  0  0  0
    2.3724   -5.2833   23.1519 Cl  0  0  0  0  0  0  0  0  0  0  0  0
   10.8571   -4.8769   24.9952 H   0  0  0  0  0  0  0  0  0  0  0  0
  1  3  1  0  0  0  0
  1  4  2  0  0  0  0
  2  4  1  0  0  0  0
  2  5  2  0  0  0  0
  3 15  2  0  0  0  0
  4 13  1  0  0  0  0
  5 15  1  0  0  0  0
  5 17  1  0  0  0  0
  6 12  1  0  0  0  0
  6 17  1  0  0  0  0
  6 18  2  0  0  0  0
  7 14  1  0  0  0  0
  7 16  1  0  0  0  0
  7 19  2  0  0  0  0
  8 10  1  0  0  0  0
  8 12  1  0  0  0  0
  9 11  1  0  0  0  0
  9 12  1  0  0  0  0
 10 16  1  0  0  0  0
 11 16  1  0  0  0  0
 14 20  1  0  0  0  0
 17 21  1  0  0  0  0
M  END
> <ref_mols>
x2767_0

> <original SMILES>
O=C(C1CCN(C(CCl)=O)CC1)NC2=NC=CC(C)=C2

> <Chemgauss4>
-7.341500

> <ref_pdb>
x0749_0

> <CYS145-warhead dist minimum (A)>
9.213821

> <CYS145-warhead dist mean (A)>
12.732511

> <CYS145-warhead dist stddev (A)>
1.018311

$$$$
x2047
  -OEChem-05172015543D

 21 22  0     0  0  0  0  0  0999 V2000
   14.0005   -1.5694   26.0270 C   0  0  0  0  0  0  0  0  0  0  0  0
   12.0433   -1.8278   24.6534 C   0  0  0  0  0  0  0  0  0  0  0  0
   13.8257   -2.8837   26.4292 C   0  0  0  0  0  0  0  0  0  0  0  0
   13.0880   -1.0389   25.1219 C   0  0  0  0  0  0  0  0  0  0  0  0
   11.9562   -3.1306   25.1169 C   0  0  0  0  0  0  0  0  0  0  0  0
    9.8986   -3.5546   23.7345 C   0  0  0  0  0  0  0  0  0  0  0  0
    4.9232   -5.4813   22.5653 C   0  0  0  0  0  0  0  0  0  0  0  0
    7.8175   -4.6468   24.5003 C   0  0  0  0  0  0  0  0  0  0  0  0
    8.4044   -4.5965   22.0488 C   0  0  0  0  0  0  0  0  0  0  0  0
    6.7671   -5.7125   24.1990 C   0  0  0  0  0  0  0  0  0  0  0  0
    7.3413   -5.6639   21.7975 C   0  0  0  0  0  0  0  0  0  0  0  0
    8.9540   -4.6871   23.4750 C   0  0  0  0  0  0  0  0  0  0  0  0
   13.2296    0.3702   24.6561 C   0  0  0  0  0  0  0  0  0  0  0  0
    4.0103   -5.4799   23.7653 C   0  0  0  0  0  0  0  0  0  0  0  0
   12.8235   -3.6809   25.9960 N   0  0  0  0  0  0  0  0  0  0  0  0
    6.2891   -5.6000   22.8195 N   0  0  0  0  0  0  0  0  0  0  0  0
   10.8897   -3.9257   24.6343 N   0  0  0  0  0  0  0  0  0  0  0  0
    9.7475   -2.4709   23.1798 O   0  0  0  0  0  0  0  0  0  0  0  0
    4.4350   -5.3819   21.4368 O   0  0  0  0  0  0  0  0  0  0  0  0
    2.3724   -5.2833   23.1519 Cl  0  0  0  0  0  0  0  0  0  0  0  0
   10.8571   -4.8769   24.9952 H   0  0  0  0  0  0  0  0  0  0  0  0
  1  3  1  0  0  0  0
  1  4  2  0  0  0  0
  2  4  1  0  0  0  0
  2  5  2  0  0  0  0
  3 15  2  0  0  0  0
  4 13  1  0  0  0  0
  5 15  1  0  0  0  0
  5 17  1  0  0  0  0
  6 12  1  0  0  0  0
  6 17  1  0  0  0  0
  6 18  2  0  0  0  0
  7 14  1  0  0  0  0
  7 16  1  0  0  0  0
  7 19  2  0  0  0  0
  8 10  1  0  0  0  0
  8 12  1  0  0  0  0
  9 11  1  0  0  0  0
  9 12  1  0  0  0  0
 10 16  1  0  0  0  0
 11 16  1  0  0  0  0
 14 20  1  0  0  0  0
 17 21  1  0  0  0  0
M  END
> <ref_mols>
x2047_0

> <original SMILES>
O=C(C1CCN(C(CCl)=O)CC1)NC2=NC=CC(C)=C2

> <Chemgauss4>
-7.341500

> <ref_pdb>
x0749_0

> <CYS145-warhead dist minimum (A)>
12.092831

> <CYS145-warhead dist mean (A)>
13.43123

> <CYS145-warhead dist stddev (A)>
0.5646828

$$$$
x2872
  -OEChem-05172015543D

 15 15  0     0  0  0  0  0  0999 V2000
    7.7860   -2.4586   21.4262 C   0  0  0  0  0  0  0  0  0  0  0  0
    9.4042   -5.4520   23.9252 C   0  0  0  0  0  0  0  0  0  0  0  0
    8.3058   -5.7526   23.1199 C   0  0  0  0  0  0  0  0  0  0  0  0
    9.4124   -3.1922   23.0706 C   0  0  0  0  0  0  0  0  0  0  0  0
    8.3140   -3.4928   22.2652 C   0  0  0  0  0  0  0  0  0  0  0  0
    9.9576   -4.1718   23.9006 C   0  0  0  0  0  0  0  0  0  0  0  0
    7.7606   -4.7730   22.2899 C   0  0  0  0  0  0  0  0  0  0  0  0
   13.6407   -1.6770   26.0305 C   0  0  0  0  0  0  0  0  0  0  0  0
   12.8675   -2.7402   25.7886 C   0  0  0  0  0  0  0  0  0  0  0  0
   11.7413   -2.6537   24.8142 C   0  0  0  0  0  0  0  0  0  0  0  0
    7.3583   -1.6207   20.7467 N   0  0  0  0  0  0  0  0  0  0  0  0
   11.0570   -3.8722   24.7057 N   0  0  0  0  0  0  0  0  0  0  0  0
   11.4985   -1.6131   24.2146 O   0  0  0  0  0  0  0  0  0  0  0  0
    6.3997   -5.2008   21.3119 Cl  0  0  0  0  0  0  0  0  0  0  0  0
   11.4083   -4.6394   25.2914 H   0  0  0  0  0  0  0  0  0  0  0  0
  1  5  1  0  0  0  0
  1 11  3  0  0  0  0
  2  3  1  0  0  0  0
  2  6  2  0  0  0  0
  3  7  2  0  0  0  0
  4  5  2  0  0  0  0
  4  6  1  0  0  0  0
  5  7  1  0  0  0  0
  6 12  1  0  0  0  0
  7 14  1  0  0  0  0
  8  9  2  0  0  0  0
  9 10  1  0  0  0  0
 10 12  1  0  0  0  0
 10 13  2  0  0  0  0
 12 15  1  0  0  0  0
M  END
> <ref_mols>
x2872_0

> <original SMILES>
C=CC(Nc(cc1)cc(C#N)c1Cl)=O

> <Chemgauss4>
-7.340923

> <ref_pdb>
x0749_0

$$$$
x0579
  -OEChem-05172015543D

 17 18  0     0  0  0  0  0  0999 V2000
   10.3547    1.5157   24.1295 C   0  0  0  0  0  0  0  0  0  0  0  0
   10.4643    0.1529   23.8431 C   0  0  0  0  0  0  0  0  0  0  0  0
   12.4441    1.9721   22.9659 C   0  0  0  0  0  0  0  0  0  0  0  0
   11.3388    2.4202   23.6933 C   0  0  0  0  0  0  0  0  0  0  0  0
   11.5653   -0.2636   23.1233 C   0  0  0  0  0  0  0  0  0  0  0  0
   12.5286    0.6216   22.6963 C   0  0  0  0  0  0  0  0  0  0  0  0
   13.0830   -1.3657   22.0445 C   0  0  0  0  0  0  0  0  0  0  0  0
   10.8105    6.7961   25.1621 C   0  0  0  0  0  0  0  0  0  0  0  0
   11.2008    3.8715   24.0122 C   0  0  0  0  0  0  0  0  0  0  0  0
    9.6146    6.9180   24.2445 C   0  0  0  0  0  0  0  0  0  0  0  0
   10.2111    4.5202   23.1906 N   0  0  0  0  0  0  0  0  0  0  0  0
    8.5803    4.7096   25.1950 O   0  0  0  0  0  0  0  0  0  0  0  0
    7.8350    5.5339   22.9319 O   0  0  0  0  0  0  0  0  0  0  0  0
   11.8390   -1.5440   22.7522 O   0  0  0  0  0  0  0  0  0  0  0  0
   13.5261    0.0063   22.0047 O   0  0  0  0  0  0  0  0  0  0  0  0
    8.8773    5.3327   23.9201 S   0  0  0  0  0  0  0  0  0  0  0  0
   10.5707    4.9674   22.3206 H   0  0  0  0  0  0  0  0  0  0  0  0
  1  2  2  0  0  0  0
  1  4  1  0  0  0  0
  2  5  1  0  0  0  0
  3  4  2  0  0  0  0
  3  6  1  0  0  0  0
  4  9  1  0  0  0  0
  5  6  2  0  0  0  0
  5 14  1  0  0  0  0
  6 15  1  0  0  0  0
  7 14  1  0  0  0  0
  7 15  1  0  0  0  0
  8 10  1  0  0  0  0
  9 11  1  0  0  0  0
 10 16  1  0  0  0  0
 11 16  1  0  0  0  0
 12 16  2  0  0  0  0
 13 16  2  0  0  0  0
 11 17  1  0  0  0  0
M  END
> <ref_mols>
x0579_0

> <original SMILES>
CCS(=O)(=O)NCC=1C=CC=2OCOC2C1

> <Chemgauss4>
-7.333376

> <ref_pdb>
x0104_0

$$$$
x0611
  -OEChem-05172015543D

 20 21  0     0  0  0  0  0  0999 V2000
   10.2312    5.6088   24.2282 C   0  0  0  0  0  0  0  0  0  0  0  0
    9.6400    4.4065   24.6162 C   0  0  0  0  0  0  0  0  0  0  0  0
   14.1400   -1.8320   22.6774 C   0  0  0  0  0  0  0  0  0  0  0  0
   11.4773    5.6031   23.6013 C   0  0  0  0  0  0  0  0  0  0  0  0
   10.2950    3.1984   24.3775 C   0  0  0  0  0  0  0  0  0  0  0  0
   13.3596   -0.6605   22.5297 C   0  0  0  0  0  0  0  0  0  0  0  0
   14.1320   -2.1295   24.0203 C   0  0  0  0  0  0  0  0  0  0  0  0
   12.1323    4.3949   23.3626 C   0  0  0  0  0  0  0  0  0  0  0  0
   11.5412    3.1925   23.7507 C   0  0  0  0  0  0  0  0  0  0  0  0
   12.9302   -0.3258   23.7928 C   0  0  0  0  0  0  0  0  0  0  0  0
   13.4331    4.4240   22.7057 C   0  0  0  0  0  0  0  0  0  0  0  0
   12.0927    0.7845   24.2779 C   0  0  0  0  0  0  0  0  0  0  0  0
   14.6460    4.3472   20.5161 C   0  0  0  0  0  0  0  0  0  0  0  0
   12.1798    1.9703   23.5234 N   0  0  0  0  0  0  0  0  0  0  0  0
   13.4378    4.3530   21.3092 N   0  0  0  0  0  0  0  0  0  0  0  0
   14.4752    4.4882   23.3786 O   0  0  0  0  0  0  0  0  0  0  0  0
   11.4059    0.6635   25.2902 O   0  0  0  0  0  0  0  0  0  0  0  0
   13.3966   -1.2163   24.7072 O   0  0  0  0  0  0  0  0  0  0  0  0
   12.7908    1.9320   22.7008 H   0  0  0  0  0  0  0  0  0  0  0  0
   12.5598    4.2382   20.8136 H   0  0  0  0  0  0  0  0  0  0  0  0
  1  2  1  0  0  0  0
  1  4  2  0  0  0  0
  2  5  2  0  0  0  0
  3  6  1  0  0  0  0
  3  7  2  0  0  0  0
  4  8  1  0  0  0  0
  5  9  1  0  0  0  0
  6 10  2  0  0  0  0
  7 18  1  0  0  0  0
  8  9  2  0  0  0  0
  8 11  1  0  0  0  0
  9 14  1  0  0  0  0
 10 12  1  0  0  0  0
 10 18  1  0  0  0  0
 11 15  1  0  0  0  0
 11 16  2  0  0  0  0
 12 14  1  0  0  0  0
 12 17  2  0  0  0  0
 13 15  1  0  0  0  0
 14 19  1  0  0  0  0
 15 20  1  0  0  0  0
M  END
> <ref_mols>
x0611_0

> <original SMILES>
CNC(=O)C=1C=CC=CC1NC(=O)C2=CC=CO2

> <Chemgauss4>
-7.329142

> <ref_pdb>
x0161_0

$$$$
x0034
  -OEChem-05172015543D

 15 15  0     0  0  0  0  0  0999 V2000
   10.8791   -3.2528   24.6479 C   0  0  0  0  0  0  0  0  0  0  0  0
    8.9334   -6.1099   23.1532 C   0  0  0  0  0  0  0  0  0  0  0  0
    7.9868   -4.0583   24.2950 C   0  0  0  0  0  0  0  0  0  0  0  0
    7.6087   -6.3129   22.4202 C   0  0  0  0  0  0  0  0  0  0  0  0
    6.6624   -4.2608   23.5609 C   0  0  0  0  0  0  0  0  0  0  0  0
    9.1641   -4.6374   23.5046 C   0  0  0  0  0  0  0  0  0  0  0  0
    6.4453   -5.7333   23.2210 C   0  0  0  0  0  0  0  0  0  0  0  0
   12.1708   -3.3265   25.3925 C   0  0  0  0  0  0  0  0  0  0  0  0
   10.3972   -4.4801   24.2374 N   0  0  0  0  0  0  0  0  0  0  0  0
    5.1986   -5.8634   22.4207 N   0  3  0  0  0  0  0  0  0  0  0  0
   10.3524   -2.1627   24.4582 O   0  0  0  0  0  0  0  0  0  0  0  0
   10.9357   -5.3106   24.4616 H   0  0  0  0  0  0  0  0  0  0  0  0
    5.4177   -6.1151   21.4541 H   0  0  0  0  0  0  0  0  0  0  0  0
    4.6828   -4.9802   22.4154 H   0  0  0  0  0  0  0  0  0  0  0  0
    4.5940   -6.5883   22.8142 H   0  0  0  0  0  0  0  0  0  0  0  0
  1  8  1  0  0  0  0
  1  9  1  0  0  0  0
  1 11  2  0  0  0  0
  2  4  1  0  0  0  0
  2  6  1  0  0  0  0
  3  5  1  0  0  0  0
  3  6  1  0  0  0  0
  4  7  1  0  0  0  0
  5  7  1  0  0  0  0
  6  9  1  0  0  0  0
  7 10  1  0  0  0  0
  9 12  1  0  0  0  0
 10 13  1  0  0  0  0
 10 14  1  0  0  0  0
 10 15  1  0  0  0  0
M  CHG  1  10   1
M  END
> <ref_mols>
x0034_0

> <original SMILES>
CC(=O)NC1CCC(N)CC1

> <Chemgauss4>
-7.329035

> <ref_pdb>
x0749_0

$$$$
x0627
  -OEChem-05172015543D

 17 18  0     0  0  0  0  0  0999 V2000
   11.1159   -3.0713   24.8146 C   0  0  0  0  0  0  0  0  0  0  0  0
   13.7688   -0.9481   25.0129 C   0  0  0  0  0  0  0  0  0  0  0  0
   12.9972    0.2401   24.5214 C   0  0  0  0  0  0  0  0  0  0  0  0
    9.3761   -4.8046   24.6908 C   0  0  0  0  0  0  0  0  0  0  0  0
    9.2696   -2.7713   23.2187 C   0  0  0  0  0  0  0  0  0  0  0  0
    8.2881   -5.4551   23.8415 C   0  0  0  0  0  0  0  0  0  0  0  0
    8.1833   -3.4501   22.3896 C   0  0  0  0  0  0  0  0  0  0  0  0
   10.1828   -3.8041   23.8702 C   0  0  0  0  0  0  0  0  0  0  0  0
   12.2747   -0.9022   25.1814 C   0  0  0  0  0  0  0  0  0  0  0  0
    6.5797   -6.0598   21.3565 C   0  0  0  0  0  0  0  0  0  0  0  0
    7.4151   -4.3973   23.2511 N   0  0  0  0  0  0  0  0  0  0  0  0
   11.4079   -1.7779   24.4259 N   0  0  0  0  0  0  0  0  0  0  0  0
   11.5322   -3.6418   25.8161 O   0  0  0  0  0  0  0  0  0  0  0  0
    5.2895   -3.8555   21.9076 O   0  0  0  0  0  0  0  0  0  0  0  0
    5.2501   -5.7459   23.5839 O   0  0  0  0  0  0  0  0  0  0  0  0
    5.9367   -4.9555   22.5869 S   0  0  0  0  0  0  0  0  0  0  0  0
   10.9936   -1.4256   23.5681 H   0  0  0  0  0  0  0  0  0  0  0  0
  1  8  1  0  0  0  0
  1 12  1  0  0  0  0
  1 13  2  0  0  0  0
  2  3  1  0  0  0  0
  2  9  1  0  0  0  0
  3  9  1  0  0  0  0
  4  6  1  0  0  0  0
  4  8  1  0  0  0  0
  5  7  1  0  0  0  0
  5  8  1  0  0  0  0
  6 11  1  0  0  0  0
  7 11  1  0  0  0  0
  9 12  1  0  0  0  0
 10 16  1  0  0  0  0
 11 16  1  0  0  0  0
 14 16  2  0  0  0  0
 15 16  2  0  0  0  0
 12 17  1  0  0  0  0
M  END
> <ref_mols>
x0627_0

> <original SMILES>
CS(=O)(=O)N1CCC(CC1)C(=O)NC2CC2

> <Chemgauss4>
-7.326157

> <ref_pdb>
x0749_0

$$$$
x2056
  -OEChem-05172015543D

 21 22  0     0  0  0  0  0  0999 V2000
   13.9373   -1.2631   25.5227 C   0  0  0  0  0  0  0  0  0  0  0  0
   14.0330   -2.4592   26.2253 C   0  0  0  0  0  0  0  0  0  0  0  0
   12.8316   -1.0756   24.7091 C   0  0  0  0  0  0  0  0  0  0  0  0
   13.0342   -3.4176   26.0946 C   0  0  0  0  0  0  0  0  0  0  0  0
   11.9688   -3.1336   25.2556 C   0  0  0  0  0  0  0  0  0  0  0  0
    9.8038   -4.0172   24.3303 C   0  0  0  0  0  0  0  0  0  0  0  0
    5.3339   -5.5247   22.3792 C   0  0  0  0  0  0  0  0  0  0  0  0
    7.6026   -4.9241   25.0539 C   0  0  0  0  0  0  0  0  0  0  0  0
    8.8479   -5.9771   23.1037 C   0  0  0  0  0  0  0  0  0  0  0  0
    6.6631   -4.2672   24.0442 C   0  0  0  0  0  0  0  0  0  0  0  0
    7.8569   -5.3018   22.1545 C   0  0  0  0  0  0  0  0  0  0  0  0
    8.9707   -5.2599   24.4519 C   0  0  0  0  0  0  0  0  0  0  0  0
   13.1410   -4.6992   26.8490 C   0  0  0  0  0  0  0  0  0  0  0  0
    4.2938   -5.7918   23.4379 C   0  0  0  0  0  0  0  0  0  0  0  0
   11.8413   -1.9833   24.5568 N   0  0  0  0  0  0  0  0  0  0  0  0
    6.5736   -5.0665   22.8230 N   0  0  0  0  0  0  0  0  0  0  0  0
   10.9471   -4.1024   25.1146 N   0  0  0  0  0  0  0  0  0  0  0  0
    9.4501   -3.0923   23.6062 O   0  0  0  0  0  0  0  0  0  0  0  0
    5.0504   -5.7164   21.1939 O   0  0  0  0  0  0  0  0  0  0  0  0
    3.4285   -4.2794   23.6867 Cl  0  0  0  0  0  0  0  0  0  0  0  0
   11.0776   -4.9553   25.6548 H   0  0  0  0  0  0  0  0  0  0  0  0
  1  2  2  0  0  0  0
  1  3  1  0  0  0  0
  2  4  1  0  0  0  0
  3 15  2  0  0  0  0
  4  5  2  0  0  0  0
  4 13  1  0  0  0  0
  5 15  1  0  0  0  0
  5 17  1  0  0  0  0
  6 12  1  0  0  0  0
  6 17  1  0  0  0  0
  6 18  2  0  0  0  0
  7 14  1  0  0  0  0
  7 16  1  0  0  0  0
  7 19  2  0  0  0  0
  8 10  1  0  0  0  0
  8 12  1  0  0  0  0
  9 11  1  0  0  0  0
  9 12  1  0  0  0  0
 10 16  1  0  0  0  0
 11 16  1  0  0  0  0
 14 20  1  0  0  0  0
 17 21  1  0  0  0  0
M  END
> <ref_mols>
x2056_0

> <original SMILES>
O=C(C1CCN(C(CCl)=O)CC1)NC2=NC=CC=C2C

> <Chemgauss4>
-7.321361

> <ref_pdb>
x0749_0

$$$$
x0941
  -OEChem-05172015543D

  7  7  0     0  0  0  0  0  0999 V2000
    6.3062    0.4703   20.2351 C   0  0  0  0  0  0  0  0  0  0  0  0
    6.0012    0.9039   17.9601 C   0  0  0  0  0  0  0  0  0  0  0  0
    7.7990   -0.2784   18.6929 C   0  0  0  0  0  0  0  0  0  0  0  0
    5.5335    1.0509   19.2501 C   0  0  0  0  0  0  0  0  0  0  0  0
    7.4489   -0.2043   19.9912 N   0  0  0  0  0  0  0  0  0  0  0  0
    7.1343    0.2432   17.6443 N   0  0  0  0  0  0  0  0  0  0  0  0
    3.9504    1.9798   19.6394 Br  0  0  0  0  0  0  0  0  0  0  0  0
  1  4  1  0  0  0  0
  1  5  2  0  0  0  0
  2  4  2  0  0  0  0
  2  6  1  0  0  0  0
  3  5  1  0  0  0  0
  3  6  2  0  0  0  0
  4  7  1  0  0  0  0
M  END
> <ref_mols>
x0941_0

> <original SMILES>
BrC1=CN=CN=C1

> <Chemgauss4>
-7.315763

> <ref_pdb>
x0397_0

$$$$
x0617
  -OEChem-05172015543D

 15 16  0     0  0  0  0  0  0999 V2000
    9.2303    1.4001   24.7177 C   0  0  0  0  0  0  0  0  0  0  0  0
   10.7246    2.6743   23.9752 C   0  0  0  0  0  0  0  0  0  0  0  0
   13.0528    1.9884   22.6214 C   0  0  0  0  0  0  0  0  0  0  0  0
   12.2299    1.0008   23.0095 C   0  0  0  0  0  0  0  0  0  0  0  0
   12.6275    3.3790   22.9621 C   0  0  0  0  0  0  0  0  0  0  0  0
   13.5421    4.4984   22.5310 C   0  0  0  0  0  0  0  0  0  0  0  0
   10.9978   -2.2652   22.8155 C   0  0  0  0  0  0  0  0  0  0  0  0
   14.6715   -0.8526   21.9109 C   0  0  0  0  0  0  0  0  0  0  0  0
   11.5350   -1.1358   22.0040 C   0  0  0  0  0  0  0  0  0  0  0  0
   13.7526   -0.9326   23.0821 C   0  0  0  0  0  0  0  0  0  0  0  0
    9.5761    2.7089   24.6207 N   0  0  0  0  0  0  0  0  0  0  0  0
   10.0815    0.5331   24.1779 N   0  0  0  0  0  0  0  0  0  0  0  0
   11.5378    3.6993   23.5953 N   0  0  0  0  0  0  0  0  0  0  0  0
   11.0564    1.3456   23.6920 N   0  0  0  0  0  0  0  0  0  0  0  0
   12.4630   -0.3249   22.7810 N   0  0  0  0  0  0  0  0  0  0  0  0
  1 11  1  0  0  0  0
  1 12  2  0  0  0  0
  2 11  2  0  0  0  0
  2 13  1  0  0  0  0
  2 14  1  0  0  0  0
  3  4  2  0  0  0  0
  3  5  1  0  0  0  0
  4 14  1  0  0  0  0
  4 15  1  0  0  0  0
  5  6  1  0  0  0  0
  5 13  2  0  0  0  0
  7  9  1  0  0  0  0
  8 10  1  0  0  0  0
  9 15  1  0  0  0  0
 10 15  1  0  0  0  0
 12 14  1  0  0  0  0
M  END
> <ref_mols>
x0617_0

> <original SMILES>
CCN(CC)C1=CC(C)=NC2=NC=NN12

> <Chemgauss4>
-7.313612

> <ref_pdb>
x0195_0

$$$$
x1061
  -OEChem-05172015543D

 15 16  0     0  0  0  0  0  0999 V2000
    9.2303    1.4001   24.7177 C   0  0  0  0  0  0  0  0  0  0  0  0
   10.7246    2.6743   23.9752 C   0  0  0  0  0  0  0  0  0  0  0  0
   13.0528    1.9884   22.6214 C   0  0  0  0  0  0  0  0  0  0  0  0
   12.2299    1.0008   23.0095 C   0  0  0  0  0  0  0  0  0  0  0  0
   12.6275    3.3790   22.9621 C   0  0  0  0  0  0  0  0  0  0  0  0
   13.5421    4.4984   22.5310 C   0  0  0  0  0  0  0  0  0  0  0  0
   10.9978   -2.2652   22.8155 C   0  0  0  0  0  0  0  0  0  0  0  0
   14.6715   -0.8526   21.9109 C   0  0  0  0  0  0  0  0  0  0  0  0
   11.5350   -1.1358   22.0040 C   0  0  0  0  0  0  0  0  0  0  0  0
   13.7526   -0.9326   23.0821 C   0  0  0  0  0  0  0  0  0  0  0  0
    9.5761    2.7089   24.6207 N   0  0  0  0  0  0  0  0  0  0  0  0
   10.0815    0.5331   24.1779 N   0  0  0  0  0  0  0  0  0  0  0  0
   11.5378    3.6993   23.5953 N   0  0  0  0  0  0  0  0  0  0  0  0
   11.0564    1.3456   23.6920 N   0  0  0  0  0  0  0  0  0  0  0  0
   12.4630   -0.3249   22.7810 N   0  0  0  0  0  0  0  0  0  0  0  0
  1 11  1  0  0  0  0
  1 12  2  0  0  0  0
  2 11  2  0  0  0  0
  2 13  1  0  0  0  0
  2 14  1  0  0  0  0
  3  4  2  0  0  0  0
  3  5  1  0  0  0  0
  4 14  1  0  0  0  0
  4 15  1  0  0  0  0
  5  6  1  0  0  0  0
  5 13  2  0  0  0  0
  7  9  1  0  0  0  0
  8 10  1  0  0  0  0
  9 15  1  0  0  0  0
 10 15  1  0  0  0  0
 12 14  1  0  0  0  0
M  END
> <ref_mols>
x1061_0

> <original SMILES>
CCN(CC)C1=CC(C)=NC2=NC=NN12

> <Chemgauss4>
-7.313612

> <ref_pdb>
x0195_0

$$$$
x0399
  -OEChem-05172015543D

 12 13  0     0  0  0  0  0  0999 V2000
   11.6731    4.2999   23.4248 C   0  0  0  0  0  0  0  0  0  0  0  0
   12.0100    1.9662   23.3387 C   0  0  0  0  0  0  0  0  0  0  0  0
   13.4291   -2.0334   22.7471 C   0  0  0  0  0  0  0  0  0  0  0  0
   12.0410   -1.6193   22.2745 C   0  0  0  0  0  0  0  0  0  0  0  0
   14.3752   -0.8392   22.7098 C   0  0  0  0  0  0  0  0  0  0  0  0
   11.4975   -0.4435   23.0849 C   0  0  0  0  0  0  0  0  0  0  0  0
   13.8291    0.3313   23.5246 C   0  0  0  0  0  0  0  0  0  0  0  0
   11.7431    5.7672   23.2745 C   0  0  0  0  0  0  0  0  0  0  0  0
   10.7682    3.6503   24.1255 N   0  0  0  0  0  0  0  0  0  0  0  0
   10.9664    2.2815   24.0758 N   0  0  0  0  0  0  0  0  0  0  0  0
   12.4616    0.6626   23.0995 N   0  0  0  0  0  0  0  0  0  0  0  0
   12.8334    3.3032   22.6489 S   0  0  0  0  0  0  0  0  0  0  0  0
  1  8  1  0  0  0  0
  1  9  2  0  0  0  0
  1 12  1  0  0  0  0
  2 10  2  0  0  0  0
  2 11  1  0  0  0  0
  2 12  1  0  0  0  0
  3  4  1  0  0  0  0
  3  5  1  0  0  0  0
  4  6  1  0  0  0  0
  5  7  1  0  0  0  0
  6 11  1  0  0  0  0
  7 11  1  0  0  0  0
  9 10  1  0  0  0  0
M  END
> <ref_mols>
x0399_0

> <original SMILES>
CC1=NN=C(S1)N2CCCCC2

> <Chemgauss4>
-7.296444

> <ref_pdb>
x0195_0

$$$$
x0950
  -OEChem-05172015543D

 11 12  0     0  0  0  0  0  0999 V2000
   10.2136   -0.3777   24.6820 C   0  0  0  0  0  0  0  0  0  0  0  0
   11.4256   -0.6347   24.0646 C   0  0  0  0  0  0  0  0  0  0  0  0
   14.1552    1.2744   22.4412 C   0  0  0  0  0  0  0  0  0  0  0  0
    9.8195    0.9395   24.7668 C   0  0  0  0  0  0  0  0  0  0  0  0
   13.6145    2.5302   22.6094 C   0  0  0  0  0  0  0  0  0  0  0  0
   12.1931    0.4243   23.5591 C   0  0  0  0  0  0  0  0  0  0  0  0
   13.4254    0.2035   22.9278 C   0  0  0  0  0  0  0  0  0  0  0  0
   11.7151    1.7399   23.6884 C   0  0  0  0  0  0  0  0  0  0  0  0
   10.5412    1.9797   24.2870 N   0  0  0  0  0  0  0  0  0  0  0  0
   12.4276    2.7704   23.2146 N   0  0  0  0  0  0  0  0  0  0  0  0
   14.2007   -1.5196   22.6769 Br  0  0  0  0  0  0  0  0  0  0  0  0
  1  2  2  0  0  0  0
  1  4  1  0  0  0  0
  2  6  1  0  0  0  0
  3  5  2  0  0  0  0
  3  7  1  0  0  0  0
  4  9  2  0  0  0  0
  5 10  1  0  0  0  0
  6  7  2  0  0  0  0
  6  8  1  0  0  0  0
  7 11  1  0  0  0  0
  8  9  1  0  0  0  0
  8 10  2  0  0  0  0
M  END
> <ref_mols>
x0950_0

> <original SMILES>
BrC1=CC=NC2=NC=CC=C21

> <Chemgauss4>
-7.293748

> <ref_pdb>
x0195_0

$$$$
x0583
  -OEChem-05172015543D

 11 11  0     0  0  0  0  0  0999 V2000
   13.6574   -0.3568   23.7757 C   0  0  0  0  0  0  0  0  0  0  0  0
   13.4681   -1.4765   22.9916 C   0  0  0  0  0  0  0  0  0  0  0  0
   12.6774    0.6102   23.6821 C   0  0  0  0  0  0  0  0  0  0  0  0
   11.5213   -0.6357   22.1728 C   0  0  0  0  0  0  0  0  0  0  0  0
    8.7369   -2.1434   22.4755 C   0  0  0  0  0  0  0  0  0  0  0  0
    8.0944   -0.4254   20.7488 C   0  0  0  0  0  0  0  0  0  0  0  0
    9.0472   -0.7769   21.8820 C   0  0  0  0  0  0  0  0  0  0  0  0
   12.4076   -1.6496   22.1756 N   0  0  0  0  0  0  0  0  0  0  0  0
   11.5920    0.5032   22.8878 N   0  0  0  0  0  0  0  0  0  0  0  0
   10.4353   -0.7781   21.3594 N   0  0  0  0  0  0  0  0  0  0  0  0
   10.5325   -0.8906   20.3747 H   0  0  0  0  0  0  0  0  0  0  0  0
  1  2  1  0  0  0  0
  1  3  2  0  0  0  0
  2  8  2  0  0  0  0
  3  9  1  0  0  0  0
  4  8  1  0  0  0  0
  4  9  2  0  0  0  0
  4 10  1  0  0  0  0
  5  7  1  0  0  0  0
  6  7  1  0  0  0  0
  7 10  1  0  0  0  0
 10 11  1  0  0  0  0
M  END
> <ref_mols>
x0583_0

> <original SMILES>
CC(C)NC=1N=CC=CN1

> <Chemgauss4>
-7.293537

> <ref_pdb>
x1093_0

$$$$
x1102
  -OEChem-05172015543D

 11 11  0     0  0  0  0  0  0999 V2000
   13.6574   -0.3568   23.7757 C   0  0  0  0  0  0  0  0  0  0  0  0
   13.4681   -1.4765   22.9916 C   0  0  0  0  0  0  0  0  0  0  0  0
   12.6774    0.6102   23.6821 C   0  0  0  0  0  0  0  0  0  0  0  0
   11.5213   -0.6357   22.1728 C   0  0  0  0  0  0  0  0  0  0  0  0
    8.7369   -2.1434   22.4755 C   0  0  0  0  0  0  0  0  0  0  0  0
    8.0944   -0.4254   20.7488 C   0  0  0  0  0  0  0  0  0  0  0  0
    9.0472   -0.7769   21.8820 C   0  0  0  0  0  0  0  0  0  0  0  0
   12.4076   -1.6496   22.1756 N   0  0  0  0  0  0  0  0  0  0  0  0
   11.5920    0.5032   22.8878 N   0  0  0  0  0  0  0  0  0  0  0  0
   10.4353   -0.7781   21.3594 N   0  0  0  0  0  0  0  0  0  0  0  0
   10.5325   -0.8906   20.3747 H   0  0  0  0  0  0  0  0  0  0  0  0
  1  2  1  0  0  0  0
  1  3  2  0  0  0  0
  2  8  2  0  0  0  0
  3  9  1  0  0  0  0
  4  8  1  0  0  0  0
  4  9  2  0  0  0  0
  4 10  1  0  0  0  0
  5  7  1  0  0  0  0
  6  7  1  0  0  0  0
  7 10  1  0  0  0  0
 10 11  1  0  0  0  0
M  END
> <ref_mols>
x1102_0

> <original SMILES>
CC(C)NC=1N=CC=CN1

> <Chemgauss4>
-7.293537

> <ref_pdb>
x1093_0

$$$$
x0874
  -OEChem-05172015543D

 15 16  0     1  0  0  0  0  0999 V2000
   12.8136    1.8390   22.4191 C   0  0  0  0  0  0  0  0  0  0  0  0
   12.2397    3.0905   22.4619 C   0  0  0  0  0  0  0  0  0  0  0  0
   11.4745    1.6595   24.3103 C   0  0  0  0  0  0  0  0  0  0  0  0
   12.3703    1.0099   23.4897 C   0  0  0  0  0  0  0  0  0  0  0  0
   10.5264   -1.2190   22.9393 C   0  0  0  0  0  0  0  0  0  0  0  0
   14.1053   -1.3647   21.8114 C   0  0  0  0  0  0  0  0  0  0  0  0
   14.2551   -0.7184   23.1918 C   0  0  0  0  0  0  0  0  0  0  0  0
   12.6139   -1.6054   21.5985 C   0  0  0  0  0  0  0  0  0  0  0  0
   12.8336   -0.4230   23.7004 C   0  0  2  0  0  0  0  0  0  0  0  0
   11.9961   -1.4985   22.9868 C   0  0  1  0  0  0  0  0  0  0  0  0
    9.7595   -2.1759   23.5609 N   0  0  0  0  0  0  0  0  0  0  0  0
   10.0705   -0.2117   22.4036 O   0  0  0  0  0  0  0  0  0  0  0  0
   11.1712    3.2622   23.7890 S   0  0  0  0  0  0  0  0  0  0  0  0
   10.2242   -2.9697   23.9893 H   0  0  0  0  0  0  0  0  0  0  0  0
    8.7473   -2.1203   23.6084 H   0  0  0  0  0  0  0  0  0  0  0  0
  1  2  2  0  0  0  0
  1  4  1  0  0  0  0
  2 13  1  0  0  0  0
  3  4  2  0  0  0  0
  3 13  1  0  0  0  0
  4  9  1  0  0  0  0
  5 10  1  0  0  0  0
  5 11  1  0  0  0  0
  5 12  2  0  0  0  0
  6  7  1  0  0  0  0
  6  8  1  0  0  0  0
  7  9  1  0  0  0  0
  8 10  1  0  0  0  0
  9 10  1  0  0  0  0
 11 14  1  0  0  0  0
 11 15  1  0  0  0  0
M  END
> <ref_mols>
x0874_0

> <original SMILES>
O=C([C@@H]1[C@H](C2=CSC=C2)CCC1)N

> <Chemgauss4>
-7.292104

> <ref_pdb>
x0195_0

$$$$
x1150
  -OEChem-05172015543D

 16 16  0     1  0  0  0  0  0999 V2000
   12.9414   -2.5593   25.5036 C   0  0  0  0  0  0  0  0  0  0  0  0
   11.2228   -2.2277   23.7951 C   0  0  0  0  0  0  0  0  0  0  0  0
   11.0109   -4.0533   25.3633 C   0  0  0  0  0  0  0  0  0  0  0  0
   10.0260   -2.6095   23.1888 C   0  0  0  0  0  0  0  0  0  0  0  0
    9.8141   -4.4351   24.7571 C   0  0  0  0  0  0  0  0  0  0  0  0
   11.7153   -2.9496   24.8823 C   0  0  0  0  0  0  0  0  0  0  0  0
    9.3216   -3.7132   23.6699 C   0  0  0  0  0  0  0  0  0  0  0  0
    6.7263   -5.9324   22.5050 C   0  0  0  0  0  0  0  0  0  0  0  0
    6.5375   -4.7421   24.7052 C   0  0  0  0  0  0  0  0  0  0  0  0
    7.4824   -5.2198   23.6142 C   0  0  2  0  0  0  0  0  0  0  0  0
   13.9373   -2.2424   26.0082 N   0  0  0  0  0  0  0  0  0  0  0  0
    6.0936   -7.0800   22.9296 N   0  0  0  0  0  0  0  0  0  0  0  0
    6.7015   -5.5323   21.3437 O   0  0  0  0  0  0  0  0  0  0  0  0
    8.1446   -4.0890   23.0730 O   0  0  0  0  0  0  0  0  0  0  0  0
    6.1677   -7.3620   23.9017 H   0  0  0  0  0  0  0  0  0  0  0  0
    5.5545   -7.6473   22.2838 H   0  0  0  0  0  0  0  0  0  0  0  0
  1  6  1  0  0  0  0
  1 11  3  0  0  0  0
  2  4  2  0  0  0  0
  2  6  1  0  0  0  0
  3  5  1  0  0  0  0
  3  6  2  0  0  0  0
  4  7  1  0  0  0  0
  5  7  2  0  0  0  0
  7 14  1  0  0  0  0
  8 10  1  0  0  0  0
  8 12  1  0  0  0  0
  8 13  2  0  0  0  0
  9 10  1  0  0  0  0
 10 14  1  0  0  0  0
 12 15  1  0  0  0  0
 12 16  1  0  0  0  0
M  END
> <ref_mols>
x1150_0

> <original SMILES>
CC(OC=1C=CC(C#N)=CC1)C(=O)N

> <Chemgauss4>
-7.292045

> <ref_pdb>
x0749_0

$$$$
x0050
  -OEChem-05172015543D

 16 16  0     1  0  0  0  0  0999 V2000
   12.9414   -2.5593   25.5036 C   0  0  0  0  0  0  0  0  0  0  0  0
   11.2228   -2.2277   23.7951 C   0  0  0  0  0  0  0  0  0  0  0  0
   11.0109   -4.0533   25.3633 C   0  0  0  0  0  0  0  0  0  0  0  0
   10.0260   -2.6095   23.1888 C   0  0  0  0  0  0  0  0  0  0  0  0
    9.8141   -4.4351   24.7571 C   0  0  0  0  0  0  0  0  0  0  0  0
   11.7153   -2.9496   24.8823 C   0  0  0  0  0  0  0  0  0  0  0  0
    9.3216   -3.7132   23.6699 C   0  0  0  0  0  0  0  0  0  0  0  0
    6.7263   -5.9324   22.5050 C   0  0  0  0  0  0  0  0  0  0  0  0
    6.5375   -4.7421   24.7052 C   0  0  0  0  0  0  0  0  0  0  0  0
    7.4824   -5.2198   23.6142 C   0  0  2  0  0  0  0  0  0  0  0  0
   13.9373   -2.2424   26.0082 N   0  0  0  0  0  0  0  0  0  0  0  0
    6.0936   -7.0800   22.9296 N   0  0  0  0  0  0  0  0  0  0  0  0
    6.7015   -5.5323   21.3437 O   0  0  0  0  0  0  0  0  0  0  0  0
    8.1446   -4.0890   23.0730 O   0  0  0  0  0  0  0  0  0  0  0  0
    6.1677   -7.3620   23.9017 H   0  0  0  0  0  0  0  0  0  0  0  0
    5.5545   -7.6473   22.2838 H   0  0  0  0  0  0  0  0  0  0  0  0
  1  6  1  0  0  0  0
  1 11  3  0  0  0  0
  2  4  2  0  0  0  0
  2  6  1  0  0  0  0
  3  5  1  0  0  0  0
  3  6  2  0  0  0  0
  4  7  1  0  0  0  0
  5  7  2  0  0  0  0
  7 14  1  0  0  0  0
  8 10  1  0  0  0  0
  8 12  1  0  0  0  0
  8 13  2  0  0  0  0
  9 10  1  0  0  0  0
 10 14  1  0  0  0  0
 12 15  1  0  0  0  0
 12 16  1  0  0  0  0
M  END
> <ref_mols>
x0050_0

> <original SMILES>
CC(OC=1C=CC(C#N)=CC1)C(=O)N

> <Chemgauss4>
-7.292045

> <ref_pdb>
x0749_0

$$$$
x2589
  -OEChem-05172015543D

 24 24  0     1  0  0  0  0  0999 V2000
   13.8531    1.7800   22.3283 C   0  0  0  0  0  0  0  0  0  0  0  0
   12.1653    1.2867   23.9852 C   0  0  0  0  0  0  0  0  0  0  0  0
   13.4546    3.1167   22.3204 C   0  0  0  0  0  0  0  0  0  0  0  0
   11.7669    2.6234   23.9773 C   0  0  0  0  0  0  0  0  0  0  0  0
   13.2084    0.8650   23.1607 C   0  0  0  0  0  0  0  0  0  0  0  0
   12.4115    3.5384   23.1450 C   0  0  0  0  0  0  0  0  0  0  0  0
   11.3648   -1.5657   22.8688 C   0  0  0  0  0  0  0  0  0  0  0  0
   14.2097   -1.0334   21.8244 C   0  0  0  0  0  0  0  0  0  0  0  0
    8.5347   -3.8545   23.8259 C   0  0  0  0  0  0  0  0  0  0  0  0
    8.3321   -1.5052   22.9726 C   0  0  0  0  0  0  0  0  0  0  0  0
    9.3278   -3.2889   21.5181 C   0  0  0  0  0  0  0  0  0  0  0  0
   12.5087    5.7922   25.7626 C   0  0  0  0  0  0  0  0  0  0  0  0
   13.6400   -0.5857   23.1689 C   0  0  2  0  0  0  0  0  0  0  0  0
    9.1892   -2.7752   22.9559 C   0  0  0  0  0  0  0  0  0  0  0  0
   12.5583   -1.4522   23.5767 N   0  0  0  0  0  0  0  0  0  0  0  0
   10.5055   -2.4662   23.4841 N   0  0  0  0  0  0  0  0  0  0  0  0
   12.9038    5.8964   24.3506 N   0  0  0  0  0  0  0  0  0  0  0  0
   11.1072   -0.9500   21.8352 O   0  0  0  0  0  0  0  0  0  0  0  0
   12.2747    5.8023   21.8542 O   0  0  0  0  0  0  0  0  0  0  0  0
   10.5280    5.2659   23.5821 O   0  0  0  0  0  0  0  0  0  0  0  0
   11.9141    5.2119   23.1369 S   0  0  0  0  0  0  0  0  0  0  0  0
   12.6741   -2.0052   24.4202 H   0  0  0  0  0  0  0  0  0  0  0  0
   10.8150   -2.9652   24.3078 H   0  0  0  0  0  0  0  0  0  0  0  0
   13.5026    6.6951   24.1081 H   0  0  0  0  0  0  0  0  0  0  0  0
  1  3  2  0  0  0  0
  1  5  1  0  0  0  0
  2  4  1  0  0  0  0
  2  5  2  0  0  0  0
  3  6  1  0  0  0  0
  4  6  2  0  0  0  0
  5 13  1  0  0  0  0
  6 21  1  0  0  0  0
  7 15  1  0  0  0  0
  7 16  1  0  0  0  0
  7 18  2  0  0  0  0
  8 13  1  0  0  0  0
  9 14  1  0  0  0  0
 10 14  1  0  0  0  0
 11 14  1  0  0  0  0
 12 17  1  0  0  0  0
 13 15  1  0  0  0  0
 14 16  1  0  0  0  0
 17 21  1  0  0  0  0
 19 21  2  0  0  0  0
 20 21  2  0  0  0  0
 15 22  1  0  0  0  0
 16 23  1  0  0  0  0
 17 24  1  0  0  0  0
M  END
> <ref_mols>
x2589_0

> <original SMILES>
CNS(=O)(=O)C=1C=CC(=CC1)C(C)NC(=O)NC(C)(C)C

> <Chemgauss4>
-7.291488

> <ref_pdb>
x0195_0

$$$$
x1280
  -OEChem-05172015543D

 14 15  0     1  0  0  0  0  0999 V2000
   11.5810   -1.1492   23.0101 C   0  0  0  0  0  0  0  0  0  0  0  0
   12.3976   -0.1913   22.4636 C   0  0  0  0  0  0  0  0  0  0  0  0
   11.4639    5.7830   24.1254 C   0  0  0  0  0  0  0  0  0  0  0  0
   10.0672    5.9361   23.5285 C   0  0  0  0  0  0  0  0  0  0  0  0
   12.2668    4.7070   23.3964 C   0  0  0  0  0  0  0  0  0  0  0  0
    9.3302    4.6073   23.4795 C   0  0  0  0  0  0  0  0  0  0  0  0
   11.5154    3.3762   23.3536 C   0  0  2  0  0  0  0  0  0  0  0  0
   12.2449    2.3329   22.5201 C   0  0  0  0  0  0  0  0  0  0  0  0
   10.5472   -0.5481   23.6729 N   0  0  0  0  0  0  0  0  0  0  0  0
   10.6958    0.7668   23.5541 N   0  0  0  0  0  0  0  0  0  0  0  0
   11.8057    0.9786   22.8286 N   0  0  0  0  0  0  0  0  0  0  0  0
   10.1630    3.6084   22.7437 N   0  3  0  0  0  0  0  0  0  0  0  0
    9.6499    2.7168   22.7039 H   0  0  0  0  0  0  0  0  0  0  0  0
   10.2702    3.9112   21.7651 H   0  0  0  0  0  0  0  0  0  0  0  0
  1  2  2  0  0  0  0
  1  9  1  0  0  0  0
  2 11  1  0  0  0  0
  3  4  1  0  0  0  0
  3  5  1  0  0  0  0
  4  6  1  0  0  0  0
  5  7  1  0  0  0  0
  6 12  1  0  0  0  0
  7  8  1  0  0  0  0
  7 12  1  0  0  0  0
  8 11  1  0  0  0  0
  9 10  2  0  0  0  0
 10 11  1  0  0  0  0
 12 13  1  0  0  0  0
 12 14  1  0  0  0  0
M  CHG  1  12   1
M  END
> <ref_mols>
x1280_0

> <original SMILES>
C(C1CCCCN1)N2C=CN=N2

> <Chemgauss4>
-7.283552

> <ref_pdb>
x0104_0

$$$$
x0661
  -OEChem-05172015543D

 14 15  0     1  0  0  0  0  0999 V2000
   11.5810   -1.1492   23.0101 C   0  0  0  0  0  0  0  0  0  0  0  0
   12.3976   -0.1913   22.4636 C   0  0  0  0  0  0  0  0  0  0  0  0
   11.4639    5.7830   24.1254 C   0  0  0  0  0  0  0  0  0  0  0  0
   10.0672    5.9361   23.5285 C   0  0  0  0  0  0  0  0  0  0  0  0
   12.2668    4.7070   23.3964 C   0  0  0  0  0  0  0  0  0  0  0  0
    9.3302    4.6073   23.4795 C   0  0  0  0  0  0  0  0  0  0  0  0
   11.5154    3.3762   23.3536 C   0  0  2  0  0  0  0  0  0  0  0  0
   12.2449    2.3329   22.5201 C   0  0  0  0  0  0  0  0  0  0  0  0
   10.5472   -0.5481   23.6729 N   0  0  0  0  0  0  0  0  0  0  0  0
   10.6958    0.7668   23.5541 N   0  0  0  0  0  0  0  0  0  0  0  0
   11.8057    0.9786   22.8286 N   0  0  0  0  0  0  0  0  0  0  0  0
   10.1630    3.6084   22.7437 N   0  3  0  0  0  0  0  0  0  0  0  0
    9.6499    2.7168   22.7039 H   0  0  0  0  0  0  0  0  0  0  0  0
   10.2702    3.9112   21.7651 H   0  0  0  0  0  0  0  0  0  0  0  0
  1  2  2  0  0  0  0
  1  9  1  0  0  0  0
  2 11  1  0  0  0  0
  3  4  1  0  0  0  0
  3  5  1  0  0  0  0
  4  6  1  0  0  0  0
  5  7  1  0  0  0  0
  6 12  1  0  0  0  0
  7  8  1  0  0  0  0
  7 12  1  0  0  0  0
  8 11  1  0  0  0  0
  9 10  2  0  0  0  0
 10 11  1  0  0  0  0
 12 13  1  0  0  0  0
 12 14  1  0  0  0  0
M  CHG  1  12   1
M  END
> <ref_mols>
x0661_0

> <original SMILES>
C(C1CCCCN1)N2C=CN=N2

> <Chemgauss4>
-7.283552

> <ref_pdb>
x0104_0

$$$$
x0614
  -OEChem-05172015543D

 18 18  0     1  0  0  0  0  0999 V2000
   14.2696   -2.1435   22.9901 C   0  0  0  0  0  0  0  0  0  0  0  0
   13.5543   -0.4345   24.5407 C   0  0  0  0  0  0  0  0  0  0  0  0
   13.3685   -1.6600   22.0415 C   0  0  0  0  0  0  0  0  0  0  0  0
   12.6532    0.0491   23.5921 C   0  0  0  0  0  0  0  0  0  0  0  0
   14.3624   -1.5308   24.2397 C   0  0  0  0  0  0  0  0  0  0  0  0
   12.5603   -0.5637   22.3425 C   0  0  0  0  0  0  0  0  0  0  0  0
    9.6234   -1.8273   22.0516 C   0  0  0  0  0  0  0  0  0  0  0  0
    8.6844    0.3276   21.3199 C   0  0  0  0  0  0  0  0  0  0  0  0
    8.5141    0.0707   19.8337 C   0  0  0  0  0  0  0  0  0  0  0  0
   15.2735   -2.0193   25.1993 N   0  0  0  0  0  0  0  0  0  0  0  0
    9.8896   -0.3859   21.8138 N   0  0  2  0  0  0  0  0  0  0  0  0
   11.5410    1.4963   21.1234 O   0  0  0  0  0  0  0  0  0  0  0  0
   11.6347   -0.6980   19.9150 O   0  0  0  0  0  0  0  0  0  0  0  0
    7.3396    0.7263   19.3727 O   0  0  0  0  0  0  0  0  0  0  0  0
   11.4154    0.0505   21.1389 S   0  0  0  0  0  0  0  0  0  0  0  0
   15.8133   -2.8342   24.9889 H   0  0  0  0  0  0  0  0  0  0  0  0
   15.2965   -1.6008   26.1072 H   0  0  0  0  0  0  0  0  0  0  0  0
    7.2685    0.5375   18.4232 H   0  0  0  0  0  0  0  0  0  0  0  0
  1  3  2  0  0  0  0
  1  5  1  0  0  0  0
  2  4  1  0  0  0  0
  2  5  2  0  0  0  0
  3  6  1  0  0  0  0
  4  6  2  0  0  0  0
  5 10  1  0  0  0  0
  6 15  1  0  0  0  0
  7 11  1  0  0  0  0
  8  9  1  0  0  0  0
  8 11  1  0  0  0  0
  9 14  1  0  0  0  0
 11 15  1  0  0  0  0
 12 15  2  0  0  0  0
 13 15  2  0  0  0  0
 10 16  1  0  0  0  0
 10 17  1  0  0  0  0
 14 18  1  0  0  0  0
M  END
> <ref_mols>
x0614_0

> <original SMILES>
CN(CCO)S(=O)(=O)C=1C=CC(N)=CC1

> <Chemgauss4>
-7.277418

> <ref_pdb>
x0678_0

$$$$
x2870
  -OEChem-05172015543D

 34 36  0     1  0  0  0  0  0999 V2000
    5.5260   -0.7369   18.2652 C   0  0  0  0  0  0  0  0  0  0  0  0
    6.1113    0.5288   18.2352 C   0  0  0  0  0  0  0  0  0  0  0  0
    4.9548   -6.8515   24.7910 C   0  0  0  0  0  0  0  0  0  0  0  0
    5.9238   -5.9681   24.3285 C   0  0  0  0  0  0  0  0  0  0  0  0
   10.3312   -4.0919   25.6035 C   0  0  0  0  0  0  0  0  0  0  0  0
   10.9641   -2.7011   23.7321 C   0  0  0  0  0  0  0  0  0  0  0  0
    5.7211   -1.5697   19.3671 C   0  0  0  0  0  0  0  0  0  0  0  0
    9.2346   -4.5637   24.8821 C   0  0  0  0  0  0  0  0  0  0  0  0
    9.8675   -3.1730   23.0106 C   0  0  0  0  0  0  0  0  0  0  0  0
    6.8918    0.9618   19.3071 C   0  0  0  0  0  0  0  0  0  0  0  0
    3.6349   -6.6024   24.4509 C   0  0  0  0  0  0  0  0  0  0  0  0
    4.2022   -4.7173   23.2665 C   0  0  0  0  0  0  0  0  0  0  0  0
   11.1959   -3.1605   25.0285 C   0  0  0  0  0  0  0  0  0  0  0  0
    5.5487   -4.8780   23.5512 C   0  0  0  0  0  0  0  0  0  0  0  0
    9.0027   -4.1043   23.5857 C   0  0  0  0  0  0  0  0  0  0  0  0
    6.5017   -1.1367   20.4389 C   0  0  0  0  0  0  0  0  0  0  0  0
    7.0871    0.1290   20.4090 C   0  0  0  0  0  0  0  0  0  0  0  0
    9.3884   -7.5155   21.1073 C   0  0  0  0  0  0  0  0  0  0  0  0
    9.2738   -6.4300   21.8791 C   0  0  0  0  0  0  0  0  0  0  0  0
    7.9579   -5.7394   22.0164 C   0  0  0  0  0  0  0  0  0  0  0  0
    6.1534   -3.2902   21.6988 C   0  0  0  0  0  0  0  0  0  0  0  0
   14.0514   -4.3567   24.7574 C   0  0  0  0  0  0  0  0  0  0  0  0
   12.5264   -3.2436   27.2450 C   0  0  0  0  0  0  0  0  0  0  0  0
   12.2442   -1.1107   26.0146 C   0  0  0  0  0  0  0  0  0  0  0  0
   13.7409   -2.8931   25.0580 C   0  0  0  0  0  0  0  0  0  0  0  0
    6.5789   -3.8993   23.0324 C   0  0  2  0  0  0  0  0  0  0  0  0
   12.4063   -2.6398   25.8250 C   0  0  0  0  0  0  0  0  0  0  0  0
    3.2322   -5.5544   23.6979 N   0  0  0  0  0  0  0  0  0  0  0  0
    6.6766   -2.0095   21.5390 N   0  0  0  0  0  0  0  0  0  0  0  0
    7.9062   -4.5762   22.8637 N   0  0  0  0  0  0  0  0  0  0  0  0
    6.9798   -6.2027   21.4292 O   0  0  0  0  0  0  0  0  0  0  0  0
    5.4302   -3.8980   20.9140 O   0  0  0  0  0  0  0  0  0  0  0  0
    8.1614    0.7676   21.8379 Br  0  0  0  0  0  0  0  0  0  0  0  0
    7.2520   -1.6606   22.3026 H   0  0  0  0  0  0  0  0  0  0  0  0
  1  2  1  0  0  0  0
  1  7  2  0  0  0  0
  2 10  2  0  0  0  0
  3  4  2  0  0  0  0
  3 11  1  0  0  0  0
  4 14  1  0  0  0  0
  5  8  2  0  0  0  0
  5 13  1  0  0  0  0
  6  9  1  0  0  0  0
  6 13  2  0  0  0  0
  7 16  1  0  0  0  0
  8 15  1  0  0  0  0
  9 15  2  0  0  0  0
 10 17  1  0  0  0  0
 11 28  2  0  0  0  0
 12 14  2  0  0  0  0
 12 28  1  0  0  0  0
 13 27  1  0  0  0  0
 14 26  1  0  0  0  0
 15 30  1  0  0  0  0
 16 17  2  0  0  0  0
 16 29  1  0  0  0  0
 17 33  1  0  0  0  0
 18 19  2  0  0  0  0
 19 20  1  0  0  0  0
 20 30  1  0  0  0  0
 20 31  2  0  0  0  0
 21 26  1  0  0  0  0
 21 29  1  0  0  0  0
 21 32  2  0  0  0  0
 22 25  1  0  0  0  0
 23 27  1  0  0  0  0
 24 27  1  0  0  0  0
 25 27  1  0  0  0  0
 26 30  1  0  0  0  0
 29 34  1  0  0  0  0
M  END
> <ref_mols>
x2870_0

> <original SMILES>
CCC(C)(C)C=1C=CC(=CC1)N(C(C(=O)NC=2C=CC=CC2Br)C=3C=CC=NC3)C(=O)C=C

> <Chemgauss4>
-7.274395

> <ref_pdb>
x0749_0

> <CYS145-warhead dist minimum (A)>
4.8361773

> <CYS145-warhead dist mean (A)>
6.260206

> <CYS145-warhead dist stddev (A)>
0.50321984

$$$$
x2526
  -OEChem-05172015543D

 34 36  0     1  0  0  0  0  0999 V2000
    7.6635   -5.8092   26.4598 C   0  0  0  0  0  0  0  0  0  0  0  0
    8.3542   -5.2257   25.4035 C   0  0  0  0  0  0  0  0  0  0  0  0
   10.6320    0.0704   24.0187 C   0  0  0  0  0  0  0  0  0  0  0  0
   11.4251    1.2137   24.1156 C   0  0  0  0  0  0  0  0  0  0  0  0
   12.8722    0.3569   22.3810 C   0  0  0  0  0  0  0  0  0  0  0  0
    7.0046   -1.9516   20.3741 C   0  0  0  0  0  0  0  0  0  0  0  0
    6.3181   -5.5090   26.5996 C   0  0  0  0  0  0  0  0  0  0  0  0
    6.3412   -4.1363   24.7575 C   0  0  0  0  0  0  0  0  0  0  0  0
    7.6878   -4.3720   24.5315 C   0  0  0  0  0  0  0  0  0  0  0  0
   12.0791   -0.7865   22.2841 C   0  0  0  0  0  0  0  0  0  0  0  0
   10.9591   -0.9297   23.1030 C   0  0  0  0  0  0  0  0  0  0  0  0
   12.5452    1.3570   23.2967 C   0  0  0  0  0  0  0  0  0  0  0  0
    6.8282   -0.5933   20.3766 C   0  0  0  0  0  0  0  0  0  0  0  0
    7.2389   -2.2608   21.7251 C   0  0  0  0  0  0  0  0  0  0  0  0
    6.4694   -7.0822   22.1588 C   0  0  0  0  0  0  0  0  0  0  0  0
    7.3113   -6.0453   22.2144 C   0  0  0  0  0  0  0  0  0  0  0  0
    6.9324   -4.7347   21.6093 C   0  0  0  0  0  0  0  0  0  0  0  0
    9.0021   -2.3708   23.7661 C   0  0  0  0  0  0  0  0  0  0  0  0
   12.4537   -1.8414   21.2943 C   0  0  0  0  0  0  0  0  0  0  0  0
    6.4308   -0.2622   17.9112 C   0  0  0  0  0  0  0  0  0  0  0  0
    7.6770    1.4828   19.2295 C   0  0  0  0  0  0  0  0  0  0  0  0
    5.2184    1.2242   19.4931 C   0  0  0  0  0  0  0  0  0  0  0  0
   14.4489    2.5547   22.5239 C   0  0  0  0  0  0  0  0  0  0  0  0
    8.4108   -3.7221   23.3725 C   0  0  2  0  0  0  0  0  0  0  0  0
    6.5356    0.4442   19.2802 C   0  0  0  0  0  0  0  0  0  0  0  0
    5.6367   -4.6847   25.7727 N   0  0  0  0  0  0  0  0  0  0  0  0
    7.2100   -1.1770   22.5058 N   0  0  0  0  0  0  0  0  0  0  0  0
   10.1431   -2.0830   23.0212 N   0  0  0  0  0  0  0  0  0  0  0  0
    7.4741   -3.5322   22.2077 N   0  0  0  0  0  0  0  0  0  0  0  0
    6.1568   -4.7240   20.6530 O   0  0  0  0  0  0  0  0  0  0  0  0
    8.4967   -1.6772   24.6445 O   0  0  0  0  0  0  0  0  0  0  0  0
    6.9484   -0.1194   21.6431 O   0  0  0  0  0  0  0  0  0  0  0  0
   13.3188    2.4730   23.3909 O   0  0  0  0  0  0  0  0  0  0  0  0
   10.4227   -2.7840   22.3383 H   0  0  0  0  0  0  0  0  0  0  0  0
  1  2  2  0  0  0  0
  1  7  1  0  0  0  0
  2  9  1  0  0  0  0
  3  4  2  0  0  0  0
  3 11  1  0  0  0  0
  4 12  1  0  0  0  0
  5 10  1  0  0  0  0
  5 12  2  0  0  0  0
  6 13  2  0  0  0  0
  6 14  1  0  0  0  0
  7 26  2  0  0  0  0
  8  9  2  0  0  0  0
  8 26  1  0  0  0  0
  9 24  1  0  0  0  0
 10 11  2  0  0  0  0
 10 19  1  0  0  0  0
 11 28  1  0  0  0  0
 12 33  1  0  0  0  0
 13 25  1  0  0  0  0
 13 32  1  0  0  0  0
 14 27  2  0  0  0  0
 14 29  1  0  0  0  0
 15 16  2  0  0  0  0
 16 17  1  0  0  0  0
 17 29  1  0  0  0  0
 17 30  2  0  0  0  0
 18 24  1  0  0  0  0
 18 28  1  0  0  0  0
 18 31  2  0  0  0  0
 20 25  1  0  0  0  0
 21 25  1  0  0  0  0
 22 25  1  0  0  0  0
 23 33  1  0  0  0  0
 24 29  1  0  0  0  0
 27 32  1  0  0  0  0
 28 34  1  0  0  0  0
M  END
> <ref_mols>
x2526_0

> <original SMILES>
COC=1C=CC(NC(=O)C(N(C(=O)C=C)C=2C=C(ON2)C(C)(C)C)C=3C=CC=NC3)=C(C)C1

> <Chemgauss4>
-7.271996

> <ref_pdb>
x1392_0

$$$$
x2694
  -OEChem-05172015543D

 34 36  0     1  0  0  0  0  0999 V2000
    7.6635   -5.8092   26.4598 C   0  0  0  0  0  0  0  0  0  0  0  0
    8.3542   -5.2257   25.4035 C   0  0  0  0  0  0  0  0  0  0  0  0
   10.6320    0.0704   24.0187 C   0  0  0  0  0  0  0  0  0  0  0  0
   11.4251    1.2137   24.1156 C   0  0  0  0  0  0  0  0  0  0  0  0
   12.8722    0.3569   22.3810 C   0  0  0  0  0  0  0  0  0  0  0  0
    7.0046   -1.9516   20.3741 C   0  0  0  0  0  0  0  0  0  0  0  0
    6.3181   -5.5090   26.5996 C   0  0  0  0  0  0  0  0  0  0  0  0
    6.3412   -4.1363   24.7575 C   0  0  0  0  0  0  0  0  0  0  0  0
    7.6878   -4.3720   24.5315 C   0  0  0  0  0  0  0  0  0  0  0  0
   12.0791   -0.7865   22.2841 C   0  0  0  0  0  0  0  0  0  0  0  0
   10.9591   -0.9297   23.1030 C   0  0  0  0  0  0  0  0  0  0  0  0
   12.5452    1.3570   23.2967 C   0  0  0  0  0  0  0  0  0  0  0  0
    6.8282   -0.5933   20.3766 C   0  0  0  0  0  0  0  0  0  0  0  0
    7.2389   -2.2608   21.7251 C   0  0  0  0  0  0  0  0  0  0  0  0
    6.4694   -7.0822   22.1588 C   0  0  0  0  0  0  0  0  0  0  0  0
    7.3113   -6.0453   22.2144 C   0  0  0  0  0  0  0  0  0  0  0  0
    6.9324   -4.7347   21.6093 C   0  0  0  0  0  0  0  0  0  0  0  0
    9.0021   -2.3708   23.7661 C   0  0  0  0  0  0  0  0  0  0  0  0
   12.4537   -1.8414   21.2943 C   0  0  0  0  0  0  0  0  0  0  0  0
    6.4308   -0.2622   17.9112 C   0  0  0  0  0  0  0  0  0  0  0  0
    7.6770    1.4828   19.2295 C   0  0  0  0  0  0  0  0  0  0  0  0
    5.2184    1.2242   19.4931 C   0  0  0  0  0  0  0  0  0  0  0  0
   14.4489    2.5547   22.5239 C   0  0  0  0  0  0  0  0  0  0  0  0
    8.4108   -3.7221   23.3725 C   0  0  2  0  0  0  0  0  0  0  0  0
    6.5356    0.4442   19.2802 C   0  0  0  0  0  0  0  0  0  0  0  0
    5.6367   -4.6847   25.7727 N   0  0  0  0  0  0  0  0  0  0  0  0
    7.2100   -1.1770   22.5058 N   0  0  0  0  0  0  0  0  0  0  0  0
   10.1431   -2.0830   23.0212 N   0  0  0  0  0  0  0  0  0  0  0  0
    7.4741   -3.5322   22.2077 N   0  0  0  0  0  0  0  0  0  0  0  0
    6.1568   -4.7240   20.6530 O   0  0  0  0  0  0  0  0  0  0  0  0
    8.4967   -1.6772   24.6445 O   0  0  0  0  0  0  0  0  0  0  0  0
    6.9484   -0.1194   21.6431 O   0  0  0  0  0  0  0  0  0  0  0  0
   13.3188    2.4730   23.3909 O   0  0  0  0  0  0  0  0  0  0  0  0
   10.4227   -2.7840   22.3383 H   0  0  0  0  0  0  0  0  0  0  0  0
  1  2  2  0  0  0  0
  1  7  1  0  0  0  0
  2  9  1  0  0  0  0
  3  4  2  0  0  0  0
  3 11  1  0  0  0  0
  4 12  1  0  0  0  0
  5 10  1  0  0  0  0
  5 12  2  0  0  0  0
  6 13  2  0  0  0  0
  6 14  1  0  0  0  0
  7 26  2  0  0  0  0
  8  9  2  0  0  0  0
  8 26  1  0  0  0  0
  9 24  1  0  0  0  0
 10 11  2  0  0  0  0
 10 19  1  0  0  0  0
 11 28  1  0  0  0  0
 12 33  1  0  0  0  0
 13 25  1  0  0  0  0
 13 32  1  0  0  0  0
 14 27  2  0  0  0  0
 14 29  1  0  0  0  0
 15 16  2  0  0  0  0
 16 17  1  0  0  0  0
 17 29  1  0  0  0  0
 17 30  2  0  0  0  0
 18 24  1  0  0  0  0
 18 28  1  0  0  0  0
 18 31  2  0  0  0  0
 20 25  1  0  0  0  0
 21 25  1  0  0  0  0
 22 25  1  0  0  0  0
 23 33  1  0  0  0  0
 24 29  1  0  0  0  0
 27 32  1  0  0  0  0
 28 34  1  0  0  0  0
M  END
> <ref_mols>
x2694_0

> <original SMILES>
COC=1C=CC(NC(=O)C(N(C(=O)C=C)C=2C=C(ON2)C(C)(C)C)C=3C=CC=NC3)=C(C)C1

> <Chemgauss4>
-7.271996

> <ref_pdb>
x1392_0

> <CYS145-warhead dist minimum (A)>
8.158413

> <CYS145-warhead dist mean (A)>
10.085276

> <CYS145-warhead dist stddev (A)>
0.6094748

$$$$
x2706
  -OEChem-05172015543D

 33 35  0     1  0  0  0  0  0999 V2000
    7.2246   -5.2573   26.6081 C   0  0  0  0  0  0  0  0  0  0  0  0
    8.0158   -4.8885   25.5258 C   0  0  0  0  0  0  0  0  0  0  0  0
   12.5121   -1.4728   22.1648 C   0  0  0  0  0  0  0  0  0  0  0  0
   11.2753   -0.2174   23.8174 C   0  0  0  0  0  0  0  0  0  0  0  0
   13.5167   -0.5053   22.1816 C   0  0  0  0  0  0  0  0  0  0  0  0
   12.2799    0.7501   23.8343 C   0  0  0  0  0  0  0  0  0  0  0  0
    7.3226   -1.7769   20.2648 C   0  0  0  0  0  0  0  0  0  0  0  0
    5.9597   -4.7003   26.7063 C   0  0  0  0  0  0  0  0  0  0  0  0
    6.2466   -3.4868   24.7768 C   0  0  0  0  0  0  0  0  0  0  0  0
    7.5250   -3.9868   24.5882 C   0  0  0  0  0  0  0  0  0  0  0  0
   11.3914   -1.3289   22.9827 C   0  0  0  0  0  0  0  0  0  0  0  0
   13.4006    0.6062   23.0163 C   0  0  0  0  0  0  0  0  0  0  0  0
    7.3997   -0.4102   20.1519 C   0  0  0  0  0  0  0  0  0  0  0  0
    7.4911   -2.0265   21.6400 C   0  0  0  0  0  0  0  0  0  0  0  0
    5.8224   -6.5752   22.3826 C   0  0  0  0  0  0  0  0  0  0  0  0
    6.8450   -5.7143   22.3819 C   0  0  0  0  0  0  0  0  0  0  0  0
    6.7224   -4.4003   21.6849 C   0  0  0  0  0  0  0  0  0  0  0  0
    9.1957   -2.3265   23.7106 C   0  0  0  0  0  0  0  0  0  0  0  0
    5.9236    0.3538   18.2591 C   0  0  0  0  0  0  0  0  0  0  0  0
    8.4124    0.1841   17.9230 C   0  0  0  0  0  0  0  0  0  0  0  0
    7.4496    2.0247   19.2892 C   0  0  0  0  0  0  0  0  0  0  0  0
    8.3608   -3.5662   23.3995 C   0  0  2  0  0  0  0  0  0  0  0  0
    7.2998    0.5272   18.9372 C   0  0  0  0  0  0  0  0  0  0  0  0
    5.4485   -3.8214   25.8154 N   0  0  0  0  0  0  0  0  0  0  0  0
    7.6626   -0.9081   22.3498 N   0  0  0  0  0  0  0  0  0  0  0  0
    7.6023    0.0574   21.4170 N   0  0  0  0  0  0  0  0  0  0  0  0
   10.3724   -2.3107   22.9659 N   0  0  0  0  0  0  0  0  0  0  0  0
    7.4802   -3.2842   22.2104 N   0  0  0  0  0  0  0  0  0  0  0  0
    5.9654   -4.3090   20.7181 O   0  0  0  0  0  0  0  0  0  0  0  0
    8.8281   -1.4912   24.5324 O   0  0  0  0  0  0  0  0  0  0  0  0
   14.6404    1.8000   23.0370 Cl  0  0  0  0  0  0  0  0  0  0  0  0
    7.7079    1.0189   21.7164 H   0  0  0  0  0  0  0  0  0  0  0  0
   10.5164   -3.0972   22.3361 H   0  0  0  0  0  0  0  0  0  0  0  0
  1  2  2  0  0  0  0
  1  8  1  0  0  0  0
  2 10  1  0  0  0  0
  3  5  2  0  0  0  0
  3 11  1  0  0  0  0
  4  6  1  0  0  0  0
  4 11  2  0  0  0  0
  5 12  1  0  0  0  0
  6 12  2  0  0  0  0
  7 13  2  0  0  0  0
  7 14  1  0  0  0  0
  8 24  2  0  0  0  0
  9 10  2  0  0  0  0
  9 24  1  0  0  0  0
 10 22  1  0  0  0  0
 11 27  1  0  0  0  0
 12 31  1  0  0  0  0
 13 23  1  0  0  0  0
 13 26  1  0  0  0  0
 14 25  2  0  0  0  0
 14 28  1  0  0  0  0
 15 16  2  0  0  0  0
 16 17  1  0  0  0  0
 17 28  1  0  0  0  0
 17 29  2  0  0  0  0
 18 22  1  0  0  0  0
 18 27  1  0  0  0  0
 18 30  2  0  0  0  0
 19 23  1  0  0  0  0
 20 23  1  0  0  0  0
 21 23  1  0  0  0  0
 22 28  1  0  0  0  0
 25 26  1  0  0  0  0
 26 32  1  0  0  0  0
 27 33  1  0  0  0  0
M  END
> <ref_mols>
x2706_0

> <original SMILES>
CC(C)(C)C=1C=C(NN1)N(C(C(=O)NC=2C=CC(Cl)=CC2)C=3C=CC=NC3)C(=O)C=C

> <Chemgauss4>
-7.264618

> <ref_pdb>
x1418_0

> <CYS145-warhead dist minimum (A)>
8.972496

> <CYS145-warhead dist mean (A)>
9.847759

> <CYS145-warhead dist stddev (A)>
0.3244747

$$$$
x2538
  -OEChem-05172015543D

 33 35  0     1  0  0  0  0  0999 V2000
    7.2246   -5.2573   26.6081 C   0  0  0  0  0  0  0  0  0  0  0  0
    8.0158   -4.8885   25.5258 C   0  0  0  0  0  0  0  0  0  0  0  0
   12.5121   -1.4728   22.1648 C   0  0  0  0  0  0  0  0  0  0  0  0
   11.2753   -0.2174   23.8174 C   0  0  0  0  0  0  0  0  0  0  0  0
   13.5167   -0.5053   22.1816 C   0  0  0  0  0  0  0  0  0  0  0  0
   12.2799    0.7501   23.8343 C   0  0  0  0  0  0  0  0  0  0  0  0
    7.3226   -1.7769   20.2648 C   0  0  0  0  0  0  0  0  0  0  0  0
    5.9597   -4.7003   26.7063 C   0  0  0  0  0  0  0  0  0  0  0  0
    6.2466   -3.4868   24.7768 C   0  0  0  0  0  0  0  0  0  0  0  0
    7.5250   -3.9868   24.5882 C   0  0  0  0  0  0  0  0  0  0  0  0
   11.3914   -1.3289   22.9827 C   0  0  0  0  0  0  0  0  0  0  0  0
   13.4006    0.6062   23.0163 C   0  0  0  0  0  0  0  0  0  0  0  0
    7.3997   -0.4102   20.1519 C   0  0  0  0  0  0  0  0  0  0  0  0
    7.4911   -2.0265   21.6400 C   0  0  0  0  0  0  0  0  0  0  0  0
    5.8224   -6.5752   22.3826 C   0  0  0  0  0  0  0  0  0  0  0  0
    6.8450   -5.7143   22.3819 C   0  0  0  0  0  0  0  0  0  0  0  0
    6.7224   -4.4003   21.6849 C   0  0  0  0  0  0  0  0  0  0  0  0
    9.1957   -2.3265   23.7106 C   0  0  0  0  0  0  0  0  0  0  0  0
    5.9236    0.3538   18.2591 C   0  0  0  0  0  0  0  0  0  0  0  0
    8.4124    0.1841   17.9230 C   0  0  0  0  0  0  0  0  0  0  0  0
    7.4496    2.0247   19.2892 C   0  0  0  0  0  0  0  0  0  0  0  0
    8.3608   -3.5662   23.3995 C   0  0  2  0  0  0  0  0  0  0  0  0
    7.2998    0.5272   18.9372 C   0  0  0  0  0  0  0  0  0  0  0  0
    5.4485   -3.8214   25.8154 N   0  0  0  0  0  0  0  0  0  0  0  0
    7.6626   -0.9081   22.3498 N   0  0  0  0  0  0  0  0  0  0  0  0
    7.6023    0.0574   21.4170 N   0  0  0  0  0  0  0  0  0  0  0  0
   10.3724   -2.3107   22.9659 N   0  0  0  0  0  0  0  0  0  0  0  0
    7.4802   -3.2842   22.2104 N   0  0  0  0  0  0  0  0  0  0  0  0
    5.9654   -4.3090   20.7181 O   0  0  0  0  0  0  0  0  0  0  0  0
    8.8281   -1.4912   24.5324 O   0  0  0  0  0  0  0  0  0  0  0  0
   14.6404    1.8000   23.0370 Cl  0  0  0  0  0  0  0  0  0  0  0  0
    7.7079    1.0189   21.7164 H   0  0  0  0  0  0  0  0  0  0  0  0
   10.5164   -3.0972   22.3361 H   0  0  0  0  0  0  0  0  0  0  0  0
  1  2  2  0  0  0  0
  1  8  1  0  0  0  0
  2 10  1  0  0  0  0
  3  5  2  0  0  0  0
  3 11  1  0  0  0  0
  4  6  1  0  0  0  0
  4 11  2  0  0  0  0
  5 12  1  0  0  0  0
  6 12  2  0  0  0  0
  7 13  2  0  0  0  0
  7 14  1  0  0  0  0
  8 24  2  0  0  0  0
  9 10  2  0  0  0  0
  9 24  1  0  0  0  0
 10 22  1  0  0  0  0
 11 27  1  0  0  0  0
 12 31  1  0  0  0  0
 13 23  1  0  0  0  0
 13 26  1  0  0  0  0
 14 25  2  0  0  0  0
 14 28  1  0  0  0  0
 15 16  2  0  0  0  0
 16 17  1  0  0  0  0
 17 28  1  0  0  0  0
 17 29  2  0  0  0  0
 18 22  1  0  0  0  0
 18 27  1  0  0  0  0
 18 30  2  0  0  0  0
 19 23  1  0  0  0  0
 20 23  1  0  0  0  0
 21 23  1  0  0  0  0
 22 28  1  0  0  0  0
 25 26  1  0  0  0  0
 26 32  1  0  0  0  0
 27 33  1  0  0  0  0
M  END
> <ref_mols>
x2538_0

> <original SMILES>
CC(C)(C)C=1C=C(NN1)N(C(C(=O)NC=2C=CC(Cl)=CC2)C=3C=CC=NC3)C(=O)C=C

> <Chemgauss4>
-7.264618

> <ref_pdb>
x1418_0

$$$$
x0133
  -OEChem-05172015543D

 15 16  0     0  0  0  0  0  0999 V2000
   14.2734   -1.7613   22.2783 C   0  0  0  0  0  0  0  0  0  0  0  0
   13.9652   -0.7219   23.1764 C   0  0  0  0  0  0  0  0  0  0  0  0
   12.5929   -0.7120   23.2321 C   0  0  0  0  0  0  0  0  0  0  0  0
   11.7004    0.1631   24.0099 C   0  0  0  0  0  0  0  0  0  0  0  0
   11.7732    4.4842   23.3866 C   0  0  0  0  0  0  0  0  0  0  0  0
   10.5245    3.6867   23.7651 C   0  0  0  0  0  0  0  0  0  0  0  0
   13.0262    3.6155   23.2734 C   0  0  0  0  0  0  0  0  0  0  0  0
   10.8689    2.4220   24.5402 C   0  0  0  0  0  0  0  0  0  0  0  0
   12.6972    2.1891   22.8479 C   0  0  0  0  0  0  0  0  0  0  0  0
   10.8153   -2.0929   22.1150 C   0  0  0  0  0  0  0  0  0  0  0  0
   13.1845   -2.3678   21.7982 N   0  0  0  0  0  0  0  0  0  0  0  0
   12.1787   -1.7075   22.3968 N   0  0  0  0  0  0  0  0  0  0  0  0
   11.7571    1.5418   23.7767 N   0  0  0  0  0  0  0  0  0  0  0  0
   10.9542   -0.3891   24.8175 O   0  0  0  0  0  0  0  0  0  0  0  0
   15.0788    0.2653   23.9807 Cl  0  0  0  0  0  0  0  0  0  0  0  0
  1  2  1  0  0  0  0
  1 11  2  0  0  0  0
  2  3  2  0  0  0  0
  2 15  1  0  0  0  0
  3  4  1  0  0  0  0
  3 12  1  0  0  0  0
  4 13  1  0  0  0  0
  4 14  2  0  0  0  0
  5  6  1  0  0  0  0
  5  7  1  0  0  0  0
  6  8  1  0  0  0  0
  7  9  1  0  0  0  0
  8 13  1  0  0  0  0
  9 13  1  0  0  0  0
 10 12  1  0  0  0  0
 11 12  1  0  0  0  0
M  END
> <ref_mols>
x0133_0

> <original SMILES>
CN1N=CC(Cl)=C1C(=O)N2CCCCC2

> <Chemgauss4>
-7.257348

> <ref_pdb>
x0195_0

$$$$
x0835
  -OEChem-05172015543D

 14 14  0     1  0  0  0  0  0999 V2000
   14.3893   -1.9494   23.8689 C   0  0  0  0  0  0  0  0  0  0  0  0
   14.0406   -0.7101   24.6824 C   0  0  0  0  0  0  0  0  0  0  0  0
   14.3883   -1.6111   22.3841 C   0  0  0  0  0  0  0  0  0  0  0  0
   12.6994   -0.0910   24.2820 C   0  0  2  0  0  0  0  0  0  0  0  0
   13.0587   -1.0223   21.9069 C   0  0  1  0  0  0  0  0  0  0  0  0
   11.5057   -0.8537   24.8477 C   0  0  0  0  0  0  0  0  0  0  0  0
   12.0307    2.6560   22.9980 C   0  0  0  0  0  0  0  0  0  0  0  0
   11.9800   -2.0829   21.7123 C   0  0  0  0  0  0  0  0  0  0  0  0
   12.6148    0.0905   22.8007 N   0  0  1  0  0  0  0  0  0  0  0  0
   10.1729    0.8349   22.7545 O   0  0  0  0  0  0  0  0  0  0  0  0
   11.6678    1.3272   20.7776 O   0  0  0  0  0  0  0  0  0  0  0  0
   10.7938   -1.4416   21.2837 O   0  0  0  0  0  0  0  0  0  0  0  0
   11.4538    1.1859   22.1955 S   0  0  0  0  0  0  0  0  0  0  0  0
   10.1205   -2.1337   21.1658 H   0  0  0  0  0  0  0  0  0  0  0  0
  1  2  1  0  0  0  0
  1  3  1  0  0  0  0
  2  4  1  0  0  0  0
  3  5  1  0  0  0  0
  4  6  1  0  0  0  0
  4  9  1  0  0  0  0
  5  8  1  0  0  0  0
  5  9  1  0  0  0  0
  7 13  1  0  0  0  0
  8 12  1  0  0  0  0
  9 13  1  0  0  0  0
 10 13  2  0  0  0  0
 11 13  2  0  0  0  0
 12 14  1  0  0  0  0
M  END
> <ref_mols>
x0835_0

> <original SMILES>
OC[C@H]1N(S(C)(=O)=O)[C@@H](C)CCC1

> <Chemgauss4>
-7.254049

> <ref_pdb>
x0678_0

$$$$
x0145
  -OEChem-05172015543D

 15 15  0     0  0  0  0  0  0999 V2000
   14.4872   -0.0410   22.0077 C   0  0  0  0  0  0  0  0  0  0  0  0
   14.1170    1.2903   22.1978 C   0  0  0  0  0  0  0  0  0  0  0  0
   13.6862   -1.0663   22.5106 C   0  0  0  0  0  0  0  0  0  0  0  0
   12.1448    0.5711   23.3938 C   0  0  0  0  0  0  0  0  0  0  0  0
   12.9458    1.5964   22.8909 C   0  0  0  0  0  0  0  0  0  0  0  0
   12.5150   -0.7603   23.2036 C   0  0  0  0  0  0  0  0  0  0  0  0
   10.9028    0.8705   24.1319 C   0  0  0  0  0  0  0  0  0  0  0  0
   13.2824    4.0749   22.6305 C   0  0  0  0  0  0  0  0  0  0  0  0
   12.5701    5.3439   23.0262 C   0  0  0  0  0  0  0  0  0  0  0  0
   12.5946    2.9374   23.0689 N   0  0  0  0  0  0  0  0  0  0  0  0
   10.1982   -0.1098   24.5756 O   0  5  0  0  0  0  0  0  0  0  0  0
   10.5699    2.1008   24.3044 O   0  0  0  0  0  0  0  0  0  0  0  0
   14.3326    4.1153   21.9978 O   0  0  0  0  0  0  0  0  0  0  0  0
   11.7531   -1.7540   23.6823 F   0  0  0  0  0  0  0  0  0  0  0  0
   11.7253    3.1138   23.5836 H   0  0  0  0  0  0  0  0  0  0  0  0
  1  2  2  0  0  0  0
  1  3  1  0  0  0  0
  2  5  1  0  0  0  0
  3  6  2  0  0  0  0
  4  5  2  0  0  0  0
  4  6  1  0  0  0  0
  4  7  1  0  0  0  0
  5 10  1  0  0  0  0
  6 14  1  0  0  0  0
  7 11  1  0  0  0  0
  7 12  2  0  0  0  0
  8  9  1  0  0  0  0
  8 10  1  0  0  0  0
  8 13  2  0  0  0  0
 10 15  1  0  0  0  0
M  CHG  1  11  -1
M  END
> <ref_mols>
x0145_0

> <original SMILES>
CC(=O)NC=1C=CC=C(F)C1C(=O)O

> <Chemgauss4>
-7.250247

> <ref_pdb>
x0195_0

$$$$
x2612
  -OEChem-05172015543D

 21 22  0     0  0  0  0  0  0999 V2000
    5.9587   -4.7623   20.8709 C   0  0  0  0  0  0  0  0  0  0  0  0
   14.5318   -2.8827   26.5033 C   0  0  0  0  0  0  0  0  0  0  0  0
   13.3516   -3.0977   25.8004 C   0  0  0  0  0  0  0  0  0  0  0  0
    7.6946   -3.9109   22.3682 C   0  0  0  0  0  0  0  0  0  0  0  0
    6.0641   -5.4847   23.2055 C   0  0  0  0  0  0  0  0  0  0  0  0
    7.7859   -4.6342   24.6715 C   0  0  0  0  0  0  0  0  0  0  0  0
   14.9277   -1.5728   26.7209 C   0  0  0  0  0  0  0  0  0  0  0  0
   13.0952   -0.7407   25.6127 C   0  0  0  0  0  0  0  0  0  0  0  0
    6.5773   -4.7190   22.1586 C   0  0  0  0  0  0  0  0  0  0  0  0
   12.6136   -2.0116   25.3430 C   0  0  0  0  0  0  0  0  0  0  0  0
    8.2990   -3.8685   23.6246 C   0  0  0  0  0  0  0  0  0  0  0  0
    6.6684   -5.4423   24.4620 C   0  0  0  0  0  0  0  0  0  0  0  0
   10.4918   -3.2559   24.7362 C   0  0  0  0  0  0  0  0  0  0  0  0
    5.4566   -4.7975   19.8252 N   0  0  0  0  0  0  0  0  0  0  0  0
   14.2373   -0.4924   26.2921 N   0  0  0  0  0  0  0  0  0  0  0  0
   11.4090   -2.1987   24.6248 N   0  0  0  0  0  0  0  0  0  0  0  0
    9.4169   -3.0607   23.8348 N   0  0  0  0  0  0  0  0  0  0  0  0
   10.5989   -4.2108   25.4991 O   0  0  0  0  0  0  0  0  0  0  0  0
    6.0356   -6.3876   25.7538 Cl  0  0  0  0  0  0  0  0  0  0  0  0
   11.1792   -1.4789   23.9443 H   0  0  0  0  0  0  0  0  0  0  0  0
    9.4806   -2.2094   23.2664 H   0  0  0  0  0  0  0  0  0  0  0  0
  1  9  1  0  0  0  0
  1 14  3  0  0  0  0
  2  3  2  0  0  0  0
  2  7  1  0  0  0  0
  3 10  1  0  0  0  0
  4  9  2  0  0  0  0
  4 11  1  0  0  0  0
  5  9  1  0  0  0  0
  5 12  2  0  0  0  0
  6 11  2  0  0  0  0
  6 12  1  0  0  0  0
  7 15  2  0  0  0  0
  8 10  2  0  0  0  0
  8 15  1  0  0  0  0
 10 16  1  0  0  0  0
 11 17  1  0  0  0  0
 12 19  1  0  0  0  0
 13 16  1  0  0  0  0
 13 17  1  0  0  0  0
 13 18  2  0  0  0  0
 16 20  1  0  0  0  0
 17 21  1  0  0  0  0
M  END
> <ref_mols>
x2612_0

> <original SMILES>
ClC=1C=C(NC(=O)NC=2C=CC=NC2)C=C(C#N)C1

> <Chemgauss4>
-7.243569

> <ref_pdb>
x0749_0

$$$$
x0622
  -OEChem-05172015543D

 18 18  0     0  0  0  0  0  0999 V2000
   13.6683   -1.0025   22.9779 C   0  0  0  0  0  0  0  0  0  0  0  0
   14.3559   -0.0235   22.2607 C   0  0  0  0  0  0  0  0  0  0  0  0
   12.5342   -0.6603   23.7143 C   0  0  0  0  0  0  0  0  0  0  0  0
   13.9093    1.2979   22.2800 C   0  0  0  0  0  0  0  0  0  0  0  0
   12.0876    0.6611   23.7336 C   0  0  0  0  0  0  0  0  0  0  0  0
   12.7752    1.6401   23.0165 C   0  0  0  0  0  0  0  0  0  0  0  0
   10.8993    0.9850   24.5131 C   0  0  0  0  0  0  0  0  0  0  0  0
   13.1241    4.1278   22.8931 C   0  0  0  0  0  0  0  0  0  0  0  0
   12.4608    5.8923   25.2383 C   0  0  0  0  0  0  0  0  0  0  0  0
   12.2861    5.3865   22.9499 C   0  0  0  0  0  0  0  0  0  0  0  0
   10.2754   -0.0519   25.1977 N   0  0  0  0  0  0  0  0  0  0  0  0
   12.3473    2.9706   23.0227 N   0  0  0  0  0  0  0  0  0  0  0  0
   10.4490    2.1417   24.5520 O   0  0  0  0  0  0  0  0  0  0  0  0
   14.3416    4.1959   22.7537 O   0  0  0  0  0  0  0  0  0  0  0  0
   11.6129    5.4305   24.1910 O   0  0  0  0  0  0  0  0  0  0  0  0
   10.6585   -0.9890   25.1364 H   0  0  0  0  0  0  0  0  0  0  0  0
    9.4445    0.1100   25.7575 H   0  0  0  0  0  0  0  0  0  0  0  0
   11.3388    3.1174   23.1364 H   0  0  0  0  0  0  0  0  0  0  0  0
  1  2  1  0  0  0  0
  1  3  2  0  0  0  0
  2  4  2  0  0  0  0
  3  5  1  0  0  0  0
  4  6  1  0  0  0  0
  5  6  2  0  0  0  0
  5  7  1  0  0  0  0
  6 12  1  0  0  0  0
  7 11  1  0  0  0  0
  7 13  2  0  0  0  0
  8 10  1  0  0  0  0
  8 12  1  0  0  0  0
  8 14  2  0  0  0  0
  9 15  1  0  0  0  0
 10 15  1  0  0  0  0
 11 16  1  0  0  0  0
 11 17  1  0  0  0  0
 12 18  1  0  0  0  0
M  END
> <ref_mols>
x0622_0

> <original SMILES>
COCC(=O)NC=1C=CC=CC1C(=O)N

> <Chemgauss4>
-7.239729

> <ref_pdb>
x0195_0

$$$$
x0115
  -OEChem-05172015543D

 13 13  0     1  0  0  0  0  0999 V2000
   14.3038   -2.0839   22.7571 C   0  0  0  0  0  0  0  0  0  0  0  0
   14.4627   -1.4528   23.9908 C   0  0  0  0  0  0  0  0  0  0  0  0
   13.3730   -1.5969   21.8394 C   0  0  0  0  0  0  0  0  0  0  0  0
   13.6909   -0.3347   24.3069 C   0  0  0  0  0  0  0  0  0  0  0  0
   12.6012   -0.4788   22.1554 C   0  0  0  0  0  0  0  0  0  0  0  0
   12.7601    0.1523   23.3891 C   0  0  0  0  0  0  0  0  0  0  0  0
    9.4298    0.6272   21.6799 C   0  0  0  0  0  0  0  0  0  0  0  0
   10.0741   -1.2394   20.0231 C   0  0  0  0  0  0  0  0  0  0  0  0
   10.3703   -0.5342   21.3333 C   0  0  1  0  0  0  0  0  0  0  0  0
    9.3445    1.5545   20.8281 O   0  5  0  0  0  0  0  0  0  0  0  0
    8.8390    0.5068   22.7923 O   0  0  0  0  0  0  0  0  0  0  0  0
   11.6930   -0.0046   21.2592 O   0  0  0  0  0  0  0  0  0  0  0  0
   12.0216    1.2269   23.6987 F   0  0  0  0  0  0  0  0  0  0  0  0
  1  2  1  0  0  0  0
  1  3  2  0  0  0  0
  2  4  2  0  0  0  0
  3  5  1  0  0  0  0
  4  6  1  0  0  0  0
  5  6  2  0  0  0  0
  5 12  1  0  0  0  0
  6 13  1  0  0  0  0
  7  9  1  0  0  0  0
  7 10  1  0  0  0  0
  7 11  2  0  0  0  0
  8  9  1  0  0  0  0
  9 12  1  0  0  0  0
M  CHG  1  10  -1
M  END
> <ref_mols>
x0115_0

> <original SMILES>
CC(OC=1C=CC=CC1F)C(=O)O

> <Chemgauss4>
-7.225757

> <ref_pdb>
x0678_0

$$$$
x0161
  -OEChem-05172015543D

 16 16  0     0  0  0  0  0  0999 V2000
   10.0004   -2.4804   23.1557 C   0  0  0  0  0  0  0  0  0  0  0  0
   10.6221   -4.2417   24.6882 C   0  0  0  0  0  0  0  0  0  0  0  0
    8.9172   -3.2429   22.7187 C   0  0  0  0  0  0  0  0  0  0  0  0
    9.5389   -5.0042   24.2512 C   0  0  0  0  0  0  0  0  0  0  0  0
   10.8529   -2.9798   24.1404 C   0  0  0  0  0  0  0  0  0  0  0  0
    8.6865   -4.5048   23.2665 C   0  0  0  0  0  0  0  0  0  0  0  0
   11.9843   -2.1863   24.5933 C   0  0  0  0  0  0  0  0  0  0  0  0
   13.8436   -2.1557   26.0881 C   0  0  0  0  0  0  0  0  0  0  0  0
    6.6467   -4.4138   21.5531 N   0  0  0  0  0  0  0  0  0  0  0  0
   12.2672   -1.0604   24.1626 O   0  0  0  0  0  0  0  0  0  0  0  0
    7.8444   -6.6430   22.0449 O   0  0  0  0  0  0  0  0  0  0  0  0
    6.3922   -5.6052   23.8231 O   0  0  0  0  0  0  0  0  0  0  0  0
   12.7015   -2.8380   25.5592 O   0  0  0  0  0  0  0  0  0  0  0  0
    7.3305   -5.4590   22.7191 S   0  0  0  0  0  0  0  0  0  0  0  0
    6.7445   -4.6673   20.5624 H   0  0  0  0  0  0  0  0  0  0  0  0
    5.7541   -3.9580   21.7788 H   0  0  0  0  0  0  0  0  0  0  0  0
  1  3  2  0  0  0  0
  1  5  1  0  0  0  0
  2  4  1  0  0  0  0
  2  5  2  0  0  0  0
  3  6  1  0  0  0  0
  4  6  2  0  0  0  0
  5  7  1  0  0  0  0
  6 14  1  0  0  0  0
  7 10  2  0  0  0  0
  7 13  1  0  0  0  0
  8 13  1  0  0  0  0
  9 14  1  0  0  0  0
 11 14  2  0  0  0  0
 12 14  2  0  0  0  0
  9 15  1  0  0  0  0
  9 16  1  0  0  0  0
M  END
> <ref_mols>
x0161_0

> <original SMILES>
COC(=O)C=1C=CC(=CC1)S(=O)(=O)N

> <Chemgauss4>
-7.223508

> <ref_pdb>
x0749_0

$$$$
x0224
  -OEChem-05172015543D

 15 15  0     0  0  0  0  0  0999 V2000
   13.3394   -0.4408   24.3202 C   0  0  0  0  0  0  0  0  0  0  0  0
   12.3092    0.0405   23.5123 C   0  0  0  0  0  0  0  0  0  0  0  0
   14.2402   -1.3793   23.8167 C   0  0  0  0  0  0  0  0  0  0  0  0
   13.0805   -1.3553   21.6974 C   0  0  0  0  0  0  0  0  0  0  0  0
   12.1798   -0.4167   22.2009 C   0  0  0  0  0  0  0  0  0  0  0  0
   14.1107   -1.8365   22.5053 C   0  0  0  0  0  0  0  0  0  0  0  0
   11.1059    0.0852   21.3584 C   0  0  0  0  0  0  0  0  0  0  0  0
    9.1147   -1.4393   23.5067 C   0  0  0  0  0  0  0  0  0  0  0  0
    8.7445   -0.1400   20.5493 C   0  0  0  0  0  0  0  0  0  0  0  0
    9.6381   -1.7894   22.1554 C   0  0  0  0  0  0  0  0  0  0  0  0
   15.0214   -2.7855   21.9965 N   0  0  0  0  0  0  0  0  0  0  0  0
    9.8718   -0.5904   21.3536 N   0  0  0  0  0  0  0  0  0  0  0  0
   11.3424    1.1027   20.6937 O   0  0  0  0  0  0  0  0  0  0  0  0
   15.7832   -3.0872   22.5698 H   0  0  0  0  0  0  0  0  0  0  0  0
   14.9464   -3.0698   21.0406 H   0  0  0  0  0  0  0  0  0  0  0  0
  1  2  2  0  0  0  0
  1  3  1  0  0  0  0
  2  5  1  0  0  0  0
  3  6  2  0  0  0  0
  4  5  2  0  0  0  0
  4  6  1  0  0  0  0
  5  7  1  0  0  0  0
  6 11  1  0  0  0  0
  7 12  1  0  0  0  0
  7 13  2  0  0  0  0
  8 10  1  0  0  0  0
  9 12  1  0  0  0  0
 10 12  1  0  0  0  0
 11 14  1  0  0  0  0
 11 15  1  0  0  0  0
M  END
> <ref_mols>
x0224_0

> <original SMILES>
CCN(C)C(=O)C=1C=CC=C(N)C1

> <Chemgauss4>
-7.223125

> <ref_pdb>
x0678_0

$$$$
x0353
  -OEChem-05172015543D

 15 16  0     0  0  0  0  0  0999 V2000
    8.5001   -2.5628   22.5194 C   0  0  0  0  0  0  0  0  0  0  0  0
    9.1870   -4.5242   23.2376 C   0  0  0  0  0  0  0  0  0  0  0  0
    9.4744   -3.1839   23.3236 C   0  0  0  0  0  0  0  0  0  0  0  0
   11.4717   -3.2366   24.8508 C   0  0  0  0  0  0  0  0  0  0  0  0
   14.2689   -1.1419   25.3059 C   0  0  0  0  0  0  0  0  0  0  0  0
   13.9349   -2.6222   25.5681 C   0  0  0  0  0  0  0  0  0  0  0  0
   12.8919   -1.0252   24.6261 C   0  0  0  0  0  0  0  0  0  0  0  0
   12.4356   -2.2321   25.4875 C   0  0  0  0  0  0  0  0  0  0  0  0
    6.4626   -5.6151   20.8765 C   0  0  0  0  0  0  0  0  0  0  0  0
    7.4277   -5.8364   22.0286 C   0  0  0  0  0  0  0  0  0  0  0  0
    7.6570   -3.4367   21.9632 N   0  0  0  0  0  0  0  0  0  0  0  0
    8.1007   -4.6207   22.4186 N   0  0  0  0  0  0  0  0  0  0  0  0
   10.5240   -2.5923   24.0658 N   0  0  0  0  0  0  0  0  0  0  0  0
   11.5925   -4.4400   25.0562 O   0  0  0  0  0  0  0  0  0  0  0  0
   10.5801   -1.5776   24.0086 H   0  0  0  0  0  0  0  0  0  0  0  0
  1  3  1  0  0  0  0
  1 11  2  0  0  0  0
  2  3  2  0  0  0  0
  2 12  1  0  0  0  0
  3 13  1  0  0  0  0
  4  8  1  0  0  0  0
  4 13  1  0  0  0  0
  4 14  2  0  0  0  0
  5  6  1  0  0  0  0
  5  7  1  0  0  0  0
  6  8  1  0  0  0  0
  7  8  1  0  0  0  0
  9 10  1  0  0  0  0
 10 12  1  0  0  0  0
 11 12  1  0  0  0  0
 13 15  1  0  0  0  0
M  END
> <ref_mols>
x0353_0

> <original SMILES>
CCN1C=C(NC(=O)C2CCC2)C=N1

> <Chemgauss4>
-7.222250

> <ref_pdb>
x0749_0

$$$$
x0995
  -OEChem-05172015543D

  9  9  0     0  0  0  0  0  0999 V2000
    5.5047    0.9098   20.1824 C   0  0  0  0  0  0  0  0  0  0  0  0
    5.7882    0.8214   17.8654 C   0  0  0  0  0  0  0  0  0  0  0  0
    7.3843    0.0154   19.2690 C   0  0  0  0  0  0  0  0  0  0  0  0
    4.9914    1.1859   18.9315 C   0  0  0  0  0  0  0  0  0  0  0  0
    6.7021    0.3233   20.3885 N   0  0  0  0  0  0  0  0  0  0  0  0
    6.9946    0.2322   17.9982 N   0  0  0  0  0  0  0  0  0  0  0  0
    3.7461    1.7968   18.7560 N   0  0  0  0  0  0  0  0  0  0  0  0
    3.1744    2.0061   19.5568 H   0  0  0  0  0  0  0  0  0  0  0  0
    3.3854    1.9388   17.8277 H   0  0  0  0  0  0  0  0  0  0  0  0
  1  4  1  0  0  0  0
  1  5  2  0  0  0  0
  2  4  2  0  0  0  0
  2  6  1  0  0  0  0
  3  5  1  0  0  0  0
  3  6  2  0  0  0  0
  4  7  1  0  0  0  0
  7  8  1  0  0  0  0
  7  9  1  0  0  0  0
M  END
> <ref_mols>
x0995_0

> <original SMILES>
NC=1C=NC=NC1

> <Chemgauss4>
-7.222010

> <ref_pdb>
x0426_0

$$$$
x0037
  -OEChem-05172015543D

 13 13  0     0  0  0  0  0  0999 V2000
   13.1158    2.9040   22.2221 C   0  0  0  0  0  0  0  0  0  0  0  0
   13.7068    1.6696   22.4911 C   0  0  0  0  0  0  0  0  0  0  0  0
   11.9070    3.2455   22.8286 C   0  0  0  0  0  0  0  0  0  0  0  0
   13.0890    0.7765   23.3666 C   0  0  0  0  0  0  0  0  0  0  0  0
   11.2891    2.3525   23.7040 C   0  0  0  0  0  0  0  0  0  0  0  0
   11.8801    1.1180   23.9730 C   0  0  0  0  0  0  0  0  0  0  0  0
   13.7309   -0.5050   23.6290 C   0  0  0  0  0  0  0  0  0  0  0  0
    9.9961    2.7432   24.3419 C   0  0  0  0  0  0  0  0  0  0  0  0
   11.2147    0.1626   24.9130 C   0  0  0  0  0  0  0  0  0  0  0  0
   14.0267   -2.9105   22.9953 C   0  0  0  0  0  0  0  0  0  0  0  0
   12.4559   -1.5024   21.7113 C   0  0  0  0  0  0  0  0  0  0  0  0
   13.4164   -1.6017   22.8081 N   0  0  0  0  0  0  0  0  0  0  0  0
   14.5365   -0.5448   24.5668 O   0  0  0  0  0  0  0  0  0  0  0  0
  1  2  2  0  0  0  0
  1  3  1  0  0  0  0
  2  4  1  0  0  0  0
  3  5  2  0  0  0  0
  4  6  2  0  0  0  0
  4  7  1  0  0  0  0
  5  6  1  0  0  0  0
  5  8  1  0  0  0  0
  6  9  1  0  0  0  0
  7 12  1  0  0  0  0
  7 13  2  0  0  0  0
 10 12  1  0  0  0  0
 11 12  1  0  0  0  0
M  END
> <ref_mols>
x0037_0

> <original SMILES>
CN(C)C(=O)C=1C=CC=C(C)C1C

> <Chemgauss4>
-7.220438

> <ref_pdb>
x0195_0

$$$$
x0406
  -OEChem-05172015543D

 16 17  0     0  0  0  0  0  0999 V2000
    6.5200    0.5644   20.2699 C   0  0  0  0  0  0  0  0  0  0  0  0
    7.5197    0.5329   21.2112 C   0  0  0  0  0  0  0  0  0  0  0  0
    8.6926    0.2923   20.4709 C   0  0  0  0  0  0  0  0  0  0  0  0
   10.0835    0.1597   20.9759 C   0  0  0  0  0  0  0  0  0  0  0  0
   13.9897   -1.1385   22.2524 C   0  0  0  0  0  0  0  0  0  0  0  0
   13.6379   -0.1772   23.3911 C   0  0  0  0  0  0  0  0  0  0  0  0
   12.6948   -1.3648   21.4764 C   0  0  0  0  0  0  0  0  0  0  0  0
   12.1490    0.1249   23.2430 C   0  0  0  0  0  0  0  0  0  0  0  0
   11.6059   -1.0943   22.5076 C   0  0  0  0  0  0  0  0  0  0  0  0
    6.4881    0.2946   17.7789 C   0  0  0  0  0  0  0  0  0  0  0  0
    8.4611    0.1789   19.1603 N   0  0  0  0  0  0  0  0  0  0  0  0
    7.1310    0.3488   19.0698 N   0  0  0  0  0  0  0  0  0  0  0  0
   10.3077   -0.8537   21.9036 N   0  0  0  0  0  0  0  0  0  0  0  0
   10.9433    0.9415   20.5784 O   0  0  0  0  0  0  0  0  0  0  0  0
    7.3841    0.7368   22.8849 Cl  0  0  0  0  0  0  0  0  0  0  0  0
    9.5229   -1.4194   22.2274 H   0  0  0  0  0  0  0  0  0  0  0  0
  1  2  2  0  0  0  0
  1 12  1  0  0  0  0
  2  3  1  0  0  0  0
  2 15  1  0  0  0  0
  3  4  1  0  0  0  0
  3 11  2  0  0  0  0
  4 13  1  0  0  0  0
  4 14  2  0  0  0  0
  5  6  1  0  0  0  0
  5  7  1  0  0  0  0
  6  8  1  0  0  0  0
  7  9  1  0  0  0  0
  8  9  1  0  0  0  0
  9 13  1  0  0  0  0
 10 12  1  0  0  0  0
 11 12  1  0  0  0  0
 13 16  1  0  0  0  0
M  END
> <ref_mols>
x0406_0

> <original SMILES>
CN1C=C(Cl)C(=N1)C(=O)NC2CCCC2

> <Chemgauss4>
-7.210559

> <ref_pdb>
x0678_0

$$$$
x1291
  -OEChem-05172015543D

 15 15  0     0  0  0  0  0  0999 V2000
   11.4730    4.2751   23.5787 C   0  0  0  0  0  0  0  0  0  0  0  0
   11.6402    1.9337   23.3396 C   0  0  0  0  0  0  0  0  0  0  0  0
   13.3933    0.2672   22.6531 C   0  0  0  0  0  0  0  0  0  0  0  0
   12.5007    6.1708   24.8580 C   0  0  0  0  0  0  0  0  0  0  0  0
   11.7000    5.7331   23.6271 C   0  0  0  0  0  0  0  0  0  0  0  0
   13.5008   -1.2231   22.4875 C   0  0  0  0  0  0  0  0  0  0  0  0
   10.3436    3.6718   23.8828 N   0  0  0  0  0  0  0  0  0  0  0  0
   10.4420    2.2984   23.7435 N   0  0  0  0  0  0  0  0  0  0  0  0
   12.1226    0.6295   23.0793 N   0  0  0  0  0  0  0  0  0  0  0  0
   14.3496    0.9977   22.4170 O   0  0  0  0  0  0  0  0  0  0  0  0
   12.3384   -1.8546   22.7921 F   0  0  0  0  0  0  0  0  0  0  0  0
   13.8161   -1.5695   21.2134 F   0  0  0  0  0  0  0  0  0  0  0  0
   14.4583   -1.7577   23.2874 F   0  0  0  0  0  0  0  0  0  0  0  0
   12.7417    3.2258   23.0979 S   0  0  0  0  0  0  0  0  0  0  0  0
   11.4615   -0.1315   23.2208 H   0  0  0  0  0  0  0  0  0  0  0  0
  1  5  1  0  0  0  0
  1  7  2  0  0  0  0
  1 14  1  0  0  0  0
  2  8  2  0  0  0  0
  2  9  1  0  0  0  0
  2 14  1  0  0  0  0
  3  6  1  0  0  0  0
  3  9  1  0  0  0  0
  3 10  2  0  0  0  0
  4  5  1  0  0  0  0
  6 11  1  0  0  0  0
  6 12  1  0  0  0  0
  6 13  1  0  0  0  0
  7  8  1  0  0  0  0
  9 15  1  0  0  0  0
M  END
> <ref_mols>
x1291_0

> <original SMILES>
CCC1=NN=C(NC(=O)C(F)(F)F)S1

> <Chemgauss4>
-7.210151

> <ref_pdb>
x0195_0

$$$$
x0542
  -OEChem-05172015543D

 15 15  0     0  0  0  0  0  0999 V2000
   11.4730    4.2751   23.5787 C   0  0  0  0  0  0  0  0  0  0  0  0
   11.6402    1.9337   23.3396 C   0  0  0  0  0  0  0  0  0  0  0  0
   13.3933    0.2672   22.6531 C   0  0  0  0  0  0  0  0  0  0  0  0
   12.5007    6.1708   24.8580 C   0  0  0  0  0  0  0  0  0  0  0  0
   11.7000    5.7331   23.6271 C   0  0  0  0  0  0  0  0  0  0  0  0
   13.5008   -1.2231   22.4875 C   0  0  0  0  0  0  0  0  0  0  0  0
   10.3436    3.6718   23.8828 N   0  0  0  0  0  0  0  0  0  0  0  0
   10.4420    2.2984   23.7435 N   0  0  0  0  0  0  0  0  0  0  0  0
   12.1226    0.6295   23.0793 N   0  0  0  0  0  0  0  0  0  0  0  0
   14.3496    0.9977   22.4170 O   0  0  0  0  0  0  0  0  0  0  0  0
   12.3384   -1.8546   22.7921 F   0  0  0  0  0  0  0  0  0  0  0  0
   13.8161   -1.5695   21.2134 F   0  0  0  0  0  0  0  0  0  0  0  0
   14.4583   -1.7577   23.2874 F   0  0  0  0  0  0  0  0  0  0  0  0
   12.7417    3.2258   23.0979 S   0  0  0  0  0  0  0  0  0  0  0  0
   11.4615   -0.1315   23.2208 H   0  0  0  0  0  0  0  0  0  0  0  0
  1  5  1  0  0  0  0
  1  7  2  0  0  0  0
  1 14  1  0  0  0  0
  2  8  2  0  0  0  0
  2  9  1  0  0  0  0
  2 14  1  0  0  0  0
  3  6  1  0  0  0  0
  3  9  1  0  0  0  0
  3 10  2  0  0  0  0
  4  5  1  0  0  0  0
  6 11  1  0  0  0  0
  6 12  1  0  0  0  0
  6 13  1  0  0  0  0
  7  8  1  0  0  0  0
  9 15  1  0  0  0  0
M  END
> <ref_mols>
x0542_0

> <original SMILES>
CCC1=NN=C(NC(=O)C(F)(F)F)S1

> <Chemgauss4>
-7.210151

> <ref_pdb>
x0195_0

$$$$
x0401
  -OEChem-05172015543D

 17 18  0     1  0  0  0  0  0999 V2000
   13.7335   -0.8663   22.5467 C   0  0  0  0  0  0  0  0  0  0  0  0
   13.4724   -0.7887   24.7286 C   0  0  0  0  0  0  0  0  0  0  0  0
   13.4644    0.0125   23.6130 C   0  0  0  0  0  0  0  0  0  0  0  0
   13.0330    3.5239   22.4223 C   0  0  0  0  0  0  0  0  0  0  0  0
   12.3457    4.3121   23.5312 C   0  0  0  0  0  0  0  0  0  0  0  0
   10.4380    2.6803   23.5321 C   0  0  0  0  0  0  0  0  0  0  0  0
   11.1120    1.8758   22.4164 C   0  0  1  0  0  0  0  0  0  0  0  0
   12.6435    2.0429   22.4174 C   0  0  2  0  0  0  0  0  0  0  0  0
   10.6833    0.4080   22.4839 C   0  0  0  0  0  0  0  0  0  0  0  0
   13.8465   -3.2407   25.0875 C   0  0  0  0  0  0  0  0  0  0  0  0
   10.1190    4.9876   24.4226 C   0  0  0  0  0  0  0  0  0  0  0  0
   13.9005   -2.1290   22.9487 N   0  0  0  0  0  0  0  0  0  0  0  0
   13.7359   -2.0495   24.2801 N   0  0  0  0  0  0  0  0  0  0  0  0
   13.2417    1.3752   23.5581 N   0  0  0  0  0  0  0  0  0  0  0  0
   10.8518    4.1298   23.4278 N   0  3  1  0  0  0  0  0  0  0  0  0
   13.5078    1.9441   24.3499 H   0  0  0  0  0  0  0  0  0  0  0  0
   10.5678    4.4613   22.4955 H   0  0  0  0  0  0  0  0  0  0  0  0
  1  3  1  0  0  0  0
  1 12  2  0  0  0  0
  2  3  2  0  0  0  0
  2 13  1  0  0  0  0
  3 14  1  0  0  0  0
  4  5  1  0  0  0  0
  4  8  1  0  0  0  0
  5 15  1  0  0  0  0
  6  7  1  0  0  0  0
  6 15  1  0  0  0  0
  7  8  1  0  0  0  0
  7  9  1  0  0  0  0
  8 14  1  0  0  0  0
 10 13  1  0  0  0  0
 11 15  1  0  0  0  0
 12 13  1  0  0  0  0
 14 16  1  0  0  0  0
 15 17  1  0  0  0  0
M  CHG  1  15   1
M  END
> <ref_mols>
x0401_0

> <original SMILES>
CC1CN(C)CCC1NC=2C=NN(C)C2

> <Chemgauss4>
-7.209391

> <ref_pdb>
x0161_0

$$$$
x0187
  -OEChem-05172015543D

 11 11  0     0  0  0  0  0  0999 V2000
   12.5198    1.7425   23.2621 C   0  0  0  0  0  0  0  0  0  0  0  0
   14.2966    0.0176   22.7476 C   0  0  0  0  0  0  0  0  0  0  0  0
   12.1663   -0.6592   23.7864 C   0  0  0  0  0  0  0  0  0  0  0  0
   14.1816   -1.2039   21.8450 C   0  0  0  0  0  0  0  0  0  0  0  0
   12.1406   -1.8489   22.8371 C   0  0  0  0  0  0  0  0  0  0  0  0
   14.2208    4.8474   22.2921 C   0  0  0  0  0  0  0  0  0  0  0  0
   13.0737    4.0128   22.8205 C   0  0  0  0  0  0  0  0  0  0  0  0
   12.9706    0.4220   23.2217 N   0  0  0  0  0  0  0  0  0  0  0  0
   11.4070    2.0825   23.6599 O   0  0  0  0  0  0  0  0  0  0  0  0
   13.4742   -2.2526   22.5132 O   0  0  0  0  0  0  0  0  0  0  0  0
   13.4571    2.6328   22.8096 O   0  0  0  0  0  0  0  0  0  0  0  0
  1  8  1  0  0  0  0
  1  9  2  0  0  0  0
  1 11  1  0  0  0  0
  2  4  1  0  0  0  0
  2  8  1  0  0  0  0
  3  5  1  0  0  0  0
  3  8  1  0  0  0  0
  4 10  1  0  0  0  0
  5 10  1  0  0  0  0
  6  7  1  0  0  0  0
  7 11  1  0  0  0  0
M  END
> <ref_mols>
x0187_0

> <original SMILES>
CCOC(=O)N1CCOCC1

> <Chemgauss4>
-7.208915

> <ref_pdb>
x0195_0

$$$$
x0262
  -OEChem-05172015543D

 13 13  0     0  0  0  0  0  0999 V2000
   12.6849   -1.9685   22.8282 C   0  0  0  0  0  0  0  0  0  0  0  0
   13.7619   -1.6252   22.0110 C   0  0  0  0  0  0  0  0  0  0  0  0
   12.0325   -0.9851   23.5720 C   0  0  0  0  0  0  0  0  0  0  0  0
   14.1866   -0.2987   21.9376 C   0  0  0  0  0  0  0  0  0  0  0  0
   12.4573    0.3415   23.4985 C   0  0  0  0  0  0  0  0  0  0  0  0
   13.5343    0.6847   22.6814 C   0  0  0  0  0  0  0  0  0  0  0  0
   13.1936    3.1753   22.7590 C   0  0  0  0  0  0  0  0  0  0  0  0
   12.3994    6.0587   23.0881 C   0  0  0  0  0  0  0  0  0  0  0  0
   14.0248    4.4308   22.6078 C   0  0  0  0  0  0  0  0  0  0  0  0
   13.9593    2.0116   22.6077 N   0  0  0  0  0  0  0  0  0  0  0  0
   11.9890    3.2491   22.9820 O   0  0  0  0  0  0  0  0  0  0  0  0
   13.2089    5.4572   22.0823 O   0  0  0  0  0  0  0  0  0  0  0  0
   14.9583    2.1531   22.4189 H   0  0  0  0  0  0  0  0  0  0  0  0
  1  2  1  0  0  0  0
  1  3  2  0  0  0  0
  2  4  2  0  0  0  0
  3  5  1  0  0  0  0
  4  6  1  0  0  0  0
  5  6  2  0  0  0  0
  6 10  1  0  0  0  0
  7  9  1  0  0  0  0
  7 10  1  0  0  0  0
  7 11  2  0  0  0  0
  8 12  1  0  0  0  0
  9 12  1  0  0  0  0
 10 13  1  0  0  0  0
M  END
> <ref_mols>
x0262_0

> <original SMILES>
COCC(=O)NC=1C=CC=CC1

> <Chemgauss4>
-7.206047

> <ref_pdb>
x0195_0

$$$$
x0975
  -OEChem-05172015543D

 18 17  0     1  0  0  0  0  0999 V2000
   10.1988    1.2838   24.2691 C   0  0  0  0  0  0  0  0  0  0  0  0
   10.6836    0.3477   23.6947 C   0  0  0  0  0  0  0  0  0  0  0  0
   12.4647    5.2746   23.4213 C   0  0  0  0  0  0  0  0  0  0  0  0
    9.6155    4.9112   24.8556 C   0  0  0  0  0  0  0  0  0  0  0  0
   13.2739    4.7040   22.3042 C   0  0  0  0  0  0  0  0  0  0  0  0
    6.8714    6.8146   22.0347 C   0  0  0  0  0  0  0  0  0  0  0  0
    8.5251    7.9451   24.3113 C   0  0  0  0  0  0  0  0  0  0  0  0
    9.6057    2.4211   24.9716 C   0  0  0  0  0  0  0  0  0  0  0  0
    7.9562    6.0175   22.7478 C   0  0  0  0  0  0  0  0  0  0  0  0
   10.1851    6.0618   24.0267 C   0  0  2  0  0  0  0  0  0  0  0  0
    9.0806    6.8981   23.3368 C   0  0  2  0  0  0  0  0  0  0  0  0
   10.0282    3.6726   24.3854 N   0  0  0  0  0  0  0  0  0  0  0  0
   11.1408    5.5153   23.0968 N   0  0  0  0  0  0  0  0  0  0  0  0
   12.9951    5.4839   24.5060 O   0  0  0  0  0  0  0  0  0  0  0  0
    8.8571    5.0855   25.8073 O   0  0  0  0  0  0  0  0  0  0  0  0
   11.4508   -1.1338   22.7852 Br  0  0  0  0  0  0  0  0  0  0  0  0
   10.6586    3.6442   23.5895 H   0  0  0  0  0  0  0  0  0  0  0  0
   10.8266    5.2952   22.1544 H   0  0  0  0  0  0  0  0  0  0  0  0
  1  2  3  0  0  0  0
  1  8  1  0  0  0  0
  2 16  1  0  0  0  0
  3  5  1  0  0  0  0
  3 13  1  0  0  0  0
  3 14  2  0  0  0  0
  4 10  1  0  0  0  0
  4 12  1  0  0  0  0
  4 15  2  0  0  0  0
  6  9  1  0  0  0  0
  7 11  1  0  0  0  0
  8 12  1  0  0  0  0
  9 11  1  0  0  0  0
 10 11  1  0  0  0  0
 10 13  1  0  0  0  0
 12 17  1  0  0  0  0
 13 18  1  0  0  0  0
M  END
> <ref_mols>
x0975_0

> <original SMILES>
CC[C@@H](C)[C@H](NC(=O)C)C(=O)NCC#CBr

> <Chemgauss4>
-7.205454

> <ref_pdb>
x0104_0

$$$$
x1057
  -OEChem-05172015543D

 17 17  0     0  0  0  0  0  0999 V2000
   11.4744    6.0516   24.1542 C   0  0  0  0  0  0  0  0  0  0  0  0
   10.3072    5.9430   24.8776 C   0  0  0  0  0  0  0  0  0  0  0  0
   11.9315    4.7870   23.6828 C   0  0  0  0  0  0  0  0  0  0  0  0
   11.0962    3.7600   24.0644 C   0  0  0  0  0  0  0  0  0  0  0  0
   13.1220    4.5797   22.8988 C   0  0  0  0  0  0  0  0  0  0  0  0
   12.1159    1.6688   23.1168 C   0  0  0  0  0  0  0  0  0  0  0  0
   12.1765   -1.9575   22.5552 C   0  0  0  0  0  0  0  0  0  0  0  0
   12.6852   -0.5366   22.4372 C   0  0  0  0  0  0  0  0  0  0  0  0
   13.0141    4.6329   21.5056 N   0  0  0  0  0  0  0  0  0  0  0  0
   11.1580    2.3683   23.8248 N   0  0  0  0  0  0  0  0  0  0  0  0
   14.2298    4.3402   23.4279 O   0  0  0  0  0  0  0  0  0  0  0  0
   13.1068    2.1161   22.5524 O   0  0  0  0  0  0  0  0  0  0  0  0
   11.7895    0.3388   23.1321 O   0  0  0  0  0  0  0  0  0  0  0  0
    9.7672    4.3216   24.9866 S   0  0  0  0  0  0  0  0  0  0  0  0
   12.1074    4.8147   21.0890 H   0  0  0  0  0  0  0  0  0  0  0  0
   13.8160    4.4951   20.8991 H   0  0  0  0  0  0  0  0  0  0  0  0
   10.4040    1.8135   24.2227 H   0  0  0  0  0  0  0  0  0  0  0  0
  1  2  2  0  0  0  0
  1  3  1  0  0  0  0
  2 14  1  0  0  0  0
  3  4  2  0  0  0  0
  3  5  1  0  0  0  0
  4 10  1  0  0  0  0
  4 14  1  0  0  0  0
  5  9  1  0  0  0  0
  5 11  2  0  0  0  0
  6 10  1  0  0  0  0
  6 12  2  0  0  0  0
  6 13  1  0  0  0  0
  7  8  1  0  0  0  0
  8 13  1  0  0  0  0
  9 15  1  0  0  0  0
  9 16  1  0  0  0  0
 10 17  1  0  0  0  0
M  END
> <ref_mols>
x1057_0

> <original SMILES>
CCOC(=O)NC=1SC=CC1C(=O)N

> <Chemgauss4>
-7.203561

> <ref_pdb>
x0104_0

$$$$
x0183
  -OEChem-05172015543D

 17 17  0     0  0  0  0  0  0999 V2000
   11.4744    6.0516   24.1542 C   0  0  0  0  0  0  0  0  0  0  0  0
   10.3072    5.9430   24.8776 C   0  0  0  0  0  0  0  0  0  0  0  0
   11.9315    4.7870   23.6828 C   0  0  0  0  0  0  0  0  0  0  0  0
   11.0962    3.7600   24.0644 C   0  0  0  0  0  0  0  0  0  0  0  0
   13.1220    4.5797   22.8988 C   0  0  0  0  0  0  0  0  0  0  0  0
   12.1159    1.6688   23.1168 C   0  0  0  0  0  0  0  0  0  0  0  0
   12.1765   -1.9575   22.5552 C   0  0  0  0  0  0  0  0  0  0  0  0
   12.6852   -0.5366   22.4372 C   0  0  0  0  0  0  0  0  0  0  0  0
   13.0141    4.6329   21.5056 N   0  0  0  0  0  0  0  0  0  0  0  0
   11.1580    2.3683   23.8248 N   0  0  0  0  0  0  0  0  0  0  0  0
   14.2298    4.3402   23.4279 O   0  0  0  0  0  0  0  0  0  0  0  0
   13.1068    2.1161   22.5524 O   0  0  0  0  0  0  0  0  0  0  0  0
   11.7895    0.3388   23.1321 O   0  0  0  0  0  0  0  0  0  0  0  0
    9.7672    4.3216   24.9866 S   0  0  0  0  0  0  0  0  0  0  0  0
   12.1074    4.8147   21.0890 H   0  0  0  0  0  0  0  0  0  0  0  0
   13.8160    4.4951   20.8991 H   0  0  0  0  0  0  0  0  0  0  0  0
   10.4040    1.8135   24.2227 H   0  0  0  0  0  0  0  0  0  0  0  0
  1  2  2  0  0  0  0
  1  3  1  0  0  0  0
  2 14  1  0  0  0  0
  3  4  2  0  0  0  0
  3  5  1  0  0  0  0
  4 10  1  0  0  0  0
  4 14  1  0  0  0  0
  5  9  1  0  0  0  0
  5 11  2  0  0  0  0
  6 10  1  0  0  0  0
  6 12  2  0  0  0  0
  6 13  1  0  0  0  0
  7  8  1  0  0  0  0
  8 13  1  0  0  0  0
  9 15  1  0  0  0  0
  9 16  1  0  0  0  0
 10 17  1  0  0  0  0
M  END
> <ref_mols>
x0183_0

> <original SMILES>
CCOC(=O)NC=1SC=CC1C(=O)N

> <Chemgauss4>
-7.203561

> <ref_pdb>
x0104_0

$$$$
x0643
  -OEChem-05172015543D

 13 13  0     0  0  0  0  0  0999 V2000
   12.9348   -0.6430   24.1025 C   0  0  0  0  0  0  0  0  0  0  0  0
   14.6410    0.0331   22.3936 C   0  0  0  0  0  0  0  0  0  0  0  0
   12.2229    0.6903   23.8592 C   0  0  0  0  0  0  0  0  0  0  0  0
   13.8734    1.3444   22.2061 C   0  0  0  0  0  0  0  0  0  0  0  0
   13.7468   -1.1107   22.8883 C   0  0  0  0  0  0  0  0  0  0  0  0
   12.8440   -1.6475   21.7747 C   0  0  0  0  0  0  0  0  0  0  0  0
   12.4857    3.0082   23.2587 C   0  0  0  0  0  0  0  0  0  0  0  0
   13.4595    4.0625   22.7673 C   0  0  0  0  0  0  0  0  0  0  0  0
   13.1720    1.7289   23.4379 N   0  0  0  0  0  0  0  0  0  0  0  0
   12.7411    5.3405   22.5389 N   0  3  0  0  0  0  0  0  0  0  0  0
   12.8194    5.6353   21.5598 H   0  0  0  0  0  0  0  0  0  0  0  0
   13.1274    6.0876   23.1260 H   0  0  0  0  0  0  0  0  0  0  0  0
   11.7446    5.2459   22.7621 H   0  0  0  0  0  0  0  0  0  0  0  0
  1  3  1  0  0  0  0
  1  5  1  0  0  0  0
  2  4  1  0  0  0  0
  2  5  1  0  0  0  0
  3  9  1  0  0  0  0
  4  9  1  0  0  0  0
  5  6  1  0  0  0  0
  7  8  1  0  0  0  0
  7  9  1  0  0  0  0
  8 10  1  0  0  0  0
 10 11  1  0  0  0  0
 10 12  1  0  0  0  0
 10 13  1  0  0  0  0
M  CHG  1  10   1
M  END
> <ref_mols>
x0643_0

> <original SMILES>
CC1CCN(CCN)CC1

> <Chemgauss4>
-7.202670

> <ref_pdb>
x0195_0

$$$$
x2055
  -OEChem-05172015543D

 21 22  0     0  0  0  0  0  0999 V2000
   13.3199   -3.2546   26.0463 C   0  0  0  0  0  0  0  0  0  0  0  0
   12.2126   -1.7611   24.5035 C   0  0  0  0  0  0  0  0  0  0  0  0
   14.3345   -2.3149   26.2279 C   0  0  0  0  0  0  0  0  0  0  0  0
   13.2272   -0.8213   24.6851 C   0  0  0  0  0  0  0  0  0  0  0  0
   12.2589   -2.9778   25.1841 C   0  0  0  0  0  0  0  0  0  0  0  0
   14.2882   -1.0982   25.5473 C   0  0  0  0  0  0  0  0  0  0  0  0
   10.1098   -3.8195   24.1856 C   0  0  0  0  0  0  0  0  0  0  0  0
    5.6746   -5.2371   22.0929 C   0  0  0  0  0  0  0  0  0  0  0  0
    7.8762   -4.7018   24.8367 C   0  0  0  0  0  0  0  0  0  0  0  0
    9.1600   -5.7504   22.9092 C   0  0  0  0  0  0  0  0  0  0  0  0
    6.9750   -4.0191   23.8093 C   0  0  0  0  0  0  0  0  0  0  0  0
    8.2059   -5.0493   21.9411 C   0  0  0  0  0  0  0  0  0  0  0  0
    9.2556   -5.0509   24.2689 C   0  0  0  0  0  0  0  0  0  0  0  0
    4.6015   -5.5009   23.1189 C   0  0  0  0  0  0  0  0  0  0  0  0
    6.9080   -4.8026   22.5765 N   0  0  0  0  0  0  0  0  0  0  0  0
   11.2294   -3.9310   25.0002 N   0  0  0  0  0  0  0  0  0  0  0  0
    9.7901   -2.8810   23.4632 O   0  0  0  0  0  0  0  0  0  0  0  0
    5.4216   -5.4106   20.8979 O   0  0  0  0  0  0  0  0  0  0  0  0
   15.5403    0.0613   25.7715 Cl  0  0  0  0  0  0  0  0  0  0  0  0
    3.7519   -3.9788   23.3620 Cl  0  0  0  0  0  0  0  0  0  0  0  0
   11.3337   -4.7932   25.5312 H   0  0  0  0  0  0  0  0  0  0  0  0
  1  3  2  0  0  0  0
  1  5  1  0  0  0  0
  2  4  1  0  0  0  0
  2  5  2  0  0  0  0
  3  6  1  0  0  0  0
  4  6  2  0  0  0  0
  5 16  1  0  0  0  0
  6 19  1  0  0  0  0
  7 13  1  0  0  0  0
  7 16  1  0  0  0  0
  7 17  2  0  0  0  0
  8 14  1  0  0  0  0
  8 15  1  0  0  0  0
  8 18  2  0  0  0  0
  9 11  1  0  0  0  0
  9 13  1  0  0  0  0
 10 12  1  0  0  0  0
 10 13  1  0  0  0  0
 11 15  1  0  0  0  0
 12 15  1  0  0  0  0
 14 20  1  0  0  0  0
 16 21  1  0  0  0  0
M  END
> <ref_mols>
x2055_0

> <original SMILES>
O=C(C1CCN(C(CCl)=O)CC1)NC2=CC=C(Cl)C=C2

> <Chemgauss4>
-7.200988

> <ref_pdb>
x0749_0

> <CYS145-warhead dist minimum (A)>
8.263514

> <CYS145-warhead dist mean (A)>
12.404147

> <CYS145-warhead dist stddev (A)>
1.4963022

$$$$
x2611
  -OEChem-05172015543D

 21 22  0     0  0  0  0  0  0999 V2000
   12.2799    0.9824   24.4418 C   0  0  0  0  0  0  0  0  0  0  0  0
   13.7406   -2.1500   25.8239 C   0  0  0  0  0  0  0  0  0  0  0  0
   13.5986   -0.8146   25.4470 C   0  0  0  0  0  0  0  0  0  0  0  0
   12.7090   -3.0569   25.5806 C   0  0  0  0  0  0  0  0  0  0  0  0
    5.4493   -5.9978   22.6018 C   0  0  0  0  0  0  0  0  0  0  0  0
   11.3933   -1.2928   24.5838 C   0  0  0  0  0  0  0  0  0  0  0  0
    5.5624   -5.6290   21.2710 C   0  0  0  0  0  0  0  0  0  0  0  0
    7.6180   -4.6642   21.6203 C   0  0  0  0  0  0  0  0  0  0  0  0
   12.4249   -0.3860   24.8270 C   0  0  0  0  0  0  0  0  0  0  0  0
    6.4924   -5.6672   23.4597 C   0  0  0  0  0  0  0  0  0  0  0  0
   11.5354   -2.6283   24.9606 C   0  0  0  0  0  0  0  0  0  0  0  0
    7.6011   -4.9876   22.9675 C   0  0  0  0  0  0  0  0  0  0  0  0
    9.5478   -3.5270   23.6719 C   0  0  0  0  0  0  0  0  0  0  0  0
    6.3965   -6.0521   24.8996 C   0  0  0  0  0  0  0  0  0  0  0  0
   12.1622    2.0937   24.1288 N   0  0  0  0  0  0  0  0  0  0  0  0
    6.6237   -4.9683   20.7563 N   0  0  0  0  0  0  0  0  0  0  0  0
   10.5044   -3.5358   24.7164 N   0  0  0  0  0  0  0  0  0  0  0  0
    8.6877   -4.6294   23.8000 N   0  0  0  0  0  0  0  0  0  0  0  0
    9.4860   -2.6777   22.7887 O   0  0  0  0  0  0  0  0  0  0  0  0
   10.4291   -4.3128   25.3816 H   0  0  0  0  0  0  0  0  0  0  0  0
    8.8612   -5.2505   24.5862 H   0  0  0  0  0  0  0  0  0  0  0  0
  1  9  1  0  0  0  0
  1 15  3  0  0  0  0
  2  3  1  0  0  0  0
  2  4  2  0  0  0  0
  3  9  2  0  0  0  0
  4 11  1  0  0  0  0
  5  7  2  0  0  0  0
  5 10  1  0  0  0  0
  6  9  1  0  0  0  0
  6 11  2  0  0  0  0
  7 16  1  0  0  0  0
  8 12  1  0  0  0  0
  8 16  2  0  0  0  0
 10 12  2  0  0  0  0
 10 14  1  0  0  0  0
 11 17  1  0  0  0  0
 12 18  1  0  0  0  0
 13 17  1  0  0  0  0
 13 18  1  0  0  0  0
 13 19  2  0  0  0  0
 17 20  1  0  0  0  0
 18 21  1  0  0  0  0
M  END
> <ref_mols>
x2611_0

> <original SMILES>
CC=1C=CN=CC1NC(=O)NC=2C=CC=C(C#N)C2

> <Chemgauss4>
-7.196349

> <ref_pdb>
x0749_0

$$$$
x0989
  -OEChem-05172015543D

  7  7  0     0  0  0  0  0  0999 V2000
    7.2574    0.0800   20.1000 C   0  0  0  0  0  0  0  0  0  0  0  0
    6.0554    0.7330   20.3493 C   0  0  0  0  0  0  0  0  0  0  0  0
    7.6894   -0.0042   18.7862 C   0  0  0  0  0  0  0  0  0  0  0  0
    5.8506    1.1366   18.0144 C   0  0  0  0  0  0  0  0  0  0  0  0
    5.3323    1.2741   19.2921 C   0  0  0  0  0  0  0  0  0  0  0  0
    7.0146    0.5091   17.7332 N   0  0  0  0  0  0  0  0  0  0  0  0
    3.7006    2.1656   19.5884 Br  0  0  0  0  0  0  0  0  0  0  0  0
  1  2  2  0  0  0  0
  1  3  1  0  0  0  0
  2  5  1  0  0  0  0
  3  6  2  0  0  0  0
  4  5  2  0  0  0  0
  4  6  1  0  0  0  0
  5  7  1  0  0  0  0
M  END
> <ref_mols>
x0989_0

> <original SMILES>
BrC=1C=CC=NC1

> <Chemgauss4>
-7.194540

> <ref_pdb>
x0397_0

$$$$
x2540
  -OEChem-05172015543D

 29 30  0     1  0  0  0  0  0999 V2000
    4.8398   -5.0759   24.4071 C   0  0  0  0  0  0  0  0  0  0  0  0
    6.0668   -4.4237   24.4556 C   0  0  0  0  0  0  0  0  0  0  0  0
   10.2702   -1.9826   24.6923 C   0  0  0  0  0  0  0  0  0  0  0  0
    4.1185   -5.0138   23.2257 C   0  0  0  0  0  0  0  0  0  0  0  0
    5.7317   -3.7368   22.2034 C   0  0  0  0  0  0  0  0  0  0  0  0
    6.5285   -3.7389   23.3370 C   0  0  0  0  0  0  0  0  0  0  0  0
   11.4792   -1.9351   25.3343 C   0  0  0  0  0  0  0  0  0  0  0  0
   10.1045   -3.3456   24.3919 C   0  0  0  0  0  0  0  0  0  0  0  0
    7.4389   -6.8859   22.2477 C   0  0  0  0  0  0  0  0  0  0  0  0
    8.0636   -5.7042   22.2688 C   0  0  0  0  0  0  0  0  0  0  0  0
    8.8910   -5.3109   23.4469 C   0  0  0  0  0  0  0  0  0  0  0  0
    8.1716   -2.3724   22.0146 C   0  0  0  0  0  0  0  0  0  0  0  0
   11.5053   -0.1094   27.0698 C   0  0  0  0  0  0  0  0  0  0  0  0
   12.6625    0.2381   24.8616 C   0  0  0  0  0  0  0  0  0  0  0  0
   13.6466   -1.2717   26.5743 C   0  0  0  0  0  0  0  0  0  0  0  0
    7.1928    1.1235   21.0247 C   0  0  0  0  0  0  0  0  0  0  0  0
    9.3107   -0.0772   20.4240 C   0  0  0  0  0  0  0  0  0  0  0  0
    7.1044   -0.9262   19.5875 C   0  0  0  0  0  0  0  0  0  0  0  0
    7.8578   -3.0208   23.3577 C   0  0  2  0  0  0  0  0  0  0  0  0
   12.2761   -0.8511   25.9224 C   0  0  0  0  0  0  0  0  0  0  0  0
    7.8250   -0.2474   20.7580 C   0  0  0  0  0  0  0  0  0  0  0  0
    4.5343   -4.3586   22.1187 N   0  0  0  0  0  0  0  0  0  0  0  0
   11.1322   -4.0869   24.8152 N   0  0  0  0  0  0  0  0  0  0  0  0
    7.6970   -1.0738   21.9445 N   0  0  0  0  0  0  0  0  0  0  0  0
    8.9438   -3.9084   23.6942 N   0  0  0  0  0  0  0  0  0  0  0  0
    9.4518   -6.1915   24.0996 O   0  0  0  0  0  0  0  0  0  0  0  0
    8.7442   -2.9683   21.1043 O   0  0  0  0  0  0  0  0  0  0  0  0
   12.0036   -3.1848   25.4138 O   0  0  0  0  0  0  0  0  0  0  0  0
    7.2345   -0.6615   22.7456 H   0  0  0  0  0  0  0  0  0  0  0  0
  1  2  2  0  0  0  0
  1  4  1  0  0  0  0
  2  6  1  0  0  0  0
  3  7  2  0  0  0  0
  3  8  1  0  0  0  0
  4 22  2  0  0  0  0
  5  6  2  0  0  0  0
  5 22  1  0  0  0  0
  6 19  1  0  0  0  0
  7 20  1  0  0  0  0
  7 28  1  0  0  0  0
  8 23  2  0  0  0  0
  8 25  1  0  0  0  0
  9 10  2  0  0  0  0
 10 11  1  0  0  0  0
 11 25  1  0  0  0  0
 11 26  2  0  0  0  0
 12 19  1  0  0  0  0
 12 24  1  0  0  0  0
 12 27  2  0  0  0  0
 13 20  1  0  0  0  0
 14 20  1  0  0  0  0
 15 20  1  0  0  0  0
 16 21  1  0  0  0  0
 17 21  1  0  0  0  0
 18 21  1  0  0  0  0
 19 25  1  0  0  0  0
 21 24  1  0  0  0  0
 23 28  1  0  0  0  0
 24 29  1  0  0  0  0
M  END
> <ref_mols>
x2540_0

> <original SMILES>
CC(C)(C)NC(=O)C(N(C(=O)C=C)C=1C=C(ON1)C(C)(C)C)C=2C=CC=NC2

> <Chemgauss4>
-7.190642

> <ref_pdb>
x0749_0

$$$$
x2708
  -OEChem-05172015543D

 29 30  0     1  0  0  0  0  0999 V2000
    4.8398   -5.0759   24.4071 C   0  0  0  0  0  0  0  0  0  0  0  0
    6.0668   -4.4237   24.4556 C   0  0  0  0  0  0  0  0  0  0  0  0
   10.2702   -1.9826   24.6923 C   0  0  0  0  0  0  0  0  0  0  0  0
    4.1185   -5.0138   23.2257 C   0  0  0  0  0  0  0  0  0  0  0  0
    5.7317   -3.7368   22.2034 C   0  0  0  0  0  0  0  0  0  0  0  0
    6.5285   -3.7389   23.3370 C   0  0  0  0  0  0  0  0  0  0  0  0
   11.4792   -1.9351   25.3343 C   0  0  0  0  0  0  0  0  0  0  0  0
   10.1045   -3.3456   24.3919 C   0  0  0  0  0  0  0  0  0  0  0  0
    7.4389   -6.8859   22.2477 C   0  0  0  0  0  0  0  0  0  0  0  0
    8.0636   -5.7042   22.2688 C   0  0  0  0  0  0  0  0  0  0  0  0
    8.8910   -5.3109   23.4469 C   0  0  0  0  0  0  0  0  0  0  0  0
    8.1716   -2.3724   22.0146 C   0  0  0  0  0  0  0  0  0  0  0  0
   11.5053   -0.1094   27.0698 C   0  0  0  0  0  0  0  0  0  0  0  0
   12.6625    0.2381   24.8616 C   0  0  0  0  0  0  0  0  0  0  0  0
   13.6466   -1.2717   26.5743 C   0  0  0  0  0  0  0  0  0  0  0  0
    7.1928    1.1235   21.0247 C   0  0  0  0  0  0  0  0  0  0  0  0
    9.3107   -0.0772   20.4240 C   0  0  0  0  0  0  0  0  0  0  0  0
    7.1044   -0.9262   19.5875 C   0  0  0  0  0  0  0  0  0  0  0  0
    7.8578   -3.0208   23.3577 C   0  0  2  0  0  0  0  0  0  0  0  0
   12.2761   -0.8511   25.9224 C   0  0  0  0  0  0  0  0  0  0  0  0
    7.8250   -0.2474   20.7580 C   0  0  0  0  0  0  0  0  0  0  0  0
    4.5343   -4.3586   22.1187 N   0  0  0  0  0  0  0  0  0  0  0  0
   11.1322   -4.0869   24.8152 N   0  0  0  0  0  0  0  0  0  0  0  0
    7.6970   -1.0738   21.9445 N   0  0  0  0  0  0  0  0  0  0  0  0
    8.9438   -3.9084   23.6942 N   0  0  0  0  0  0  0  0  0  0  0  0
    9.4518   -6.1915   24.0996 O   0  0  0  0  0  0  0  0  0  0  0  0
    8.7442   -2.9683   21.1043 O   0  0  0  0  0  0  0  0  0  0  0  0
   12.0036   -3.1848   25.4138 O   0  0  0  0  0  0  0  0  0  0  0  0
    7.2345   -0.6615   22.7456 H   0  0  0  0  0  0  0  0  0  0  0  0
  1  2  2  0  0  0  0
  1  4  1  0  0  0  0
  2  6  1  0  0  0  0
  3  7  2  0  0  0  0
  3  8  1  0  0  0  0
  4 22  2  0  0  0  0
  5  6  2  0  0  0  0
  5 22  1  0  0  0  0
  6 19  1  0  0  0  0
  7 20  1  0  0  0  0
  7 28  1  0  0  0  0
  8 23  2  0  0  0  0
  8 25  1  0  0  0  0
  9 10  2  0  0  0  0
 10 11  1  0  0  0  0
 11 25  1  0  0  0  0
 11 26  2  0  0  0  0
 12 19  1  0  0  0  0
 12 24  1  0  0  0  0
 12 27  2  0  0  0  0
 13 20  1  0  0  0  0
 14 20  1  0  0  0  0
 15 20  1  0  0  0  0
 16 21  1  0  0  0  0
 17 21  1  0  0  0  0
 18 21  1  0  0  0  0
 19 25  1  0  0  0  0
 21 24  1  0  0  0  0
 23 28  1  0  0  0  0
 24 29  1  0  0  0  0
M  END
> <ref_mols>
x2708_0

> <original SMILES>
CC(C)(C)NC(=O)C(N(C(=O)C=C)C=1C=C(ON1)C(C)(C)C)C=2C=CC=NC2

> <Chemgauss4>
-7.190642

> <ref_pdb>
x0749_0

> <CYS145-warhead dist minimum (A)>
8.858155

> <CYS145-warhead dist mean (A)>
10.9854355

> <CYS145-warhead dist stddev (A)>
0.5082229

$$$$
x2569
  -OEChem-05172015543D

 19 20  0     0  0  0  0  0  0999 V2000
    6.6558   -2.7982   20.5407 C   0  0  0  0  0  0  0  0  0  0  0  0
   13.5008   -1.2930   25.1705 C   0  0  0  0  0  0  0  0  0  0  0  0
   12.8433   -2.4184   24.6864 C   0  0  0  0  0  0  0  0  0  0  0  0
    7.8621   -4.0766   22.2511 C   0  0  0  0  0  0  0  0  0  0  0  0
   12.7703   -0.3897   25.9256 C   0  0  0  0  0  0  0  0  0  0  0  0
    6.0480   -5.1016   21.1043 C   0  0  0  0  0  0  0  0  0  0  0  0
    7.1717   -6.3068   22.7052 C   0  0  0  0  0  0  0  0  0  0  0  0
   10.8537   -1.6416   25.7325 C   0  0  0  0  0  0  0  0  0  0  0  0
    6.8542   -3.9913   21.2971 C   0  0  0  0  0  0  0  0  0  0  0  0
    8.0306   -5.2530   22.9729 C   0  0  0  0  0  0  0  0  0  0  0  0
   11.4943   -2.6035   24.9682 C   0  0  0  0  0  0  0  0  0  0  0  0
    9.4572   -4.0583   24.6878 C   0  0  0  0  0  0  0  0  0  0  0  0
    9.0986   -5.3756   24.0011 C   0  0  0  0  0  0  0  0  0  0  0  0
    6.4945   -1.8276   19.9252 N   0  0  0  0  0  0  0  0  0  0  0  0
   11.4590   -0.5355   26.2201 N   0  0  0  0  0  0  0  0  0  0  0  0
    6.1813   -6.2612   21.7861 N   0  0  0  0  0  0  0  0  0  0  0  0
   10.7980   -3.7387   24.4892 N   0  0  0  0  0  0  0  0  0  0  0  0
    8.6255   -3.4140   25.3189 O   0  0  0  0  0  0  0  0  0  0  0  0
   11.3403   -4.3982   23.9351 H   0  0  0  0  0  0  0  0  0  0  0  0
  1  9  1  0  0  0  0
  1 14  3  0  0  0  0
  2  3  2  0  0  0  0
  2  5  1  0  0  0  0
  3 11  1  0  0  0  0
  4  9  1  0  0  0  0
  4 10  2  0  0  0  0
  5 15  2  0  0  0  0
  6  9  2  0  0  0  0
  6 16  1  0  0  0  0
  7 10  1  0  0  0  0
  7 16  2  0  0  0  0
  8 11  2  0  0  0  0
  8 15  1  0  0  0  0
 10 13  1  0  0  0  0
 11 17  1  0  0  0  0
 12 13  1  0  0  0  0
 12 17  1  0  0  0  0
 12 18  2  0  0  0  0
 17 19  1  0  0  0  0
M  END
> <ref_mols>
x2569_0

> <original SMILES>
O=C(CC=1C=NC=C(C#N)C1)NC=2C=CC=NC2

> <Chemgauss4>
-7.190603

> <ref_pdb>
x0749_0

$$$$
x0822
  -OEChem-05172015543D

 15 15  0     1  0  0  0  0  0999 V2000
    8.4411   -2.7986   21.6647 C   0  0  0  0  0  0  0  0  0  0  0  0
    9.5421   -2.7637   22.5203 C   0  0  0  0  0  0  0  0  0  0  0  0
    7.5398   -3.8611   21.7308 C   0  0  0  0  0  0  0  0  0  0  0  0
    8.8407   -4.8540   23.5081 C   0  0  0  0  0  0  0  0  0  0  0  0
    9.7419   -3.7914   23.4420 C   0  0  0  0  0  0  0  0  0  0  0  0
    7.7396   -4.8888   22.6525 C   0  0  0  0  0  0  0  0  0  0  0  0
   12.7073   -2.1182   24.8774 C   0  0  0  0  0  0  0  0  0  0  0  0
   10.6679   -4.4541   25.6993 C   0  0  0  0  0  0  0  0  0  0  0  0
   12.9628   -0.6442   25.0617 C   0  0  0  0  0  0  0  0  0  0  0  0
   10.9201   -3.7541   24.3557 C   0  0  2  0  0  0  0  0  0  0  0  0
   11.3869   -2.3981   24.5904 N   0  0  0  0  0  0  0  0  0  0  0  0
   13.6097   -2.9490   24.9652 O   0  0  0  0  0  0  0  0  0  0  0  0
    6.6279   -6.2001   22.7328 Cl  0  0  0  0  0  0  0  0  0  0  0  0
   11.8074    0.2392   24.0520 Cl  0  0  0  0  0  0  0  0  0  0  0  0
   10.7237   -1.6361   24.5419 H   0  0  0  0  0  0  0  0  0  0  0  0
  1  2  2  0  0  0  0
  1  3  1  0  0  0  0
  2  5  1  0  0  0  0
  3  6  2  0  0  0  0
  4  5  2  0  0  0  0
  4  6  1  0  0  0  0
  5 10  1  0  0  0  0
  6 13  1  0  0  0  0
  7  9  1  0  0  0  0
  7 11  1  0  0  0  0
  7 12  2  0  0  0  0
  8 10  1  0  0  0  0
  9 14  1  0  0  0  0
 10 11  1  0  0  0  0
 11 15  1  0  0  0  0
M  END
> <ref_mols>
x0822_0

> <original SMILES>
CC(NC(=O)CCl)c1cccc(Cl)c1

> <Chemgauss4>
-7.186934

> <ref_pdb>
x0749_0

> <CYS145-warhead dist minimum (A)>
7.4039216

> <CYS145-warhead dist mean (A)>
10.84559

> <CYS145-warhead dist stddev (A)>
0.91196686

$$$$
x1324
  -OEChem-05172015543D

 15 15  0     1  0  0  0  0  0999 V2000
    8.4411   -2.7986   21.6647 C   0  0  0  0  0  0  0  0  0  0  0  0
    9.5421   -2.7637   22.5203 C   0  0  0  0  0  0  0  0  0  0  0  0
    7.5398   -3.8611   21.7308 C   0  0  0  0  0  0  0  0  0  0  0  0
    8.8407   -4.8540   23.5081 C   0  0  0  0  0  0  0  0  0  0  0  0
    9.7419   -3.7914   23.4420 C   0  0  0  0  0  0  0  0  0  0  0  0
    7.7396   -4.8888   22.6525 C   0  0  0  0  0  0  0  0  0  0  0  0
   12.7073   -2.1182   24.8774 C   0  0  0  0  0  0  0  0  0  0  0  0
   10.6679   -4.4541   25.6993 C   0  0  0  0  0  0  0  0  0  0  0  0
   12.9628   -0.6442   25.0617 C   0  0  0  0  0  0  0  0  0  0  0  0
   10.9201   -3.7541   24.3557 C   0  0  2  0  0  0  0  0  0  0  0  0
   11.3869   -2.3981   24.5904 N   0  0  0  0  0  0  0  0  0  0  0  0
   13.6097   -2.9490   24.9652 O   0  0  0  0  0  0  0  0  0  0  0  0
    6.6279   -6.2001   22.7328 Cl  0  0  0  0  0  0  0  0  0  0  0  0
   11.8074    0.2392   24.0520 Cl  0  0  0  0  0  0  0  0  0  0  0  0
   10.7237   -1.6361   24.5419 H   0  0  0  0  0  0  0  0  0  0  0  0
  1  2  2  0  0  0  0
  1  3  1  0  0  0  0
  2  5  1  0  0  0  0
  3  6  2  0  0  0  0
  4  5  2  0  0  0  0
  4  6  1  0  0  0  0
  5 10  1  0  0  0  0
  6 13  1  0  0  0  0
  7  9  1  0  0  0  0
  7 11  1  0  0  0  0
  7 12  2  0  0  0  0
  8 10  1  0  0  0  0
  9 14  1  0  0  0  0
 10 11  1  0  0  0  0
 11 15  1  0  0  0  0
M  END
> <ref_mols>
x1324_0

> <original SMILES>
CC(NC(=O)CCl)c1cccc(Cl)c1

> <Chemgauss4>
-7.186934

> <ref_pdb>
x0749_0

> <CYS145-warhead dist minimum (A)>
4.97796

> <CYS145-warhead dist mean (A)>
6.3068056

> <CYS145-warhead dist stddev (A)>
0.35468662

$$$$
x0748
  -OEChem-05172015543D

 15 15  0     1  0  0  0  0  0999 V2000
    8.4411   -2.7986   21.6647 C   0  0  0  0  0  0  0  0  0  0  0  0
    9.5421   -2.7637   22.5203 C   0  0  0  0  0  0  0  0  0  0  0  0
    7.5398   -3.8611   21.7308 C   0  0  0  0  0  0  0  0  0  0  0  0
    8.8407   -4.8540   23.5081 C   0  0  0  0  0  0  0  0  0  0  0  0
    9.7419   -3.7914   23.4420 C   0  0  0  0  0  0  0  0  0  0  0  0
    7.7396   -4.8888   22.6525 C   0  0  0  0  0  0  0  0  0  0  0  0
   12.7073   -2.1182   24.8774 C   0  0  0  0  0  0  0  0  0  0  0  0
   10.6679   -4.4541   25.6993 C   0  0  0  0  0  0  0  0  0  0  0  0
   12.9628   -0.6442   25.0617 C   0  0  0  0  0  0  0  0  0  0  0  0
   10.9201   -3.7541   24.3557 C   0  0  2  0  0  0  0  0  0  0  0  0
   11.3869   -2.3981   24.5904 N   0  0  0  0  0  0  0  0  0  0  0  0
   13.6097   -2.9490   24.9652 O   0  0  0  0  0  0  0  0  0  0  0  0
    6.6279   -6.2001   22.7328 Cl  0  0  0  0  0  0  0  0  0  0  0  0
   11.8074    0.2392   24.0520 Cl  0  0  0  0  0  0  0  0  0  0  0  0
   10.7237   -1.6361   24.5419 H   0  0  0  0  0  0  0  0  0  0  0  0
  1  2  2  0  0  0  0
  1  3  1  0  0  0  0
  2  5  1  0  0  0  0
  3  6  2  0  0  0  0
  4  5  2  0  0  0  0
  4  6  1  0  0  0  0
  5 10  1  0  0  0  0
  6 13  1  0  0  0  0
  7  9  1  0  0  0  0
  7 11  1  0  0  0  0
  7 12  2  0  0  0  0
  8 10  1  0  0  0  0
  9 14  1  0  0  0  0
 10 11  1  0  0  0  0
 11 15  1  0  0  0  0
M  END
> <ref_mols>
x0748_0

> <original SMILES>
CC(NC(=O)CCl)c1cccc(Cl)c1

> <Chemgauss4>
-7.186934

> <ref_pdb>
x0749_0

> <CYS145-warhead dist minimum (A)>
6.3349524

> <CYS145-warhead dist mean (A)>
7.0726967

> <CYS145-warhead dist stddev (A)>
0.27317768

$$$$
x1365
  -OEChem-05172015543D

 15 15  0     1  0  0  0  0  0999 V2000
    8.4411   -2.7986   21.6647 C   0  0  0  0  0  0  0  0  0  0  0  0
    9.5421   -2.7637   22.5203 C   0  0  0  0  0  0  0  0  0  0  0  0
    7.5398   -3.8611   21.7308 C   0  0  0  0  0  0  0  0  0  0  0  0
    8.8407   -4.8540   23.5081 C   0  0  0  0  0  0  0  0  0  0  0  0
    9.7419   -3.7914   23.4420 C   0  0  0  0  0  0  0  0  0  0  0  0
    7.7396   -4.8888   22.6525 C   0  0  0  0  0  0  0  0  0  0  0  0
   12.7073   -2.1182   24.8774 C   0  0  0  0  0  0  0  0  0  0  0  0
   10.6679   -4.4541   25.6993 C   0  0  0  0  0  0  0  0  0  0  0  0
   12.9628   -0.6442   25.0617 C   0  0  0  0  0  0  0  0  0  0  0  0
   10.9201   -3.7541   24.3557 C   0  0  2  0  0  0  0  0  0  0  0  0
   11.3869   -2.3981   24.5904 N   0  0  0  0  0  0  0  0  0  0  0  0
   13.6097   -2.9490   24.9652 O   0  0  0  0  0  0  0  0  0  0  0  0
    6.6279   -6.2001   22.7328 Cl  0  0  0  0  0  0  0  0  0  0  0  0
   11.8074    0.2392   24.0520 Cl  0  0  0  0  0  0  0  0  0  0  0  0
   10.7237   -1.6361   24.5419 H   0  0  0  0  0  0  0  0  0  0  0  0
  1  2  2  0  0  0  0
  1  3  1  0  0  0  0
  2  5  1  0  0  0  0
  3  6  2  0  0  0  0
  4  5  2  0  0  0  0
  4  6  1  0  0  0  0
  5 10  1  0  0  0  0
  6 13  1  0  0  0  0
  7  9  1  0  0  0  0
  7 11  1  0  0  0  0
  7 12  2  0  0  0  0
  8 10  1  0  0  0  0
  9 14  1  0  0  0  0
 10 11  1  0  0  0  0
 11 15  1  0  0  0  0
M  END
> <ref_mols>
x1365_0

> <original SMILES>
CC(NC(=O)CCl)c1cccc(Cl)c1

> <Chemgauss4>
-7.186934

> <ref_pdb>
x0749_0

$$$$
x1382
  -OEChem-05172015543D

 15 15  0     1  0  0  0  0  0999 V2000
    8.4411   -2.7986   21.6647 C   0  0  0  0  0  0  0  0  0  0  0  0
    9.5421   -2.7637   22.5203 C   0  0  0  0  0  0  0  0  0  0  0  0
    7.5398   -3.8611   21.7308 C   0  0  0  0  0  0  0  0  0  0  0  0
    8.8407   -4.8540   23.5081 C   0  0  0  0  0  0  0  0  0  0  0  0
    9.7419   -3.7914   23.4420 C   0  0  0  0  0  0  0  0  0  0  0  0
    7.7396   -4.8888   22.6525 C   0  0  0  0  0  0  0  0  0  0  0  0
   12.7073   -2.1182   24.8774 C   0  0  0  0  0  0  0  0  0  0  0  0
   10.6679   -4.4541   25.6993 C   0  0  0  0  0  0  0  0  0  0  0  0
   12.9628   -0.6442   25.0617 C   0  0  0  0  0  0  0  0  0  0  0  0
   10.9201   -3.7541   24.3557 C   0  0  2  0  0  0  0  0  0  0  0  0
   11.3869   -2.3981   24.5904 N   0  0  0  0  0  0  0  0  0  0  0  0
   13.6097   -2.9490   24.9652 O   0  0  0  0  0  0  0  0  0  0  0  0
    6.6279   -6.2001   22.7328 Cl  0  0  0  0  0  0  0  0  0  0  0  0
   11.8074    0.2392   24.0520 Cl  0  0  0  0  0  0  0  0  0  0  0  0
   10.7237   -1.6361   24.5419 H   0  0  0  0  0  0  0  0  0  0  0  0
  1  2  2  0  0  0  0
  1  3  1  0  0  0  0
  2  5  1  0  0  0  0
  3  6  2  0  0  0  0
  4  5  2  0  0  0  0
  4  6  1  0  0  0  0
  5 10  1  0  0  0  0
  6 13  1  0  0  0  0
  7  9  1  0  0  0  0
  7 11  1  0  0  0  0
  7 12  2  0  0  0  0
  8 10  1  0  0  0  0
  9 14  1  0  0  0  0
 10 11  1  0  0  0  0
 11 15  1  0  0  0  0
M  END
> <ref_mols>
x1382_0

> <original SMILES>
CC(NC(=O)CCl)c1cccc(Cl)c1

> <Chemgauss4>
-7.186934

> <ref_pdb>
x0749_0

$$$$
x0969
  -OEChem-05172015543D

 22 21  0     1  0  0  0  0  0999 V2000
    9.6088   -0.8231   21.6341 C   0  0  0  0  0  0  0  0  0  0  0  0
    8.7563   -0.5084   20.8496 C   0  0  0  0  0  0  0  0  0  0  0  0
    7.6104   -5.0441   26.3661 C   0  0  0  0  0  0  0  0  0  0  0  0
    9.1668   -2.5718   24.0270 C   0  0  0  0  0  0  0  0  0  0  0  0
    6.4102   -4.8303   27.2276 C   0  0  0  0  0  0  0  0  0  0  0  0
   10.6498   -1.2027   22.5884 C   0  0  0  0  0  0  0  0  0  0  0  0
    7.7313   -4.9912   22.7128 C   0  0  0  0  0  0  0  0  0  0  0  0
    7.6833   -6.1660   21.7331 C   0  0  0  0  0  0  0  0  0  0  0  0
    8.9624   -5.0799   23.6242 C   0  0  0  0  0  0  0  0  0  0  0  0
    6.4807   -6.0561   20.8075 C   0  0  0  0  0  0  0  0  0  0  0  0
    9.0555   -3.9544   24.6612 C   0  0  2  0  0  0  0  0  0  0  0  0
   10.3149   -2.4358   23.2598 N   0  0  0  0  0  0  0  0  0  0  0  0
    7.9351   -3.9617   25.5658 N   0  0  0  0  0  0  0  0  0  0  0  0
    5.2428   -6.0126   21.6224 N   0  3  0  0  0  0  0  0  0  0  0  0
    8.2084   -6.1126   26.4174 O   0  0  0  0  0  0  0  0  0  0  0  0
    8.3386   -1.6818   24.2099 O   0  0  0  0  0  0  0  0  0  0  0  0
    7.4071   -0.0105   19.6076 Br  0  0  0  0  0  0  0  0  0  0  0  0
   10.9405   -3.2306   23.1676 H   0  0  0  0  0  0  0  0  0  0  0  0
    7.3521   -3.1289   25.6198 H   0  0  0  0  0  0  0  0  0  0  0  0
    4.4233   -6.2676   21.0604 H   0  0  0  0  0  0  0  0  0  0  0  0
    5.0852   -5.0720   22.0010 H   0  0  0  0  0  0  0  0  0  0  0  0
    5.2993   -6.6652   22.4121 H   0  0  0  0  0  0  0  0  0  0  0  0
  1  2  3  0  0  0  0
  1  6  1  0  0  0  0
  2 17  1  0  0  0  0
  3  5  1  0  0  0  0
  3 13  1  0  0  0  0
  3 15  2  0  0  0  0
  4 11  1  0  0  0  0
  4 12  1  0  0  0  0
  4 16  2  0  0  0  0
  6 12  1  0  0  0  0
  7  8  1  0  0  0  0
  7  9  1  0  0  0  0
  8 10  1  0  0  0  0
  9 11  1  0  0  0  0
 10 14  1  0  0  0  0
 11 13  1  0  0  0  0
 12 18  1  0  0  0  0
 13 19  1  0  0  0  0
 14 20  1  0  0  0  0
 14 21  1  0  0  0  0
 14 22  1  0  0  0  0
M  CHG  1  14   1
M  END
> <ref_mols>
x0969_0

> <original SMILES>
CC(=O)N[C@@H](CCCCN)C(=O)NCC#CBr

> <Chemgauss4>
-7.178466

> <ref_pdb>
x1077_0

$$$$
x0986
  -OEChem-05172015543D

 22 21  0     1  0  0  0  0  0999 V2000
    9.6088   -0.8231   21.6341 C   0  0  0  0  0  0  0  0  0  0  0  0
    8.7563   -0.5084   20.8496 C   0  0  0  0  0  0  0  0  0  0  0  0
    7.6104   -5.0441   26.3661 C   0  0  0  0  0  0  0  0  0  0  0  0
    9.1668   -2.5718   24.0270 C   0  0  0  0  0  0  0  0  0  0  0  0
    6.4102   -4.8303   27.2276 C   0  0  0  0  0  0  0  0  0  0  0  0
   10.6498   -1.2027   22.5884 C   0  0  0  0  0  0  0  0  0  0  0  0
    7.7313   -4.9912   22.7128 C   0  0  0  0  0  0  0  0  0  0  0  0
    7.6833   -6.1660   21.7331 C   0  0  0  0  0  0  0  0  0  0  0  0
    8.9624   -5.0799   23.6242 C   0  0  0  0  0  0  0  0  0  0  0  0
    6.4807   -6.0561   20.8075 C   0  0  0  0  0  0  0  0  0  0  0  0
    9.0555   -3.9544   24.6612 C   0  0  2  0  0  0  0  0  0  0  0  0
   10.3149   -2.4358   23.2598 N   0  0  0  0  0  0  0  0  0  0  0  0
    7.9351   -3.9617   25.5658 N   0  0  0  0  0  0  0  0  0  0  0  0
    5.2428   -6.0126   21.6224 N   0  3  0  0  0  0  0  0  0  0  0  0
    8.2084   -6.1126   26.4174 O   0  0  0  0  0  0  0  0  0  0  0  0
    8.3386   -1.6818   24.2099 O   0  0  0  0  0  0  0  0  0  0  0  0
    7.4071   -0.0105   19.6076 Br  0  0  0  0  0  0  0  0  0  0  0  0
   10.9405   -3.2306   23.1676 H   0  0  0  0  0  0  0  0  0  0  0  0
    7.3521   -3.1289   25.6198 H   0  0  0  0  0  0  0  0  0  0  0  0
    4.4233   -6.2676   21.0604 H   0  0  0  0  0  0  0  0  0  0  0  0
    5.0852   -5.0720   22.0010 H   0  0  0  0  0  0  0  0  0  0  0  0
    5.2993   -6.6652   22.4121 H   0  0  0  0  0  0  0  0  0  0  0  0
  1  2  3  0  0  0  0
  1  6  1  0  0  0  0
  2 17  1  0  0  0  0
  3  5  1  0  0  0  0
  3 13  1  0  0  0  0
  3 15  2  0  0  0  0
  4 11  1  0  0  0  0
  4 12  1  0  0  0  0
  4 16  2  0  0  0  0
  6 12  1  0  0  0  0
  7  8  1  0  0  0  0
  7  9  1  0  0  0  0
  8 10  1  0  0  0  0
  9 11  1  0  0  0  0
 10 14  1  0  0  0  0
 11 13  1  0  0  0  0
 12 18  1  0  0  0  0
 13 19  1  0  0  0  0
 14 20  1  0  0  0  0
 14 21  1  0  0  0  0
 14 22  1  0  0  0  0
M  CHG  1  14   1
M  END
> <ref_mols>
x0986_0

> <original SMILES>
CC(N[C@@H](CCCC[NH3+])C(NCC#CBr)=O)=O.O=C([O-])C(F)(F)F

> <Chemgauss4>
-7.178466

> <ref_pdb>
x1077_0

$$$$
x1117
  -OEChem-05172015543D

 20 21  0     1  0  0  0  0  0999 V2000
    8.8104   -3.0591   23.1366 C   0  0  0  0  0  0  0  0  0  0  0  0
   10.0130   -4.7515   24.3722 C   0  0  0  0  0  0  0  0  0  0  0  0
    7.9786   -4.0419   22.6000 C   0  0  0  0  0  0  0  0  0  0  0  0
    9.1812   -5.7343   23.8357 C   0  0  0  0  0  0  0  0  0  0  0  0
    9.8276   -3.4139   24.0227 C   0  0  0  0  0  0  0  0  0  0  0  0
    8.1640   -5.3795   22.9496 C   0  0  0  0  0  0  0  0  0  0  0  0
   11.7251   -2.5939   25.4549 C   0  0  0  0  0  0  0  0  0  0  0  0
    6.2676   -6.2006   21.5164 C   0  0  0  0  0  0  0  0  0  0  0  0
   13.7801   -1.2954   26.2859 C   0  0  0  0  0  0  0  0  0  0  0  0
   12.3594   -1.3117   25.7853 C   0  0  1  0  0  0  0  0  0  0  0  0
   13.4672   -0.7408   24.9173 C   0  0  0  0  0  0  0  0  0  0  0  0
    5.6165   -7.5180   21.1774 C   0  0  0  0  0  0  0  0  0  0  0  0
   13.5041    0.7540   24.7368 C   0  0  0  0  0  0  0  0  0  0  0  0
   13.9550   -1.5148   23.7201 C   0  0  0  0  0  0  0  0  0  0  0  0
   10.6718   -2.4170   24.5668 N   0  0  0  0  0  0  0  0  0  0  0  0
    7.3323   -6.3627   22.4131 N   0  0  0  0  0  0  0  0  0  0  0  0
   12.1366   -3.6421   25.9417 O   0  0  0  0  0  0  0  0  0  0  0  0
    5.8604   -5.1535   21.0238 O   0  0  0  0  0  0  0  0  0  0  0  0
   10.4741   -1.4656   24.2640 H   0  0  0  0  0  0  0  0  0  0  0  0
    7.5190   -7.3282   22.7077 H   0  0  0  0  0  0  0  0  0  0  0  0
  1  3  2  0  0  0  0
  1  5  1  0  0  0  0
  2  4  1  0  0  0  0
  2  5  2  0  0  0  0
  3  6  1  0  0  0  0
  4  6  2  0  0  0  0
  5 15  1  0  0  0  0
  6 16  1  0  0  0  0
  7 10  1  0  0  0  0
  7 15  1  0  0  0  0
  7 17  2  0  0  0  0
  8 12  1  0  0  0  0
  8 16  1  0  0  0  0
  8 18  2  0  0  0  0
  9 10  1  0  0  0  0
  9 11  1  0  0  0  0
 10 11  1  0  0  0  0
 11 13  1  0  0  0  0
 11 14  1  0  0  0  0
 15 19  1  0  0  0  0
 16 20  1  0  0  0  0
M  END
> <ref_mols>
x1117_0

> <original SMILES>
CC(=O)NC=1C=CC(NC(=O)[C@H]2CC2(C)C)=CC1

> <Chemgauss4>
-7.177170

> <ref_pdb>
x0749_0

$$$$
x0424
  -OEChem-05172015543D

 20 21  0     1  0  0  0  0  0999 V2000
    8.8104   -3.0591   23.1366 C   0  0  0  0  0  0  0  0  0  0  0  0
   10.0130   -4.7515   24.3722 C   0  0  0  0  0  0  0  0  0  0  0  0
    7.9786   -4.0419   22.6000 C   0  0  0  0  0  0  0  0  0  0  0  0
    9.1812   -5.7343   23.8357 C   0  0  0  0  0  0  0  0  0  0  0  0
    9.8276   -3.4139   24.0227 C   0  0  0  0  0  0  0  0  0  0  0  0
    8.1640   -5.3795   22.9496 C   0  0  0  0  0  0  0  0  0  0  0  0
   11.7251   -2.5939   25.4549 C   0  0  0  0  0  0  0  0  0  0  0  0
    6.2676   -6.2006   21.5164 C   0  0  0  0  0  0  0  0  0  0  0  0
   13.7801   -1.2954   26.2859 C   0  0  0  0  0  0  0  0  0  0  0  0
   12.3594   -1.3117   25.7853 C   0  0  1  0  0  0  0  0  0  0  0  0
   13.4672   -0.7408   24.9173 C   0  0  0  0  0  0  0  0  0  0  0  0
    5.6165   -7.5180   21.1774 C   0  0  0  0  0  0  0  0  0  0  0  0
   13.5041    0.7540   24.7368 C   0  0  0  0  0  0  0  0  0  0  0  0
   13.9550   -1.5148   23.7201 C   0  0  0  0  0  0  0  0  0  0  0  0
   10.6718   -2.4170   24.5668 N   0  0  0  0  0  0  0  0  0  0  0  0
    7.3323   -6.3627   22.4131 N   0  0  0  0  0  0  0  0  0  0  0  0
   12.1366   -3.6421   25.9417 O   0  0  0  0  0  0  0  0  0  0  0  0
    5.8604   -5.1535   21.0238 O   0  0  0  0  0  0  0  0  0  0  0  0
   10.4741   -1.4656   24.2640 H   0  0  0  0  0  0  0  0  0  0  0  0
    7.5190   -7.3282   22.7077 H   0  0  0  0  0  0  0  0  0  0  0  0
  1  3  2  0  0  0  0
  1  5  1  0  0  0  0
  2  4  1  0  0  0  0
  2  5  2  0  0  0  0
  3  6  1  0  0  0  0
  4  6  2  0  0  0  0
  5 15  1  0  0  0  0
  6 16  1  0  0  0  0
  7 10  1  0  0  0  0
  7 15  1  0  0  0  0
  7 17  2  0  0  0  0
  8 12  1  0  0  0  0
  8 16  1  0  0  0  0
  8 18  2  0  0  0  0
  9 10  1  0  0  0  0
  9 11  1  0  0  0  0
 10 11  1  0  0  0  0
 11 13  1  0  0  0  0
 11 14  1  0  0  0  0
 15 19  1  0  0  0  0
 16 20  1  0  0  0  0
M  END
> <ref_mols>
x0424_0

> <original SMILES>
CC(=O)NC=1C=CC(NC(=O)[C@H]2CC2(C)C)=CC1

> <Chemgauss4>
-7.177170

> <ref_pdb>
x0749_0

$$$$
x1307
  -OEChem-05172015543D

 19 20  0     1  0  0  0  0  0999 V2000
    8.7831   -0.4873   23.9784 C   0  0  0  0  0  0  0  0  0  0  0  0
   10.0847   -2.2143   22.9013 C   0  0  0  0  0  0  0  0  0  0  0  0
    9.9428    0.2609   24.1802 C   0  0  0  0  0  0  0  0  0  0  0  0
   11.2445   -1.4661   23.1031 C   0  0  0  0  0  0  0  0  0  0  0  0
    8.8540   -1.7250   23.3390 C   0  0  0  0  0  0  0  0  0  0  0  0
   11.1735   -0.2285   23.7425 C   0  0  0  0  0  0  0  0  0  0  0  0
    7.0596   -2.9288   25.4195 C   0  0  0  0  0  0  0  0  0  0  0  0
    7.5831   -3.5915   26.4557 C   0  0  0  0  0  0  0  0  0  0  0  0
    6.9452   -2.2705   21.9065 C   0  0  0  0  0  0  0  0  0  0  0  0
    8.3137   -4.6159   24.1843 C   0  0  0  0  0  0  0  0  0  0  0  0
    7.2518   -3.5258   24.0563 C   0  0  2  0  0  0  0  0  0  0  0  0
    7.4909   -1.1170   21.0834 C   0  0  0  0  0  0  0  0  0  0  0  0
    7.6509   -2.5015   23.1297 N   0  0  0  0  0  0  0  0  0  0  0  0
    5.9545   -2.8943   21.5177 O   0  0  0  0  0  0  0  0  0  0  0  0
    9.7599   -5.0236   26.3553 O   0  0  0  0  0  0  0  0  0  0  0  0
    7.5131   -6.1747   26.1568 O   0  0  0  0  0  0  0  0  0  0  0  0
   12.2873    0.4904   23.9353 F   0  0  0  0  0  0  0  0  0  0  0  0
    8.3761   -5.0333   25.9267 S   0  0  0  0  0  0  0  0  0  0  0  0
    6.5229   -0.9087   19.6086 Cl  0  0  0  0  0  0  0  0  0  0  0  0
  1  3  2  0  0  0  0
  1  5  1  0  0  0  0
  2  4  1  0  0  0  0
  2  5  2  0  0  0  0
  3  6  1  0  0  0  0
  4  6  2  0  0  0  0
  5 13  1  0  0  0  0
  6 17  1  0  0  0  0
  7  8  2  0  0  0  0
  7 11  1  0  0  0  0
  8 18  1  0  0  0  0
  9 12  1  0  0  0  0
  9 13  1  0  0  0  0
  9 14  2  0  0  0  0
 10 11  1  0  0  0  0
 10 18  1  0  0  0  0
 11 13  1  0  0  0  0
 12 19  1  0  0  0  0
 15 18  2  0  0  0  0
 16 18  2  0  0  0  0
M  END
> <ref_mols>
x1307_0

> <original SMILES>
Fc1ccc(cc1)N(C2CS(=O)(=O)C=C2)C(=O)CCl

> <Chemgauss4>
-7.176248

> <ref_pdb>
x1392_0

$$$$
x0791
  -OEChem-05172015543D

 19 20  0     1  0  0  0  0  0999 V2000
    8.7831   -0.4873   23.9784 C   0  0  0  0  0  0  0  0  0  0  0  0
   10.0847   -2.2143   22.9013 C   0  0  0  0  0  0  0  0  0  0  0  0
    9.9428    0.2609   24.1802 C   0  0  0  0  0  0  0  0  0  0  0  0
   11.2445   -1.4661   23.1031 C   0  0  0  0  0  0  0  0  0  0  0  0
    8.8540   -1.7250   23.3390 C   0  0  0  0  0  0  0  0  0  0  0  0
   11.1735   -0.2285   23.7425 C   0  0  0  0  0  0  0  0  0  0  0  0
    7.0596   -2.9288   25.4195 C   0  0  0  0  0  0  0  0  0  0  0  0
    7.5831   -3.5915   26.4557 C   0  0  0  0  0  0  0  0  0  0  0  0
    6.9452   -2.2705   21.9065 C   0  0  0  0  0  0  0  0  0  0  0  0
    8.3137   -4.6159   24.1843 C   0  0  0  0  0  0  0  0  0  0  0  0
    7.2518   -3.5258   24.0563 C   0  0  2  0  0  0  0  0  0  0  0  0
    7.4909   -1.1170   21.0834 C   0  0  0  0  0  0  0  0  0  0  0  0
    7.6509   -2.5015   23.1297 N   0  0  0  0  0  0  0  0  0  0  0  0
    5.9545   -2.8943   21.5177 O   0  0  0  0  0  0  0  0  0  0  0  0
    9.7599   -5.0236   26.3553 O   0  0  0  0  0  0  0  0  0  0  0  0
    7.5131   -6.1747   26.1568 O   0  0  0  0  0  0  0  0  0  0  0  0
   12.2873    0.4904   23.9353 F   0  0  0  0  0  0  0  0  0  0  0  0
    8.3761   -5.0333   25.9267 S   0  0  0  0  0  0  0  0  0  0  0  0
    6.5229   -0.9087   19.6086 Cl  0  0  0  0  0  0  0  0  0  0  0  0
  1  3  2  0  0  0  0
  1  5  1  0  0  0  0
  2  4  1  0  0  0  0
  2  5  2  0  0  0  0
  3  6  1  0  0  0  0
  4  6  2  0  0  0  0
  5 13  1  0  0  0  0
  6 17  1  0  0  0  0
  7  8  2  0  0  0  0
  7 11  1  0  0  0  0
  8 18  1  0  0  0  0
  9 12  1  0  0  0  0
  9 13  1  0  0  0  0
  9 14  2  0  0  0  0
 10 11  1  0  0  0  0
 10 18  1  0  0  0  0
 11 13  1  0  0  0  0
 12 19  1  0  0  0  0
 15 18  2  0  0  0  0
 16 18  2  0  0  0  0
M  END
> <ref_mols>
x0791_0

> <original SMILES>
Fc1ccc(cc1)N(C2CS(=O)(=O)C=C2)C(=O)CCl

> <Chemgauss4>
-7.176248

> <ref_pdb>
x1392_0

$$$$
x1447
  -OEChem-05172015543D

 19 20  0     1  0  0  0  0  0999 V2000
    8.7831   -0.4873   23.9784 C   0  0  0  0  0  0  0  0  0  0  0  0
   10.0847   -2.2143   22.9013 C   0  0  0  0  0  0  0  0  0  0  0  0
    9.9428    0.2609   24.1802 C   0  0  0  0  0  0  0  0  0  0  0  0
   11.2445   -1.4661   23.1031 C   0  0  0  0  0  0  0  0  0  0  0  0
    8.8540   -1.7250   23.3390 C   0  0  0  0  0  0  0  0  0  0  0  0
   11.1735   -0.2285   23.7425 C   0  0  0  0  0  0  0  0  0  0  0  0
    7.0596   -2.9288   25.4195 C   0  0  0  0  0  0  0  0  0  0  0  0
    7.5831   -3.5915   26.4557 C   0  0  0  0  0  0  0  0  0  0  0  0
    6.9452   -2.2705   21.9065 C   0  0  0  0  0  0  0  0  0  0  0  0
    8.3137   -4.6159   24.1843 C   0  0  0  0  0  0  0  0  0  0  0  0
    7.2518   -3.5258   24.0563 C   0  0  2  0  0  0  0  0  0  0  0  0
    7.4909   -1.1170   21.0834 C   0  0  0  0  0  0  0  0  0  0  0  0
    7.6509   -2.5015   23.1297 N   0  0  0  0  0  0  0  0  0  0  0  0
    5.9545   -2.8943   21.5177 O   0  0  0  0  0  0  0  0  0  0  0  0
    9.7599   -5.0236   26.3553 O   0  0  0  0  0  0  0  0  0  0  0  0
    7.5131   -6.1747   26.1568 O   0  0  0  0  0  0  0  0  0  0  0  0
   12.2873    0.4904   23.9353 F   0  0  0  0  0  0  0  0  0  0  0  0
    8.3761   -5.0333   25.9267 S   0  0  0  0  0  0  0  0  0  0  0  0
    6.5229   -0.9087   19.6086 Cl  0  0  0  0  0  0  0  0  0  0  0  0
  1  3  2  0  0  0  0
  1  5  1  0  0  0  0
  2  4  1  0  0  0  0
  2  5  2  0  0  0  0
  3  6  1  0  0  0  0
  4  6  2  0  0  0  0
  5 13  1  0  0  0  0
  6 17  1  0  0  0  0
  7  8  2  0  0  0  0
  7 11  1  0  0  0  0
  8 18  1  0  0  0  0
  9 12  1  0  0  0  0
  9 13  1  0  0  0  0
  9 14  2  0  0  0  0
 10 11  1  0  0  0  0
 10 18  1  0  0  0  0
 11 13  1  0  0  0  0
 12 19  1  0  0  0  0
 15 18  2  0  0  0  0
 16 18  2  0  0  0  0
M  END
> <ref_mols>
x1447_0

> <original SMILES>
Fc1ccc(cc1)N(C2CS(=O)(=O)C=C2)C(=O)CCl

> <Chemgauss4>
-7.176248

> <ref_pdb>
x1392_0

$$$$
x1375
  -OEChem-05172015543D

 19 20  0     1  0  0  0  0  0999 V2000
    8.7831   -0.4873   23.9784 C   0  0  0  0  0  0  0  0  0  0  0  0
   10.0847   -2.2143   22.9013 C   0  0  0  0  0  0  0  0  0  0  0  0
    9.9428    0.2609   24.1802 C   0  0  0  0  0  0  0  0  0  0  0  0
   11.2445   -1.4661   23.1031 C   0  0  0  0  0  0  0  0  0  0  0  0
    8.8540   -1.7250   23.3390 C   0  0  0  0  0  0  0  0  0  0  0  0
   11.1735   -0.2285   23.7425 C   0  0  0  0  0  0  0  0  0  0  0  0
    7.0596   -2.9288   25.4195 C   0  0  0  0  0  0  0  0  0  0  0  0
    7.5831   -3.5915   26.4557 C   0  0  0  0  0  0  0  0  0  0  0  0
    6.9452   -2.2705   21.9065 C   0  0  0  0  0  0  0  0  0  0  0  0
    8.3137   -4.6159   24.1843 C   0  0  0  0  0  0  0  0  0  0  0  0
    7.2518   -3.5258   24.0563 C   0  0  2  0  0  0  0  0  0  0  0  0
    7.4909   -1.1170   21.0834 C   0  0  0  0  0  0  0  0  0  0  0  0
    7.6509   -2.5015   23.1297 N   0  0  0  0  0  0  0  0  0  0  0  0
    5.9545   -2.8943   21.5177 O   0  0  0  0  0  0  0  0  0  0  0  0
    9.7599   -5.0236   26.3553 O   0  0  0  0  0  0  0  0  0  0  0  0
    7.5131   -6.1747   26.1568 O   0  0  0  0  0  0  0  0  0  0  0  0
   12.2873    0.4904   23.9353 F   0  0  0  0  0  0  0  0  0  0  0  0
    8.3761   -5.0333   25.9267 S   0  0  0  0  0  0  0  0  0  0  0  0
    6.5229   -0.9087   19.6086 Cl  0  0  0  0  0  0  0  0  0  0  0  0
  1  3  2  0  0  0  0
  1  5  1  0  0  0  0
  2  4  1  0  0  0  0
  2  5  2  0  0  0  0
  3  6  1  0  0  0  0
  4  6  2  0  0  0  0
  5 13  1  0  0  0  0
  6 17  1  0  0  0  0
  7  8  2  0  0  0  0
  7 11  1  0  0  0  0
  8 18  1  0  0  0  0
  9 12  1  0  0  0  0
  9 13  1  0  0  0  0
  9 14  2  0  0  0  0
 10 11  1  0  0  0  0
 10 18  1  0  0  0  0
 11 13  1  0  0  0  0
 12 19  1  0  0  0  0
 15 18  2  0  0  0  0
 16 18  2  0  0  0  0
M  END
> <ref_mols>
x1375_0

> <original SMILES>
Fc1ccc(cc1)N(C2CS(=O)(=O)C=C2)C(=O)CCl

> <Chemgauss4>
-7.176248

> <ref_pdb>
x1392_0

$$$$
x0717
  -OEChem-05172015543D

 19 20  0     1  0  0  0  0  0999 V2000
    8.7831   -0.4873   23.9784 C   0  0  0  0  0  0  0  0  0  0  0  0
   10.0847   -2.2143   22.9013 C   0  0  0  0  0  0  0  0  0  0  0  0
    9.9428    0.2609   24.1802 C   0  0  0  0  0  0  0  0  0  0  0  0
   11.2445   -1.4661   23.1031 C   0  0  0  0  0  0  0  0  0  0  0  0
    8.8540   -1.7250   23.3390 C   0  0  0  0  0  0  0  0  0  0  0  0
   11.1735   -0.2285   23.7425 C   0  0  0  0  0  0  0  0  0  0  0  0
    7.0596   -2.9288   25.4195 C   0  0  0  0  0  0  0  0  0  0  0  0
    7.5831   -3.5915   26.4557 C   0  0  0  0  0  0  0  0  0  0  0  0
    6.9452   -2.2705   21.9065 C   0  0  0  0  0  0  0  0  0  0  0  0
    8.3137   -4.6159   24.1843 C   0  0  0  0  0  0  0  0  0  0  0  0
    7.2518   -3.5258   24.0563 C   0  0  2  0  0  0  0  0  0  0  0  0
    7.4909   -1.1170   21.0834 C   0  0  0  0  0  0  0  0  0  0  0  0
    7.6509   -2.5015   23.1297 N   0  0  0  0  0  0  0  0  0  0  0  0
    5.9545   -2.8943   21.5177 O   0  0  0  0  0  0  0  0  0  0  0  0
    9.7599   -5.0236   26.3553 O   0  0  0  0  0  0  0  0  0  0  0  0
    7.5131   -6.1747   26.1568 O   0  0  0  0  0  0  0  0  0  0  0  0
   12.2873    0.4904   23.9353 F   0  0  0  0  0  0  0  0  0  0  0  0
    8.3761   -5.0333   25.9267 S   0  0  0  0  0  0  0  0  0  0  0  0
    6.5229   -0.9087   19.6086 Cl  0  0  0  0  0  0  0  0  0  0  0  0
  1  3  2  0  0  0  0
  1  5  1  0  0  0  0
  2  4  1  0  0  0  0
  2  5  2  0  0  0  0
  3  6  1  0  0  0  0
  4  6  2  0  0  0  0
  5 13  1  0  0  0  0
  6 17  1  0  0  0  0
  7  8  2  0  0  0  0
  7 11  1  0  0  0  0
  8 18  1  0  0  0  0
  9 12  1  0  0  0  0
  9 13  1  0  0  0  0
  9 14  2  0  0  0  0
 10 11  1  0  0  0  0
 10 18  1  0  0  0  0
 11 13  1  0  0  0  0
 12 19  1  0  0  0  0
 15 18  2  0  0  0  0
 16 18  2  0  0  0  0
M  END
> <ref_mols>
x0717_0

> <original SMILES>
Fc1ccc(cc1)N(C2CS(=O)(=O)C=C2)C(=O)CCl

> <Chemgauss4>
-7.176248

> <ref_pdb>
x1392_0

$$$$
x0958
  -OEChem-05172015543D

 13 13  0     0  0  0  0  0  0999 V2000
   14.3162    1.8025   21.9093 C   0  0  0  0  0  0  0  0  0  0  0  0
   14.5804    0.4514   22.1332 C   0  0  0  0  0  0  0  0  0  0  0  0
   12.4567    0.2231   23.2622 C   0  0  0  0  0  0  0  0  0  0  0  0
   13.1222    2.3640   22.3619 C   0  0  0  0  0  0  0  0  0  0  0  0
   12.1924    1.5743   23.0383 C   0  0  0  0  0  0  0  0  0  0  0  0
   13.6507   -0.3383   22.8096 C   0  0  0  0  0  0  0  0  0  0  0  0
   13.3945    4.6389   23.2803 C   0  0  0  0  0  0  0  0  0  0  0  0
   10.1286    1.2281   24.1682 C   0  0  0  0  0  0  0  0  0  0  0  0
   12.8562    3.8121   22.1139 C   0  0  0  0  0  0  0  0  0  0  0  0
   14.6431    4.5660   23.4599 O   0  5  0  0  0  0  0  0  0  0  0  0
   12.5235    5.2868   23.9271 O   0  0  0  0  0  0  0  0  0  0  0  0
   11.0213    2.1071   23.4868 O   0  0  0  0  0  0  0  0  0  0  0  0
   14.0089   -2.1696   23.1113 Br  0  0  0  0  0  0  0  0  0  0  0  0
  1  2  1  0  0  0  0
  1  4  2  0  0  0  0
  2  6  2  0  0  0  0
  3  5  2  0  0  0  0
  3  6  1  0  0  0  0
  4  5  1  0  0  0  0
  4  9  1  0  0  0  0
  5 12  1  0  0  0  0
  6 13  1  0  0  0  0
  7  9  1  0  0  0  0
  7 10  1  0  0  0  0
  7 11  2  0  0  0  0
  8 12  1  0  0  0  0
M  CHG  1  10  -1
M  END
> <ref_mols>
x0958_0

> <original SMILES>
BrC1=CC(OC)=C(CC(O)=O)C=C1

> <Chemgauss4>
-7.169648

> <ref_pdb>
x0195_0

$$$$
x2898
  -OEChem-05172015543D

 25 27  0     0  0  0  0  0  0999 V2000
   11.8050    4.2845   24.5767 C   0  0  0  0  0  0  0  0  0  0  0  0
   12.3000    4.0764   23.2894 C   0  0  0  0  0  0  0  0  0  0  0  0
   11.6159    3.2012   25.4349 C   0  0  0  0  0  0  0  0  0  0  0  0
    9.1955   -1.1322   21.3638 C   0  0  0  0  0  0  0  0  0  0  0  0
   12.6058    2.7850   22.8601 C   0  0  0  0  0  0  0  0  0  0  0  0
   11.9217    1.9098   25.0056 C   0  0  0  0  0  0  0  0  0  0  0  0
    8.1718   -1.7197   20.6127 C   0  0  0  0  0  0  0  0  0  0  0  0
    8.9917   -2.8725   23.0012 C   0  0  0  0  0  0  0  0  0  0  0  0
    9.6039   -1.7056   22.5593 C   0  0  0  0  0  0  0  0  0  0  0  0
    7.9524   -3.4666   22.2615 C   0  0  0  0  0  0  0  0  0  0  0  0
   12.4167    1.7016   23.7182 C   0  0  0  0  0  0  0  0  0  0  0  0
    7.5189   -2.8881   21.0459 C   0  0  0  0  0  0  0  0  0  0  0  0
    5.8462   -0.7229   18.0626 C   0  0  0  0  0  0  0  0  0  0  0  0
    5.8179   -1.4013   19.2116 C   0  0  0  0  0  0  0  0  0  0  0  0
   10.6753   -1.1008   23.3344 C   0  0  0  0  0  0  0  0  0  0  0  0
    5.8660   -2.8814   19.1701 C   0  0  0  0  0  0  0  0  0  0  0  0
    7.3671   -4.7483   22.7934 C   0  0  0  0  0  0  0  0  0  0  0  0
    5.9933   -5.0037   22.2082 C   0  0  0  0  0  0  0  0  0  0  0  0
    6.0526   -4.8672   20.6969 C   0  0  0  0  0  0  0  0  0  0  0  0
   12.7454    0.3113   23.2567 C   0  0  0  0  0  0  0  0  0  0  0  0
    6.4689   -3.5169   20.2683 N   0  0  0  0  0  0  0  0  0  0  0  0
   11.6125   -0.3335   22.6327 N   0  0  0  0  0  0  0  0  0  0  0  0
   10.7491   -1.2867   24.5621 O   0  0  0  0  0  0  0  0  0  0  0  0
    5.3821   -3.4261   18.1785 O   0  0  0  0  0  0  0  0  0  0  0  0
   11.5416   -0.2658   21.6226 H   0  0  0  0  0  0  0  0  0  0  0  0
  1  2  1  0  0  0  0
  1  3  2  0  0  0  0
  2  5  2  0  0  0  0
  3  6  1  0  0  0  0
  4  7  1  0  0  0  0
  4  9  2  0  0  0  0
  5 11  1  0  0  0  0
  6 11  2  0  0  0  0
  7 12  2  0  0  0  0
  8  9  1  0  0  0  0
  8 10  2  0  0  0  0
  9 15  1  0  0  0  0
 10 12  1  0  0  0  0
 10 17  1  0  0  0  0
 11 20  1  0  0  0  0
 12 21  1  0  0  0  0
 13 14  2  0  0  0  0
 14 16  1  0  0  0  0
 15 22  1  0  0  0  0
 15 23  2  0  0  0  0
 16 21  1  0  0  0  0
 16 24  2  0  0  0  0
 17 18  1  0  0  0  0
 18 19  1  0  0  0  0
 19 21  1  0  0  0  0
 20 22  1  0  0  0  0
 22 25  1  0  0  0  0
M  END
> <ref_mols>
x2898_0

> <original SMILES>
O=C(C=C)N1CCCC2=C1C=CC(C(NCC3=CC=CC=C3)=O)=C2

> <Chemgauss4>
-7.165574

> <ref_pdb>
x0830_0

$$$$
x0856
  -OEChem-05172015543D

 15 15  0     1  0  0  0  0  0999 V2000
   10.9408    1.7729   22.0162 C   0  0  0  0  0  0  0  0  0  0  0  0
   13.3926   -0.2283   22.1266 C   0  0  0  0  0  0  0  0  0  0  0  0
   13.0831    0.9134   23.0789 C   0  0  0  0  0  0  0  0  0  0  0  0
   12.3530   -1.2812   22.4811 C   0  0  0  0  0  0  0  0  0  0  0  0
   11.5514    0.9253   23.1279 C   0  0  1  0  0  0  0  0  0  0  0  0
   11.0553    1.3577   24.4733 C   0  0  0  0  0  0  0  0  0  0  0  0
    9.6539   -2.6695   23.2809 C   0  0  0  0  0  0  0  0  0  0  0  0
   11.1900   -0.5187   23.0129 N   0  0  1  0  0  0  0  0  0  0  0  0
   11.3226    3.0931   22.0520 N   0  0  0  0  0  0  0  0  0  0  0  0
   10.1925    1.2949   21.1671 O   0  0  0  0  0  0  0  0  0  0  0  0
    9.5181   -1.1487   21.1606 O   0  0  0  0  0  0  0  0  0  0  0  0
    8.6535   -0.2569   23.3611 O   0  0  0  0  0  0  0  0  0  0  0  0
    9.6273   -1.0258   22.6045 S   0  0  0  0  0  0  0  0  0  0  0  0
   11.9563    3.3971   22.7840 H   0  0  0  0  0  0  0  0  0  0  0  0
   10.9962    3.7759   21.3759 H   0  0  0  0  0  0  0  0  0  0  0  0
  1  5  1  0  0  0  0
  1  9  1  0  0  0  0
  1 10  2  0  0  0  0
  2  3  1  0  0  0  0
  2  4  1  0  0  0  0
  3  5  1  0  0  0  0
  4  8  1  0  0  0  0
  5  6  1  0  0  0  0
  5  8  1  0  0  0  0
  7 13  1  0  0  0  0
  8 13  1  0  0  0  0
 11 13  2  0  0  0  0
 12 13  2  0  0  0  0
  9 14  1  0  0  0  0
  9 15  1  0  0  0  0
M  END
> <ref_mols>
x0856_0

> <original SMILES>
CC1(C(N)=O)N(S(=O)(C)=O)CCC1

> <Chemgauss4>
-7.163182

> <ref_pdb>
x0874_0

$$$$
x1192
  -OEChem-05172015543D

 14 14  0     1  0  0  0  0  0999 V2000
    8.7578   -2.1911   22.5782 C   0  0  0  0  0  0  0  0  0  0  0  0
    6.8888   -3.2220   20.3554 C   0  0  0  0  0  0  0  0  0  0  0  0
   10.4299   -0.2609   24.5788 C   0  0  0  0  0  0  0  0  0  0  0  0
   11.5787   -0.3523   23.5906 C   0  0  0  0  0  0  0  0  0  0  0  0
    9.9528   -1.7027   24.6848 C   0  0  0  0  0  0  0  0  0  0  0  0
   11.0960   -1.3563   22.5485 C   0  0  0  0  0  0  0  0  0  0  0  0
   10.1044   -2.2648   23.2747 C   0  0  0  0  0  0  0  0  0  0  0  0
    6.8567   -0.6824   20.7380 C   0  0  0  0  0  0  0  0  0  0  0  0
    7.6803   -1.9034   20.3560 C   0  0  1  0  0  0  0  0  0  0  0  0
    8.8407   -2.0005   21.2121 N   0  0  0  0  0  0  0  0  0  0  0  0
    5.6594   -3.1405   20.0817 O   0  5  0  0  0  0  0  0  0  0  0  0
    7.7303   -2.3013   23.2367 O   0  0  0  0  0  0  0  0  0  0  0  0
    7.5789   -4.2463   20.6321 O   0  0  0  0  0  0  0  0  0  0  0  0
    9.7610   -1.9250   20.7894 H   0  0  0  0  0  0  0  0  0  0  0  0
  1  7  1  0  0  0  0
  1 10  1  0  0  0  0
  1 12  2  0  0  0  0
  2  9  1  0  0  0  0
  2 11  1  0  0  0  0
  2 13  2  0  0  0  0
  3  4  1  0  0  0  0
  3  5  1  0  0  0  0
  4  6  1  0  0  0  0
  5  7  1  0  0  0  0
  6  7  1  0  0  0  0
  8  9  1  0  0  0  0
  9 10  1  0  0  0  0
 10 14  1  0  0  0  0
M  CHG  1  11  -1
M  END
> <ref_mols>
x1192_0

> <original SMILES>
CC(NC(=O)C1CCCC1)C(=O)O

> <Chemgauss4>
-7.162053

> <ref_pdb>
x0830_0

$$$$
x0347
  -OEChem-05172015543D

 14 14  0     1  0  0  0  0  0999 V2000
    8.7578   -2.1911   22.5782 C   0  0  0  0  0  0  0  0  0  0  0  0
    6.8888   -3.2220   20.3554 C   0  0  0  0  0  0  0  0  0  0  0  0
   10.4299   -0.2609   24.5788 C   0  0  0  0  0  0  0  0  0  0  0  0
   11.5787   -0.3523   23.5906 C   0  0  0  0  0  0  0  0  0  0  0  0
    9.9528   -1.7027   24.6848 C   0  0  0  0  0  0  0  0  0  0  0  0
   11.0960   -1.3563   22.5485 C   0  0  0  0  0  0  0  0  0  0  0  0
   10.1044   -2.2648   23.2747 C   0  0  0  0  0  0  0  0  0  0  0  0
    6.8567   -0.6824   20.7380 C   0  0  0  0  0  0  0  0  0  0  0  0
    7.6803   -1.9034   20.3560 C   0  0  1  0  0  0  0  0  0  0  0  0
    8.8407   -2.0005   21.2121 N   0  0  0  0  0  0  0  0  0  0  0  0
    5.6594   -3.1405   20.0817 O   0  5  0  0  0  0  0  0  0  0  0  0
    7.7303   -2.3013   23.2367 O   0  0  0  0  0  0  0  0  0  0  0  0
    7.5789   -4.2463   20.6321 O   0  0  0  0  0  0  0  0  0  0  0  0
    9.7610   -1.9250   20.7894 H   0  0  0  0  0  0  0  0  0  0  0  0
  1  7  1  0  0  0  0
  1 10  1  0  0  0  0
  1 12  2  0  0  0  0
  2  9  1  0  0  0  0
  2 11  1  0  0  0  0
  2 13  2  0  0  0  0
  3  4  1  0  0  0  0
  3  5  1  0  0  0  0
  4  6  1  0  0  0  0
  5  7  1  0  0  0  0
  6  7  1  0  0  0  0
  8  9  1  0  0  0  0
  9 10  1  0  0  0  0
 10 14  1  0  0  0  0
M  CHG  1  11  -1
M  END
> <ref_mols>
x0347_0

> <original SMILES>
CC(NC(=O)C1CCCC1)C(=O)O

> <Chemgauss4>
-7.162053

> <ref_pdb>
x0830_0

$$$$
x0927
  -OEChem-05172015543D

 17 19  0     1  0  0  0  0  0999 V2000
   12.4999   -0.3137   23.4364 C   0  0  0  0  0  0  0  0  0  0  0  0
   11.7842   -1.4450   23.0606 C   0  0  0  0  0  0  0  0  0  0  0  0
   11.9290    0.5337   24.3723 C   0  0  0  0  0  0  0  0  0  0  0  0
   10.5371   -1.6909   23.6241 C   0  0  0  0  0  0  0  0  0  0  0  0
   10.0542   -0.7820   24.5517 C   0  0  0  0  0  0  0  0  0  0  0  0
    7.7858   -2.0389   21.8458 C   0  0  0  0  0  0  0  0  0  0  0  0
    8.4258   -4.6041   24.4145 C   0  0  0  0  0  0  0  0  0  0  0  0
   10.4466   -4.1972   22.7919 C   0  0  0  0  0  0  0  0  0  0  0  0
    7.5125   -3.5093   23.8460 C   0  0  0  0  0  0  0  0  0  0  0  0
    9.8267   -4.1265   24.1556 C   0  0  1  0  0  0  0  0  0  0  0  0
    9.7444   -2.9256   23.2215 C   0  0  1  0  0  0  0  0  0  0  0  0
    6.5261   -2.6110   21.2502 C   0  0  0  0  0  0  0  0  0  0  0  0
    8.3949   -0.0161   26.0736 C   0  0  0  0  0  0  0  0  0  0  0  0
   10.7203    0.3279   24.9417 N   0  0  0  0  0  0  0  0  0  0  0  0
    8.3353   -2.7333   22.9095 N   0  0  0  0  0  0  0  0  0  0  0  0
    8.2733   -1.0070   21.3788 O   0  0  0  0  0  0  0  0  0  0  0  0
    8.8287   -0.9883   25.1304 O   0  0  0  0  0  0  0  0  0  0  0  0
  1  2  2  0  0  0  0
  1  3  1  0  0  0  0
  2  4  1  0  0  0  0
  3 14  2  0  0  0  0
  4  5  2  0  0  0  0
  4 11  1  0  0  0  0
  5 14  1  0  0  0  0
  5 17  1  0  0  0  0
  6 12  1  0  0  0  0
  6 15  1  0  0  0  0
  6 16  2  0  0  0  0
  7  9  1  0  0  0  0
  7 10  1  0  0  0  0
  8 10  1  0  0  0  0
  8 11  1  0  0  0  0
  9 15  1  0  0  0  0
 10 11  1  0  0  0  0
 11 15  1  0  0  0  0
 13 17  1  0  0  0  0
M  END
> <ref_mols>
x0927_0

> <original SMILES>
COC1=NC=CC=C1C23N(C(C)=O)CCC2C3

> <Chemgauss4>
-7.160254

> <ref_pdb>
x1418_0

$$$$
x0963
  -OEChem-05172015543D

 10 10  0     0  0  0  0  0  0999 V2000
    5.7724    1.4445   17.9643 C   0  0  0  0  0  0  0  0  0  0  0  0
    5.6119    0.0639   19.6681 C   0  0  0  0  0  0  0  0  0  0  0  0
    5.1481    1.2746   19.2145 C   0  0  0  0  0  0  0  0  0  0  0  0
    6.2910   -3.1140   21.2239 C   0  0  0  0  0  0  0  0  0  0  0  0
    7.1859   -1.6428   18.7252 C   0  0  0  0  0  0  0  0  0  0  0  0
    6.2759   -2.8528   18.8885 C   0  0  0  0  0  0  0  0  0  0  0  0
    6.5720    0.4235   17.6442 N   0  0  0  0  0  0  0  0  0  0  0  0
    6.4532   -0.3995   18.6999 N   0  0  0  0  0  0  0  0  0  0  0  0
    5.5258   -2.7295   20.0899 O   0  0  0  0  0  0  0  0  0  0  0  0
    3.9643    2.4590   20.0269 Br  0  0  0  0  0  0  0  0  0  0  0  0
  1  3  1  0  0  0  0
  1  7  2  0  0  0  0
  2  3  2  0  0  0  0
  2  8  1  0  0  0  0
  3 10  1  0  0  0  0
  4  9  1  0  0  0  0
  5  6  1  0  0  0  0
  5  8  1  0  0  0  0
  6  9  1  0  0  0  0
  7  8  1  0  0  0  0
M  END
> <ref_mols>
x0963_0

> <original SMILES>
BrC1=CN(CCOC)N=C1

> <Chemgauss4>
-7.159364

> <ref_pdb>
x0397_0

$$$$
x0304
  -OEChem-05172015543D

 16 16  0     0  0  0  0  0  0999 V2000
   11.7602    1.3246   23.8503 C   0  0  0  0  0  0  0  0  0  0  0  0
   14.0551    0.8629   22.3328 C   0  0  0  0  0  0  0  0  0  0  0  0
   12.4060    2.3888   23.2211 C   0  0  0  0  0  0  0  0  0  0  0  0
   12.2618    0.0295   23.7208 C   0  0  0  0  0  0  0  0  0  0  0  0
   13.5535    2.1580   22.4624 C   0  0  0  0  0  0  0  0  0  0  0  0
   13.4093   -0.2014   22.9620 C   0  0  0  0  0  0  0  0  0  0  0  0
   10.7616    4.0862   24.0807 C   0  0  0  0  0  0  0  0  0  0  0  0
   10.5428    5.5751   23.9823 C   0  0  0  0  0  0  0  0  0  0  0  0
   10.5840   -1.6524   23.6113 C   0  0  0  0  0  0  0  0  0  0  0  0
   13.7874    3.4969   20.5109 C   0  0  0  0  0  0  0  0  0  0  0  0
   11.8923    3.6801   23.3615 N   0  0  0  0  0  0  0  0  0  0  0  0
    9.9995    3.3812   24.7343 O   0  0  0  0  0  0  0  0  0  0  0  0
   11.6113   -0.9917   24.3469 O   0  0  0  0  0  0  0  0  0  0  0  0
   14.1992    3.1845   21.8397 O   0  0  0  0  0  0  0  0  0  0  0  0
   14.0503   -1.7929   22.7837 Cl  0  0  0  0  0  0  0  0  0  0  0  0
   12.4043    4.4274   22.8800 H   0  0  0  0  0  0  0  0  0  0  0  0
  1  3  2  0  0  0  0
  1  4  1  0  0  0  0
  2  5  2  0  0  0  0
  2  6  1  0  0  0  0
  3  5  1  0  0  0  0
  3 11  1  0  0  0  0
  4  6  2  0  0  0  0
  4 13  1  0  0  0  0
  5 14  1  0  0  0  0
  6 15  1  0  0  0  0
  7  8  1  0  0  0  0
  7 11  1  0  0  0  0
  7 12  2  0  0  0  0
  9 13  1  0  0  0  0
 10 14  1  0  0  0  0
 11 16  1  0  0  0  0
M  END
> <ref_mols>
x0304_0

> <original SMILES>
COC=1C=C(NC(=O)C)C(OC)=CC1Cl

> <Chemgauss4>
-7.159335

> <ref_pdb>
x0195_0

$$$$
x0451
  -OEChem-05172015543D

 17 18  0     0  0  0  0  0  0999 V2000
   12.7193   -0.0414   23.7392 C   0  0  0  0  0  0  0  0  0  0  0  0
   11.3165   -0.0171   23.9257 C   0  0  0  0  0  0  0  0  0  0  0  0
   12.9874   -1.1730   23.0047 C   0  0  0  0  0  0  0  0  0  0  0  0
   10.8273   -1.1354   23.2916 C   0  0  0  0  0  0  0  0  0  0  0  0
    7.8861    0.3028   20.2538 C   0  0  0  0  0  0  0  0  0  0  0  0
    6.1968   -0.0006   22.0290 C   0  0  0  0  0  0  0  0  0  0  0  0
    8.7784   -0.7420   20.9059 C   0  0  0  0  0  0  0  0  0  0  0  0
    7.0703   -1.0492   22.6998 C   0  0  0  0  0  0  0  0  0  0  0  0
    5.7608    2.5180   20.0589 C   0  0  0  0  0  0  0  0  0  0  0  0
    9.4457   -1.6929   23.1150 C   0  0  0  0  0  0  0  0  0  0  0  0
    6.4571    0.0052   20.5605 N   0  0  0  0  0  0  0  0  0  0  0  0
    8.5198   -0.7543   22.3941 N   0  3  0  0  0  0  0  0  0  0  0  0
    3.9896    0.5988   20.1418 O   0  0  0  0  0  0  0  0  0  0  0  0
    5.6266    0.6684   18.2181 O   0  0  0  0  0  0  0  0  0  0  0  0
   11.8395   -1.8454   22.7276 O   0  0  0  0  0  0  0  0  0  0  0  0
    5.3110    0.8601   19.6161 S   0  0  0  0  0  0  0  0  0  0  0  0
    8.7241    0.1897   22.7503 H   0  0  0  0  0  0  0  0  0  0  0  0
  1  2  1  0  0  0  0
  1  3  2  0  0  0  0
  2  4  2  0  0  0  0
  3 15  1  0  0  0  0
  4 10  1  0  0  0  0
  4 15  1  0  0  0  0
  5  7  1  0  0  0  0
  5 11  1  0  0  0  0
  6  8  1  0  0  0  0
  6 11  1  0  0  0  0
  7 12  1  0  0  0  0
  8 12  1  0  0  0  0
  9 16  1  0  0  0  0
 10 12  1  0  0  0  0
 11 16  1  0  0  0  0
 13 16  2  0  0  0  0
 14 16  2  0  0  0  0
 12 17  1  0  0  0  0
M  CHG  1  12   1
M  END
> <ref_mols>
x0451_0

> <original SMILES>
CS(=O)(=O)N1CCN(CC2=CC=CO2)CC1.OC(=O)C(=O)O

> <Chemgauss4>
-7.157279

> <ref_pdb>
x1093_0

$$$$
x0273
  -OEChem-05172015543D

 14 14  0     0  0  0  0  0  0999 V2000
   13.2073    0.2345   23.0278 C   0  0  0  0  0  0  0  0  0  0  0  0
   12.1688    0.3783   23.9410 C   0  0  0  0  0  0  0  0  0  0  0  0
   13.2036   -0.8859   22.2126 C   0  0  0  0  0  0  0  0  0  0  0  0
   11.1723   -0.5889   24.0103 C   0  0  0  0  0  0  0  0  0  0  0  0
   11.2596   -1.6723   23.1510 C   0  0  0  0  0  0  0  0  0  0  0  0
   10.0832   -0.4455   24.9638 C   0  0  0  0  0  0  0  0  0  0  0  0
    7.9670   -3.1339   22.9648 C   0  0  0  0  0  0  0  0  0  0  0  0
    9.1728   -2.4696   22.3352 C   0  0  0  0  0  0  0  0  0  0  0  0
   12.2531   -1.8465   22.2508 N   0  0  0  0  0  0  0  0  0  0  0  0
   10.0851    0.6786   25.7843 N   0  0  0  0  0  0  0  0  0  0  0  0
    9.1879   -1.3031   25.0586 O   0  0  0  0  0  0  0  0  0  0  0  0
   10.2977   -2.6486   23.1869 O   0  0  0  0  0  0  0  0  0  0  0  0
   10.8347    1.3561   25.6957 H   0  0  0  0  0  0  0  0  0  0  0  0
    9.3529    0.8352   26.4694 H   0  0  0  0  0  0  0  0  0  0  0  0
  1  2  2  0  0  0  0
  1  3  1  0  0  0  0
  2  4  1  0  0  0  0
  3  9  2  0  0  0  0
  4  5  2  0  0  0  0
  4  6  1  0  0  0  0
  5  9  1  0  0  0  0
  5 12  1  0  0  0  0
  6 10  1  0  0  0  0
  6 11  2  0  0  0  0
  7  8  1  0  0  0  0
  8 12  1  0  0  0  0
 10 13  1  0  0  0  0
 10 14  1  0  0  0  0
M  END
> <ref_mols>
x0273_0

> <original SMILES>
CCOC=1N=CC=CC1C(=O)N

> <Chemgauss4>
-7.155910

> <ref_pdb>
x0305_0

$$$$
x0245
  -OEChem-05172015543D

 15 15  0     0  0  0  0  0  0999 V2000
    9.9134   -4.5684   24.1324 C   0  0  0  0  0  0  0  0  0  0  0  0
    8.8834   -5.4166   23.7259 C   0  0  0  0  0  0  0  0  0  0  0  0
    8.9683   -2.7845   22.8052 C   0  0  0  0  0  0  0  0  0  0  0  0
    7.9383   -3.6327   22.3986 C   0  0  0  0  0  0  0  0  0  0  0  0
    9.9558   -3.2523   23.6721 C   0  0  0  0  0  0  0  0  0  0  0  0
    7.8959   -4.9488   22.8590 C   0  0  0  0  0  0  0  0  0  0  0  0
    6.8978   -3.1369   21.4830 C   0  0  0  0  0  0  0  0  0  0  0  0
   12.0567   -2.6927   24.9360 C   0  0  0  0  0  0  0  0  0  0  0  0
   12.9595   -1.4994   25.1244 C   0  0  0  0  0  0  0  0  0  0  0  0
   10.9864   -2.4044   24.0786 N   0  0  0  0  0  0  0  0  0  0  0  0
    6.9620   -1.9173   21.0744 O   0  5  0  0  0  0  0  0  0  0  0  0
    5.9574   -3.9389   21.1211 O   0  0  0  0  0  0  0  0  0  0  0  0
   12.2972   -3.7570   25.4968 O   0  0  0  0  0  0  0  0  0  0  0  0
    6.9108   -5.7727   22.4747 F   0  0  0  0  0  0  0  0  0  0  0  0
   10.9639   -1.4482   23.7058 H   0  0  0  0  0  0  0  0  0  0  0  0
  1  2  2  0  0  0  0
  1  5  1  0  0  0  0
  2  6  1  0  0  0  0
  3  4  1  0  0  0  0
  3  5  2  0  0  0  0
  4  6  2  0  0  0  0
  4  7  1  0  0  0  0
  5 10  1  0  0  0  0
  6 14  1  0  0  0  0
  7 11  1  0  0  0  0
  7 12  2  0  0  0  0
  8  9  1  0  0  0  0
  8 10  1  0  0  0  0
  8 13  2  0  0  0  0
 10 15  1  0  0  0  0
M  CHG  1  11  -1
M  END
> <ref_mols>
x0245_0

> <original SMILES>
CC(=O)NC=1C=CC(F)=C(C1)C(=O)O

> <Chemgauss4>
-7.147387

> <ref_pdb>
x0749_0

$$$$
x0877
  -OEChem-05172015543D

 12 12  0     1  0  0  0  0  0999 V2000
   13.6709   -1.3073   23.2952 C   0  0  0  0  0  0  0  0  0  0  0  0
   13.9011   -2.1702   24.5350 C   0  0  0  0  0  0  0  0  0  0  0  0
   13.0595    0.0379   23.6501 C   0  0  0  0  0  0  0  0  0  0  0  0
   12.6308   -2.3331   25.3895 C   0  0  1  0  0  0  0  0  0  0  0  0
   12.0429   -0.9481   25.7270 C   0  0  2  0  0  0  0  0  0  0  0  0
   10.7283   -0.9895   26.4957 C   0  0  0  0  0  0  0  0  0  0  0  0
   11.6391   -3.2875   24.7125 C   0  0  0  0  0  0  0  0  0  0  0  0
   11.8222   -0.1717   24.4592 N   0  3  0  0  0  0  0  0  0  0  0  0
   10.9367   -2.5694   23.7163 O   0  0  0  0  0  0  0  0  0  0  0  0
   11.4294    0.7411   24.6980 H   0  0  0  0  0  0  0  0  0  0  0  0
   11.1203   -0.6425   23.8856 H   0  0  0  0  0  0  0  0  0  0  0  0
   10.3146   -3.1908   23.3000 H   0  0  0  0  0  0  0  0  0  0  0  0
  1  2  1  0  0  0  0
  1  3  1  0  0  0  0
  2  4  1  0  0  0  0
  3  8  1  0  0  0  0
  4  5  1  0  0  0  0
  4  7  1  0  0  0  0
  5  6  1  0  0  0  0
  5  8  1  0  0  0  0
  7  9  1  0  0  0  0
  8 10  1  0  0  0  0
  8 11  1  0  0  0  0
  9 12  1  0  0  0  0
M  CHG  1   8   1
M  END
> <ref_mols>
x0877_0

> <original SMILES>
C[C@@H]1NCCC[C@@H]1CO

> <Chemgauss4>
-7.143991

> <ref_pdb>
x0354_0

$$$$
x1247
  -OEChem-05172015543D

 19 19  0     0  0  0  0  0  0999 V2000
   13.1981    0.8342   22.0543 C   0  0  0  0  0  0  0  0  0  0  0  0
   11.8542    0.5475   24.0415 C   0  0  0  0  0  0  0  0  0  0  0  0
   13.7437   -0.4360   22.2401 C   0  0  0  0  0  0  0  0  0  0  0  0
   12.3998   -0.7227   24.2272 C   0  0  0  0  0  0  0  0  0  0  0  0
   12.2534    1.3260   22.9551 C   0  0  0  0  0  0  0  0  0  0  0  0
   13.3446   -1.2145   23.3265 C   0  0  0  0  0  0  0  0  0  0  0  0
   11.2383    3.5004   23.7439 C   0  0  0  0  0  0  0  0  0  0  0  0
   14.8789   -1.9854   25.6317 C   0  0  0  0  0  0  0  0  0  0  0  0
    9.8023    6.8952   22.9429 C   0  0  0  0  0  0  0  0  0  0  0  0
    9.0064    5.2930   24.7001 C   0  0  0  0  0  0  0  0  0  0  0  0
   11.2936    6.3074   24.8679 C   0  0  0  0  0  0  0  0  0  0  0  0
   13.9846   -2.9243   24.8505 C   0  0  0  0  0  0  0  0  0  0  0  0
   10.2233    5.7791   23.9059 C   0  0  0  0  0  0  0  0  0  0  0  0
   11.7001    2.6140   22.7668 N   0  0  0  0  0  0  0  0  0  0  0  0
   10.7676    4.6690   23.1452 N   0  0  0  0  0  0  0  0  0  0  0  0
   11.2320    3.3136   24.9583 O   0  0  0  0  0  0  0  0  0  0  0  0
   13.8769   -2.4539   23.5078 O   0  0  0  0  0  0  0  0  0  0  0  0
   11.6328    2.9290   21.8023 H   0  0  0  0  0  0  0  0  0  0  0  0
   10.8074    4.7464   22.1370 H   0  0  0  0  0  0  0  0  0  0  0  0
  1  3  2  0  0  0  0
  1  5  1  0  0  0  0
  2  4  1  0  0  0  0
  2  5  2  0  0  0  0
  3  6  1  0  0  0  0
  4  6  2  0  0  0  0
  5 14  1  0  0  0  0
  6 17  1  0  0  0  0
  7 14  1  0  0  0  0
  7 15  1  0  0  0  0
  7 16  2  0  0  0  0
  8 12  1  0  0  0  0
  9 13  1  0  0  0  0
 10 13  1  0  0  0  0
 11 13  1  0  0  0  0
 12 17  1  0  0  0  0
 13 15  1  0  0  0  0
 14 18  1  0  0  0  0
 15 19  1  0  0  0  0
M  END
> <ref_mols>
x1247_0

> <original SMILES>
CCOC=1C=CC(NC(=O)NC(C)(C)C)=CC1

> <Chemgauss4>
-7.140597

> <ref_pdb>
x0161_0

$$$$
x0454
  -OEChem-05172015543D

 19 19  0     0  0  0  0  0  0999 V2000
   13.1981    0.8342   22.0543 C   0  0  0  0  0  0  0  0  0  0  0  0
   11.8542    0.5475   24.0415 C   0  0  0  0  0  0  0  0  0  0  0  0
   13.7437   -0.4360   22.2401 C   0  0  0  0  0  0  0  0  0  0  0  0
   12.3998   -0.7227   24.2272 C   0  0  0  0  0  0  0  0  0  0  0  0
   12.2534    1.3260   22.9551 C   0  0  0  0  0  0  0  0  0  0  0  0
   13.3446   -1.2145   23.3265 C   0  0  0  0  0  0  0  0  0  0  0  0
   11.2383    3.5004   23.7439 C   0  0  0  0  0  0  0  0  0  0  0  0
   14.8789   -1.9854   25.6317 C   0  0  0  0  0  0  0  0  0  0  0  0
    9.8023    6.8952   22.9429 C   0  0  0  0  0  0  0  0  0  0  0  0
    9.0064    5.2930   24.7001 C   0  0  0  0  0  0  0  0  0  0  0  0
   11.2936    6.3074   24.8679 C   0  0  0  0  0  0  0  0  0  0  0  0
   13.9846   -2.9243   24.8505 C   0  0  0  0  0  0  0  0  0  0  0  0
   10.2233    5.7791   23.9059 C   0  0  0  0  0  0  0  0  0  0  0  0
   11.7001    2.6140   22.7668 N   0  0  0  0  0  0  0  0  0  0  0  0
   10.7676    4.6690   23.1452 N   0  0  0  0  0  0  0  0  0  0  0  0
   11.2320    3.3136   24.9583 O   0  0  0  0  0  0  0  0  0  0  0  0
   13.8769   -2.4539   23.5078 O   0  0  0  0  0  0  0  0  0  0  0  0
   11.6328    2.9290   21.8023 H   0  0  0  0  0  0  0  0  0  0  0  0
   10.8074    4.7464   22.1370 H   0  0  0  0  0  0  0  0  0  0  0  0
  1  3  2  0  0  0  0
  1  5  1  0  0  0  0
  2  4  1  0  0  0  0
  2  5  2  0  0  0  0
  3  6  1  0  0  0  0
  4  6  2  0  0  0  0
  5 14  1  0  0  0  0
  6 17  1  0  0  0  0
  7 14  1  0  0  0  0
  7 15  1  0  0  0  0
  7 16  2  0  0  0  0
  8 12  1  0  0  0  0
  9 13  1  0  0  0  0
 10 13  1  0  0  0  0
 11 13  1  0  0  0  0
 12 17  1  0  0  0  0
 13 15  1  0  0  0  0
 14 18  1  0  0  0  0
 15 19  1  0  0  0  0
M  END
> <ref_mols>
x0454_0

> <original SMILES>
CCOC=1C=CC(NC(=O)NC(C)(C)C)=CC1

> <Chemgauss4>
-7.140597

> <ref_pdb>
x0161_0

$$$$
x0070
  -OEChem-05172015543D

 14 14  0     0  0  0  0  0  0999 V2000
   13.3824    1.8467   22.8938 C   0  0  0  0  0  0  0  0  0  0  0  0
   11.1476    1.8984   23.9515 C   0  0  0  0  0  0  0  0  0  0  0  0
   12.9585    2.9308   21.9150 C   0  0  0  0  0  0  0  0  0  0  0  0
   10.7003    2.9827   22.9834 C   0  0  0  0  0  0  0  0  0  0  0  0
   11.4145   -1.6549   21.9427 C   0  0  0  0  0  0  0  0  0  0  0  0
   13.8719   -1.4807   21.9658 C   0  0  0  0  0  0  0  0  0  0  0  0
   12.3858    4.7812   23.5367 C   0  0  0  0  0  0  0  0  0  0  0  0
   12.1927    1.0498   23.3101 N   0  0  0  0  0  0  0  0  0  0  0  0
   12.6315   -1.5129   22.7831 N   0  0  0  0  0  0  0  0  0  0  0  0
   11.8800    3.7998   22.5152 N   0  3  0  0  0  0  0  0  0  0  0  0
   11.3947   -0.7678   24.9351 O   0  0  0  0  0  0  0  0  0  0  0  0
   13.8555   -0.3026   24.7202 O   0  0  0  0  0  0  0  0  0  0  0  0
   12.5415   -0.4204   24.1186 S   0  0  0  0  0  0  0  0  0  0  0  0
   11.5154    4.3954   21.7159 H   0  0  0  0  0  0  0  0  0  0  0  0
  1  3  1  0  0  0  0
  1  8  1  0  0  0  0
  2  4  1  0  0  0  0
  2  8  1  0  0  0  0
  3 10  1  0  0  0  0
  4 10  1  0  0  0  0
  5  9  1  0  0  0  0
  6  9  1  0  0  0  0
  7 10  1  0  0  0  0
  8 13  1  0  0  0  0
  9 13  1  0  0  0  0
 11 13  2  0  0  0  0
 12 13  2  0  0  0  0
 10 14  1  0  0  0  0
M  CHG  1  10   1
M  END
> <ref_mols>
x0070_0

> <original SMILES>
CN(C)S(=O)(=O)N1CCN(C)CC1

> <Chemgauss4>
-7.139639

> <ref_pdb>
x0195_0

$$$$
x0530
  -OEChem-05172015543D

 15 15  0     1  0  0  0  0  0999 V2000
   11.3588    2.8776   23.8480 C   0  0  0  0  0  0  0  0  0  0  0  0
   11.7131    1.4153   23.5744 C   0  0  0  0  0  0  0  0  0  0  0  0
   13.3347    2.7052   22.4922 C   0  0  0  0  0  0  0  0  0  0  0  0
   12.5944    3.6531   23.4143 C   0  0  1  0  0  0  0  0  0  0  0  0
   14.6002   -1.9782   22.4601 C   0  0  0  0  0  0  0  0  0  0  0  0
   12.4002   -1.6523   23.6139 C   0  0  0  0  0  0  0  0  0  0  0  0
   13.5124    0.2844   22.3945 C   0  0  0  0  0  0  0  0  0  0  0  0
   13.7230   -0.9869   23.2302 C   0  0  0  0  0  0  0  0  0  0  0  0
   13.1302    1.4369   23.1962 N   0  0  2  0  0  0  0  0  0  0  0  0
   12.2300    4.9011   22.7195 N   0  3  0  0  0  0  0  0  0  0  0  0
   14.4054   -0.6461   24.4393 O   0  0  0  0  0  0  0  0  0  0  0  0
   12.9417    5.6311   22.8591 H   0  0  0  0  0  0  0  0  0  0  0  0
   11.3343    5.2744   23.0624 H   0  0  0  0  0  0  0  0  0  0  0  0
   12.1346    4.7533   21.7056 H   0  0  0  0  0  0  0  0  0  0  0  0
   14.5246   -1.4744   24.9269 H   0  0  0  0  0  0  0  0  0  0  0  0
  1  2  1  0  0  0  0
  1  4  1  0  0  0  0
  2  9  1  0  0  0  0
  3  4  1  0  0  0  0
  3  9  1  0  0  0  0
  4 10  1  0  0  0  0
  5  8  1  0  0  0  0
  6  8  1  0  0  0  0
  7  8  1  0  0  0  0
  7  9  1  0  0  0  0
  8 11  1  0  0  0  0
 10 12  1  0  0  0  0
 10 13  1  0  0  0  0
 10 14  1  0  0  0  0
 11 15  1  0  0  0  0
M  CHG  1  10   1
M  END
> <ref_mols>
x0530_0

> <original SMILES>
CC(C)(O)CN1CC[C@H](N)C1

> <Chemgauss4>
-7.136844

> <ref_pdb>
x0195_0

$$$$
x1171
  -OEChem-05172015543D

 15 15  0     1  0  0  0  0  0999 V2000
   11.3588    2.8776   23.8480 C   0  0  0  0  0  0  0  0  0  0  0  0
   11.7131    1.4153   23.5744 C   0  0  0  0  0  0  0  0  0  0  0  0
   13.3347    2.7052   22.4922 C   0  0  0  0  0  0  0  0  0  0  0  0
   12.5944    3.6531   23.4143 C   0  0  1  0  0  0  0  0  0  0  0  0
   14.6002   -1.9782   22.4601 C   0  0  0  0  0  0  0  0  0  0  0  0
   12.4002   -1.6523   23.6139 C   0  0  0  0  0  0  0  0  0  0  0  0
   13.5124    0.2844   22.3945 C   0  0  0  0  0  0  0  0  0  0  0  0
   13.7230   -0.9869   23.2302 C   0  0  0  0  0  0  0  0  0  0  0  0
   13.1302    1.4369   23.1962 N   0  0  2  0  0  0  0  0  0  0  0  0
   12.2300    4.9011   22.7195 N   0  3  0  0  0  0  0  0  0  0  0  0
   14.4054   -0.6461   24.4393 O   0  0  0  0  0  0  0  0  0  0  0  0
   12.9417    5.6311   22.8591 H   0  0  0  0  0  0  0  0  0  0  0  0
   11.3343    5.2744   23.0624 H   0  0  0  0  0  0  0  0  0  0  0  0
   12.1346    4.7533   21.7056 H   0  0  0  0  0  0  0  0  0  0  0  0
   14.5246   -1.4744   24.9269 H   0  0  0  0  0  0  0  0  0  0  0  0
  1  2  1  0  0  0  0
  1  4  1  0  0  0  0
  2  9  1  0  0  0  0
  3  4  1  0  0  0  0
  3  9  1  0  0  0  0
  4 10  1  0  0  0  0
  5  8  1  0  0  0  0
  6  8  1  0  0  0  0
  7  8  1  0  0  0  0
  7  9  1  0  0  0  0
  8 11  1  0  0  0  0
 10 12  1  0  0  0  0
 10 13  1  0  0  0  0
 10 14  1  0  0  0  0
 11 15  1  0  0  0  0
M  CHG  1  10   1
M  END
> <ref_mols>
x1171_0

> <original SMILES>
CC(C)(O)CN1CC[C@H](N)C1

> <Chemgauss4>
-7.136844

> <ref_pdb>
x0195_0

$$$$
x1182
  -OEChem-05172015543D

 13 13  0     1  0  0  0  0  0999 V2000
   14.2632   -1.1888   24.5514 C   0  0  0  0  0  0  0  0  0  0  0  0
   14.5680   -1.9996   23.2981 C   0  0  0  0  0  0  0  0  0  0  0  0
   12.7716   -0.8827   24.6467 C   0  0  0  0  0  0  0  0  0  0  0  0
   13.9876   -1.3352   22.0487 C   0  0  0  0  0  0  0  0  0  0  0  0
   12.2078   -0.2617   23.3554 C   0  0  1  0  0  0  0  0  0  0  0  0
   12.6417    1.2028   23.2004 C   0  0  0  0  0  0  0  0  0  0  0  0
   11.7325   -2.2281   22.0005 C   0  0  0  0  0  0  0  0  0  0  0  0
   10.2596   -1.8669   22.0399 C   0  0  0  0  0  0  0  0  0  0  0  0
   12.5533   -1.0246   22.1395 N   0  0  2  0  0  0  0  0  0  0  0  0
    9.9530   -0.8952   20.9613 N   0  3  0  0  0  0  0  0  0  0  0  0
    8.9983   -0.5327   21.0548 H   0  0  0  0  0  0  0  0  0  0  0  0
   10.0355   -1.3347   20.0382 H   0  0  0  0  0  0  0  0  0  0  0  0
   10.5982   -0.0985   20.9912 H   0  0  0  0  0  0  0  0  0  0  0  0
  1  2  1  0  0  0  0
  1  3  1  0  0  0  0
  2  4  1  0  0  0  0
  3  5  1  0  0  0  0
  4  9  1  0  0  0  0
  5  6  1  0  0  0  0
  5  9  1  0  0  0  0
  7  8  1  0  0  0  0
  7  9  1  0  0  0  0
  8 10  1  0  0  0  0
 10 11  1  0  0  0  0
 10 12  1  0  0  0  0
 10 13  1  0  0  0  0
M  CHG  1  10   1
M  END
> <ref_mols>
x1182_0

> <original SMILES>
CC1CCCCN1CCN

> <Chemgauss4>
-7.135571

> <ref_pdb>
x0678_0

$$$$
x0525
  -OEChem-05172015543D

 13 13  0     1  0  0  0  0  0999 V2000
   14.2632   -1.1888   24.5514 C   0  0  0  0  0  0  0  0  0  0  0  0
   14.5680   -1.9996   23.2981 C   0  0  0  0  0  0  0  0  0  0  0  0
   12.7716   -0.8827   24.6467 C   0  0  0  0  0  0  0  0  0  0  0  0
   13.9876   -1.3352   22.0487 C   0  0  0  0  0  0  0  0  0  0  0  0
   12.2078   -0.2617   23.3554 C   0  0  1  0  0  0  0  0  0  0  0  0
   12.6417    1.2028   23.2004 C   0  0  0  0  0  0  0  0  0  0  0  0
   11.7325   -2.2281   22.0005 C   0  0  0  0  0  0  0  0  0  0  0  0
   10.2596   -1.8669   22.0399 C   0  0  0  0  0  0  0  0  0  0  0  0
   12.5533   -1.0246   22.1395 N   0  0  2  0  0  0  0  0  0  0  0  0
    9.9530   -0.8952   20.9613 N   0  3  0  0  0  0  0  0  0  0  0  0
    8.9983   -0.5327   21.0548 H   0  0  0  0  0  0  0  0  0  0  0  0
   10.0355   -1.3347   20.0382 H   0  0  0  0  0  0  0  0  0  0  0  0
   10.5982   -0.0985   20.9912 H   0  0  0  0  0  0  0  0  0  0  0  0
  1  2  1  0  0  0  0
  1  3  1  0  0  0  0
  2  4  1  0  0  0  0
  3  5  1  0  0  0  0
  4  9  1  0  0  0  0
  5  6  1  0  0  0  0
  5  9  1  0  0  0  0
  7  8  1  0  0  0  0
  7  9  1  0  0  0  0
  8 10  1  0  0  0  0
 10 11  1  0  0  0  0
 10 12  1  0  0  0  0
 10 13  1  0  0  0  0
M  CHG  1  10   1
M  END
> <ref_mols>
x0525_0

> <original SMILES>
CC1CCCCN1CCN

> <Chemgauss4>
-7.135571

> <ref_pdb>
x0678_0

$$$$
x2889
  -OEChem-05172015543D

 21 22  0     1  0  0  0  0  0999 V2000
    8.4572   -3.6768   24.1279 C   0  0  0  0  0  0  0  0  0  0  0  0
    9.7883   -3.5991   24.5374 C   0  0  0  0  0  0  0  0  0  0  0  0
    7.9201   -2.6829   23.3097 C   0  0  0  0  0  0  0  0  0  0  0  0
   10.5823   -2.5275   24.1290 C   0  0  0  0  0  0  0  0  0  0  0  0
    8.7141   -1.6113   22.9012 C   0  0  0  0  0  0  0  0  0  0  0  0
   10.0452   -1.5335   23.3108 C   0  0  0  0  0  0  0  0  0  0  0  0
    5.8968   -0.2474   18.4473 C   0  0  0  0  0  0  0  0  0  0  0  0
    6.0129   -1.4633   18.9910 C   0  0  0  0  0  0  0  0  0  0  0  0
    6.4558   -1.6094   20.4069 C   0  0  0  0  0  0  0  0  0  0  0  0
   13.2982   -0.2833   22.9787 C   0  0  0  0  0  0  0  0  0  0  0  0
   12.1215   -0.7224   22.1110 C   0  0  0  0  0  0  0  0  0  0  0  0
   12.8802    1.0242   23.6300 C   0  0  0  0  0  0  0  0  0  0  0  0
    6.9236    0.1593   22.6747 C   0  0  0  0  0  0  0  0  0  0  0  0
    8.7434   -1.0457   19.6819 C   0  0  0  0  0  0  0  0  0  0  0  0
    8.1062   -0.5463   22.0141 C   0  0  2  0  0  0  0  0  0  0  0  0
   10.8833   -0.4322   22.8999 N   0  0  2  0  0  0  0  0  0  0  0  0
    7.7181   -1.0950   20.7163 N   0  0  0  0  0  0  0  0  0  0  0  0
    5.7266   -2.1810   21.2191 O   0  0  0  0  0  0  0  0  0  0  0  0
   10.4211    1.9542   23.8628 O   0  0  0  0  0  0  0  0  0  0  0  0
   11.2096    0.1418   25.4499 O   0  0  0  0  0  0  0  0  0  0  0  0
   11.1918    0.7598   24.1390 S   0  0  0  0  0  0  0  0  0  0  0  0
  1  2  2  0  0  0  0
  1  3  1  0  0  0  0
  2  4  1  0  0  0  0
  3  5  2  0  0  0  0
  4  6  2  0  0  0  0
  5  6  1  0  0  0  0
  5 15  1  0  0  0  0
  6 16  1  0  0  0  0
  7  8  2  0  0  0  0
  8  9  1  0  0  0  0
  9 17  1  0  0  0  0
  9 18  2  0  0  0  0
 10 11  1  0  0  0  0
 10 12  1  0  0  0  0
 11 16  1  0  0  0  0
 12 21  1  0  0  0  0
 13 15  1  0  0  0  0
 14 17  1  0  0  0  0
 15 17  1  0  0  0  0
 16 21  1  0  0  0  0
 19 21  2  0  0  0  0
 20 21  2  0  0  0  0
M  END
> <ref_mols>
x2889_0

> <original SMILES>
C[C@@H](c(cccc1)c1N(CCC1)S1(=O)=O)N(C)C(C=C)=O

> <Chemgauss4>
-7.131769

> <ref_pdb>
x0831_0

$$$$
x2797
  -OEChem-05172015543D

 24 24  0     1  0  0  0  0  0999 V2000
    7.3245   -4.4182   21.7596 C   0  0  0  0  0  0  0  0  0  0  0  0
    6.6637   -3.1249   23.6904 C   0  0  0  0  0  0  0  0  0  0  0  0
    8.2784   -5.0822   22.5308 C   0  0  0  0  0  0  0  0  0  0  0  0
    7.6176   -3.7889   24.4616 C   0  0  0  0  0  0  0  0  0  0  0  0
    6.5172   -3.4394   22.3394 C   0  0  0  0  0  0  0  0  0  0  0  0
    8.4249   -4.7676   23.8819 C   0  0  0  0  0  0  0  0  0  0  0  0
    6.6401   -0.5710   17.2564 C   0  0  0  0  0  0  0  0  0  0  0  0
    6.6578   -0.6791   18.5884 C   0  0  0  0  0  0  0  0  0  0  0  0
    5.9558   -1.8043   19.2617 C   0  0  0  0  0  0  0  0  0  0  0  0
   11.0067   -3.5611   25.0101 C   0  0  0  0  0  0  0  0  0  0  0  0
    9.0408   -5.6180   26.1818 C   0  0  0  0  0  0  0  0  0  0  0  0
   12.4870   -1.7502   26.6469 C   0  0  0  0  0  0  0  0  0  0  0  0
   14.2146   -1.8062   24.8244 C   0  0  0  0  0  0  0  0  0  0  0  0
   11.9111   -0.9314   24.3377 C   0  0  0  0  0  0  0  0  0  0  0  0
    5.4972   -2.7290   21.5155 C   0  0  0  0  0  0  0  0  0  0  0  0
    9.4589   -5.4899   24.7184 C   0  0  2  0  0  0  0  0  0  0  0  0
   12.7280   -1.9356   25.1495 C   0  0  0  0  0  0  0  0  0  0  0  0
    6.0864   -1.7472   20.6408 N   0  0  0  0  0  0  0  0  0  0  0  0
   10.7535   -4.8572   24.6131 N   0  0  0  0  0  0  0  0  0  0  0  0
    5.3442   -2.6673   18.6402 O   0  0  0  0  0  0  0  0  0  0  0  0
   10.1876   -2.7874   25.4950 O   0  0  0  0  0  0  0  0  0  0  0  0
   12.3208   -3.2546   24.7836 O   0  0  0  0  0  0  0  0  0  0  0  0
    6.6416   -1.0074   21.0654 H   0  0  0  0  0  0  0  0  0  0  0  0
   11.5204   -5.3975   24.2247 H   0  0  0  0  0  0  0  0  0  0  0  0
  1  3  2  0  0  0  0
  1  5  1  0  0  0  0
  2  4  1  0  0  0  0
  2  5  2  0  0  0  0
  3  6  1  0  0  0  0
  4  6  2  0  0  0  0
  5 15  1  0  0  0  0
  6 16  1  0  0  0  0
  7  8  2  0  0  0  0
  8  9  1  0  0  0  0
  9 18  1  0  0  0  0
  9 20  2  0  0  0  0
 10 19  1  0  0  0  0
 10 21  2  0  0  0  0
 10 22  1  0  0  0  0
 11 16  1  0  0  0  0
 12 17  1  0  0  0  0
 13 17  1  0  0  0  0
 14 17  1  0  0  0  0
 15 18  1  0  0  0  0
 16 19  1  0  0  0  0
 17 22  1  0  0  0  0
 18 23  1  0  0  0  0
 19 24  1  0  0  0  0
M  END
> <ref_mols>
x2797_0

> <original SMILES>
CC(NC(=O)OC(C)(C)C)C=1C=CC(CNC(=O)C=C)=CC1

> <Chemgauss4>
-7.127817

> <ref_pdb>
x0749_0

> <CYS145-warhead dist minimum (A)>
3.6909504

> <CYS145-warhead dist mean (A)>
4.8174887

> <CYS145-warhead dist stddev (A)>
0.2767867

$$$$
x0462
  -OEChem-05172015543D

 14 14  0     0  0  0  0  0  0999 V2000
   11.7834   -3.0475   24.6191 C   0  0  0  0  0  0  0  0  0  0  0  0
    9.0130   -5.5467   24.3036 C   0  0  0  0  0  0  0  0  0  0  0  0
    8.9991   -3.3126   23.3206 C   0  0  0  0  0  0  0  0  0  0  0  0
    8.3405   -6.2351   23.1219 C   0  0  0  0  0  0  0  0  0  0  0  0
    8.3244   -3.7255   22.0178 C   0  0  0  0  0  0  0  0  0  0  0  0
   13.8230   -0.9662   25.7982 C   0  0  0  0  0  0  0  0  0  0  0  0
   10.5943   -3.8854   25.0266 C   0  0  0  0  0  0  0  0  0  0  0  0
   13.9673   -2.3502   25.2021 C   0  0  0  0  0  0  0  0  0  0  0  0
    9.8269   -4.3922   23.8858 N   0  0  0  0  0  0  0  0  0  0  0  0
   11.7943   -2.3896   23.5838 O   0  0  0  0  0  0  0  0  0  0  0  0
    6.9816   -5.7023   20.9479 O   0  0  0  0  0  0  0  0  0  0  0  0
    6.1824   -4.7429   23.1413 O   0  0  0  0  0  0  0  0  0  0  0  0
   12.8019   -3.1185   25.5196 O   0  0  0  0  0  0  0  0  0  0  0  0
    7.2586   -5.1280   22.2496 S   0  0  0  0  0  0  0  0  0  0  0  0
  1  7  1  0  0  0  0
  1 10  2  0  0  0  0
  1 13  1  0  0  0  0
  2  4  1  0  0  0  0
  2  9  1  0  0  0  0
  3  5  1  0  0  0  0
  3  9  1  0  0  0  0
  4 14  1  0  0  0  0
  5 14  1  0  0  0  0
  6  8  1  0  0  0  0
  7  9  1  0  0  0  0
  8 13  1  0  0  0  0
 11 14  2  0  0  0  0
 12 14  2  0  0  0  0
M  END
> <ref_mols>
x0462_0

> <original SMILES>
CCOC(=O)CN1CCS(=O)(=O)CC1

> <Chemgauss4>
-7.127445

> <ref_pdb>
x0749_0

$$$$
x1472
  -OEChem-05172015543D

 15 15  0     0  0  0  0  0  0999 V2000
    7.2340   -6.0466   23.7494 C   0  0  0  0  0  0  0  0  0  0  0  0
    7.8757   -5.1130   24.5631 C   0  0  0  0  0  0  0  0  0  0  0  0
    7.6986   -4.6785   21.8131 C   0  0  0  0  0  0  0  0  0  0  0  0
    7.1454   -5.8294   22.3744 C   0  0  0  0  0  0  0  0  0  0  0  0
    8.4288   -3.9621   24.0018 C   0  0  0  0  0  0  0  0  0  0  0  0
    8.3403   -3.7448   22.6268 C   0  0  0  0  0  0  0  0  0  0  0  0
   11.2868   -1.9032   24.4073 C   0  0  0  0  0  0  0  0  0  0  0  0
    6.4588   -6.8275   21.5047 C   0  0  0  0  0  0  0  0  0  0  0  0
    8.9247   -2.5197   22.0036 C   0  0  0  0  0  0  0  0  0  0  0  0
   11.1481   -4.3483   25.0890 C   0  0  0  0  0  0  0  0  0  0  0  0
    9.1136   -2.9710   24.8979 C   0  0  0  0  0  0  0  0  0  0  0  0
   12.7899   -2.0783   24.3226 C   0  0  0  0  0  0  0  0  0  0  0  0
   10.5651   -3.0437   24.7832 N   0  0  0  0  0  0  0  0  0  0  0  0
   10.7514   -0.8203   24.1580 O   0  0  0  0  0  0  0  0  0  0  0  0
   13.5522   -1.7487   25.8912 Cl  0  0  0  0  0  0  0  0  0  0  0  0
  1  2  2  0  0  0  0
  1  4  1  0  0  0  0
  2  5  1  0  0  0  0
  3  4  2  0  0  0  0
  3  6  1  0  0  0  0
  4  8  1  0  0  0  0
  5  6  2  0  0  0  0
  5 11  1  0  0  0  0
  6  9  1  0  0  0  0
  7 12  1  0  0  0  0
  7 13  1  0  0  0  0
  7 14  2  0  0  0  0
 10 13  1  0  0  0  0
 11 13  1  0  0  0  0
 12 15  1  0  0  0  0
M  END
> <ref_mols>
x1472_0

> <original SMILES>
CN(Cc1ccc(C)cc1C)C(=O)CCl

> <Chemgauss4>
-7.124319

> <ref_pdb>
x0749_0

$$$$
x0716
  -OEChem-05172015543D

 15 15  0     0  0  0  0  0  0999 V2000
    7.2340   -6.0466   23.7494 C   0  0  0  0  0  0  0  0  0  0  0  0
    7.8757   -5.1130   24.5631 C   0  0  0  0  0  0  0  0  0  0  0  0
    7.6986   -4.6785   21.8131 C   0  0  0  0  0  0  0  0  0  0  0  0
    7.1454   -5.8294   22.3744 C   0  0  0  0  0  0  0  0  0  0  0  0
    8.4288   -3.9621   24.0018 C   0  0  0  0  0  0  0  0  0  0  0  0
    8.3403   -3.7448   22.6268 C   0  0  0  0  0  0  0  0  0  0  0  0
   11.2868   -1.9032   24.4073 C   0  0  0  0  0  0  0  0  0  0  0  0
    6.4588   -6.8275   21.5047 C   0  0  0  0  0  0  0  0  0  0  0  0
    8.9247   -2.5197   22.0036 C   0  0  0  0  0  0  0  0  0  0  0  0
   11.1481   -4.3483   25.0890 C   0  0  0  0  0  0  0  0  0  0  0  0
    9.1136   -2.9710   24.8979 C   0  0  0  0  0  0  0  0  0  0  0  0
   12.7899   -2.0783   24.3226 C   0  0  0  0  0  0  0  0  0  0  0  0
   10.5651   -3.0437   24.7832 N   0  0  0  0  0  0  0  0  0  0  0  0
   10.7514   -0.8203   24.1580 O   0  0  0  0  0  0  0  0  0  0  0  0
   13.5522   -1.7487   25.8912 Cl  0  0  0  0  0  0  0  0  0  0  0  0
  1  2  2  0  0  0  0
  1  4  1  0  0  0  0
  2  5  1  0  0  0  0
  3  4  2  0  0  0  0
  3  6  1  0  0  0  0
  4  8  1  0  0  0  0
  5  6  2  0  0  0  0
  5 11  1  0  0  0  0
  6  9  1  0  0  0  0
  7 12  1  0  0  0  0
  7 13  1  0  0  0  0
  7 14  2  0  0  0  0
 10 13  1  0  0  0  0
 11 13  1  0  0  0  0
 12 15  1  0  0  0  0
M  END
> <ref_mols>
x0716_0

> <original SMILES>
CN(Cc1ccc(C)cc1C)C(=O)CCl

> <Chemgauss4>
-7.124319

> <ref_pdb>
x0749_0

> <CYS145-warhead dist minimum (A)>
5.864387

> <CYS145-warhead dist mean (A)>
8.975207

> <CYS145-warhead dist stddev (A)>
0.6816816

$$$$
x1306
  -OEChem-05172015543D

 15 15  0     0  0  0  0  0  0999 V2000
    7.2340   -6.0466   23.7494 C   0  0  0  0  0  0  0  0  0  0  0  0
    7.8757   -5.1130   24.5631 C   0  0  0  0  0  0  0  0  0  0  0  0
    7.6986   -4.6785   21.8131 C   0  0  0  0  0  0  0  0  0  0  0  0
    7.1454   -5.8294   22.3744 C   0  0  0  0  0  0  0  0  0  0  0  0
    8.4288   -3.9621   24.0018 C   0  0  0  0  0  0  0  0  0  0  0  0
    8.3403   -3.7448   22.6268 C   0  0  0  0  0  0  0  0  0  0  0  0
   11.2868   -1.9032   24.4073 C   0  0  0  0  0  0  0  0  0  0  0  0
    6.4588   -6.8275   21.5047 C   0  0  0  0  0  0  0  0  0  0  0  0
    8.9247   -2.5197   22.0036 C   0  0  0  0  0  0  0  0  0  0  0  0
   11.1481   -4.3483   25.0890 C   0  0  0  0  0  0  0  0  0  0  0  0
    9.1136   -2.9710   24.8979 C   0  0  0  0  0  0  0  0  0  0  0  0
   12.7899   -2.0783   24.3226 C   0  0  0  0  0  0  0  0  0  0  0  0
   10.5651   -3.0437   24.7832 N   0  0  0  0  0  0  0  0  0  0  0  0
   10.7514   -0.8203   24.1580 O   0  0  0  0  0  0  0  0  0  0  0  0
   13.5522   -1.7487   25.8912 Cl  0  0  0  0  0  0  0  0  0  0  0  0
  1  2  2  0  0  0  0
  1  4  1  0  0  0  0
  2  5  1  0  0  0  0
  3  4  2  0  0  0  0
  3  6  1  0  0  0  0
  4  8  1  0  0  0  0
  5  6  2  0  0  0  0
  5 11  1  0  0  0  0
  6  9  1  0  0  0  0
  7 12  1  0  0  0  0
  7 13  1  0  0  0  0
  7 14  2  0  0  0  0
 10 13  1  0  0  0  0
 11 13  1  0  0  0  0
 12 15  1  0  0  0  0
M  END
> <ref_mols>
x1306_0

> <original SMILES>
CN(Cc1ccc(C)cc1C)C(=O)CCl

> <Chemgauss4>
-7.124319

> <ref_pdb>
x0749_0

$$$$
x0790
  -OEChem-05172015543D

 15 15  0     0  0  0  0  0  0999 V2000
    7.2340   -6.0466   23.7494 C   0  0  0  0  0  0  0  0  0  0  0  0
    7.8757   -5.1130   24.5631 C   0  0  0  0  0  0  0  0  0  0  0  0
    7.6986   -4.6785   21.8131 C   0  0  0  0  0  0  0  0  0  0  0  0
    7.1454   -5.8294   22.3744 C   0  0  0  0  0  0  0  0  0  0  0  0
    8.4288   -3.9621   24.0018 C   0  0  0  0  0  0  0  0  0  0  0  0
    8.3403   -3.7448   22.6268 C   0  0  0  0  0  0  0  0  0  0  0  0
   11.2868   -1.9032   24.4073 C   0  0  0  0  0  0  0  0  0  0  0  0
    6.4588   -6.8275   21.5047 C   0  0  0  0  0  0  0  0  0  0  0  0
    8.9247   -2.5197   22.0036 C   0  0  0  0  0  0  0  0  0  0  0  0
   11.1481   -4.3483   25.0890 C   0  0  0  0  0  0  0  0  0  0  0  0
    9.1136   -2.9710   24.8979 C   0  0  0  0  0  0  0  0  0  0  0  0
   12.7899   -2.0783   24.3226 C   0  0  0  0  0  0  0  0  0  0  0  0
   10.5651   -3.0437   24.7832 N   0  0  0  0  0  0  0  0  0  0  0  0
   10.7514   -0.8203   24.1580 O   0  0  0  0  0  0  0  0  0  0  0  0
   13.5522   -1.7487   25.8912 Cl  0  0  0  0  0  0  0  0  0  0  0  0
  1  2  2  0  0  0  0
  1  4  1  0  0  0  0
  2  5  1  0  0  0  0
  3  4  2  0  0  0  0
  3  6  1  0  0  0  0
  4  8  1  0  0  0  0
  5  6  2  0  0  0  0
  5 11  1  0  0  0  0
  6  9  1  0  0  0  0
  7 12  1  0  0  0  0
  7 13  1  0  0  0  0
  7 14  2  0  0  0  0
 10 13  1  0  0  0  0
 11 13  1  0  0  0  0
 12 15  1  0  0  0  0
M  END
> <ref_mols>
x0790_0

> <original SMILES>
CN(Cc1ccc(C)cc1C)C(=O)CCl

> <Chemgauss4>
-7.124319

> <ref_pdb>
x0749_0

$$$$
x1423
  -OEChem-05172015543D

 15 15  0     0  0  0  0  0  0999 V2000
    7.2340   -6.0466   23.7494 C   0  0  0  0  0  0  0  0  0  0  0  0
    7.8757   -5.1130   24.5631 C   0  0  0  0  0  0  0  0  0  0  0  0
    7.6986   -4.6785   21.8131 C   0  0  0  0  0  0  0  0  0  0  0  0
    7.1454   -5.8294   22.3744 C   0  0  0  0  0  0  0  0  0  0  0  0
    8.4288   -3.9621   24.0018 C   0  0  0  0  0  0  0  0  0  0  0  0
    8.3403   -3.7448   22.6268 C   0  0  0  0  0  0  0  0  0  0  0  0
   11.2868   -1.9032   24.4073 C   0  0  0  0  0  0  0  0  0  0  0  0
    6.4588   -6.8275   21.5047 C   0  0  0  0  0  0  0  0  0  0  0  0
    8.9247   -2.5197   22.0036 C   0  0  0  0  0  0  0  0  0  0  0  0
   11.1481   -4.3483   25.0890 C   0  0  0  0  0  0  0  0  0  0  0  0
    9.1136   -2.9710   24.8979 C   0  0  0  0  0  0  0  0  0  0  0  0
   12.7899   -2.0783   24.3226 C   0  0  0  0  0  0  0  0  0  0  0  0
   10.5651   -3.0437   24.7832 N   0  0  0  0  0  0  0  0  0  0  0  0
   10.7514   -0.8203   24.1580 O   0  0  0  0  0  0  0  0  0  0  0  0
   13.5522   -1.7487   25.8912 Cl  0  0  0  0  0  0  0  0  0  0  0  0
  1  2  2  0  0  0  0
  1  4  1  0  0  0  0
  2  5  1  0  0  0  0
  3  4  2  0  0  0  0
  3  6  1  0  0  0  0
  4  8  1  0  0  0  0
  5  6  2  0  0  0  0
  5 11  1  0  0  0  0
  6  9  1  0  0  0  0
  7 12  1  0  0  0  0
  7 13  1  0  0  0  0
  7 14  2  0  0  0  0
 10 13  1  0  0  0  0
 11 13  1  0  0  0  0
 12 15  1  0  0  0  0
M  END
> <ref_mols>
x1423_0

> <original SMILES>
CN(Cc1ccc(C)cc1C)C(=O)CCl

> <Chemgauss4>
-7.124319

> <ref_pdb>
x0749_0

$$$$
x1344
  -OEChem-05172015543D

 15 15  0     0  0  0  0  0  0999 V2000
    7.2340   -6.0466   23.7494 C   0  0  0  0  0  0  0  0  0  0  0  0
    7.8757   -5.1130   24.5631 C   0  0  0  0  0  0  0  0  0  0  0  0
    7.6986   -4.6785   21.8131 C   0  0  0  0  0  0  0  0  0  0  0  0
    7.1454   -5.8294   22.3744 C   0  0  0  0  0  0  0  0  0  0  0  0
    8.4288   -3.9621   24.0018 C   0  0  0  0  0  0  0  0  0  0  0  0
    8.3403   -3.7448   22.6268 C   0  0  0  0  0  0  0  0  0  0  0  0
   11.2868   -1.9032   24.4073 C   0  0  0  0  0  0  0  0  0  0  0  0
    6.4588   -6.8275   21.5047 C   0  0  0  0  0  0  0  0  0  0  0  0
    8.9247   -2.5197   22.0036 C   0  0  0  0  0  0  0  0  0  0  0  0
   11.1481   -4.3483   25.0890 C   0  0  0  0  0  0  0  0  0  0  0  0
    9.1136   -2.9710   24.8979 C   0  0  0  0  0  0  0  0  0  0  0  0
   12.7899   -2.0783   24.3226 C   0  0  0  0  0  0  0  0  0  0  0  0
   10.5651   -3.0437   24.7832 N   0  0  0  0  0  0  0  0  0  0  0  0
   10.7514   -0.8203   24.1580 O   0  0  0  0  0  0  0  0  0  0  0  0
   13.5522   -1.7487   25.8912 Cl  0  0  0  0  0  0  0  0  0  0  0  0
  1  2  2  0  0  0  0
  1  4  1  0  0  0  0
  2  5  1  0  0  0  0
  3  4  2  0  0  0  0
  3  6  1  0  0  0  0
  4  8  1  0  0  0  0
  5  6  2  0  0  0  0
  5 11  1  0  0  0  0
  6  9  1  0  0  0  0
  7 12  1  0  0  0  0
  7 13  1  0  0  0  0
  7 14  2  0  0  0  0
 10 13  1  0  0  0  0
 11 13  1  0  0  0  0
 12 15  1  0  0  0  0
M  END
> <ref_mols>
x1344_0

> <original SMILES>
CN(Cc1ccc(C)cc1C)C(=O)CCl

> <Chemgauss4>
-7.124319

> <ref_pdb>
x0749_0

$$$$
x0548
  -OEChem-05172015543D

 14 14  0     0  0  0  0  0  0999 V2000
    7.5316   -6.2495   22.2327 C   0  0  0  0  0  0  0  0  0  0  0  0
    8.3732   -5.2585   22.7256 C   0  0  0  0  0  0  0  0  0  0  0  0
    6.3484   -5.8546   21.6295 C   0  0  0  0  0  0  0  0  0  0  0  0
    8.0111   -3.9218   22.6019 C   0  0  0  0  0  0  0  0  0  0  0  0
    6.8065   -3.6311   21.9819 C   0  0  0  0  0  0  0  0  0  0  0  0
   10.0945   -3.0812   23.7400 C   0  0  0  0  0  0  0  0  0  0  0  0
   12.8048   -2.7051   25.1252 C   0  0  0  0  0  0  0  0  0  0  0  0
   10.6895   -1.7309   24.1206 C   0  0  0  0  0  0  0  0  0  0  0  0
   12.2164   -1.7092   24.1355 C   0  0  0  0  0  0  0  0  0  0  0  0
    5.9628   -4.5663   21.4909 N   0  0  0  0  0  0  0  0  0  0  0  0
    8.8681   -2.9133   23.1032 N   0  0  0  0  0  0  0  0  0  0  0  0
   10.6555   -4.1391   24.0057 O   0  0  0  0  0  0  0  0  0  0  0  0
    6.2438   -2.0184   21.7662 Cl  0  0  0  0  0  0  0  0  0  0  0  0
    8.5508   -1.9534   22.9843 H   0  0  0  0  0  0  0  0  0  0  0  0
  1  2  2  0  0  0  0
  1  3  1  0  0  0  0
  2  4  1  0  0  0  0
  3 10  2  0  0  0  0
  4  5  2  0  0  0  0
  4 11  1  0  0  0  0
  5 10  1  0  0  0  0
  5 13  1  0  0  0  0
  6  8  1  0  0  0  0
  6 11  1  0  0  0  0
  6 12  2  0  0  0  0
  7  9  1  0  0  0  0
  8  9  1  0  0  0  0
 11 14  1  0  0  0  0
M  END
> <ref_mols>
x0548_0

> <original SMILES>
CCCC(=O)NC=1C=CC=NC1Cl

> <Chemgauss4>
-7.124144

> <ref_pdb>
x0749_0

$$$$
x1176
  -OEChem-05172015543D

 11 11  0     1  0  0  0  0  0999 V2000
   14.0015   -1.4769   22.1918 C   0  0  0  0  0  0  0  0  0  0  0  0
   12.7137   -1.4440   22.7597 C   0  0  0  0  0  0  0  0  0  0  0  0
   14.4046   -0.1640   22.1787 C   0  0  0  0  0  0  0  0  0  0  0  0
   10.4777    4.4643   23.8464 C   0  0  0  0  0  0  0  0  0  0  0  0
   11.9223    2.4831   23.2642 C   0  0  0  0  0  0  0  0  0  0  0  0
   13.3310    1.9931   22.9189 C   0  0  0  0  0  0  0  0  0  0  0  0
   11.8812    3.9976   23.4844 C   0  0  1  0  0  0  0  0  0  0  0  0
   12.3246   -0.2081   23.0840 N   0  0  0  0  0  0  0  0  0  0  0  0
   13.3741    0.5477   22.7188 N   0  0  0  0  0  0  0  0  0  0  0  0
   12.2906    4.6543   22.2880 O   0  0  0  0  0  0  0  0  0  0  0  0
   12.2751    5.6057   22.4757 H   0  0  0  0  0  0  0  0  0  0  0  0
  1  2  1  0  0  0  0
  1  3  2  0  0  0  0
  2  8  2  0  0  0  0
  3  9  1  0  0  0  0
  4  7  1  0  0  0  0
  5  6  1  0  0  0  0
  5  7  1  0  0  0  0
  6  9  1  0  0  0  0
  7 10  1  0  0  0  0
  8  9  1  0  0  0  0
 10 11  1  0  0  0  0
M  END
> <ref_mols>
x1176_0

> <original SMILES>
CC(O)CCN1C=CC=N1

> <Chemgauss4>
-7.119583

> <ref_pdb>
x0195_0

$$$$
x0322
  -OEChem-05172015543D

 11 11  0     1  0  0  0  0  0999 V2000
   14.0015   -1.4769   22.1918 C   0  0  0  0  0  0  0  0  0  0  0  0
   12.7137   -1.4440   22.7597 C   0  0  0  0  0  0  0  0  0  0  0  0
   14.4046   -0.1640   22.1787 C   0  0  0  0  0  0  0  0  0  0  0  0
   10.4777    4.4643   23.8464 C   0  0  0  0  0  0  0  0  0  0  0  0
   11.9223    2.4831   23.2642 C   0  0  0  0  0  0  0  0  0  0  0  0
   13.3310    1.9931   22.9189 C   0  0  0  0  0  0  0  0  0  0  0  0
   11.8812    3.9976   23.4844 C   0  0  1  0  0  0  0  0  0  0  0  0
   12.3246   -0.2081   23.0840 N   0  0  0  0  0  0  0  0  0  0  0  0
   13.3741    0.5477   22.7188 N   0  0  0  0  0  0  0  0  0  0  0  0
   12.2906    4.6543   22.2880 O   0  0  0  0  0  0  0  0  0  0  0  0
   12.2751    5.6057   22.4757 H   0  0  0  0  0  0  0  0  0  0  0  0
  1  2  1  0  0  0  0
  1  3  2  0  0  0  0
  2  8  2  0  0  0  0
  3  9  1  0  0  0  0
  4  7  1  0  0  0  0
  5  6  1  0  0  0  0
  5  7  1  0  0  0  0
  6  9  1  0  0  0  0
  7 10  1  0  0  0  0
  8  9  1  0  0  0  0
 10 11  1  0  0  0  0
M  END
> <ref_mols>
x0322_0

> <original SMILES>
CC(O)CCN1C=CC=N1

> <Chemgauss4>
-7.119583

> <ref_pdb>
x0195_0

$$$$
x0553
  -OEChem-05172015543D

 16 17  0     1  0  0  0  0  0999 V2000
   12.3886    1.6389   22.6226 C   0  0  0  0  0  0  0  0  0  0  0  0
   10.9125    6.1758   23.4905 C   0  0  0  0  0  0  0  0  0  0  0  0
   12.3834    6.1356   23.8218 C   0  0  0  0  0  0  0  0  0  0  0  0
   11.8017   -0.6655   23.3090 C   0  0  0  0  0  0  0  0  0  0  0  0
   14.1622   -0.2062   22.7649 C   0  0  0  0  0  0  0  0  0  0  0  0
   10.3791    5.0180   24.3029 C   0  0  0  0  0  0  0  0  0  0  0  0
   11.9423   -1.9889   22.5734 C   0  0  0  0  0  0  0  0  0  0  0  0
   14.2001   -1.5652   22.0740 C   0  0  0  0  0  0  0  0  0  0  0  0
   12.6579    4.6451   23.9529 C   0  0  2  0  0  0  0  0  0  0  0  0
   13.1213    4.0100   22.6489 C   0  0  0  0  0  0  0  0  0  0  0  0
   12.7868    0.3078   22.8320 N   0  0  0  0  0  0  0  0  0  0  0  0
   13.3763    2.5970   22.8185 N   0  0  0  0  0  0  0  0  0  0  0  0
   11.2391    1.9490   22.2925 O   0  0  0  0  0  0  0  0  0  0  0  0
   13.2824   -2.4710   22.6876 O   0  0  0  0  0  0  0  0  0  0  0  0
   11.4168    4.0293   24.3399 O   0  0  0  0  0  0  0  0  0  0  0  0
   14.3036    2.2959   23.0885 H   0  0  0  0  0  0  0  0  0  0  0  0
  1 11  1  0  0  0  0
  1 12  1  0  0  0  0
  1 13  2  0  0  0  0
  2  3  1  0  0  0  0
  2  6  1  0  0  0  0
  3  9  1  0  0  0  0
  4  7  1  0  0  0  0
  4 11  1  0  0  0  0
  5  8  1  0  0  0  0
  5 11  1  0  0  0  0
  6 15  1  0  0  0  0
  7 14  1  0  0  0  0
  8 14  1  0  0  0  0
  9 10  1  0  0  0  0
  9 15  1  0  0  0  0
 10 12  1  0  0  0  0
 12 16  1  0  0  0  0
M  END
> <ref_mols>
x0553_0

> <original SMILES>
O=C(NC[C@H]1CCCO1)N2CCOCC2

> <Chemgauss4>
-7.117129

> <ref_pdb>
x0195_0

$$$$
x1162
  -OEChem-05172015543D

 16 17  0     1  0  0  0  0  0999 V2000
   12.3886    1.6389   22.6226 C   0  0  0  0  0  0  0  0  0  0  0  0
   10.9125    6.1758   23.4905 C   0  0  0  0  0  0  0  0  0  0  0  0
   12.3834    6.1356   23.8218 C   0  0  0  0  0  0  0  0  0  0  0  0
   11.8017   -0.6655   23.3090 C   0  0  0  0  0  0  0  0  0  0  0  0
   14.1622   -0.2062   22.7649 C   0  0  0  0  0  0  0  0  0  0  0  0
   10.3791    5.0180   24.3029 C   0  0  0  0  0  0  0  0  0  0  0  0
   11.9423   -1.9889   22.5734 C   0  0  0  0  0  0  0  0  0  0  0  0
   14.2001   -1.5652   22.0740 C   0  0  0  0  0  0  0  0  0  0  0  0
   12.6579    4.6451   23.9529 C   0  0  2  0  0  0  0  0  0  0  0  0
   13.1213    4.0100   22.6489 C   0  0  0  0  0  0  0  0  0  0  0  0
   12.7868    0.3078   22.8320 N   0  0  0  0  0  0  0  0  0  0  0  0
   13.3763    2.5970   22.8185 N   0  0  0  0  0  0  0  0  0  0  0  0
   11.2391    1.9490   22.2925 O   0  0  0  0  0  0  0  0  0  0  0  0
   13.2824   -2.4710   22.6876 O   0  0  0  0  0  0  0  0  0  0  0  0
   11.4168    4.0293   24.3399 O   0  0  0  0  0  0  0  0  0  0  0  0
   14.3036    2.2959   23.0885 H   0  0  0  0  0  0  0  0  0  0  0  0
  1 11  1  0  0  0  0
  1 12  1  0  0  0  0
  1 13  2  0  0  0  0
  2  3  1  0  0  0  0
  2  6  1  0  0  0  0
  3  9  1  0  0  0  0
  4  7  1  0  0  0  0
  4 11  1  0  0  0  0
  5  8  1  0  0  0  0
  5 11  1  0  0  0  0
  6 15  1  0  0  0  0
  7 14  1  0  0  0  0
  8 14  1  0  0  0  0
  9 10  1  0  0  0  0
  9 15  1  0  0  0  0
 10 12  1  0  0  0  0
 12 16  1  0  0  0  0
M  END
> <ref_mols>
x1162_0

> <original SMILES>
O=C(NC[C@H]1CCCO1)N2CCOCC2

> <Chemgauss4>
-7.117129

> <ref_pdb>
x0195_0

$$$$
x0959
  -OEChem-05172015543D

 10 10  0     0  0  0  0  0  0999 V2000
    6.5673   -0.1712   20.3421 C   0  0  0  0  0  0  0  0  0  0  0  0
    4.7474    0.8987   19.1898 C   0  0  0  0  0  0  0  0  0  0  0  0
    7.2394   -0.2114   19.1311 C   0  0  0  0  0  0  0  0  0  0  0  0
    5.2980    0.3961   20.3635 C   0  0  0  0  0  0  0  0  0  0  0  0
    5.5010    0.8108   18.0305 C   0  0  0  0  0  0  0  0  0  0  0  0
    4.9419    1.3397   16.7519 C   0  0  0  0  0  0  0  0  0  0  0  0
    6.7372    0.2666   17.9706 N   0  0  0  0  0  0  0  0  0  0  0  0
    4.6705    2.7282   16.8947 O   0  0  0  0  0  0  0  0  0  0  0  0
    4.3280    0.4845   21.9819 Br  0  0  0  0  0  0  0  0  0  0  0  0
    4.3104    3.0312   16.0457 H   0  0  0  0  0  0  0  0  0  0  0  0
  1  3  1  0  0  0  0
  1  4  2  0  0  0  0
  2  4  1  0  0  0  0
  2  5  2  0  0  0  0
  3  7  2  0  0  0  0
  4  9  1  0  0  0  0
  5  6  1  0  0  0  0
  5  7  1  0  0  0  0
  6  8  1  0  0  0  0
  8 10  1  0  0  0  0
M  END
> <ref_mols>
x0959_0

> <original SMILES>
BrC1=CC(CO)=NC=C1

> <Chemgauss4>
-7.117079

> <ref_pdb>
x0426_0

$$$$
x0957
  -OEChem-05172015543D

 12 12  0     0  0  0  0  0  0999 V2000
    8.9604   -5.6912   23.7461 C   0  0  0  0  0  0  0  0  0  0  0  0
    8.7584   -3.5737   22.6004 C   0  0  0  0  0  0  0  0  0  0  0  0
    9.9467   -5.2142   24.5139 C   0  0  0  0  0  0  0  0  0  0  0  0
    8.3464   -4.8401   22.7558 C   0  0  0  0  0  0  0  0  0  0  0  0
    9.8594   -3.0271   23.4521 C   0  0  0  0  0  0  0  0  0  0  0  0
   13.4560   -1.2600   25.7738 C   0  0  0  0  0  0  0  0  0  0  0  0
   11.4819   -3.4872   25.2708 C   0  0  0  0  0  0  0  0  0  0  0  0
   12.6669   -3.0276   24.4412 C   0  0  0  0  0  0  0  0  0  0  0  0
   10.4031   -3.9143   24.3879 N   0  0  0  0  0  0  0  0  0  0  0  0
   10.2133   -1.8610   23.2850 O   0  0  0  0  0  0  0  0  0  0  0  0
   13.7029   -2.5787   25.3056 O   0  0  0  0  0  0  0  0  0  0  0  0
    6.9758   -5.5648   21.7159 Br  0  0  0  0  0  0  0  0  0  0  0  0
  1  3  2  0  0  0  0
  1  4  1  0  0  0  0
  2  4  2  0  0  0  0
  2  5  1  0  0  0  0
  3  9  1  0  0  0  0
  4 12  1  0  0  0  0
  5  9  1  0  0  0  0
  5 10  2  0  0  0  0
  6 11  1  0  0  0  0
  7  8  1  0  0  0  0
  7  9  1  0  0  0  0
  8 11  1  0  0  0  0
M  END
> <ref_mols>
x0957_0

> <original SMILES>
O=C1N(CCOC)C=CC(Br)=C1

> <Chemgauss4>
-7.113807

> <ref_pdb>
x0749_0

$$$$
x0825
  -OEChem-05172015543D

 13 13  0     0  0  0  0  0  0999 V2000
   11.4358   -3.8174   25.0813 C   0  0  0  0  0  0  0  0  0  0  0  0
   11.6913   -1.8017   23.9526 C   0  0  0  0  0  0  0  0  0  0  0  0
   12.2277   -2.6471   24.8988 C   0  0  0  0  0  0  0  0  0  0  0  0
   10.3241   -3.8219   24.2677 C   0  0  0  0  0  0  0  0  0  0  0  0
    7.8034   -5.7430   22.3484 C   0  0  0  0  0  0  0  0  0  0  0  0
    9.2493   -4.8646   24.1595 C   0  0  0  0  0  0  0  0  0  0  0  0
    6.9993   -5.3165   21.1468 C   0  0  0  0  0  0  0  0  0  0  0  0
    8.4402   -4.6860   22.9766 N   0  0  0  0  0  0  0  0  0  0  0  0
    7.8519   -6.9163   22.7133 O   0  0  0  0  0  0  0  0  0  0  0  0
   10.2387   -2.4195   23.2888 S   0  0  0  0  0  0  0  0  0  0  0  0
    6.4340   -3.6625   21.4290 Cl  0  0  0  0  0  0  0  0  0  0  0  0
   13.8152   -2.3377   25.8615 Br  0  0  0  0  0  0  0  0  0  0  0  0
    8.3346   -3.7522   22.5919 H   0  0  0  0  0  0  0  0  0  0  0  0
  1  3  1  0  0  0  0
  1  4  2  0  0  0  0
  2  3  2  0  0  0  0
  2 10  1  0  0  0  0
  3 12  1  0  0  0  0
  4  6  1  0  0  0  0
  4 10  1  0  0  0  0
  5  7  1  0  0  0  0
  5  8  1  0  0  0  0
  5  9  2  0  0  0  0
  6  8  1  0  0  0  0
  7 11  1  0  0  0  0
  8 13  1  0  0  0  0
M  END
> <ref_mols>
x0825_0

> <original SMILES>
ClCC(=O)NCc1cc(Br)cs1

> <Chemgauss4>
-7.113388

> <ref_pdb>
x0749_0

$$$$
x1326
  -OEChem-05172015543D

 13 13  0     0  0  0  0  0  0999 V2000
   11.4358   -3.8174   25.0813 C   0  0  0  0  0  0  0  0  0  0  0  0
   11.6913   -1.8017   23.9526 C   0  0  0  0  0  0  0  0  0  0  0  0
   12.2277   -2.6471   24.8988 C   0  0  0  0  0  0  0  0  0  0  0  0
   10.3241   -3.8219   24.2677 C   0  0  0  0  0  0  0  0  0  0  0  0
    7.8034   -5.7430   22.3484 C   0  0  0  0  0  0  0  0  0  0  0  0
    9.2493   -4.8646   24.1595 C   0  0  0  0  0  0  0  0  0  0  0  0
    6.9993   -5.3165   21.1468 C   0  0  0  0  0  0  0  0  0  0  0  0
    8.4402   -4.6860   22.9766 N   0  0  0  0  0  0  0  0  0  0  0  0
    7.8519   -6.9163   22.7133 O   0  0  0  0  0  0  0  0  0  0  0  0
   10.2387   -2.4195   23.2888 S   0  0  0  0  0  0  0  0  0  0  0  0
    6.4340   -3.6625   21.4290 Cl  0  0  0  0  0  0  0  0  0  0  0  0
   13.8152   -2.3377   25.8615 Br  0  0  0  0  0  0  0  0  0  0  0  0
    8.3346   -3.7522   22.5919 H   0  0  0  0  0  0  0  0  0  0  0  0
  1  3  1  0  0  0  0
  1  4  2  0  0  0  0
  2  3  2  0  0  0  0
  2 10  1  0  0  0  0
  3 12  1  0  0  0  0
  4  6  1  0  0  0  0
  4 10  1  0  0  0  0
  5  7  1  0  0  0  0
  5  8  1  0  0  0  0
  5  9  2  0  0  0  0
  6  8  1  0  0  0  0
  7 11  1  0  0  0  0
  8 13  1  0  0  0  0
M  END
> <ref_mols>
x1326_0

> <original SMILES>
ClCC(=O)NCc1cc(Br)cs1

> <Chemgauss4>
-7.113388

> <ref_pdb>
x0749_0

$$$$
x0751
  -OEChem-05172015543D

 13 13  0     0  0  0  0  0  0999 V2000
   11.4358   -3.8174   25.0813 C   0  0  0  0  0  0  0  0  0  0  0  0
   11.6913   -1.8017   23.9526 C   0  0  0  0  0  0  0  0  0  0  0  0
   12.2277   -2.6471   24.8988 C   0  0  0  0  0  0  0  0  0  0  0  0
   10.3241   -3.8219   24.2677 C   0  0  0  0  0  0  0  0  0  0  0  0
    7.8034   -5.7430   22.3484 C   0  0  0  0  0  0  0  0  0  0  0  0
    9.2493   -4.8646   24.1595 C   0  0  0  0  0  0  0  0  0  0  0  0
    6.9993   -5.3165   21.1468 C   0  0  0  0  0  0  0  0  0  0  0  0
    8.4402   -4.6860   22.9766 N   0  0  0  0  0  0  0  0  0  0  0  0
    7.8519   -6.9163   22.7133 O   0  0  0  0  0  0  0  0  0  0  0  0
   10.2387   -2.4195   23.2888 S   0  0  0  0  0  0  0  0  0  0  0  0
    6.4340   -3.6625   21.4290 Cl  0  0  0  0  0  0  0  0  0  0  0  0
   13.8152   -2.3377   25.8615 Br  0  0  0  0  0  0  0  0  0  0  0  0
    8.3346   -3.7522   22.5919 H   0  0  0  0  0  0  0  0  0  0  0  0
  1  3  1  0  0  0  0
  1  4  2  0  0  0  0
  2  3  2  0  0  0  0
  2 10  1  0  0  0  0
  3 12  1  0  0  0  0
  4  6  1  0  0  0  0
  4 10  1  0  0  0  0
  5  7  1  0  0  0  0
  5  8  1  0  0  0  0
  5  9  2  0  0  0  0
  6  8  1  0  0  0  0
  7 11  1  0  0  0  0
  8 13  1  0  0  0  0
M  END
> <ref_mols>
x0751_0

> <original SMILES>
ClCC(=O)NCc1cc(Br)cs1

> <Chemgauss4>
-7.113388

> <ref_pdb>
x0749_0

> <CYS145-warhead dist minimum (A)>
4.778575

> <CYS145-warhead dist mean (A)>
6.062448

> <CYS145-warhead dist stddev (A)>
0.42367712

$$$$
x0202
  -OEChem-05172015543D

 13 13  0     0  0  0  0  0  0999 V2000
   10.9503   -2.9982   24.8398 C   0  0  0  0  0  0  0  0  0  0  0  0
    9.2324   -3.4626   23.1624 C   0  0  0  0  0  0  0  0  0  0  0  0
    9.9377   -5.2171   24.6662 C   0  0  0  0  0  0  0  0  0  0  0  0
    8.3374   -4.3431   22.5548 C   0  0  0  0  0  0  0  0  0  0  0  0
    9.0427   -6.0977   24.0586 C   0  0  0  0  0  0  0  0  0  0  0  0
   10.0327   -3.8996   24.2181 C   0  0  0  0  0  0  0  0  0  0  0  0
    8.2425   -5.6607   23.0029 C   0  0  0  0  0  0  0  0  0  0  0  0
    5.6351   -6.5135   24.2190 C   0  0  0  0  0  0  0  0  0  0  0  0
    5.3571   -5.0274   22.2404 C   0  0  0  0  0  0  0  0  0  0  0  0
    7.2786   -6.6073   22.3504 C   0  0  0  0  0  0  0  0  0  0  0  0
   11.6956   -2.2659   25.3448 N   0  0  0  0  0  0  0  0  0  0  0  0
    5.8503   -6.3550   22.7409 N   0  3  0  0  0  0  0  0  0  0  0  0
    5.2827   -7.0777   22.2779 H   0  0  0  0  0  0  0  0  0  0  0  0
  1  6  1  0  0  0  0
  1 11  3  0  0  0  0
  2  4  2  0  0  0  0
  2  6  1  0  0  0  0
  3  5  1  0  0  0  0
  3  6  2  0  0  0  0
  4  7  1  0  0  0  0
  5  7  2  0  0  0  0
  7 10  1  0  0  0  0
  8 12  1  0  0  0  0
  9 12  1  0  0  0  0
 10 12  1  0  0  0  0
 12 13  1  0  0  0  0
M  CHG  1  12   1
M  END
> <ref_mols>
x0202_0

> <original SMILES>
CN(C)CC=1C=CC(C#N)=CC1

> <Chemgauss4>
-7.112167

> <ref_pdb>
x0749_0

> <CYS145-warhead dist minimum (A)>
29.468311

> <CYS145-warhead dist mean (A)>
33.103184

> <CYS145-warhead dist stddev (A)>
1.419844

$$$$
x0965
  -OEChem-05172015543D

 12 12  0     0  0  0  0  0  0999 V2000
    7.7084   -2.5794   21.9705 C   0  0  0  0  0  0  0  0  0  0  0  0
    6.1492   -3.5517   20.4019 C   0  0  0  0  0  0  0  0  0  0  0  0
    8.0593   -1.6409   21.0839 C   0  0  0  0  0  0  0  0  0  0  0  0
    6.7192   -3.5679   21.6153 C   0  0  0  0  0  0  0  0  0  0  0  0
    6.5313   -2.5082   19.4011 C   0  0  0  0  0  0  0  0  0  0  0  0
    6.7048    0.2854   18.5875 C   0  0  0  0  0  0  0  0  0  0  0  0
    7.9443   -0.5258   18.9262 C   0  0  0  0  0  0  0  0  0  0  0  0
    7.4970   -1.5864   19.8210 N   0  0  0  0  0  0  0  0  0  0  0  0
    6.1193    0.8098   19.5768 O   0  5  0  0  0  0  0  0  0  0  0  0
    5.9891   -2.5205   18.2971 O   0  0  0  0  0  0  0  0  0  0  0  0
    6.4208    0.3444   17.3578 O   0  0  0  0  0  0  0  0  0  0  0  0
    6.2731   -4.8508   22.8961 Br  0  0  0  0  0  0  0  0  0  0  0  0
  1  3  2  0  0  0  0
  1  4  1  0  0  0  0
  2  4  2  0  0  0  0
  2  5  1  0  0  0  0
  3  8  1  0  0  0  0
  4 12  1  0  0  0  0
  5  8  1  0  0  0  0
  5 10  2  0  0  0  0
  6  7  1  0  0  0  0
  6  9  1  0  0  0  0
  6 11  2  0  0  0  0
  7  8  1  0  0  0  0
M  CHG  1   9  -1
M  END
> <ref_mols>
x0965_0

> <original SMILES>
O=C1N(CC(O)=O)C=CC(Br)=C1

> <Chemgauss4>
-7.111454

> <ref_pdb>
x0397_0

$$$$
x0060
  -OEChem-05172015543D

 14 14  0     0  0  0  0  0  0999 V2000
   13.3785    0.2921   23.0145 C   0  0  0  0  0  0  0  0  0  0  0  0
   13.2268   -1.0945   23.0097 C   0  0  0  0  0  0  0  0  0  0  0  0
   12.2587    1.1165   22.9048 C   0  0  0  0  0  0  0  0  0  0  0  0
   11.9554   -1.6566   22.8950 C   0  0  0  0  0  0  0  0  0  0  0  0
   10.9873    0.5544   22.7901 C   0  0  0  0  0  0  0  0  0  0  0  0
   10.8356   -0.8322   22.7852 C   0  0  0  0  0  0  0  0  0  0  0  0
    9.8204    1.4500   22.6751 C   0  0  0  0  0  0  0  0  0  0  0  0
    8.7074   -1.2065   21.5435 C   0  0  0  0  0  0  0  0  0  0  0  0
    7.2209   -1.3981   21.7396 C   0  0  0  0  0  0  0  0  0  0  0  0
    9.1374   -2.3802   23.7292 C   0  0  0  0  0  0  0  0  0  0  0  0
    9.5713   -1.4171   22.6716 N   0  0  0  0  0  0  0  0  0  0  0  0
    9.4384    1.8168   21.5030 O   0  5  0  0  0  0  0  0  0  0  0  0
    9.2281    1.8317   23.7511 O   0  0  0  0  0  0  0  0  0  0  0  0
    9.1061   -0.9067   20.4152 O   0  0  0  0  0  0  0  0  0  0  0  0
  1  2  1  0  0  0  0
  1  3  2  0  0  0  0
  2  4  2  0  0  0  0
  3  5  1  0  0  0  0
  4  6  1  0  0  0  0
  5  6  2  0  0  0  0
  5  7  1  0  0  0  0
  6 11  1  0  0  0  0
  7 12  1  0  0  0  0
  7 13  2  0  0  0  0
  8  9  1  0  0  0  0
  8 11  1  0  0  0  0
  8 14  2  0  0  0  0
 10 11  1  0  0  0  0
M  CHG  1  12  -1
M  END
> <ref_mols>
x0060_0

> <original SMILES>
CN(C(=O)C)C=1C=CC=CC1C(=O)O

> <Chemgauss4>
-7.109825

> <ref_pdb>
x1093_0

$$$$
x0944
  -OEChem-05172015543D

 10 10  0     0  0  0  0  0  0999 V2000
    5.0578    1.0730   19.0324 C   0  0  0  0  0  0  0  0  0  0  0  0
    6.8082    0.0405   20.3187 C   0  0  0  0  0  0  0  0  0  0  0  0
    5.8280    0.8466   17.9031 C   0  0  0  0  0  0  0  0  0  0  0  0
    5.5644    0.6592   20.2594 C   0  0  0  0  0  0  0  0  0  0  0  0
    7.4999   -0.1399   19.1318 C   0  0  0  0  0  0  0  0  0  0  0  0
    7.0403    0.2487   17.9212 N   0  0  0  0  0  0  0  0  0  0  0  0
    8.7652   -0.7731   19.2075 N   0  0  0  0  0  0  0  0  0  0  0  0
    4.5665    0.9372   21.8389 Br  0  0  0  0  0  0  0  0  0  0  0  0
    9.1276   -1.0190   20.1030 H   0  0  0  0  0  0  0  0  0  0  0  0
    9.3041   -0.8725   18.3748 H   0  0  0  0  0  0  0  0  0  0  0  0
  1  3  1  0  0  0  0
  1  4  2  0  0  0  0
  2  4  1  0  0  0  0
  2  5  2  0  0  0  0
  3  6  2  0  0  0  0
  4  8  1  0  0  0  0
  5  6  1  0  0  0  0
  5  7  1  0  0  0  0
  7  9  1  0  0  0  0
  7 10  1  0  0  0  0
M  END
> <ref_mols>
x0944_0

> <original SMILES>
NC1=NC=CC(Br)=C1

> <Chemgauss4>
-7.104149

> <ref_pdb>
x0540_0

$$$$
x1215
  -OEChem-05172015543D

 15 15  0     0  0  0  0  0  0999 V2000
    5.2624    0.6101   20.3961 C   0  0  0  0  0  0  0  0  0  0  0  0
    5.3740    1.0875   18.1122 C   0  0  0  0  0  0  0  0  0  0  0  0
    4.8043    1.3676   19.3375 C   0  0  0  0  0  0  0  0  0  0  0  0
    6.6815   -0.5280   19.0330 C   0  0  0  0  0  0  0  0  0  0  0  0
    3.7902    2.3914   19.5019 C   0  0  0  0  0  0  0  0  0  0  0  0
    7.7239   -1.5806   18.8639 C   0  0  0  0  0  0  0  0  0  0  0  0
    6.2035   -0.3496   20.2792 N   0  0  0  0  0  0  0  0  0  0  0  0
    6.3188    0.1431   17.9232 N   0  0  0  0  0  0  0  0  0  0  0  0
    3.3935    3.1031   18.3712 N   0  0  0  0  0  0  0  0  0  0  0  0
    3.2953    2.6461   20.6163 O   0  0  0  0  0  0  0  0  0  0  0  0
    8.0471   -2.2232   20.0253 F   0  0  0  0  0  0  0  0  0  0  0  0
    7.3637   -2.5729   17.9969 F   0  0  0  0  0  0  0  0  0  0  0  0
    8.9000   -1.0829   18.3819 F   0  0  0  0  0  0  0  0  0  0  0  0
    3.8197    2.8880   17.4764 H   0  0  0  0  0  0  0  0  0  0  0  0
    2.6885    3.8315   18.4216 H   0  0  0  0  0  0  0  0  0  0  0  0
  1  3  1  0  0  0  0
  1  7  2  0  0  0  0
  2  3  2  0  0  0  0
  2  8  1  0  0  0  0
  3  5  1  0  0  0  0
  4  6  1  0  0  0  0
  4  7  1  0  0  0  0
  4  8  2  0  0  0  0
  5  9  1  0  0  0  0
  5 10  2  0  0  0  0
  6 11  1  0  0  0  0
  6 12  1  0  0  0  0
  6 13  1  0  0  0  0
  9 14  1  0  0  0  0
  9 15  1  0  0  0  0
M  END
> <ref_mols>
x1215_0

> <original SMILES>
NC(=O)C=1C=NC(=NC1)C(F)(F)F

> <Chemgauss4>
-7.102551

> <ref_pdb>
x0397_0

$$$$
x0929
  -OEChem-05172015543D

 17 19  0     1  0  0  0  0  0999 V2000
   11.9191    0.0100   24.7287 C   0  0  0  0  0  0  0  0  0  0  0  0
   12.5515   -1.6950   23.1958 C   0  0  0  0  0  0  0  0  0  0  0  0
   10.6047   -0.4328   24.6320 C   0  0  0  0  0  0  0  0  0  0  0  0
   12.9171   -0.6277   24.0002 C   0  0  0  0  0  0  0  0  0  0  0  0
   10.3425   -1.5087   23.7992 C   0  0  0  0  0  0  0  0  0  0  0  0
    8.5298   -3.4588   25.7394 C   0  0  0  0  0  0  0  0  0  0  0  0
    7.7686   -3.5509   22.1338 C   0  0  0  0  0  0  0  0  0  0  0  0
    7.8087   -1.1329   23.1504 C   0  0  0  0  0  0  0  0  0  0  0  0
    8.1959   -4.2915   23.4086 C   0  0  0  0  0  0  0  0  0  0  0  0
    8.3804   -2.1831   22.2453 C   0  0  1  0  0  0  0  0  0  0  0  0
    8.9188   -2.0275   23.6621 C   0  0  1  0  0  0  0  0  0  0  0  0
    9.5336    0.2488   25.4117 C   0  0  0  0  0  0  0  0  0  0  0  0
    8.7196   -4.8746   26.2173 C   0  0  0  0  0  0  0  0  0  0  0  0
   11.2854   -2.1536   23.0761 N   0  0  0  0  0  0  0  0  0  0  0  0
    8.5923   -3.2563   24.3717 N   0  0  0  0  0  0  0  0  0  0  0  0
    8.3271   -2.5564   26.5550 O   0  0  0  0  0  0  0  0  0  0  0  0
   14.1900   -0.2230   24.0739 F   0  0  0  0  0  0  0  0  0  0  0  0
  1  3  2  0  0  0  0
  1  4  1  0  0  0  0
  2  4  2  0  0  0  0
  2 14  1  0  0  0  0
  3  5  1  0  0  0  0
  3 12  1  0  0  0  0
  4 17  1  0  0  0  0
  5 11  1  0  0  0  0
  5 14  2  0  0  0  0
  6 13  1  0  0  0  0
  6 15  1  0  0  0  0
  6 16  2  0  0  0  0
  7  9  1  0  0  0  0
  7 10  1  0  0  0  0
  8 10  1  0  0  0  0
  8 11  1  0  0  0  0
  9 15  1  0  0  0  0
 10 11  1  0  0  0  0
 11 15  1  0  0  0  0
M  END
> <ref_mols>
x0929_0

> <original SMILES>
CC(C=C(F)C=N1)=C1C23N(C(C)=O)CCC2C3

> <Chemgauss4>
-7.102456

> <ref_pdb>
x0072_0

$$$$
x0132
  -OEChem-05172015543D

 14 15  0     1  0  0  0  0  0999 V2000
   12.2023    2.0120   22.6617 C   0  0  0  0  0  0  0  0  0  0  0  0
   12.8260    0.0422   22.7643 C   0  0  0  0  0  0  0  0  0  0  0  0
   11.2293    4.7032   24.5951 C   0  0  0  0  0  0  0  0  0  0  0  0
   10.5853    3.4581   24.0062 C   0  0  0  0  0  0  0  0  0  0  0  0
   11.5442    5.5420   23.3784 C   0  0  0  0  0  0  0  0  0  0  0  0
   11.2985    3.2219   22.6683 C   0  0  1  0  0  0  0  0  0  0  0  0
   14.4816   -1.8208   23.0381 C   0  0  0  0  0  0  0  0  0  0  0  0
   13.0114   -1.4111   22.8732 C   0  0  0  0  0  0  0  0  0  0  0  0
   11.7256    0.7466   22.8454 N   0  0  0  0  0  0  0  0  0  0  0  0
   13.5215    2.1143   22.4744 N   0  0  0  0  0  0  0  0  0  0  0  0
   12.0114    4.5291   22.3817 N   0  3  0  0  0  0  0  0  0  0  0  0
   13.9448    0.7811   22.5438 O   0  0  0  0  0  0  0  0  0  0  0  0
   11.8016    4.8373   21.4235 H   0  0  0  0  0  0  0  0  0  0  0  0
   13.0327    4.4230   22.4384 H   0  0  0  0  0  0  0  0  0  0  0  0
  1  6  1  0  0  0  0
  1  9  1  0  0  0  0
  1 10  2  0  0  0  0
  2  8  1  0  0  0  0
  2  9  2  0  0  0  0
  2 12  1  0  0  0  0
  3  4  1  0  0  0  0
  3  5  1  0  0  0  0
  4  6  1  0  0  0  0
  5 11  1  0  0  0  0
  6 11  1  0  0  0  0
  7  8  1  0  0  0  0
 10 12  1  0  0  0  0
 11 13  1  0  0  0  0
 11 14  1  0  0  0  0
M  CHG  1  11   1
M  END
> <ref_mols>
x0132_0

> <original SMILES>
CCC1=NC(=NO1)C2CCCN2

> <Chemgauss4>
-7.101483

> <ref_pdb>
x0195_0

$$$$
x1146
  -OEChem-05172015543D

 14 15  0     1  0  0  0  0  0999 V2000
   12.2023    2.0120   22.6617 C   0  0  0  0  0  0  0  0  0  0  0  0
   12.8260    0.0422   22.7643 C   0  0  0  0  0  0  0  0  0  0  0  0
   11.2293    4.7032   24.5951 C   0  0  0  0  0  0  0  0  0  0  0  0
   10.5853    3.4581   24.0062 C   0  0  0  0  0  0  0  0  0  0  0  0
   11.5442    5.5420   23.3784 C   0  0  0  0  0  0  0  0  0  0  0  0
   11.2985    3.2219   22.6683 C   0  0  1  0  0  0  0  0  0  0  0  0
   14.4816   -1.8208   23.0381 C   0  0  0  0  0  0  0  0  0  0  0  0
   13.0114   -1.4111   22.8732 C   0  0  0  0  0  0  0  0  0  0  0  0
   11.7256    0.7466   22.8454 N   0  0  0  0  0  0  0  0  0  0  0  0
   13.5215    2.1143   22.4744 N   0  0  0  0  0  0  0  0  0  0  0  0
   12.0114    4.5291   22.3817 N   0  3  0  0  0  0  0  0  0  0  0  0
   13.9448    0.7811   22.5438 O   0  0  0  0  0  0  0  0  0  0  0  0
   11.8016    4.8373   21.4235 H   0  0  0  0  0  0  0  0  0  0  0  0
   13.0327    4.4230   22.4384 H   0  0  0  0  0  0  0  0  0  0  0  0
  1  6  1  0  0  0  0
  1  9  1  0  0  0  0
  1 10  2  0  0  0  0
  2  8  1  0  0  0  0
  2  9  2  0  0  0  0
  2 12  1  0  0  0  0
  3  4  1  0  0  0  0
  3  5  1  0  0  0  0
  4  6  1  0  0  0  0
  5 11  1  0  0  0  0
  6 11  1  0  0  0  0
  7  8  1  0  0  0  0
 10 12  1  0  0  0  0
 11 13  1  0  0  0  0
 11 14  1  0  0  0  0
M  CHG  1  11   1
M  END
> <ref_mols>
x1146_0

> <original SMILES>
CCC1=NC(=NO1)C2CCCN2

> <Chemgauss4>
-7.101483

> <ref_pdb>
x0195_0

$$$$
x1072
  -OEChem-05172015543D

 11 12  0     0  0  0  0  0  0999 V2000
   10.7314   -1.3447   23.0059 C   0  0  0  0  0  0  0  0  0  0  0  0
   11.5738   -0.2530   22.9815 C   0  0  0  0  0  0  0  0  0  0  0  0
    7.4787    0.5680   18.9175 C   0  0  0  0  0  0  0  0  0  0  0  0
    9.0221   -0.0514   20.1789 C   0  0  0  0  0  0  0  0  0  0  0  0
    9.8769   -0.3076   21.2726 C   0  0  0  0  0  0  0  0  0  0  0  0
    9.7575   -1.3776   22.0270 N   0  0  0  0  0  0  0  0  0  0  0  0
    7.8914    0.6143   20.2184 N   0  0  0  0  0  0  0  0  0  0  0  0
    8.2829   -0.0846   18.0757 N   0  0  0  0  0  0  0  0  0  0  0  0
    9.2623   -0.4707   18.9076 N   0  0  0  0  0  0  0  0  0  0  0  0
   11.1393    0.7800   21.6832 S   0  0  0  0  0  0  0  0  0  0  0  0
   10.0409   -1.0042   18.5388 H   0  0  0  0  0  0  0  0  0  0  0  0
  1  2  2  0  0  0  0
  1  6  1  0  0  0  0
  2 10  1  0  0  0  0
  3  7  1  0  0  0  0
  3  8  2  0  0  0  0
  4  5  1  0  0  0  0
  4  7  2  0  0  0  0
  4  9  1  0  0  0  0
  5  6  2  0  0  0  0
  5 10  1  0  0  0  0
  8  9  1  0  0  0  0
  9 11  1  0  0  0  0
M  END
> <ref_mols>
x1072_0

> <original SMILES>
C1=CSC(=N1)C2=NN=CN2

> <Chemgauss4>
-7.098225

> <ref_pdb>
x0678_0

$$$$
x0175
  -OEChem-05172015543D

 11 12  0     0  0  0  0  0  0999 V2000
   10.7314   -1.3447   23.0059 C   0  0  0  0  0  0  0  0  0  0  0  0
   11.5738   -0.2530   22.9815 C   0  0  0  0  0  0  0  0  0  0  0  0
    7.4787    0.5680   18.9175 C   0  0  0  0  0  0  0  0  0  0  0  0
    9.0221   -0.0514   20.1789 C   0  0  0  0  0  0  0  0  0  0  0  0
    9.8769   -0.3076   21.2726 C   0  0  0  0  0  0  0  0  0  0  0  0
    9.7575   -1.3776   22.0270 N   0  0  0  0  0  0  0  0  0  0  0  0
    7.8914    0.6143   20.2184 N   0  0  0  0  0  0  0  0  0  0  0  0
    8.2829   -0.0846   18.0757 N   0  0  0  0  0  0  0  0  0  0  0  0
    9.2623   -0.4707   18.9076 N   0  0  0  0  0  0  0  0  0  0  0  0
   11.1393    0.7800   21.6832 S   0  0  0  0  0  0  0  0  0  0  0  0
   10.0409   -1.0042   18.5388 H   0  0  0  0  0  0  0  0  0  0  0  0
  1  2  2  0  0  0  0
  1  6  1  0  0  0  0
  2 10  1  0  0  0  0
  3  7  1  0  0  0  0
  3  8  2  0  0  0  0
  4  5  1  0  0  0  0
  4  7  2  0  0  0  0
  4  9  1  0  0  0  0
  5  6  2  0  0  0  0
  5 10  1  0  0  0  0
  8  9  1  0  0  0  0
  9 11  1  0  0  0  0
M  END
> <ref_mols>
x0175_0

> <original SMILES>
C1=CSC(=N1)C2=NN=CN2

> <Chemgauss4>
-7.098225

> <ref_pdb>
x0678_0

$$$$
x1096
  -OEChem-05172015543D

 13 13  0     0  0  0  0  0  0999 V2000
    6.0628   -4.5385   23.7541 C   0  0  0  0  0  0  0  0  0  0  0  0
    6.4463   -3.5077   21.6667 C   0  0  0  0  0  0  0  0  0  0  0  0
    6.4855   -2.5442   19.3439 C   0  0  0  0  0  0  0  0  0  0  0  0
    6.1370   -5.0568   25.1346 C   0  0  0  0  0  0  0  0  0  0  0  0
    6.1248    0.2115   18.1910 C   0  0  0  0  0  0  0  0  0  0  0  0
    7.4210   -1.7274   18.4793 C   0  0  0  0  0  0  0  0  0  0  0  0
    5.0544   -4.7196   22.9281 N   0  0  0  0  0  0  0  0  0  0  0  0
    5.2798   -4.1159   21.7034 N   0  0  0  0  0  0  0  0  0  0  0  0
    7.0269   -2.7796   20.6012 N   0  0  0  0  0  0  0  0  0  0  0  0
    5.4012   -2.9183   18.9072 O   0  0  0  0  0  0  0  0  0  0  0  0
    6.6532   -0.9595   17.5759 O   0  0  0  0  0  0  0  0  0  0  0  0
    7.3618   -3.6204   23.1125 S   0  0  0  0  0  0  0  0  0  0  0  0
    7.9475   -2.3826   20.7764 H   0  0  0  0  0  0  0  0  0  0  0  0
  1  4  1  0  0  0  0
  1  7  2  0  0  0  0
  1 12  1  0  0  0  0
  2  8  2  0  0  0  0
  2  9  1  0  0  0  0
  2 12  1  0  0  0  0
  3  6  1  0  0  0  0
  3  9  1  0  0  0  0
  3 10  2  0  0  0  0
  5 11  1  0  0  0  0
  6 11  1  0  0  0  0
  7  8  1  0  0  0  0
  9 13  1  0  0  0  0
M  END
> <ref_mols>
x1096_0

> <original SMILES>
COCC(=O)NC1=NN=C(C)S1

> <Chemgauss4>
-7.097392

> <ref_pdb>
x0397_0

$$$$
x0519
  -OEChem-05172015543D

 13 13  0     0  0  0  0  0  0999 V2000
    6.0628   -4.5385   23.7541 C   0  0  0  0  0  0  0  0  0  0  0  0
    6.4463   -3.5077   21.6667 C   0  0  0  0  0  0  0  0  0  0  0  0
    6.4855   -2.5442   19.3439 C   0  0  0  0  0  0  0  0  0  0  0  0
    6.1370   -5.0568   25.1346 C   0  0  0  0  0  0  0  0  0  0  0  0
    6.1248    0.2115   18.1910 C   0  0  0  0  0  0  0  0  0  0  0  0
    7.4210   -1.7274   18.4793 C   0  0  0  0  0  0  0  0  0  0  0  0
    5.0544   -4.7196   22.9281 N   0  0  0  0  0  0  0  0  0  0  0  0
    5.2798   -4.1159   21.7034 N   0  0  0  0  0  0  0  0  0  0  0  0
    7.0269   -2.7796   20.6012 N   0  0  0  0  0  0  0  0  0  0  0  0
    5.4012   -2.9183   18.9072 O   0  0  0  0  0  0  0  0  0  0  0  0
    6.6532   -0.9595   17.5759 O   0  0  0  0  0  0  0  0  0  0  0  0
    7.3618   -3.6204   23.1125 S   0  0  0  0  0  0  0  0  0  0  0  0
    7.9475   -2.3826   20.7764 H   0  0  0  0  0  0  0  0  0  0  0  0
  1  4  1  0  0  0  0
  1  7  2  0  0  0  0
  1 12  1  0  0  0  0
  2  8  2  0  0  0  0
  2  9  1  0  0  0  0
  2 12  1  0  0  0  0
  3  6  1  0  0  0  0
  3  9  1  0  0  0  0
  3 10  2  0  0  0  0
  5 11  1  0  0  0  0
  6 11  1  0  0  0  0
  7  8  1  0  0  0  0
  9 13  1  0  0  0  0
M  END
> <ref_mols>
x0519_0

> <original SMILES>
COCC(=O)NC1=NN=C(C)S1

> <Chemgauss4>
-7.097392

> <ref_pdb>
x0397_0

$$$$
x0657
  -OEChem-05172015543D

 15 15  0     1  0  0  0  0  0999 V2000
   11.3059   -0.2861   21.5997 C   0  0  0  0  0  0  0  0  0  0  0  0
   14.3955   -1.5772   24.2641 C   0  0  0  0  0  0  0  0  0  0  0  0
   13.9685   -2.3472   23.0203 C   0  0  0  0  0  0  0  0  0  0  0  0
   14.0450   -0.0996   24.1181 C   0  0  0  0  0  0  0  0  0  0  0  0
   12.4892   -2.1376   22.7218 C   0  0  0  0  0  0  0  0  0  0  0  0
   12.5652    0.1336   23.7755 C   0  0  2  0  0  0  0  0  0  0  0  0
   11.6503   -0.0748   24.9857 C   0  0  0  0  0  0  0  0  0  0  0  0
    9.3076   -1.6422   22.1750 C   0  0  0  0  0  0  0  0  0  0  0  0
   10.2916   -1.2783   21.0875 C   0  0  1  0  0  0  0  0  0  0  0  0
   12.1380   -0.7149   22.6396 N   0  0  0  0  0  0  0  0  0  0  0  0
    9.5674   -0.6679   19.9499 N   0  3  0  0  0  0  0  0  0  0  0  0
   11.3510    0.8396   21.0962 O   0  0  0  0  0  0  0  0  0  0  0  0
   10.0929    0.1222   19.5576 H   0  0  0  0  0  0  0  0  0  0  0  0
    8.6474   -0.3179   20.2425 H   0  0  0  0  0  0  0  0  0  0  0  0
    9.4184   -1.3501   19.1970 H   0  0  0  0  0  0  0  0  0  0  0  0
  1  9  1  0  0  0  0
  1 10  1  0  0  0  0
  1 12  2  0  0  0  0
  2  3  1  0  0  0  0
  2  4  1  0  0  0  0
  3  5  1  0  0  0  0
  4  6  1  0  0  0  0
  5 10  1  0  0  0  0
  6  7  1  0  0  0  0
  6 10  1  0  0  0  0
  8  9  1  0  0  0  0
  9 11  1  0  0  0  0
 11 13  1  0  0  0  0
 11 14  1  0  0  0  0
 11 15  1  0  0  0  0
M  CHG  1  11   1
M  END
> <ref_mols>
x0657_0

> <original SMILES>
CC(N)C(=O)N1CCCCC1C

> <Chemgauss4>
-7.094710

> <ref_pdb>
x0678_0

$$$$
x0586
  -OEChem-05172015543D

 13 13  0     0  0  0  0  0  0999 V2000
    8.9218   -0.0744   20.8529 C   0  0  0  0  0  0  0  0  0  0  0  0
   12.9615   -0.4552   23.7814 C   0  0  0  0  0  0  0  0  0  0  0  0
   12.2218    0.7074   23.1283 C   0  0  0  0  0  0  0  0  0  0  0  0
   12.2181   -1.7724   23.5870 C   0  0  0  0  0  0  0  0  0  0  0  0
   11.9185    0.4312   21.6625 C   0  0  0  0  0  0  0  0  0  0  0  0
   11.9147   -2.0378   22.1192 C   0  0  0  0  0  0  0  0  0  0  0  0
    6.0445    1.1481   20.5305 C   0  0  0  0  0  0  0  0  0  0  0  0
    9.7267   -0.7994   21.8938 C   0  0  0  0  0  0  0  0  0  0  0  0
    6.7693   -0.0077   19.8745 C   0  0  0  0  0  0  0  0  0  0  0  0
   11.1777   -0.8742   21.5014 N   0  3  0  0  0  0  0  0  0  0  0  0
    9.3374    0.8354   20.1485 O   0  0  0  0  0  0  0  0  0  0  0  0
    7.6611   -0.5987   20.8253 O   0  0  0  0  0  0  0  0  0  0  0  0
   11.1701   -1.0673   20.4573 H   0  0  0  0  0  0  0  0  0  0  0  0
  1  8  1  0  0  0  0
  1 11  2  0  0  0  0
  1 12  1  0  0  0  0
  2  3  1  0  0  0  0
  2  4  1  0  0  0  0
  3  5  1  0  0  0  0
  4  6  1  0  0  0  0
  5 10  1  0  0  0  0
  6 10  1  0  0  0  0
  7  9  1  0  0  0  0
  8 10  1  0  0  0  0
  9 12  1  0  0  0  0
 10 13  1  0  0  0  0
M  CHG  1  10   1
M  END
> <ref_mols>
x0586_0

> <original SMILES>
CCOC(=O)CN1CCCCC1

> <Chemgauss4>
-7.093095

> <ref_pdb>
x0678_0

$$$$
x0109
  -OEChem-05172015543D

 12 12  0     0  0  0  0  0  0999 V2000
    7.8694    0.4093   18.9755 C   0  0  0  0  0  0  0  0  0  0  0  0
    5.7741    0.8450   19.4802 C   0  0  0  0  0  0  0  0  0  0  0  0
    7.0007    0.6323   20.0606 C   0  0  0  0  0  0  0  0  0  0  0  0
    8.7582   -1.3334   22.0497 C   0  0  0  0  0  0  0  0  0  0  0  0
    8.7262   -2.7083   22.6301 C   0  0  0  0  0  0  0  0  0  0  0  0
    7.3369    0.6378   21.5238 C   0  0  0  0  0  0  0  0  0  0  0  0
    7.2475    0.4742   17.7952 N   0  0  0  0  0  0  0  0  0  0  0  0
    5.9749    0.7402   18.1353 N   0  0  0  0  0  0  0  0  0  0  0  0
    7.5310   -0.6985   22.0392 N   0  0  0  0  0  0  0  0  0  0  0  0
    9.8183   -0.8750   21.6402 O   0  0  0  0  0  0  0  0  0  0  0  0
    5.2912    0.8374   17.3950 H   0  0  0  0  0  0  0  0  0  0  0  0
    6.7268   -1.1945   22.4116 H   0  0  0  0  0  0  0  0  0  0  0  0
  1  3  1  0  0  0  0
  1  7  2  0  0  0  0
  2  3  2  0  0  0  0
  2  8  1  0  0  0  0
  3  6  1  0  0  0  0
  4  5  1  0  0  0  0
  4  9  1  0  0  0  0
  4 10  2  0  0  0  0
  6  9  1  0  0  0  0
  7  8  1  0  0  0  0
  8 11  1  0  0  0  0
  9 12  1  0  0  0  0
M  END
> <ref_mols>
x0109_0

> <original SMILES>
CC(=O)NCC=1C=NNC1

> <Chemgauss4>
-7.093080

> <ref_pdb>
x0678_0

$$$$
x1284
  -OEChem-05172015543D

 12 12  0     0  0  0  0  0  0999 V2000
    7.8694    0.4093   18.9755 C   0  0  0  0  0  0  0  0  0  0  0  0
    5.7741    0.8450   19.4802 C   0  0  0  0  0  0  0  0  0  0  0  0
    7.0007    0.6323   20.0606 C   0  0  0  0  0  0  0  0  0  0  0  0
    8.7582   -1.3334   22.0497 C   0  0  0  0  0  0  0  0  0  0  0  0
    8.7262   -2.7083   22.6301 C   0  0  0  0  0  0  0  0  0  0  0  0
    7.3369    0.6378   21.5238 C   0  0  0  0  0  0  0  0  0  0  0  0
    7.2475    0.4742   17.7952 N   0  0  0  0  0  0  0  0  0  0  0  0
    5.9749    0.7402   18.1353 N   0  0  0  0  0  0  0  0  0  0  0  0
    7.5310   -0.6985   22.0392 N   0  0  0  0  0  0  0  0  0  0  0  0
    9.8183   -0.8750   21.6402 O   0  0  0  0  0  0  0  0  0  0  0  0
    5.2912    0.8374   17.3950 H   0  0  0  0  0  0  0  0  0  0  0  0
    6.7268   -1.1945   22.4116 H   0  0  0  0  0  0  0  0  0  0  0  0
  1  3  1  0  0  0  0
  1  7  2  0  0  0  0
  2  3  2  0  0  0  0
  2  8  1  0  0  0  0
  3  6  1  0  0  0  0
  4  5  1  0  0  0  0
  4  9  1  0  0  0  0
  4 10  2  0  0  0  0
  6  9  1  0  0  0  0
  7  8  1  0  0  0  0
  8 11  1  0  0  0  0
  9 12  1  0  0  0  0
M  END
> <ref_mols>
x1284_0

> <original SMILES>
CC(=O)NCC=1C=NNC1

> <Chemgauss4>
-7.093080

> <ref_pdb>
x0678_0

$$$$
x0947
  -OEChem-05172015543D

 12 13  0     0  0  0  0  0  0999 V2000
   10.5001   -4.3458   25.0474 C   0  0  0  0  0  0  0  0  0  0  0  0
   11.5172   -3.4110   25.2657 C   0  0  0  0  0  0  0  0  0  0  0  0
   10.7045   -2.0114   23.4431 C   0  0  0  0  0  0  0  0  0  0  0  0
    9.6002   -4.0975   24.0292 C   0  0  0  0  0  0  0  0  0  0  0  0
    9.7110   -2.9493   23.2492 C   0  0  0  0  0  0  0  0  0  0  0  0
   11.6184   -2.2541   24.4702 C   0  0  0  0  0  0  0  0  0  0  0  0
    7.8757   -4.0580   22.4154 C   0  0  0  0  0  0  0  0  0  0  0  0
    8.4268   -4.9028   23.5697 C   0  0  0  0  0  0  0  0  0  0  0  0
    8.6949   -2.9294   22.3004 N   0  0  0  0  0  0  0  0  0  0  0  0
    6.9003   -4.3399   21.7364 O   0  0  0  0  0  0  0  0  0  0  0  0
   13.0094   -1.0149   24.7981 Br  0  0  0  0  0  0  0  0  0  0  0  0
    8.5743   -2.1882   21.6204 H   0  0  0  0  0  0  0  0  0  0  0  0
  1  2  1  0  0  0  0
  1  4  2  0  0  0  0
  2  6  2  0  0  0  0
  3  5  2  0  0  0  0
  3  6  1  0  0  0  0
  4  5  1  0  0  0  0
  4  8  1  0  0  0  0
  5  9  1  0  0  0  0
  6 11  1  0  0  0  0
  7  8  1  0  0  0  0
  7  9  1  0  0  0  0
  7 10  2  0  0  0  0
  9 12  1  0  0  0  0
M  END
> <ref_mols>
x0947_0

> <original SMILES>
O=C1CC2=C(C=C(Br)C=C2)N1

> <Chemgauss4>
-7.089022

> <ref_pdb>
x0749_0

$$$$
x0235
  -OEChem-05172015543D

 15 15  0     0  0  0  0  0  0999 V2000
   14.0973   -0.6297   23.5317 C   0  0  0  0  0  0  0  0  0  0  0  0
   13.5186    0.6103   23.8020 C   0  0  0  0  0  0  0  0  0  0  0  0
   13.3201   -1.6627   23.0076 C   0  0  0  0  0  0  0  0  0  0  0  0
   12.1628    0.8174   23.5483 C   0  0  0  0  0  0  0  0  0  0  0  0
   11.3855   -0.2156   23.0243 C   0  0  0  0  0  0  0  0  0  0  0  0
   11.9642   -1.4556   22.7539 C   0  0  0  0  0  0  0  0  0  0  0  0
   11.5788    2.1196   23.8382 C   0  0  0  0  0  0  0  0  0  0  0  0
    8.1925   -1.4087   23.3627 C   0  0  0  0  0  0  0  0  0  0  0  0
   12.0598    4.5779   23.7863 C   0  0  0  0  0  0  0  0  0  0  0  0
   12.6814    3.1796   21.8480 C   0  0  0  0  0  0  0  0  0  0  0  0
    9.1499   -0.3319   23.8269 C   0  0  0  0  0  0  0  0  0  0  0  0
   12.0885    3.2536   23.1816 N   0  0  0  0  0  0  0  0  0  0  0  0
   10.6449    2.1462   24.6493 O   0  0  0  0  0  0  0  0  0  0  0  0
   10.0592   -0.0319   22.7703 O   0  0  0  0  0  0  0  0  0  0  0  0
   11.2235   -2.4525   22.2501 F   0  0  0  0  0  0  0  0  0  0  0  0
  1  2  2  0  0  0  0
  1  3  1  0  0  0  0
  2  4  1  0  0  0  0
  3  6  2  0  0  0  0
  4  5  2  0  0  0  0
  4  7  1  0  0  0  0
  5  6  1  0  0  0  0
  5 14  1  0  0  0  0
  6 15  1  0  0  0  0
  7 12  1  0  0  0  0
  7 13  2  0  0  0  0
  8 11  1  0  0  0  0
  9 12  1  0  0  0  0
 10 12  1  0  0  0  0
 11 14  1  0  0  0  0
M  END
> <ref_mols>
x0235_0

> <original SMILES>
CCOC=1C(F)=CC=CC1C(=O)N(C)C

> <Chemgauss4>
-7.088834

> <ref_pdb>
x0195_0

$$$$
x0107
  -OEChem-05172015543D

 12 12  0     0  0  0  0  0  0999 V2000
    4.8165    0.8781   19.2824 C   0  0  0  0  0  0  0  0  0  0  0  0
    5.6256    0.7351   18.1668 C   0  0  0  0  0  0  0  0  0  0  0  0
    7.1744   -0.4939   19.3369 C   0  0  0  0  0  0  0  0  0  0  0  0
    5.2376    0.2926   20.4712 C   0  0  0  0  0  0  0  0  0  0  0  0
    6.4380   -0.4082   20.5074 C   0  0  0  0  0  0  0  0  0  0  0  0
    8.0826   -1.7460   21.8602 C   0  0  0  0  0  0  0  0  0  0  0  0
    4.3851    0.4316   21.6896 C   0  0  0  0  0  0  0  0  0  0  0  0
    8.2204   -2.2356   23.2800 C   0  0  0  0  0  0  0  0  0  0  0  0
    6.7979    0.0617   18.1634 N   0  0  0  0  0  0  0  0  0  0  0  0
    6.9023   -1.0130   21.6752 N   0  0  0  0  0  0  0  0  0  0  0  0
    8.9438   -1.9960   21.0232 O   0  0  0  0  0  0  0  0  0  0  0  0
    6.3102   -0.9119   22.5080 H   0  0  0  0  0  0  0  0  0  0  0  0
  1  2  2  0  0  0  0
  1  4  1  0  0  0  0
  2  9  1  0  0  0  0
  3  5  1  0  0  0  0
  3  9  2  0  0  0  0
  4  5  2  0  0  0  0
  4  7  1  0  0  0  0
  5 10  1  0  0  0  0
  6  8  1  0  0  0  0
  6 10  1  0  0  0  0
  6 11  2  0  0  0  0
 10 12  1  0  0  0  0
M  END
> <ref_mols>
x0107_0

> <original SMILES>
CC(=O)NC=1C=NC=CC1C

> <Chemgauss4>
-7.086791

> <ref_pdb>
x0426_0

$$$$
x0074
  -OEChem-05172015543D

 11 11  0     0  0  0  0  0  0999 V2000
    5.7439    1.1901   18.2088 C   0  0  0  0  0  0  0  0  0  0  0  0
    5.9265   -0.0828   19.9924 C   0  0  0  0  0  0  0  0  0  0  0  0
    5.2411    1.0056   19.5107 C   0  0  0  0  0  0  0  0  0  0  0  0
    7.4410   -2.4965   20.2066 C   0  0  0  0  0  0  0  0  0  0  0  0
    4.2142    1.8003   20.2030 C   0  0  0  0  0  0  0  0  0  0  0  0
    7.6924   -1.5747   19.0257 C   0  0  0  0  0  0  0  0  0  0  0  0
    3.1687    2.4217   19.2616 C   0  0  0  0  0  0  0  0  0  0  0  0
    6.6769    0.2912   17.8842 N   0  0  0  0  0  0  0  0  0  0  0  0
    6.7658   -0.4687   18.9891 N   0  0  0  0  0  0  0  0  0  0  0  0
    3.8219    3.2627   18.3192 O   0  0  0  0  0  0  0  0  0  0  0  0
    3.1298    3.6325   17.7478 H   0  0  0  0  0  0  0  0  0  0  0  0
  1  3  1  0  0  0  0
  1  8  2  0  0  0  0
  2  3  2  0  0  0  0
  2  9  1  0  0  0  0
  3  5  1  0  0  0  0
  4  6  1  0  0  0  0
  5  7  1  0  0  0  0
  6  9  1  0  0  0  0
  7 10  1  0  0  0  0
  8  9  1  0  0  0  0
 10 11  1  0  0  0  0
M  END
> <ref_mols>
x0074_0

> <original SMILES>
CCN1C=C(CCO)C=N1

> <Chemgauss4>
-7.085464

> <ref_pdb>
x0397_0

$$$$
x0413
  -OEChem-05172015543D

 14 15  0     0  0  0  0  0  0999 V2000
   12.1126   -2.6382   25.3726 C   0  0  0  0  0  0  0  0  0  0  0  0
   11.3449   -3.8196   25.5076 C   0  0  0  0  0  0  0  0  0  0  0  0
   11.4621   -1.8644   24.4398 C   0  0  0  0  0  0  0  0  0  0  0  0
   10.2799   -3.6834   24.6478 C   0  0  0  0  0  0  0  0  0  0  0  0
    8.5228   -3.8479   22.0581 C   0  0  0  0  0  0  0  0  0  0  0  0
    8.4497   -6.2182   22.6476 C   0  0  0  0  0  0  0  0  0  0  0  0
    7.0282   -3.5965   22.2304 C   0  0  0  0  0  0  0  0  0  0  0  0
    6.9455   -6.2725   22.8957 C   0  0  0  0  0  0  0  0  0  0  0  0
    9.1118   -4.5650   24.3125 C   0  0  0  0  0  0  0  0  0  0  0  0
    9.0814   -4.9163   22.8963 N   0  0  0  0  0  0  0  0  0  0  0  0
    4.7615   -4.8831   22.4934 O   0  0  0  0  0  0  0  0  0  0  0  0
    6.2371   -5.4198   20.5183 O   0  0  0  0  0  0  0  0  0  0  0  0
   10.3439   -2.4943   23.9932 O   0  0  0  0  0  0  0  0  0  0  0  0
    6.0783   -5.0674   21.9158 S   0  0  0  0  0  0  0  0  0  0  0  0
  1  2  1  0  0  0  0
  1  3  2  0  0  0  0
  2  4  2  0  0  0  0
  3 13  1  0  0  0  0
  4  9  1  0  0  0  0
  4 13  1  0  0  0  0
  5  7  1  0  0  0  0
  5 10  1  0  0  0  0
  6  8  1  0  0  0  0
  6 10  1  0  0  0  0
  7 14  1  0  0  0  0
  8 14  1  0  0  0  0
  9 10  1  0  0  0  0
 11 14  2  0  0  0  0
 12 14  2  0  0  0  0
M  END
> <ref_mols>
x0413_0

> <original SMILES>
O=S1(=O)CCN(CC2=CC=CO2)CC1

> <Chemgauss4>
-7.083726

> <ref_pdb>
x0749_0

$$$$
x0282
  -OEChem-05172015543D

 16 17  0     0  0  0  0  0  0999 V2000
    9.5372   -2.4924   21.9542 C   0  0  0  0  0  0  0  0  0  0  0  0
    8.7973   -2.5531   23.0691 C   0  0  0  0  0  0  0  0  0  0  0  0
    8.1227   -1.2976   23.5237 C   0  0  0  0  0  0  0  0  0  0  0  0
    9.1159   -0.1401   21.5627 C   0  0  0  0  0  0  0  0  0  0  0  0
    8.9999   -3.7130   25.2278 C   0  0  0  0  0  0  0  0  0  0  0  0
    8.0951   -4.9016   23.2629 C   0  0  0  0  0  0  0  0  0  0  0  0
    7.8932   -4.3501   26.0567 C   0  0  0  0  0  0  0  0  0  0  0  0
    7.0279   -5.4893   24.1762 C   0  0  0  0  0  0  0  0  0  0  0  0
    9.7003   -1.3487   21.2225 N   0  0  0  0  0  0  0  0  0  0  0  0
    8.3410   -0.1839   22.7226 N   0  0  0  0  0  0  0  0  0  0  0  0
    8.6056   -3.6597   23.8268 N   0  0  0  0  0  0  0  0  0  0  0  0
    7.4288   -1.2732   24.5377 O   0  0  0  0  0  0  0  0  0  0  0  0
    9.2659    0.8871   20.9006 O   0  0  0  0  0  0  0  0  0  0  0  0
    7.5341   -5.6235   25.5090 O   0  0  0  0  0  0  0  0  0  0  0  0
   10.2788   -1.3875   20.3885 H   0  0  0  0  0  0  0  0  0  0  0  0
    7.8934    0.6823   23.0088 H   0  0  0  0  0  0  0  0  0  0  0  0
  1  2  2  0  0  0  0
  1  9  1  0  0  0  0
  2  3  1  0  0  0  0
  2 11  1  0  0  0  0
  3 10  1  0  0  0  0
  3 12  2  0  0  0  0
  4  9  1  0  0  0  0
  4 10  1  0  0  0  0
  4 13  2  0  0  0  0
  5  7  1  0  0  0  0
  5 11  1  0  0  0  0
  6  8  1  0  0  0  0
  6 11  1  0  0  0  0
  7 14  1  0  0  0  0
  8 14  1  0  0  0  0
  9 15  1  0  0  0  0
 10 16  1  0  0  0  0
M  END
> <ref_mols>
x0282_0

> <original SMILES>
O=C1NC=C(N2CCOCC2)C(=O)N1

> <Chemgauss4>
-7.080578

> <ref_pdb>
x1077_0

$$$$
x0962
  -OEChem-05172015543D

 12 12  0     0  0  0  0  0  0999 V2000
   12.2456    0.7939   23.2883 C   0  0  0  0  0  0  0  0  0  0  0  0
   13.3022    0.1191   23.8996 C   0  0  0  0  0  0  0  0  0  0  0  0
   12.6887   -1.9028   22.7279 C   0  0  0  0  0  0  0  0  0  0  0  0
   11.4104    0.1204   22.3968 C   0  0  0  0  0  0  0  0  0  0  0  0
   11.6321   -1.2279   22.1166 C   0  0  0  0  0  0  0  0  0  0  0  0
   13.5238   -1.2293   23.6194 C   0  0  0  0  0  0  0  0  0  0  0  0
   10.2985    0.8487   21.7602 C   0  0  0  0  0  0  0  0  0  0  0  0
   10.5112    1.4435   20.6389 O   0  5  0  0  0  0  0  0  0  0  0  0
    9.1537    0.8649   22.3479 O   0  0  0  0  0  0  0  0  0  0  0  0
   10.8264   -1.9031   21.2493 O   0  0  0  0  0  0  0  0  0  0  0  0
   14.9556   -2.1437   24.4480 Br  0  0  0  0  0  0  0  0  0  0  0  0
   10.1391   -1.3131   20.9026 H   0  0  0  0  0  0  0  0  0  0  0  0
  1  2  2  0  0  0  0
  1  4  1  0  0  0  0
  2  6  1  0  0  0  0
  3  5  1  0  0  0  0
  3  6  2  0  0  0  0
  4  5  2  0  0  0  0
  4  7  1  0  0  0  0
  5 10  1  0  0  0  0
  6 11  1  0  0  0  0
  7  8  1  0  0  0  0
  7  9  2  0  0  0  0
 10 12  1  0  0  0  0
M  CHG  1   8  -1
M  END
> <ref_mols>
x0962_0

> <original SMILES>
BrC1=CC(O)=C(C(O)=O)C=C1

> <Chemgauss4>
-7.078025

> <ref_pdb>
x0678_0

$$$$
x0086
  -OEChem-05172015543D

 14 14  0     0  0  0  0  0  0999 V2000
    5.4584    0.1448   19.9352 C   0  0  0  0  0  0  0  0  0  0  0  0
    5.9315    1.3742   18.1685 C   0  0  0  0  0  0  0  0  0  0  0  0
    6.1954   -0.5613   19.0139 C   0  0  0  0  0  0  0  0  0  0  0  0
    5.2280    2.9878   21.2769 C   0  0  0  0  0  0  0  0  0  0  0  0
    3.0901    2.2121   20.1661 C   0  0  0  0  0  0  0  0  0  0  0  0
    4.5773    2.5160   19.9751 C   0  0  0  0  0  0  0  0  0  0  0  0
    6.4870    0.2097   17.9166 N   0  0  0  0  0  0  0  0  0  0  0  0
    5.2977    1.3829   19.3799 N   0  0  0  0  0  0  0  0  0  0  0  0
    6.0797   -2.6405   20.6778 N   0  0  0  0  0  0  0  0  0  0  0  0
    6.0513   -3.0034   18.1257 O   0  0  0  0  0  0  0  0  0  0  0  0
    8.1776   -2.2361   19.2383 O   0  0  0  0  0  0  0  0  0  0  0  0
    6.7114   -2.1802   19.1490 S   0  0  0  0  0  0  0  0  0  0  0  0
    5.2809   -3.2860   20.7021 H   0  0  0  0  0  0  0  0  0  0  0  0
    6.7337   -2.7597   21.4610 H   0  0  0  0  0  0  0  0  0  0  0  0
  1  3  2  0  0  0  0
  1  8  1  0  0  0  0
  2  7  2  0  0  0  0
  2  8  1  0  0  0  0
  3  7  1  0  0  0  0
  3 12  1  0  0  0  0
  4  6  1  0  0  0  0
  5  6  1  0  0  0  0
  6  8  1  0  0  0  0
  9 12  1  0  0  0  0
 10 12  2  0  0  0  0
 11 12  2  0  0  0  0
  9 13  1  0  0  0  0
  9 14  1  0  0  0  0
M  END
> <ref_mols>
x0086_0

> <original SMILES>
CC(C)N1C=NC(=C1)S(=O)(=O)N

> <Chemgauss4>
-7.077703

> <ref_pdb>
x0397_0

$$$$
x0428
  -OEChem-05172015543D

 15 16  0     1  0  0  0  0  0999 V2000
    7.7119    0.2105   18.7997 C   0  0  0  0  0  0  0  0  0  0  0  0
    7.2485   -0.0545   20.0729 C   0  0  0  0  0  0  0  0  0  0  0  0
    8.8407    1.0079   21.7040 C   0  0  0  0  0  0  0  0  0  0  0  0
   10.6220    1.0335   24.8709 C   0  0  0  0  0  0  0  0  0  0  0  0
   10.1565   -0.3635   24.5252 C   0  0  0  0  0  0  0  0  0  0  0  0
    8.9813    1.1347   23.1848 C   0  0  2  0  0  0  0  0  0  0  0  0
   10.2925    1.7883   23.6002 C   0  0  1  0  0  0  0  0  0  0  0  0
   10.1864    3.2915   23.7936 C   0  0  0  0  0  0  0  0  0  0  0  0
    6.9462   -0.3059   17.7663 N   0  0  0  0  0  0  0  0  0  0  0  0
    5.8955   -0.9677   18.2243 N   0  0  0  0  0  0  0  0  0  0  0  0
    7.7099    0.2737   21.3698 N   0  0  0  0  0  0  0  0  0  0  0  0
    9.6610    1.5197   20.9491 O   0  0  0  0  0  0  0  0  0  0  0  0
    9.0020   -0.2081   23.6888 O   0  0  0  0  0  0  0  0  0  0  0  0
    5.8132   -0.9785   19.8975 S   0  0  0  0  0  0  0  0  0  0  0  0
    7.1378   -0.0737   22.1368 H   0  0  0  0  0  0  0  0  0  0  0  0
  1  2  2  0  0  0  0
  1  9  1  0  0  0  0
  2 11  1  0  0  0  0
  2 14  1  0  0  0  0
  3  6  1  0  0  0  0
  3 11  1  0  0  0  0
  3 12  2  0  0  0  0
  4  5  1  0  0  0  0
  4  7  1  0  0  0  0
  5 13  1  0  0  0  0
  6  7  1  0  0  0  0
  6 13  1  0  0  0  0
  7  8  1  0  0  0  0
  9 10  2  0  0  0  0
 10 14  1  0  0  0  0
 11 15  1  0  0  0  0
M  END
> <ref_mols>
x0428_0

> <original SMILES>
CC1CCOC1C(=O)NC2=CN=NS2

> <Chemgauss4>
-7.075608

> <ref_pdb>
x0107_0

$$$$
x0598
  -OEChem-05172015543D

 15 15  0     0  0  0  0  0  0999 V2000
   11.6652    0.8451   21.7818 C   0  0  0  0  0  0  0  0  0  0  0  0
   13.6315   -2.0003   23.1612 C   0  0  0  0  0  0  0  0  0  0  0  0
   14.0136   -1.2199   21.9083 C   0  0  0  0  0  0  0  0  0  0  0  0
   12.3698   -1.4395   23.8080 C   0  0  0  0  0  0  0  0  0  0  0  0
   12.8613   -1.1628   20.9049 C   0  0  0  0  0  0  0  0  0  0  0  0
   11.2046   -1.3820   22.8199 C   0  0  0  0  0  0  0  0  0  0  0  0
   11.5603   -0.6355   21.5271 C   0  0  0  0  0  0  0  0  0  0  0  0
    8.1961   -0.0256   19.3982 C   0  0  0  0  0  0  0  0  0  0  0  0
   10.4753   -0.7987   20.5776 N   0  0  0  0  0  0  0  0  0  0  0  0
   12.1168    1.1663   22.9159 O   0  5  0  0  0  0  0  0  0  0  0  0
   11.2861    1.5755   20.8238 O   0  0  0  0  0  0  0  0  0  0  0  0
    8.9992    1.0327   21.6533 O   0  0  0  0  0  0  0  0  0  0  0  0
    8.2153   -1.3634   21.6377 O   0  0  0  0  0  0  0  0  0  0  0  0
    8.9169   -0.2622   21.0065 S   0  0  0  0  0  0  0  0  0  0  0  0
   10.5430   -1.6581   20.0233 H   0  0  0  0  0  0  0  0  0  0  0  0
  1  7  1  0  0  0  0
  1 10  1  0  0  0  0
  1 11  2  0  0  0  0
  2  3  1  0  0  0  0
  2  4  1  0  0  0  0
  3  5  1  0  0  0  0
  4  6  1  0  0  0  0
  5  7  1  0  0  0  0
  6  7  1  0  0  0  0
  7  9  1  0  0  0  0
  8 14  1  0  0  0  0
  9 14  1  0  0  0  0
 12 14  2  0  0  0  0
 13 14  2  0  0  0  0
  9 15  1  0  0  0  0
M  CHG  1  10  -1
M  END
> <ref_mols>
x0598_0

> <original SMILES>
CS(=O)(=O)NC1(CCCCC1)C(=O)O

> <Chemgauss4>
-7.075496

> <ref_pdb>
x0678_0

$$$$
x0130
  -OEChem-05172015543D

 13 13  0     0  0  0  0  0  0999 V2000
   11.8120    0.7063   23.0173 C   0  0  0  0  0  0  0  0  0  0  0  0
   13.1381    0.5008   23.0190 C   0  0  0  0  0  0  0  0  0  0  0  0
   11.6601    2.1888   22.9498 C   0  0  0  0  0  0  0  0  0  0  0  0
   13.9052    4.3833   21.4717 C   0  0  0  0  0  0  0  0  0  0  0  0
   13.3909    4.0739   22.8363 C   0  0  0  0  0  0  0  0  0  0  0  0
   13.8434   -0.8001   23.1351 C   0  0  0  0  0  0  0  0  0  0  0  0
   13.8275    1.6801   22.9300 N   0  0  0  0  0  0  0  0  0  0  0  0
   12.9392    2.7133   22.9237 N   0  0  0  0  0  0  0  0  0  0  0  0
   10.5864    2.7660   22.9288 O   0  0  0  0  0  0  0  0  0  0  0  0
   12.9710   -1.8287   23.2467 F   0  0  0  0  0  0  0  0  0  0  0  0
   14.6176   -1.0447   22.0522 F   0  0  0  0  0  0  0  0  0  0  0  0
   14.6494   -0.8365   24.2219 F   0  0  0  0  0  0  0  0  0  0  0  0
   14.7857    1.7852   23.2334 H   0  0  0  0  0  0  0  0  0  0  0  0
  1  2  2  0  0  0  0
  1  3  1  0  0  0  0
  2  6  1  0  0  0  0
  2  7  1  0  0  0  0
  3  8  1  0  0  0  0
  3  9  2  0  0  0  0
  4  5  1  0  0  0  0
  5  8  1  0  0  0  0
  6 10  1  0  0  0  0
  6 11  1  0  0  0  0
  6 12  1  0  0  0  0
  7  8  1  0  0  0  0
  7 13  1  0  0  0  0
M  END
> <ref_mols>
x0130_0

> <original SMILES>
CCN1N=C(CC1=O)C(F)(F)F

> <Chemgauss4>
-7.071774

> <ref_pdb>
x0195_0

$$$$
x0106
  -OEChem-05172015543D

 15 15  0     0  0  0  0  0  0999 V2000
   12.0704   -1.8317   23.1852 C   0  0  0  0  0  0  0  0  0  0  0  0
   13.3065   -1.5593   22.5993 C   0  0  0  0  0  0  0  0  0  0  0  0
   11.6817    0.5362   23.4663 C   0  0  0  0  0  0  0  0  0  0  0  0
   11.2579   -0.7840   23.6186 C   0  0  0  0  0  0  0  0  0  0  0  0
   12.9179    0.8086   22.8805 C   0  0  0  0  0  0  0  0  0  0  0  0
   13.7303   -0.2391   22.4470 C   0  0  0  0  0  0  0  0  0  0  0  0
    9.9533   -1.0719   24.2365 C   0  0  0  0  0  0  0  0  0  0  0  0
   12.6662    3.3011   23.1003 C   0  0  0  0  0  0  0  0  0  0  0  0
   13.4643    4.5358   22.7639 C   0  0  0  0  0  0  0  0  0  0  0  0
   13.3398    2.1298   22.7290 N   0  0  0  0  0  0  0  0  0  0  0  0
    9.2224   -0.0866   24.6285 O   0  5  0  0  0  0  0  0  0  0  0  0
    9.5859   -2.2994   24.3651 O   0  0  0  0  0  0  0  0  0  0  0  0
   11.5671    3.3909   23.6378 O   0  0  0  0  0  0  0  0  0  0  0  0
   14.9208    0.0105   21.8834 F   0  0  0  0  0  0  0  0  0  0  0  0
   14.2585    2.2677   22.2921 H   0  0  0  0  0  0  0  0  0  0  0  0
  1  2  2  0  0  0  0
  1  4  1  0  0  0  0
  2  6  1  0  0  0  0
  3  4  2  0  0  0  0
  3  5  1  0  0  0  0
  4  7  1  0  0  0  0
  5  6  2  0  0  0  0
  5 10  1  0  0  0  0
  6 14  1  0  0  0  0
  7 11  1  0  0  0  0
  7 12  2  0  0  0  0
  8  9  1  0  0  0  0
  8 10  1  0  0  0  0
  8 13  2  0  0  0  0
 10 15  1  0  0  0  0
M  CHG  1  11  -1
M  END
> <ref_mols>
x0106_0

> <original SMILES>
CC(=O)NC=1C=C(C=CC1F)C(=O)O

> <Chemgauss4>
-7.067080

> <ref_pdb>
x0195_0

$$$$
x0330
  -OEChem-05172015543D

 15 15  0     0  0  0  0  0  0999 V2000
   12.0579    2.4272   23.1510 C   0  0  0  0  0  0  0  0  0  0  0  0
   14.1673    1.5881   22.3247 C   0  0  0  0  0  0  0  0  0  0  0  0
   13.3032    2.6561   22.5660 C   0  0  0  0  0  0  0  0  0  0  0  0
   11.6766    1.1302   23.4949 C   0  0  0  0  0  0  0  0  0  0  0  0
   13.7861    0.2911   22.6684 C   0  0  0  0  0  0  0  0  0  0  0  0
   12.5407    0.0622   23.2535 C   0  0  0  0  0  0  0  0  0  0  0  0
   13.7076    4.0244   22.2050 C   0  0  0  0  0  0  0  0  0  0  0  0
    9.6355    2.0656   24.2788 C   0  0  0  0  0  0  0  0  0  0  0  0
   14.5335   -1.3911   21.1627 C   0  0  0  0  0  0  0  0  0  0  0  0
   10.9918   -1.7195   22.9668 C   0  0  0  0  0  0  0  0  0  0  0  0
   14.8631    4.2076   21.6665 O   0  5  0  0  0  0  0  0  0  0  0  0
   12.8930    4.9939   22.4399 O   0  0  0  0  0  0  0  0  0  0  0  0
   10.4580    0.9200   24.0664 O   0  0  0  0  0  0  0  0  0  0  0  0
   14.6400   -0.7431   22.4287 O   0  0  0  0  0  0  0  0  0  0  0  0
   12.1672   -1.2055   23.5888 O   0  0  0  0  0  0  0  0  0  0  0  0
  1  3  2  0  0  0  0
  1  4  1  0  0  0  0
  2  3  1  0  0  0  0
  2  5  2  0  0  0  0
  3  7  1  0  0  0  0
  4  6  2  0  0  0  0
  4 13  1  0  0  0  0
  5  6  1  0  0  0  0
  5 14  1  0  0  0  0
  6 15  1  0  0  0  0
  7 11  1  0  0  0  0
  7 12  2  0  0  0  0
  8 13  1  0  0  0  0
  9 14  1  0  0  0  0
 10 15  1  0  0  0  0
M  CHG  1  11  -1
M  END
> <ref_mols>
x0330_0

> <original SMILES>
COC=1C=C(C=C(OC)C1OC)C(=O)O

> <Chemgauss4>
-7.065681

> <ref_pdb>
x0195_0

$$$$
x1120
  -OEChem-05172015543D

 16 17  0     0  0  0  0  0  0999 V2000
    7.1966    0.2386   18.6506 C   0  0  0  0  0  0  0  0  0  0  0  0
    9.0908   -0.2691   19.9625 C   0  0  0  0  0  0  0  0  0  0  0  0
   11.3173   -0.8224   21.0061 C   0  0  0  0  0  0  0  0  0  0  0  0
   11.2285   -0.9952   23.5681 C   0  0  0  0  0  0  0  0  0  0  0  0
   13.2899   -1.5442   22.3294 C   0  0  0  0  0  0  0  0  0  0  0  0
   12.1133   -0.3178   24.6095 C   0  0  0  0  0  0  0  0  0  0  0  0
   14.0731   -0.8186   23.4120 C   0  0  0  0  0  0  0  0  0  0  0  0
    5.8522    0.5694   18.1376 C   0  0  0  0  0  0  0  0  0  0  0  0
    8.2666    0.0472   17.9088 N   0  0  0  0  0  0  0  0  0  0  0  0
    9.3774   -0.2516   18.6782 N   0  0  0  0  0  0  0  0  0  0  0  0
   11.9087   -1.0601   22.2660 N   0  0  0  0  0  0  0  0  0  0  0  0
    9.9549   -0.5270   21.0558 N   0  0  0  0  0  0  0  0  0  0  0  0
   11.9670   -0.8994   19.9602 O   0  0  0  0  0  0  0  0  0  0  0  0
   13.3980   -0.9387   24.6654 O   0  0  0  0  0  0  0  0  0  0  0  0
    7.4530    0.0741   20.3385 S   0  0  0  0  0  0  0  0  0  0  0  0
    9.4980   -0.4870   22.0181 H   0  0  0  0  0  0  0  0  0  0  0  0
  1  8  1  0  0  0  0
  1  9  2  0  0  0  0
  1 15  1  0  0  0  0
  2 10  2  0  0  0  0
  2 12  1  0  0  0  0
  2 15  1  0  0  0  0
  3 11  1  0  0  0  0
  3 12  1  0  0  0  0
  3 13  2  0  0  0  0
  4  6  1  0  0  0  0
  4 11  1  0  0  0  0
  5  7  1  0  0  0  0
  5 11  1  0  0  0  0
  6 14  1  0  0  0  0
  7 14  1  0  0  0  0
  9 10  1  0  0  0  0
 12 16  1  0  0  0  0
M  END
> <ref_mols>
x1120_0

> <original SMILES>
CC1=NN=C(NC(=O)N2CCOCC2)S1

> <Chemgauss4>
-7.064257

> <ref_pdb>
x0678_0

$$$$
x0604
  -OEChem-05172015543D

 16 17  0     0  0  0  0  0  0999 V2000
    7.1966    0.2386   18.6506 C   0  0  0  0  0  0  0  0  0  0  0  0
    9.0908   -0.2691   19.9625 C   0  0  0  0  0  0  0  0  0  0  0  0
   11.3173   -0.8224   21.0061 C   0  0  0  0  0  0  0  0  0  0  0  0
   11.2285   -0.9952   23.5681 C   0  0  0  0  0  0  0  0  0  0  0  0
   13.2899   -1.5442   22.3294 C   0  0  0  0  0  0  0  0  0  0  0  0
   12.1133   -0.3178   24.6095 C   0  0  0  0  0  0  0  0  0  0  0  0
   14.0731   -0.8186   23.4120 C   0  0  0  0  0  0  0  0  0  0  0  0
    5.8522    0.5694   18.1376 C   0  0  0  0  0  0  0  0  0  0  0  0
    8.2666    0.0472   17.9088 N   0  0  0  0  0  0  0  0  0  0  0  0
    9.3774   -0.2516   18.6782 N   0  0  0  0  0  0  0  0  0  0  0  0
   11.9087   -1.0601   22.2660 N   0  0  0  0  0  0  0  0  0  0  0  0
    9.9549   -0.5270   21.0558 N   0  0  0  0  0  0  0  0  0  0  0  0
   11.9670   -0.8994   19.9602 O   0  0  0  0  0  0  0  0  0  0  0  0
   13.3980   -0.9387   24.6654 O   0  0  0  0  0  0  0  0  0  0  0  0
    7.4530    0.0741   20.3385 S   0  0  0  0  0  0  0  0  0  0  0  0
    9.4980   -0.4870   22.0181 H   0  0  0  0  0  0  0  0  0  0  0  0
  1  8  1  0  0  0  0
  1  9  2  0  0  0  0
  1 15  1  0  0  0  0
  2 10  2  0  0  0  0
  2 12  1  0  0  0  0
  2 15  1  0  0  0  0
  3 11  1  0  0  0  0
  3 12  1  0  0  0  0
  3 13  2  0  0  0  0
  4  6  1  0  0  0  0
  4 11  1  0  0  0  0
  5  7  1  0  0  0  0
  5 11  1  0  0  0  0
  6 14  1  0  0  0  0
  7 14  1  0  0  0  0
  9 10  1  0  0  0  0
 12 16  1  0  0  0  0
M  END
> <ref_mols>
x0604_0

> <original SMILES>
CC1=NN=C(NC(=O)N2CCOCC2)S1

> <Chemgauss4>
-7.064257

> <ref_pdb>
x0678_0

$$$$
x0902
  -OEChem-05172015543D

 15 16  0     0  0  0  0  0  0999 V2000
   13.1143   -1.3124   23.4575 C   0  0  0  0  0  0  0  0  0  0  0  0
   13.1044   -0.1313   24.1910 C   0  0  0  0  0  0  0  0  0  0  0  0
   11.9200   -1.9794   23.2081 C   0  0  0  0  0  0  0  0  0  0  0  0
   11.8837    0.3374   24.6492 C   0  0  0  0  0  0  0  0  0  0  0  0
   10.7524   -1.4282   23.7106 C   0  0  0  0  0  0  0  0  0  0  0  0
    8.1940   -1.3960   24.0826 C   0  0  0  0  0  0  0  0  0  0  0  0
    9.4282   -3.5753   24.0581 C   0  0  0  0  0  0  0  0  0  0  0  0
    6.9022   -2.2079   24.0649 C   0  0  0  0  0  0  0  0  0  0  0  0
    8.0641   -4.2595   24.0467 C   0  0  0  0  0  0  0  0  0  0  0  0
    9.4060   -2.1420   23.4534 C   0  0  0  0  0  0  0  0  0  0  0  0
    9.2171   -2.2129   21.9196 C   0  0  0  0  0  0  0  0  0  0  0  0
   10.7032   -0.2828   24.4272 N   0  0  0  0  0  0  0  0  0  0  0  0
    7.0883   -3.4633   24.7093 O   0  0  0  0  0  0  0  0  0  0  0  0
    9.1907   -0.8929   21.4131 O   0  0  0  0  0  0  0  0  0  0  0  0
    9.0715   -0.9572   20.4496 H   0  0  0  0  0  0  0  0  0  0  0  0
  1  2  1  0  0  0  0
  1  3  2  0  0  0  0
  2  4  2  0  0  0  0
  3  5  1  0  0  0  0
  4 12  1  0  0  0  0
  5 10  1  0  0  0  0
  5 12  2  0  0  0  0
  6  8  1  0  0  0  0
  6 10  1  0  0  0  0
  7  9  1  0  0  0  0
  7 10  1  0  0  0  0
  8 13  1  0  0  0  0
  9 13  1  0  0  0  0
 10 11  1  0  0  0  0
 11 14  1  0  0  0  0
 14 15  1  0  0  0  0
M  END
> <ref_mols>
x0902_0

> <original SMILES>
OCC1(C2=CC=CC=N2)CCOCC1

> <Chemgauss4>
-7.062730

> <ref_pdb>
x0072_0

$$$$
x0635
  -OEChem-05172015543D

 17 17  0     1  0  0  0  0  0999 V2000
   12.7490    1.1452   22.9550 C   0  0  0  0  0  0  0  0  0  0  0  0
   11.1017    5.6547   24.3110 C   0  0  0  0  0  0  0  0  0  0  0  0
   10.9440    4.1354   24.1793 C   0  0  0  0  0  0  0  0  0  0  0  0
   12.5306    4.0576   22.2980 C   0  0  0  0  0  0  0  0  0  0  0  0
   12.5176    6.1368   24.5773 C   0  0  0  0  0  0  0  0  0  0  0  0
   13.7066    4.9590   22.6610 C   0  0  0  0  0  0  0  0  0  0  0  0
   14.6667   -0.9091   24.0557 C   0  0  0  0  0  0  0  0  0  0  0  0
   13.8232   -1.3938   21.7320 C   0  0  0  0  0  0  0  0  0  0  0  0
   11.5554    2.0340   23.1949 C   0  0  0  0  0  0  0  0  0  0  0  0
   13.4517   -1.2340   23.1989 C   0  0  0  0  0  0  0  0  0  0  0  0
   12.0078    3.3939   23.4929 N   0  0  2  0  0  0  0  0  0  0  0  0
   12.4856   -0.1664   23.3234 N   0  0  0  0  0  0  0  0  0  0  0  0
   13.2672    6.2346   23.2886 N   0  3  0  0  0  0  0  0  0  0  0  0
   13.8105    1.5504   22.4888 O   0  0  0  0  0  0  0  0  0  0  0  0
   11.5680   -0.3871   23.6993 H   0  0  0  0  0  0  0  0  0  0  0  0
   12.6623    6.7346   22.6216 H   0  0  0  0  0  0  0  0  0  0  0  0
   14.0781    6.8566   23.4165 H   0  0  0  0  0  0  0  0  0  0  0  0
  1  9  1  0  0  0  0
  1 12  1  0  0  0  0
  1 14  2  0  0  0  0
  2  3  1  0  0  0  0
  2  5  1  0  0  0  0
  3 11  1  0  0  0  0
  4  6  1  0  0  0  0
  4 11  1  0  0  0  0
  5 13  1  0  0  0  0
  6 13  1  0  0  0  0
  7 10  1  0  0  0  0
  8 10  1  0  0  0  0
  9 11  1  0  0  0  0
 10 12  1  0  0  0  0
 12 15  1  0  0  0  0
 13 16  1  0  0  0  0
 13 17  1  0  0  0  0
M  CHG  1  13   1
M  END
> <ref_mols>
x0635_0

> <original SMILES>
CC(C)NC(=O)CN1CCCNCC1

> <Chemgauss4>
-7.051278

> <ref_pdb>
x0195_0

$$$$
x0064
  -OEChem-05172015543D

 14 14  0     0  0  0  0  0  0999 V2000
   12.8188   -1.9588   22.8775 C   0  0  0  0  0  0  0  0  0  0  0  0
   14.0096   -1.2692   22.6490 C   0  0  0  0  0  0  0  0  0  0  0  0
   11.6950   -1.2751   23.3416 C   0  0  0  0  0  0  0  0  0  0  0  0
   14.0765    0.1040   22.8846 C   0  0  0  0  0  0  0  0  0  0  0  0
   11.7620    0.0980   23.5773 C   0  0  0  0  0  0  0  0  0  0  0  0
   12.9527    0.7876   23.3488 C   0  0  0  0  0  0  0  0  0  0  0  0
   10.5651    0.8045   24.0681 C   0  0  0  0  0  0  0  0  0  0  0  0
   13.3737    2.9735   22.4786 C   0  0  0  0  0  0  0  0  0  0  0  0
    9.4871    0.1299   24.2652 O   0  5  0  0  0  0  0  0  0  0  0  0
   10.6399    2.0713   24.2821 O   0  0  0  0  0  0  0  0  0  0  0  0
   13.0384    2.1291   23.5730 O   0  0  0  0  0  0  0  0  0  0  0  0
   14.1594    2.3290   21.5900 F   0  0  0  0  0  0  0  0  0  0  0  0
   14.0623    4.0390   22.9472 F   0  0  0  0  0  0  0  0  0  0  0  0
   12.2648    3.4340   21.8617 F   0  0  0  0  0  0  0  0  0  0  0  0
  1  2  1  0  0  0  0
  1  3  2  0  0  0  0
  2  4  2  0  0  0  0
  3  5  1  0  0  0  0
  4  6  1  0  0  0  0
  5  6  2  0  0  0  0
  5  7  1  0  0  0  0
  6 11  1  0  0  0  0
  7  9  1  0  0  0  0
  7 10  2  0  0  0  0
  8 11  1  0  0  0  0
  8 12  1  0  0  0  0
  8 13  1  0  0  0  0
  8 14  1  0  0  0  0
M  CHG  1   9  -1
M  END
> <ref_mols>
x0064_0

> <original SMILES>
[O-]C(=O)C=1C=CC=CC1OC(F)(F)F

> <Chemgauss4>
-7.051117

> <ref_pdb>
x0195_0

$$$$
x0251
  -OEChem-05172015543D

 15 15  0     0  0  0  0  0  0999 V2000
   12.1618    0.7376   23.7229 C   0  0  0  0  0  0  0  0  0  0  0  0
   13.0419   -0.0053   24.5098 C   0  0  0  0  0  0  0  0  0  0  0  0
   12.7870   -0.5693   21.7895 C   0  0  0  0  0  0  0  0  0  0  0  0
   12.0343    0.4556   22.3628 C   0  0  0  0  0  0  0  0  0  0  0  0
   13.7946   -1.0302   23.9365 C   0  0  0  0  0  0  0  0  0  0  0  0
   13.6672   -1.3122   22.5763 C   0  0  0  0  0  0  0  0  0  0  0  0
   14.7358   -1.8221   24.7800 C   0  0  0  0  0  0  0  0  0  0  0  0
   11.0936    1.2500   21.5215 C   0  0  0  0  0  0  0  0  0  0  0  0
    8.7783    1.3219   20.2232 N   0  0  0  0  0  0  0  0  0  0  0  0
   10.1285   -0.8650   20.3288 O   0  0  0  0  0  0  0  0  0  0  0  0
    8.9857   -0.0101   22.4141 O   0  0  0  0  0  0  0  0  0  0  0  0
   14.3871   -2.2945   22.0165 F   0  0  0  0  0  0  0  0  0  0  0  0
    9.6930    0.2375   21.1692 S   0  0  0  0  0  0  0  0  0  0  0  0
    8.3425    2.1213   20.6993 H   0  0  0  0  0  0  0  0  0  0  0  0
    9.1208    1.5387   19.2791 H   0  0  0  0  0  0  0  0  0  0  0  0
  1  2  2  0  0  0  0
  1  4  1  0  0  0  0
  2  5  1  0  0  0  0
  3  4  2  0  0  0  0
  3  6  1  0  0  0  0
  4  8  1  0  0  0  0
  5  6  2  0  0  0  0
  5  7  1  0  0  0  0
  6 12  1  0  0  0  0
  8 13  1  0  0  0  0
  9 13  1  0  0  0  0
 10 13  2  0  0  0  0
 11 13  2  0  0  0  0
  9 14  1  0  0  0  0
  9 15  1  0  0  0  0
M  END
> <ref_mols>
x0251_0

> <original SMILES>
CC=1C=CC(CS(=O)(=O)N)=CC1F

> <Chemgauss4>
-7.047259

> <ref_pdb>
x0678_0

$$$$
x2492
  -OEChem-05172015543D

 22 22  0     1  0  0  0  0  0999 V2000
   10.2812   -1.7525   24.2274 C   0  0  0  0  0  0  0  0  0  0  0  0
   10.5561   -0.6813   23.4033 C   0  0  0  0  0  0  0  0  0  0  0  0
    9.2385    0.3327   24.8337 C   0  0  0  0  0  0  0  0  0  0  0  0
   12.4524    3.8535   23.3078 C   0  0  0  0  0  0  0  0  0  0  0  0
   13.6018    0.4180   22.7482 C   0  0  0  0  0  0  0  0  0  0  0  0
    8.4509    1.3907   25.5030 C   0  0  0  0  0  0  0  0  0  0  0  0
   11.2520    7.4153   26.0741 C   0  0  0  0  0  0  0  0  0  0  0  0
   14.0754    3.4196   21.4463 C   0  0  0  0  0  0  0  0  0  0  0  0
   13.4422   -2.0808   22.6514 C   0  0  0  0  0  0  0  0  0  0  0  0
   11.4344   -0.7142   22.1861 C   0  0  0  0  0  0  0  0  0  0  0  0
   12.1224    6.2796   25.5551 C   0  0  0  0  0  0  0  0  0  0  0  0
   12.1565    6.2121   24.0330 C   0  0  0  0  0  0  0  0  0  0  0  0
   13.5063    2.9015   22.7579 C   0  0  2  0  0  0  0  0  0  0  0  0
    9.9587    0.5151   23.7491 N   0  0  0  0  0  0  0  0  0  0  0  0
   12.9676    5.1195   23.5489 N   0  0  0  0  0  0  0  0  0  0  0  0
   12.8912    1.6044   22.5884 N   0  0  0  0  0  0  0  0  0  0  0  0
   12.8521   -0.7537   22.5359 N   0  0  0  0  0  0  0  0  0  0  0  0
   11.2784    3.5301   23.4754 O   0  0  0  0  0  0  0  0  0  0  0  0
   14.8004    0.4068   23.0444 O   0  0  0  0  0  0  0  0  0  0  0  0
    9.2349   -1.2525   25.4910 S   0  0  0  0  0  0  0  0  0  0  0  0
   13.9610    5.2875   23.4199 H   0  0  0  0  0  0  0  0  0  0  0  0
   11.9090    1.5571   22.3449 H   0  0  0  0  0  0  0  0  0  0  0  0
  1  2  2  0  0  0  0
  1 20  1  0  0  0  0
  2 10  1  0  0  0  0
  2 14  1  0  0  0  0
  3  6  1  0  0  0  0
  3 14  2  0  0  0  0
  3 20  1  0  0  0  0
  4 13  1  0  0  0  0
  4 15  1  0  0  0  0
  4 18  2  0  0  0  0
  5 16  1  0  0  0  0
  5 17  1  0  0  0  0
  5 19  2  0  0  0  0
  7 11  1  0  0  0  0
  8 13  1  0  0  0  0
  9 17  1  0  0  0  0
 10 17  1  0  0  0  0
 11 12  1  0  0  0  0
 12 15  1  0  0  0  0
 13 16  1  0  0  0  0
 15 21  1  0  0  0  0
 16 22  1  0  0  0  0
M  END
> <ref_mols>
x2492_0

> <original SMILES>
CCCNC(=O)C(C)NC(=O)N(C)CC1=CSC(C)=N1

> <Chemgauss4>
-7.045680

> <ref_pdb>
x0195_0

$$$$
x2660
  -OEChem-05172015543D

 22 22  0     1  0  0  0  0  0999 V2000
   10.2812   -1.7525   24.2274 C   0  0  0  0  0  0  0  0  0  0  0  0
   10.5561   -0.6813   23.4033 C   0  0  0  0  0  0  0  0  0  0  0  0
    9.2385    0.3327   24.8337 C   0  0  0  0  0  0  0  0  0  0  0  0
   12.4524    3.8535   23.3078 C   0  0  0  0  0  0  0  0  0  0  0  0
   13.6018    0.4180   22.7482 C   0  0  0  0  0  0  0  0  0  0  0  0
    8.4509    1.3907   25.5030 C   0  0  0  0  0  0  0  0  0  0  0  0
   11.2520    7.4153   26.0741 C   0  0  0  0  0  0  0  0  0  0  0  0
   14.0754    3.4196   21.4463 C   0  0  0  0  0  0  0  0  0  0  0  0
   13.4422   -2.0808   22.6514 C   0  0  0  0  0  0  0  0  0  0  0  0
   11.4344   -0.7142   22.1861 C   0  0  0  0  0  0  0  0  0  0  0  0
   12.1224    6.2796   25.5551 C   0  0  0  0  0  0  0  0  0  0  0  0
   12.1565    6.2121   24.0330 C   0  0  0  0  0  0  0  0  0  0  0  0
   13.5063    2.9015   22.7579 C   0  0  2  0  0  0  0  0  0  0  0  0
    9.9587    0.5151   23.7491 N   0  0  0  0  0  0  0  0  0  0  0  0
   12.9676    5.1195   23.5489 N   0  0  0  0  0  0  0  0  0  0  0  0
   12.8912    1.6044   22.5884 N   0  0  0  0  0  0  0  0  0  0  0  0
   12.8521   -0.7537   22.5359 N   0  0  0  0  0  0  0  0  0  0  0  0
   11.2784    3.5301   23.4754 O   0  0  0  0  0  0  0  0  0  0  0  0
   14.8004    0.4068   23.0444 O   0  0  0  0  0  0  0  0  0  0  0  0
    9.2349   -1.2525   25.4910 S   0  0  0  0  0  0  0  0  0  0  0  0
   13.9610    5.2875   23.4199 H   0  0  0  0  0  0  0  0  0  0  0  0
   11.9090    1.5571   22.3449 H   0  0  0  0  0  0  0  0  0  0  0  0
  1  2  2  0  0  0  0
  1 20  1  0  0  0  0
  2 10  1  0  0  0  0
  2 14  1  0  0  0  0
  3  6  1  0  0  0  0
  3 14  2  0  0  0  0
  3 20  1  0  0  0  0
  4 13  1  0  0  0  0
  4 15  1  0  0  0  0
  4 18  2  0  0  0  0
  5 16  1  0  0  0  0
  5 17  1  0  0  0  0
  5 19  2  0  0  0  0
  7 11  1  0  0  0  0
  8 13  1  0  0  0  0
  9 17  1  0  0  0  0
 10 17  1  0  0  0  0
 11 12  1  0  0  0  0
 12 15  1  0  0  0  0
 13 16  1  0  0  0  0
 15 21  1  0  0  0  0
 16 22  1  0  0  0  0
M  END
> <ref_mols>
x2660_0

> <original SMILES>
CCCNC(=O)C(C)NC(=O)N(C)CC1=CSC(C)=N1

> <Chemgauss4>
-7.045680

> <ref_pdb>
x0195_0

$$$$
x0916
  -OEChem-05172015543D

 13 13  0     1  0  0  0  0  0999 V2000
   12.6319    2.0137   22.7294 C   0  0  0  0  0  0  0  0  0  0  0  0
   14.0833   -1.1432   21.9192 C   0  0  0  0  0  0  0  0  0  0  0  0
   12.7110   -1.8128   21.7982 C   0  0  0  0  0  0  0  0  0  0  0  0
   14.1152   -0.0304   22.9640 C   0  0  0  0  0  0  0  0  0  0  0  0
   11.8902   -1.6687   23.0879 C   0  0  1  0  0  0  0  0  0  0  0  0
   11.6682   -0.1676   23.4169 C   0  0  1  0  0  0  0  0  0  0  0  0
   13.8513    2.8016   22.3222 C   0  0  0  0  0  0  0  0  0  0  0  0
   10.5617   -2.4164   22.9520 C   0  0  0  0  0  0  0  0  0  0  0  0
   11.3513    0.0375   24.9023 C   0  0  0  0  0  0  0  0  0  0  0  0
   12.8268    0.6621   23.0230 N   0  0  0  0  0  0  0  0  0  0  0  0
   11.5370    2.5797   22.7850 O   0  0  0  0  0  0  0  0  0  0  0  0
    9.9843   -0.2569   25.1081 O   0  0  0  0  0  0  0  0  0  0  0  0
    9.7999   -0.1220   26.0541 H   0  0  0  0  0  0  0  0  0  0  0  0
  1  7  1  0  0  0  0
  1 10  1  0  0  0  0
  1 11  2  0  0  0  0
  2  3  1  0  0  0  0
  2  4  1  0  0  0  0
  3  5  1  0  0  0  0
  4 10  1  0  0  0  0
  5  6  1  0  0  0  0
  5  8  1  0  0  0  0
  6  9  1  0  0  0  0
  6 10  1  0  0  0  0
  9 12  1  0  0  0  0
 12 13  1  0  0  0  0
M  END
> <ref_mols>
x0916_0

> <original SMILES>
C[C@@H]1[C@@H](CO)N(C(C)=O)CCC1

> <Chemgauss4>
-7.045570

> <ref_pdb>
x0195_0

$$$$
x0290
  -OEChem-05172015543D

 13 13  0     0  0  0  0  0  0999 V2000
   12.9781    1.3229   22.5323 C   0  0  0  0  0  0  0  0  0  0  0  0
   12.5384    2.6099   22.8215 C   0  0  0  0  0  0  0  0  0  0  0  0
   12.2185    0.2287   22.9310 C   0  0  0  0  0  0  0  0  0  0  0  0
   11.3418    2.7479   23.5063 C   0  0  0  0  0  0  0  0  0  0  0  0
   11.0363    0.4733   23.6111 C   0  0  0  0  0  0  0  0  0  0  0  0
    9.2267    5.9286   23.2445 C   0  0  0  0  0  0  0  0  0  0  0  0
   10.7574   -1.8869   23.6965 C   0  0  0  0  0  0  0  0  0  0  0  0
   10.8395    4.1145   23.8334 C   0  0  0  0  0  0  0  0  0  0  0  0
   10.5767    1.7091   23.9100 N   0  0  0  0  0  0  0  0  0  0  0  0
    9.7047    4.5478   22.9728 N   0  3  0  0  0  0  0  0  0  0  0  0
   10.2698   -0.5888   24.0141 O   0  0  0  0  0  0  0  0  0  0  0  0
    8.9232    3.8896   23.0920 H   0  0  0  0  0  0  0  0  0  0  0  0
    9.9855    4.4751   21.9858 H   0  0  0  0  0  0  0  0  0  0  0  0
  1  2  2  0  0  0  0
  1  3  1  0  0  0  0
  2  4  1  0  0  0  0
  3  5  2  0  0  0  0
  4  8  1  0  0  0  0
  4  9  2  0  0  0  0
  5  9  1  0  0  0  0
  5 11  1  0  0  0  0
  6 10  1  0  0  0  0
  7 11  1  0  0  0  0
  8 10  1  0  0  0  0
 10 12  1  0  0  0  0
 10 13  1  0  0  0  0
M  CHG  1  10   1
M  END
> <ref_mols>
x0290_0

> <original SMILES>
CNCC=1C=CC=C(OC)N1

> <Chemgauss4>
-7.042856

> <ref_pdb>
x0104_0

$$$$
x0997
  -OEChem-05172015543D

  9  9  0     1  0  0  0  0  0999 V2000
    6.2435   -2.5303   19.3085 C   0  0  0  0  0  0  0  0  0  0  0  0
    6.9958   -0.1938   20.0581 C   0  0  0  0  0  0  0  0  0  0  0  0
    8.4588   -0.2882   20.5039 C   0  0  0  0  0  0  0  0  0  0  0  0
    7.2811   -1.4712   19.2526 C   0  0  1  0  0  0  0  0  0  0  0  0
    8.4186   -1.7202   20.1644 N   0  3  0  0  0  0  0  0  0  0  0  0
    5.8036   -2.7937   20.4619 O   0  5  0  0  0  0  0  0  0  0  0  0
    5.9363   -3.0303   18.1901 O   0  0  0  0  0  0  0  0  0  0  0  0
    9.2648   -2.0717   19.7002 H   0  0  0  0  0  0  0  0  0  0  0  0
    8.1892   -2.3217   20.9667 H   0  0  0  0  0  0  0  0  0  0  0  0
  1  4  1  0  0  0  0
  1  6  1  0  0  0  0
  1  7  2  0  0  0  0
  2  3  1  0  0  0  0
  2  4  1  0  0  0  0
  3  5  1  0  0  0  0
  4  5  1  0  0  0  0
  5  8  1  0  0  0  0
  5  9  1  0  0  0  0
M  CHG  2   5   1   6  -1
M  END
> <ref_mols>
x0997_0

> <original SMILES>
OC(=O)C1CCN1

> <Chemgauss4>
-7.041037

> <ref_pdb>
x0397_0

$$$$
x0139
  -OEChem-05172015543D

 13 13  0     0  0  0  0  0  0999 V2000
   12.5100   -1.1424   23.1032 C   0  0  0  0  0  0  0  0  0  0  0  0
   13.7469   -1.4404   22.5315 C   0  0  0  0  0  0  0  0  0  0  0  0
   12.1368    0.1864   23.3048 C   0  0  0  0  0  0  0  0  0  0  0  0
   14.6107   -0.4096   22.1616 C   0  0  0  0  0  0  0  0  0  0  0  0
   13.0006    1.2172   22.9349 C   0  0  0  0  0  0  0  0  0  0  0  0
   14.2376    0.9192   22.3632 C   0  0  0  0  0  0  0  0  0  0  0  0
   11.4188    3.0159   23.7008 C   0  0  0  0  0  0  0  0  0  0  0  0
   11.3855    4.5228   23.7522 C   0  0  0  0  0  0  0  0  0  0  0  0
   12.6132    2.5429   23.1437 N   0  0  0  0  0  0  0  0  0  0  0  0
   10.4757    2.3522   24.1193 O   0  0  0  0  0  0  0  0  0  0  0  0
   15.0966    1.9114   21.9949 O   0  0  0  0  0  0  0  0  0  0  0  0
   13.2844    3.2630   22.8552 H   0  0  0  0  0  0  0  0  0  0  0  0
   15.9048    1.5308   21.6172 H   0  0  0  0  0  0  0  0  0  0  0  0
  1  2  1  0  0  0  0
  1  3  2  0  0  0  0
  2  4  2  0  0  0  0
  3  5  1  0  0  0  0
  4  6  1  0  0  0  0
  5  6  2  0  0  0  0
  5  9  1  0  0  0  0
  6 11  1  0  0  0  0
  7  8  1  0  0  0  0
  7  9  1  0  0  0  0
  7 10  2  0  0  0  0
  9 12  1  0  0  0  0
 11 13  1  0  0  0  0
M  END
> <ref_mols>
x0139_0

> <original SMILES>
CC(=O)NC=1C=CC=CC1O

> <Chemgauss4>
-7.039088

> <ref_pdb>
x0195_0

$$$$
x2876
  -OEChem-05172015543D

 19 20  0     1  0  0  0  0  0999 V2000
    6.8278   -1.1118   20.1037 C   0  0  0  0  0  0  0  0  0  0  0  0
    6.6511   -2.7628   21.3917 C   0  0  0  0  0  0  0  0  0  0  0  0
   13.1718   -2.5010   24.7051 C   0  0  0  0  0  0  0  0  0  0  0  0
   12.0924   -2.8935   25.3884 C   0  0  0  0  0  0  0  0  0  0  0  0
   11.0455   -3.7211   24.7318 C   0  0  0  0  0  0  0  0  0  0  0  0
    7.7002   -4.1870   24.6154 C   0  0  0  0  0  0  0  0  0  0  0  0
    6.2399   -4.7827   22.8070 C   0  0  0  0  0  0  0  0  0  0  0  0
    6.9915   -5.3752   23.9908 C   0  0  1  0  0  0  0  0  0  0  0  0
    8.0724   -3.3052   23.4128 C   0  0  1  0  0  0  0  0  0  0  0  0
    7.4301    0.1141   19.5657 C   0  0  0  0  0  0  0  0  0  0  0  0
    9.4415   -3.6730   22.8423 C   0  0  0  0  0  0  0  0  0  0  0  0
    5.7573   -1.7615   19.7105 N   0  0  0  0  0  0  0  0  0  0  0  0
    5.6410   -2.8476   20.5580 N   0  0  0  0  0  0  0  0  0  0  0  0
    7.0076   -3.5883   22.4421 N   0  0  3  0  0  0  0  0  0  0  0  0
   10.4701   -3.0831   23.6326 N   0  0  0  0  0  0  0  0  0  0  0  0
   10.7383   -4.8385   25.1347 O   0  0  0  0  0  0  0  0  0  0  0  0
    7.4525   -1.6855   21.1683 O   0  0  0  0  0  0  0  0  0  0  0  0
    7.9168   -6.2577   23.5295 F   0  0  0  0  0  0  0  0  0  0  0  0
   10.7811   -2.1338   23.4016 H   0  0  0  0  0  0  0  0  0  0  0  0
  1 10  1  0  0  0  0
  1 12  2  0  0  0  0
  1 17  1  0  0  0  0
  2 13  2  0  0  0  0
  2 14  1  0  0  0  0
  2 17  1  0  0  0  0
  3  4  2  0  0  0  0
  4  5  1  0  0  0  0
  5 15  1  0  0  0  0
  5 16  2  0  0  0  0
  6  8  1  0  0  0  0
  6  9  1  0  0  0  0
  7  8  1  0  0  0  0
  7 14  1  0  0  0  0
  8 18  1  0  0  0  0
  9 11  1  0  0  0  0
  9 14  1  0  0  0  0
 11 15  1  0  0  0  0
 12 13  1  0  0  0  0
 15 19  1  0  0  0  0
M  END
> <ref_mols>
x2876_0

> <original SMILES>
Cc1nnc(N(C2)[C@H](CNC(C=C)=O)C[C@@H]2F)o1

> <Chemgauss4>
-7.037864

> <ref_pdb>
x0749_0

$$$$
x0204
  -OEChem-05172015543D

 14 15  0     0  0  0  0  0  0999 V2000
   12.3325    0.2520   23.2829 C   0  0  0  0  0  0  0  0  0  0  0  0
   11.6950    1.4649   23.5560 C   0  0  0  0  0  0  0  0  0  0  0  0
   14.2906    1.4153   22.4608 C   0  0  0  0  0  0  0  0  0  0  0  0
   13.6693    2.6547   22.7271 C   0  0  0  0  0  0  0  0  0  0  0  0
   13.6133    0.2252   22.7424 C   0  0  0  0  0  0  0  0  0  0  0  0
   12.3810    2.6564   23.2706 C   0  0  0  0  0  0  0  0  0  0  0  0
   13.3591    4.8345   22.8654 C   0  0  0  0  0  0  0  0  0  0  0  0
   13.4786   -2.1485   22.7964 C   0  0  0  0  0  0  0  0  0  0  0  0
   14.2158    3.9095   22.5006 N   0  0  0  0  0  0  0  0  0  0  0  0
   13.5912    6.1709   22.7728 N   0  0  0  0  0  0  0  0  0  0  0  0
   14.2173   -0.9687   22.4861 O   0  0  0  0  0  0  0  0  0  0  0  0
   11.8654    4.2865   23.4933 S   0  0  0  0  0  0  0  0  0  0  0  0
   14.4909    6.5401   22.4467 H   0  0  0  0  0  0  0  0  0  0  0  0
   12.9122    6.8602   23.1134 H   0  0  0  0  0  0  0  0  0  0  0  0
  1  2  2  0  0  0  0
  1  5  1  0  0  0  0
  2  6  1  0  0  0  0
  3  4  1  0  0  0  0
  3  5  2  0  0  0  0
  4  6  2  0  0  0  0
  4  9  1  0  0  0  0
  5 11  1  0  0  0  0
  6 12  1  0  0  0  0
  7  9  2  0  0  0  0
  7 10  1  0  0  0  0
  7 12  1  0  0  0  0
  8 11  1  0  0  0  0
 10 13  1  0  0  0  0
 10 14  1  0  0  0  0
M  END
> <ref_mols>
x0204_0

> <original SMILES>
COC=1C=CC=2SC(N)=NC2C1

> <Chemgauss4>
-7.032916

> <ref_pdb>
x0195_0

$$$$
x0645
  -OEChem-05172015543D

 12 12  0     0  0  0  0  0  0999 V2000
    5.1746    1.2685   19.1285 C   0  0  0  0  0  0  0  0  0  0  0  0
    5.7245    0.9991   17.8857 C   0  0  0  0  0  0  0  0  0  0  0  0
    7.5495   -0.0386   18.8187 C   0  0  0  0  0  0  0  0  0  0  0  0
    7.0852    0.1824   20.1054 C   0  0  0  0  0  0  0  0  0  0  0  0
    5.8742    0.8491   20.2545 C   0  0  0  0  0  0  0  0  0  0  0  0
    4.1504    1.7581   21.8440 C   0  0  0  0  0  0  0  0  0  0  0  0
    7.8796   -0.2896   21.2744 C   0  0  0  0  0  0  0  0  0  0  0  0
    3.9391    1.8325   23.3354 C   0  0  0  0  0  0  0  0  0  0  0  0
    6.8981    0.3541   17.7011 N   0  0  0  0  0  0  0  0  0  0  0  0
    5.3465    1.1050   21.5222 N   0  0  0  0  0  0  0  0  0  0  0  0
    3.3267    2.2326   21.0685 O   0  0  0  0  0  0  0  0  0  0  0  0
    5.9005    0.7746   22.3200 H   0  0  0  0  0  0  0  0  0  0  0  0
  1  2  2  0  0  0  0
  1  5  1  0  0  0  0
  2  9  1  0  0  0  0
  3  4  1  0  0  0  0
  3  9  2  0  0  0  0
  4  5  2  0  0  0  0
  4  7  1  0  0  0  0
  5 10  1  0  0  0  0
  6  8  1  0  0  0  0
  6 10  1  0  0  0  0
  6 11  2  0  0  0  0
 10 12  1  0  0  0  0
M  END
> <ref_mols>
x0645_0

> <original SMILES>
CC(=O)NC=1C=CN=CC1C

> <Chemgauss4>
-7.032791

> <ref_pdb>
x0540_0

$$$$
x0949
  -OEChem-05172015543D

  7  7  0     0  0  0  0  0  0999 V2000
    6.0286    0.4552   20.3746 C   0  0  0  0  0  0  0  0  0  0  0  0
    5.7930    0.8271   18.0806 C   0  0  0  0  0  0  0  0  0  0  0  0
    7.6268   -0.2293   18.9103 C   0  0  0  0  0  0  0  0  0  0  0  0
    5.2640    0.9691   19.3472 C   0  0  0  0  0  0  0  0  0  0  0  0
    7.2191   -0.1527   20.1914 N   0  0  0  0  0  0  0  0  0  0  0  0
    6.9762    0.2312   17.8248 N   0  0  0  0  0  0  0  0  0  0  0  0
    3.4559    1.8860   19.6816 I   0  0  0  0  0  0  0  0  0  0  0  0
  1  4  1  0  0  0  0
  1  5  2  0  0  0  0
  2  4  2  0  0  0  0
  2  6  1  0  0  0  0
  3  5  1  0  0  0  0
  3  6  2  0  0  0  0
  4  7  1  0  0  0  0
M  END
> <ref_mols>
x0949_0

> <original SMILES>
IC1=CN=CN=C1

> <Chemgauss4>
-7.026112

> <ref_pdb>
x0397_0

$$$$
x1095
  -OEChem-05172015543D

 16 16  0     1  0  0  0  0  0999 V2000
   12.0248    0.2128   24.3521 C   0  0  0  0  0  0  0  0  0  0  0  0
   10.7370   -0.3058   24.2178 C   0  0  0  0  0  0  0  0  0  0  0  0
   13.1176   -0.4951   23.8516 C   0  0  0  0  0  0  0  0  0  0  0  0
   11.6345   -2.2405   23.0827 C   0  0  0  0  0  0  0  0  0  0  0  0
   10.5418   -1.5325   23.5832 C   0  0  0  0  0  0  0  0  0  0  0  0
   12.9224   -1.7218   23.2169 C   0  0  0  0  0  0  0  0  0  0  0  0
    8.4255   -4.4298   23.1920 C   0  0  0  0  0  0  0  0  0  0  0  0
    9.1551   -2.0897   23.4392 C   0  0  0  0  0  0  0  0  0  0  0  0
    6.8020   -3.1363   25.5347 N   0  0  0  0  0  0  0  0  0  0  0  0
    9.0163   -3.4131   24.1001 N   0  0  1  0  0  0  0  0  0  0  0  0
    8.6472   -4.7513   26.2885 O   0  0  0  0  0  0  0  0  0  0  0  0
    9.0473   -2.2737   26.4274 O   0  0  0  0  0  0  0  0  0  0  0  0
   13.9716   -2.4020   22.7366 F   0  0  0  0  0  0  0  0  0  0  0  0
    8.4755   -3.4179   25.7419 S   0  0  0  0  0  0  0  0  0  0  0  0
    6.2364   -3.8961   25.1369 H   0  0  0  0  0  0  0  0  0  0  0  0
    6.5097   -2.1992   25.2316 H   0  0  0  0  0  0  0  0  0  0  0  0
  1  2  2  0  0  0  0
  1  3  1  0  0  0  0
  2  5  1  0  0  0  0
  3  6  2  0  0  0  0
  4  5  2  0  0  0  0
  4  6  1  0  0  0  0
  5  8  1  0  0  0  0
  6 13  1  0  0  0  0
  7 10  1  0  0  0  0
  8 10  1  0  0  0  0
  9 14  1  0  0  0  0
 10 14  1  0  0  0  0
 11 14  2  0  0  0  0
 12 14  2  0  0  0  0
  9 15  1  0  0  0  0
  9 16  1  0  0  0  0
M  END
> <ref_mols>
x1095_0

> <original SMILES>
CN(CC=1C=CC=C(F)C1)S(=O)(=O)N

> <Chemgauss4>
-7.025572

> <ref_pdb>
x0072_0

$$$$
x0112
  -OEChem-05172015543D

 16 16  0     1  0  0  0  0  0999 V2000
   12.0248    0.2128   24.3521 C   0  0  0  0  0  0  0  0  0  0  0  0
   10.7370   -0.3058   24.2178 C   0  0  0  0  0  0  0  0  0  0  0  0
   13.1176   -0.4951   23.8516 C   0  0  0  0  0  0  0  0  0  0  0  0
   11.6345   -2.2405   23.0827 C   0  0  0  0  0  0  0  0  0  0  0  0
   10.5418   -1.5325   23.5832 C   0  0  0  0  0  0  0  0  0  0  0  0
   12.9224   -1.7218   23.2169 C   0  0  0  0  0  0  0  0  0  0  0  0
    8.4255   -4.4298   23.1920 C   0  0  0  0  0  0  0  0  0  0  0  0
    9.1551   -2.0897   23.4392 C   0  0  0  0  0  0  0  0  0  0  0  0
    6.8020   -3.1363   25.5347 N   0  0  0  0  0  0  0  0  0  0  0  0
    9.0163   -3.4131   24.1001 N   0  0  1  0  0  0  0  0  0  0  0  0
    8.6472   -4.7513   26.2885 O   0  0  0  0  0  0  0  0  0  0  0  0
    9.0473   -2.2737   26.4274 O   0  0  0  0  0  0  0  0  0  0  0  0
   13.9716   -2.4020   22.7366 F   0  0  0  0  0  0  0  0  0  0  0  0
    8.4755   -3.4179   25.7419 S   0  0  0  0  0  0  0  0  0  0  0  0
    6.2364   -3.8961   25.1369 H   0  0  0  0  0  0  0  0  0  0  0  0
    6.5097   -2.1992   25.2316 H   0  0  0  0  0  0  0  0  0  0  0  0
  1  2  2  0  0  0  0
  1  3  1  0  0  0  0
  2  5  1  0  0  0  0
  3  6  2  0  0  0  0
  4  5  2  0  0  0  0
  4  6  1  0  0  0  0
  5  8  1  0  0  0  0
  6 13  1  0  0  0  0
  7 10  1  0  0  0  0
  8 10  1  0  0  0  0
  9 14  1  0  0  0  0
 10 14  1  0  0  0  0
 11 14  2  0  0  0  0
 12 14  2  0  0  0  0
  9 15  1  0  0  0  0
  9 16  1  0  0  0  0
M  END
> <ref_mols>
x0112_0

> <original SMILES>
CN(CC=1C=CC=C(F)C1)S(=O)(=O)N

> <Chemgauss4>
-7.025572

> <ref_pdb>
x0072_0

$$$$
x1311
  -OEChem-05172015543D

 18 19  0     1  0  0  0  0  0999 V2000
    9.3209   -4.9889   25.2509 C   0  0  0  0  0  0  0  0  0  0  0  0
    9.2693   -5.4137   23.9233 C   0  0  0  0  0  0  0  0  0  0  0  0
    8.2702   -4.2437   25.7861 C   0  0  0  0  0  0  0  0  0  0  0  0
    8.1670   -5.0932   23.1309 C   0  0  0  0  0  0  0  0  0  0  0  0
    7.1680   -3.9232   24.9937 C   0  0  0  0  0  0  0  0  0  0  0  0
    7.1163   -4.3480   23.6661 C   0  0  0  0  0  0  0  0  0  0  0  0
    4.5663   -4.7502   24.6235 C   0  0  0  0  0  0  0  0  0  0  0  0
    4.6082   -6.0139   25.0597 C   0  0  0  0  0  0  0  0  0  0  0  0
    6.2334   -3.2431   21.6680 C   0  0  0  0  0  0  0  0  0  0  0  0
    4.4121   -5.8843   22.4783 C   0  0  0  0  0  0  0  0  0  0  0  0
    4.6618   -4.5306   23.1418 C   0  0  2  0  0  0  0  0  0  0  0  0
    7.3184   -2.1950   21.8418 C   0  0  0  0  0  0  0  0  0  0  0  0
    5.9728   -4.0157   22.8438 N   0  0  0  0  0  0  0  0  0  0  0  0
    5.6398   -3.3470   20.5916 O   0  0  0  0  0  0  0  0  0  0  0  0
    6.1753   -7.4976   23.6030 O   0  0  0  0  0  0  0  0  0  0  0  0
    3.7185   -8.0922   23.7551 O   0  0  0  0  0  0  0  0  0  0  0  0
    4.7846   -7.1117   23.7346 S   0  0  0  0  0  0  0  0  0  0  0  0
    6.9904   -0.7981   20.7947 Cl  0  0  0  0  0  0  0  0  0  0  0  0
  1  2  1  0  0  0  0
  1  3  2  0  0  0  0
  2  4  2  0  0  0  0
  3  5  1  0  0  0  0
  4  6  1  0  0  0  0
  5  6  2  0  0  0  0
  6 13  1  0  0  0  0
  7  8  2  0  0  0  0
  7 11  1  0  0  0  0
  8 17  1  0  0  0  0
  9 12  1  0  0  0  0
  9 13  1  0  0  0  0
  9 14  2  0  0  0  0
 10 11  1  0  0  0  0
 10 17  1  0  0  0  0
 11 13  1  0  0  0  0
 12 18  1  0  0  0  0
 15 17  2  0  0  0  0
 16 17  2  0  0  0  0
M  END
> <ref_mols>
x1311_0

> <original SMILES>
ClCC(=O)N(C1CS(=O)(=O)C=C1)c2ccccc2

> <Chemgauss4>
-7.021152

> <ref_pdb>
x1311_0

$$$$
x0796
  -OEChem-05172015543D

 18 19  0     1  0  0  0  0  0999 V2000
    9.3209   -4.9889   25.2509 C   0  0  0  0  0  0  0  0  0  0  0  0
    9.2693   -5.4137   23.9233 C   0  0  0  0  0  0  0  0  0  0  0  0
    8.2702   -4.2437   25.7861 C   0  0  0  0  0  0  0  0  0  0  0  0
    8.1670   -5.0932   23.1309 C   0  0  0  0  0  0  0  0  0  0  0  0
    7.1680   -3.9232   24.9937 C   0  0  0  0  0  0  0  0  0  0  0  0
    7.1163   -4.3480   23.6661 C   0  0  0  0  0  0  0  0  0  0  0  0
    4.5663   -4.7502   24.6235 C   0  0  0  0  0  0  0  0  0  0  0  0
    4.6082   -6.0139   25.0597 C   0  0  0  0  0  0  0  0  0  0  0  0
    6.2334   -3.2431   21.6680 C   0  0  0  0  0  0  0  0  0  0  0  0
    4.4121   -5.8843   22.4783 C   0  0  0  0  0  0  0  0  0  0  0  0
    4.6618   -4.5306   23.1418 C   0  0  2  0  0  0  0  0  0  0  0  0
    7.3184   -2.1950   21.8418 C   0  0  0  0  0  0  0  0  0  0  0  0
    5.9728   -4.0157   22.8438 N   0  0  0  0  0  0  0  0  0  0  0  0
    5.6398   -3.3470   20.5916 O   0  0  0  0  0  0  0  0  0  0  0  0
    6.1753   -7.4976   23.6030 O   0  0  0  0  0  0  0  0  0  0  0  0
    3.7185   -8.0922   23.7551 O   0  0  0  0  0  0  0  0  0  0  0  0
    4.7846   -7.1117   23.7346 S   0  0  0  0  0  0  0  0  0  0  0  0
    6.9904   -0.7981   20.7947 Cl  0  0  0  0  0  0  0  0  0  0  0  0
  1  2  1  0  0  0  0
  1  3  2  0  0  0  0
  2  4  2  0  0  0  0
  3  5  1  0  0  0  0
  4  6  1  0  0  0  0
  5  6  2  0  0  0  0
  6 13  1  0  0  0  0
  7  8  2  0  0  0  0
  7 11  1  0  0  0  0
  8 17  1  0  0  0  0
  9 12  1  0  0  0  0
  9 13  1  0  0  0  0
  9 14  2  0  0  0  0
 10 11  1  0  0  0  0
 10 17  1  0  0  0  0
 11 13  1  0  0  0  0
 12 18  1  0  0  0  0
 15 17  2  0  0  0  0
 16 17  2  0  0  0  0
M  END
> <ref_mols>
x0796_0

> <original SMILES>
ClCC(=O)N(C1CS(=O)(=O)C=C1)c2ccccc2

> <Chemgauss4>
-7.021152

> <ref_pdb>
x1311_0

$$$$
x1397
  -OEChem-05172015543D

 18 19  0     1  0  0  0  0  0999 V2000
    9.3209   -4.9889   25.2509 C   0  0  0  0  0  0  0  0  0  0  0  0
    9.2693   -5.4137   23.9233 C   0  0  0  0  0  0  0  0  0  0  0  0
    8.2702   -4.2437   25.7861 C   0  0  0  0  0  0  0  0  0  0  0  0
    8.1670   -5.0932   23.1309 C   0  0  0  0  0  0  0  0  0  0  0  0
    7.1680   -3.9232   24.9937 C   0  0  0  0  0  0  0  0  0  0  0  0
    7.1163   -4.3480   23.6661 C   0  0  0  0  0  0  0  0  0  0  0  0
    4.5663   -4.7502   24.6235 C   0  0  0  0  0  0  0  0  0  0  0  0
    4.6082   -6.0139   25.0597 C   0  0  0  0  0  0  0  0  0  0  0  0
    6.2334   -3.2431   21.6680 C   0  0  0  0  0  0  0  0  0  0  0  0
    4.4121   -5.8843   22.4783 C   0  0  0  0  0  0  0  0  0  0  0  0
    4.6618   -4.5306   23.1418 C   0  0  2  0  0  0  0  0  0  0  0  0
    7.3184   -2.1950   21.8418 C   0  0  0  0  0  0  0  0  0  0  0  0
    5.9728   -4.0157   22.8438 N   0  0  0  0  0  0  0  0  0  0  0  0
    5.6398   -3.3470   20.5916 O   0  0  0  0  0  0  0  0  0  0  0  0
    6.1753   -7.4976   23.6030 O   0  0  0  0  0  0  0  0  0  0  0  0
    3.7185   -8.0922   23.7551 O   0  0  0  0  0  0  0  0  0  0  0  0
    4.7846   -7.1117   23.7346 S   0  0  0  0  0  0  0  0  0  0  0  0
    6.9904   -0.7981   20.7947 Cl  0  0  0  0  0  0  0  0  0  0  0  0
  1  2  1  0  0  0  0
  1  3  2  0  0  0  0
  2  4  2  0  0  0  0
  3  5  1  0  0  0  0
  4  6  1  0  0  0  0
  5  6  2  0  0  0  0
  6 13  1  0  0  0  0
  7  8  2  0  0  0  0
  7 11  1  0  0  0  0
  8 17  1  0  0  0  0
  9 12  1  0  0  0  0
  9 13  1  0  0  0  0
  9 14  2  0  0  0  0
 10 11  1  0  0  0  0
 10 17  1  0  0  0  0
 11 13  1  0  0  0  0
 12 18  1  0  0  0  0
 15 17  2  0  0  0  0
 16 17  2  0  0  0  0
M  END
> <ref_mols>
x1397_0

> <original SMILES>
ClCC(=O)N(C1CS(=O)(=O)C=C1)c2ccccc2

> <Chemgauss4>
-7.021152

> <ref_pdb>
x1311_0

$$$$
x1476
  -OEChem-05172015543D

 18 19  0     1  0  0  0  0  0999 V2000
    9.3209   -4.9889   25.2509 C   0  0  0  0  0  0  0  0  0  0  0  0
    9.2693   -5.4137   23.9233 C   0  0  0  0  0  0  0  0  0  0  0  0
    8.2702   -4.2437   25.7861 C   0  0  0  0  0  0  0  0  0  0  0  0
    8.1670   -5.0932   23.1309 C   0  0  0  0  0  0  0  0  0  0  0  0
    7.1680   -3.9232   24.9937 C   0  0  0  0  0  0  0  0  0  0  0  0
    7.1163   -4.3480   23.6661 C   0  0  0  0  0  0  0  0  0  0  0  0
    4.5663   -4.7502   24.6235 C   0  0  0  0  0  0  0  0  0  0  0  0
    4.6082   -6.0139   25.0597 C   0  0  0  0  0  0  0  0  0  0  0  0
    6.2334   -3.2431   21.6680 C   0  0  0  0  0  0  0  0  0  0  0  0
    4.4121   -5.8843   22.4783 C   0  0  0  0  0  0  0  0  0  0  0  0
    4.6618   -4.5306   23.1418 C   0  0  2  0  0  0  0  0  0  0  0  0
    7.3184   -2.1950   21.8418 C   0  0  0  0  0  0  0  0  0  0  0  0
    5.9728   -4.0157   22.8438 N   0  0  0  0  0  0  0  0  0  0  0  0
    5.6398   -3.3470   20.5916 O   0  0  0  0  0  0  0  0  0  0  0  0
    6.1753   -7.4976   23.6030 O   0  0  0  0  0  0  0  0  0  0  0  0
    3.7185   -8.0922   23.7551 O   0  0  0  0  0  0  0  0  0  0  0  0
    4.7846   -7.1117   23.7346 S   0  0  0  0  0  0  0  0  0  0  0  0
    6.9904   -0.7981   20.7947 Cl  0  0  0  0  0  0  0  0  0  0  0  0
  1  2  1  0  0  0  0
  1  3  2  0  0  0  0
  2  4  2  0  0  0  0
  3  5  1  0  0  0  0
  4  6  1  0  0  0  0
  5  6  2  0  0  0  0
  6 13  1  0  0  0  0
  7  8  2  0  0  0  0
  7 11  1  0  0  0  0
  8 17  1  0  0  0  0
  9 12  1  0  0  0  0
  9 13  1  0  0  0  0
  9 14  2  0  0  0  0
 10 11  1  0  0  0  0
 10 17  1  0  0  0  0
 11 13  1  0  0  0  0
 12 18  1  0  0  0  0
 15 17  2  0  0  0  0
 16 17  2  0  0  0  0
M  END
> <ref_mols>
x1476_0

> <original SMILES>
ClCC(=O)N(C1CS(=O)(=O)C=C1)c2ccccc2

> <Chemgauss4>
-7.021152

> <ref_pdb>
x1311_0

> <CYS145-warhead dist minimum (A)>
6.738495

> <CYS145-warhead dist mean (A)>
7.4675164

> <CYS145-warhead dist stddev (A)>
0.30957353

$$$$
x1349
  -OEChem-05172015543D

 18 19  0     1  0  0  0  0  0999 V2000
    9.3209   -4.9889   25.2509 C   0  0  0  0  0  0  0  0  0  0  0  0
    9.2693   -5.4137   23.9233 C   0  0  0  0  0  0  0  0  0  0  0  0
    8.2702   -4.2437   25.7861 C   0  0  0  0  0  0  0  0  0  0  0  0
    8.1670   -5.0932   23.1309 C   0  0  0  0  0  0  0  0  0  0  0  0
    7.1680   -3.9232   24.9937 C   0  0  0  0  0  0  0  0  0  0  0  0
    7.1163   -4.3480   23.6661 C   0  0  0  0  0  0  0  0  0  0  0  0
    4.5663   -4.7502   24.6235 C   0  0  0  0  0  0  0  0  0  0  0  0
    4.6082   -6.0139   25.0597 C   0  0  0  0  0  0  0  0  0  0  0  0
    6.2334   -3.2431   21.6680 C   0  0  0  0  0  0  0  0  0  0  0  0
    4.4121   -5.8843   22.4783 C   0  0  0  0  0  0  0  0  0  0  0  0
    4.6618   -4.5306   23.1418 C   0  0  2  0  0  0  0  0  0  0  0  0
    7.3184   -2.1950   21.8418 C   0  0  0  0  0  0  0  0  0  0  0  0
    5.9728   -4.0157   22.8438 N   0  0  0  0  0  0  0  0  0  0  0  0
    5.6398   -3.3470   20.5916 O   0  0  0  0  0  0  0  0  0  0  0  0
    6.1753   -7.4976   23.6030 O   0  0  0  0  0  0  0  0  0  0  0  0
    3.7185   -8.0922   23.7551 O   0  0  0  0  0  0  0  0  0  0  0  0
    4.7846   -7.1117   23.7346 S   0  0  0  0  0  0  0  0  0  0  0  0
    6.9904   -0.7981   20.7947 Cl  0  0  0  0  0  0  0  0  0  0  0  0
  1  2  1  0  0  0  0
  1  3  2  0  0  0  0
  2  4  2  0  0  0  0
  3  5  1  0  0  0  0
  4  6  1  0  0  0  0
  5  6  2  0  0  0  0
  6 13  1  0  0  0  0
  7  8  2  0  0  0  0
  7 11  1  0  0  0  0
  8 17  1  0  0  0  0
  9 12  1  0  0  0  0
  9 13  1  0  0  0  0
  9 14  2  0  0  0  0
 10 11  1  0  0  0  0
 10 17  1  0  0  0  0
 11 13  1  0  0  0  0
 12 18  1  0  0  0  0
 15 17  2  0  0  0  0
 16 17  2  0  0  0  0
M  END
> <ref_mols>
x1349_0

> <original SMILES>
ClCC(=O)N(C1CS(=O)(=O)C=C1)c2ccccc2

> <Chemgauss4>
-7.021152

> <ref_pdb>
x1311_0

$$$$
x0722
  -OEChem-05172015543D

 18 19  0     1  0  0  0  0  0999 V2000
    9.3209   -4.9889   25.2509 C   0  0  0  0  0  0  0  0  0  0  0  0
    9.2693   -5.4137   23.9233 C   0  0  0  0  0  0  0  0  0  0  0  0
    8.2702   -4.2437   25.7861 C   0  0  0  0  0  0  0  0  0  0  0  0
    8.1670   -5.0932   23.1309 C   0  0  0  0  0  0  0  0  0  0  0  0
    7.1680   -3.9232   24.9937 C   0  0  0  0  0  0  0  0  0  0  0  0
    7.1163   -4.3480   23.6661 C   0  0  0  0  0  0  0  0  0  0  0  0
    4.5663   -4.7502   24.6235 C   0  0  0  0  0  0  0  0  0  0  0  0
    4.6082   -6.0139   25.0597 C   0  0  0  0  0  0  0  0  0  0  0  0
    6.2334   -3.2431   21.6680 C   0  0  0  0  0  0  0  0  0  0  0  0
    4.4121   -5.8843   22.4783 C   0  0  0  0  0  0  0  0  0  0  0  0
    4.6618   -4.5306   23.1418 C   0  0  2  0  0  0  0  0  0  0  0  0
    7.3184   -2.1950   21.8418 C   0  0  0  0  0  0  0  0  0  0  0  0
    5.9728   -4.0157   22.8438 N   0  0  0  0  0  0  0  0  0  0  0  0
    5.6398   -3.3470   20.5916 O   0  0  0  0  0  0  0  0  0  0  0  0
    6.1753   -7.4976   23.6030 O   0  0  0  0  0  0  0  0  0  0  0  0
    3.7185   -8.0922   23.7551 O   0  0  0  0  0  0  0  0  0  0  0  0
    4.7846   -7.1117   23.7346 S   0  0  0  0  0  0  0  0  0  0  0  0
    6.9904   -0.7981   20.7947 Cl  0  0  0  0  0  0  0  0  0  0  0  0
  1  2  1  0  0  0  0
  1  3  2  0  0  0  0
  2  4  2  0  0  0  0
  3  5  1  0  0  0  0
  4  6  1  0  0  0  0
  5  6  2  0  0  0  0
  6 13  1  0  0  0  0
  7  8  2  0  0  0  0
  7 11  1  0  0  0  0
  8 17  1  0  0  0  0
  9 12  1  0  0  0  0
  9 13  1  0  0  0  0
  9 14  2  0  0  0  0
 10 11  1  0  0  0  0
 10 17  1  0  0  0  0
 11 13  1  0  0  0  0
 12 18  1  0  0  0  0
 15 17  2  0  0  0  0
 16 17  2  0  0  0  0
M  END
> <ref_mols>
x0722_0

> <original SMILES>
ClCC(=O)N(C1CS(=O)(=O)C=C1)c2ccccc2

> <Chemgauss4>
-7.021152

> <ref_pdb>
x1311_0

$$$$
x0892
  -OEChem-05172015543D

 13 13  0     1  0  0  0  0  0999 V2000
   11.3069    3.1861   23.4717 C   0  0  0  0  0  0  0  0  0  0  0  0
   12.5779   -1.4048   22.4958 C   0  0  0  0  0  0  0  0  0  0  0  0
   13.4004    2.1615   22.6025 C   0  0  0  0  0  0  0  0  0  0  0  0
   13.9242    0.7366   22.5669 C   0  0  0  0  0  0  0  0  0  0  0  0
   12.3246    2.1113   23.6831 C   0  0  2  0  0  0  0  0  0  0  0  0
   11.7160    0.7064   23.5383 C   0  0  2  0  0  0  0  0  0  0  0  0
   11.1462   -1.8351   22.2944 C   0  0  0  0  0  0  0  0  0  0  0  0
   11.3148    0.1465   24.9019 C   0  0  0  0  0  0  0  0  0  0  0  0
   11.0492    5.5316   23.3441 C   0  0  0  0  0  0  0  0  0  0  0  0
   12.7615   -0.0851   22.8810 N   0  0  0  0  0  0  0  0  0  0  0  0
   10.1176    2.9747   23.2762 O   0  0  0  0  0  0  0  0  0  0  0  0
   13.4932   -2.2113   22.3224 O   0  0  0  0  0  0  0  0  0  0  0  0
   11.9129    4.4060   23.5317 O   0  0  0  0  0  0  0  0  0  0  0  0
  1  5  1  0  0  0  0
  1 11  2  0  0  0  0
  1 13  1  0  0  0  0
  2  7  1  0  0  0  0
  2 10  1  0  0  0  0
  2 12  2  0  0  0  0
  3  4  1  0  0  0  0
  3  5  1  0  0  0  0
  4 10  1  0  0  0  0
  5  6  1  0  0  0  0
  6  8  1  0  0  0  0
  6 10  1  0  0  0  0
  9 13  1  0  0  0  0
M  END
> <ref_mols>
x0892_0

> <original SMILES>
C[C@H]1[C@H](C(OC)=O)CCN1C(C)=O

> <Chemgauss4>
-7.019965

> <ref_pdb>
x0195_0

$$$$
x2771
  -OEChem-05172015543D

 21 22  0     1  0  0  0  0  0999 V2000
   11.3718   -1.4598   22.6764 C   0  0  0  0  0  0  0  0  0  0  0  0
   10.3627   -2.4509   22.7560 C   0  0  0  0  0  0  0  0  0  0  0  0
   10.9972   -0.4239   23.5034 C   0  0  0  0  0  0  0  0  0  0  0  0
    9.4019   -1.9905   23.6291 C   0  0  0  0  0  0  0  0  0  0  0  0
    6.7714   -1.2329   20.3540 C   0  0  0  0  0  0  0  0  0  0  0  0
    6.8018   -1.6476   21.6223 C   0  0  0  0  0  0  0  0  0  0  0  0
   11.7041    0.7964   23.7467 C   0  0  0  0  0  0  0  0  0  0  0  0
    6.8427   -3.0983   21.8978 C   0  0  0  0  0  0  0  0  0  0  0  0
    7.1380   -4.2626   25.7645 C   0  0  0  0  0  0  0  0  0  0  0  0
    6.8562   -5.2930   24.6696 C   0  0  0  0  0  0  0  0  0  0  0  0
    8.3310   -3.3757   25.4237 C   0  0  0  0  0  0  0  0  0  0  0  0
    7.5375   -4.9640   23.3436 C   0  0  0  0  0  0  0  0  0  0  0  0
    8.1052   -2.6431   24.0840 C   0  0  2  0  0  0  0  0  0  0  0  0
    9.0632    0.0674   25.0130 C   0  0  0  0  0  0  0  0  0  0  0  0
   11.6448    3.3172   23.5938 C   0  0  0  0  0  0  0  0  0  0  0  0
    9.7980   -0.7574   24.0770 N   0  0  0  0  0  0  0  0  0  0  0  0
    7.4888   -3.5273   23.0597 N   0  0  0  0  0  0  0  0  0  0  0  0
   11.0560    2.0078   23.4276 N   0  0  0  0  0  0  0  0  0  0  0  0
   12.8714    0.7955   24.2095 O   0  0  0  0  0  0  0  0  0  0  0  0
    6.3020   -3.8456   21.0803 O   0  0  0  0  0  0  0  0  0  0  0  0
   10.1383    1.9657   22.9967 H   0  0  0  0  0  0  0  0  0  0  0  0
  1  2  1  0  0  0  0
  1  3  2  0  0  0  0
  2  4  2  0  0  0  0
  3  7  1  0  0  0  0
  3 16  1  0  0  0  0
  4 13  1  0  0  0  0
  4 16  1  0  0  0  0
  5  6  2  0  0  0  0
  6  8  1  0  0  0  0
  7 18  1  0  0  0  0
  7 19  2  0  0  0  0
  8 17  1  0  0  0  0
  8 20  2  0  0  0  0
  9 10  1  0  0  0  0
  9 11  1  0  0  0  0
 10 12  1  0  0  0  0
 11 13  1  0  0  0  0
 12 17  1  0  0  0  0
 13 17  1  0  0  0  0
 14 16  1  0  0  0  0
 15 18  1  0  0  0  0
 18 21  1  0  0  0  0
M  END
> <ref_mols>
x2771_0

> <original SMILES>
CNC(=O)c1ccc(C2CCCCN2C(=O)C=C)n1C

> <Chemgauss4>
-7.018138

> <ref_pdb>
x1392_0

> <CYS145-warhead dist minimum (A)>
10.499276

> <CYS145-warhead dist mean (A)>
11.32268

> <CYS145-warhead dist stddev (A)>
0.41997957

$$$$
x2782
  -OEChem-05172015543D

 21 22  0     1  0  0  0  0  0999 V2000
   11.3718   -1.4598   22.6764 C   0  0  0  0  0  0  0  0  0  0  0  0
   10.3627   -2.4509   22.7560 C   0  0  0  0  0  0  0  0  0  0  0  0
   10.9972   -0.4239   23.5034 C   0  0  0  0  0  0  0  0  0  0  0  0
    9.4019   -1.9905   23.6291 C   0  0  0  0  0  0  0  0  0  0  0  0
    6.7714   -1.2329   20.3540 C   0  0  0  0  0  0  0  0  0  0  0  0
    6.8018   -1.6476   21.6223 C   0  0  0  0  0  0  0  0  0  0  0  0
   11.7041    0.7964   23.7467 C   0  0  0  0  0  0  0  0  0  0  0  0
    6.8427   -3.0983   21.8978 C   0  0  0  0  0  0  0  0  0  0  0  0
    7.1380   -4.2626   25.7645 C   0  0  0  0  0  0  0  0  0  0  0  0
    6.8562   -5.2930   24.6696 C   0  0  0  0  0  0  0  0  0  0  0  0
    8.3310   -3.3757   25.4237 C   0  0  0  0  0  0  0  0  0  0  0  0
    7.5375   -4.9640   23.3436 C   0  0  0  0  0  0  0  0  0  0  0  0
    8.1052   -2.6431   24.0840 C   0  0  2  0  0  0  0  0  0  0  0  0
    9.0632    0.0674   25.0130 C   0  0  0  0  0  0  0  0  0  0  0  0
   11.6448    3.3172   23.5938 C   0  0  0  0  0  0  0  0  0  0  0  0
    9.7980   -0.7574   24.0770 N   0  0  0  0  0  0  0  0  0  0  0  0
    7.4888   -3.5273   23.0597 N   0  0  0  0  0  0  0  0  0  0  0  0
   11.0560    2.0078   23.4276 N   0  0  0  0  0  0  0  0  0  0  0  0
   12.8714    0.7955   24.2095 O   0  0  0  0  0  0  0  0  0  0  0  0
    6.3020   -3.8456   21.0803 O   0  0  0  0  0  0  0  0  0  0  0  0
   10.1383    1.9657   22.9967 H   0  0  0  0  0  0  0  0  0  0  0  0
  1  2  1  0  0  0  0
  1  3  2  0  0  0  0
  2  4  2  0  0  0  0
  3  7  1  0  0  0  0
  3 16  1  0  0  0  0
  4 13  1  0  0  0  0
  4 16  1  0  0  0  0
  5  6  2  0  0  0  0
  6  8  1  0  0  0  0
  7 18  1  0  0  0  0
  7 19  2  0  0  0  0
  8 17  1  0  0  0  0
  8 20  2  0  0  0  0
  9 10  1  0  0  0  0
  9 11  1  0  0  0  0
 10 12  1  0  0  0  0
 11 13  1  0  0  0  0
 12 17  1  0  0  0  0
 13 17  1  0  0  0  0
 14 16  1  0  0  0  0
 15 18  1  0  0  0  0
 18 21  1  0  0  0  0
M  END
> <ref_mols>
x2782_0

> <original SMILES>
CNC(=O)c1ccc(C2CCCCN2C(=O)C=C)n1C

> <Chemgauss4>
-7.018138

> <ref_pdb>
x1392_0

> <CYS145-warhead dist minimum (A)>
8.365576

> <CYS145-warhead dist mean (A)>
10.6730385

> <CYS145-warhead dist stddev (A)>
0.5352272

$$$$
x2030
  -OEChem-05172015543D

 21 22  0     1  0  0  0  0  0999 V2000
   11.3718   -1.4598   22.6764 C   0  0  0  0  0  0  0  0  0  0  0  0
   10.3627   -2.4509   22.7560 C   0  0  0  0  0  0  0  0  0  0  0  0
   10.9972   -0.4239   23.5034 C   0  0  0  0  0  0  0  0  0  0  0  0
    9.4019   -1.9905   23.6291 C   0  0  0  0  0  0  0  0  0  0  0  0
    6.7714   -1.2329   20.3540 C   0  0  0  0  0  0  0  0  0  0  0  0
    6.8018   -1.6476   21.6223 C   0  0  0  0  0  0  0  0  0  0  0  0
   11.7041    0.7964   23.7467 C   0  0  0  0  0  0  0  0  0  0  0  0
    6.8427   -3.0983   21.8978 C   0  0  0  0  0  0  0  0  0  0  0  0
    7.1380   -4.2626   25.7645 C   0  0  0  0  0  0  0  0  0  0  0  0
    6.8562   -5.2930   24.6696 C   0  0  0  0  0  0  0  0  0  0  0  0
    8.3310   -3.3757   25.4237 C   0  0  0  0  0  0  0  0  0  0  0  0
    7.5375   -4.9640   23.3436 C   0  0  0  0  0  0  0  0  0  0  0  0
    8.1052   -2.6431   24.0840 C   0  0  2  0  0  0  0  0  0  0  0  0
    9.0632    0.0674   25.0130 C   0  0  0  0  0  0  0  0  0  0  0  0
   11.6448    3.3172   23.5938 C   0  0  0  0  0  0  0  0  0  0  0  0
    9.7980   -0.7574   24.0770 N   0  0  0  0  0  0  0  0  0  0  0  0
    7.4888   -3.5273   23.0597 N   0  0  0  0  0  0  0  0  0  0  0  0
   11.0560    2.0078   23.4276 N   0  0  0  0  0  0  0  0  0  0  0  0
   12.8714    0.7955   24.2095 O   0  0  0  0  0  0  0  0  0  0  0  0
    6.3020   -3.8456   21.0803 O   0  0  0  0  0  0  0  0  0  0  0  0
   10.1383    1.9657   22.9967 H   0  0  0  0  0  0  0  0  0  0  0  0
  1  2  1  0  0  0  0
  1  3  2  0  0  0  0
  2  4  2  0  0  0  0
  3  7  1  0  0  0  0
  3 16  1  0  0  0  0
  4 13  1  0  0  0  0
  4 16  1  0  0  0  0
  5  6  2  0  0  0  0
  6  8  1  0  0  0  0
  7 18  1  0  0  0  0
  7 19  2  0  0  0  0
  8 17  1  0  0  0  0
  8 20  2  0  0  0  0
  9 10  1  0  0  0  0
  9 11  1  0  0  0  0
 10 12  1  0  0  0  0
 11 13  1  0  0  0  0
 12 17  1  0  0  0  0
 13 17  1  0  0  0  0
 14 16  1  0  0  0  0
 15 18  1  0  0  0  0
 18 21  1  0  0  0  0
M  END
> <ref_mols>
x2030_0

> <original SMILES>
CNC(=O)c1ccc(C2CCCCN2C(=O)C=C)n1C

> <Chemgauss4>
-7.018138

> <ref_pdb>
x1392_0

> <CYS145-warhead dist minimum (A)>
5.2305384

> <CYS145-warhead dist mean (A)>
8.734444

> <CYS145-warhead dist stddev (A)>
0.9922649

$$$$
x2738
  -OEChem-05172015543D

 27 29  0     0  0  0  0  0  0999 V2000
    6.5019   -2.8107   21.8852 C   0  0  0  0  0  0  0  0  0  0  0  0
    7.8406   -0.8073   22.0624 C   0  0  0  0  0  0  0  0  0  0  0  0
    6.8404   -3.1527   23.1943 C   0  0  0  0  0  0  0  0  0  0  0  0
    8.1791   -1.1493   23.3716 C   0  0  0  0  0  0  0  0  0  0  0  0
    7.0020   -1.6380   21.3192 C   0  0  0  0  0  0  0  0  0  0  0  0
    7.6790   -2.3221   23.9376 C   0  0  0  0  0  0  0  0  0  0  0  0
    5.8217   -2.0160   19.0923 C   0  0  0  0  0  0  0  0  0  0  0  0
    8.8378   -1.9613   26.1402 C   0  0  0  0  0  0  0  0  0  0  0  0
    7.2912   -6.4349   28.8936 C   0  0  0  0  0  0  0  0  0  0  0  0
    7.5657   -2.7406   28.1046 C   0  0  0  0  0  0  0  0  0  0  0  0
    9.6001   -4.0417   27.2671 C   0  0  0  0  0  0  0  0  0  0  0  0
    7.4477   -3.9180   29.0663 C   0  0  0  0  0  0  0  0  0  0  0  0
    8.5625   -5.1588   27.2044 C   0  0  0  0  0  0  0  0  0  0  0  0
    6.4778   -0.0410   17.9833 C   0  0  0  0  0  0  0  0  0  0  0  0
    7.1974   -0.1134   19.3180 C   0  0  0  0  0  0  0  0  0  0  0  0
    8.9534   -2.6644   27.4597 C   0  0  0  0  0  0  0  0  0  0  0  0
    6.4559   -6.4005   30.1501 C   0  0  0  0  0  0  0  0  0  0  0  0
    5.7657   -1.2825   17.8936 N   0  0  0  0  0  0  0  0  0  0  0  0
    6.6567   -1.2886   19.9817 N   0  0  0  0  0  0  0  0  0  0  0  0
    7.7399   -5.2019   28.4160 N   0  0  0  0  0  0  0  0  0  0  0  0
    8.0226   -2.6688   25.2658 N   0  0  0  0  0  0  0  0  0  0  0  0
    5.2409   -3.0794   19.2649 O   0  0  0  0  0  0  0  0  0  0  0  0
    9.4184   -0.8990   25.9415 O   0  0  0  0  0  0  0  0  0  0  0  0
    7.5329   -7.5165   28.3526 O   0  0  0  0  0  0  0  0  0  0  0  0
    6.7233   -7.9322   30.9748 Cl  0  0  0  0  0  0  0  0  0  0  0  0
    5.2774   -1.5959   17.0606 H   0  0  0  0  0  0  0  0  0  0  0  0
    7.6189   -3.5384   25.6077 H   0  0  0  0  0  0  0  0  0  0  0  0
  1  3  2  0  0  0  0
  1  5  1  0  0  0  0
  2  4  1  0  0  0  0
  2  5  2  0  0  0  0
  3  6  1  0  0  0  0
  4  6  2  0  0  0  0
  5 19  1  0  0  0  0
  6 21  1  0  0  0  0
  7 18  1  0  0  0  0
  7 19  1  0  0  0  0
  7 22  2  0  0  0  0
  8 16  1  0  0  0  0
  8 21  1  0  0  0  0
  8 23  2  0  0  0  0
  9 17  1  0  0  0  0
  9 20  1  0  0  0  0
  9 24  2  0  0  0  0
 10 12  1  0  0  0  0
 10 16  1  0  0  0  0
 11 13  1  0  0  0  0
 11 16  1  0  0  0  0
 12 20  1  0  0  0  0
 13 20  1  0  0  0  0
 14 15  1  0  0  0  0
 14 18  1  0  0  0  0
 15 19  1  0  0  0  0
 17 25  1  0  0  0  0
 18 26  1  0  0  0  0
 21 27  1  0  0  0  0
M  END
> <ref_mols>
x2738_0

> <original SMILES>
O=C(C1CCN(C(CCl)=O)CC1)NC2=CC=C(N3C(NCC3)=O)C=C2

> <Chemgauss4>
-7.017734

> <ref_pdb>
x1334_0

> <CYS145-warhead dist minimum (A)>
9.699106

> <CYS145-warhead dist mean (A)>
13.066577

> <CYS145-warhead dist stddev (A)>
0.6207904

$$$$
x2766
  -OEChem-05172015543D

 27 29  0     0  0  0  0  0  0999 V2000
    6.5019   -2.8107   21.8852 C   0  0  0  0  0  0  0  0  0  0  0  0
    7.8406   -0.8073   22.0624 C   0  0  0  0  0  0  0  0  0  0  0  0
    6.8404   -3.1527   23.1943 C   0  0  0  0  0  0  0  0  0  0  0  0
    8.1791   -1.1493   23.3716 C   0  0  0  0  0  0  0  0  0  0  0  0
    7.0020   -1.6380   21.3192 C   0  0  0  0  0  0  0  0  0  0  0  0
    7.6790   -2.3221   23.9376 C   0  0  0  0  0  0  0  0  0  0  0  0
    5.8217   -2.0160   19.0923 C   0  0  0  0  0  0  0  0  0  0  0  0
    8.8378   -1.9613   26.1402 C   0  0  0  0  0  0  0  0  0  0  0  0
    7.2912   -6.4349   28.8936 C   0  0  0  0  0  0  0  0  0  0  0  0
    7.5657   -2.7406   28.1046 C   0  0  0  0  0  0  0  0  0  0  0  0
    9.6001   -4.0417   27.2671 C   0  0  0  0  0  0  0  0  0  0  0  0
    7.4477   -3.9180   29.0663 C   0  0  0  0  0  0  0  0  0  0  0  0
    8.5625   -5.1588   27.2044 C   0  0  0  0  0  0  0  0  0  0  0  0
    6.4778   -0.0410   17.9833 C   0  0  0  0  0  0  0  0  0  0  0  0
    7.1974   -0.1134   19.3180 C   0  0  0  0  0  0  0  0  0  0  0  0
    8.9534   -2.6644   27.4597 C   0  0  0  0  0  0  0  0  0  0  0  0
    6.4559   -6.4005   30.1501 C   0  0  0  0  0  0  0  0  0  0  0  0
    5.7657   -1.2825   17.8936 N   0  0  0  0  0  0  0  0  0  0  0  0
    6.6567   -1.2886   19.9817 N   0  0  0  0  0  0  0  0  0  0  0  0
    7.7399   -5.2019   28.4160 N   0  0  0  0  0  0  0  0  0  0  0  0
    8.0226   -2.6688   25.2658 N   0  0  0  0  0  0  0  0  0  0  0  0
    5.2409   -3.0794   19.2649 O   0  0  0  0  0  0  0  0  0  0  0  0
    9.4184   -0.8990   25.9415 O   0  0  0  0  0  0  0  0  0  0  0  0
    7.5329   -7.5165   28.3526 O   0  0  0  0  0  0  0  0  0  0  0  0
    6.7233   -7.9322   30.9748 Cl  0  0  0  0  0  0  0  0  0  0  0  0
    5.2774   -1.5959   17.0606 H   0  0  0  0  0  0  0  0  0  0  0  0
    7.6189   -3.5384   25.6077 H   0  0  0  0  0  0  0  0  0  0  0  0
  1  3  2  0  0  0  0
  1  5  1  0  0  0  0
  2  4  1  0  0  0  0
  2  5  2  0  0  0  0
  3  6  1  0  0  0  0
  4  6  2  0  0  0  0
  5 19  1  0  0  0  0
  6 21  1  0  0  0  0
  7 18  1  0  0  0  0
  7 19  1  0  0  0  0
  7 22  2  0  0  0  0
  8 16  1  0  0  0  0
  8 21  1  0  0  0  0
  8 23  2  0  0  0  0
  9 17  1  0  0  0  0
  9 20  1  0  0  0  0
  9 24  2  0  0  0  0
 10 12  1  0  0  0  0
 10 16  1  0  0  0  0
 11 13  1  0  0  0  0
 11 16  1  0  0  0  0
 12 20  1  0  0  0  0
 13 20  1  0  0  0  0
 14 15  1  0  0  0  0
 14 18  1  0  0  0  0
 15 19  1  0  0  0  0
 17 25  1  0  0  0  0
 18 26  1  0  0  0  0
 21 27  1  0  0  0  0
M  END
> <ref_mols>
x2766_0

> <original SMILES>
O=C(C1CCN(C(CCl)=O)CC1)NC2=CC=C(N3C(NCC3)=O)C=C2

> <Chemgauss4>
-7.017734

> <ref_pdb>
x1334_0

> <CYS145-warhead dist minimum (A)>
10.1186695

> <CYS145-warhead dist mean (A)>
12.272972

> <CYS145-warhead dist stddev (A)>
0.5541588

$$$$
x2753
  -OEChem-05172015543D

 27 29  0     0  0  0  0  0  0999 V2000
    6.5019   -2.8107   21.8852 C   0  0  0  0  0  0  0  0  0  0  0  0
    7.8406   -0.8073   22.0624 C   0  0  0  0  0  0  0  0  0  0  0  0
    6.8404   -3.1527   23.1943 C   0  0  0  0  0  0  0  0  0  0  0  0
    8.1791   -1.1493   23.3716 C   0  0  0  0  0  0  0  0  0  0  0  0
    7.0020   -1.6380   21.3192 C   0  0  0  0  0  0  0  0  0  0  0  0
    7.6790   -2.3221   23.9376 C   0  0  0  0  0  0  0  0  0  0  0  0
    5.8217   -2.0160   19.0923 C   0  0  0  0  0  0  0  0  0  0  0  0
    8.8378   -1.9613   26.1402 C   0  0  0  0  0  0  0  0  0  0  0  0
    7.2912   -6.4349   28.8936 C   0  0  0  0  0  0  0  0  0  0  0  0
    7.5657   -2.7406   28.1046 C   0  0  0  0  0  0  0  0  0  0  0  0
    9.6001   -4.0417   27.2671 C   0  0  0  0  0  0  0  0  0  0  0  0
    7.4477   -3.9180   29.0663 C   0  0  0  0  0  0  0  0  0  0  0  0
    8.5625   -5.1588   27.2044 C   0  0  0  0  0  0  0  0  0  0  0  0
    6.4778   -0.0410   17.9833 C   0  0  0  0  0  0  0  0  0  0  0  0
    7.1974   -0.1134   19.3180 C   0  0  0  0  0  0  0  0  0  0  0  0
    8.9534   -2.6644   27.4597 C   0  0  0  0  0  0  0  0  0  0  0  0
    6.4559   -6.4005   30.1501 C   0  0  0  0  0  0  0  0  0  0  0  0
    5.7657   -1.2825   17.8936 N   0  0  0  0  0  0  0  0  0  0  0  0
    6.6567   -1.2886   19.9817 N   0  0  0  0  0  0  0  0  0  0  0  0
    7.7399   -5.2019   28.4160 N   0  0  0  0  0  0  0  0  0  0  0  0
    8.0226   -2.6688   25.2658 N   0  0  0  0  0  0  0  0  0  0  0  0
    5.2409   -3.0794   19.2649 O   0  0  0  0  0  0  0  0  0  0  0  0
    9.4184   -0.8990   25.9415 O   0  0  0  0  0  0  0  0  0  0  0  0
    7.5329   -7.5165   28.3526 O   0  0  0  0  0  0  0  0  0  0  0  0
    6.7233   -7.9322   30.9748 Cl  0  0  0  0  0  0  0  0  0  0  0  0
    5.2774   -1.5959   17.0606 H   0  0  0  0  0  0  0  0  0  0  0  0
    7.6189   -3.5384   25.6077 H   0  0  0  0  0  0  0  0  0  0  0  0
  1  3  2  0  0  0  0
  1  5  1  0  0  0  0
  2  4  1  0  0  0  0
  2  5  2  0  0  0  0
  3  6  1  0  0  0  0
  4  6  2  0  0  0  0
  5 19  1  0  0  0  0
  6 21  1  0  0  0  0
  7 18  1  0  0  0  0
  7 19  1  0  0  0  0
  7 22  2  0  0  0  0
  8 16  1  0  0  0  0
  8 21  1  0  0  0  0
  8 23  2  0  0  0  0
  9 17  1  0  0  0  0
  9 20  1  0  0  0  0
  9 24  2  0  0  0  0
 10 12  1  0  0  0  0
 10 16  1  0  0  0  0
 11 13  1  0  0  0  0
 11 16  1  0  0  0  0
 12 20  1  0  0  0  0
 13 20  1  0  0  0  0
 14 15  1  0  0  0  0
 14 18  1  0  0  0  0
 15 19  1  0  0  0  0
 17 25  1  0  0  0  0
 18 26  1  0  0  0  0
 21 27  1  0  0  0  0
M  END
> <ref_mols>
x2753_0

> <original SMILES>
O=C(C1CCN(C(CCl)=O)CC1)NC2=CC=C(N3C(NCC3)=O)C=C2

> <Chemgauss4>
-7.017734

> <ref_pdb>
x1334_0

> <CYS145-warhead dist minimum (A)>
8.21606

> <CYS145-warhead dist mean (A)>
11.183755

> <CYS145-warhead dist stddev (A)>
0.5878422

$$$$
x2038
  -OEChem-05172015543D

 27 29  0     0  0  0  0  0  0999 V2000
    6.5019   -2.8107   21.8852 C   0  0  0  0  0  0  0  0  0  0  0  0
    7.8406   -0.8073   22.0624 C   0  0  0  0  0  0  0  0  0  0  0  0
    6.8404   -3.1527   23.1943 C   0  0  0  0  0  0  0  0  0  0  0  0
    8.1791   -1.1493   23.3716 C   0  0  0  0  0  0  0  0  0  0  0  0
    7.0020   -1.6380   21.3192 C   0  0  0  0  0  0  0  0  0  0  0  0
    7.6790   -2.3221   23.9376 C   0  0  0  0  0  0  0  0  0  0  0  0
    5.8217   -2.0160   19.0923 C   0  0  0  0  0  0  0  0  0  0  0  0
    8.8378   -1.9613   26.1402 C   0  0  0  0  0  0  0  0  0  0  0  0
    7.2912   -6.4349   28.8936 C   0  0  0  0  0  0  0  0  0  0  0  0
    7.5657   -2.7406   28.1046 C   0  0  0  0  0  0  0  0  0  0  0  0
    9.6001   -4.0417   27.2671 C   0  0  0  0  0  0  0  0  0  0  0  0
    7.4477   -3.9180   29.0663 C   0  0  0  0  0  0  0  0  0  0  0  0
    8.5625   -5.1588   27.2044 C   0  0  0  0  0  0  0  0  0  0  0  0
    6.4778   -0.0410   17.9833 C   0  0  0  0  0  0  0  0  0  0  0  0
    7.1974   -0.1134   19.3180 C   0  0  0  0  0  0  0  0  0  0  0  0
    8.9534   -2.6644   27.4597 C   0  0  0  0  0  0  0  0  0  0  0  0
    6.4559   -6.4005   30.1501 C   0  0  0  0  0  0  0  0  0  0  0  0
    5.7657   -1.2825   17.8936 N   0  0  0  0  0  0  0  0  0  0  0  0
    6.6567   -1.2886   19.9817 N   0  0  0  0  0  0  0  0  0  0  0  0
    7.7399   -5.2019   28.4160 N   0  0  0  0  0  0  0  0  0  0  0  0
    8.0226   -2.6688   25.2658 N   0  0  0  0  0  0  0  0  0  0  0  0
    5.2409   -3.0794   19.2649 O   0  0  0  0  0  0  0  0  0  0  0  0
    9.4184   -0.8990   25.9415 O   0  0  0  0  0  0  0  0  0  0  0  0
    7.5329   -7.5165   28.3526 O   0  0  0  0  0  0  0  0  0  0  0  0
    6.7233   -7.9322   30.9748 Cl  0  0  0  0  0  0  0  0  0  0  0  0
    5.2774   -1.5959   17.0606 H   0  0  0  0  0  0  0  0  0  0  0  0
    7.6189   -3.5384   25.6077 H   0  0  0  0  0  0  0  0  0  0  0  0
  1  3  2  0  0  0  0
  1  5  1  0  0  0  0
  2  4  1  0  0  0  0
  2  5  2  0  0  0  0
  3  6  1  0  0  0  0
  4  6  2  0  0  0  0
  5 19  1  0  0  0  0
  6 21  1  0  0  0  0
  7 18  1  0  0  0  0
  7 19  1  0  0  0  0
  7 22  2  0  0  0  0
  8 16  1  0  0  0  0
  8 21  1  0  0  0  0
  8 23  2  0  0  0  0
  9 17  1  0  0  0  0
  9 20  1  0  0  0  0
  9 24  2  0  0  0  0
 10 12  1  0  0  0  0
 10 16  1  0  0  0  0
 11 13  1  0  0  0  0
 11 16  1  0  0  0  0
 12 20  1  0  0  0  0
 13 20  1  0  0  0  0
 14 15  1  0  0  0  0
 14 18  1  0  0  0  0
 15 19  1  0  0  0  0
 17 25  1  0  0  0  0
 18 26  1  0  0  0  0
 21 27  1  0  0  0  0
M  END
> <ref_mols>
x2038_0

> <original SMILES>
O=C(C1CCN(C(CCl)=O)CC1)NC2=CC=C(N3C(NCC3)=O)C=C2

> <Chemgauss4>
-7.017734

> <ref_pdb>
x1334_0

$$$$
x0797
  -OEChem-05172015543D

 17 17  0     0  0  0  0  0  0999 V2000
    8.8884   -2.2773   22.4805 C   0  0  0  0  0  0  0  0  0  0  0  0
    9.0730   -3.4104   23.3244 C   0  0  0  0  0  0  0  0  0  0  0  0
    8.0129   -4.2871   23.2529 C   0  0  0  0  0  0  0  0  0  0  0  0
    7.6941   -2.3313   21.7959 C   0  0  0  0  0  0  0  0  0  0  0  0
    9.8166   -1.1838   22.3331 C   0  0  0  0  0  0  0  0  0  0  0  0
    6.2614   -1.7997   19.8395 C   0  0  0  0  0  0  0  0  0  0  0  0
   10.2663   -3.6237   24.1807 C   0  0  0  0  0  0  0  0  0  0  0  0
    7.8178   -5.5704   23.9650 C   0  0  0  0  0  0  0  0  0  0  0  0
   11.4983    0.0999   23.4574 C   0  0  0  0  0  0  0  0  0  0  0  0
    5.8254   -0.5910   19.0442 C   0  0  0  0  0  0  0  0  0  0  0  0
    7.1269   -1.4689   20.8969 N   0  0  0  0  0  0  0  0  0  0  0  0
    9.9597   -0.5049   21.2990 O   0  0  0  0  0  0  0  0  0  0  0  0
    5.8745   -2.9208   19.5209 O   0  0  0  0  0  0  0  0  0  0  0  0
   10.5409   -0.9643   23.4785 O   0  0  0  0  0  0  0  0  0  0  0  0
    6.8014   -3.7434   22.1716 S   0  0  0  0  0  0  0  0  0  0  0  0
    7.2781    0.1658   18.3717 Cl  0  0  0  0  0  0  0  0  0  0  0  0
    7.3588   -0.4713   21.0068 H   0  0  0  0  0  0  0  0  0  0  0  0
  1  2  1  0  0  0  0
  1  4  2  0  0  0  0
  1  5  1  0  0  0  0
  2  3  2  0  0  0  0
  2  7  1  0  0  0  0
  3  8  1  0  0  0  0
  3 15  1  0  0  0  0
  4 11  1  0  0  0  0
  4 15  1  0  0  0  0
  5 12  2  0  0  0  0
  5 14  1  0  0  0  0
  6 10  1  0  0  0  0
  6 11  1  0  0  0  0
  6 13  2  0  0  0  0
  9 14  1  0  0  0  0
 10 16  1  0  0  0  0
 11 17  1  0  0  0  0
M  END
> <ref_mols>
x0797_0

> <original SMILES>
COC(=O)c1c(C)c(C)sc1NC(=O)CCl

> <Chemgauss4>
-7.008154

> <ref_pdb>
x1418_0

$$$$
x1450
  -OEChem-05172015543D

 17 17  0     0  0  0  0  0  0999 V2000
    8.8884   -2.2773   22.4805 C   0  0  0  0  0  0  0  0  0  0  0  0
    9.0730   -3.4104   23.3244 C   0  0  0  0  0  0  0  0  0  0  0  0
    8.0129   -4.2871   23.2529 C   0  0  0  0  0  0  0  0  0  0  0  0
    7.6941   -2.3313   21.7959 C   0  0  0  0  0  0  0  0  0  0  0  0
    9.8166   -1.1838   22.3331 C   0  0  0  0  0  0  0  0  0  0  0  0
    6.2614   -1.7997   19.8395 C   0  0  0  0  0  0  0  0  0  0  0  0
   10.2663   -3.6237   24.1807 C   0  0  0  0  0  0  0  0  0  0  0  0
    7.8178   -5.5704   23.9650 C   0  0  0  0  0  0  0  0  0  0  0  0
   11.4983    0.0999   23.4574 C   0  0  0  0  0  0  0  0  0  0  0  0
    5.8254   -0.5910   19.0442 C   0  0  0  0  0  0  0  0  0  0  0  0
    7.1269   -1.4689   20.8969 N   0  0  0  0  0  0  0  0  0  0  0  0
    9.9597   -0.5049   21.2990 O   0  0  0  0  0  0  0  0  0  0  0  0
    5.8745   -2.9208   19.5209 O   0  0  0  0  0  0  0  0  0  0  0  0
   10.5409   -0.9643   23.4785 O   0  0  0  0  0  0  0  0  0  0  0  0
    6.8014   -3.7434   22.1716 S   0  0  0  0  0  0  0  0  0  0  0  0
    7.2781    0.1658   18.3717 Cl  0  0  0  0  0  0  0  0  0  0  0  0
    7.3588   -0.4713   21.0068 H   0  0  0  0  0  0  0  0  0  0  0  0
  1  2  1  0  0  0  0
  1  4  2  0  0  0  0
  1  5  1  0  0  0  0
  2  3  2  0  0  0  0
  2  7  1  0  0  0  0
  3  8  1  0  0  0  0
  3 15  1  0  0  0  0
  4 11  1  0  0  0  0
  4 15  1  0  0  0  0
  5 12  2  0  0  0  0
  5 14  1  0  0  0  0
  6 10  1  0  0  0  0
  6 11  1  0  0  0  0
  6 13  2  0  0  0  0
  9 14  1  0  0  0  0
 10 16  1  0  0  0  0
 11 17  1  0  0  0  0
M  END
> <ref_mols>
x1450_0

> <original SMILES>
COC(=O)c1c(C)c(C)sc1NC(=O)CCl

> <Chemgauss4>
-7.008154

> <ref_pdb>
x1418_0

$$$$
x0723
  -OEChem-05172015543D

 17 17  0     0  0  0  0  0  0999 V2000
    8.8884   -2.2773   22.4805 C   0  0  0  0  0  0  0  0  0  0  0  0
    9.0730   -3.4104   23.3244 C   0  0  0  0  0  0  0  0  0  0  0  0
    8.0129   -4.2871   23.2529 C   0  0  0  0  0  0  0  0  0  0  0  0
    7.6941   -2.3313   21.7959 C   0  0  0  0  0  0  0  0  0  0  0  0
    9.8166   -1.1838   22.3331 C   0  0  0  0  0  0  0  0  0  0  0  0
    6.2614   -1.7997   19.8395 C   0  0  0  0  0  0  0  0  0  0  0  0
   10.2663   -3.6237   24.1807 C   0  0  0  0  0  0  0  0  0  0  0  0
    7.8178   -5.5704   23.9650 C   0  0  0  0  0  0  0  0  0  0  0  0
   11.4983    0.0999   23.4574 C   0  0  0  0  0  0  0  0  0  0  0  0
    5.8254   -0.5910   19.0442 C   0  0  0  0  0  0  0  0  0  0  0  0
    7.1269   -1.4689   20.8969 N   0  0  0  0  0  0  0  0  0  0  0  0
    9.9597   -0.5049   21.2990 O   0  0  0  0  0  0  0  0  0  0  0  0
    5.8745   -2.9208   19.5209 O   0  0  0  0  0  0  0  0  0  0  0  0
   10.5409   -0.9643   23.4785 O   0  0  0  0  0  0  0  0  0  0  0  0
    6.8014   -3.7434   22.1716 S   0  0  0  0  0  0  0  0  0  0  0  0
    7.2781    0.1658   18.3717 Cl  0  0  0  0  0  0  0  0  0  0  0  0
    7.3588   -0.4713   21.0068 H   0  0  0  0  0  0  0  0  0  0  0  0
  1  2  1  0  0  0  0
  1  4  2  0  0  0  0
  1  5  1  0  0  0  0
  2  3  2  0  0  0  0
  2  7  1  0  0  0  0
  3  8  1  0  0  0  0
  3 15  1  0  0  0  0
  4 11  1  0  0  0  0
  4 15  1  0  0  0  0
  5 12  2  0  0  0  0
  5 14  1  0  0  0  0
  6 10  1  0  0  0  0
  6 11  1  0  0  0  0
  6 13  2  0  0  0  0
  9 14  1  0  0  0  0
 10 16  1  0  0  0  0
 11 17  1  0  0  0  0
M  END
> <ref_mols>
x0723_0

> <original SMILES>
COC(=O)c1c(C)c(C)sc1NC(=O)CCl

> <Chemgauss4>
-7.008154

> <ref_pdb>
x1418_0

> <CYS145-warhead dist minimum (A)>
4.881182

> <CYS145-warhead dist mean (A)>
6.377236

> <CYS145-warhead dist stddev (A)>
0.42458162

$$$$
x1398
  -OEChem-05172015543D

 17 17  0     0  0  0  0  0  0999 V2000
    8.8884   -2.2773   22.4805 C   0  0  0  0  0  0  0  0  0  0  0  0
    9.0730   -3.4104   23.3244 C   0  0  0  0  0  0  0  0  0  0  0  0
    8.0129   -4.2871   23.2529 C   0  0  0  0  0  0  0  0  0  0  0  0
    7.6941   -2.3313   21.7959 C   0  0  0  0  0  0  0  0  0  0  0  0
    9.8166   -1.1838   22.3331 C   0  0  0  0  0  0  0  0  0  0  0  0
    6.2614   -1.7997   19.8395 C   0  0  0  0  0  0  0  0  0  0  0  0
   10.2663   -3.6237   24.1807 C   0  0  0  0  0  0  0  0  0  0  0  0
    7.8178   -5.5704   23.9650 C   0  0  0  0  0  0  0  0  0  0  0  0
   11.4983    0.0999   23.4574 C   0  0  0  0  0  0  0  0  0  0  0  0
    5.8254   -0.5910   19.0442 C   0  0  0  0  0  0  0  0  0  0  0  0
    7.1269   -1.4689   20.8969 N   0  0  0  0  0  0  0  0  0  0  0  0
    9.9597   -0.5049   21.2990 O   0  0  0  0  0  0  0  0  0  0  0  0
    5.8745   -2.9208   19.5209 O   0  0  0  0  0  0  0  0  0  0  0  0
   10.5409   -0.9643   23.4785 O   0  0  0  0  0  0  0  0  0  0  0  0
    6.8014   -3.7434   22.1716 S   0  0  0  0  0  0  0  0  0  0  0  0
    7.2781    0.1658   18.3717 Cl  0  0  0  0  0  0  0  0  0  0  0  0
    7.3588   -0.4713   21.0068 H   0  0  0  0  0  0  0  0  0  0  0  0
  1  2  1  0  0  0  0
  1  4  2  0  0  0  0
  1  5  1  0  0  0  0
  2  3  2  0  0  0  0
  2  7  1  0  0  0  0
  3  8  1  0  0  0  0
  3 15  1  0  0  0  0
  4 11  1  0  0  0  0
  4 15  1  0  0  0  0
  5 12  2  0  0  0  0
  5 14  1  0  0  0  0
  6 10  1  0  0  0  0
  6 11  1  0  0  0  0
  6 13  2  0  0  0  0
  9 14  1  0  0  0  0
 10 16  1  0  0  0  0
 11 17  1  0  0  0  0
M  END
> <ref_mols>
x1398_0

> <original SMILES>
COC(=O)c1c(C)c(C)sc1NC(=O)CCl

> <Chemgauss4>
-7.008154

> <ref_pdb>
x1418_0

$$$$
x0310
  -OEChem-05172015543D

  9  9  0     0  0  0  0  0  0999 V2000
   13.6463   -0.3959   23.7541 C   0  0  0  0  0  0  0  0  0  0  0  0
   12.5649    0.4612   23.7334 C   0  0  0  0  0  0  0  0  0  0  0  0
   13.5130   -1.5434   22.9993 C   0  0  0  0  0  0  0  0  0  0  0  0
   11.4278   -0.9262   22.3373 C   0  0  0  0  0  0  0  0  0  0  0  0
    9.1338   -0.3271   21.5599 C   0  0  0  0  0  0  0  0  0  0  0  0
   11.4357    0.2266   23.0334 N   0  0  0  0  0  0  0  0  0  0  0  0
   12.4137   -1.8416   22.2761 N   0  0  0  0  0  0  0  0  0  0  0  0
   10.2616   -1.2044   21.5910 N   0  0  0  0  0  0  0  0  0  0  0  0
   10.2505   -2.0607   21.0713 H   0  0  0  0  0  0  0  0  0  0  0  0
  1  2  1  0  0  0  0
  1  3  2  0  0  0  0
  2  6  2  0  0  0  0
  3  7  1  0  0  0  0
  4  6  1  0  0  0  0
  4  7  2  0  0  0  0
  4  8  1  0  0  0  0
  5  8  1  0  0  0  0
  8  9  1  0  0  0  0
M  END
> <ref_mols>
x0310_0

> <original SMILES>
CNC=1N=CC=CN1

> <Chemgauss4>
-7.000005

> <ref_pdb>
x1093_0

$$$$
x0481
  -OEChem-05172015543D

 18 18  0     0  0  0  0  0  0999 V2000
   12.4254    1.6522   23.0233 C   0  0  0  0  0  0  0  0  0  0  0  0
   10.9602    1.4011   24.9279 C   0  0  0  0  0  0  0  0  0  0  0  0
   11.7820    2.8427   22.6853 C   0  0  0  0  0  0  0  0  0  0  0  0
   10.3169    2.5917   24.5899 C   0  0  0  0  0  0  0  0  0  0  0  0
   12.0145    0.9313   24.1446 C   0  0  0  0  0  0  0  0  0  0  0  0
   10.7278    3.3125   23.4685 C   0  0  0  0  0  0  0  0  0  0  0  0
   12.6859   -0.3094   24.4975 C   0  0  0  0  0  0  0  0  0  0  0  0
   13.9300   -3.0623   23.3994 C   0  0  0  0  0  0  0  0  0  0  0  0
   12.0902    5.8918   24.2506 C   0  0  0  0  0  0  0  0  0  0  0  0
   12.7133   -2.8009   24.2204 C   0  0  0  0  0  0  0  0  0  0  0  0
   10.0686    4.5308   23.1221 N   0  0  0  0  0  0  0  0  0  0  0  0
   12.1716   -1.4892   23.9470 N   0  0  0  0  0  0  0  0  0  0  0  0
   13.6591   -0.3025   25.2722 O   0  0  0  0  0  0  0  0  0  0  0  0
    9.9527    7.0939   23.3824 O   0  0  0  0  0  0  0  0  0  0  0  0
    9.7783    5.6767   25.4576 O   0  0  0  0  0  0  0  0  0  0  0  0
   10.3154    5.9047   24.1307 S   0  0  0  0  0  0  0  0  0  0  0  0
   10.0624    4.7365   22.1094 H   0  0  0  0  0  0  0  0  0  0  0  0
   11.3372   -1.4452   23.3712 H   0  0  0  0  0  0  0  0  0  0  0  0
  1  3  2  0  0  0  0
  1  5  1  0  0  0  0
  2  4  1  0  0  0  0
  2  5  2  0  0  0  0
  3  6  1  0  0  0  0
  4  6  2  0  0  0  0
  5  7  1  0  0  0  0
  6 11  1  0  0  0  0
  7 12  1  0  0  0  0
  7 13  2  0  0  0  0
  8 10  1  0  0  0  0
  9 16  1  0  0  0  0
 10 12  1  0  0  0  0
 11 16  1  0  0  0  0
 14 16  2  0  0  0  0
 15 16  2  0  0  0  0
 11 17  1  0  0  0  0
 12 18  1  0  0  0  0
M  END
> <ref_mols>
x0481_0

> <original SMILES>
CCNC(=O)C=1C=CC(NS(=O)(=O)C)=CC1

> <Chemgauss4>
-6.998604

> <ref_pdb>
x0161_0

$$$$
x0450
  -OEChem-05172015543D

 15 15  0     0  0  0  0  0  0999 V2000
   13.1207   -2.1491   22.4415 C   0  0  0  0  0  0  0  0  0  0  0  0
   12.2429   -0.1166   23.6304 C   0  0  0  0  0  0  0  0  0  0  0  0
   14.4442   -1.9107   23.1596 C   0  0  0  0  0  0  0  0  0  0  0  0
   13.6154    0.0081   24.2821 C   0  0  0  0  0  0  0  0  0  0  0  0
   12.3655   -0.8327   22.2892 C   0  0  0  0  0  0  0  0  0  0  0  0
    7.7077    0.7882   21.3634 C   0  0  0  0  0  0  0  0  0  0  0  0
    8.3497   -1.6245   21.5442 C   0  0  0  0  0  0  0  0  0  0  0  0
   10.1581    0.1057   21.6138 C   0  0  0  0  0  0  0  0  0  0  0  0
    8.7834   -0.2474   21.0311 C   0  0  0  0  0  0  0  0  0  0  0  0
   11.0087   -1.1039   21.7511 N   0  3  0  0  0  0  0  0  0  0  0  0
   14.2288   -1.2744   24.4201 O   0  0  0  0  0  0  0  0  0  0  0  0
    8.8833   -0.3261   19.6068 O   0  0  0  0  0  0  0  0  0  0  0  0
   11.0996   -1.5618   20.8356 H   0  0  0  0  0  0  0  0  0  0  0  0
   10.5385   -1.7833   22.3623 H   0  0  0  0  0  0  0  0  0  0  0  0
    8.0101   -0.5978   19.2881 H   0  0  0  0  0  0  0  0  0  0  0  0
  1  3  1  0  0  0  0
  1  5  1  0  0  0  0
  2  4  1  0  0  0  0
  2  5  1  0  0  0  0
  3 11  1  0  0  0  0
  4 11  1  0  0  0  0
  5 10  1  0  0  0  0
  6  9  1  0  0  0  0
  7  9  1  0  0  0  0
  8  9  1  0  0  0  0
  8 10  1  0  0  0  0
  9 12  1  0  0  0  0
 10 13  1  0  0  0  0
 10 14  1  0  0  0  0
 12 15  1  0  0  0  0
M  CHG  1  10   1
M  END
> <ref_mols>
x0450_0

> <original SMILES>
CC(C)(O)CNC1CCOCC1

> <Chemgauss4>
-6.995928

> <ref_pdb>
x0678_0

$$$$
x1219
  -OEChem-05172015543D

 14 14  0     1  0  0  0  0  0999 V2000
   12.8335   -1.3546   22.5649 C   0  0  0  0  0  0  0  0  0  0  0  0
   12.4460    5.0549   22.9618 C   0  0  0  0  0  0  0  0  0  0  0  0
   13.9110    3.4076   21.8216 C   0  0  0  0  0  0  0  0  0  0  0  0
   11.5295    3.9009   23.3245 C   0  0  0  0  0  0  0  0  0  0  0  0
   12.9199    2.3247   22.2347 C   0  0  1  0  0  0  0  0  0  0  0  0
   11.7275   -2.2192   23.0723 C   0  0  0  0  0  0  0  0  0  0  0  0
   13.6312    0.9981   22.4595 C   0  0  0  0  0  0  0  0  0  0  0  0
   12.6900    0.0009   22.8502 N   0  0  0  0  0  0  0  0  0  0  0  0
   13.1670    4.6994   21.7022 N   0  3  0  0  0  0  0  0  0  0  0  0
   13.7660   -1.8630   21.9538 O   0  0  0  0  0  0  0  0  0  0  0  0
   12.2787    2.6911   23.4637 O   0  0  0  0  0  0  0  0  0  0  0  0
   11.8596    0.2991   23.3713 H   0  0  0  0  0  0  0  0  0  0  0  0
   12.4974    4.6436   20.9221 H   0  0  0  0  0  0  0  0  0  0  0  0
   13.8230    5.4534   21.4563 H   0  0  0  0  0  0  0  0  0  0  0  0
  1  6  1  0  0  0  0
  1  8  1  0  0  0  0
  1 10  2  0  0  0  0
  2  4  1  0  0  0  0
  2  9  1  0  0  0  0
  3  5  1  0  0  0  0
  3  9  1  0  0  0  0
  4 11  1  0  0  0  0
  5  7  1  0  0  0  0
  5 11  1  0  0  0  0
  7  8  1  0  0  0  0
  8 12  1  0  0  0  0
  9 13  1  0  0  0  0
  9 14  1  0  0  0  0
M  CHG  1   9   1
M  END
> <ref_mols>
x1219_0

> <original SMILES>
CC(=O)NCC1CNCCO1

> <Chemgauss4>
-6.994680

> <ref_pdb>
x0195_0

$$$$
x0232
  -OEChem-05172015543D

 10 10  0     0  0  0  0  0  0999 V2000
   13.8611   -0.0935   22.9023 C   0  0  0  0  0  0  0  0  0  0  0  0
   14.3496   -1.2027   22.2519 C   0  0  0  0  0  0  0  0  0  0  0  0
   12.2378   -1.5972   22.6184 C   0  0  0  0  0  0  0  0  0  0  0  0
   12.4897   -0.3498   23.1405 C   0  0  0  0  0  0  0  0  0  0  0  0
   11.5217    0.4853   23.7865 C   0  0  0  0  0  0  0  0  0  0  0  0
   12.5830    3.6521   22.9492 C   0  0  0  0  0  0  0  0  0  0  0  0
   11.4994    2.8863   23.6780 C   0  0  0  0  0  0  0  0  0  0  0  0
   10.3187    0.1926   23.9635 O   0  0  0  0  0  0  0  0  0  0  0  0
   13.3664   -2.1239   22.0749 O   0  0  0  0  0  0  0  0  0  0  0  0
   12.0580    1.6802   24.2098 O   0  0  0  0  0  0  0  0  0  0  0  0
  1  2  2  0  0  0  0
  1  4  1  0  0  0  0
  2  9  1  0  0  0  0
  3  4  2  0  0  0  0
  3  9  1  0  0  0  0
  4  5  1  0  0  0  0
  5  8  2  0  0  0  0
  5 10  1  0  0  0  0
  6  7  1  0  0  0  0
  7 10  1  0  0  0  0
M  END
> <ref_mols>
x0232_0

> <original SMILES>
CCOC(=O)C=1C=COC1

> <Chemgauss4>
-6.993886

> <ref_pdb>
x0195_0

$$$$
x0258
  -OEChem-05172015543D

 13 13  0     1  0  0  0  0  0999 V2000
   14.1417   -1.1423   24.4432 C   0  0  0  0  0  0  0  0  0  0  0  0
   14.4028   -2.0458   23.2425 C   0  0  0  0  0  0  0  0  0  0  0  0
   12.8383   -0.3503   24.4450 C   0  0  0  0  0  0  0  0  0  0  0  0
   13.9458   -1.4846   21.9004 C   0  0  0  0  0  0  0  0  0  0  0  0
   11.6184   -1.1067   23.9264 C   0  0  0  0  0  0  0  0  0  0  0  0
   12.4819   -1.7993   21.5956 C   0  0  0  0  0  0  0  0  0  0  0  0
   11.4522   -1.0044   22.4043 C   0  0  0  0  0  0  0  0  0  0  0  0
    9.5244   -2.3463   23.0318 C   0  0  0  0  0  0  0  0  0  0  0  0
    8.2869    0.4447   22.6891 C   0  0  0  0  0  0  0  0  0  0  0  0
   10.1179   -1.4309   22.0284 N   0  0  1  0  0  0  0  0  0  0  0  0
    9.8987    0.7564   20.6578 O   0  0  0  0  0  0  0  0  0  0  0  0
    8.0783   -0.9730   20.5053 O   0  0  0  0  0  0  0  0  0  0  0  0
    9.0926   -0.2792   21.2763 S   0  0  0  0  0  0  0  0  0  0  0  0
  1  2  1  0  0  0  0
  1  3  1  0  0  0  0
  2  4  1  0  0  0  0
  3  5  1  0  0  0  0
  4  6  1  0  0  0  0
  5  7  1  0  0  0  0
  6  7  1  0  0  0  0
  7 10  1  0  0  0  0
  8 10  1  0  0  0  0
  9 13  1  0  0  0  0
 10 13  1  0  0  0  0
 11 13  2  0  0  0  0
 12 13  2  0  0  0  0
M  END
> <ref_mols>
x0258_0

> <original SMILES>
CN(C1CCCCCC1)S(=O)(=O)C

> <Chemgauss4>
-6.987010

> <ref_pdb>
x0678_0

$$$$
x0518
  -OEChem-05172015543D

 15 16  0     1  0  0  0  0  0999 V2000
   12.4717   -1.2849   22.3357 C   0  0  0  0  0  0  0  0  0  0  0  0
   12.7424   -0.1666   23.1786 C   0  0  0  0  0  0  0  0  0  0  0  0
   11.7369    0.7336   23.7589 C   0  0  0  0  0  0  0  0  0  0  0  0
   12.8146    2.6986   22.5575 C   0  0  0  0  0  0  0  0  0  0  0  0
   11.2383    4.3471   24.2774 C   0  0  0  0  0  0  0  0  0  0  0  0
   10.7012    2.9780   23.8581 C   0  0  1  0  0  0  0  0  0  0  0  0
   13.2320    4.0826   23.0550 C   0  0  1  0  0  0  0  0  0  0  0  0
    9.6609    3.1002   22.7407 C   0  0  0  0  0  0  0  0  0  0  0  0
   14.1190    4.7836   22.0351 C   0  0  0  0  0  0  0  0  0  0  0  0
   13.5426   -1.9660   21.9215 N   0  0  0  0  0  0  0  0  0  0  0  0
   14.0318    0.0548   23.4446 N   0  0  0  0  0  0  0  0  0  0  0  0
   11.8003    2.0945   23.4350 N   0  0  0  0  0  0  0  0  0  0  0  0
   10.8969    0.2110   24.4902 O   0  0  0  0  0  0  0  0  0  0  0  0
   12.0777    4.9002   23.2649 O   0  0  0  0  0  0  0  0  0  0  0  0
   14.8400   -1.1606   22.6167 S   0  0  0  0  0  0  0  0  0  0  0  0
  1  2  1  0  0  0  0
  1 10  2  0  0  0  0
  2  3  1  0  0  0  0
  2 11  2  0  0  0  0
  3 12  1  0  0  0  0
  3 13  2  0  0  0  0
  4  7  1  0  0  0  0
  4 12  1  0  0  0  0
  5  6  1  0  0  0  0
  5 14  1  0  0  0  0
  6  8  1  0  0  0  0
  6 12  1  0  0  0  0
  7  9  1  0  0  0  0
  7 14  1  0  0  0  0
 10 15  1  0  0  0  0
 11 15  1  0  0  0  0
M  END
> <ref_mols>
x0518_0

> <original SMILES>
CC1CN(C(C)CO1)C(=O)C=2C=NSN2

> <Chemgauss4>
-6.983812

> <ref_pdb>
x0195_0

$$$$
x0960
  -OEChem-05172015543D

 10 10  0     0  0  0  0  0  0999 V2000
   12.7836   -2.1285   23.1199 C   0  0  0  0  0  0  0  0  0  0  0  0
   12.0611    0.0686   22.4603 C   0  0  0  0  0  0  0  0  0  0  0  0
   14.0813   -1.6428   23.1202 C   0  0  0  0  0  0  0  0  0  0  0  0
   11.7600   -1.2500   22.7825 C   0  0  0  0  0  0  0  0  0  0  0  0
   13.3911    0.4560   22.4902 C   0  0  0  0  0  0  0  0  0  0  0  0
   13.4162    4.1050   22.7712 C   0  0  0  0  0  0  0  0  0  0  0  0
   13.7515    1.8635   22.1498 C   0  0  0  0  0  0  0  0  0  0  0  0
   14.4126   -0.3687   22.8129 N   0  0  0  0  0  0  0  0  0  0  0  0
   13.1034    2.7483   23.0549 O   0  0  0  0  0  0  0  0  0  0  0  0
    9.9679   -1.8470   22.7646 Br  0  0  0  0  0  0  0  0  0  0  0  0
  1  3  1  0  0  0  0
  1  4  2  0  0  0  0
  2  4  1  0  0  0  0
  2  5  2  0  0  0  0
  3  8  2  0  0  0  0
  4 10  1  0  0  0  0
  5  7  1  0  0  0  0
  5  8  1  0  0  0  0
  6  9  1  0  0  0  0
  7  9  1  0  0  0  0
M  END
> <ref_mols>
x0960_0

> <original SMILES>
BrC1=CC(COC)=NC=C1

> <Chemgauss4>
-6.981602

> <ref_pdb>
x0195_0

$$$$
x0153
  -OEChem-05172015543D

 14 14  0     0  0  0  0  0  0999 V2000
    8.5130   -5.5968   23.7303 C   0  0  0  0  0  0  0  0  0  0  0  0
    9.4592   -4.8565   24.4303 C   0  0  0  0  0  0  0  0  0  0  0  0
    8.1695   -3.7190   22.3117 C   0  0  0  0  0  0  0  0  0  0  0  0
    7.8514   -5.0246   22.6495 C   0  0  0  0  0  0  0  0  0  0  0  0
    9.7055   -3.5585   24.0126 C   0  0  0  0  0  0  0  0  0  0  0  0
    6.8583   -5.7720   21.8983 C   0  0  0  0  0  0  0  0  0  0  0  0
   12.9374   -2.6278   25.3018 C   0  0  0  0  0  0  0  0  0  0  0  0
   11.7110   -3.5152   25.2900 C   0  0  0  0  0  0  0  0  0  0  0  0
    9.0828   -2.9686   22.9677 N   0  0  0  0  0  0  0  0  0  0  0  0
    6.5913   -7.0796   22.2965 N   0  0  0  0  0  0  0  0  0  0  0  0
    6.2728   -5.2738   20.9195 O   0  0  0  0  0  0  0  0  0  0  0  0
   10.6337   -2.8088   24.6865 O   0  0  0  0  0  0  0  0  0  0  0  0
    7.0911   -7.4679   23.0891 H   0  0  0  0  0  0  0  0  0  0  0  0
    5.9082   -7.6530   21.8120 H   0  0  0  0  0  0  0  0  0  0  0  0
  1  2  2  0  0  0  0
  1  4  1  0  0  0  0
  2  5  1  0  0  0  0
  3  4  2  0  0  0  0
  3  9  1  0  0  0  0
  4  6  1  0  0  0  0
  5  9  2  0  0  0  0
  5 12  1  0  0  0  0
  6 10  1  0  0  0  0
  6 11  2  0  0  0  0
  7  8  1  0  0  0  0
  8 12  1  0  0  0  0
 10 13  1  0  0  0  0
 10 14  1  0  0  0  0
M  END
> <ref_mols>
x0153_0

> <original SMILES>
CCOC=1C=CC(=CN1)C(=O)N

> <Chemgauss4>
-6.977880

> <ref_pdb>
x0749_0

$$$$
x0254
  -OEChem-05172015543D

 13 13  0     0  0  0  0  0  0999 V2000
    5.8570    0.6283   19.8241 C   0  0  0  0  0  0  0  0  0  0  0  0
    6.8240    0.1560   18.9200 C   0  0  0  0  0  0  0  0  0  0  0  0
    4.9772    1.3155   19.0304 C   0  0  0  0  0  0  0  0  0  0  0  0
    3.7414    2.0629   19.2935 C   0  0  0  0  0  0  0  0  0  0  0  0
    9.5331   -3.0194   22.1609 C   0  0  0  0  0  0  0  0  0  0  0  0
    8.0393   -0.6654   19.2220 C   0  0  0  0  0  0  0  0  0  0  0  0
    6.5639    0.5222   17.6618 N   0  0  0  0  0  0  0  0  0  0  0  0
    9.1603   -2.4885   20.8374 N   0  0  0  0  0  0  0  0  0  0  0  0
    7.5012   -0.7424   21.7823 O   0  0  0  0  0  0  0  0  0  0  0  0
    6.6530   -2.5956   20.2981 O   0  0  0  0  0  0  0  0  0  0  0  0
    5.3883    1.2594   17.7378 O   0  0  0  0  0  0  0  0  0  0  0  0
    7.6861   -1.6454   20.6632 S   0  0  0  0  0  0  0  0  0  0  0  0
    9.4504   -3.0851   20.0517 H   0  0  0  0  0  0  0  0  0  0  0  0
  1  2  1  0  0  0  0
  1  3  2  0  0  0  0
  2  6  1  0  0  0  0
  2  7  2  0  0  0  0
  3  4  1  0  0  0  0
  3 11  1  0  0  0  0
  5  8  1  0  0  0  0
  6 12  1  0  0  0  0
  7 11  1  0  0  0  0
  8 12  1  0  0  0  0
  9 12  2  0  0  0  0
 10 12  2  0  0  0  0
  8 13  1  0  0  0  0
M  END
> <ref_mols>
x0254_0

> <original SMILES>
CNS(=O)(=O)CC=1C=C(C)ON1

> <Chemgauss4>
-6.977752

> <ref_pdb>
x0397_0

$$$$
x2527
  -OEChem-05172015543D

 35 37  0     1  0  0  0  0  0999 V2000
    5.4646   -1.8194   18.0713 C   0  0  0  0  0  0  0  0  0  0  0  0
    5.3949   -5.9742   26.0345 C   0  0  0  0  0  0  0  0  0  0  0  0
    6.3218   -5.2599   25.2836 C   0  0  0  0  0  0  0  0  0  0  0  0
   11.5743   -2.8880   23.5078 C   0  0  0  0  0  0  0  0  0  0  0  0
   10.5028   -2.6131   25.6557 C   0  0  0  0  0  0  0  0  0  0  0  0
    5.7334   -2.3421   19.3362 C   0  0  0  0  0  0  0  0  0  0  0  0
   10.4325   -3.5231   23.0195 C   0  0  0  0  0  0  0  0  0  0  0  0
    9.3609   -3.2482   25.1673 C   0  0  0  0  0  0  0  0  0  0  0  0
    6.0461   -0.6145   17.6765 C   0  0  0  0  0  0  0  0  0  0  0  0
    4.0522   -5.8093   25.7349 C   0  0  0  0  0  0  0  0  0  0  0  0
    4.5193   -4.3194   24.0496 C   0  0  0  0  0  0  0  0  0  0  0  0
   11.6095   -2.4331   24.8260 C   0  0  0  0  0  0  0  0  0  0  0  0
    5.8838   -4.4144   24.2703 C   0  0  0  0  0  0  0  0  0  0  0  0
    7.1652   -0.4551   19.8118 C   0  0  0  0  0  0  0  0  0  0  0  0
    9.3258   -3.7032   23.8491 C   0  0  0  0  0  0  0  0  0  0  0  0
    6.5836   -1.6600   20.2065 C   0  0  0  0  0  0  0  0  0  0  0  0
    6.8964    0.0676   18.5468 C   0  0  0  0  0  0  0  0  0  0  0  0
    9.7200   -7.3357   21.8846 C   0  0  0  0  0  0  0  0  0  0  0  0
    9.4899   -6.4053   22.8165 C   0  0  0  0  0  0  0  0  0  0  0  0
    8.1824   -5.6869   22.8564 C   0  0  0  0  0  0  0  0  0  0  0  0
    6.3423   -3.3909   22.0208 C   0  0  0  0  0  0  0  0  0  0  0  0
    8.0794    0.2946   20.7258 C   0  0  0  0  0  0  0  0  0  0  0  0
   11.9374    0.6565   24.8973 C   0  0  0  0  0  0  0  0  0  0  0  0
   14.0094   -1.6088   24.3248 C   0  0  0  0  0  0  0  0  0  0  0  0
   13.4365   -2.5777   26.5331 C   0  0  0  0  0  0  0  0  0  0  0  0
   12.5367   -0.3105   25.9143 C   0  0  0  0  0  0  0  0  0  0  0  0
    6.8671   -3.6242   23.4353 C   0  0  2  0  0  0  0  0  0  0  0  0
   12.8699   -1.7321   25.3650 C   0  0  0  0  0  0  0  0  0  0  0  0
    3.5888   -4.9973   24.7583 N   0  0  0  0  0  0  0  0  0  0  0  0
    6.8435   -2.2070   21.4855 N   0  0  0  0  0  0  0  0  0  0  0  0
    8.1835   -4.3381   23.3609 N   0  0  0  0  0  0  0  0  0  0  0  0
    7.1679   -6.2786   22.4867 O   0  0  0  0  0  0  0  0  0  0  0  0
    5.5689   -4.1782   21.4821 O   0  0  0  0  0  0  0  0  0  0  0  0
    7.4500    1.2247   18.1574 F   0  0  0  0  0  0  0  0  0  0  0  0
    7.4698   -1.6727   22.0840 H   0  0  0  0  0  0  0  0  0  0  0  0
  1  6  2  0  0  0  0
  1  9  1  0  0  0  0
  2  3  2  0  0  0  0
  2 10  1  0  0  0  0
  3 13  1  0  0  0  0
  4  7  2  0  0  0  0
  4 12  1  0  0  0  0
  5  8  1  0  0  0  0
  5 12  2  0  0  0  0
  6 16  1  0  0  0  0
  7 15  1  0  0  0  0
  8 15  2  0  0  0  0
  9 17  2  0  0  0  0
 10 29  2  0  0  0  0
 11 13  2  0  0  0  0
 11 29  1  0  0  0  0
 12 28  1  0  0  0  0
 13 27  1  0  0  0  0
 14 16  2  0  0  0  0
 14 17  1  0  0  0  0
 14 22  1  0  0  0  0
 15 31  1  0  0  0  0
 16 30  1  0  0  0  0
 17 34  1  0  0  0  0
 18 19  2  0  0  0  0
 19 20  1  0  0  0  0
 20 31  1  0  0  0  0
 20 32  2  0  0  0  0
 21 27  1  0  0  0  0
 21 30  1  0  0  0  0
 21 33  2  0  0  0  0
 23 26  1  0  0  0  0
 24 28  1  0  0  0  0
 25 28  1  0  0  0  0
 26 28  1  0  0  0  0
 27 31  1  0  0  0  0
 30 35  1  0  0  0  0
M  END
> <ref_mols>
x2527_0

> <original SMILES>
CCC(C)(C)C=1C=CC(=CC1)N(C(C(=O)NC=2C=CC=C(F)C2C)C=3C=CC=NC3)C(=O)C=C

> <Chemgauss4>
-6.975394

> <ref_pdb>
x0749_0

$$$$
x2695
  -OEChem-05172015543D

 35 37  0     1  0  0  0  0  0999 V2000
    5.4646   -1.8194   18.0713 C   0  0  0  0  0  0  0  0  0  0  0  0
    5.3949   -5.9742   26.0345 C   0  0  0  0  0  0  0  0  0  0  0  0
    6.3218   -5.2599   25.2836 C   0  0  0  0  0  0  0  0  0  0  0  0
   11.5743   -2.8880   23.5078 C   0  0  0  0  0  0  0  0  0  0  0  0
   10.5028   -2.6131   25.6557 C   0  0  0  0  0  0  0  0  0  0  0  0
    5.7334   -2.3421   19.3362 C   0  0  0  0  0  0  0  0  0  0  0  0
   10.4325   -3.5231   23.0195 C   0  0  0  0  0  0  0  0  0  0  0  0
    9.3609   -3.2482   25.1673 C   0  0  0  0  0  0  0  0  0  0  0  0
    6.0461   -0.6145   17.6765 C   0  0  0  0  0  0  0  0  0  0  0  0
    4.0522   -5.8093   25.7349 C   0  0  0  0  0  0  0  0  0  0  0  0
    4.5193   -4.3194   24.0496 C   0  0  0  0  0  0  0  0  0  0  0  0
   11.6095   -2.4331   24.8260 C   0  0  0  0  0  0  0  0  0  0  0  0
    5.8838   -4.4144   24.2703 C   0  0  0  0  0  0  0  0  0  0  0  0
    7.1652   -0.4551   19.8118 C   0  0  0  0  0  0  0  0  0  0  0  0
    9.3258   -3.7032   23.8491 C   0  0  0  0  0  0  0  0  0  0  0  0
    6.5836   -1.6600   20.2065 C   0  0  0  0  0  0  0  0  0  0  0  0
    6.8964    0.0676   18.5468 C   0  0  0  0  0  0  0  0  0  0  0  0
    9.7200   -7.3357   21.8846 C   0  0  0  0  0  0  0  0  0  0  0  0
    9.4899   -6.4053   22.8165 C   0  0  0  0  0  0  0  0  0  0  0  0
    8.1824   -5.6869   22.8564 C   0  0  0  0  0  0  0  0  0  0  0  0
    6.3423   -3.3909   22.0208 C   0  0  0  0  0  0  0  0  0  0  0  0
    8.0794    0.2946   20.7258 C   0  0  0  0  0  0  0  0  0  0  0  0
   11.9374    0.6565   24.8973 C   0  0  0  0  0  0  0  0  0  0  0  0
   14.0094   -1.6088   24.3248 C   0  0  0  0  0  0  0  0  0  0  0  0
   13.4365   -2.5777   26.5331 C   0  0  0  0  0  0  0  0  0  0  0  0
   12.5367   -0.3105   25.9143 C   0  0  0  0  0  0  0  0  0  0  0  0
    6.8671   -3.6242   23.4353 C   0  0  2  0  0  0  0  0  0  0  0  0
   12.8699   -1.7321   25.3650 C   0  0  0  0  0  0  0  0  0  0  0  0
    3.5888   -4.9973   24.7583 N   0  0  0  0  0  0  0  0  0  0  0  0
    6.8435   -2.2070   21.4855 N   0  0  0  0  0  0  0  0  0  0  0  0
    8.1835   -4.3381   23.3609 N   0  0  0  0  0  0  0  0  0  0  0  0
    7.1679   -6.2786   22.4867 O   0  0  0  0  0  0  0  0  0  0  0  0
    5.5689   -4.1782   21.4821 O   0  0  0  0  0  0  0  0  0  0  0  0
    7.4500    1.2247   18.1574 F   0  0  0  0  0  0  0  0  0  0  0  0
    7.4698   -1.6727   22.0840 H   0  0  0  0  0  0  0  0  0  0  0  0
  1  6  2  0  0  0  0
  1  9  1  0  0  0  0
  2  3  2  0  0  0  0
  2 10  1  0  0  0  0
  3 13  1  0  0  0  0
  4  7  2  0  0  0  0
  4 12  1  0  0  0  0
  5  8  1  0  0  0  0
  5 12  2  0  0  0  0
  6 16  1  0  0  0  0
  7 15  1  0  0  0  0
  8 15  2  0  0  0  0
  9 17  2  0  0  0  0
 10 29  2  0  0  0  0
 11 13  2  0  0  0  0
 11 29  1  0  0  0  0
 12 28  1  0  0  0  0
 13 27  1  0  0  0  0
 14 16  2  0  0  0  0
 14 17  1  0  0  0  0
 14 22  1  0  0  0  0
 15 31  1  0  0  0  0
 16 30  1  0  0  0  0
 17 34  1  0  0  0  0
 18 19  2  0  0  0  0
 19 20  1  0  0  0  0
 20 31  1  0  0  0  0
 20 32  2  0  0  0  0
 21 27  1  0  0  0  0
 21 30  1  0  0  0  0
 21 33  2  0  0  0  0
 23 26  1  0  0  0  0
 24 28  1  0  0  0  0
 25 28  1  0  0  0  0
 26 28  1  0  0  0  0
 27 31  1  0  0  0  0
 30 35  1  0  0  0  0
M  END
> <ref_mols>
x2695_0

> <original SMILES>
CCC(C)(C)C=1C=CC(=CC1)N(C(C(=O)NC=2C=CC=C(F)C2C)C=3C=CC=NC3)C(=O)C=C

> <Chemgauss4>
-6.975394

> <ref_pdb>
x0749_0

> <CYS145-warhead dist minimum (A)>
6.495756

> <CYS145-warhead dist mean (A)>
9.783243

> <CYS145-warhead dist stddev (A)>
0.5941014

$$$$
x0077
  -OEChem-05172015543D

 12 12  0     0  0  0  0  0  0999 V2000
   13.6727    2.7636   22.0850 C   0  0  0  0  0  0  0  0  0  0  0  0
   11.5028    2.1490   23.1878 C   0  0  0  0  0  0  0  0  0  0  0  0
   14.1833    1.3505   22.3393 C   0  0  0  0  0  0  0  0  0  0  0  0
   12.0414    0.7438   23.4280 C   0  0  0  0  0  0  0  0  0  0  0  0
   12.6326    3.1744   23.1260 C   0  0  0  0  0  0  0  0  0  0  0  0
   14.4588   -1.3829   23.7215 C   0  0  0  0  0  0  0  0  0  0  0  0
   13.0324    0.3998   22.3654 N   0  0  0  0  0  0  0  0  0  0  0  0
   14.3039   -1.4535   21.1142 O   0  0  0  0  0  0  0  0  0  0  0  0
   12.2612   -2.0518   22.4761 O   0  0  0  0  0  0  0  0  0  0  0  0
   12.0835    4.4417   22.7853 O   0  0  0  0  0  0  0  0  0  0  0  0
   13.4521   -1.2591   22.2662 S   0  0  0  0  0  0  0  0  0  0  0  0
   12.8221    5.0712   22.7720 H   0  0  0  0  0  0  0  0  0  0  0  0
  1  3  1  0  0  0  0
  1  5  1  0  0  0  0
  2  4  1  0  0  0  0
  2  5  1  0  0  0  0
  3  7  1  0  0  0  0
  4  7  1  0  0  0  0
  5 10  1  0  0  0  0
  6 11  1  0  0  0  0
  7 11  1  0  0  0  0
  8 11  2  0  0  0  0
  9 11  2  0  0  0  0
 10 12  1  0  0  0  0
M  END
> <ref_mols>
x0077_0

> <original SMILES>
CS(=O)(=O)N1CCC(O)CC1

> <Chemgauss4>
-6.970885

> <ref_pdb>
x0195_0

$$$$
x0478
  -OEChem-05172015543D

 16 16  0     0  0  0  0  0  0999 V2000
   13.8497   -1.1615   21.8527 C   0  0  0  0  0  0  0  0  0  0  0  0
   12.6383   -1.3091   22.5282 C   0  0  0  0  0  0  0  0  0  0  0  0
   14.4997    0.0727   21.8477 C   0  0  0  0  0  0  0  0  0  0  0  0
   12.7267    1.0118   23.1937 C   0  0  0  0  0  0  0  0  0  0  0  0
   12.0768   -0.2224   23.1987 C   0  0  0  0  0  0  0  0  0  0  0  0
   13.9382    1.1593   22.5183 C   0  0  0  0  0  0  0  0  0  0  0  0
   10.8138   -0.3761   23.9028 C   0  0  0  0  0  0  0  0  0  0  0  0
    8.8372    0.7695   24.5910 C   0  0  0  0  0  0  0  0  0  0  0  0
   12.6679    3.3866   20.9213 C   0  0  0  0  0  0  0  0  0  0  0  0
   14.6046    2.4221   22.5124 N   0  0  0  0  0  0  0  0  0  0  0  0
   10.4253   -1.4309   24.4223 O   0  0  0  0  0  0  0  0  0  0  0  0
   12.7471    3.9381   23.4623 O   0  0  0  0  0  0  0  0  0  0  0  0
   14.4745    4.9754   21.9506 O   0  0  0  0  0  0  0  0  0  0  0  0
   10.1032    0.7930   23.9228 O   0  0  0  0  0  0  0  0  0  0  0  0
   13.6512    3.8448   22.3311 S   0  0  0  0  0  0  0  0  0  0  0  0
   15.4936    2.4301   21.9857 H   0  0  0  0  0  0  0  0  0  0  0  0
  1  2  2  0  0  0  0
  1  3  1  0  0  0  0
  2  5  1  0  0  0  0
  3  6  2  0  0  0  0
  4  5  2  0  0  0  0
  4  6  1  0  0  0  0
  5  7  1  0  0  0  0
  6 10  1  0  0  0  0
  7 11  2  0  0  0  0
  7 14  1  0  0  0  0
  8 14  1  0  0  0  0
  9 15  1  0  0  0  0
 10 15  1  0  0  0  0
 12 15  2  0  0  0  0
 13 15  2  0  0  0  0
 10 16  1  0  0  0  0
M  END
> <ref_mols>
x0478_0

> <original SMILES>
COC(=O)C=1C=CC=C(NS(=O)(=O)C)C1

> <Chemgauss4>
-6.969717

> <ref_pdb>
x0195_0

$$$$
x0270
  -OEChem-05172015543D

 12 12  0     0  0  0  0  0  0999 V2000
   11.4167    5.7633   24.9927 C   0  0  0  0  0  0  0  0  0  0  0  0
   10.5664    6.0716   23.9571 C   0  0  0  0  0  0  0  0  0  0  0  0
   12.3190    4.9374   23.2508 C   0  0  0  0  0  0  0  0  0  0  0  0
   12.4245    2.0801   23.2010 C   0  0  0  0  0  0  0  0  0  0  0  0
   12.8273    0.6632   23.4428 C   0  0  0  0  0  0  0  0  0  0  0  0
   13.2215    4.2442   22.2714 C   0  0  0  0  0  0  0  0  0  0  0  0
   12.5059    5.0575   24.5464 N   0  0  0  0  0  0  0  0  0  0  0  0
   11.1580    5.5364   22.8476 N   0  0  0  0  0  0  0  0  0  0  0  0
   13.4021    2.8477   22.5973 N   0  0  0  0  0  0  0  0  0  0  0  0
   11.3069    2.4559   23.5349 O   0  0  0  0  0  0  0  0  0  0  0  0
   10.7997    5.5745   21.9025 H   0  0  0  0  0  0  0  0  0  0  0  0
   14.2901    2.4096   22.3717 H   0  0  0  0  0  0  0  0  0  0  0  0
  1  2  2  0  0  0  0
  1  7  1  0  0  0  0
  2  8  1  0  0  0  0
  3  6  1  0  0  0  0
  3  7  2  0  0  0  0
  3  8  1  0  0  0  0
  4  5  1  0  0  0  0
  4  9  1  0  0  0  0
  4 10  2  0  0  0  0
  6  9  1  0  0  0  0
  8 11  1  0  0  0  0
  9 12  1  0  0  0  0
M  END
> <ref_mols>
x0270_0

> <original SMILES>
CC(=O)NCC1=NC=CN1

> <Chemgauss4>
-6.967399

> <ref_pdb>
x0946_0

$$$$
x0783
  -OEChem-05172015543D

 15 15  0     1  0  0  0  0  0999 V2000
   10.3378   -1.1689   22.4388 C   0  0  0  0  0  0  0  0  0  0  0  0
   10.0418   -2.8621   24.1365 C   0  0  0  0  0  0  0  0  0  0  0  0
   11.6279   -0.9231   22.9087 C   0  0  0  0  0  0  0  0  0  0  0  0
   11.3320   -2.6164   24.6065 C   0  0  0  0  0  0  0  0  0  0  0  0
    9.5447   -2.1383   23.0527 C   0  0  0  0  0  0  0  0  0  0  0  0
   12.1250   -1.6469   23.9925 C   0  0  0  0  0  0  0  0  0  0  0  0
    6.9060   -4.3998   21.7974 C   0  0  0  0  0  0  0  0  0  0  0  0
    7.0957   -1.5355   23.2294 C   0  0  0  0  0  0  0  0  0  0  0  0
    6.6991   -5.8639   22.0905 C   0  0  0  0  0  0  0  0  0  0  0  0
    8.1658   -2.4025   22.5496 C   0  0  2  0  0  0  0  0  0  0  0  0
    7.8027   -3.8052   22.6613 N   0  0  0  0  0  0  0  0  0  0  0  0
    6.3305   -3.8367   20.8678 O   0  0  0  0  0  0  0  0  0  0  0  0
   13.7166   -1.3437   24.5719 Cl  0  0  0  0  0  0  0  0  0  0  0  0
    8.1998   -6.4976   22.7842 Cl  0  0  0  0  0  0  0  0  0  0  0  0
    8.2201   -4.3626   23.3947 H   0  0  0  0  0  0  0  0  0  0  0  0
  1  3  2  0  0  0  0
  1  5  1  0  0  0  0
  2  4  1  0  0  0  0
  2  5  2  0  0  0  0
  3  6  1  0  0  0  0
  4  6  2  0  0  0  0
  5 10  1  0  0  0  0
  6 13  1  0  0  0  0
  7  9  1  0  0  0  0
  7 11  1  0  0  0  0
  7 12  2  0  0  0  0
  8 10  1  0  0  0  0
  9 14  1  0  0  0  0
 10 11  1  0  0  0  0
 11 15  1  0  0  0  0
M  END
> <ref_mols>
x0783_0

> <original SMILES>
CC(NC(=O)CCl)c1ccc(Cl)cc1

> <Chemgauss4>
-6.967341

> <ref_pdb>
x0749_0

$$$$
x1443
  -OEChem-05172015543D

 15 15  0     1  0  0  0  0  0999 V2000
   10.3378   -1.1689   22.4388 C   0  0  0  0  0  0  0  0  0  0  0  0
   10.0418   -2.8621   24.1365 C   0  0  0  0  0  0  0  0  0  0  0  0
   11.6279   -0.9231   22.9087 C   0  0  0  0  0  0  0  0  0  0  0  0
   11.3320   -2.6164   24.6065 C   0  0  0  0  0  0  0  0  0  0  0  0
    9.5447   -2.1383   23.0527 C   0  0  0  0  0  0  0  0  0  0  0  0
   12.1250   -1.6469   23.9925 C   0  0  0  0  0  0  0  0  0  0  0  0
    6.9060   -4.3998   21.7974 C   0  0  0  0  0  0  0  0  0  0  0  0
    7.0957   -1.5355   23.2294 C   0  0  0  0  0  0  0  0  0  0  0  0
    6.6991   -5.8639   22.0905 C   0  0  0  0  0  0  0  0  0  0  0  0
    8.1658   -2.4025   22.5496 C   0  0  2  0  0  0  0  0  0  0  0  0
    7.8027   -3.8052   22.6613 N   0  0  0  0  0  0  0  0  0  0  0  0
    6.3305   -3.8367   20.8678 O   0  0  0  0  0  0  0  0  0  0  0  0
   13.7166   -1.3437   24.5719 Cl  0  0  0  0  0  0  0  0  0  0  0  0
    8.1998   -6.4976   22.7842 Cl  0  0  0  0  0  0  0  0  0  0  0  0
    8.2201   -4.3626   23.3947 H   0  0  0  0  0  0  0  0  0  0  0  0
  1  3  2  0  0  0  0
  1  5  1  0  0  0  0
  2  4  1  0  0  0  0
  2  5  2  0  0  0  0
  3  6  1  0  0  0  0
  4  6  2  0  0  0  0
  5 10  1  0  0  0  0
  6 13  1  0  0  0  0
  7  9  1  0  0  0  0
  7 11  1  0  0  0  0
  7 12  2  0  0  0  0
  8 10  1  0  0  0  0
  9 14  1  0  0  0  0
 10 11  1  0  0  0  0
 11 15  1  0  0  0  0
M  END
> <ref_mols>
x1443_0

> <original SMILES>
CC(NC(=O)CCl)c1ccc(Cl)cc1

> <Chemgauss4>
-6.967341

> <ref_pdb>
x0749_0

$$$$
x0709
  -OEChem-05172015543D

 15 15  0     1  0  0  0  0  0999 V2000
   10.3378   -1.1689   22.4388 C   0  0  0  0  0  0  0  0  0  0  0  0
   10.0418   -2.8621   24.1365 C   0  0  0  0  0  0  0  0  0  0  0  0
   11.6279   -0.9231   22.9087 C   0  0  0  0  0  0  0  0  0  0  0  0
   11.3320   -2.6164   24.6065 C   0  0  0  0  0  0  0  0  0  0  0  0
    9.5447   -2.1383   23.0527 C   0  0  0  0  0  0  0  0  0  0  0  0
   12.1250   -1.6469   23.9925 C   0  0  0  0  0  0  0  0  0  0  0  0
    6.9060   -4.3998   21.7974 C   0  0  0  0  0  0  0  0  0  0  0  0
    7.0957   -1.5355   23.2294 C   0  0  0  0  0  0  0  0  0  0  0  0
    6.6991   -5.8639   22.0905 C   0  0  0  0  0  0  0  0  0  0  0  0
    8.1658   -2.4025   22.5496 C   0  0  2  0  0  0  0  0  0  0  0  0
    7.8027   -3.8052   22.6613 N   0  0  0  0  0  0  0  0  0  0  0  0
    6.3305   -3.8367   20.8678 O   0  0  0  0  0  0  0  0  0  0  0  0
   13.7166   -1.3437   24.5719 Cl  0  0  0  0  0  0  0  0  0  0  0  0
    8.1998   -6.4976   22.7842 Cl  0  0  0  0  0  0  0  0  0  0  0  0
    8.2201   -4.3626   23.3947 H   0  0  0  0  0  0  0  0  0  0  0  0
  1  3  2  0  0  0  0
  1  5  1  0  0  0  0
  2  4  1  0  0  0  0
  2  5  2  0  0  0  0
  3  6  1  0  0  0  0
  4  6  2  0  0  0  0
  5 10  1  0  0  0  0
  6 13  1  0  0  0  0
  7  9  1  0  0  0  0
  7 11  1  0  0  0  0
  7 12  2  0  0  0  0
  8 10  1  0  0  0  0
  9 14  1  0  0  0  0
 10 11  1  0  0  0  0
 11 15  1  0  0  0  0
M  END
> <ref_mols>
x0709_0

> <original SMILES>
CC(NC(=O)CCl)c1ccc(Cl)cc1

> <Chemgauss4>
-6.967341

> <ref_pdb>
x0749_0

> <CYS145-warhead dist minimum (A)>
6.0946493

> <CYS145-warhead dist mean (A)>
7.2668047

> <CYS145-warhead dist stddev (A)>
0.46548048

$$$$
x0983
  -OEChem-05172015543D

 25 26  0     1  0  0  0  0  0999 V2000
    6.8499   -5.0795   27.3867 C   0  0  0  0  0  0  0  0  0  0  0  0
    5.7772   -5.6109   27.4773 C   0  0  0  0  0  0  0  0  0  0  0  0
   13.4565   -1.5588   22.6075 C   0  0  0  0  0  0  0  0  0  0  0  0
   13.8635   -0.6871   23.6157 C   0  0  0  0  0  0  0  0  0  0  0  0
   12.1279   -1.9915   22.5278 C   0  0  0  0  0  0  0  0  0  0  0  0
   12.9589   -0.2210   24.5740 C   0  0  0  0  0  0  0  0  0  0  0  0
    9.4374   -1.0334   24.8089 C   0  0  0  0  0  0  0  0  0  0  0  0
   11.1979   -1.5350   23.4829 C   0  0  0  0  0  0  0  0  0  0  0  0
    9.8100   -1.7602   23.7018 C   0  0  0  0  0  0  0  0  0  0  0  0
   11.6340   -0.6620   24.4819 C   0  0  0  0  0  0  0  0  0  0  0  0
    7.8078   -6.2114   22.7639 C   0  0  0  0  0  0  0  0  0  0  0  0
    7.9335   -3.8010   24.8788 C   0  0  0  0  0  0  0  0  0  0  0  0
    6.8316   -6.8713   21.8474 C   0  0  0  0  0  0  0  0  0  0  0  0
    8.1564   -4.4311   27.2811 C   0  0  0  0  0  0  0  0  0  0  0  0
    8.9005   -2.6373   22.8763 C   0  0  0  0  0  0  0  0  0  0  0  0
    8.6275   -3.9943   23.5352 C   0  0  2  0  0  0  0  0  0  0  0  0
   10.5442   -0.3742   25.2723 N   0  0  0  0  0  0  0  0  0  0  0  0
    8.6223   -4.4191   25.9131 N   0  0  0  0  0  0  0  0  0  0  0  0
    7.7717   -4.8283   22.7294 N   0  0  0  0  0  0  0  0  0  0  0  0
    8.5452   -6.9006   23.4588 O   0  0  0  0  0  0  0  0  0  0  0  0
    6.8668   -3.2024   25.0009 O   0  0  0  0  0  0  0  0  0  0  0  0
    4.0792   -6.4517   27.6205 Br  0  0  0  0  0  0  0  0  0  0  0  0
   10.5599    0.2357   26.0782 H   0  0  0  0  0  0  0  0  0  0  0  0
    9.4980   -4.8866   25.6977 H   0  0  0  0  0  0  0  0  0  0  0  0
    7.1078   -4.3777   22.1038 H   0  0  0  0  0  0  0  0  0  0  0  0
  1  2  3  0  0  0  0
  1 14  1  0  0  0  0
  2 22  1  0  0  0  0
  3  4  2  0  0  0  0
  3  5  1  0  0  0  0
  4  6  1  0  0  0  0
  5  8  2  0  0  0  0
  6 10  2  0  0  0  0
  7  9  2  0  0  0  0
  7 17  1  0  0  0  0
  8  9  1  0  0  0  0
  8 10  1  0  0  0  0
  9 15  1  0  0  0  0
 10 17  1  0  0  0  0
 11 13  1  0  0  0  0
 11 19  1  0  0  0  0
 11 20  2  0  0  0  0
 12 16  1  0  0  0  0
 12 18  1  0  0  0  0
 12 21  2  0  0  0  0
 14 18  1  0  0  0  0
 15 16  1  0  0  0  0
 16 19  1  0  0  0  0
 17 23  1  0  0  0  0
 18 24  1  0  0  0  0
 19 25  1  0  0  0  0
M  END
> <ref_mols>
x0983_0

> <original SMILES>
CC(N[C@@H](CC1=CNC2=C1C=CC=C2)C(NCC#CBr)=O)=O

> <Chemgauss4>
-6.964160

> <ref_pdb>
x0072_0

$$$$
x0033
  -OEChem-05172015543D

 15 15  0     1  0  0  0  0  0999 V2000
   11.9826    2.2220   23.2799 C   0  0  0  0  0  0  0  0  0  0  0  0
   11.5190    1.0413   24.1347 C   0  0  0  0  0  0  0  0  0  0  0  0
   13.6337    0.8280   22.2408 C   0  0  0  0  0  0  0  0  0  0  0  0
   13.2209   -0.4055   23.0976 C   0  0  0  0  0  0  0  0  0  0  0  0
   14.1844   -0.5489   24.2990 C   0  0  0  0  0  0  0  0  0  0  0  0
   13.3916   -1.6497   22.1961 C   0  0  0  0  0  0  0  0  0  0  0  0
   11.2562   -1.3373   24.3100 C   0  0  0  0  0  0  0  0  0  0  0  0
   13.8452    3.2289   22.1338 C   0  0  0  0  0  0  0  0  0  0  0  0
   14.1697    4.4155   23.0216 C   0  0  0  0  0  0  0  0  0  0  0  0
   13.4031    2.0958   22.9447 N   0  0  1  0  0  0  0  0  0  0  0  0
   11.7972   -0.2517   23.4918 N   0  0  1  0  0  0  0  0  0  0  0  0
   14.6673    5.5406   22.1921 N   0  3  0  0  0  0  0  0  0  0  0  0
   14.3519    5.4477   21.2208 H   0  0  0  0  0  0  0  0  0  0  0  0
   15.6926    5.5686   22.1902 H   0  0  0  0  0  0  0  0  0  0  0  0
   14.3270    6.4391   22.5507 H   0  0  0  0  0  0  0  0  0  0  0  0
  1  2  1  0  0  0  0
  1 10  1  0  0  0  0
  2 11  1  0  0  0  0
  3  4  1  0  0  0  0
  3 10  1  0  0  0  0
  4  5  1  0  0  0  0
  4  6  1  0  0  0  0
  4 11  1  0  0  0  0
  7 11  1  0  0  0  0
  8  9  1  0  0  0  0
  8 10  1  0  0  0  0
  9 12  1  0  0  0  0
 12 13  1  0  0  0  0
 12 14  1  0  0  0  0
 12 15  1  0  0  0  0
M  CHG  1  12   1
M  END
> <ref_mols>
x0033_0

> <original SMILES>
CN1CCN(CCN)CC1(C)C

> <Chemgauss4>
-6.958565

> <ref_pdb>
x0195_0

$$$$
x0038
  -OEChem-05172015543D

 12 13  0     1  0  0  0  0  0999 V2000
    8.6032   -1.4984   22.5418 C   0  0  0  0  0  0  0  0  0  0  0  0
    8.2241   -0.5112   21.4745 C   0  0  0  0  0  0  0  0  0  0  0  0
   14.3194   -1.7509   22.2604 C   0  0  0  0  0  0  0  0  0  0  0  0
   14.3454   -2.0167   23.7518 C   0  0  0  0  0  0  0  0  0  0  0  0
   13.1835   -0.0303   23.3808 C   0  0  0  0  0  0  0  0  0  0  0  0
   13.1197   -0.8408   22.0963 C   0  0  2  0  0  0  0  0  0  0  0  0
    9.4277   -1.3909   21.2911 C   0  0  0  0  0  0  0  0  0  0  0  0
   11.8148   -1.6281   21.9871 C   0  0  0  0  0  0  0  0  0  0  0  0
   10.7716   -0.7574   21.3997 N   0  3  0  0  0  0  0  0  0  0  0  0
   13.7347   -0.8876   24.3912 O   0  0  0  0  0  0  0  0  0  0  0  0
   11.0700   -0.4484   20.4620 H   0  0  0  0  0  0  0  0  0  0  0  0
   10.6881    0.1048   21.9597 H   0  0  0  0  0  0  0  0  0  0  0  0
  1  2  1  0  0  0  0
  1  7  1  0  0  0  0
  2  7  1  0  0  0  0
  3  4  1  0  0  0  0
  3  6  1  0  0  0  0
  4 10  1  0  0  0  0
  5  6  1  0  0  0  0
  5 10  1  0  0  0  0
  6  8  1  0  0  0  0
  7  9  1  0  0  0  0
  8  9  1  0  0  0  0
  9 11  1  0  0  0  0
  9 12  1  0  0  0  0
M  CHG  1   9   1
M  END
> <ref_mols>
x0038_0

> <original SMILES>
C(NC1CC1)C2CCOC2

> <Chemgauss4>
-6.957435

> <ref_pdb>
x0678_0

$$$$
x1175
  -OEChem-05172015543D

 12 13  0     1  0  0  0  0  0999 V2000
    8.6032   -1.4984   22.5418 C   0  0  0  0  0  0  0  0  0  0  0  0
    8.2241   -0.5112   21.4745 C   0  0  0  0  0  0  0  0  0  0  0  0
   14.3194   -1.7509   22.2604 C   0  0  0  0  0  0  0  0  0  0  0  0
   14.3454   -2.0167   23.7518 C   0  0  0  0  0  0  0  0  0  0  0  0
   13.1835   -0.0303   23.3808 C   0  0  0  0  0  0  0  0  0  0  0  0
   13.1197   -0.8408   22.0963 C   0  0  2  0  0  0  0  0  0  0  0  0
    9.4277   -1.3909   21.2911 C   0  0  0  0  0  0  0  0  0  0  0  0
   11.8148   -1.6281   21.9871 C   0  0  0  0  0  0  0  0  0  0  0  0
   10.7716   -0.7574   21.3997 N   0  3  0  0  0  0  0  0  0  0  0  0
   13.7347   -0.8876   24.3912 O   0  0  0  0  0  0  0  0  0  0  0  0
   11.0700   -0.4484   20.4620 H   0  0  0  0  0  0  0  0  0  0  0  0
   10.6881    0.1048   21.9597 H   0  0  0  0  0  0  0  0  0  0  0  0
  1  2  1  0  0  0  0
  1  7  1  0  0  0  0
  2  7  1  0  0  0  0
  3  4  1  0  0  0  0
  3  6  1  0  0  0  0
  4 10  1  0  0  0  0
  5  6  1  0  0  0  0
  5 10  1  0  0  0  0
  6  8  1  0  0  0  0
  7  9  1  0  0  0  0
  8  9  1  0  0  0  0
  9 11  1  0  0  0  0
  9 12  1  0  0  0  0
M  CHG  1   9   1
M  END
> <ref_mols>
x1175_0

> <original SMILES>
C(NC1CC1)C2CCOC2

> <Chemgauss4>
-6.957435

> <ref_pdb>
x0678_0

$$$$
x0594
  -OEChem-05172015543D

 14 15  0     1  0  0  0  0  0999 V2000
   10.4462    3.2392   24.4982 C   0  0  0  0  0  0  0  0  0  0  0  0
   11.5007    1.5747   23.5747 C   0  0  0  0  0  0  0  0  0  0  0  0
   11.1974   -0.8825   23.7022 C   0  0  0  0  0  0  0  0  0  0  0  0
   11.3628   -2.0583   22.7473 C   0  0  0  0  0  0  0  0  0  0  0  0
   13.2910    0.0808   22.7099 C   0  0  2  0  0  0  0  0  0  0  0  0
   13.3018   -1.1487   21.7765 C   0  0  1  0  0  0  0  0  0  0  0  0
    9.4156    3.8527   25.3534 C   0  0  0  0  0  0  0  0  0  0  0  0
   14.2300   -0.0607   23.9164 C   0  0  0  0  0  0  0  0  0  0  0  0
   14.6973   -1.5396   21.3029 C   0  0  0  0  0  0  0  0  0  0  0  0
   10.5054    1.8605   24.3851 N   0  0  0  0  0  0  0  0  0  0  0  0
   11.3088    4.0154   23.8425 N   0  0  0  0  0  0  0  0  0  0  0  0
   11.9078    0.2941   23.1886 N   0  0  2  0  0  0  0  0  0  0  0  0
   12.7360   -2.2826   22.4407 O   0  0  0  0  0  0  0  0  0  0  0  0
   12.3070    2.9739   22.9943 S   0  0  0  0  0  0  0  0  0  0  0  0
  1  7  1  0  0  0  0
  1 10  1  0  0  0  0
  1 11  2  0  0  0  0
  2 10  2  0  0  0  0
  2 12  1  0  0  0  0
  2 14  1  0  0  0  0
  3  4  1  0  0  0  0
  3 12  1  0  0  0  0
  4 13  1  0  0  0  0
  5  6  1  0  0  0  0
  5  8  1  0  0  0  0
  5 12  1  0  0  0  0
  6  9  1  0  0  0  0
  6 13  1  0  0  0  0
 11 14  1  0  0  0  0
M  END
> <ref_mols>
x0594_0

> <original SMILES>
CC1OCCN(C1C)C2=NC(C)=NS2

> <Chemgauss4>
-6.949191

> <ref_pdb>
x0195_0

$$$$
x0514
  -OEChem-05172015543D

 15 15  0     0  0  0  0  0  0999 V2000
   10.1592    2.4247   24.3309 C   0  0  0  0  0  0  0  0  0  0  0  0
   11.9444    3.6186   23.2241 C   0  0  0  0  0  0  0  0  0  0  0  0
   10.9040    1.2474   24.2622 C   0  0  0  0  0  0  0  0  0  0  0  0
   12.6892    2.4412   23.1554 C   0  0  0  0  0  0  0  0  0  0  0  0
   10.6794    3.6104   23.8118 C   0  0  0  0  0  0  0  0  0  0  0  0
   12.1689    1.2556   23.6745 C   0  0  0  0  0  0  0  0  0  0  0  0
    9.8830    4.8692   23.8845 C   0  0  0  0  0  0  0  0  0  0  0  0
    9.9615   -1.5976   21.9872 C   0  0  0  0  0  0  0  0  0  0  0  0
   13.2735   -3.3553   24.2040 C   0  0  0  0  0  0  0  0  0  0  0  0
   11.4216   -1.8549   22.1440 C   0  0  0  0  0  0  0  0  0  0  0  0
   11.9977   -2.6130   24.4142 C   0  0  0  0  0  0  0  0  0  0  0  0
   11.8948   -1.4528   23.4929 N   0  0  0  0  0  0  0  0  0  0  0  0
   13.8625   -0.2051   22.3452 O   0  0  0  0  0  0  0  0  0  0  0  0
   13.8289   -0.3688   24.8464 O   0  0  0  0  0  0  0  0  0  0  0  0
   13.1157   -0.2387   23.5891 S   0  0  0  0  0  0  0  0  0  0  0  0
  1  3  2  0  0  0  0
  1  5  1  0  0  0  0
  2  4  1  0  0  0  0
  2  5  2  0  0  0  0
  3  6  1  0  0  0  0
  4  6  2  0  0  0  0
  5  7  1  0  0  0  0
  6 15  1  0  0  0  0
  8 10  1  0  0  0  0
  9 11  1  0  0  0  0
 10 12  1  0  0  0  0
 11 12  1  0  0  0  0
 12 15  1  0  0  0  0
 13 15  2  0  0  0  0
 14 15  2  0  0  0  0
M  END
> <ref_mols>
x0514_0

> <original SMILES>
CCN(CC)S(=O)(=O)C=1C=CC(C)=CC1

> <Chemgauss4>
-6.945481

> <ref_pdb>
x0161_0

$$$$
x0191
  -OEChem-05172015543D

 13 13  0     0  0  0  0  0  0999 V2000
    5.3458    0.3216   19.6691 C   0  0  0  0  0  0  0  0  0  0  0  0
    6.2414   -0.3677   18.8953 C   0  0  0  0  0  0  0  0  0  0  0  0
    5.1043    1.4958   18.9352 C   0  0  0  0  0  0  0  0  0  0  0  0
    6.9045   -1.6688   19.0762 C   0  0  0  0  0  0  0  0  0  0  0  0
    4.2155    2.6138   19.2897 C   0  0  0  0  0  0  0  0  0  0  0  0
    9.0611    0.1002   20.7557 C   0  0  0  0  0  0  0  0  0  0  0  0
    7.5909   -3.9753   21.3787 C   0  0  0  0  0  0  0  0  0  0  0  0
    7.8955   -0.7478   21.1363 C   0  0  0  0  0  0  0  0  0  0  0  0
    8.4296   -3.0814   20.5300 C   0  0  0  0  0  0  0  0  0  0  0  0
    5.7972    1.5320   17.7935 N   0  0  0  0  0  0  0  0  0  0  0  0
    7.7184   -1.8485   20.1995 N   0  0  0  0  0  0  0  0  0  0  0  0
    6.6781   -2.5196   18.2165 O   0  0  0  0  0  0  0  0  0  0  0  0
    6.5186    0.3443   17.7732 O   0  0  0  0  0  0  0  0  0  0  0  0
  1  2  2  0  0  0  0
  1  3  1  0  0  0  0
  2  4  1  0  0  0  0
  2 13  1  0  0  0  0
  3  5  1  0  0  0  0
  3 10  2  0  0  0  0
  4 11  1  0  0  0  0
  4 12  2  0  0  0  0
  6  8  1  0  0  0  0
  7  9  1  0  0  0  0
  8 11  1  0  0  0  0
  9 11  1  0  0  0  0
 10 13  1  0  0  0  0
M  END
> <ref_mols>
x0191_0

> <original SMILES>
CCN(CC)C(=O)C1=CC(C)=NO1

> <Chemgauss4>
-6.922039

> <ref_pdb>
x0397_0

$$$$
x1069
  -OEChem-05172015543D

 15 15  0     0  0  0  0  0  0999 V2000
    8.7714   -5.5954   23.5394 C   0  0  0  0  0  0  0  0  0  0  0  0
    7.6167   -5.5361   22.7592 C   0  0  0  0  0  0  0  0  0  0  0  0
    9.6119   -4.4856   23.6267 C   0  0  0  0  0  0  0  0  0  0  0  0
    7.3025   -4.3670   22.0662 C   0  0  0  0  0  0  0  0  0  0  0  0
    8.1430   -3.2572   22.1535 C   0  0  0  0  0  0  0  0  0  0  0  0
    9.2977   -3.3165   22.9337 C   0  0  0  0  0  0  0  0  0  0  0  0
    6.0757   -4.3300   21.2490 C   0  0  0  0  0  0  0  0  0  0  0  0
   11.3450   -2.1147   23.7634 C   0  0  0  0  0  0  0  0  0  0  0  0
    7.8063   -2.0046   21.4057 C   0  0  0  0  0  0  0  0  0  0  0  0
   11.9789   -0.7552   23.6076 C   0  0  0  0  0  0  0  0  0  0  0  0
   10.1555   -2.2178   23.0326 N   0  0  0  0  0  0  0  0  0  0  0  0
    4.9790   -3.9433   21.7996 O   0  5  0  0  0  0  0  0  0  0  0  0
    6.1454   -4.6859   20.0146 O   0  0  0  0  0  0  0  0  0  0  0  0
   11.8701   -2.9764   24.4611 O   0  0  0  0  0  0  0  0  0  0  0  0
    9.8837   -1.3813   22.5051 H   0  0  0  0  0  0  0  0  0  0  0  0
  1  2  1  0  0  0  0
  1  3  2  0  0  0  0
  2  4  2  0  0  0  0
  3  6  1  0  0  0  0
  4  5  1  0  0  0  0
  4  7  1  0  0  0  0
  5  6  2  0  0  0  0
  5  9  1  0  0  0  0
  6 11  1  0  0  0  0
  7 12  1  0  0  0  0
  7 13  2  0  0  0  0
  8 10  1  0  0  0  0
  8 11  1  0  0  0  0
  8 14  2  0  0  0  0
 11 15  1  0  0  0  0
M  CHG  1  12  -1
M  END
> <ref_mols>
x1069_0

> <original SMILES>
CC(=O)NC=1C=CC=C(C(=O)O)C1C

> <Chemgauss4>
-6.921427

> <ref_pdb>
x0749_0

$$$$
x0214
  -OEChem-05172015543D

 15 15  0     0  0  0  0  0  0999 V2000
    8.7714   -5.5954   23.5394 C   0  0  0  0  0  0  0  0  0  0  0  0
    7.6167   -5.5361   22.7592 C   0  0  0  0  0  0  0  0  0  0  0  0
    9.6119   -4.4856   23.6267 C   0  0  0  0  0  0  0  0  0  0  0  0
    7.3025   -4.3670   22.0662 C   0  0  0  0  0  0  0  0  0  0  0  0
    8.1430   -3.2572   22.1535 C   0  0  0  0  0  0  0  0  0  0  0  0
    9.2977   -3.3165   22.9337 C   0  0  0  0  0  0  0  0  0  0  0  0
    6.0757   -4.3300   21.2490 C   0  0  0  0  0  0  0  0  0  0  0  0
   11.3450   -2.1147   23.7634 C   0  0  0  0  0  0  0  0  0  0  0  0
    7.8063   -2.0046   21.4057 C   0  0  0  0  0  0  0  0  0  0  0  0
   11.9789   -0.7552   23.6076 C   0  0  0  0  0  0  0  0  0  0  0  0
   10.1555   -2.2178   23.0326 N   0  0  0  0  0  0  0  0  0  0  0  0
    4.9790   -3.9433   21.7996 O   0  5  0  0  0  0  0  0  0  0  0  0
    6.1454   -4.6859   20.0146 O   0  0  0  0  0  0  0  0  0  0  0  0
   11.8701   -2.9764   24.4611 O   0  0  0  0  0  0  0  0  0  0  0  0
    9.8837   -1.3813   22.5051 H   0  0  0  0  0  0  0  0  0  0  0  0
  1  2  1  0  0  0  0
  1  3  2  0  0  0  0
  2  4  2  0  0  0  0
  3  6  1  0  0  0  0
  4  5  1  0  0  0  0
  4  7  1  0  0  0  0
  5  6  2  0  0  0  0
  5  9  1  0  0  0  0
  6 11  1  0  0  0  0
  7 12  1  0  0  0  0
  7 13  2  0  0  0  0
  8 10  1  0  0  0  0
  8 11  1  0  0  0  0
  8 14  2  0  0  0  0
 11 15  1  0  0  0  0
M  CHG  1  12  -1
M  END
> <ref_mols>
x0214_0

> <original SMILES>
CC(=O)NC=1C=CC=C(C(=O)O)C1C

> <Chemgauss4>
-6.921427

> <ref_pdb>
x0749_0

$$$$
x0220
  -OEChem-05172015543D

 19 20  0     1  0  0  0  0  0999 V2000
   10.0644   -0.7350   24.5977 C   0  0  0  0  0  0  0  0  0  0  0  0
   10.7337   -0.0631   23.6042 C   0  0  0  0  0  0  0  0  0  0  0  0
   10.5128    1.2977   23.8893 C   0  0  0  0  0  0  0  0  0  0  0  0
   11.4750   -0.6689   22.5400 C   0  0  0  0  0  0  0  0  0  0  0  0
   13.0511    3.7379   22.2430 C   0  0  0  0  0  0  0  0  0  0  0  0
   12.5546    2.5093   23.0049 C   0  0  0  0  0  0  0  0  0  0  0  0
   12.5202    5.0272   22.8493 C   0  0  0  0  0  0  0  0  0  0  0  0
   10.5052    3.8180   23.7186 C   0  0  0  0  0  0  0  0  0  0  0  0
   11.0197    2.5062   23.1173 C   0  0  2  0  0  0  0  0  0  0  0  0
    8.7006    0.0067   26.5645 C   0  0  0  0  0  0  0  0  0  0  0  0
    9.7619    1.4811   24.9785 N   0  0  0  0  0  0  0  0  0  0  0  0
    9.5049    0.2267   25.3866 N   0  0  0  0  0  0  0  0  0  0  0  0
   10.8065   -0.9714   21.3446 N   0  0  0  0  0  0  0  0  0  0  0  0
   11.0296    4.9641   22.9138 N   0  3  0  0  0  0  0  0  0  0  0  0
   12.6937   -0.9517   22.6472 O   0  0  0  0  0  0  0  0  0  0  0  0
    9.8190   -0.7532   21.2673 H   0  0  0  0  0  0  0  0  0  0  0  0
   11.2766   -1.4010   20.5544 H   0  0  0  0  0  0  0  0  0  0  0  0
   10.6732    5.8441   23.3112 H   0  0  0  0  0  0  0  0  0  0  0  0
   10.6464    4.9166   21.9592 H   0  0  0  0  0  0  0  0  0  0  0  0
  1  2  2  0  0  0  0
  1 12  1  0  0  0  0
  2  3  1  0  0  0  0
  2  4  1  0  0  0  0
  3  9  1  0  0  0  0
  3 11  2  0  0  0  0
  4 13  1  0  0  0  0
  4 15  2  0  0  0  0
  5  6  1  0  0  0  0
  5  7  1  0  0  0  0
  6  9  1  0  0  0  0
  7 14  1  0  0  0  0
  8  9  1  0  0  0  0
  8 14  1  0  0  0  0
 10 12  1  0  0  0  0
 11 12  1  0  0  0  0
 13 16  1  0  0  0  0
 13 17  1  0  0  0  0
 14 18  1  0  0  0  0
 14 19  1  0  0  0  0
M  CHG  1  14   1
M  END
> <ref_mols>
x0220_0

> <original SMILES>
CN1C=C(C(=O)N)C(=N1)C2CCCNC2

> <Chemgauss4>
-6.920547

> <ref_pdb>
x0104_0

$$$$
x1208
  -OEChem-05172015543D

 19 20  0     1  0  0  0  0  0999 V2000
   10.0644   -0.7350   24.5977 C   0  0  0  0  0  0  0  0  0  0  0  0
   10.7337   -0.0631   23.6042 C   0  0  0  0  0  0  0  0  0  0  0  0
   10.5128    1.2977   23.8893 C   0  0  0  0  0  0  0  0  0  0  0  0
   11.4750   -0.6689   22.5400 C   0  0  0  0  0  0  0  0  0  0  0  0
   13.0511    3.7379   22.2430 C   0  0  0  0  0  0  0  0  0  0  0  0
   12.5546    2.5093   23.0049 C   0  0  0  0  0  0  0  0  0  0  0  0
   12.5202    5.0272   22.8493 C   0  0  0  0  0  0  0  0  0  0  0  0
   10.5052    3.8180   23.7186 C   0  0  0  0  0  0  0  0  0  0  0  0
   11.0197    2.5062   23.1173 C   0  0  2  0  0  0  0  0  0  0  0  0
    8.7006    0.0067   26.5645 C   0  0  0  0  0  0  0  0  0  0  0  0
    9.7619    1.4811   24.9785 N   0  0  0  0  0  0  0  0  0  0  0  0
    9.5049    0.2267   25.3866 N   0  0  0  0  0  0  0  0  0  0  0  0
   10.8065   -0.9714   21.3446 N   0  0  0  0  0  0  0  0  0  0  0  0
   11.0296    4.9641   22.9138 N   0  3  0  0  0  0  0  0  0  0  0  0
   12.6937   -0.9517   22.6472 O   0  0  0  0  0  0  0  0  0  0  0  0
    9.8190   -0.7532   21.2673 H   0  0  0  0  0  0  0  0  0  0  0  0
   11.2766   -1.4010   20.5544 H   0  0  0  0  0  0  0  0  0  0  0  0
   10.6732    5.8441   23.3112 H   0  0  0  0  0  0  0  0  0  0  0  0
   10.6464    4.9166   21.9592 H   0  0  0  0  0  0  0  0  0  0  0  0
  1  2  2  0  0  0  0
  1 12  1  0  0  0  0
  2  3  1  0  0  0  0
  2  4  1  0  0  0  0
  3  9  1  0  0  0  0
  3 11  2  0  0  0  0
  4 13  1  0  0  0  0
  4 15  2  0  0  0  0
  5  6  1  0  0  0  0
  5  7  1  0  0  0  0
  6  9  1  0  0  0  0
  7 14  1  0  0  0  0
  8  9  1  0  0  0  0
  8 14  1  0  0  0  0
 10 12  1  0  0  0  0
 11 12  1  0  0  0  0
 13 16  1  0  0  0  0
 13 17  1  0  0  0  0
 14 18  1  0  0  0  0
 14 19  1  0  0  0  0
M  CHG  1  14   1
M  END
> <ref_mols>
x1208_0

> <original SMILES>
CN1C=C(C(=O)N)C(=N1)C2CCCNC2

> <Chemgauss4>
-6.920547

> <ref_pdb>
x0104_0

$$$$
x0228
  -OEChem-05172015543D

 16 16  0     0  0  0  0  0  0999 V2000
   14.1784   -0.3275   22.0889 C   0  0  0  0  0  0  0  0  0  0  0  0
   13.2286   -1.2448   22.5382 C   0  0  0  0  0  0  0  0  0  0  0  0
   13.9640    1.0399   22.2621 C   0  0  0  0  0  0  0  0  0  0  0  0
   11.8498    0.5727   23.3339 C   0  0  0  0  0  0  0  0  0  0  0  0
   12.0642   -0.7947   23.1607 C   0  0  0  0  0  0  0  0  0  0  0  0
   12.7997    1.4900   22.8846 C   0  0  0  0  0  0  0  0  0  0  0  0
   13.4528    3.9116   22.6587 C   0  0  0  0  0  0  0  0  0  0  0  0
   10.6001    1.0554   24.0029 C   0  0  0  0  0  0  0  0  0  0  0  0
   12.5963    5.4015   24.5168 C   0  0  0  0  0  0  0  0  0  0  0  0
   12.8594    5.2631   23.0280 C   0  0  0  0  0  0  0  0  0  0  0  0
   11.1155   -1.7401   23.6096 N   0  0  0  0  0  0  0  0  0  0  0  0
   12.6051    2.8639   23.0486 N   0  0  0  0  0  0  0  0  0  0  0  0
   14.5364    3.8097   22.0932 O   0  0  0  0  0  0  0  0  0  0  0  0
   11.2741   -2.7100   23.4307 H   0  0  0  0  0  0  0  0  0  0  0  0
   10.2607   -1.4163   24.0126 H   0  0  0  0  0  0  0  0  0  0  0  0
   11.7344    3.1458   23.5116 H   0  0  0  0  0  0  0  0  0  0  0  0
  1  2  1  0  0  0  0
  1  3  2  0  0  0  0
  2  5  2  0  0  0  0
  3  6  1  0  0  0  0
  4  5  1  0  0  0  0
  4  6  2  0  0  0  0
  4  8  1  0  0  0  0
  5 11  1  0  0  0  0
  6 12  1  0  0  0  0
  7 10  1  0  0  0  0
  7 12  1  0  0  0  0
  7 13  2  0  0  0  0
  9 10  1  0  0  0  0
 11 14  1  0  0  0  0
 11 15  1  0  0  0  0
 12 16  1  0  0  0  0
M  END
> <ref_mols>
x0228_0

> <original SMILES>
CCC(=O)NC=1C=CC=C(N)C1C

> <Chemgauss4>
-6.918121

> <ref_pdb>
x0195_0

$$$$
x2884
  -OEChem-05172015543D

 18 19  0     0  0  0  0  0  0999 V2000
    7.6007   -0.4562   20.3725 C   0  0  0  0  0  0  0  0  0  0  0  0
    6.5704   -1.3664   20.3493 C   0  0  0  0  0  0  0  0  0  0  0  0
    8.1120   -1.9310   21.8195 C   0  0  0  0  0  0  0  0  0  0  0  0
    8.8651   -2.6626   22.8760 C   0  0  0  0  0  0  0  0  0  0  0  0
    9.0164   -4.4287   24.3556 C   0  0  0  0  0  0  0  0  0  0  0  0
   11.1223   -2.0051   22.1399 C   0  0  0  0  0  0  0  0  0  0  0  0
    9.9229   -0.6912   23.9072 C   0  0  0  0  0  0  0  0  0  0  0  0
   12.3717   -1.2066   22.4918 C   0  0  0  0  0  0  0  0  0  0  0  0
   11.2383    0.0346   24.1628 C   0  0  0  0  0  0  0  0  0  0  0  0
   10.1860   -2.0806   23.3397 C   0  0  0  0  0  0  0  0  0  0  0  0
    7.1015   -4.1456   25.9770 C   0  0  0  0  0  0  0  0  0  0  0  0
    6.1373   -3.4746   21.6235 C   0  0  0  0  0  0  0  0  0  0  0  0
    8.5900   -3.9686   25.7377 C   0  0  0  0  0  0  0  0  0  0  0  0
    8.5572   -0.8135   21.2895 N   0  0  0  0  0  0  0  0  0  0  0  0
    8.3555   -3.7604   23.3514 N   0  0  0  0  0  0  0  0  0  0  0  0
    6.9123   -2.3056   21.2812 N   0  0  0  0  0  0  0  0  0  0  0  0
    9.8934   -5.2699   24.1784 O   0  0  0  0  0  0  0  0  0  0  0  0
   12.0236    0.0924   22.9717 O   0  0  0  0  0  0  0  0  0  0  0  0
  1  2  2  0  0  0  0
  1 14  1  0  0  0  0
  2 16  1  0  0  0  0
  3  4  1  0  0  0  0
  3 14  2  0  0  0  0
  3 16  1  0  0  0  0
  4 10  1  0  0  0  0
  4 15  2  0  0  0  0
  5 13  1  0  0  0  0
  5 15  1  0  0  0  0
  5 17  2  0  0  0  0
  6  8  1  0  0  0  0
  6 10  1  0  0  0  0
  7  9  1  0  0  0  0
  7 10  1  0  0  0  0
  8 18  1  0  0  0  0
  9 18  1  0  0  0  0
 11 13  1  0  0  0  0
 12 16  1  0  0  0  0
M  END
> <ref_mols>
x2884_0

> <original SMILES>
Cn1c([C@H](C2CCOCC2)NC(C=C)=O)ncc1

> <Chemgauss4>
-6.915212

> <ref_pdb>
x1392_0

$$$$
x0876
  -OEChem-05172015543D

 15 15  0     1  0  0  0  0  0999 V2000
   10.9755   -0.6156   23.5084 C   0  0  0  0  0  0  0  0  0  0  0  0
   13.4637    2.6317   22.1284 C   0  0  0  0  0  0  0  0  0  0  0  0
   12.3227    2.9542   23.0891 C   0  0  0  0  0  0  0  0  0  0  0  0
   14.0939    1.2825   22.4483 C   0  0  0  0  0  0  0  0  0  0  0  0
   11.9782    0.4873   23.4586 C   0  0  2  0  0  0  0  0  0  0  0  0
   11.2805    1.8256   23.1366 C   0  0  2  0  0  0  0  0  0  0  0  0
   10.4573    1.7924   21.8395 C   0  0  0  0  0  0  0  0  0  0  0  0
    9.4048   -1.7885   22.1890 C   0  0  0  0  0  0  0  0  0  0  0  0
   14.6481   -1.3181   23.9484 C   0  0  0  0  0  0  0  0  0  0  0  0
   13.0517    0.2037   22.4537 N   0  0  2  0  0  0  0  0  0  0  0  0
   10.7329   -1.2763   24.5093 O   0  0  0  0  0  0  0  0  0  0  0  0
   14.6507   -1.4917   21.3413 O   0  0  0  0  0  0  0  0  0  0  0  0
   12.6436   -2.3408   22.6203 O   0  0  0  0  0  0  0  0  0  0  0  0
   10.3931   -0.7579   22.2838 O   0  0  0  0  0  0  0  0  0  0  0  0
   13.7161   -1.3872   22.4403 S   0  0  0  0  0  0  0  0  0  0  0  0
  1  5  1  0  0  0  0
  1 11  2  0  0  0  0
  1 14  1  0  0  0  0
  2  3  1  0  0  0  0
  2  4  1  0  0  0  0
  3  6  1  0  0  0  0
  4 10  1  0  0  0  0
  5  6  1  0  0  0  0
  5 10  1  0  0  0  0
  6  7  1  0  0  0  0
  8 14  1  0  0  0  0
  9 15  1  0  0  0  0
 10 15  1  0  0  0  0
 12 15  2  0  0  0  0
 13 15  2  0  0  0  0
M  END
> <ref_mols>
x0876_0

> <original SMILES>
C[C@H]1[C@@H](C(OC)=O)N(S(=O)(C)=O)CCC1

> <Chemgauss4>
-6.899140

> <ref_pdb>
x0195_0

$$$$
x0636
  -OEChem-05172015543D

 11 11  0     0  0  0  0  0  0999 V2000
    7.2067   -0.0673   18.9393 C   0  0  0  0  0  0  0  0  0  0  0  0
    5.1189    0.4229   19.4248 C   0  0  0  0  0  0  0  0  0  0  0  0
    6.2902    0.0020   20.0056 C   0  0  0  0  0  0  0  0  0  0  0  0
    6.4833   -0.2882   21.3931 C   0  0  0  0  0  0  0  0  0  0  0  0
    9.1533   -1.7351   22.3412 C   0  0  0  0  0  0  0  0  0  0  0  0
    7.7002   -1.8598   22.7471 C   0  0  0  0  0  0  0  0  0  0  0  0
    6.6643    0.2815   17.7697 N   0  0  0  0  0  0  0  0  0  0  0  0
    5.3942    0.5739   18.0976 N   0  0  0  0  0  0  0  0  0  0  0  0
    6.3240    0.5245   22.3317 O   0  0  0  0  0  0  0  0  0  0  0  0
    6.8735   -1.5910   21.6096 O   0  0  0  0  0  0  0  0  0  0  0  0
    4.7655    0.8732   17.3627 H   0  0  0  0  0  0  0  0  0  0  0  0
  1  3  1  0  0  0  0
  1  7  2  0  0  0  0
  2  3  2  0  0  0  0
  2  8  1  0  0  0  0
  3  4  1  0  0  0  0
  4  9  2  0  0  0  0
  4 10  1  0  0  0  0
  5  6  1  0  0  0  0
  6 10  1  0  0  0  0
  7  8  1  0  0  0  0
  8 11  1  0  0  0  0
M  END
> <ref_mols>
x0636_0

> <original SMILES>
CCOC(=O)C=1C=NNC1

> <Chemgauss4>
-6.893861

> <ref_pdb>
x0107_0

$$$$
x0948
  -OEChem-05172015543D

 12 12  0     0  0  0  0  0  0999 V2000
    8.7412   -5.5024   23.5210 C   0  0  0  0  0  0  0  0  0  0  0  0
    8.2895   -3.5176   22.2196 C   0  0  0  0  0  0  0  0  0  0  0  0
    9.7804   -4.8386   24.1728 C   0  0  0  0  0  0  0  0  0  0  0  0
    9.3287   -2.8537   22.8715 C   0  0  0  0  0  0  0  0  0  0  0  0
    7.9957   -4.8419   22.5443 C   0  0  0  0  0  0  0  0  0  0  0  0
   10.0741   -3.5142   23.8482 C   0  0  0  0  0  0  0  0  0  0  0  0
    6.9120   -5.5339   21.8649 C   0  0  0  0  0  0  0  0  0  0  0  0
    6.6595   -6.8542   22.2261 N   0  0  0  0  0  0  0  0  0  0  0  0
    6.2413   -4.9759   20.9787 O   0  0  0  0  0  0  0  0  0  0  0  0
   11.6220   -2.5256   24.8193 I   0  0  0  0  0  0  0  0  0  0  0  0
    7.2300   -7.2901   22.9425 H   0  0  0  0  0  0  0  0  0  0  0  0
    5.9171   -7.3903   21.7886 H   0  0  0  0  0  0  0  0  0  0  0  0
  1  3  2  0  0  0  0
  1  5  1  0  0  0  0
  2  4  1  0  0  0  0
  2  5  2  0  0  0  0
  3  6  1  0  0  0  0
  4  6  2  0  0  0  0
  5  7  1  0  0  0  0
  6 10  1  0  0  0  0
  7  8  1  0  0  0  0
  7  9  2  0  0  0  0
  8 11  1  0  0  0  0
  8 12  1  0  0  0  0
M  END
> <ref_mols>
x0948_0

> <original SMILES>
IC1=CC=C(C(N)=O)C=C1

> <Chemgauss4>
-6.887597

> <ref_pdb>
x0749_0

$$$$
x0901
  -OEChem-05172015543D

 12 12  0     1  0  0  0  0  0999 V2000
   11.4470   -0.2306   23.5711 C   0  0  0  0  0  0  0  0  0  0  0  0
   12.4717   -0.0600   24.6823 C   0  0  0  0  0  0  0  0  0  0  0  0
   13.8400   -1.9305   23.7362 C   0  0  0  0  0  0  0  0  0  0  0  0
   11.4341   -1.6654   23.0190 C   0  0  2  0  0  0  0  0  0  0  0  0
   12.8468   -2.1306   22.5857 C   0  0  1  0  0  0  0  0  0  0  0  0
   13.3519   -1.4619   21.3008 C   0  0  0  0  0  0  0  0  0  0  0  0
   10.3904   -1.8053   21.9103 C   0  0  0  0  0  0  0  0  0  0  0  0
   13.8098   -0.5124   24.2036 N   0  3  0  0  0  0  0  0  0  0  0  0
   10.4199   -0.6312   21.1241 O   0  0  0  0  0  0  0  0  0  0  0  0
   14.1170    0.0998   23.4379 H   0  0  0  0  0  0  0  0  0  0  0  0
   14.5002   -0.3876   24.9548 H   0  0  0  0  0  0  0  0  0  0  0  0
    9.7514   -0.7360   20.4246 H   0  0  0  0  0  0  0  0  0  0  0  0
  1  2  1  0  0  0  0
  1  4  1  0  0  0  0
  2  8  1  0  0  0  0
  3  5  1  0  0  0  0
  3  8  1  0  0  0  0
  4  5  1  0  0  0  0
  4  7  1  0  0  0  0
  5  6  1  0  0  0  0
  7  9  1  0  0  0  0
  8 10  1  0  0  0  0
  8 11  1  0  0  0  0
  9 12  1  0  0  0  0
M  CHG  1   8   1
M  END
> <ref_mols>
x0901_0

> <original SMILES>
C[C@H]1CNCC[C@H]1CO

> <Chemgauss4>
-6.877784

> <ref_pdb>
x0678_0

$$$$
x0612
  -OEChem-05172015543D

 18 19  0     0  0  0  0  0  0999 V2000
   11.5801   -1.9512   23.7263 C   0  0  0  0  0  0  0  0  0  0  0  0
    7.7600   -3.7203   22.0830 C   0  0  0  0  0  0  0  0  0  0  0  0
    6.5651   -3.2295   21.5290 C   0  0  0  0  0  0  0  0  0  0  0  0
   12.6505   -1.9050   24.5797 C   0  0  0  0  0  0  0  0  0  0  0  0
    7.5293   -5.0638   22.2168 C   0  0  0  0  0  0  0  0  0  0  0  0
   10.8888   -3.1101   24.1197 C   0  0  0  0  0  0  0  0  0  0  0  0
    8.9596   -3.0269   22.4414 C   0  0  0  0  0  0  0  0  0  0  0  0
   13.7786   -0.9800   24.7462 C   0  0  0  0  0  0  0  0  0  0  0  0
    8.3249   -6.1910   22.7216 C   0  0  0  0  0  0  0  0  0  0  0  0
    6.3119   -1.5809   19.6570 C   0  0  0  0  0  0  0  0  0  0  0  0
    6.2346   -1.8411   21.1666 C   0  0  0  0  0  0  0  0  0  0  0  0
    5.6623   -4.1948   21.3341 N   0  0  0  0  0  0  0  0  0  0  0  0
   11.4849   -3.7349   25.1391 N   0  0  0  0  0  0  0  0  0  0  0  0
    9.6948   -3.5781   23.5154 N   0  0  0  0  0  0  0  0  0  0  0  0
    9.3277   -1.9764   21.8699 O   0  0  0  0  0  0  0  0  0  0  0  0
    6.2807   -5.3593   21.7732 O   0  0  0  0  0  0  0  0  0  0  0  0
   12.6048   -2.9641   25.4277 O   0  0  0  0  0  0  0  0  0  0  0  0
    9.3123   -4.4332   23.9115 H   0  0  0  0  0  0  0  0  0  0  0  0
  1  4  2  0  0  0  0
  1  6  1  0  0  0  0
  2  3  1  0  0  0  0
  2  5  2  0  0  0  0
  2  7  1  0  0  0  0
  3 11  1  0  0  0  0
  3 12  2  0  0  0  0
  4  8  1  0  0  0  0
  4 17  1  0  0  0  0
  5  9  1  0  0  0  0
  5 16  1  0  0  0  0
  6 13  2  0  0  0  0
  6 14  1  0  0  0  0
  7 14  1  0  0  0  0
  7 15  2  0  0  0  0
 10 11  1  0  0  0  0
 12 16  1  0  0  0  0
 13 17  1  0  0  0  0
 14 18  1  0  0  0  0
M  END
> <ref_mols>
x0612_0

> <original SMILES>
CCC1=NOC(C)=C1C(=O)NC=2C=C(C)ON2

> <Chemgauss4>
-6.868234

> <ref_pdb>
x0749_0

$$$$
x0184
  -OEChem-05172015543D

 14 14  0     1  0  0  0  0  0999 V2000
    8.0574   -4.8056   25.7530 C   0  0  0  0  0  0  0  0  0  0  0  0
    9.3544   -1.6996   23.9162 C   0  0  0  0  0  0  0  0  0  0  0  0
    7.9070   -4.7011   22.5988 C   0  0  0  0  0  0  0  0  0  0  0  0
    8.4990   -5.8013   23.4783 C   0  0  0  0  0  0  0  0  0  0  0  0
    8.9058   -3.5726   22.3661 C   0  0  0  0  0  0  0  0  0  0  0  0
   10.0570   -4.0736   24.4963 C   0  0  0  0  0  0  0  0  0  0  0  0
    9.1220   -5.2525   24.7600 C   0  0  1  0  0  0  0  0  0  0  0  0
    9.9123   -1.2510   25.2434 C   0  0  0  0  0  0  0  0  0  0  0  0
    9.4303   -3.0637   23.6342 N   0  0  0  0  0  0  0  0  0  0  0  0
    7.6953   -3.6009   25.6493 O   0  5  0  0  0  0  0  0  0  0  0  0
    7.6724   -5.7015   26.5557 O   0  0  0  0  0  0  0  0  0  0  0  0
    8.8638   -0.8616   23.1552 O   0  0  0  0  0  0  0  0  0  0  0  0
    9.8653   -6.2793   25.4096 O   0  0  0  0  0  0  0  0  0  0  0  0
    9.2381   -6.9902   25.6211 H   0  0  0  0  0  0  0  0  0  0  0  0
  1  7  1  0  0  0  0
  1 10  1  0  0  0  0
  1 11  2  0  0  0  0
  2  8  1  0  0  0  0
  2  9  1  0  0  0  0
  2 12  2  0  0  0  0
  3  4  1  0  0  0  0
  3  5  1  0  0  0  0
  4  7  1  0  0  0  0
  5  9  1  0  0  0  0
  6  7  1  0  0  0  0
  6  9  1  0  0  0  0
  7 13  1  0  0  0  0
 13 14  1  0  0  0  0
M  CHG  1  10  -1
M  END
> <ref_mols>
x0184_0

> <original SMILES>
CC(=O)N1CCCC(O)(C1)C(=O)O

> <Chemgauss4>
-6.866009

> <ref_pdb>
x1077_0

$$$$
x0476
  -OEChem-05172015543D

 19 20  0     0  0  0  0  0  0999 V2000
   12.7532    3.4644   23.4164 C   0  0  0  0  0  0  0  0  0  0  0  0
   13.2161    1.1081   22.9541 C   0  0  0  0  0  0  0  0  0  0  0  0
   11.0093    1.7709   23.6804 C   0  0  0  0  0  0  0  0  0  0  0  0
   12.7960   -0.2204   22.8898 C   0  0  0  0  0  0  0  0  0  0  0  0
   10.5891    0.4424   23.6161 C   0  0  0  0  0  0  0  0  0  0  0  0
   12.3228    2.1037   23.3494 C   0  0  0  0  0  0  0  0  0  0  0  0
   11.4825   -0.5533   23.2208 C   0  0  0  0  0  0  0  0  0  0  0  0
    8.6854   -2.6488   22.6130 C   0  0  0  0  0  0  0  0  0  0  0  0
    6.7234   -3.8003   21.6244 C   0  0  0  0  0  0  0  0  0  0  0  0
    7.7062   -1.8973   20.3837 C   0  0  0  0  0  0  0  0  0  0  0  0
    6.4440   -4.3214   20.2213 C   0  0  0  0  0  0  0  0  0  0  0  0
    6.3467   -1.9750   19.7010 C   0  0  0  0  0  0  0  0  0  0  0  0
   11.0298   -1.9831   23.1501 C   0  0  0  0  0  0  0  0  0  0  0  0
   13.1029    4.5696   23.4708 N   0  0  0  0  0  0  0  0  0  0  0  0
    7.7472   -2.7567   21.5728 N   0  0  0  0  0  0  0  0  0  0  0  0
    9.9290   -2.1574   22.2280 N   0  0  0  0  0  0  0  0  0  0  0  0
    8.4317   -2.9732   23.7769 O   0  0  0  0  0  0  0  0  0  0  0  0
    6.0004   -3.3059   19.3184 O   0  0  0  0  0  0  0  0  0  0  0  0
   10.0703   -1.9088   21.2505 H   0  0  0  0  0  0  0  0  0  0  0  0
  1  6  1  0  0  0  0
  1 14  3  0  0  0  0
  2  4  2  0  0  0  0
  2  6  1  0  0  0  0
  3  5  1  0  0  0  0
  3  6  2  0  0  0  0
  4  7  1  0  0  0  0
  5  7  2  0  0  0  0
  7 13  1  0  0  0  0
  8 15  1  0  0  0  0
  8 16  1  0  0  0  0
  8 17  2  0  0  0  0
  9 11  1  0  0  0  0
  9 15  1  0  0  0  0
 10 12  1  0  0  0  0
 10 15  1  0  0  0  0
 11 18  1  0  0  0  0
 12 18  1  0  0  0  0
 13 16  1  0  0  0  0
 16 19  1  0  0  0  0
M  END
> <ref_mols>
x0476_0

> <original SMILES>
O=C(NCC=1C=CC(C#N)=CC1)N2CCOCC2

> <Chemgauss4>
-6.863156

> <ref_pdb>
x0830_0

> <CYS145-warhead dist minimum (A)>
9.207854

> <CYS145-warhead dist mean (A)>
9.977671

> <CYS145-warhead dist stddev (A)>
0.3847484

$$$$
x1249
  -OEChem-05172015543D

 19 20  0     0  0  0  0  0  0999 V2000
   12.7532    3.4644   23.4164 C   0  0  0  0  0  0  0  0  0  0  0  0
   13.2161    1.1081   22.9541 C   0  0  0  0  0  0  0  0  0  0  0  0
   11.0093    1.7709   23.6804 C   0  0  0  0  0  0  0  0  0  0  0  0
   12.7960   -0.2204   22.8898 C   0  0  0  0  0  0  0  0  0  0  0  0
   10.5891    0.4424   23.6161 C   0  0  0  0  0  0  0  0  0  0  0  0
   12.3228    2.1037   23.3494 C   0  0  0  0  0  0  0  0  0  0  0  0
   11.4825   -0.5533   23.2208 C   0  0  0  0  0  0  0  0  0  0  0  0
    8.6854   -2.6488   22.6130 C   0  0  0  0  0  0  0  0  0  0  0  0
    6.7234   -3.8003   21.6244 C   0  0  0  0  0  0  0  0  0  0  0  0
    7.7062   -1.8973   20.3837 C   0  0  0  0  0  0  0  0  0  0  0  0
    6.4440   -4.3214   20.2213 C   0  0  0  0  0  0  0  0  0  0  0  0
    6.3467   -1.9750   19.7010 C   0  0  0  0  0  0  0  0  0  0  0  0
   11.0298   -1.9831   23.1501 C   0  0  0  0  0  0  0  0  0  0  0  0
   13.1029    4.5696   23.4708 N   0  0  0  0  0  0  0  0  0  0  0  0
    7.7472   -2.7567   21.5728 N   0  0  0  0  0  0  0  0  0  0  0  0
    9.9290   -2.1574   22.2280 N   0  0  0  0  0  0  0  0  0  0  0  0
    8.4317   -2.9732   23.7769 O   0  0  0  0  0  0  0  0  0  0  0  0
    6.0004   -3.3059   19.3184 O   0  0  0  0  0  0  0  0  0  0  0  0
   10.0703   -1.9088   21.2505 H   0  0  0  0  0  0  0  0  0  0  0  0
  1  6  1  0  0  0  0
  1 14  3  0  0  0  0
  2  4  2  0  0  0  0
  2  6  1  0  0  0  0
  3  5  1  0  0  0  0
  3  6  2  0  0  0  0
  4  7  1  0  0  0  0
  5  7  2  0  0  0  0
  7 13  1  0  0  0  0
  8 15  1  0  0  0  0
  8 16  1  0  0  0  0
  8 17  2  0  0  0  0
  9 11  1  0  0  0  0
  9 15  1  0  0  0  0
 10 12  1  0  0  0  0
 10 15  1  0  0  0  0
 11 18  1  0  0  0  0
 12 18  1  0  0  0  0
 13 16  1  0  0  0  0
 16 19  1  0  0  0  0
M  END
> <ref_mols>
x1249_0

> <original SMILES>
O=C(NCC=1C=CC(C#N)=CC1)N2CCOCC2

> <Chemgauss4>
-6.863156

> <ref_pdb>
x0830_0

$$$$
x0320
  -OEChem-05172015543D

 12 12  0     1  0  0  0  0  0999 V2000
    5.5669    0.9512   18.5877 C   0  0  0  0  0  0  0  0  0  0  0  0
    6.5343    0.4869   20.5070 C   0  0  0  0  0  0  0  0  0  0  0  0
    5.4138    1.0821   19.9810 C   0  0  0  0  0  0  0  0  0  0  0  0
    3.5781    0.7728   21.6919 C   0  0  0  0  0  0  0  0  0  0  0  0
    8.5284   -0.6380   19.4887 C   0  0  0  0  0  0  0  0  0  0  0  0
    3.6089    3.6064   22.2437 C   0  0  0  0  0  0  0  0  0  0  0  0
    4.2752    1.7333   20.7317 C   0  0  1  0  0  0  0  0  0  0  0  0
    6.6958    0.3223   18.2499 N   0  0  0  0  0  0  0  0  0  0  0  0
    7.2623    0.0528   19.4384 N   0  0  0  0  0  0  0  0  0  0  0  0
    4.7091    2.9345   21.5097 N   0  3  0  0  0  0  0  0  0  0  0  0
    5.1496    3.6015   20.8656 H   0  0  0  0  0  0  0  0  0  0  0  0
    5.4403    2.6507   22.1719 H   0  0  0  0  0  0  0  0  0  0  0  0
  1  3  1  0  0  0  0
  1  8  2  0  0  0  0
  2  3  2  0  0  0  0
  2  9  1  0  0  0  0
  3  7  1  0  0  0  0
  4  7  1  0  0  0  0
  5  9  1  0  0  0  0
  6 10  1  0  0  0  0
  7 10  1  0  0  0  0
  8  9  1  0  0  0  0
 10 11  1  0  0  0  0
 10 12  1  0  0  0  0
M  CHG  1  10   1
M  END
> <ref_mols>
x0320_0

> <original SMILES>
CNC(C)C=1C=NN(C)C1

> <Chemgauss4>
-6.862233

> <ref_pdb>
x0540_0

$$$$
x1189
  -OEChem-05172015543D

 12 12  0     1  0  0  0  0  0999 V2000
    5.5669    0.9512   18.5877 C   0  0  0  0  0  0  0  0  0  0  0  0
    6.5343    0.4869   20.5070 C   0  0  0  0  0  0  0  0  0  0  0  0
    5.4138    1.0821   19.9810 C   0  0  0  0  0  0  0  0  0  0  0  0
    3.5781    0.7728   21.6919 C   0  0  0  0  0  0  0  0  0  0  0  0
    8.5284   -0.6380   19.4887 C   0  0  0  0  0  0  0  0  0  0  0  0
    3.6089    3.6064   22.2437 C   0  0  0  0  0  0  0  0  0  0  0  0
    4.2752    1.7333   20.7317 C   0  0  1  0  0  0  0  0  0  0  0  0
    6.6958    0.3223   18.2499 N   0  0  0  0  0  0  0  0  0  0  0  0
    7.2623    0.0528   19.4384 N   0  0  0  0  0  0  0  0  0  0  0  0
    4.7091    2.9345   21.5097 N   0  3  0  0  0  0  0  0  0  0  0  0
    5.1496    3.6015   20.8656 H   0  0  0  0  0  0  0  0  0  0  0  0
    5.4403    2.6507   22.1719 H   0  0  0  0  0  0  0  0  0  0  0  0
  1  3  1  0  0  0  0
  1  8  2  0  0  0  0
  2  3  2  0  0  0  0
  2  9  1  0  0  0  0
  3  7  1  0  0  0  0
  4  7  1  0  0  0  0
  5  9  1  0  0  0  0
  6 10  1  0  0  0  0
  7 10  1  0  0  0  0
  8  9  1  0  0  0  0
 10 11  1  0  0  0  0
 10 12  1  0  0  0  0
M  CHG  1  10   1
M  END
> <ref_mols>
x1189_0

> <original SMILES>
CNC(C)C=1C=NN(C)C1

> <Chemgauss4>
-6.862233

> <ref_pdb>
x0540_0

$$$$
x0246
  -OEChem-05172015543D

 12 12  0     0  0  0  0  0  0999 V2000
   13.1825   -1.7340   22.6177 C   0  0  0  0  0  0  0  0  0  0  0  0
   11.9077   -1.2907   22.9012 C   0  0  0  0  0  0  0  0  0  0  0  0
   12.9338    0.6475   22.8807 C   0  0  0  0  0  0  0  0  0  0  0  0
   12.3671    3.0790   23.2098 C   0  0  0  0  0  0  0  0  0  0  0  0
   10.7120   -2.1435   23.0525 C   0  0  0  0  0  0  0  0  0  0  0  0
   13.7945    4.6756   21.8610 C   0  0  0  0  0  0  0  0  0  0  0  0
   13.1092    4.4070   23.1889 C   0  0  0  0  0  0  0  0  0  0  0  0
   11.7632    0.0746   23.0528 N   0  0  0  0  0  0  0  0  0  0  0  0
   13.2405    2.0274   22.9473 N   0  0  0  0  0  0  0  0  0  0  0  0
   11.1632    3.0101   23.4340 O   0  0  0  0  0  0  0  0  0  0  0  0
   14.2515   -0.3956   22.5333 S   0  0  0  0  0  0  0  0  0  0  0  0
   14.2166    2.2645   22.7822 H   0  0  0  0  0  0  0  0  0  0  0  0
  1  2  2  0  0  0  0
  1 11  1  0  0  0  0
  2  5  1  0  0  0  0
  2  8  1  0  0  0  0
  3  8  2  0  0  0  0
  3  9  1  0  0  0  0
  3 11  1  0  0  0  0
  4  7  1  0  0  0  0
  4  9  1  0  0  0  0
  4 10  2  0  0  0  0
  6  7  1  0  0  0  0
  9 12  1  0  0  0  0
M  END
> <ref_mols>
x0246_0

> <original SMILES>
CCC(=O)NC1=NC(C)=CS1

> <Chemgauss4>
-6.848430

> <ref_pdb>
x0195_0

$$$$
x2634
  -OEChem-05172015543D

 29 31  0     1  0  0  0  0  0999 V2000
    6.9695    0.1741   18.0019 C   0  0  0  0  0  0  0  0  0  0  0  0
    7.7512   -0.5789   18.8709 C   0  0  0  0  0  0  0  0  0  0  0  0
   12.1134   -2.2529   22.0054 C   0  0  0  0  0  0  0  0  0  0  0  0
   10.7264   -2.3118   21.8412 C   0  0  0  0  0  0  0  0  0  0  0  0
   10.4965   -0.0351   22.6428 C   0  0  0  0  0  0  0  0  0  0  0  0
    5.6023    0.2086   18.2240 C   0  0  0  0  0  0  0  0  0  0  0  0
    5.7751   -1.1657   20.0569 C   0  0  0  0  0  0  0  0  0  0  0  0
   14.2621    0.3458   23.1683 C   0  0  0  0  0  0  0  0  0  0  0  0
    7.1504   -1.2648   19.9206 C   0  0  0  0  0  0  0  0  0  0  0  0
   12.7112   -1.0714   22.4951 C   0  0  0  0  0  0  0  0  0  0  0  0
    9.9303   -1.2161   22.1564 C   0  0  0  0  0  0  0  0  0  0  0  0
   11.8903    0.0172   22.8051 C   0  0  0  0  0  0  0  0  0  0  0  0
    7.8162    0.7211   24.9273 C   0  0  0  0  0  0  0  0  0  0  0  0
    8.1268   -0.3727   24.2243 C   0  0  0  0  0  0  0  0  0  0  0  0
    7.6246   -0.5386   22.8288 C   0  0  0  0  0  0  0  0  0  0  0  0
    7.1690   -3.2486   21.4632 C   0  0  0  0  0  0  0  0  0  0  0  0
    7.7116   -4.7584   24.8670 C   0  0  0  0  0  0  0  0  0  0  0  0
    5.5186   -4.4216   23.6983 C   0  0  0  0  0  0  0  0  0  0  0  0
    7.2270   -5.9860   22.7379 C   0  0  0  0  0  0  0  0  0  0  0  0
    7.9723   -2.0911   20.8823 C   0  0  2  0  0  0  0  0  0  0  0  0
    7.0172   -4.6741   23.5028 C   0  0  0  0  0  0  0  0  0  0  0  0
    4.9827   -0.4443   19.2327 N   0  0  0  0  0  0  0  0  0  0  0  0
   14.0668   -0.8678   22.7082 N   0  0  0  0  0  0  0  0  0  0  0  0
    7.5876   -3.5780   22.7410 N   0  0  0  0  0  0  0  0  0  0  0  0
    8.4772   -1.2990   21.9769 N   0  0  0  0  0  0  0  0  0  0  0  0
    6.5489   -0.0252   22.5196 O   0  0  0  0  0  0  0  0  0  0  0  0
    6.2863   -3.8292   20.8344 O   0  0  0  0  0  0  0  0  0  0  0  0
   12.8691    1.3165   23.3765 S   0  0  0  0  0  0  0  0  0  0  0  0
    8.3257   -3.0441   23.1837 H   0  0  0  0  0  0  0  0  0  0  0  0
  1  2  2  0  0  0  0
  1  6  1  0  0  0  0
  2  9  1  0  0  0  0
  3  4  2  0  0  0  0
  3 10  1  0  0  0  0
  4 11  1  0  0  0  0
  5 11  2  0  0  0  0
  5 12  1  0  0  0  0
  6 22  2  0  0  0  0
  7  9  2  0  0  0  0
  7 22  1  0  0  0  0
  8 23  2  0  0  0  0
  8 28  1  0  0  0  0
  9 20  1  0  0  0  0
 10 12  2  0  0  0  0
 10 23  1  0  0  0  0
 11 25  1  0  0  0  0
 12 28  1  0  0  0  0
 13 14  2  0  0  0  0
 14 15  1  0  0  0  0
 15 25  1  0  0  0  0
 15 26  2  0  0  0  0
 16 20  1  0  0  0  0
 16 24  1  0  0  0  0
 16 27  2  0  0  0  0
 17 21  1  0  0  0  0
 18 21  1  0  0  0  0
 19 21  1  0  0  0  0
 20 25  1  0  0  0  0
 21 24  1  0  0  0  0
 24 29  1  0  0  0  0
M  END
> <ref_mols>
x2634_0

> <original SMILES>
CC(C)(C)NC(=O)C(N(C(=O)C=C)C=1C=CC=2N=CSC2C1)C=3C=CC=NC3

> <Chemgauss4>
-6.844155

> <ref_pdb>
x0831_0

$$$$
x2466
  -OEChem-05172015543D

 29 31  0     1  0  0  0  0  0999 V2000
    6.9695    0.1741   18.0019 C   0  0  0  0  0  0  0  0  0  0  0  0
    7.7512   -0.5789   18.8709 C   0  0  0  0  0  0  0  0  0  0  0  0
   12.1134   -2.2529   22.0054 C   0  0  0  0  0  0  0  0  0  0  0  0
   10.7264   -2.3118   21.8412 C   0  0  0  0  0  0  0  0  0  0  0  0
   10.4965   -0.0351   22.6428 C   0  0  0  0  0  0  0  0  0  0  0  0
    5.6023    0.2086   18.2240 C   0  0  0  0  0  0  0  0  0  0  0  0
    5.7751   -1.1657   20.0569 C   0  0  0  0  0  0  0  0  0  0  0  0
   14.2621    0.3458   23.1683 C   0  0  0  0  0  0  0  0  0  0  0  0
    7.1504   -1.2648   19.9206 C   0  0  0  0  0  0  0  0  0  0  0  0
   12.7112   -1.0714   22.4951 C   0  0  0  0  0  0  0  0  0  0  0  0
    9.9303   -1.2161   22.1564 C   0  0  0  0  0  0  0  0  0  0  0  0
   11.8903    0.0172   22.8051 C   0  0  0  0  0  0  0  0  0  0  0  0
    7.8162    0.7211   24.9273 C   0  0  0  0  0  0  0  0  0  0  0  0
    8.1268   -0.3727   24.2243 C   0  0  0  0  0  0  0  0  0  0  0  0
    7.6246   -0.5386   22.8288 C   0  0  0  0  0  0  0  0  0  0  0  0
    7.1690   -3.2486   21.4632 C   0  0  0  0  0  0  0  0  0  0  0  0
    7.7116   -4.7584   24.8670 C   0  0  0  0  0  0  0  0  0  0  0  0
    5.5186   -4.4216   23.6983 C   0  0  0  0  0  0  0  0  0  0  0  0
    7.2270   -5.9860   22.7379 C   0  0  0  0  0  0  0  0  0  0  0  0
    7.9723   -2.0911   20.8823 C   0  0  2  0  0  0  0  0  0  0  0  0
    7.0172   -4.6741   23.5028 C   0  0  0  0  0  0  0  0  0  0  0  0
    4.9827   -0.4443   19.2327 N   0  0  0  0  0  0  0  0  0  0  0  0
   14.0668   -0.8678   22.7082 N   0  0  0  0  0  0  0  0  0  0  0  0
    7.5876   -3.5780   22.7410 N   0  0  0  0  0  0  0  0  0  0  0  0
    8.4772   -1.2990   21.9769 N   0  0  0  0  0  0  0  0  0  0  0  0
    6.5489   -0.0252   22.5196 O   0  0  0  0  0  0  0  0  0  0  0  0
    6.2863   -3.8292   20.8344 O   0  0  0  0  0  0  0  0  0  0  0  0
   12.8691    1.3165   23.3765 S   0  0  0  0  0  0  0  0  0  0  0  0
    8.3257   -3.0441   23.1837 H   0  0  0  0  0  0  0  0  0  0  0  0
  1  2  2  0  0  0  0
  1  6  1  0  0  0  0
  2  9  1  0  0  0  0
  3  4  2  0  0  0  0
  3 10  1  0  0  0  0
  4 11  1  0  0  0  0
  5 11  2  0  0  0  0
  5 12  1  0  0  0  0
  6 22  2  0  0  0  0
  7  9  2  0  0  0  0
  7 22  1  0  0  0  0
  8 23  2  0  0  0  0
  8 28  1  0  0  0  0
  9 20  1  0  0  0  0
 10 12  2  0  0  0  0
 10 23  1  0  0  0  0
 11 25  1  0  0  0  0
 12 28  1  0  0  0  0
 13 14  2  0  0  0  0
 14 15  1  0  0  0  0
 15 25  1  0  0  0  0
 15 26  2  0  0  0  0
 16 20  1  0  0  0  0
 16 24  1  0  0  0  0
 16 27  2  0  0  0  0
 17 21  1  0  0  0  0
 18 21  1  0  0  0  0
 19 21  1  0  0  0  0
 20 25  1  0  0  0  0
 21 24  1  0  0  0  0
 24 29  1  0  0  0  0
M  END
> <ref_mols>
x2466_0

> <original SMILES>
CC(C)(C)NC(=O)C(N(C(=O)C=C)C=1C=CC=2N=CSC2C1)C=3C=CC=NC3

> <Chemgauss4>
-6.844155

> <ref_pdb>
x0831_0

> <CYS145-warhead dist minimum (A)>
7.490501

> <CYS145-warhead dist mean (A)>
8.4184

> <CYS145-warhead dist stddev (A)>
0.26279014

$$$$
x0295
  -OEChem-05172015543D

 16 16  0     0  0  0  0  0  0999 V2000
    4.9991   -6.9083   22.5004 C   0  0  0  0  0  0  0  0  0  0  0  0
    9.6182   -4.3789   25.5897 C   0  0  0  0  0  0  0  0  0  0  0  0
    6.3515   -5.1889   21.4600 C   0  0  0  0  0  0  0  0  0  0  0  0
    9.6355   -5.4523   23.3479 C   0  0  0  0  0  0  0  0  0  0  0  0
    8.4760   -3.2071   23.7367 C   0  0  0  0  0  0  0  0  0  0  0  0
    8.2210   -5.9101   22.9990 C   0  0  0  0  0  0  0  0  0  0  0  0
    7.9370   -3.5144   22.3447 C   0  0  0  0  0  0  0  0  0  0  0  0
    9.6462   -4.1235   24.1121 C   0  0  0  0  0  0  0  0  0  0  0  0
    5.9283   -6.6368   21.4115 C   0  0  0  0  0  0  0  0  0  0  0  0
    4.2578   -7.1412   23.3623 N   0  0  0  0  0  0  0  0  0  0  0  0
    7.4704   -4.8989   22.2434 N   0  0  0  0  0  0  0  0  0  0  0  0
   10.6766   -5.1305   26.0427 N   0  0  0  0  0  0  0  0  0  0  0  0
    8.7303   -3.9332   26.3125 O   0  0  0  0  0  0  0  0  0  0  0  0
    5.7149   -4.3469   20.8223 O   0  0  0  0  0  0  0  0  0  0  0  0
   11.3717   -5.4454   25.3740 H   0  0  0  0  0  0  0  0  0  0  0  0
   10.7906   -5.3828   27.0190 H   0  0  0  0  0  0  0  0  0  0  0  0
  1  9  1  0  0  0  0
  1 10  3  0  0  0  0
  2  8  1  0  0  0  0
  2 12  1  0  0  0  0
  2 13  2  0  0  0  0
  3  9  1  0  0  0  0
  3 11  1  0  0  0  0
  3 14  2  0  0  0  0
  4  6  1  0  0  0  0
  4  8  1  0  0  0  0
  5  7  1  0  0  0  0
  5  8  1  0  0  0  0
  6 11  1  0  0  0  0
  7 11  1  0  0  0  0
 12 15  1  0  0  0  0
 12 16  1  0  0  0  0
M  END
> <ref_mols>
x0295_0

> <original SMILES>
NC(=O)C1CCN(CC1)C(=O)CC#N

> <Chemgauss4>
-6.837075

> <ref_pdb>
x1311_0

$$$$
x2885
  -OEChem-05172015543D

 15 16  0     0  0  0  0  0  0999 V2000
    7.1761   -1.4472   20.6763 C   0  0  0  0  0  0  0  0  0  0  0  0
    8.3686   -1.1083   21.3030 C   0  0  0  0  0  0  0  0  0  0  0  0
    6.5785   -2.6293   21.0406 C   0  0  0  0  0  0  0  0  0  0  0  0
    8.9346   -1.9380   22.2853 C   0  0  0  0  0  0  0  0  0  0  0  0
    8.2566   -3.1394   22.5910 C   0  0  0  0  0  0  0  0  0  0  0  0
   12.8609    0.7670   23.4100 C   0  0  0  0  0  0  0  0  0  0  0  0
   12.2691   -0.3184   22.9070 C   0  0  0  0  0  0  0  0  0  0  0  0
   10.7905   -0.3531   22.8228 C   0  0  0  0  0  0  0  0  0  0  0  0
   10.8030   -2.7037   23.7071 C   0  0  0  0  0  0  0  0  0  0  0  0
    9.7760   -3.5285   24.4578 C   0  0  0  0  0  0  0  0  0  0  0  0
    8.0071   -5.2043   23.9025 C   0  0  0  0  0  0  0  0  0  0  0  0
    7.0900   -3.4681   21.9627 N   0  0  0  0  0  0  0  0  0  0  0  0
   10.1888   -1.6169   22.9281 N   0  0  0  0  0  0  0  0  0  0  0  0
    8.7730   -4.0238   23.5390 N   0  0  1  0  0  0  0  0  0  0  0  0
   10.2161    0.7253   22.6770 O   0  0  0  0  0  0  0  0  0  0  0  0
  1  2  1  0  0  0  0
  1  3  2  0  0  0  0
  2  4  2  0  0  0  0
  3 12  1  0  0  0  0
  4  5  1  0  0  0  0
  4 13  1  0  0  0  0
  5 12  2  0  0  0  0
  5 14  1  0  0  0  0
  6  7  2  0  0  0  0
  7  8  1  0  0  0  0
  8 13  1  0  0  0  0
  8 15  2  0  0  0  0
  9 10  1  0  0  0  0
  9 13  1  0  0  0  0
 10 14  1  0  0  0  0
 11 14  1  0  0  0  0
M  END
> <ref_mols>
x2885_0

> <original SMILES>
CN(CC1)c(nccc2)c2N1C(C=C)=O

> <Chemgauss4>
-6.834341

> <ref_pdb>
x1418_0

$$$$
x1177
  -OEChem-05172015543D

 12 12  0     1  0  0  0  0  0999 V2000
   13.0898   -1.1610   22.6064 C   0  0  0  0  0  0  0  0  0  0  0  0
   11.9324    0.4629   24.0703 C   0  0  0  0  0  0  0  0  0  0  0  0
   13.8313    1.2690   22.7308 C   0  0  0  0  0  0  0  0  0  0  0  0
   11.1781    1.7238   23.6745 C   0  0  0  0  0  0  0  0  0  0  0  0
   12.9993    2.5070   22.3865 C   0  0  2  0  0  0  0  0  0  0  0  0
   14.1611   -1.3975   21.5720 C   0  0  0  0  0  0  0  0  0  0  0  0
   13.8875    3.7252   22.1794 C   0  0  0  0  0  0  0  0  0  0  0  0
   12.9504    0.1454   23.0698 N   0  0  0  0  0  0  0  0  0  0  0  0
   12.3969   -2.1079   22.9871 O   0  0  0  0  0  0  0  0  0  0  0  0
   12.0940    2.8006   23.4594 O   0  0  0  0  0  0  0  0  0  0  0  0
   13.0682    4.8345   21.8539 O   0  0  0  0  0  0  0  0  0  0  0  0
   13.6584    5.5965   21.7272 H   0  0  0  0  0  0  0  0  0  0  0  0
  1  6  1  0  0  0  0
  1  8  1  0  0  0  0
  1  9  2  0  0  0  0
  2  4  1  0  0  0  0
  2  8  1  0  0  0  0
  3  5  1  0  0  0  0
  3  8  1  0  0  0  0
  4 10  1  0  0  0  0
  5  7  1  0  0  0  0
  5 10  1  0  0  0  0
  7 11  1  0  0  0  0
 11 12  1  0  0  0  0
M  END
> <ref_mols>
x1177_0

> <original SMILES>
CC(=O)N1CCOC(CO)C1

> <Chemgauss4>
-6.830017

> <ref_pdb>
x0195_0

$$$$
x0039
  -OEChem-05172015543D

 12 12  0     1  0  0  0  0  0999 V2000
   13.0898   -1.1610   22.6064 C   0  0  0  0  0  0  0  0  0  0  0  0
   11.9324    0.4629   24.0703 C   0  0  0  0  0  0  0  0  0  0  0  0
   13.8313    1.2690   22.7308 C   0  0  0  0  0  0  0  0  0  0  0  0
   11.1781    1.7238   23.6745 C   0  0  0  0  0  0  0  0  0  0  0  0
   12.9993    2.5070   22.3865 C   0  0  2  0  0  0  0  0  0  0  0  0
   14.1611   -1.3975   21.5720 C   0  0  0  0  0  0  0  0  0  0  0  0
   13.8875    3.7252   22.1794 C   0  0  0  0  0  0  0  0  0  0  0  0
   12.9504    0.1454   23.0698 N   0  0  0  0  0  0  0  0  0  0  0  0
   12.3969   -2.1079   22.9871 O   0  0  0  0  0  0  0  0  0  0  0  0
   12.0940    2.8006   23.4594 O   0  0  0  0  0  0  0  0  0  0  0  0
   13.0682    4.8345   21.8539 O   0  0  0  0  0  0  0  0  0  0  0  0
   13.6584    5.5965   21.7272 H   0  0  0  0  0  0  0  0  0  0  0  0
  1  6  1  0  0  0  0
  1  8  1  0  0  0  0
  1  9  2  0  0  0  0
  2  4  1  0  0  0  0
  2  8  1  0  0  0  0
  3  5  1  0  0  0  0
  3  8  1  0  0  0  0
  4 10  1  0  0  0  0
  5  7  1  0  0  0  0
  5 10  1  0  0  0  0
  7 11  1  0  0  0  0
 11 12  1  0  0  0  0
M  END
> <ref_mols>
x0039_0

> <original SMILES>
CC(=O)N1CCOC(CO)C1

> <Chemgauss4>
-6.830017

> <ref_pdb>
x0195_0

$$$$
x0255
  -OEChem-05172015543D

 15 16  0     1  0  0  0  0  0999 V2000
   11.3186    2.3954   23.4549 C   0  0  0  0  0  0  0  0  0  0  0  0
   12.3081    1.4040   23.3382 C   0  0  0  0  0  0  0  0  0  0  0  0
   11.9739    3.5507   23.1203 C   0  0  0  0  0  0  0  0  0  0  0  0
   10.7286   -1.9631   23.5793 C   0  0  0  0  0  0  0  0  0  0  0  0
   10.7424   -0.4937   23.9566 C   0  0  0  0  0  0  0  0  0  0  0  0
   11.4898   -1.9934   22.2615 C   0  0  0  0  0  0  0  0  0  0  0  0
   12.1666   -0.0764   23.5865 C   0  0  1  0  0  0  0  0  0  0  0  0
   11.5687    4.9586   23.0273 C   0  0  0  0  0  0  0  0  0  0  0  0
   13.9137   -1.7626   20.3112 C   0  0  0  0  0  0  0  0  0  0  0  0
   13.4870    1.9060   22.9601 N   0  0  0  0  0  0  0  0  0  0  0  0
   12.4658   -0.8656   22.3462 N   0  0  1  0  0  0  0  0  0  0  0  0
   14.5372   -2.3226   22.7860 O   0  0  0  0  0  0  0  0  0  0  0  0
   14.8376    0.0452   21.9561 O   0  0  0  0  0  0  0  0  0  0  0  0
   13.2688    3.2716   22.8229 O   0  0  0  0  0  0  0  0  0  0  0  0
   14.0952   -1.1988   21.9850 S   0  0  0  0  0  0  0  0  0  0  0  0
  1  2  1  0  0  0  0
  1  3  2  0  0  0  0
  2  7  1  0  0  0  0
  2 10  2  0  0  0  0
  3  8  1  0  0  0  0
  3 14  1  0  0  0  0
  4  5  1  0  0  0  0
  4  6  1  0  0  0  0
  5  7  1  0  0  0  0
  6 11  1  0  0  0  0
  7 11  1  0  0  0  0
  9 15  1  0  0  0  0
 10 14  1  0  0  0  0
 11 15  1  0  0  0  0
 12 15  2  0  0  0  0
 13 15  2  0  0  0  0
M  END
> <ref_mols>
x0255_0

> <original SMILES>
CC1=CC(=NO1)C2CCCN2S(=O)(=O)C

> <Chemgauss4>
-6.827914

> <ref_pdb>
x0195_0

$$$$
x1143
  -OEChem-05172015543D

 15 16  0     1  0  0  0  0  0999 V2000
   11.3186    2.3954   23.4549 C   0  0  0  0  0  0  0  0  0  0  0  0
   12.3081    1.4040   23.3382 C   0  0  0  0  0  0  0  0  0  0  0  0
   11.9739    3.5507   23.1203 C   0  0  0  0  0  0  0  0  0  0  0  0
   10.7286   -1.9631   23.5793 C   0  0  0  0  0  0  0  0  0  0  0  0
   10.7424   -0.4937   23.9566 C   0  0  0  0  0  0  0  0  0  0  0  0
   11.4898   -1.9934   22.2615 C   0  0  0  0  0  0  0  0  0  0  0  0
   12.1666   -0.0764   23.5865 C   0  0  1  0  0  0  0  0  0  0  0  0
   11.5687    4.9586   23.0273 C   0  0  0  0  0  0  0  0  0  0  0  0
   13.9137   -1.7626   20.3112 C   0  0  0  0  0  0  0  0  0  0  0  0
   13.4870    1.9060   22.9601 N   0  0  0  0  0  0  0  0  0  0  0  0
   12.4658   -0.8656   22.3462 N   0  0  1  0  0  0  0  0  0  0  0  0
   14.5372   -2.3226   22.7860 O   0  0  0  0  0  0  0  0  0  0  0  0
   14.8376    0.0452   21.9561 O   0  0  0  0  0  0  0  0  0  0  0  0
   13.2688    3.2716   22.8229 O   0  0  0  0  0  0  0  0  0  0  0  0
   14.0952   -1.1988   21.9850 S   0  0  0  0  0  0  0  0  0  0  0  0
  1  2  1  0  0  0  0
  1  3  2  0  0  0  0
  2  7  1  0  0  0  0
  2 10  2  0  0  0  0
  3  8  1  0  0  0  0
  3 14  1  0  0  0  0
  4  5  1  0  0  0  0
  4  6  1  0  0  0  0
  5  7  1  0  0  0  0
  6 11  1  0  0  0  0
  7 11  1  0  0  0  0
  9 15  1  0  0  0  0
 10 14  1  0  0  0  0
 11 15  1  0  0  0  0
 12 15  2  0  0  0  0
 13 15  2  0  0  0  0
M  END
> <ref_mols>
x1143_0

> <original SMILES>
CC1=CC(=NO1)C2CCCN2S(=O)(=O)C

> <Chemgauss4>
-6.827914

> <ref_pdb>
x0195_0

$$$$
x0305
  -OEChem-05172015543D

 12 12  0     0  0  0  0  0  0999 V2000
    6.4534   -4.1460   21.6935 C   0  0  0  0  0  0  0  0  0  0  0  0
    7.9448   -5.2049   23.3261 C   0  0  0  0  0  0  0  0  0  0  0  0
    9.0819   -5.1505   24.1244 C   0  0  0  0  0  0  0  0  0  0  0  0
    8.4442   -3.0109   22.5557 C   0  0  0  0  0  0  0  0  0  0  0  0
    7.6129   -4.1188   22.5238 C   0  0  0  0  0  0  0  0  0  0  0  0
    9.8476   -3.9964   24.0845 C   0  0  0  0  0  0  0  0  0  0  0  0
   13.0073   -3.0625   25.8921 C   0  0  0  0  0  0  0  0  0  0  0  0
   11.8733   -2.8270   24.9534 C   0  0  0  0  0  0  0  0  0  0  0  0
    5.5100   -4.1681   21.0180 N   0  0  0  0  0  0  0  0  0  0  0  0
    9.5570   -2.9213   23.3181 N   0  0  0  0  0  0  0  0  0  0  0  0
   11.0028   -3.9562   24.9043 N   0  0  0  0  0  0  0  0  0  0  0  0
   11.1879   -4.7680   25.4572 H   0  0  0  0  0  0  0  0  0  0  0  0
  1  5  1  0  0  0  0
  1  9  3  0  0  0  0
  2  3  2  0  0  0  0
  2  5  1  0  0  0  0
  3  6  1  0  0  0  0
  4  5  2  0  0  0  0
  4 10  1  0  0  0  0
  6 10  2  0  0  0  0
  6 11  1  0  0  0  0
  7  8  1  0  0  0  0
  8 11  1  0  0  0  0
 11 12  1  0  0  0  0
M  END
> <ref_mols>
x0305_0

> <original SMILES>
CCNC=1C=CC(C#N)=CN1

> <Chemgauss4>
-6.826525

> <ref_pdb>
x0749_0

> <CYS145-warhead dist minimum (A)>
29.154938

> <CYS145-warhead dist mean (A)>
39.418396

> <CYS145-warhead dist stddev (A)>
3.2742639

$$$$
x1019
  -OEChem-05172015543D

  9  9  0     0  0  0  0  0  0999 V2000
    4.9182    1.0682   19.5467 C   0  0  0  0  0  0  0  0  0  0  0  0
    5.7574   -0.0216   19.6982 C   0  0  0  0  0  0  0  0  0  0  0  0
    5.0457    1.8275   18.4010 C   0  0  0  0  0  0  0  0  0  0  0  0
    6.6684   -0.2801   18.6937 C   0  0  0  0  0  0  0  0  0  0  0  0
    5.9463    1.5512   17.4342 N   0  0  0  0  0  0  0  0  0  0  0  0
    6.7709    0.4799   17.5830 N   0  0  0  0  0  0  0  0  0  0  0  0
    7.5264   -1.3937   18.8492 N   0  0  0  0  0  0  0  0  0  0  0  0
    7.4811   -1.9255   19.6925 H   0  0  0  0  0  0  0  0  0  0  0  0
    8.2228   -1.5682   18.1558 H   0  0  0  0  0  0  0  0  0  0  0  0
  1  2  2  0  0  0  0
  1  3  1  0  0  0  0
  2  4  1  0  0  0  0
  3  5  2  0  0  0  0
  4  6  2  0  0  0  0
  4  7  1  0  0  0  0
  5  6  1  0  0  0  0
  7  8  1  0  0  0  0
  7  9  1  0  0  0  0
M  END
> <ref_mols>
x1019_0

> <original SMILES>
NC=1C=CC=NN1

> <Chemgauss4>
-6.825739

> <ref_pdb>
x0397_0

$$$$
x0987
  -OEChem-05172015543D

 26 25  0     1  0  0  0  0  0999 V2000
   10.8615   -1.1767   22.3581 C   0  0  0  0  0  0  0  0  0  0  0  0
   11.8023   -1.4146   23.0650 C   0  0  0  0  0  0  0  0  0  0  0  0
    8.3699    4.3625   23.9348 C   0  0  0  0  0  0  0  0  0  0  0  0
    9.0524    1.4850   21.8223 C   0  0  0  0  0  0  0  0  0  0  0  0
    5.5020    0.9141   18.4256 C   0  0  0  0  0  0  0  0  0  0  0  0
    9.1809    5.6105   24.0503 C   0  0  0  0  0  0  0  0  0  0  0  0
    9.7173   -0.8900   21.4938 C   0  0  0  0  0  0  0  0  0  0  0  0
    5.8369    1.3939   21.5976 C   0  0  0  0  0  0  0  0  0  0  0  0
    6.7753    2.6085   21.6436 C   0  0  0  0  0  0  0  0  0  0  0  0
    4.6423    1.6099   20.6718 C   0  0  0  0  0  0  0  0  0  0  0  0
    8.0078    2.3485   22.5223 C   0  0  2  0  0  0  0  0  0  0  0  0
    5.9178    1.2469   17.1406 N   0  0  0  0  0  0  0  0  0  0  0  0
    8.8734    0.1316   22.0697 N   0  0  0  0  0  0  0  0  0  0  0  0
    8.6802    3.6123   22.8292 N   0  0  0  0  0  0  0  0  0  0  0  0
    5.0826    1.9056   19.3297 N   0  0  0  0  0  0  0  0  0  0  0  0
    5.5034   -0.4214   18.8143 N   0  3  0  0  0  0  0  0  0  0  0  0
    7.5298    4.1067   24.7894 O   0  0  0  0  0  0  0  0  0  0  0  0
    9.9289    1.9587   21.1018 O   0  0  0  0  0  0  0  0  0  0  0  0
   13.2915   -1.7908   24.1837 Br  0  0  0  0  0  0  0  0  0  0  0  0
    5.9259    2.2151   16.8284 H   0  0  0  0  0  0  0  0  0  0  0  0
    6.2229    0.5420   16.4748 H   0  0  0  0  0  0  0  0  0  0  0  0
    8.1155   -0.1536   22.6827 H   0  0  0  0  0  0  0  0  0  0  0  0
    9.3977    3.9435   22.2048 H   0  0  0  0  0  0  0  0  0  0  0  0
    5.1034    2.8750   18.9896 H   0  0  0  0  0  0  0  0  0  0  0  0
    5.8024   -1.1554   18.1768 H   0  0  0  0  0  0  0  0  0  0  0  0
    5.2056   -0.6991   19.7463 H   0  0  0  0  0  0  0  0  0  0  0  0
  1  2  3  0  0  0  0
  1  7  1  0  0  0  0
  2 19  1  0  0  0  0
  3  6  1  0  0  0  0
  3 14  1  0  0  0  0
  3 17  2  0  0  0  0
  4 11  1  0  0  0  0
  4 13  1  0  0  0  0
  4 18  2  0  0  0  0
  5 12  1  0  0  0  0
  5 15  1  0  0  0  0
  5 16  2  0  0  0  0
  7 13  1  0  0  0  0
  8  9  1  0  0  0  0
  8 10  1  0  0  0  0
  9 11  1  0  0  0  0
 10 15  1  0  0  0  0
 11 14  1  0  0  0  0
 12 20  1  0  0  0  0
 12 21  1  0  0  0  0
 13 22  1  0  0  0  0
 14 23  1  0  0  0  0
 15 24  1  0  0  0  0
 16 25  1  0  0  0  0
 16 26  1  0  0  0  0
M  CHG  1  16   1
M  END
> <ref_mols>
x0987_0

> <original SMILES>
CC(N[C@@H](CCCNC(N)=N)C(NCC#CBr)=O)=O.O=C([O-])C(F)(F)F

> <Chemgauss4>
-6.821247

> <ref_pdb>
x0967_0

$$$$
x1015
  -OEChem-05172015543D

  9  9  0     0  0  0  0  0  0999 V2000
    5.2028    1.2543   18.7781 C   0  0  0  0  0  0  0  0  0  0  0  0
    6.0235    1.1075   17.6784 C   0  0  0  0  0  0  0  0  0  0  0  0
    5.3431    0.2948   19.7600 C   0  0  0  0  0  0  0  0  0  0  0  0
    6.9583   -0.7662   18.5631 C   0  0  0  0  0  0  0  0  0  0  0  0
    6.9160    0.1056   17.5375 N   0  0  0  0  0  0  0  0  0  0  0  0
    6.2139   -0.7330   19.6849 N   0  0  0  0  0  0  0  0  0  0  0  0
    7.8825   -1.8280   18.4506 N   0  0  0  0  0  0  0  0  0  0  0  0
    8.4215   -1.9167   17.6141 H   0  0  0  0  0  0  0  0  0  0  0  0
    7.9130   -2.5234   19.1673 H   0  0  0  0  0  0  0  0  0  0  0  0
  1  2  1  0  0  0  0
  1  3  2  0  0  0  0
  2  5  2  0  0  0  0
  3  6  1  0  0  0  0
  4  5  1  0  0  0  0
  4  6  2  0  0  0  0
  4  7  1  0  0  0  0
  7  8  1  0  0  0  0
  7  9  1  0  0  0  0
M  END
> <ref_mols>
x1015_0

> <original SMILES>
NC=1N=CC=CN1

> <Chemgauss4>
-6.819480

> <ref_pdb>
x0397_0

$$$$
x1232
  -OEChem-05172015543D

 13 13  0     0  0  0  0  0  0999 V2000
   12.6244   -1.6407   22.1161 C   0  0  0  0  0  0  0  0  0  0  0  0
   10.9176   -0.1650   23.2263 C   0  0  0  0  0  0  0  0  0  0  0  0
   13.6516   -1.0599   23.0838 C   0  0  0  0  0  0  0  0  0  0  0  0
   12.0410    0.3326   24.1316 C   0  0  0  0  0  0  0  0  0  0  0  0
   11.4630   -0.6644   21.8807 C   0  0  0  0  0  0  0  0  0  0  0  0
    9.1717   -0.5843   20.8945 C   0  0  0  0  0  0  0  0  0  0  0  0
   11.8607    0.4915   20.9555 C   0  0  0  0  0  0  0  0  0  0  0  0
   10.3648   -1.4120   21.1858 N   0  3  0  0  0  0  0  0  0  0  0  0
   13.0317   -0.6791   24.3119 O   0  0  0  0  0  0  0  0  0  0  0  0
   10.9408    1.5499   21.1422 O   0  0  0  0  0  0  0  0  0  0  0  0
   10.7398   -1.7999   20.3148 H   0  0  0  0  0  0  0  0  0  0  0  0
   10.0995   -2.2112   21.7694 H   0  0  0  0  0  0  0  0  0  0  0  0
   11.2097    2.2716   20.5480 H   0  0  0  0  0  0  0  0  0  0  0  0
  1  3  1  0  0  0  0
  1  5  1  0  0  0  0
  2  4  1  0  0  0  0
  2  5  1  0  0  0  0
  3  9  1  0  0  0  0
  4  9  1  0  0  0  0
  5  7  1  0  0  0  0
  5  8  1  0  0  0  0
  6  8  1  0  0  0  0
  7 10  1  0  0  0  0
  8 11  1  0  0  0  0
  8 12  1  0  0  0  0
 10 13  1  0  0  0  0
M  CHG  1   8   1
M  END
> <ref_mols>
x1232_0

> <original SMILES>
CNC1(CO)CCOCC1

> <Chemgauss4>
-6.817951

> <ref_pdb>
x0678_0

$$$$
x0980
  -OEChem-05172015543D

 23 22  0     1  0  0  0  0  0999 V2000
    6.4338   -1.0726   23.4930 C   0  0  0  0  0  0  0  0  0  0  0  0
    5.7745   -1.9700   23.9417 C   0  0  0  0  0  0  0  0  0  0  0  0
    9.1472    6.3273   23.1116 C   0  0  0  0  0  0  0  0  0  0  0  0
   12.4570   -1.0960   22.4021 C   0  0  0  0  0  0  0  0  0  0  0  0
    9.6789    0.4924   22.8290 C   0  0  0  0  0  0  0  0  0  0  0  0
    8.0513    6.3444   22.0982 C   0  0  0  0  0  0  0  0  0  0  0  0
   13.6247   -1.1086   21.4722 C   0  0  0  0  0  0  0  0  0  0  0  0
    7.2334    0.0217   22.9435 C   0  0  0  0  0  0  0  0  0  0  0  0
   11.1950    2.9614   23.5874 C   0  0  0  0  0  0  0  0  0  0  0  0
   11.3204    4.2328   24.4313 C   0  0  0  0  0  0  0  0  0  0  0  0
   11.1110    1.7140   24.4732 C   0  0  0  0  0  0  0  0  0  0  0  0
   11.4413    5.4728   23.5471 C   0  0  0  0  0  0  0  0  0  0  0  0
   10.9450    0.4110   23.6770 C   0  0  2  0  0  0  0  0  0  0  0  0
    8.5619    0.0322   23.5125 N   0  0  0  0  0  0  0  0  0  0  0  0
   10.2546    5.6169   22.7123 N   0  0  0  0  0  0  0  0  0  0  0  0
   12.0679    0.1672   22.7738 N   0  0  0  0  0  0  0  0  0  0  0  0
    8.9961    6.9173   24.1749 O   0  0  0  0  0  0  0  0  0  0  0  0
   11.9509   -2.1561   22.7509 O   0  0  0  0  0  0  0  0  0  0  0  0
    9.6678    0.9359   21.6824 O   0  0  0  0  0  0  0  0  0  0  0  0
    4.7311   -3.3905   24.6517 Br  0  0  0  0  0  0  0  0  0  0  0  0
    8.6688   -0.3260   24.4568 H   0  0  0  0  0  0  0  0  0  0  0  0
   10.2458    5.1769   21.8034 H   0  0  0  0  0  0  0  0  0  0  0  0
   12.5767    0.9577   22.4094 H   0  0  0  0  0  0  0  0  0  0  0  0
  1  2  3  0  0  0  0
  1  8  1  0  0  0  0
  2 20  1  0  0  0  0
  3  6  1  0  0  0  0
  3 15  1  0  0  0  0
  3 17  2  0  0  0  0
  4  7  1  0  0  0  0
  4 16  1  0  0  0  0
  4 18  2  0  0  0  0
  5 13  1  0  0  0  0
  5 14  1  0  0  0  0
  5 19  2  0  0  0  0
  8 14  1  0  0  0  0
  9 10  1  0  0  0  0
  9 11  1  0  0  0  0
 10 12  1  0  0  0  0
 11 13  1  0  0  0  0
 12 15  1  0  0  0  0
 13 16  1  0  0  0  0
 14 21  1  0  0  0  0
 15 22  1  0  0  0  0
 16 23  1  0  0  0  0
M  END
> <ref_mols>
x0980_0

> <original SMILES>
CC(=O)NCCCC[C@H](NC(=O)C)C(=O)NCC#CBr

> <Chemgauss4>
-6.815424

> <ref_pdb>
x0104_0

$$$$
x0479
  -OEChem-05172015543D

 19 19  0     0  0  0  0  0  0999 V2000
    7.4498   -3.7589   22.6212 C   0  0  0  0  0  0  0  0  0  0  0  0
    7.8421   -4.6827   24.8189 C   0  0  0  0  0  0  0  0  0  0  0  0
    8.7436   -3.2377   22.6093 C   0  0  0  0  0  0  0  0  0  0  0  0
    9.1359   -4.1615   24.8070 C   0  0  0  0  0  0  0  0  0  0  0  0
    6.9991   -4.4814   23.7260 C   0  0  0  0  0  0  0  0  0  0  0  0
    9.5866   -3.4390   23.7022 C   0  0  0  0  0  0  0  0  0  0  0  0
    4.7232   -4.9041   22.7432 C   0  0  0  0  0  0  0  0  0  0  0  0
   11.8670   -3.0191   24.6855 C   0  0  0  0  0  0  0  0  0  0  0  0
    3.4500   -5.6071   23.1424 C   0  0  0  0  0  0  0  0  0  0  0  0
   13.1818   -0.7729   26.2879 C   0  0  0  0  0  0  0  0  0  0  0  0
   12.0931   -0.0236   24.1631 C   0  0  0  0  0  0  0  0  0  0  0  0
   13.1472   -2.3023   24.2690 C   0  0  0  0  0  0  0  0  0  0  0  0
   13.2349   -0.8490   24.7598 C   0  0  0  0  0  0  0  0  0  0  0  0
    5.7050   -5.0024   23.7382 N   0  0  0  0  0  0  0  0  0  0  0  0
   10.8994   -2.9103   23.6905 N   0  0  0  0  0  0  0  0  0  0  0  0
    4.8148   -4.3383   21.6586 O   0  0  0  0  0  0  0  0  0  0  0  0
   11.7714   -3.6163   25.7525 O   0  0  0  0  0  0  0  0  0  0  0  0
    5.4320   -5.5251   24.5786 H   0  0  0  0  0  0  0  0  0  0  0  0
   11.1527   -2.3960   22.8495 H   0  0  0  0  0  0  0  0  0  0  0  0
  1  3  2  0  0  0  0
  1  5  1  0  0  0  0
  2  4  1  0  0  0  0
  2  5  2  0  0  0  0
  3  6  1  0  0  0  0
  4  6  2  0  0  0  0
  5 14  1  0  0  0  0
  6 15  1  0  0  0  0
  7  9  1  0  0  0  0
  7 14  1  0  0  0  0
  7 16  2  0  0  0  0
  8 12  1  0  0  0  0
  8 15  1  0  0  0  0
  8 17  2  0  0  0  0
 10 13  1  0  0  0  0
 11 13  1  0  0  0  0
 12 13  1  0  0  0  0
 14 18  1  0  0  0  0
 15 19  1  0  0  0  0
M  END
> <ref_mols>
x0479_0

> <original SMILES>
CC(C)CC(=O)NC=1C=CC(NC(=O)C)=CC1

> <Chemgauss4>
-6.814473

> <ref_pdb>
x0749_0

$$$$
x0985
  -OEChem-05172015543D

 18 17  0     1  0  0  0  0  0999 V2000
   11.6271    0.2174   23.2062 C   0  0  0  0  0  0  0  0  0  0  0  0
   12.4125   -0.3255   22.4783 C   0  0  0  0  0  0  0  0  0  0  0  0
   12.3076    4.8094   23.4253 C   0  0  0  0  0  0  0  0  0  0  0  0
    9.7953    3.1648   24.5485 C   0  0  0  0  0  0  0  0  0  0  0  0
   13.2493    4.7994   22.2672 C   0  0  0  0  0  0  0  0  0  0  0  0
    8.9334    7.4884   23.9367 C   0  0  0  0  0  0  0  0  0  0  0  0
    7.2446    6.8513   22.2038 C   0  0  0  0  0  0  0  0  0  0  0  0
   10.6692    0.8744   24.0945 C   0  0  0  0  0  0  0  0  0  0  0  0
    8.5734    5.0525   23.4341 C   0  0  0  0  0  0  0  0  0  0  0  0
    9.9076    4.5987   24.0401 C   0  0  2  0  0  0  0  0  0  0  0  0
    8.5829    6.4766   22.8420 C   0  0  0  0  0  0  0  0  0  0  0  0
   10.6207    2.2974   23.8465 N   0  0  0  0  0  0  0  0  0  0  0  0
   10.9795    4.6249   23.0791 N   0  0  0  0  0  0  0  0  0  0  0  0
   12.7452    4.9710   24.5585 O   0  0  0  0  0  0  0  0  0  0  0  0
    9.0239    2.8313   25.4457 O   0  0  0  0  0  0  0  0  0  0  0  0
   13.6554   -1.1848   21.3261 Br  0  0  0  0  0  0  0  0  0  0  0  0
   11.2187    2.6653   23.1125 H   0  0  0  0  0  0  0  0  0  0  0  0
   10.7494    4.5016   22.0950 H   0  0  0  0  0  0  0  0  0  0  0  0
  1  2  3  0  0  0  0
  1  8  1  0  0  0  0
  2 16  1  0  0  0  0
  3  5  1  0  0  0  0
  3 13  1  0  0  0  0
  3 14  2  0  0  0  0
  4 10  1  0  0  0  0
  4 12  1  0  0  0  0
  4 15  2  0  0  0  0
  6 11  1  0  0  0  0
  7 11  1  0  0  0  0
  8 12  1  0  0  0  0
  9 10  1  0  0  0  0
  9 11  1  0  0  0  0
 10 13  1  0  0  0  0
 12 17  1  0  0  0  0
 13 18  1  0  0  0  0
M  END
> <ref_mols>
x0985_0

> <original SMILES>
CC(N[C@@H](CC(C)C)C(NCC#CBr)=O)=O

> <Chemgauss4>
-6.812413

> <ref_pdb>
x0104_0

$$$$
x2856
  -OEChem-05172015543D

 24 26  0     0  0  0  0  0  0999 V2000
   12.1652    0.6194   24.7361 C   0  0  0  0  0  0  0  0  0  0  0  0
   14.0188   -2.2344   26.2448 C   0  0  0  0  0  0  0  0  0  0  0  0
    7.0698   -3.8644   20.2896 C   0  0  0  0  0  0  0  0  0  0  0  0
   13.6772   -0.9370   25.8630 C   0  0  0  0  0  0  0  0  0  0  0  0
    7.9584   -4.1297   21.3300 C   0  0  0  0  0  0  0  0  0  0  0  0
   13.1979   -3.3048   25.8898 C   0  0  0  0  0  0  0  0  0  0  0  0
   11.6938   -1.7804   24.7714 C   0  0  0  0  0  0  0  0  0  0  0  0
    5.9817   -4.7077   20.1093 C   0  0  0  0  0  0  0  0  0  0  0  0
    7.5690   -6.9476   23.6209 C   0  0  0  0  0  0  0  0  0  0  0  0
   12.5147   -0.7100   25.1264 C   0  0  0  0  0  0  0  0  0  0  0  0
    7.7009   -5.2445   22.1440 C   0  0  0  0  0  0  0  0  0  0  0  0
   12.0353   -3.0778   25.1532 C   0  0  0  0  0  0  0  0  0  0  0  0
    8.3243   -5.8504   23.2668 C   0  0  0  0  0  0  0  0  0  0  0  0
    6.5727   -6.0050   21.8504 C   0  0  0  0  0  0  0  0  0  0  0  0
   10.0061   -4.1294   24.0599 C   0  0  0  0  0  0  0  0  0  0  0  0
   11.8814    1.6991   24.4191 N   0  0  0  0  0  0  0  0  0  0  0  0
    5.6846   -5.7934   20.8607 N   0  0  0  0  0  0  0  0  0  0  0  0
    6.5096   -7.0319   22.7551 N   0  0  0  0  0  0  0  0  0  0  0  0
   11.2036   -4.1641   24.7922 N   0  0  0  0  0  0  0  0  0  0  0  0
    9.4718   -5.4453   23.9102 N   0  0  0  0  0  0  0  0  0  0  0  0
    9.4810   -3.1178   23.6061 O   0  0  0  0  0  0  0  0  0  0  0  0
    5.7914   -7.7424   22.7793 H   0  0  0  0  0  0  0  0  0  0  0  0
   11.5109   -5.0828   25.1012 H   0  0  0  0  0  0  0  0  0  0  0  0
   10.0499   -6.1755   24.3595 H   0  0  0  0  0  0  0  0  0  0  0  0
  1 10  1  0  0  0  0
  1 16  3  0  0  0  0
  2  4  1  0  0  0  0
  2  6  2  0  0  0  0
  3  5  2  0  0  0  0
  3  8  1  0  0  0  0
  4 10  2  0  0  0  0
  5 11  1  0  0  0  0
  6 12  1  0  0  0  0
  7 10  1  0  0  0  0
  7 12  2  0  0  0  0
  8 17  2  0  0  0  0
  9 13  2  0  0  0  0
  9 18  1  0  0  0  0
 11 13  1  0  0  0  0
 11 14  2  0  0  0  0
 12 19  1  0  0  0  0
 13 20  1  0  0  0  0
 14 17  1  0  0  0  0
 14 18  1  0  0  0  0
 15 19  1  0  0  0  0
 15 20  1  0  0  0  0
 15 21  2  0  0  0  0
 18 22  1  0  0  0  0
 19 23  1  0  0  0  0
 20 24  1  0  0  0  0
M  END
> <ref_mols>
x2856_0

> <original SMILES>
O=C(NC1=CNC=2N=CC=CC12)NC=3C=CC=C(C#N)C3

> <Chemgauss4>
-6.808415

> <ref_pdb>
x0749_0

$$$$
x0910
  -OEChem-05172015543D

 16 16  0     1  0  0  0  0  0999 V2000
   11.8748    1.4854   22.9150 C   0  0  0  0  0  0  0  0  0  0  0  0
   14.3289   -1.1460   22.1016 C   0  0  0  0  0  0  0  0  0  0  0  0
   13.3174   -1.9502   22.9088 C   0  0  0  0  0  0  0  0  0  0  0  0
   14.0464    0.2832   22.5248 C   0  0  0  0  0  0  0  0  0  0  0  0
   12.0613   -1.0502   22.9473 C   0  0  1  0  0  0  0  0  0  0  0  0
   11.1336   -1.3738   21.7666 C   0  0  0  0  0  0  0  0  0  0  0  0
   10.8110    4.1018   23.3692 C   0  0  0  0  0  0  0  0  0  0  0  0
   13.2043    4.8455   23.5367 C   0  0  0  0  0  0  0  0  0  0  0  0
   12.3464    3.8661   21.3889 C   0  0  0  0  0  0  0  0  0  0  0  0
    9.4363   -0.5508   25.4859 C   0  0  0  0  0  0  0  0  0  0  0  0
   11.3202   -1.2603   24.2734 C   0  0  0  0  0  0  0  0  0  0  0  0
   12.2446    3.8344   22.9132 C   0  0  0  0  0  0  0  0  0  0  0  0
   12.6162    0.3131   22.8144 N   0  0  0  0  0  0  0  0  0  0  0  0
   10.6823    1.5866   22.6380 O   0  0  0  0  0  0  0  0  0  0  0  0
   12.6326    2.5333   23.3691 O   0  0  0  0  0  0  0  0  0  0  0  0
   10.1862   -0.4179   24.2823 O   0  0  0  0  0  0  0  0  0  0  0  0
  1 13  1  0  0  0  0
  1 14  2  0  0  0  0
  1 15  1  0  0  0  0
  2  3  1  0  0  0  0
  2  4  1  0  0  0  0
  3  5  1  0  0  0  0
  4 13  1  0  0  0  0
  5  6  1  0  0  0  0
  5 11  1  0  0  0  0
  5 13  1  0  0  0  0
  7 12  1  0  0  0  0
  8 12  1  0  0  0  0
  9 12  1  0  0  0  0
 10 16  1  0  0  0  0
 11 16  1  0  0  0  0
 12 15  1  0  0  0  0
M  END
> <ref_mols>
x0910_0

> <original SMILES>
CC1(COC)CCCN1C(OC(C)(C)C)=O

> <Chemgauss4>
-6.807892

> <ref_pdb>
x0195_0

$$$$
x0174
  -OEChem-05172015543D

 13 13  0     0  0  0  0  0  0999 V2000
   12.7983   -2.5670   25.7570 C   0  0  0  0  0  0  0  0  0  0  0  0
   10.7207   -3.5615   24.8404 C   0  0  0  0  0  0  0  0  0  0  0  0
    6.2562   -6.3572   23.5699 C   0  0  0  0  0  0  0  0  0  0  0  0
    7.1412   -5.9969   22.3801 C   0  0  0  0  0  0  0  0  0  0  0  0
    6.4028   -5.3493   24.7065 C   0  0  0  0  0  0  0  0  0  0  0  0
    8.6018   -5.8277   22.7949 C   0  0  0  0  0  0  0  0  0  0  0  0
    7.8625   -5.1801   25.1243 C   0  0  0  0  0  0  0  0  0  0  0  0
    8.7456   -4.8065   23.9287 C   0  0  0  0  0  0  0  0  0  0  0  0
   12.1776   -3.7737   25.2003 C   0  0  0  0  0  0  0  0  0  0  0  0
   13.2931   -1.6145   26.1979 N   0  0  0  0  0  0  0  0  0  0  0  0
   10.1430   -4.7249   24.3494 N   0  0  0  0  0  0  0  0  0  0  0  0
   10.1395   -2.4879   24.9763 O   0  0  0  0  0  0  0  0  0  0  0  0
   10.7191   -5.5592   24.2793 H   0  0  0  0  0  0  0  0  0  0  0  0
  1  9  1  0  0  0  0
  1 10  3  0  0  0  0
  2  9  1  0  0  0  0
  2 11  1  0  0  0  0
  2 12  2  0  0  0  0
  3  4  1  0  0  0  0
  3  5  1  0  0  0  0
  4  6  1  0  0  0  0
  5  7  1  0  0  0  0
  6  8  1  0  0  0  0
  7  8  1  0  0  0  0
  8 11  1  0  0  0  0
 11 13  1  0  0  0  0
M  END
> <ref_mols>
x0174_0

> <original SMILES>
O=C(CC#N)NC1CCCCC1

> <Chemgauss4>
-6.804920

> <ref_pdb>
x0749_0

$$$$
x0094
  -OEChem-05172015543D

 14 14  0     1  0  0  0  0  0999 V2000
   13.1434    2.9874   22.7504 C   0  0  0  0  0  0  0  0  0  0  0  0
   14.4297   -0.5723   23.4153 C   0  0  0  0  0  0  0  0  0  0  0  0
   12.0043    0.0765   23.4010 C   0  0  0  0  0  0  0  0  0  0  0  0
   14.1067   -1.5320   22.2756 C   0  0  0  0  0  0  0  0  0  0  0  0
   11.8177   -0.9201   22.2623 C   0  0  0  0  0  0  0  0  0  0  0  0
   13.4438    0.6015   23.4786 C   0  0  0  0  0  0  0  0  0  0  0  0
   13.7265    1.6346   22.3849 C   0  0  2  0  0  0  0  0  0  0  0  0
   14.0980    3.9691   22.9006 N   0  0  0  0  0  0  0  0  0  0  0  0
   11.9412    3.1768   22.9182 O   0  0  0  0  0  0  0  0  0  0  0  0
   12.7578   -1.9883   22.3650 O   0  0  0  0  0  0  0  0  0  0  0  0
   15.1306    1.7516   22.2441 O   0  0  0  0  0  0  0  0  0  0  0  0
   15.0774    3.7398   22.7651 H   0  0  0  0  0  0  0  0  0  0  0  0
   13.8355    4.9183   23.1448 H   0  0  0  0  0  0  0  0  0  0  0  0
   15.2936    2.3988   21.5369 H   0  0  0  0  0  0  0  0  0  0  0  0
  1  7  1  0  0  0  0
  1  8  1  0  0  0  0
  1  9  2  0  0  0  0
  2  4  1  0  0  0  0
  2  6  1  0  0  0  0
  3  5  1  0  0  0  0
  3  6  1  0  0  0  0
  4 10  1  0  0  0  0
  5 10  1  0  0  0  0
  6  7  1  0  0  0  0
  7 11  1  0  0  0  0
  8 12  1  0  0  0  0
  8 13  1  0  0  0  0
 11 14  1  0  0  0  0
M  END
> <ref_mols>
x0094_0

> <original SMILES>
NC(=O)C(O)C1CCOCC1

> <Chemgauss4>
-6.804294

> <ref_pdb>
x0195_0

$$$$
x1137
  -OEChem-05172015543D

 14 14  0     1  0  0  0  0  0999 V2000
   13.1434    2.9874   22.7504 C   0  0  0  0  0  0  0  0  0  0  0  0
   14.4297   -0.5723   23.4153 C   0  0  0  0  0  0  0  0  0  0  0  0
   12.0043    0.0765   23.4010 C   0  0  0  0  0  0  0  0  0  0  0  0
   14.1067   -1.5320   22.2756 C   0  0  0  0  0  0  0  0  0  0  0  0
   11.8177   -0.9201   22.2623 C   0  0  0  0  0  0  0  0  0  0  0  0
   13.4438    0.6015   23.4786 C   0  0  0  0  0  0  0  0  0  0  0  0
   13.7265    1.6346   22.3849 C   0  0  2  0  0  0  0  0  0  0  0  0
   14.0980    3.9691   22.9006 N   0  0  0  0  0  0  0  0  0  0  0  0
   11.9412    3.1768   22.9182 O   0  0  0  0  0  0  0  0  0  0  0  0
   12.7578   -1.9883   22.3650 O   0  0  0  0  0  0  0  0  0  0  0  0
   15.1306    1.7516   22.2441 O   0  0  0  0  0  0  0  0  0  0  0  0
   15.0774    3.7398   22.7651 H   0  0  0  0  0  0  0  0  0  0  0  0
   13.8355    4.9183   23.1448 H   0  0  0  0  0  0  0  0  0  0  0  0
   15.2936    2.3988   21.5369 H   0  0  0  0  0  0  0  0  0  0  0  0
  1  7  1  0  0  0  0
  1  8  1  0  0  0  0
  1  9  2  0  0  0  0
  2  4  1  0  0  0  0
  2  6  1  0  0  0  0
  3  5  1  0  0  0  0
  3  6  1  0  0  0  0
  4 10  1  0  0  0  0
  5 10  1  0  0  0  0
  6  7  1  0  0  0  0
  7 11  1  0  0  0  0
  8 12  1  0  0  0  0
  8 13  1  0  0  0  0
 11 14  1  0  0  0  0
M  END
> <ref_mols>
x1137_0

> <original SMILES>
NC(=O)C(O)C1CCOCC1

> <Chemgauss4>
-6.804294

> <ref_pdb>
x0195_0

$$$$
x0078
  -OEChem-05172015543D

 10 10  0     0  0  0  0  0  0999 V2000
   12.5951   -1.3381   23.2090 C   0  0  0  0  0  0  0  0  0  0  0  0
   13.2370    0.9676   22.9350 C   0  0  0  0  0  0  0  0  0  0  0  0
   13.7581   -1.7084   22.5489 C   0  0  0  0  0  0  0  0  0  0  0  0
   14.3838    0.5389   22.2819 C   0  0  0  0  0  0  0  0  0  0  0  0
   12.3359    0.0154   23.4019 C   0  0  0  0  0  0  0  0  0  0  0  0
   10.2155   -0.5634   24.5547 C   0  0  0  0  0  0  0  0  0  0  0  0
   10.8893    1.8286   24.2851 C   0  0  0  0  0  0  0  0  0  0  0  0
   14.6087   -0.7708   22.1096 N   0  3  0  0  0  0  0  0  0  0  0  0
   11.1608    0.4214   24.0673 N   0  0  0  0  0  0  0  0  0  0  0  0
   15.4573   -1.0642   21.6264 H   0  0  0  0  0  0  0  0  0  0  0  0
  1  3  2  0  0  0  0
  1  5  1  0  0  0  0
  2  4  1  0  0  0  0
  2  5  2  0  0  0  0
  3  8  1  0  0  0  0
  4  8  2  0  0  0  0
  5  9  1  0  0  0  0
  6  9  1  0  0  0  0
  7  9  1  0  0  0  0
  8 10  1  0  0  0  0
M  CHG  1   8   1
M  END
> <ref_mols>
x0078_0

> <original SMILES>
CN(C)C=1C=CN=CC1

> <Chemgauss4>
-6.800778

> <ref_pdb>
x0195_0

$$$$
x0546
  -OEChem-05172015543D

 13 13  0     1  0  0  0  0  0999 V2000
   13.9358   -1.5746   22.8619 C   0  0  0  0  0  0  0  0  0  0  0  0
   12.4507   -1.5303   23.1888 C   0  0  0  0  0  0  0  0  0  0  0  0
   14.1604   -0.2967   22.0831 C   0  0  0  0  0  0  0  0  0  0  0  0
   12.0743   -0.0295   23.1791 C   0  0  0  0  0  0  0  0  0  0  0  0
   11.6605    0.4209   24.5881 C   0  0  0  0  0  0  0  0  0  0  0  0
   10.9024    0.2035   22.2092 C   0  0  0  0  0  0  0  0  0  0  0  0
   13.2251    1.9368   22.1522 C   0  0  0  0  0  0  0  0  0  0  0  0
   12.8639    3.0234   23.1472 C   0  0  0  0  0  0  0  0  0  0  0  0
   13.3366    0.6538   22.8263 N   0  0  2  0  0  0  0  0  0  0  0  0
   12.8053    4.3356   22.4570 N   0  3  0  0  0  0  0  0  0  0  0  0
   13.7466    4.6717   22.2277 H   0  0  0  0  0  0  0  0  0  0  0  0
   12.3531    5.0407   23.0488 H   0  0  0  0  0  0  0  0  0  0  0  0
   12.2724    4.2668   21.5834 H   0  0  0  0  0  0  0  0  0  0  0  0
  1  2  1  0  0  0  0
  1  3  1  0  0  0  0
  2  4  1  0  0  0  0
  3  9  1  0  0  0  0
  4  5  1  0  0  0  0
  4  6  1  0  0  0  0
  4  9  1  0  0  0  0
  7  8  1  0  0  0  0
  7  9  1  0  0  0  0
  8 10  1  0  0  0  0
 10 11  1  0  0  0  0
 10 12  1  0  0  0  0
 10 13  1  0  0  0  0
M  CHG  1  10   1
M  END
> <ref_mols>
x0546_0

> <original SMILES>
CC1(C)CCCN1CCN

> <Chemgauss4>
-6.800177

> <ref_pdb>
x0195_0

$$$$
x2065
  -OEChem-05172015543D

 37 40  0     1  0  0  0  0  0999 V2000
    5.0660   -5.9685   23.2152 C   0  0  0  0  0  0  0  0  0  0  0  0
    5.5055   -5.1348   22.1869 C   0  0  0  0  0  0  0  0  0  0  0  0
    4.8272   -5.4431   24.4851 C   0  0  0  0  0  0  0  0  0  0  0  0
   12.8211   -2.4270   24.5452 C   0  0  0  0  0  0  0  0  0  0  0  0
   11.1820   -1.8556   22.8647 C   0  0  0  0  0  0  0  0  0  0  0  0
   12.0151   -3.4820   24.9727 C   0  0  0  0  0  0  0  0  0  0  0  0
   10.3759   -2.9107   23.2922 C   0  0  0  0  0  0  0  0  0  0  0  0
    5.7062   -3.7757   22.4284 C   0  0  0  0  0  0  0  0  0  0  0  0
    5.0279   -4.0841   24.7267 C   0  0  0  0  0  0  0  0  0  0  0  0
   12.4046   -1.6137   23.4912 C   0  0  0  0  0  0  0  0  0  0  0  0
   10.7925   -3.7239   24.3462 C   0  0  0  0  0  0  0  0  0  0  0  0
    5.4674   -3.2504   23.6984 C   0  0  0  0  0  0  0  0  0  0  0  0
    9.9728    2.1734   22.7207 C   0  0  0  0  0  0  0  0  0  0  0  0
   13.0397    4.8382   21.7329 C   0  0  0  0  0  0  0  0  0  0  0  0
   13.2222    1.8718   22.7940 C   0  0  0  0  0  0  0  0  0  0  0  0
    7.2749   -0.1201   23.9588 C   0  0  0  0  0  0  0  0  0  0  0  0
   13.7706    4.9515   23.0383 C   0  0  0  0  0  0  0  0  0  0  0  0
   12.9330    4.0870   23.9554 C   0  0  0  0  0  0  0  0  0  0  0  0
    9.9071    1.3310   24.8923 C   0  0  0  0  0  0  0  0  0  0  0  0
    8.9893    1.6705   23.7349 C   0  0  2  0  0  0  0  0  0  0  0  0
   12.3487    3.0735   23.0004 C   0  0  2  0  0  0  0  0  0  0  0  0
   13.2717   -0.4787   23.0314 C   0  0  0  0  0  0  0  0  0  0  0  0
    6.6620   -1.2615   23.1756 C   0  0  0  0  0  0  0  0  0  0  0  0
   11.0833    2.5569   23.4302 N   0  0  0  0  0  0  0  0  0  0  0  0
    8.2551    0.5537   23.2300 N   0  0  0  0  0  0  0  0  0  0  0  0
    9.9718   -4.7977   24.7816 N   0  0  0  0  0  0  0  0  0  0  0  0
    9.7840    2.2552   21.5170 O   0  0  0  0  0  0  0  0  0  0  0  0
   13.1870    5.5771   20.7719 O   0  0  0  0  0  0  0  0  0  0  0  0
   14.3605    1.9206   22.3478 O   0  0  0  0  0  0  0  0  0  0  0  0
    6.9300    0.1603   25.1035 O   0  0  0  0  0  0  0  0  0  0  0  0
   10.3649   -5.5170   25.7317 O   0  0  0  0  0  0  0  0  0  0  0  0
    8.8755   -4.9978   24.2048 O   0  0  0  0  0  0  0  0  0  0  0  0
   12.2020    3.7556   21.7597 O   0  0  0  0  0  0  0  0  0  0  0  0
   10.9645    2.2932   24.8097 O   0  0  0  0  0  0  0  0  0  0  0  0
    5.6667   -1.9111   23.9375 O   0  0  0  0  0  0  0  0  0  0  0  0
   12.5504    0.7488   23.1768 O   0  0  0  0  0  0  0  0  0  0  0  0
    8.4597    0.2300   22.2809 H   0  0  0  0  0  0  0  0  0  0  0  0
  1  2  2  0  0  0  0
  1  3  1  0  0  0  0
  2  8  1  0  0  0  0
  3  9  2  0  0  0  0
  4  6  1  0  0  0  0
  4 10  2  0  0  0  0
  5  7  2  0  0  0  0
  5 10  1  0  0  0  0
  6 11  2  0  0  0  0
  7 11  1  0  0  0  0
  8 12  2  0  0  0  0
  9 12  1  0  0  0  0
 10 22  1  0  0  0  0
 11 26  1  0  0  0  0
 12 35  1  0  0  0  0
 13 20  1  0  0  0  0
 13 24  1  0  0  0  0
 13 27  2  0  0  0  0
 14 17  1  0  0  0  0
 14 28  2  0  0  0  0
 14 33  1  0  0  0  0
 15 21  1  0  0  0  0
 15 29  2  0  0  0  0
 15 36  1  0  0  0  0
 16 23  1  0  0  0  0
 16 25  1  0  0  0  0
 16 30  2  0  0  0  0
 17 18  1  0  0  0  0
 18 21  1  0  0  0  0
 19 20  1  0  0  0  0
 19 34  1  0  0  0  0
 20 25  1  0  0  0  0
 21 24  1  0  0  0  0
 21 33  1  0  0  0  0
 22 36  1  0  0  0  0
 23 35  1  0  0  0  0
 24 34  1  0  0  0  0
 26 31  2  0  0  0  0
 26 32  2  0  0  0  0
 25 37  1  0  0  0  0
M  END
> <ref_mols>
x2065_0

> <original SMILES>
O=C(COC1=CC=CC=C1)N[C@H]2CON(C3(C(OCC4=CC=C([N+]([O-])=O)C=C4)=O)OC(CC3)=O)C2=O

> <Chemgauss4>
-6.798183

> <ref_pdb>
x0161_0

$$$$
x0951
  -OEChem-05172015543D

 11 11  0     0  0  0  0  0  0999 V2000
   13.3593    0.8663   22.7512 C   0  0  0  0  0  0  0  0  0  0  0  0
   11.5625    0.3339   24.2761 C   0  0  0  0  0  0  0  0  0  0  0  0
   12.9613    2.2031   22.7489 C   0  0  0  0  0  0  0  0  0  0  0  0
   11.1644    1.6708   24.2738 C   0  0  0  0  0  0  0  0  0  0  0  0
   12.6599   -0.0684   23.5148 C   0  0  0  0  0  0  0  0  0  0  0  0
   11.8639    2.6054   23.5102 C   0  0  0  0  0  0  0  0  0  0  0  0
   14.3251   -1.8549   24.8523 C   0  0  0  0  0  0  0  0  0  0  0  0
   11.9987   -2.5533   23.8649 O   0  0  0  0  0  0  0  0  0  0  0  0
   13.8888   -2.0183   22.2878 O   0  0  0  0  0  0  0  0  0  0  0  0
   13.1564   -1.7418   23.5162 S   0  0  0  0  0  0  0  0  0  0  0  0
   11.3243    4.4166   23.5070 Br  0  0  0  0  0  0  0  0  0  0  0  0
  1  3  2  0  0  0  0
  1  5  1  0  0  0  0
  2  4  1  0  0  0  0
  2  5  2  0  0  0  0
  3  6  1  0  0  0  0
  4  6  2  0  0  0  0
  5 10  1  0  0  0  0
  6 11  1  0  0  0  0
  7 10  1  0  0  0  0
  8 10  2  0  0  0  0
  9 10  2  0  0  0  0
M  END
> <ref_mols>
x0951_0

> <original SMILES>
BrC1=CC=C(S(C)(=O)=O)C=C1

> <Chemgauss4>
-6.796496

> <ref_pdb>
x0161_0

$$$$
x0222
  -OEChem-05172015543D

 21 21  0     0  0  0  0  0  0999 V2000
   11.8017    4.0464   23.7919 C   0  0  0  0  0  0  0  0  0  0  0  0
   11.3499    1.6731   23.7804 C   0  0  0  0  0  0  0  0  0  0  0  0
   13.4068    2.5158   22.8338 C   0  0  0  0  0  0  0  0  0  0  0  0
   10.9655    2.9744   24.1035 C   0  0  0  0  0  0  0  0  0  0  0  0
   13.0224    3.8171   23.1569 C   0  0  0  0  0  0  0  0  0  0  0  0
   12.5706    1.4438   23.1455 C   0  0  0  0  0  0  0  0  0  0  0  0
    9.6929    3.2139   24.7655 C   0  0  0  0  0  0  0  0  0  0  0  0
   13.8940    4.9350   22.8319 C   0  0  0  0  0  0  0  0  0  0  0  0
   14.1317   -0.2805   22.1894 C   0  0  0  0  0  0  0  0  0  0  0  0
   14.1684   -1.7786   22.0201 C   0  0  0  0  0  0  0  0  0  0  0  0
    9.3569    4.5308   25.0660 N   0  0  0  0  0  0  0  0  0  0  0  0
   13.4635    6.2132   23.1757 N   0  0  0  0  0  0  0  0  0  0  0  0
   12.9549    0.1422   22.8218 N   0  0  0  0  0  0  0  0  0  0  0  0
    8.9343    2.2769   25.0704 O   0  0  0  0  0  0  0  0  0  0  0  0
   14.9802    4.7627   22.2514 O   0  0  0  0  0  0  0  0  0  0  0  0
   15.0605    0.4188   21.7979 O   0  0  0  0  0  0  0  0  0  0  0  0
    9.9996    5.2753   24.8185 H   0  0  0  0  0  0  0  0  0  0  0  0
    8.4831    4.7624   25.5272 H   0  0  0  0  0  0  0  0  0  0  0  0
   12.5672    6.3273   23.6365 H   0  0  0  0  0  0  0  0  0  0  0  0
   14.0266    7.0334   22.9755 H   0  0  0  0  0  0  0  0  0  0  0  0
   12.2976   -0.6039   23.0770 H   0  0  0  0  0  0  0  0  0  0  0  0
  1  4  1  0  0  0  0
  1  5  2  0  0  0  0
  2  4  2  0  0  0  0
  2  6  1  0  0  0  0
  3  5  1  0  0  0  0
  3  6  2  0  0  0  0
  4  7  1  0  0  0  0
  5  8  1  0  0  0  0
  6 13  1  0  0  0  0
  7 11  1  0  0  0  0
  7 14  2  0  0  0  0
  8 12  1  0  0  0  0
  8 15  2  0  0  0  0
  9 10  1  0  0  0  0
  9 13  1  0  0  0  0
  9 16  2  0  0  0  0
 11 17  1  0  0  0  0
 11 18  1  0  0  0  0
 12 19  1  0  0  0  0
 12 20  1  0  0  0  0
 13 21  1  0  0  0  0
M  END
> <ref_mols>
x0222_0

> <original SMILES>
CC(=O)NC1=CC(=CC(=C1)C(=O)N)C(=O)N

> <Chemgauss4>
-6.788049

> <ref_pdb>
x0195_0

$$$$
x0207
  -OEChem-05172015543D

 14 14  0     0  0  0  0  0  0999 V2000
    6.2994   -0.1337   18.9330 C   0  0  0  0  0  0  0  0  0  0  0  0
    6.7666   -2.0567   20.4908 C   0  0  0  0  0  0  0  0  0  0  0  0
    6.8864   -4.0899   22.7833 C   0  0  0  0  0  0  0  0  0  0  0  0
    3.5133    2.3309   20.5075 C   0  0  0  0  0  0  0  0  0  0  0  0
    7.7443   -3.2236   20.5592 C   0  0  0  0  0  0  0  0  0  0  0  0
    8.1030   -3.6482   21.9816 C   0  0  0  0  0  0  0  0  0  0  0  0
    4.0198    2.4361   19.0792 C   0  0  0  0  0  0  0  0  0  0  0  0
    6.6213    0.5039   17.7718 N   0  0  0  0  0  0  0  0  0  0  0  0
    5.3072    0.4440   19.6151 N   0  0  0  0  0  0  0  0  0  0  0  0
    5.8041    1.5464   17.6885 N   0  0  0  0  0  0  0  0  0  0  0  0
    5.0497    1.4716   18.7938 N   0  0  0  0  0  0  0  0  0  0  0  0
    6.9836   -1.3037   19.3401 N   0  0  0  0  0  0  0  0  0  0  0  0
    5.9388   -1.8471   21.3712 O   0  0  0  0  0  0  0  0  0  0  0  0
    7.7201   -1.6330   18.7195 H   0  0  0  0  0  0  0  0  0  0  0  0
  1  8  1  0  0  0  0
  1  9  2  0  0  0  0
  1 12  1  0  0  0  0
  2  5  1  0  0  0  0
  2 12  1  0  0  0  0
  2 13  2  0  0  0  0
  3  6  1  0  0  0  0
  4  7  1  0  0  0  0
  5  6  1  0  0  0  0
  7 11  1  0  0  0  0
  8 10  2  0  0  0  0
  9 11  1  0  0  0  0
 10 11  1  0  0  0  0
 12 14  1  0  0  0  0
M  END
> <ref_mols>
x0207_0

> <original SMILES>
CCCC(=O)NC=1N=NN(CC)N1

> <Chemgauss4>
-6.783991

> <ref_pdb>
x0397_0

$$$$
x1034
  -OEChem-05172015543D

 12 12  0     0  0  0  0  0  0999 V2000
    8.3826   -4.7749   26.2536 C   0  0  0  0  0  0  0  0  0  0  0  0
    9.9329   -4.2456   24.2704 C   0  0  0  0  0  0  0  0  0  0  0  0
    9.0853   -5.4176   23.8641 C   0  0  0  0  0  0  0  0  0  0  0  0
    9.4261   -5.2038   25.3137 C   0  0  0  0  0  0  0  0  0  0  0  0
    8.0125   -5.7470   27.1527 N   0  0  0  0  0  0  0  0  0  0  0  0
   10.4055   -6.1212   25.9170 N   0  3  0  0  0  0  0  0  0  0  0  0
    7.9100   -3.6410   26.2316 O   0  0  0  0  0  0  0  0  0  0  0  0
    8.4671   -6.6529   27.1050 H   0  0  0  0  0  0  0  0  0  0  0  0
    7.3029   -5.5950   27.8621 H   0  0  0  0  0  0  0  0  0  0  0  0
   10.3520   -6.1100   26.9456 H   0  0  0  0  0  0  0  0  0  0  0  0
   11.3701   -5.8686   25.6582 H   0  0  0  0  0  0  0  0  0  0  0  0
   10.2516   -7.0933   25.6131 H   0  0  0  0  0  0  0  0  0  0  0  0
  1  4  1  0  0  0  0
  1  5  1  0  0  0  0
  1  7  2  0  0  0  0
  2  3  1  0  0  0  0
  2  4  1  0  0  0  0
  3  4  1  0  0  0  0
  4  6  1  0  0  0  0
  5  8  1  0  0  0  0
  5  9  1  0  0  0  0
  6 10  1  0  0  0  0
  6 11  1  0  0  0  0
  6 12  1  0  0  0  0
M  CHG  1   6   1
M  END
> <ref_mols>
x1034_0

> <original SMILES>
Cl.NC(=O)C1(N)CC1

> <Chemgauss4>
-6.781669

> <ref_pdb>
x1077_0

$$$$
x0801
  -OEChem-05172015543D

 15 15  0     0  0  0  0  0  0999 V2000
    8.0737   -3.8839   22.2467 C   0  0  0  0  0  0  0  0  0  0  0  0
    8.9948   -5.2255   24.0324 C   0  0  0  0  0  0  0  0  0  0  0  0
    8.0854   -5.0662   22.9868 C   0  0  0  0  0  0  0  0  0  0  0  0
    8.9716   -2.8610   22.5521 C   0  0  0  0  0  0  0  0  0  0  0  0
    9.8810   -3.0203   23.5977 C   0  0  0  0  0  0  0  0  0  0  0  0
    9.8926   -4.2026   24.3379 C   0  0  0  0  0  0  0  0  0  0  0  0
   10.8686   -1.3107   25.1025 C   0  0  0  0  0  0  0  0  0  0  0  0
    7.1247   -6.1597   22.6608 C   0  0  0  0  0  0  0  0  0  0  0  0
    8.9329   -1.6069   21.7400 C   0  0  0  0  0  0  0  0  0  0  0  0
   11.9471   -0.2528   25.0689 C   0  0  0  0  0  0  0  0  0  0  0  0
   10.7765   -1.9855   23.8940 N   0  0  0  0  0  0  0  0  0  0  0  0
   10.1908   -1.4693   26.1142 O   0  0  0  0  0  0  0  0  0  0  0  0
   11.0010   -4.4446   25.6418 Cl  0  0  0  0  0  0  0  0  0  0  0  0
   13.4596   -1.0064   25.5981 Cl  0  0  0  0  0  0  0  0  0  0  0  0
   11.4168   -1.7032   23.1571 H   0  0  0  0  0  0  0  0  0  0  0  0
  1  3  1  0  0  0  0
  1  4  2  0  0  0  0
  2  3  2  0  0  0  0
  2  6  1  0  0  0  0
  3  8  1  0  0  0  0
  4  5  1  0  0  0  0
  4  9  1  0  0  0  0
  5  6  2  0  0  0  0
  5 11  1  0  0  0  0
  6 13  1  0  0  0  0
  7 10  1  0  0  0  0
  7 11  1  0  0  0  0
  7 12  2  0  0  0  0
 10 14  1  0  0  0  0
 11 15  1  0  0  0  0
M  END
> <ref_mols>
x0801_0

> <original SMILES>
Cc1cc(C)c(NC(=O)CCl)c(Cl)c1

> <Chemgauss4>
-6.779119

> <ref_pdb>
x0749_0

$$$$
x1399
  -OEChem-05172015543D

 15 15  0     0  0  0  0  0  0999 V2000
    8.0737   -3.8839   22.2467 C   0  0  0  0  0  0  0  0  0  0  0  0
    8.9948   -5.2255   24.0324 C   0  0  0  0  0  0  0  0  0  0  0  0
    8.0854   -5.0662   22.9868 C   0  0  0  0  0  0  0  0  0  0  0  0
    8.9716   -2.8610   22.5521 C   0  0  0  0  0  0  0  0  0  0  0  0
    9.8810   -3.0203   23.5977 C   0  0  0  0  0  0  0  0  0  0  0  0
    9.8926   -4.2026   24.3379 C   0  0  0  0  0  0  0  0  0  0  0  0
   10.8686   -1.3107   25.1025 C   0  0  0  0  0  0  0  0  0  0  0  0
    7.1247   -6.1597   22.6608 C   0  0  0  0  0  0  0  0  0  0  0  0
    8.9329   -1.6069   21.7400 C   0  0  0  0  0  0  0  0  0  0  0  0
   11.9471   -0.2528   25.0689 C   0  0  0  0  0  0  0  0  0  0  0  0
   10.7765   -1.9855   23.8940 N   0  0  0  0  0  0  0  0  0  0  0  0
   10.1908   -1.4693   26.1142 O   0  0  0  0  0  0  0  0  0  0  0  0
   11.0010   -4.4446   25.6418 Cl  0  0  0  0  0  0  0  0  0  0  0  0
   13.4596   -1.0064   25.5981 Cl  0  0  0  0  0  0  0  0  0  0  0  0
   11.4168   -1.7032   23.1571 H   0  0  0  0  0  0  0  0  0  0  0  0
  1  3  1  0  0  0  0
  1  4  2  0  0  0  0
  2  3  2  0  0  0  0
  2  6  1  0  0  0  0
  3  8  1  0  0  0  0
  4  5  1  0  0  0  0
  4  9  1  0  0  0  0
  5  6  2  0  0  0  0
  5 11  1  0  0  0  0
  6 13  1  0  0  0  0
  7 10  1  0  0  0  0
  7 11  1  0  0  0  0
  7 12  2  0  0  0  0
 10 14  1  0  0  0  0
 11 15  1  0  0  0  0
M  END
> <ref_mols>
x1399_0

> <original SMILES>
Cc1cc(C)c(NC(=O)CCl)c(Cl)c1

> <Chemgauss4>
-6.779119

> <ref_pdb>
x0749_0

$$$$
x0727
  -OEChem-05172015543D

 15 15  0     0  0  0  0  0  0999 V2000
    8.0737   -3.8839   22.2467 C   0  0  0  0  0  0  0  0  0  0  0  0
    8.9948   -5.2255   24.0324 C   0  0  0  0  0  0  0  0  0  0  0  0
    8.0854   -5.0662   22.9868 C   0  0  0  0  0  0  0  0  0  0  0  0
    8.9716   -2.8610   22.5521 C   0  0  0  0  0  0  0  0  0  0  0  0
    9.8810   -3.0203   23.5977 C   0  0  0  0  0  0  0  0  0  0  0  0
    9.8926   -4.2026   24.3379 C   0  0  0  0  0  0  0  0  0  0  0  0
   10.8686   -1.3107   25.1025 C   0  0  0  0  0  0  0  0  0  0  0  0
    7.1247   -6.1597   22.6608 C   0  0  0  0  0  0  0  0  0  0  0  0
    8.9329   -1.6069   21.7400 C   0  0  0  0  0  0  0  0  0  0  0  0
   11.9471   -0.2528   25.0689 C   0  0  0  0  0  0  0  0  0  0  0  0
   10.7765   -1.9855   23.8940 N   0  0  0  0  0  0  0  0  0  0  0  0
   10.1908   -1.4693   26.1142 O   0  0  0  0  0  0  0  0  0  0  0  0
   11.0010   -4.4446   25.6418 Cl  0  0  0  0  0  0  0  0  0  0  0  0
   13.4596   -1.0064   25.5981 Cl  0  0  0  0  0  0  0  0  0  0  0  0
   11.4168   -1.7032   23.1571 H   0  0  0  0  0  0  0  0  0  0  0  0
  1  3  1  0  0  0  0
  1  4  2  0  0  0  0
  2  3  2  0  0  0  0
  2  6  1  0  0  0  0
  3  8  1  0  0  0  0
  4  5  1  0  0  0  0
  4  9  1  0  0  0  0
  5  6  2  0  0  0  0
  5 11  1  0  0  0  0
  6 13  1  0  0  0  0
  7 10  1  0  0  0  0
  7 11  1  0  0  0  0
  7 12  2  0  0  0  0
 10 14  1  0  0  0  0
 11 15  1  0  0  0  0
M  END
> <ref_mols>
x0727_0

> <original SMILES>
Cc1cc(C)c(NC(=O)CCl)c(Cl)c1

> <Chemgauss4>
-6.779119

> <ref_pdb>
x0749_0

$$$$
x1477
  -OEChem-05172015543D

 15 15  0     0  0  0  0  0  0999 V2000
    8.0737   -3.8839   22.2467 C   0  0  0  0  0  0  0  0  0  0  0  0
    8.9948   -5.2255   24.0324 C   0  0  0  0  0  0  0  0  0  0  0  0
    8.0854   -5.0662   22.9868 C   0  0  0  0  0  0  0  0  0  0  0  0
    8.9716   -2.8610   22.5521 C   0  0  0  0  0  0  0  0  0  0  0  0
    9.8810   -3.0203   23.5977 C   0  0  0  0  0  0  0  0  0  0  0  0
    9.8926   -4.2026   24.3379 C   0  0  0  0  0  0  0  0  0  0  0  0
   10.8686   -1.3107   25.1025 C   0  0  0  0  0  0  0  0  0  0  0  0
    7.1247   -6.1597   22.6608 C   0  0  0  0  0  0  0  0  0  0  0  0
    8.9329   -1.6069   21.7400 C   0  0  0  0  0  0  0  0  0  0  0  0
   11.9471   -0.2528   25.0689 C   0  0  0  0  0  0  0  0  0  0  0  0
   10.7765   -1.9855   23.8940 N   0  0  0  0  0  0  0  0  0  0  0  0
   10.1908   -1.4693   26.1142 O   0  0  0  0  0  0  0  0  0  0  0  0
   11.0010   -4.4446   25.6418 Cl  0  0  0  0  0  0  0  0  0  0  0  0
   13.4596   -1.0064   25.5981 Cl  0  0  0  0  0  0  0  0  0  0  0  0
   11.4168   -1.7032   23.1571 H   0  0  0  0  0  0  0  0  0  0  0  0
  1  3  1  0  0  0  0
  1  4  2  0  0  0  0
  2  3  2  0  0  0  0
  2  6  1  0  0  0  0
  3  8  1  0  0  0  0
  4  5  1  0  0  0  0
  4  9  1  0  0  0  0
  5  6  2  0  0  0  0
  5 11  1  0  0  0  0
  6 13  1  0  0  0  0
  7 10  1  0  0  0  0
  7 11  1  0  0  0  0
  7 12  2  0  0  0  0
 10 14  1  0  0  0  0
 11 15  1  0  0  0  0
M  END
> <ref_mols>
x1477_0

> <original SMILES>
Cc1cc(C)c(NC(=O)CCl)c(Cl)c1

> <Chemgauss4>
-6.779119

> <ref_pdb>
x0749_0

$$$$
x1314
  -OEChem-05172015543D

 15 15  0     0  0  0  0  0  0999 V2000
    8.0737   -3.8839   22.2467 C   0  0  0  0  0  0  0  0  0  0  0  0
    8.9948   -5.2255   24.0324 C   0  0  0  0  0  0  0  0  0  0  0  0
    8.0854   -5.0662   22.9868 C   0  0  0  0  0  0  0  0  0  0  0  0
    8.9716   -2.8610   22.5521 C   0  0  0  0  0  0  0  0  0  0  0  0
    9.8810   -3.0203   23.5977 C   0  0  0  0  0  0  0  0  0  0  0  0
    9.8926   -4.2026   24.3379 C   0  0  0  0  0  0  0  0  0  0  0  0
   10.8686   -1.3107   25.1025 C   0  0  0  0  0  0  0  0  0  0  0  0
    7.1247   -6.1597   22.6608 C   0  0  0  0  0  0  0  0  0  0  0  0
    8.9329   -1.6069   21.7400 C   0  0  0  0  0  0  0  0  0  0  0  0
   11.9471   -0.2528   25.0689 C   0  0  0  0  0  0  0  0  0  0  0  0
   10.7765   -1.9855   23.8940 N   0  0  0  0  0  0  0  0  0  0  0  0
   10.1908   -1.4693   26.1142 O   0  0  0  0  0  0  0  0  0  0  0  0
   11.0010   -4.4446   25.6418 Cl  0  0  0  0  0  0  0  0  0  0  0  0
   13.4596   -1.0064   25.5981 Cl  0  0  0  0  0  0  0  0  0  0  0  0
   11.4168   -1.7032   23.1571 H   0  0  0  0  0  0  0  0  0  0  0  0
  1  3  1  0  0  0  0
  1  4  2  0  0  0  0
  2  3  2  0  0  0  0
  2  6  1  0  0  0  0
  3  8  1  0  0  0  0
  4  5  1  0  0  0  0
  4  9  1  0  0  0  0
  5  6  2  0  0  0  0
  5 11  1  0  0  0  0
  6 13  1  0  0  0  0
  7 10  1  0  0  0  0
  7 11  1  0  0  0  0
  7 12  2  0  0  0  0
 10 14  1  0  0  0  0
 11 15  1  0  0  0  0
M  END
> <ref_mols>
x1314_0

> <original SMILES>
Cc1cc(C)c(NC(=O)CCl)c(Cl)c1

> <Chemgauss4>
-6.779119

> <ref_pdb>
x0749_0

$$$$
x0952
  -OEChem-05172015543D

 11 11  0     0  0  0  0  0  0999 V2000
   13.6550    2.5961   22.3150 C   0  0  0  0  0  0  0  0  0  0  0  0
   14.0216    1.2504   22.3271 C   0  0  0  0  0  0  0  0  0  0  0  0
   11.9673    0.7010   23.4738 C   0  0  0  0  0  0  0  0  0  0  0  0
   12.4445    2.9944   22.8824 C   0  0  0  0  0  0  0  0  0  0  0  0
   11.6006    2.0468   23.4617 C   0  0  0  0  0  0  0  0  0  0  0  0
   13.1778    0.3029   22.9065 C   0  0  0  0  0  0  0  0  0  0  0  0
    9.6116    1.3944   24.5905 C   0  0  0  0  0  0  0  0  0  0  0  0
   12.0984    4.3118   22.8649 O   0  0  0  0  0  0  0  0  0  0  0  0
   10.4164    2.4241   24.0191 O   0  0  0  0  0  0  0  0  0  0  0  0
   13.6749   -1.5206   22.9212 Br  0  0  0  0  0  0  0  0  0  0  0  0
   12.7899    4.8342   22.4289 H   0  0  0  0  0  0  0  0  0  0  0  0
  1  2  1  0  0  0  0
  1  4  2  0  0  0  0
  2  6  2  0  0  0  0
  3  5  2  0  0  0  0
  3  6  1  0  0  0  0
  4  5  1  0  0  0  0
  4  8  1  0  0  0  0
  5  9  1  0  0  0  0
  6 10  1  0  0  0  0
  7  9  1  0  0  0  0
  8 11  1  0  0  0  0
M  END
> <ref_mols>
x0952_0

> <original SMILES>
OC1=C(OC)C=C(Br)C=C1

> <Chemgauss4>
-6.778821

> <ref_pdb>
x0195_0

$$$$
x0869
  -OEChem-05172015543D

 13 13  0     1  0  0  0  0  0999 V2000
   13.0644    2.2149   22.4057 C   0  0  0  0  0  0  0  0  0  0  0  0
   14.1369   -1.1843   21.6342 C   0  0  0  0  0  0  0  0  0  0  0  0
   13.1152   -2.0554   22.3549 C   0  0  0  0  0  0  0  0  0  0  0  0
   14.3756    0.1271   22.3700 C   0  0  0  0  0  0  0  0  0  0  0  0
   11.8136   -1.2804   22.5925 C   0  0  2  0  0  0  0  0  0  0  0  0
   12.0598    0.0585   23.3311 C   0  0  1  0  0  0  0  0  0  0  0  0
   11.7548    2.9031   22.7012 C   0  0  0  0  0  0  0  0  0  0  0  0
   12.3899   -0.0889   24.8215 C   0  0  0  0  0  0  0  0  0  0  0  0
   10.7828   -2.1678   23.2918 C   0  0  0  0  0  0  0  0  0  0  0  0
   13.1245    0.8389   22.6527 N   0  0  0  0  0  0  0  0  0  0  0  0
   14.0036    2.8800   21.9604 O   0  0  0  0  0  0  0  0  0  0  0  0
    9.6070   -1.4090   23.4988 O   0  0  0  0  0  0  0  0  0  0  0  0
    8.9656   -1.9897   23.9435 H   0  0  0  0  0  0  0  0  0  0  0  0
  1  7  1  0  0  0  0
  1 10  1  0  0  0  0
  1 11  2  0  0  0  0
  2  3  1  0  0  0  0
  2  4  1  0  0  0  0
  3  5  1  0  0  0  0
  4 10  1  0  0  0  0
  5  6  1  0  0  0  0
  5  9  1  0  0  0  0
  6  8  1  0  0  0  0
  6 10  1  0  0  0  0
  9 12  1  0  0  0  0
 12 13  1  0  0  0  0
M  END
> <ref_mols>
x0869_0

> <original SMILES>
C[C@H]1N(C(C)=O)CCC[C@H]1CO

> <Chemgauss4>
-6.777671

> <ref_pdb>
x0195_0

$$$$
x2809
  -OEChem-05172015543D

 28 30  0     1  0  0  0  0  0999 V2000
   14.8670   -2.0027   21.7420 C   0  0  0  0  0  0  0  0  0  0  0  0
   14.2913   -2.1634   23.0023 C   0  0  0  0  0  0  0  0  0  0  0  0
   14.8355   -0.7573   21.1145 C   0  0  0  0  0  0  0  0  0  0  0  0
    8.5785   -3.7559   23.8164 C   0  0  0  0  0  0  0  0  0  0  0  0
   13.6840   -1.0787   23.6350 C   0  0  0  0  0  0  0  0  0  0  0  0
   14.2282    0.3274   21.7472 C   0  0  0  0  0  0  0  0  0  0  0  0
    9.3271   -3.0774   22.8252 C   0  0  0  0  0  0  0  0  0  0  0  0
    8.6408    6.6574   22.2711 C   0  0  0  0  0  0  0  0  0  0  0  0
    8.5799   -2.9383   24.9225 C   0  0  0  0  0  0  0  0  0  0  0  0
    7.9746    6.4915   23.4599 C   0  0  0  0  0  0  0  0  0  0  0  0
   13.6525    0.1667   23.0075 C   0  0  0  0  0  0  0  0  0  0  0  0
    9.7324   -1.8935   23.3962 C   0  0  0  0  0  0  0  0  0  0  0  0
    9.9758    5.7531   23.6212 C   0  0  0  0  0  0  0  0  0  0  0  0
   10.5408   -0.7674   22.8619 C   0  0  0  0  0  0  0  0  0  0  0  0
   10.8908    2.6466   24.0963 C   0  0  0  0  0  0  0  0  0  0  0  0
   12.3558    6.0353   24.4262 C   0  0  0  0  0  0  0  0  0  0  0  0
   12.9954    1.3406   23.6915 C   0  0  0  0  0  0  0  0  0  0  0  0
   11.1394    5.1149   24.3489 C   0  0  2  0  0  0  0  0  0  0  0  0
   11.5051    1.4650   23.3543 C   0  0  1  0  0  0  0  0  0  0  0  0
    9.9227    6.1826   22.3807 N   0  0  0  0  0  0  0  0  0  0  0  0
   10.7611    0.2902   23.7333 N   0  0  0  0  0  0  0  0  0  0  0  0
   11.4979    3.8471   23.7548 N   0  0  0  0  0  0  0  0  0  0  0  0
   10.9454   -0.8161   21.7032 O   0  0  0  0  0  0  0  0  0  0  0  0
    9.9942    2.5217   24.9278 O   0  0  0  0  0  0  0  0  0  0  0  0
    9.2810   -1.8010   24.6746 O   0  0  0  0  0  0  0  0  0  0  0  0
    8.8314    5.9059   24.3422 O   0  0  0  0  0  0  0  0  0  0  0  0
   10.3393    0.2846   24.6582 H   0  0  0  0  0  0  0  0  0  0  0  0
   12.2311    3.8340   23.0519 H   0  0  0  0  0  0  0  0  0  0  0  0
  1  2  1  0  0  0  0
  1  3  2  0  0  0  0
  2  5  2  0  0  0  0
  3  6  1  0  0  0  0
  4  7  1  0  0  0  0
  4  9  2  0  0  0  0
  5 11  1  0  0  0  0
  6 11  2  0  0  0  0
  7 12  2  0  0  0  0
  8 10  2  0  0  0  0
  8 20  1  0  0  0  0
  9 25  1  0  0  0  0
 10 26  1  0  0  0  0
 11 17  1  0  0  0  0
 12 14  1  0  0  0  0
 12 25  1  0  0  0  0
 13 18  1  0  0  0  0
 13 20  2  0  0  0  0
 13 26  1  0  0  0  0
 14 21  1  0  0  0  0
 14 23  2  0  0  0  0
 15 19  1  0  0  0  0
 15 22  1  0  0  0  0
 15 24  2  0  0  0  0
 16 18  1  0  0  0  0
 17 19  1  0  0  0  0
 18 22  1  0  0  0  0
 19 21  1  0  0  0  0
 21 27  1  0  0  0  0
 22 28  1  0  0  0  0
M  END
> <ref_mols>
x2809_0

> <original SMILES>
CC(NC(=O)C(CC=1C=CC=CC1)NC(=O)C2=CC=CO2)C3=NC=CO3

> <Chemgauss4>
-6.777131

> <ref_pdb>
x0195_0

$$$$
x2756
  -OEChem-05172015543D

 27 29  0     1  0  0  0  0  0999 V2000
    6.3286   -2.8281   19.9269 C   0  0  0  0  0  0  0  0  0  0  0  0
    6.1054   -1.1540   18.7002 C   0  0  0  0  0  0  0  0  0  0  0  0
    8.4893   -4.4088   24.1114 C   0  0  0  0  0  0  0  0  0  0  0  0
   12.9628   -2.6864   25.8667 C   0  0  0  0  0  0  0  0  0  0  0  0
    9.4075   -2.7798   25.7530 C   0  0  0  0  0  0  0  0  0  0  0  0
   10.3363   -2.8837   23.3887 C   0  0  0  0  0  0  0  0  0  0  0  0
   10.6596   -3.5125   26.2316 C   0  0  0  0  0  0  0  0  0  0  0  0
   11.5696   -3.5972   23.9444 C   0  0  0  0  0  0  0  0  0  0  0  0
    6.9200   -5.8496   22.8576 C   0  0  0  0  0  0  0  0  0  0  0  0
    7.0295   -3.4622   22.2584 C   0  0  0  0  0  0  0  0  0  0  0  0
    6.8889   -6.1752   21.3718 C   0  0  0  0  0  0  0  0  0  0  0  0
    6.9896   -3.8848   20.7846 C   0  0  1  0  0  0  0  0  0  0  0  0
    9.0983   -3.0469   24.2765 C   0  0  0  0  0  0  0  0  0  0  0  0
    5.2795    1.6356   19.6084 C   0  0  0  0  0  0  0  0  0  0  0  0
    6.2620    0.0501   17.8686 C   0  0  0  0  0  0  0  0  0  0  0  0
   14.0806   -2.4307   24.8874 C   0  0  0  0  0  0  0  0  0  0  0  0
    6.4642    1.3318   18.7051 C   0  0  0  0  0  0  0  0  0  0  0  0
    7.0403   -1.8275   19.3293 N   0  0  0  0  0  0  0  0  0  0  0  0
    5.0122   -2.8161   19.7070 N   0  0  0  0  0  0  0  0  0  0  0  0
    4.8958   -1.7358   18.9198 N   0  0  0  0  0  0  0  0  0  0  0  0
    7.5553   -4.5530   23.0871 N   0  0  0  0  0  0  0  0  0  0  0  0
   11.7915   -3.2366   25.3479 N   0  0  0  0  0  0  0  0  0  0  0  0
    8.8346   -5.3211   24.8665 O   0  0  0  0  0  0  0  0  0  0  0  0
   13.1271   -2.4030   27.0561 O   0  0  0  0  0  0  0  0  0  0  0  0
    6.2696   -5.1166   20.6399 O   0  0  0  0  0  0  0  0  0  0  0  0
   13.8309   -0.8091   24.2502 Cl  0  0  0  0  0  0  0  0  0  0  0  0
    3.9795   -1.4665   18.5812 H   0  0  0  0  0  0  0  0  0  0  0  0
  1 12  1  0  0  0  0
  1 18  1  0  0  0  0
  1 19  2  0  0  0  0
  2 15  1  0  0  0  0
  2 18  2  0  0  0  0
  2 20  1  0  0  0  0
  3 13  1  0  0  0  0
  3 21  1  0  0  0  0
  3 23  2  0  0  0  0
  4 16  1  0  0  0  0
  4 22  1  0  0  0  0
  4 24  2  0  0  0  0
  5  7  1  0  0  0  0
  5 13  1  0  0  0  0
  6  8  1  0  0  0  0
  6 13  1  0  0  0  0
  7 22  1  0  0  0  0
  8 22  1  0  0  0  0
  9 11  1  0  0  0  0
  9 21  1  0  0  0  0
 10 12  1  0  0  0  0
 10 21  1  0  0  0  0
 11 25  1  0  0  0  0
 12 25  1  0  0  0  0
 14 17  1  0  0  0  0
 15 17  1  0  0  0  0
 16 26  1  0  0  0  0
 19 20  1  0  0  0  0
 20 27  1  0  0  0  0
M  END
> <ref_mols>
x2756_0

> <original SMILES>
O=C(C1CCN(C(CCl)=O)CC1)N2CC(C3=NC(CCC)=NN3)OCC2

> <Chemgauss4>
-6.775009

> <ref_pdb>
x0749_0

> <CYS145-warhead dist minimum (A)>
5.734837

> <CYS145-warhead dist mean (A)>
6.9200416

> <CYS145-warhead dist stddev (A)>
0.50712043

$$$$
x2042
  -OEChem-05172015543D

 27 29  0     1  0  0  0  0  0999 V2000
    6.3286   -2.8281   19.9269 C   0  0  0  0  0  0  0  0  0  0  0  0
    6.1054   -1.1540   18.7002 C   0  0  0  0  0  0  0  0  0  0  0  0
    8.4893   -4.4088   24.1114 C   0  0  0  0  0  0  0  0  0  0  0  0
   12.9628   -2.6864   25.8667 C   0  0  0  0  0  0  0  0  0  0  0  0
    9.4075   -2.7798   25.7530 C   0  0  0  0  0  0  0  0  0  0  0  0
   10.3363   -2.8837   23.3887 C   0  0  0  0  0  0  0  0  0  0  0  0
   10.6596   -3.5125   26.2316 C   0  0  0  0  0  0  0  0  0  0  0  0
   11.5696   -3.5972   23.9444 C   0  0  0  0  0  0  0  0  0  0  0  0
    6.9200   -5.8496   22.8576 C   0  0  0  0  0  0  0  0  0  0  0  0
    7.0295   -3.4622   22.2584 C   0  0  0  0  0  0  0  0  0  0  0  0
    6.8889   -6.1752   21.3718 C   0  0  0  0  0  0  0  0  0  0  0  0
    6.9896   -3.8848   20.7846 C   0  0  1  0  0  0  0  0  0  0  0  0
    9.0983   -3.0469   24.2765 C   0  0  0  0  0  0  0  0  0  0  0  0
    5.2795    1.6356   19.6084 C   0  0  0  0  0  0  0  0  0  0  0  0
    6.2620    0.0501   17.8686 C   0  0  0  0  0  0  0  0  0  0  0  0
   14.0806   -2.4307   24.8874 C   0  0  0  0  0  0  0  0  0  0  0  0
    6.4642    1.3318   18.7051 C   0  0  0  0  0  0  0  0  0  0  0  0
    7.0403   -1.8275   19.3293 N   0  0  0  0  0  0  0  0  0  0  0  0
    5.0122   -2.8161   19.7070 N   0  0  0  0  0  0  0  0  0  0  0  0
    4.8958   -1.7358   18.9198 N   0  0  0  0  0  0  0  0  0  0  0  0
    7.5553   -4.5530   23.0871 N   0  0  0  0  0  0  0  0  0  0  0  0
   11.7915   -3.2366   25.3479 N   0  0  0  0  0  0  0  0  0  0  0  0
    8.8346   -5.3211   24.8665 O   0  0  0  0  0  0  0  0  0  0  0  0
   13.1271   -2.4030   27.0561 O   0  0  0  0  0  0  0  0  0  0  0  0
    6.2696   -5.1166   20.6399 O   0  0  0  0  0  0  0  0  0  0  0  0
   13.8309   -0.8091   24.2502 Cl  0  0  0  0  0  0  0  0  0  0  0  0
    3.9795   -1.4665   18.5812 H   0  0  0  0  0  0  0  0  0  0  0  0
  1 12  1  0  0  0  0
  1 18  1  0  0  0  0
  1 19  2  0  0  0  0
  2 15  1  0  0  0  0
  2 18  2  0  0  0  0
  2 20  1  0  0  0  0
  3 13  1  0  0  0  0
  3 21  1  0  0  0  0
  3 23  2  0  0  0  0
  4 16  1  0  0  0  0
  4 22  1  0  0  0  0
  4 24  2  0  0  0  0
  5  7  1  0  0  0  0
  5 13  1  0  0  0  0
  6  8  1  0  0  0  0
  6 13  1  0  0  0  0
  7 22  1  0  0  0  0
  8 22  1  0  0  0  0
  9 11  1  0  0  0  0
  9 21  1  0  0  0  0
 10 12  1  0  0  0  0
 10 21  1  0  0  0  0
 11 25  1  0  0  0  0
 12 25  1  0  0  0  0
 14 17  1  0  0  0  0
 15 17  1  0  0  0  0
 16 26  1  0  0  0  0
 19 20  1  0  0  0  0
 20 27  1  0  0  0  0
M  END
> <ref_mols>
x2042_0

> <original SMILES>
O=C(C1CCN(C(CCl)=O)CC1)N2CC(C3=NC(CCC)=NN3)OCC2

> <Chemgauss4>
-6.775009

> <ref_pdb>
x0749_0

> <CYS145-warhead dist minimum (A)>
4.980063

> <CYS145-warhead dist mean (A)>
6.291718

> <CYS145-warhead dist stddev (A)>
0.39658776

$$$$
x0939
  -OEChem-05172015543D

 13 13  0     0  0  0  0  0  0999 V2000
   10.0896   -3.0074   23.3632 C   0  0  0  0  0  0  0  0  0  0  0  0
   10.4135   -4.8805   24.8544 C   0  0  0  0  0  0  0  0  0  0  0  0
   11.2256   -2.3923   23.8891 C   0  0  0  0  0  0  0  0  0  0  0  0
   11.5496   -4.2654   25.3803 C   0  0  0  0  0  0  0  0  0  0  0  0
    9.6835   -4.2516   23.8459 C   0  0  0  0  0  0  0  0  0  0  0  0
   11.9557   -3.0212   24.8976 C   0  0  0  0  0  0  0  0  0  0  0  0
    7.7690   -3.8646   22.0322 N   0  0  0  0  0  0  0  0  0  0  0  0
    8.6726   -6.2339   22.4962 O   0  0  0  0  0  0  0  0  0  0  0  0
    7.2499   -5.0945   24.2355 O   0  0  0  0  0  0  0  0  0  0  0  0
    8.2606   -5.0214   23.1896 S   0  0  0  0  0  0  0  0  0  0  0  0
   13.6489   -2.1059   25.6793 I   0  0  0  0  0  0  0  0  0  0  0  0
    7.8936   -4.0939   21.0385 H   0  0  0  0  0  0  0  0  0  0  0  0
    6.9233   -3.3155   22.2286 H   0  0  0  0  0  0  0  0  0  0  0  0
  1  3  2  0  0  0  0
  1  5  1  0  0  0  0
  2  4  1  0  0  0  0
  2  5  2  0  0  0  0
  3  6  1  0  0  0  0
  4  6  2  0  0  0  0
  5 10  1  0  0  0  0
  6 11  1  0  0  0  0
  7 10  1  0  0  0  0
  8 10  2  0  0  0  0
  9 10  2  0  0  0  0
  7 12  1  0  0  0  0
  7 13  1  0  0  0  0
M  END
> <ref_mols>
x0939_0

> <original SMILES>
IC1=CC=C(S(N)(=O)=O)C=C1

> <Chemgauss4>
-6.763874

> <ref_pdb>
x0749_0

$$$$
x0058
  -OEChem-05172015543D

 11 11  0     0  0  0  0  0  0999 V2000
   14.3682   -1.1959   22.4016 C   0  0  0  0  0  0  0  0  0  0  0  0
   13.5564   -0.1192   23.1273 C   0  0  0  0  0  0  0  0  0  0  0  0
   13.3979   -1.8807   21.4427 C   0  0  0  0  0  0  0  0  0  0  0  0
   12.1388   -0.2121   22.5690 C   0  0  0  0  0  0  0  0  0  0  0  0
   12.0356   -1.6541   22.0871 C   0  0  0  0  0  0  0  0  0  0  0  0
    8.7638   -0.4559   20.4534 C   0  0  0  0  0  0  0  0  0  0  0  0
   10.9356   -1.8598   21.1622 N   0  0  0  0  0  0  0  0  0  0  0  0
    9.3530   -0.8920   22.9659 O   0  0  0  0  0  0  0  0  0  0  0  0
    8.5848   -2.8221   21.5371 O   0  0  0  0  0  0  0  0  0  0  0  0
    9.3360   -1.5916   21.6962 S   0  0  0  0  0  0  0  0  0  0  0  0
   11.0815   -2.6380   20.5055 H   0  0  0  0  0  0  0  0  0  0  0  0
  1  2  1  0  0  0  0
  1  3  1  0  0  0  0
  2  4  1  0  0  0  0
  3  5  1  0  0  0  0
  4  5  1  0  0  0  0
  5  7  1  0  0  0  0
  6 10  1  0  0  0  0
  7 10  1  0  0  0  0
  8 10  2  0  0  0  0
  9 10  2  0  0  0  0
  7 11  1  0  0  0  0
M  END
> <ref_mols>
x0058_0

> <original SMILES>
CS(=O)(=O)NC1CCCC1

> <Chemgauss4>
-6.762945

> <ref_pdb>
x1382_0

$$$$
x1017
  -OEChem-05172015543D

 11 10  0     0  0  0  0  0  0999 V2000
   12.9037    3.8126   22.5392 C   0  0  0  0  0  0  0  0  0  0  0  0
   11.2091    2.4961   23.7991 C   0  0  0  0  0  0  0  0  0  0  0  0
   13.2638    1.3720   22.8650 C   0  0  0  0  0  0  0  0  0  0  0  0
   12.2355    2.4843   22.6678 C   0  0  0  0  0  0  0  0  0  0  0  0
   12.3295    4.7236   21.7634 N   0  0  0  0  0  0  0  0  0  0  0  0
   14.0331    3.9867   23.2162 N   0  3  0  0  0  0  0  0  0  0  0  0
   12.9646    5.9417   21.6605 O   0  0  0  0  0  0  0  0  0  0  0  0
   11.4686    4.5907   21.2475 H   0  0  0  0  0  0  0  0  0  0  0  0
   14.4061    3.2370   23.7881 H   0  0  0  0  0  0  0  0  0  0  0  0
   14.5435    4.8618   23.1780 H   0  0  0  0  0  0  0  0  0  0  0  0
   12.3702    6.4200   21.0581 H   0  0  0  0  0  0  0  0  0  0  0  0
  1  4  1  0  0  0  0
  1  5  1  0  0  0  0
  1  6  2  0  0  0  0
  2  4  1  0  0  0  0
  3  4  1  0  0  0  0
  5  7  1  0  0  0  0
  5  8  1  0  0  0  0
  6  9  1  0  0  0  0
  6 10  1  0  0  0  0
  7 11  1  0  0  0  0
M  CHG  1   6   1
M  END
> <ref_mols>
x1017_0

> <original SMILES>
CC(C)C(=NO)N

> <Chemgauss4>
-6.762265

> <ref_pdb>
x0104_0

$$$$
x1184
  -OEChem-05172015543D

 13 13  0     1  0  0  0  0  0999 V2000
   12.9976    0.4421   23.5136 C   0  0  0  0  0  0  0  0  0  0  0  0
   12.2167    3.4156   23.8571 C   0  0  0  0  0  0  0  0  0  0  0  0
   11.8349    4.7945   23.3588 C   0  0  0  0  0  0  0  0  0  0  0  0
   13.5956    3.8376   21.9650 C   0  0  0  0  0  0  0  0  0  0  0  0
   12.7642    2.7428   22.6088 C   0  0  1  0  0  0  0  0  0  0  0  0
   14.0728   -1.6138   22.5159 C   0  0  0  0  0  0  0  0  0  0  0  0
   14.0387   -0.6484   23.6867 C   0  0  0  0  0  0  0  0  0  0  0  0
   13.5313    1.5656   22.8963 N   0  0  0  0  0  0  0  0  0  0  0  0
   12.8646    5.1039   22.3106 N   0  3  0  0  0  0  0  0  0  0  0  0
   11.8317    0.3220   23.8800 O   0  0  0  0  0  0  0  0  0  0  0  0
   14.5141    1.5531   22.6352 H   0  0  0  0  0  0  0  0  0  0  0  0
   12.4239    5.5027   21.4709 H   0  0  0  0  0  0  0  0  0  0  0  0
   13.5210    5.8141   22.6615 H   0  0  0  0  0  0  0  0  0  0  0  0
  1  7  1  0  0  0  0
  1  8  1  0  0  0  0
  1 10  2  0  0  0  0
  2  3  1  0  0  0  0
  2  5  1  0  0  0  0
  3  9  1  0  0  0  0
  4  5  1  0  0  0  0
  4  9  1  0  0  0  0
  5  8  1  0  0  0  0
  6  7  1  0  0  0  0
  8 11  1  0  0  0  0
  9 12  1  0  0  0  0
  9 13  1  0  0  0  0
M  CHG  1   9   1
M  END
> <ref_mols>
x1184_0

> <original SMILES>
CCC(=O)NC1CCNC1

> <Chemgauss4>
-6.756553

> <ref_pdb>
x0195_0

$$$$
x0651
  -OEChem-05172015543D

 13 13  0     1  0  0  0  0  0999 V2000
   12.9976    0.4421   23.5136 C   0  0  0  0  0  0  0  0  0  0  0  0
   12.2167    3.4156   23.8571 C   0  0  0  0  0  0  0  0  0  0  0  0
   11.8349    4.7945   23.3588 C   0  0  0  0  0  0  0  0  0  0  0  0
   13.5956    3.8376   21.9650 C   0  0  0  0  0  0  0  0  0  0  0  0
   12.7642    2.7428   22.6088 C   0  0  1  0  0  0  0  0  0  0  0  0
   14.0728   -1.6138   22.5159 C   0  0  0  0  0  0  0  0  0  0  0  0
   14.0387   -0.6484   23.6867 C   0  0  0  0  0  0  0  0  0  0  0  0
   13.5313    1.5656   22.8963 N   0  0  0  0  0  0  0  0  0  0  0  0
   12.8646    5.1039   22.3106 N   0  3  0  0  0  0  0  0  0  0  0  0
   11.8317    0.3220   23.8800 O   0  0  0  0  0  0  0  0  0  0  0  0
   14.5141    1.5531   22.6352 H   0  0  0  0  0  0  0  0  0  0  0  0
   12.4239    5.5027   21.4709 H   0  0  0  0  0  0  0  0  0  0  0  0
   13.5210    5.8141   22.6615 H   0  0  0  0  0  0  0  0  0  0  0  0
  1  7  1  0  0  0  0
  1  8  1  0  0  0  0
  1 10  2  0  0  0  0
  2  3  1  0  0  0  0
  2  5  1  0  0  0  0
  3  9  1  0  0  0  0
  4  5  1  0  0  0  0
  4  9  1  0  0  0  0
  5  8  1  0  0  0  0
  6  7  1  0  0  0  0
  8 11  1  0  0  0  0
  9 12  1  0  0  0  0
  9 13  1  0  0  0  0
M  CHG  1   9   1
M  END
> <ref_mols>
x0651_0

> <original SMILES>
CCC(=O)NC1CCNC1

> <Chemgauss4>
-6.756553

> <ref_pdb>
x0195_0

$$$$
x2786
  -OEChem-05172015543D

 21 22  0     0  0  0  0  0  0999 V2000
    6.2646   -0.7219   18.2594 C   0  0  0  0  0  0  0  0  0  0  0  0
    6.2488   -0.8636   19.5882 C   0  0  0  0  0  0  0  0  0  0  0  0
    6.2803   -2.2184   20.2012 C   0  0  0  0  0  0  0  0  0  0  0  0
    7.7855   -2.9530   23.4841 C   0  0  0  0  0  0  0  0  0  0  0  0
    5.6578   -5.3614   21.8944 C   0  0  0  0  0  0  0  0  0  0  0  0
    7.1130   -5.7863   21.8109 C   0  0  0  0  0  0  0  0  0  0  0  0
    5.7129   -4.0198   22.6202 C   0  0  0  0  0  0  0  0  0  0  0  0
    7.8328   -4.4875   21.4702 C   0  0  0  0  0  0  0  0  0  0  0  0
    8.8641   -0.9591   24.4749 C   0  0  0  0  0  0  0  0  0  0  0  0
    9.3405   -1.4793   22.1137 C   0  0  0  0  0  0  0  0  0  0  0  0
   10.3496   -0.7908   24.7590 C   0  0  0  0  0  0  0  0  0  0  0  0
   10.8341   -1.3169   22.3619 C   0  0  0  0  0  0  0  0  0  0  0  0
    7.0630   -3.4108   22.2325 C   0  0  0  0  0  0  0  0  0  0  0  0
   12.5030   -0.0588   23.7284 C   0  0  0  0  0  0  0  0  0  0  0  0
    8.6438   -1.8632   23.3461 N   0  0  0  0  0  0  0  0  0  0  0  0
    6.9049   -2.2166   21.4408 N   0  0  0  0  0  0  0  0  0  0  0  0
   11.0448   -0.3373   23.4947 N   0  3  0  0  0  0  0  0  0  0  0  0
    5.8033   -3.2043   19.6484 O   0  0  0  0  0  0  0  0  0  0  0  0
    7.5905   -3.5508   24.5455 O   0  0  0  0  0  0  0  0  0  0  0  0
    7.2984   -1.3492   21.8033 H   0  0  0  0  0  0  0  0  0  0  0  0
   10.6179    0.5556   23.2118 H   0  0  0  0  0  0  0  0  0  0  0  0
  1  2  2  0  0  0  0
  2  3  1  0  0  0  0
  3 16  1  0  0  0  0
  3 18  2  0  0  0  0
  4 13  1  0  0  0  0
  4 15  1  0  0  0  0
  4 19  2  0  0  0  0
  5  6  1  0  0  0  0
  5  7  1  0  0  0  0
  6  8  1  0  0  0  0
  7 13  1  0  0  0  0
  8 13  1  0  0  0  0
  9 11  1  0  0  0  0
  9 15  1  0  0  0  0
 10 12  1  0  0  0  0
 10 15  1  0  0  0  0
 11 17  1  0  0  0  0
 12 17  1  0  0  0  0
 13 16  1  0  0  0  0
 14 17  1  0  0  0  0
 16 20  1  0  0  0  0
 17 21  1  0  0  0  0
M  CHG  1  17   1
M  END
> <ref_mols>
x2786_0

> <original SMILES>
CN1CCN(CC1)C(=O)C2(CCCC2)NC(=O)C=C

> <Chemgauss4>
-6.755926

> <ref_pdb>
x1386_0

$$$$
x2352
  -OEChem-05172015543D

 21 22  0     0  0  0  0  0  0999 V2000
    6.2646   -0.7219   18.2594 C   0  0  0  0  0  0  0  0  0  0  0  0
    6.2488   -0.8636   19.5882 C   0  0  0  0  0  0  0  0  0  0  0  0
    6.2803   -2.2184   20.2012 C   0  0  0  0  0  0  0  0  0  0  0  0
    7.7855   -2.9530   23.4841 C   0  0  0  0  0  0  0  0  0  0  0  0
    5.6578   -5.3614   21.8944 C   0  0  0  0  0  0  0  0  0  0  0  0
    7.1130   -5.7863   21.8109 C   0  0  0  0  0  0  0  0  0  0  0  0
    5.7129   -4.0198   22.6202 C   0  0  0  0  0  0  0  0  0  0  0  0
    7.8328   -4.4875   21.4702 C   0  0  0  0  0  0  0  0  0  0  0  0
    8.8641   -0.9591   24.4749 C   0  0  0  0  0  0  0  0  0  0  0  0
    9.3405   -1.4793   22.1137 C   0  0  0  0  0  0  0  0  0  0  0  0
   10.3496   -0.7908   24.7590 C   0  0  0  0  0  0  0  0  0  0  0  0
   10.8341   -1.3169   22.3619 C   0  0  0  0  0  0  0  0  0  0  0  0
    7.0630   -3.4108   22.2325 C   0  0  0  0  0  0  0  0  0  0  0  0
   12.5030   -0.0588   23.7284 C   0  0  0  0  0  0  0  0  0  0  0  0
    8.6438   -1.8632   23.3461 N   0  0  0  0  0  0  0  0  0  0  0  0
    6.9049   -2.2166   21.4408 N   0  0  0  0  0  0  0  0  0  0  0  0
   11.0448   -0.3373   23.4947 N   0  3  0  0  0  0  0  0  0  0  0  0
    5.8033   -3.2043   19.6484 O   0  0  0  0  0  0  0  0  0  0  0  0
    7.5905   -3.5508   24.5455 O   0  0  0  0  0  0  0  0  0  0  0  0
    7.2984   -1.3492   21.8033 H   0  0  0  0  0  0  0  0  0  0  0  0
   10.6179    0.5556   23.2118 H   0  0  0  0  0  0  0  0  0  0  0  0
  1  2  2  0  0  0  0
  2  3  1  0  0  0  0
  3 16  1  0  0  0  0
  3 18  2  0  0  0  0
  4 13  1  0  0  0  0
  4 15  1  0  0  0  0
  4 19  2  0  0  0  0
  5  6  1  0  0  0  0
  5  7  1  0  0  0  0
  6  8  1  0  0  0  0
  7 13  1  0  0  0  0
  8 13  1  0  0  0  0
  9 11  1  0  0  0  0
  9 15  1  0  0  0  0
 10 12  1  0  0  0  0
 10 15  1  0  0  0  0
 11 17  1  0  0  0  0
 12 17  1  0  0  0  0
 13 16  1  0  0  0  0
 14 17  1  0  0  0  0
 16 20  1  0  0  0  0
 17 21  1  0  0  0  0
M  CHG  1  17   1
M  END
> <ref_mols>
x2352_0

> <original SMILES>
CN1CCN(CC1)C(=O)C2(CCCC2)NC(=O)C=C

> <Chemgauss4>
-6.755926

> <ref_pdb>
x1386_0

> <CYS145-warhead dist minimum (A)>
7.520219

> <CYS145-warhead dist mean (A)>
9.266086

> <CYS145-warhead dist stddev (A)>
0.66133314

$$$$
x2775
  -OEChem-05172015543D

 21 22  0     0  0  0  0  0  0999 V2000
    6.2646   -0.7219   18.2594 C   0  0  0  0  0  0  0  0  0  0  0  0
    6.2488   -0.8636   19.5882 C   0  0  0  0  0  0  0  0  0  0  0  0
    6.2803   -2.2184   20.2012 C   0  0  0  0  0  0  0  0  0  0  0  0
    7.7855   -2.9530   23.4841 C   0  0  0  0  0  0  0  0  0  0  0  0
    5.6578   -5.3614   21.8944 C   0  0  0  0  0  0  0  0  0  0  0  0
    7.1130   -5.7863   21.8109 C   0  0  0  0  0  0  0  0  0  0  0  0
    5.7129   -4.0198   22.6202 C   0  0  0  0  0  0  0  0  0  0  0  0
    7.8328   -4.4875   21.4702 C   0  0  0  0  0  0  0  0  0  0  0  0
    8.8641   -0.9591   24.4749 C   0  0  0  0  0  0  0  0  0  0  0  0
    9.3405   -1.4793   22.1137 C   0  0  0  0  0  0  0  0  0  0  0  0
   10.3496   -0.7908   24.7590 C   0  0  0  0  0  0  0  0  0  0  0  0
   10.8341   -1.3169   22.3619 C   0  0  0  0  0  0  0  0  0  0  0  0
    7.0630   -3.4108   22.2325 C   0  0  0  0  0  0  0  0  0  0  0  0
   12.5030   -0.0588   23.7284 C   0  0  0  0  0  0  0  0  0  0  0  0
    8.6438   -1.8632   23.3461 N   0  0  0  0  0  0  0  0  0  0  0  0
    6.9049   -2.2166   21.4408 N   0  0  0  0  0  0  0  0  0  0  0  0
   11.0448   -0.3373   23.4947 N   0  3  0  0  0  0  0  0  0  0  0  0
    5.8033   -3.2043   19.6484 O   0  0  0  0  0  0  0  0  0  0  0  0
    7.5905   -3.5508   24.5455 O   0  0  0  0  0  0  0  0  0  0  0  0
    7.2984   -1.3492   21.8033 H   0  0  0  0  0  0  0  0  0  0  0  0
   10.6179    0.5556   23.2118 H   0  0  0  0  0  0  0  0  0  0  0  0
  1  2  2  0  0  0  0
  2  3  1  0  0  0  0
  3 16  1  0  0  0  0
  3 18  2  0  0  0  0
  4 13  1  0  0  0  0
  4 15  1  0  0  0  0
  4 19  2  0  0  0  0
  5  6  1  0  0  0  0
  5  7  1  0  0  0  0
  6  8  1  0  0  0  0
  7 13  1  0  0  0  0
  8 13  1  0  0  0  0
  9 11  1  0  0  0  0
  9 15  1  0  0  0  0
 10 12  1  0  0  0  0
 10 15  1  0  0  0  0
 11 17  1  0  0  0  0
 12 17  1  0  0  0  0
 13 16  1  0  0  0  0
 14 17  1  0  0  0  0
 16 20  1  0  0  0  0
 17 21  1  0  0  0  0
M  CHG  1  17   1
M  END
> <ref_mols>
x2775_0

> <original SMILES>
CN1CCN(CC1)C(=O)C2(CCCC2)NC(=O)C=C

> <Chemgauss4>
-6.755926

> <ref_pdb>
x1386_0

> <CYS145-warhead dist minimum (A)>
7.4545345

> <CYS145-warhead dist mean (A)>
8.366884

> <CYS145-warhead dist stddev (A)>
0.37060234

$$$$
x2762
  -OEChem-05172015543D

 21 22  0     0  0  0  0  0  0999 V2000
    6.2646   -0.7219   18.2594 C   0  0  0  0  0  0  0  0  0  0  0  0
    6.2488   -0.8636   19.5882 C   0  0  0  0  0  0  0  0  0  0  0  0
    6.2803   -2.2184   20.2012 C   0  0  0  0  0  0  0  0  0  0  0  0
    7.7855   -2.9530   23.4841 C   0  0  0  0  0  0  0  0  0  0  0  0
    5.6578   -5.3614   21.8944 C   0  0  0  0  0  0  0  0  0  0  0  0
    7.1130   -5.7863   21.8109 C   0  0  0  0  0  0  0  0  0  0  0  0
    5.7129   -4.0198   22.6202 C   0  0  0  0  0  0  0  0  0  0  0  0
    7.8328   -4.4875   21.4702 C   0  0  0  0  0  0  0  0  0  0  0  0
    8.8641   -0.9591   24.4749 C   0  0  0  0  0  0  0  0  0  0  0  0
    9.3405   -1.4793   22.1137 C   0  0  0  0  0  0  0  0  0  0  0  0
   10.3496   -0.7908   24.7590 C   0  0  0  0  0  0  0  0  0  0  0  0
   10.8341   -1.3169   22.3619 C   0  0  0  0  0  0  0  0  0  0  0  0
    7.0630   -3.4108   22.2325 C   0  0  0  0  0  0  0  0  0  0  0  0
   12.5030   -0.0588   23.7284 C   0  0  0  0  0  0  0  0  0  0  0  0
    8.6438   -1.8632   23.3461 N   0  0  0  0  0  0  0  0  0  0  0  0
    6.9049   -2.2166   21.4408 N   0  0  0  0  0  0  0  0  0  0  0  0
   11.0448   -0.3373   23.4947 N   0  3  0  0  0  0  0  0  0  0  0  0
    5.8033   -3.2043   19.6484 O   0  0  0  0  0  0  0  0  0  0  0  0
    7.5905   -3.5508   24.5455 O   0  0  0  0  0  0  0  0  0  0  0  0
    7.2984   -1.3492   21.8033 H   0  0  0  0  0  0  0  0  0  0  0  0
   10.6179    0.5556   23.2118 H   0  0  0  0  0  0  0  0  0  0  0  0
  1  2  2  0  0  0  0
  2  3  1  0  0  0  0
  3 16  1  0  0  0  0
  3 18  2  0  0  0  0
  4 13  1  0  0  0  0
  4 15  1  0  0  0  0
  4 19  2  0  0  0  0
  5  6  1  0  0  0  0
  5  7  1  0  0  0  0
  6  8  1  0  0  0  0
  7 13  1  0  0  0  0
  8 13  1  0  0  0  0
  9 11  1  0  0  0  0
  9 15  1  0  0  0  0
 10 12  1  0  0  0  0
 10 15  1  0  0  0  0
 11 17  1  0  0  0  0
 12 17  1  0  0  0  0
 13 16  1  0  0  0  0
 14 17  1  0  0  0  0
 16 20  1  0  0  0  0
 17 21  1  0  0  0  0
M  CHG  1  17   1
M  END
> <ref_mols>
x2762_0

> <original SMILES>
CN1CCN(CC1)C(=O)C2(CCCC2)NC(=O)C=C

> <Chemgauss4>
-6.755926

> <ref_pdb>
x1386_0

> <CYS145-warhead dist minimum (A)>
6.117925

> <CYS145-warhead dist mean (A)>
8.024342

> <CYS145-warhead dist stddev (A)>
0.51199895

$$$$
x2549
  -OEChem-05172015543D

 21 22  0     0  0  0  0  0  0999 V2000
    6.2646   -0.7219   18.2594 C   0  0  0  0  0  0  0  0  0  0  0  0
    6.2488   -0.8636   19.5882 C   0  0  0  0  0  0  0  0  0  0  0  0
    6.2803   -2.2184   20.2012 C   0  0  0  0  0  0  0  0  0  0  0  0
    7.7855   -2.9530   23.4841 C   0  0  0  0  0  0  0  0  0  0  0  0
    5.6578   -5.3614   21.8944 C   0  0  0  0  0  0  0  0  0  0  0  0
    7.1130   -5.7863   21.8109 C   0  0  0  0  0  0  0  0  0  0  0  0
    5.7129   -4.0198   22.6202 C   0  0  0  0  0  0  0  0  0  0  0  0
    7.8328   -4.4875   21.4702 C   0  0  0  0  0  0  0  0  0  0  0  0
    8.8641   -0.9591   24.4749 C   0  0  0  0  0  0  0  0  0  0  0  0
    9.3405   -1.4793   22.1137 C   0  0  0  0  0  0  0  0  0  0  0  0
   10.3496   -0.7908   24.7590 C   0  0  0  0  0  0  0  0  0  0  0  0
   10.8341   -1.3169   22.3619 C   0  0  0  0  0  0  0  0  0  0  0  0
    7.0630   -3.4108   22.2325 C   0  0  0  0  0  0  0  0  0  0  0  0
   12.5030   -0.0588   23.7284 C   0  0  0  0  0  0  0  0  0  0  0  0
    8.6438   -1.8632   23.3461 N   0  0  0  0  0  0  0  0  0  0  0  0
    6.9049   -2.2166   21.4408 N   0  0  0  0  0  0  0  0  0  0  0  0
   11.0448   -0.3373   23.4947 N   0  3  0  0  0  0  0  0  0  0  0  0
    5.8033   -3.2043   19.6484 O   0  0  0  0  0  0  0  0  0  0  0  0
    7.5905   -3.5508   24.5455 O   0  0  0  0  0  0  0  0  0  0  0  0
    7.2984   -1.3492   21.8033 H   0  0  0  0  0  0  0  0  0  0  0  0
   10.6179    0.5556   23.2118 H   0  0  0  0  0  0  0  0  0  0  0  0
  1  2  2  0  0  0  0
  2  3  1  0  0  0  0
  3 16  1  0  0  0  0
  3 18  2  0  0  0  0
  4 13  1  0  0  0  0
  4 15  1  0  0  0  0
  4 19  2  0  0  0  0
  5  6  1  0  0  0  0
  5  7  1  0  0  0  0
  6  8  1  0  0  0  0
  7 13  1  0  0  0  0
  8 13  1  0  0  0  0
  9 11  1  0  0  0  0
  9 15  1  0  0  0  0
 10 12  1  0  0  0  0
 10 15  1  0  0  0  0
 11 17  1  0  0  0  0
 12 17  1  0  0  0  0
 13 16  1  0  0  0  0
 14 17  1  0  0  0  0
 16 20  1  0  0  0  0
 17 21  1  0  0  0  0
M  CHG  1  17   1
M  END
> <ref_mols>
x2549_0

> <original SMILES>
CN1CCN(CC1)C(=O)C2(CCCC2)NC(=O)C=C

> <Chemgauss4>
-6.755926

> <ref_pdb>
x1386_0

$$$$
x0148
  -OEChem-05172015543D

 15 15  0     0  0  0  0  0  0999 V2000
   14.6786   -0.1410   22.3129 C   0  0  0  0  0  0  0  0  0  0  0  0
   13.8434   -0.8811   23.1497 C   0  0  0  0  0  0  0  0  0  0  0  0
   14.3246    1.1571   21.9450 C   0  0  0  0  0  0  0  0  0  0  0  0
   12.6541   -0.3231   23.6186 C   0  0  0  0  0  0  0  0  0  0  0  0
   13.1353    1.7151   22.4139 C   0  0  0  0  0  0  0  0  0  0  0  0
   12.3000    0.9750   23.2507 C   0  0  0  0  0  0  0  0  0  0  0  0
   10.1605    0.9140   24.5710 C   0  0  0  0  0  0  0  0  0  0  0  0
   13.3556    4.0994   23.0130 C   0  0  0  0  0  0  0  0  0  0  0  0
    9.0017    1.8354   24.8583 C   0  0  0  0  0  0  0  0  0  0  0  0
   12.7814    3.1077   22.0035 C   0  0  0  0  0  0  0  0  0  0  0  0
   11.1045    1.5161   23.7306 N   0  0  0  0  0  0  0  0  0  0  0  0
   14.6155    4.0996   23.1097 O   0  5  0  0  0  0  0  0  0  0  0  0
   10.2021   -0.2126   25.0548 O   0  0  0  0  0  0  0  0  0  0  0  0
   12.4995    4.7907   23.6342 O   0  0  0  0  0  0  0  0  0  0  0  0
   10.8882    2.4736   23.4332 H   0  0  0  0  0  0  0  0  0  0  0  0
  1  2  1  0  0  0  0
  1  3  2  0  0  0  0
  2  4  2  0  0  0  0
  3  5  1  0  0  0  0
  4  6  1  0  0  0  0
  5  6  2  0  0  0  0
  5 10  1  0  0  0  0
  6 11  1  0  0  0  0
  7  9  1  0  0  0  0
  7 11  1  0  0  0  0
  7 13  2  0  0  0  0
  8 10  1  0  0  0  0
  8 12  1  0  0  0  0
  8 14  2  0  0  0  0
 11 15  1  0  0  0  0
M  CHG  1  12  -1
M  END
> <ref_mols>
x0148_0

> <original SMILES>
CC(=O)NC=1C=CC=CC1CC(=O)O

> <Chemgauss4>
-6.753625

> <ref_pdb>
x0195_0

$$$$
x1273
  -OEChem-05172015543D

 15 16  0     0  0  0  0  0  0999 V2000
   11.0634   -0.6695   24.1768 C   0  0  0  0  0  0  0  0  0  0  0  0
   11.4683   -1.5692   23.2596 C   0  0  0  0  0  0  0  0  0  0  0  0
   10.4059   -1.1386   25.4266 C   0  0  0  0  0  0  0  0  0  0  0  0
   10.7496   -3.3330   24.4706 C   0  0  0  0  0  0  0  0  0  0  0  0
    9.7184   -4.4078   26.3892 C   0  0  0  0  0  0  0  0  0  0  0  0
   13.6318   -1.0451   22.1871 C   0  0  0  0  0  0  0  0  0  0  0  0
    8.6237   -4.9741   28.4887 C   0  0  0  0  0  0  0  0  0  0  0  0
   12.1350   -1.1217   21.9909 C   0  0  0  0  0  0  0  0  0  0  0  0
   11.3211   -2.9382   23.3825 N   0  0  0  0  0  0  0  0  0  0  0  0
    9.7166   -3.1191   26.5525 N   0  0  0  0  0  0  0  0  0  0  0  0
   10.2952   -2.5134   25.4763 N   0  0  0  0  0  0  0  0  0  0  0  0
    9.2299   -5.3530   27.2410 N   0  0  0  0  0  0  0  0  0  0  0  0
   10.0283   -0.3426   26.2791 O   0  0  0  0  0  0  0  0  0  0  0  0
   10.4380   -4.9863   24.8865 S   0  0  0  0  0  0  0  0  0  0  0  0
    9.3137   -6.3007   26.9574 H   0  0  0  0  0  0  0  0  0  0  0  0
  1  2  2  0  0  0  0
  1  3  1  0  0  0  0
  2  8  1  0  0  0  0
  2  9  1  0  0  0  0
  3 11  1  0  0  0  0
  3 13  2  0  0  0  0
  4  9  2  0  0  0  0
  4 11  1  0  0  0  0
  4 14  1  0  0  0  0
  5 10  2  0  0  0  0
  5 12  1  0  0  0  0
  5 14  1  0  0  0  0
  6  8  1  0  0  0  0
  7 12  1  0  0  0  0
 10 11  1  0  0  0  0
 12 15  1  0  0  0  0
M  END
> <ref_mols>
x1273_0

> <original SMILES>
CCC1=CC(=O)N2N=C(NC)SC2=N1

> <Chemgauss4>
-6.751569

> <ref_pdb>
x0387_0

$$$$
x0113
  -OEChem-05172015543D

 15 16  0     0  0  0  0  0  0999 V2000
   11.0634   -0.6695   24.1768 C   0  0  0  0  0  0  0  0  0  0  0  0
   11.4683   -1.5692   23.2596 C   0  0  0  0  0  0  0  0  0  0  0  0
   10.4059   -1.1386   25.4266 C   0  0  0  0  0  0  0  0  0  0  0  0
   10.7496   -3.3330   24.4706 C   0  0  0  0  0  0  0  0  0  0  0  0
    9.7184   -4.4078   26.3892 C   0  0  0  0  0  0  0  0  0  0  0  0
   13.6318   -1.0451   22.1871 C   0  0  0  0  0  0  0  0  0  0  0  0
    8.6237   -4.9741   28.4887 C   0  0  0  0  0  0  0  0  0  0  0  0
   12.1350   -1.1217   21.9909 C   0  0  0  0  0  0  0  0  0  0  0  0
   11.3211   -2.9382   23.3825 N   0  0  0  0  0  0  0  0  0  0  0  0
    9.7166   -3.1191   26.5525 N   0  0  0  0  0  0  0  0  0  0  0  0
   10.2952   -2.5134   25.4763 N   0  0  0  0  0  0  0  0  0  0  0  0
    9.2299   -5.3530   27.2410 N   0  0  0  0  0  0  0  0  0  0  0  0
   10.0283   -0.3426   26.2791 O   0  0  0  0  0  0  0  0  0  0  0  0
   10.4380   -4.9863   24.8865 S   0  0  0  0  0  0  0  0  0  0  0  0
    9.3137   -6.3007   26.9574 H   0  0  0  0  0  0  0  0  0  0  0  0
  1  2  2  0  0  0  0
  1  3  1  0  0  0  0
  2  8  1  0  0  0  0
  2  9  1  0  0  0  0
  3 11  1  0  0  0  0
  3 13  2  0  0  0  0
  4  9  2  0  0  0  0
  4 11  1  0  0  0  0
  4 14  1  0  0  0  0
  5 10  2  0  0  0  0
  5 12  1  0  0  0  0
  5 14  1  0  0  0  0
  6  8  1  0  0  0  0
  7 12  1  0  0  0  0
 10 11  1  0  0  0  0
 12 15  1  0  0  0  0
M  END
> <ref_mols>
x0113_0

> <original SMILES>
CCC1=CC(=O)N2N=C(NC)SC2=N1

> <Chemgauss4>
-6.751569

> <ref_pdb>
x0387_0

$$$$
x0851
  -OEChem-05172015543D

 13 13  0     1  0  0  0  0  0999 V2000
   12.8744    2.0427   22.7230 C   0  0  0  0  0  0  0  0  0  0  0  0
   11.0676    0.3345   24.7005 C   0  0  0  0  0  0  0  0  0  0  0  0
   14.2110   -0.0387   22.7177 C   0  0  0  0  0  0  0  0  0  0  0  0
   13.6845   -1.4519   22.9464 C   0  0  0  0  0  0  0  0  0  0  0  0
   13.2812    0.8553   23.5394 C   0  0  2  0  0  0  0  0  0  0  0  0
   12.1860   -1.2635   23.1622 C   0  0  2  0  0  0  0  0  0  0  0  0
   11.1896    1.6309   25.4616 C   0  0  0  0  0  0  0  0  0  0  0  0
   11.3942   -1.2943   21.8578 C   0  0  0  0  0  0  0  0  0  0  0  0
   13.7320    3.9505   21.6237 C   0  0  0  0  0  0  0  0  0  0  0  0
   12.0924    0.0448   23.8092 N   0  0  0  0  0  0  0  0  0  0  0  0
   11.7200    2.2902   22.4016 O   0  0  0  0  0  0  0  0  0  0  0  0
   10.0890   -0.3935   24.8821 O   0  0  0  0  0  0  0  0  0  0  0  0
   13.9779    2.7789   22.4079 O   0  0  0  0  0  0  0  0  0  0  0  0
  1  5  1  0  0  0  0
  1 11  2  0  0  0  0
  1 13  1  0  0  0  0
  2  7  1  0  0  0  0
  2 10  1  0  0  0  0
  2 12  2  0  0  0  0
  3  4  1  0  0  0  0
  3  5  1  0  0  0  0
  4  6  1  0  0  0  0
  5 10  1  0  0  0  0
  6  8  1  0  0  0  0
  6 10  1  0  0  0  0
  9 13  1  0  0  0  0
M  END
> <ref_mols>
x0851_0

> <original SMILES>
CC(=O)N1[C@@H](CC[C@@H]1C)C(=O)OC

> <Chemgauss4>
-6.749095

> <ref_pdb>
x0195_0

$$$$
x1160
  -OEChem-05172015543D

 14 14  0     1  0  0  0  0  0999 V2000
   10.6834    2.1715   22.6151 C   0  0  0  0  0  0  0  0  0  0  0  0
   11.1879   -1.6709   22.9202 C   0  0  0  0  0  0  0  0  0  0  0  0
    9.1653    0.5742   24.8266 C   0  0  0  0  0  0  0  0  0  0  0  0
   10.0328    1.8250   24.9737 C   0  0  0  0  0  0  0  0  0  0  0  0
   10.0128   -0.6914   24.8617 C   0  0  0  0  0  0  0  0  0  0  0  0
   11.9701    0.5181   23.9558 C   0  0  0  0  0  0  0  0  0  0  0  0
   11.2114    1.8420   24.0027 C   0  0  1  0  0  0  0  0  0  0  0  0
   12.2964   -1.5431   21.9059 C   0  0  0  0  0  0  0  0  0  0  0  0
   11.0678   -0.6375   23.8497 N   0  0  0  0  0  0  0  0  0  0  0  0
   10.6280    3.5192   22.3485 N   0  0  0  0  0  0  0  0  0  0  0  0
   10.3583    1.2971   21.8157 O   0  0  0  0  0  0  0  0  0  0  0  0
   10.4498   -2.6589   22.8839 O   0  0  0  0  0  0  0  0  0  0  0  0
   10.9302    4.1703   23.0656 H   0  0  0  0  0  0  0  0  0  0  0  0
   10.2968    3.8888   21.4633 H   0  0  0  0  0  0  0  0  0  0  0  0
  1  7  1  0  0  0  0
  1 10  1  0  0  0  0
  1 11  2  0  0  0  0
  2  8  1  0  0  0  0
  2  9  1  0  0  0  0
  2 12  2  0  0  0  0
  3  4  1  0  0  0  0
  3  5  1  0  0  0  0
  4  7  1  0  0  0  0
  5  9  1  0  0  0  0
  6  7  1  0  0  0  0
  6  9  1  0  0  0  0
 10 13  1  0  0  0  0
 10 14  1  0  0  0  0
M  END
> <ref_mols>
x1160_0

> <original SMILES>
CC(=O)N1CCCC(C1)C(=O)N

> <Chemgauss4>
-6.745524

> <ref_pdb>
x0874_0

$$$$
x0057
  -OEChem-05172015543D

 14 14  0     1  0  0  0  0  0999 V2000
   10.6834    2.1715   22.6151 C   0  0  0  0  0  0  0  0  0  0  0  0
   11.1879   -1.6709   22.9202 C   0  0  0  0  0  0  0  0  0  0  0  0
    9.1653    0.5742   24.8266 C   0  0  0  0  0  0  0  0  0  0  0  0
   10.0328    1.8250   24.9737 C   0  0  0  0  0  0  0  0  0  0  0  0
   10.0128   -0.6914   24.8617 C   0  0  0  0  0  0  0  0  0  0  0  0
   11.9701    0.5181   23.9558 C   0  0  0  0  0  0  0  0  0  0  0  0
   11.2114    1.8420   24.0027 C   0  0  1  0  0  0  0  0  0  0  0  0
   12.2964   -1.5431   21.9059 C   0  0  0  0  0  0  0  0  0  0  0  0
   11.0678   -0.6375   23.8497 N   0  0  0  0  0  0  0  0  0  0  0  0
   10.6280    3.5192   22.3485 N   0  0  0  0  0  0  0  0  0  0  0  0
   10.3583    1.2971   21.8157 O   0  0  0  0  0  0  0  0  0  0  0  0
   10.4498   -2.6589   22.8839 O   0  0  0  0  0  0  0  0  0  0  0  0
   10.9302    4.1703   23.0656 H   0  0  0  0  0  0  0  0  0  0  0  0
   10.2968    3.8888   21.4633 H   0  0  0  0  0  0  0  0  0  0  0  0
  1  7  1  0  0  0  0
  1 10  1  0  0  0  0
  1 11  2  0  0  0  0
  2  8  1  0  0  0  0
  2  9  1  0  0  0  0
  2 12  2  0  0  0  0
  3  4  1  0  0  0  0
  3  5  1  0  0  0  0
  4  7  1  0  0  0  0
  5  9  1  0  0  0  0
  6  7  1  0  0  0  0
  6  9  1  0  0  0  0
 10 13  1  0  0  0  0
 10 14  1  0  0  0  0
M  END
> <ref_mols>
x0057_0

> <original SMILES>
CC(=O)N1CCCC(C1)C(=O)N

> <Chemgauss4>
-6.745524

> <ref_pdb>
x0874_0

$$$$
x0610
  -OEChem-05172015543D

 16 16  0     0  0  0  0  0  0999 V2000
    6.5419   -2.5288   20.1059 C   0  0  0  0  0  0  0  0  0  0  0  0
   12.1735   -0.5507   22.6193 C   0  0  0  0  0  0  0  0  0  0  0  0
   10.5576   -0.2654   24.3925 C   0  0  0  0  0  0  0  0  0  0  0  0
   12.8018    0.6347   23.0011 C   0  0  0  0  0  0  0  0  0  0  0  0
   11.1859    0.9200   24.7744 C   0  0  0  0  0  0  0  0  0  0  0  0
   11.0513   -1.0007   23.3150 C   0  0  0  0  0  0  0  0  0  0  0  0
   12.3081    1.3700   24.0786 C   0  0  0  0  0  0  0  0  0  0  0  0
    8.2523   -1.7401   21.7176 C   0  0  0  0  0  0  0  0  0  0  0  0
   12.3650    3.2279   25.5621 C   0  0  0  0  0  0  0  0  0  0  0  0
    7.6894   -1.6393   20.3140 C   0  0  0  0  0  0  0  0  0  0  0  0
   10.3752   -2.2768   22.9045 C   0  0  0  0  0  0  0  0  0  0  0  0
    5.6337   -3.2310   19.9371 N   0  0  0  0  0  0  0  0  0  0  0  0
    9.5899   -2.1105   21.7030 N   0  0  0  0  0  0  0  0  0  0  0  0
    7.5927   -1.5149   22.7291 O   0  0  0  0  0  0  0  0  0  0  0  0
   12.9221    2.5259   24.4519 O   0  0  0  0  0  0  0  0  0  0  0  0
   10.0377   -2.2723   20.8057 H   0  0  0  0  0  0  0  0  0  0  0  0
  1 10  1  0  0  0  0
  1 12  3  0  0  0  0
  2  4  2  0  0  0  0
  2  6  1  0  0  0  0
  3  5  1  0  0  0  0
  3  6  2  0  0  0  0
  4  7  1  0  0  0  0
  5  7  2  0  0  0  0
  6 11  1  0  0  0  0
  7 15  1  0  0  0  0
  8 10  1  0  0  0  0
  8 13  1  0  0  0  0
  8 14  2  0  0  0  0
  9 15  1  0  0  0  0
 11 13  1  0  0  0  0
 13 16  1  0  0  0  0
M  END
> <ref_mols>
x0610_0

> <original SMILES>
COC=1C=CC(CNC(=O)CC#N)=CC1

> <Chemgauss4>
-6.745208

> <ref_pdb>
x0830_0

$$$$
x1266
  -OEChem-05172015543D

 16 16  0     0  0  0  0  0  0999 V2000
    6.5419   -2.5288   20.1059 C   0  0  0  0  0  0  0  0  0  0  0  0
   12.1735   -0.5507   22.6193 C   0  0  0  0  0  0  0  0  0  0  0  0
   10.5576   -0.2654   24.3925 C   0  0  0  0  0  0  0  0  0  0  0  0
   12.8018    0.6347   23.0011 C   0  0  0  0  0  0  0  0  0  0  0  0
   11.1859    0.9200   24.7744 C   0  0  0  0  0  0  0  0  0  0  0  0
   11.0513   -1.0007   23.3150 C   0  0  0  0  0  0  0  0  0  0  0  0
   12.3081    1.3700   24.0786 C   0  0  0  0  0  0  0  0  0  0  0  0
    8.2523   -1.7401   21.7176 C   0  0  0  0  0  0  0  0  0  0  0  0
   12.3650    3.2279   25.5621 C   0  0  0  0  0  0  0  0  0  0  0  0
    7.6894   -1.6393   20.3140 C   0  0  0  0  0  0  0  0  0  0  0  0
   10.3752   -2.2768   22.9045 C   0  0  0  0  0  0  0  0  0  0  0  0
    5.6337   -3.2310   19.9371 N   0  0  0  0  0  0  0  0  0  0  0  0
    9.5899   -2.1105   21.7030 N   0  0  0  0  0  0  0  0  0  0  0  0
    7.5927   -1.5149   22.7291 O   0  0  0  0  0  0  0  0  0  0  0  0
   12.9221    2.5259   24.4519 O   0  0  0  0  0  0  0  0  0  0  0  0
   10.0377   -2.2723   20.8057 H   0  0  0  0  0  0  0  0  0  0  0  0
  1 10  1  0  0  0  0
  1 12  3  0  0  0  0
  2  4  2  0  0  0  0
  2  6  1  0  0  0  0
  3  5  1  0  0  0  0
  3  6  2  0  0  0  0
  4  7  1  0  0  0  0
  5  7  2  0  0  0  0
  6 11  1  0  0  0  0
  7 15  1  0  0  0  0
  8 10  1  0  0  0  0
  8 13  1  0  0  0  0
  8 14  2  0  0  0  0
  9 15  1  0  0  0  0
 11 13  1  0  0  0  0
 13 16  1  0  0  0  0
M  END
> <ref_mols>
x1266_0

> <original SMILES>
COC=1C=CC(CNC(=O)CC#N)=CC1

> <Chemgauss4>
-6.745208

> <ref_pdb>
x0830_0

$$$$
x0863
  -OEChem-05172015543D

 14 14  0     1  0  0  0  0  0999 V2000
   13.1618    2.4420   22.7653 C   0  0  0  0  0  0  0  0  0  0  0  0
   10.2371   -1.4680   23.6830 C   0  0  0  0  0  0  0  0  0  0  0  0
   13.7966   -1.3360   22.8478 C   0  0  0  0  0  0  0  0  0  0  0  0
   14.0167    0.1258   22.4770 C   0  0  0  0  0  0  0  0  0  0  0  0
   12.3834   -1.7981   22.5123 C   0  0  0  0  0  0  0  0  0  0  0  0
   12.9429    1.0013   23.1190 C   0  0  2  0  0  0  0  0  0  0  0  0
   11.5140    0.5424   22.7659 C   0  0  1  0  0  0  0  0  0  0  0  0
    9.7831   -2.8142   23.1757 C   0  0  0  0  0  0  0  0  0  0  0  0
   11.0994    0.8264   21.3155 C   0  0  0  0  0  0  0  0  0  0  0  0
   12.3307    4.6197   23.1537 C   0  0  0  0  0  0  0  0  0  0  0  0
   11.3558   -0.9038   23.0606 N   0  0  0  0  0  0  0  0  0  0  0  0
   14.0445    2.8371   22.0158 O   0  0  0  0  0  0  0  0  0  0  0  0
    9.6103   -0.9304   24.6000 O   0  0  0  0  0  0  0  0  0  0  0  0
   12.2364    3.2137   23.4035 O   0  0  0  0  0  0  0  0  0  0  0  0
  1  6  1  0  0  0  0
  1 12  2  0  0  0  0
  1 14  1  0  0  0  0
  2  8  1  0  0  0  0
  2 11  1  0  0  0  0
  2 13  2  0  0  0  0
  3  4  1  0  0  0  0
  3  5  1  0  0  0  0
  4  6  1  0  0  0  0
  5 11  1  0  0  0  0
  6  7  1  0  0  0  0
  7  9  1  0  0  0  0
  7 11  1  0  0  0  0
 10 14  1  0  0  0  0
M  END
> <ref_mols>
x0863_0

> <original SMILES>
C[C@H]1N(C(C)=O)CCC[C@H]1C(OC)=O

> <Chemgauss4>
-6.742630

> <ref_pdb>
x0195_0

$$$$
x0475
  -OEChem-05172015543D

 16 16  0     1  0  0  0  0  0999 V2000
    6.1000    0.8139   18.2287 C   0  0  0  0  0  0  0  0  0  0  0  0
    6.3823   -0.4760   18.9522 C   0  0  0  0  0  0  0  0  0  0  0  0
    5.1642    1.7619   20.3506 C   0  0  0  0  0  0  0  0  0  0  0  0
    5.1480    0.3523   20.9022 C   0  0  0  0  0  0  0  0  0  0  0  0
   10.3248   -1.7611   22.8820 C   0  0  0  0  0  0  0  0  0  0  0  0
    8.4444   -2.1645   24.5091 C   0  0  0  0  0  0  0  0  0  0  0  0
    8.0459   -2.7325   21.5606 C   0  0  0  0  0  0  0  0  0  0  0  0
    8.9512   -1.3097   23.3567 C   0  0  0  0  0  0  0  0  0  0  0  0
    5.4165    1.7878   18.9230 N   0  0  0  0  0  0  0  0  0  0  0  0
    6.3574   -0.3589   20.4236 N   0  0  2  0  0  0  0  0  0  0  0  0
    7.9902   -1.4061   22.2275 N   0  0  1  0  0  0  0  0  0  0  0  0
    6.4083    0.9457   17.0425 O   0  0  0  0  0  0  0  0  0  0  0  0
    7.6471    1.1555   22.0368 O   0  0  0  0  0  0  0  0  0  0  0  0
    8.8910   -0.0469   20.2134 O   0  0  0  0  0  0  0  0  0  0  0  0
    7.8351   -0.0197   21.2075 S   0  0  0  0  0  0  0  0  0  0  0  0
    5.0629    2.5836   18.3957 H   0  0  0  0  0  0  0  0  0  0  0  0
  1  2  1  0  0  0  0
  1  9  1  0  0  0  0
  1 12  2  0  0  0  0
  2 10  1  0  0  0  0
  3  4  1  0  0  0  0
  3  9  1  0  0  0  0
  4 10  1  0  0  0  0
  5  8  1  0  0  0  0
  6  8  1  0  0  0  0
  7 11  1  0  0  0  0
  8 11  1  0  0  0  0
 10 15  1  0  0  0  0
 11 15  1  0  0  0  0
 13 15  2  0  0  0  0
 14 15  2  0  0  0  0
  9 16  1  0  0  0  0
M  END
> <ref_mols>
x0475_0

> <original SMILES>
CC(C)N(C)S(=O)(=O)N1CCNC(=O)C1

> <Chemgauss4>
-6.742417

> <ref_pdb>
x0107_0

$$$$
x0993
  -OEChem-05172015543D

  8  8  0     0  0  0  0  0  0999 V2000
    4.9220    1.2660   19.0800 C   0  0  0  0  0  0  0  0  0  0  0  0
    5.6216    0.9536   20.1707 C   0  0  0  0  0  0  0  0  0  0  0  0
    5.6036    0.9494   17.8135 C   0  0  0  0  0  0  0  0  0  0  0  0
    7.4731    0.1041   18.8570 C   0  0  0  0  0  0  0  0  0  0  0  0
    6.7767    0.4150   17.6997 N   0  0  0  0  0  0  0  0  0  0  0  0
    6.8638    0.3880   20.0783 N   0  0  0  0  0  0  0  0  0  0  0  0
    8.5937   -0.4063   18.8251 O   0  0  0  0  0  0  0  0  0  0  0  0
    7.3626    0.1658   20.9346 H   0  0  0  0  0  0  0  0  0  0  0  0
  1  2  2  0  0  0  0
  1  3  1  0  0  0  0
  2  6  1  0  0  0  0
  3  5  2  0  0  0  0
  4  5  1  0  0  0  0
  4  6  1  0  0  0  0
  4  7  2  0  0  0  0
  6  8  1  0  0  0  0
M  END
> <ref_mols>
x0993_0

> <original SMILES>
Cl.O=C1N=CC=CN1

> <Chemgauss4>
-6.738823

> <ref_pdb>
x0540_0

$$$$
x1225
  -OEChem-05172015543D

 12 12  0     0  0  0  0  0  0999 V2000
   11.2153    2.1980   24.1092 C   0  0  0  0  0  0  0  0  0  0  0  0
   11.6806    3.3466   23.5040 C   0  0  0  0  0  0  0  0  0  0  0  0
   12.9058    1.3315   23.0132 C   0  0  0  0  0  0  0  0  0  0  0  0
   13.4400   -1.1023   22.7338 C   0  0  0  0  0  0  0  0  0  0  0  0
    9.4185    6.3647   22.8192 C   0  0  0  0  0  0  0  0  0  0  0  0
   11.1656    4.7533   23.5871 C   0  0  0  0  0  0  0  0  0  0  0  0
   13.8767    0.3450   22.4909 C   0  0  0  0  0  0  0  0  0  0  0  0
   11.9163    1.0414   23.8286 N   0  0  0  0  0  0  0  0  0  0  0  0
    9.9209    4.9653   22.8017 N   0  3  0  0  0  0  0  0  0  0  0  0
   13.0524    2.9756   22.5439 S   0  0  0  0  0  0  0  0  0  0  0  0
    9.1864    4.3390   23.1587 H   0  0  0  0  0  0  0  0  0  0  0  0
   10.0843    4.6781   21.8269 H   0  0  0  0  0  0  0  0  0  0  0  0
  1  2  2  0  0  0  0
  1  8  1  0  0  0  0
  2  6  1  0  0  0  0
  2 10  1  0  0  0  0
  3  7  1  0  0  0  0
  3  8  2  0  0  0  0
  3 10  1  0  0  0  0
  4  7  1  0  0  0  0
  5  9  1  0  0  0  0
  6  9  1  0  0  0  0
  9 11  1  0  0  0  0
  9 12  1  0  0  0  0
M  CHG  1   9   1
M  END
> <ref_mols>
x1225_0

> <original SMILES>
CCC1=NC=C(CNC)S1

> <Chemgauss4>
-6.731341

> <ref_pdb>
x0161_0

$$$$
x0804
  -OEChem-05172015543D

 16 17  0     1  0  0  0  0  0999 V2000
    6.9090   -2.8415   21.0039 C   0  0  0  0  0  0  0  0  0  0  0  0
    6.6187   -4.2031   21.0145 C   0  0  0  0  0  0  0  0  0  0  0  0
    7.8766   -2.3261   21.8681 C   0  0  0  0  0  0  0  0  0  0  0  0
    7.2848   -5.0487   21.8991 C   0  0  0  0  0  0  0  0  0  0  0  0
    8.5742   -3.1682   22.7489 C   0  0  0  0  0  0  0  0  0  0  0  0
    8.2435   -4.5321   22.7759 C   0  0  0  0  0  0  0  0  0  0  0  0
   11.1883   -0.6899   23.6634 C   0  0  0  0  0  0  0  0  0  0  0  0
   10.4395   -3.7418   24.3093 C   0  0  0  0  0  0  0  0  0  0  0  0
    9.5057   -4.8595   24.7394 C   0  0  0  0  0  0  0  0  0  0  0  0
    9.6212   -2.6122   23.6848 C   0  0  1  0  0  0  0  0  0  0  0  0
   12.0937    0.1056   22.7580 C   0  0  0  0  0  0  0  0  0  0  0  0
   10.5271   -1.7111   23.0039 N   0  0  0  0  0  0  0  0  0  0  0  0
   11.0865   -0.4382   24.8628 O   0  0  0  0  0  0  0  0  0  0  0  0
    8.8335   -5.4405   23.6186 O   0  0  0  0  0  0  0  0  0  0  0  0
   13.2981   -1.0024   22.0823 Cl  0  0  0  0  0  0  0  0  0  0  0  0
   10.6826   -1.8326   22.0085 H   0  0  0  0  0  0  0  0  0  0  0  0
  1  2  1  0  0  0  0
  1  3  2  0  0  0  0
  2  4  2  0  0  0  0
  3  5  1  0  0  0  0
  4  6  1  0  0  0  0
  5  6  2  0  0  0  0
  5 10  1  0  0  0  0
  6 14  1  0  0  0  0
  7 11  1  0  0  0  0
  7 12  1  0  0  0  0
  7 13  2  0  0  0  0
  8  9  1  0  0  0  0
  8 10  1  0  0  0  0
  9 14  1  0  0  0  0
 10 12  1  0  0  0  0
 11 15  1  0  0  0  0
 12 16  1  0  0  0  0
M  END
> <ref_mols>
x0804_0

> <original SMILES>
ClCC(=O)NC1CCOc2ccccc12

> <Chemgauss4>
-6.730571

> <ref_pdb>
x1418_0

> <CYS145-warhead dist minimum (A)>
6.425154

> <CYS145-warhead dist mean (A)>
9.296553

> <CYS145-warhead dist stddev (A)>
0.91298795

$$$$
x1315
  -OEChem-05172015543D

 16 17  0     1  0  0  0  0  0999 V2000
    6.9090   -2.8415   21.0039 C   0  0  0  0  0  0  0  0  0  0  0  0
    6.6187   -4.2031   21.0145 C   0  0  0  0  0  0  0  0  0  0  0  0
    7.8766   -2.3261   21.8681 C   0  0  0  0  0  0  0  0  0  0  0  0
    7.2848   -5.0487   21.8991 C   0  0  0  0  0  0  0  0  0  0  0  0
    8.5742   -3.1682   22.7489 C   0  0  0  0  0  0  0  0  0  0  0  0
    8.2435   -4.5321   22.7759 C   0  0  0  0  0  0  0  0  0  0  0  0
   11.1883   -0.6899   23.6634 C   0  0  0  0  0  0  0  0  0  0  0  0
   10.4395   -3.7418   24.3093 C   0  0  0  0  0  0  0  0  0  0  0  0
    9.5057   -4.8595   24.7394 C   0  0  0  0  0  0  0  0  0  0  0  0
    9.6212   -2.6122   23.6848 C   0  0  1  0  0  0  0  0  0  0  0  0
   12.0937    0.1056   22.7580 C   0  0  0  0  0  0  0  0  0  0  0  0
   10.5271   -1.7111   23.0039 N   0  0  0  0  0  0  0  0  0  0  0  0
   11.0865   -0.4382   24.8628 O   0  0  0  0  0  0  0  0  0  0  0  0
    8.8335   -5.4405   23.6186 O   0  0  0  0  0  0  0  0  0  0  0  0
   13.2981   -1.0024   22.0823 Cl  0  0  0  0  0  0  0  0  0  0  0  0
   10.6826   -1.8326   22.0085 H   0  0  0  0  0  0  0  0  0  0  0  0
  1  2  1  0  0  0  0
  1  3  2  0  0  0  0
  2  4  2  0  0  0  0
  3  5  1  0  0  0  0
  4  6  1  0  0  0  0
  5  6  2  0  0  0  0
  5 10  1  0  0  0  0
  6 14  1  0  0  0  0
  7 11  1  0  0  0  0
  7 12  1  0  0  0  0
  7 13  2  0  0  0  0
  8  9  1  0  0  0  0
  8 10  1  0  0  0  0
  9 14  1  0  0  0  0
 10 12  1  0  0  0  0
 11 15  1  0  0  0  0
 12 16  1  0  0  0  0
M  END
> <ref_mols>
x1315_0

> <original SMILES>
ClCC(=O)NC1CCOc2ccccc12

> <Chemgauss4>
-6.730571

> <ref_pdb>
x1418_0

$$$$
x1400
  -OEChem-05172015543D

 16 17  0     1  0  0  0  0  0999 V2000
    6.9090   -2.8415   21.0039 C   0  0  0  0  0  0  0  0  0  0  0  0
    6.6187   -4.2031   21.0145 C   0  0  0  0  0  0  0  0  0  0  0  0
    7.8766   -2.3261   21.8681 C   0  0  0  0  0  0  0  0  0  0  0  0
    7.2848   -5.0487   21.8991 C   0  0  0  0  0  0  0  0  0  0  0  0
    8.5742   -3.1682   22.7489 C   0  0  0  0  0  0  0  0  0  0  0  0
    8.2435   -4.5321   22.7759 C   0  0  0  0  0  0  0  0  0  0  0  0
   11.1883   -0.6899   23.6634 C   0  0  0  0  0  0  0  0  0  0  0  0
   10.4395   -3.7418   24.3093 C   0  0  0  0  0  0  0  0  0  0  0  0
    9.5057   -4.8595   24.7394 C   0  0  0  0  0  0  0  0  0  0  0  0
    9.6212   -2.6122   23.6848 C   0  0  1  0  0  0  0  0  0  0  0  0
   12.0937    0.1056   22.7580 C   0  0  0  0  0  0  0  0  0  0  0  0
   10.5271   -1.7111   23.0039 N   0  0  0  0  0  0  0  0  0  0  0  0
   11.0865   -0.4382   24.8628 O   0  0  0  0  0  0  0  0  0  0  0  0
    8.8335   -5.4405   23.6186 O   0  0  0  0  0  0  0  0  0  0  0  0
   13.2981   -1.0024   22.0823 Cl  0  0  0  0  0  0  0  0  0  0  0  0
   10.6826   -1.8326   22.0085 H   0  0  0  0  0  0  0  0  0  0  0  0
  1  2  1  0  0  0  0
  1  3  2  0  0  0  0
  2  4  2  0  0  0  0
  3  5  1  0  0  0  0
  4  6  1  0  0  0  0
  5  6  2  0  0  0  0
  5 10  1  0  0  0  0
  6 14  1  0  0  0  0
  7 11  1  0  0  0  0
  7 12  1  0  0  0  0
  7 13  2  0  0  0  0
  8  9  1  0  0  0  0
  8 10  1  0  0  0  0
  9 14  1  0  0  0  0
 10 12  1  0  0  0  0
 11 15  1  0  0  0  0
 12 16  1  0  0  0  0
M  END
> <ref_mols>
x1400_0

> <original SMILES>
ClCC(=O)NC1CCOc2ccccc12

> <Chemgauss4>
-6.730571

> <ref_pdb>
x1418_0

$$$$
x1479
  -OEChem-05172015543D

 16 17  0     1  0  0  0  0  0999 V2000
    6.9090   -2.8415   21.0039 C   0  0  0  0  0  0  0  0  0  0  0  0
    6.6187   -4.2031   21.0145 C   0  0  0  0  0  0  0  0  0  0  0  0
    7.8766   -2.3261   21.8681 C   0  0  0  0  0  0  0  0  0  0  0  0
    7.2848   -5.0487   21.8991 C   0  0  0  0  0  0  0  0  0  0  0  0
    8.5742   -3.1682   22.7489 C   0  0  0  0  0  0  0  0  0  0  0  0
    8.2435   -4.5321   22.7759 C   0  0  0  0  0  0  0  0  0  0  0  0
   11.1883   -0.6899   23.6634 C   0  0  0  0  0  0  0  0  0  0  0  0
   10.4395   -3.7418   24.3093 C   0  0  0  0  0  0  0  0  0  0  0  0
    9.5057   -4.8595   24.7394 C   0  0  0  0  0  0  0  0  0  0  0  0
    9.6212   -2.6122   23.6848 C   0  0  1  0  0  0  0  0  0  0  0  0
   12.0937    0.1056   22.7580 C   0  0  0  0  0  0  0  0  0  0  0  0
   10.5271   -1.7111   23.0039 N   0  0  0  0  0  0  0  0  0  0  0  0
   11.0865   -0.4382   24.8628 O   0  0  0  0  0  0  0  0  0  0  0  0
    8.8335   -5.4405   23.6186 O   0  0  0  0  0  0  0  0  0  0  0  0
   13.2981   -1.0024   22.0823 Cl  0  0  0  0  0  0  0  0  0  0  0  0
   10.6826   -1.8326   22.0085 H   0  0  0  0  0  0  0  0  0  0  0  0
  1  2  1  0  0  0  0
  1  3  2  0  0  0  0
  2  4  2  0  0  0  0
  3  5  1  0  0  0  0
  4  6  1  0  0  0  0
  5  6  2  0  0  0  0
  5 10  1  0  0  0  0
  6 14  1  0  0  0  0
  7 11  1  0  0  0  0
  7 12  1  0  0  0  0
  7 13  2  0  0  0  0
  8  9  1  0  0  0  0
  8 10  1  0  0  0  0
  9 14  1  0  0  0  0
 10 12  1  0  0  0  0
 11 15  1  0  0  0  0
 12 16  1  0  0  0  0
M  END
> <ref_mols>
x1479_0

> <original SMILES>
ClCC(=O)NC1CCOc2ccccc12

> <Chemgauss4>
-6.730571

> <ref_pdb>
x1418_0

> <CYS145-warhead dist minimum (A)>
6.208067

> <CYS145-warhead dist mean (A)>
6.744435

> <CYS145-warhead dist stddev (A)>
0.31753013

$$$$
x0730
  -OEChem-05172015543D

 16 17  0     1  0  0  0  0  0999 V2000
    6.9090   -2.8415   21.0039 C   0  0  0  0  0  0  0  0  0  0  0  0
    6.6187   -4.2031   21.0145 C   0  0  0  0  0  0  0  0  0  0  0  0
    7.8766   -2.3261   21.8681 C   0  0  0  0  0  0  0  0  0  0  0  0
    7.2848   -5.0487   21.8991 C   0  0  0  0  0  0  0  0  0  0  0  0
    8.5742   -3.1682   22.7489 C   0  0  0  0  0  0  0  0  0  0  0  0
    8.2435   -4.5321   22.7759 C   0  0  0  0  0  0  0  0  0  0  0  0
   11.1883   -0.6899   23.6634 C   0  0  0  0  0  0  0  0  0  0  0  0
   10.4395   -3.7418   24.3093 C   0  0  0  0  0  0  0  0  0  0  0  0
    9.5057   -4.8595   24.7394 C   0  0  0  0  0  0  0  0  0  0  0  0
    9.6212   -2.6122   23.6848 C   0  0  1  0  0  0  0  0  0  0  0  0
   12.0937    0.1056   22.7580 C   0  0  0  0  0  0  0  0  0  0  0  0
   10.5271   -1.7111   23.0039 N   0  0  0  0  0  0  0  0  0  0  0  0
   11.0865   -0.4382   24.8628 O   0  0  0  0  0  0  0  0  0  0  0  0
    8.8335   -5.4405   23.6186 O   0  0  0  0  0  0  0  0  0  0  0  0
   13.2981   -1.0024   22.0823 Cl  0  0  0  0  0  0  0  0  0  0  0  0
   10.6826   -1.8326   22.0085 H   0  0  0  0  0  0  0  0  0  0  0  0
  1  2  1  0  0  0  0
  1  3  2  0  0  0  0
  2  4  2  0  0  0  0
  3  5  1  0  0  0  0
  4  6  1  0  0  0  0
  5  6  2  0  0  0  0
  5 10  1  0  0  0  0
  6 14  1  0  0  0  0
  7 11  1  0  0  0  0
  7 12  1  0  0  0  0
  7 13  2  0  0  0  0
  8  9  1  0  0  0  0
  8 10  1  0  0  0  0
  9 14  1  0  0  0  0
 10 12  1  0  0  0  0
 11 15  1  0  0  0  0
 12 16  1  0  0  0  0
M  END
> <ref_mols>
x0730_0

> <original SMILES>
ClCC(=O)NC1CCOc2ccccc12

> <Chemgauss4>
-6.730571

> <ref_pdb>
x1418_0

> <CYS145-warhead dist minimum (A)>
6.7162952

> <CYS145-warhead dist mean (A)>
7.956009

> <CYS145-warhead dist stddev (A)>
0.4628115

$$$$
x0576
  -OEChem-05172015543D

 14 15  0     1  0  0  0  0  0999 V2000
   10.0685   -4.3036   24.2201 C   0  0  0  0  0  0  0  0  0  0  0  0
    9.0940   -4.8905   24.9275 C   0  0  0  0  0  0  0  0  0  0  0  0
    9.7904   -3.5331   22.9660 C   0  0  0  0  0  0  0  0  0  0  0  0
    7.6513   -4.8636   24.5250 C   0  0  0  0  0  0  0  0  0  0  0  0
    4.0257   -6.4014   22.7501 C   0  0  0  0  0  0  0  0  0  0  0  0
    4.8299   -6.4320   24.0262 C   0  0  0  0  0  0  0  0  0  0  0  0
    8.3078   -3.2010   22.8008 C   0  0  0  0  0  0  0  0  0  0  0  0
    5.4963   -6.1182   22.7219 C   0  0  0  0  0  0  0  0  0  0  0  0
    6.4701   -7.0347   22.0865 C   0  0  0  0  0  0  0  0  0  0  0  0
    7.4962   -4.4140   23.1068 N   0  0  2  0  0  0  0  0  0  0  0  0
    5.9168   -4.1147   21.0984 O   0  0  0  0  0  0  0  0  0  0  0  0
    5.0641   -3.6402   23.4293 O   0  0  0  0  0  0  0  0  0  0  0  0
    9.4326   -5.5621   26.0514 F   0  0  0  0  0  0  0  0  0  0  0  0
    5.8884   -4.4003   22.5159 S   0  0  0  0  0  0  0  0  0  0  0  0
  1  2  2  0  0  0  0
  1  3  1  0  0  0  0
  2  4  1  0  0  0  0
  2 13  1  0  0  0  0
  3  7  1  0  0  0  0
  4 10  1  0  0  0  0
  5  6  1  0  0  0  0
  5  8  1  0  0  0  0
  6  8  1  0  0  0  0
  7 10  1  0  0  0  0
  8  9  1  0  0  0  0
  8 14  1  0  0  0  0
 10 14  1  0  0  0  0
 11 14  2  0  0  0  0
 12 14  2  0  0  0  0
M  END
> <ref_mols>
x0576_0

> <original SMILES>
CC1(CC1)S(=O)(=O)N2CCC=C(F)C2

> <Chemgauss4>
-6.713488

> <ref_pdb>
x1311_0

$$$$
x1259
  -OEChem-05172015543D

 14 15  0     1  0  0  0  0  0999 V2000
   10.0685   -4.3036   24.2201 C   0  0  0  0  0  0  0  0  0  0  0  0
    9.0940   -4.8905   24.9275 C   0  0  0  0  0  0  0  0  0  0  0  0
    9.7904   -3.5331   22.9660 C   0  0  0  0  0  0  0  0  0  0  0  0
    7.6513   -4.8636   24.5250 C   0  0  0  0  0  0  0  0  0  0  0  0
    4.0257   -6.4014   22.7501 C   0  0  0  0  0  0  0  0  0  0  0  0
    4.8299   -6.4320   24.0262 C   0  0  0  0  0  0  0  0  0  0  0  0
    8.3078   -3.2010   22.8008 C   0  0  0  0  0  0  0  0  0  0  0  0
    5.4963   -6.1182   22.7219 C   0  0  0  0  0  0  0  0  0  0  0  0
    6.4701   -7.0347   22.0865 C   0  0  0  0  0  0  0  0  0  0  0  0
    7.4962   -4.4140   23.1068 N   0  0  2  0  0  0  0  0  0  0  0  0
    5.9168   -4.1147   21.0984 O   0  0  0  0  0  0  0  0  0  0  0  0
    5.0641   -3.6402   23.4293 O   0  0  0  0  0  0  0  0  0  0  0  0
    9.4326   -5.5621   26.0514 F   0  0  0  0  0  0  0  0  0  0  0  0
    5.8884   -4.4003   22.5159 S   0  0  0  0  0  0  0  0  0  0  0  0
  1  2  2  0  0  0  0
  1  3  1  0  0  0  0
  2  4  1  0  0  0  0
  2 13  1  0  0  0  0
  3  7  1  0  0  0  0
  4 10  1  0  0  0  0
  5  6  1  0  0  0  0
  5  8  1  0  0  0  0
  6  8  1  0  0  0  0
  7 10  1  0  0  0  0
  8  9  1  0  0  0  0
  8 14  1  0  0  0  0
 10 14  1  0  0  0  0
 11 14  2  0  0  0  0
 12 14  2  0  0  0  0
M  END
> <ref_mols>
x1259_0

> <original SMILES>
CC1(CC1)S(=O)(=O)N2CCC=C(F)C2

> <Chemgauss4>
-6.713488

> <ref_pdb>
x1311_0

$$$$
x0315
  -OEChem-05172015543D

 12 12  0     0  0  0  0  0  0999 V2000
    8.1587   -4.1892   25.3097 C   0  0  0  0  0  0  0  0  0  0  0  0
    7.8246   -5.3413   26.0466 C   0  0  0  0  0  0  0  0  0  0  0  0
    9.2937   -4.5399   24.6202 C   0  0  0  0  0  0  0  0  0  0  0  0
    9.9342   -2.5095   23.2819 C   0  0  0  0  0  0  0  0  0  0  0  0
    6.6872   -5.5206   26.9645 C   0  0  0  0  0  0  0  0  0  0  0  0
   11.0175   -2.1107   22.3113 C   0  0  0  0  0  0  0  0  0  0  0  0
    8.6781   -6.3485   25.8440 N   0  0  0  0  0  0  0  0  0  0  0  0
    9.5597   -5.8305   24.9720 N   0  0  0  0  0  0  0  0  0  0  0  0
   10.0775   -3.8437   23.7443 N   0  0  0  0  0  0  0  0  0  0  0  0
    9.0532   -1.7173   23.5999 O   0  0  0  0  0  0  0  0  0  0  0  0
   10.3229   -6.4158   24.6562 H   0  0  0  0  0  0  0  0  0  0  0  0
   10.9039   -4.3296   23.3415 H   0  0  0  0  0  0  0  0  0  0  0  0
  1  2  1  0  0  0  0
  1  3  2  0  0  0  0
  2  5  1  0  0  0  0
  2  7  2  0  0  0  0
  3  8  1  0  0  0  0
  3  9  1  0  0  0  0
  4  6  1  0  0  0  0
  4  9  1  0  0  0  0
  4 10  2  0  0  0  0
  7  8  1  0  0  0  0
  8 11  1  0  0  0  0
  9 12  1  0  0  0  0
M  END
> <ref_mols>
x0315_0

> <original SMILES>
CC(=O)NC1=CC(C)=NN1

> <Chemgauss4>
-6.711664

> <ref_pdb>
x1077_0

$$$$
x0293
  -OEChem-05172015543D

 14 14  0     1  0  0  0  0  0999 V2000
   11.0481    1.8869   24.4119 C   0  0  0  0  0  0  0  0  0  0  0  0
   11.7882    3.0382   23.7602 C   0  0  0  0  0  0  0  0  0  0  0  0
   11.2817    0.7359   23.4442 C   0  0  0  0  0  0  0  0  0  0  0  0
   13.0684    2.3659   23.2679 C   0  0  2  0  0  0  0  0  0  0  0  0
   12.8515   -1.4665   21.8956 C   0  0  0  0  0  0  0  0  0  0  0  0
   13.7127    3.1190   22.1184 C   0  0  0  0  0  0  0  0  0  0  0  0
   12.6135    1.0101   22.8236 N   0  0  1  0  0  0  0  0  0  0  0  0
   14.4408    4.2901   22.6557 N   0  3  0  0  0  0  0  0  0  0  0  0
   13.9071   -0.7539   24.1771 O   0  0  0  0  0  0  0  0  0  0  0  0
   14.9041    0.1443   22.0359 O   0  0  0  0  0  0  0  0  0  0  0  0
   13.7551   -0.2529   22.8253 S   0  0  0  0  0  0  0  0  0  0  0  0
   14.3483    5.1015   22.0331 H   0  0  0  0  0  0  0  0  0  0  0  0
   15.4423    4.0874   22.7592 H   0  0  0  0  0  0  0  0  0  0  0  0
   14.0789    4.5601   23.5780 H   0  0  0  0  0  0  0  0  0  0  0  0
  1  2  1  0  0  0  0
  1  3  1  0  0  0  0
  2  4  1  0  0  0  0
  3  7  1  0  0  0  0
  4  6  1  0  0  0  0
  4  7  1  0  0  0  0
  5 11  1  0  0  0  0
  6  8  1  0  0  0  0
  7 11  1  0  0  0  0
  9 11  2  0  0  0  0
 10 11  2  0  0  0  0
  8 12  1  0  0  0  0
  8 13  1  0  0  0  0
  8 14  1  0  0  0  0
M  CHG  1   8   1
M  END
> <ref_mols>
x0293_0

> <original SMILES>
CS(=O)(=O)N1CCC[C@@H]1CN

> <Chemgauss4>
-6.709818

> <ref_pdb>
x0195_0

$$$$
x1221
  -OEChem-05172015543D

 13 13  0     1  0  0  0  0  0999 V2000
   11.0735    1.7629   24.3187 C   0  0  0  0  0  0  0  0  0  0  0  0
   11.5461    2.8969   23.6920 C   0  0  0  0  0  0  0  0  0  0  0  0
   12.5321    0.8171   22.9816 C   0  0  0  0  0  0  0  0  0  0  0  0
   10.0319    1.7185   25.3654 C   0  0  0  0  0  0  0  0  0  0  0  0
   13.3430   -0.2176   22.3033 C   0  0  0  0  0  0  0  0  0  0  0  0
   12.3070    5.3050   23.5693 C   0  0  0  0  0  0  0  0  0  0  0  0
    9.5699    6.1569   23.2264 C   0  0  0  0  0  0  0  0  0  0  0  0
   11.1608    4.3460   23.8810 C   0  0  1  0  0  0  0  0  0  0  0  0
   11.6374    0.5693   23.9123 N   0  0  0  0  0  0  0  0  0  0  0  0
    9.9834    4.7432   23.0490 N   0  3  0  0  0  0  0  0  0  0  0  0
   12.7469    2.4632   22.5469 S   0  0  0  0  0  0  0  0  0  0  0  0
    9.1967    4.1243   23.2764 H   0  0  0  0  0  0  0  0  0  0  0  0
   10.2059    4.5721   22.0616 H   0  0  0  0  0  0  0  0  0  0  0  0
  1  2  2  0  0  0  0
  1  4  1  0  0  0  0
  1  9  1  0  0  0  0
  2  8  1  0  0  0  0
  2 11  1  0  0  0  0
  3  5  1  0  0  0  0
  3  9  2  0  0  0  0
  3 11  1  0  0  0  0
  6  8  1  0  0  0  0
  7 10  1  0  0  0  0
  8 10  1  0  0  0  0
 10 12  1  0  0  0  0
 10 13  1  0  0  0  0
M  CHG  1  10   1
M  END
> <ref_mols>
x1221_0

> <original SMILES>
CNC(C)C=1SC(C)=NC1C

> <Chemgauss4>
-6.703908

> <ref_pdb>
x0104_0

$$$$
x0215
  -OEChem-05172015543D

 17 17  0     0  0  0  0  0  0999 V2000
   10.0363   -4.8627   24.3340 C   0  0  0  0  0  0  0  0  0  0  0  0
    9.4796   -2.7652   23.2719 C   0  0  0  0  0  0  0  0  0  0  0  0
    8.9561   -5.4724   23.6961 C   0  0  0  0  0  0  0  0  0  0  0  0
    8.3993   -3.3750   22.6340 C   0  0  0  0  0  0  0  0  0  0  0  0
   10.2981   -3.5090   24.1219 C   0  0  0  0  0  0  0  0  0  0  0  0
    8.1376   -4.7286   22.8462 C   0  0  0  0  0  0  0  0  0  0  0  0
   11.4222   -2.8725   24.7898 C   0  0  0  0  0  0  0  0  0  0  0  0
   13.1255   -1.0362   24.6824 C   0  0  0  0  0  0  0  0  0  0  0  0
    6.1464   -4.1788   21.1616 N   0  0  0  0  0  0  0  0  0  0  0  0
   11.9909   -1.7610   24.1570 N   0  0  0  0  0  0  0  0  0  0  0  0
   11.8564   -3.3242   25.8642 O   0  0  0  0  0  0  0  0  0  0  0  0
    7.3027   -6.4824   21.1139 O   0  0  0  0  0  0  0  0  0  0  0  0
    5.8156   -5.8894   23.0593 O   0  0  0  0  0  0  0  0  0  0  0  0
    6.7853   -5.4924   22.0481 S   0  0  0  0  0  0  0  0  0  0  0  0
    6.2680   -4.1813   20.1415 H   0  0  0  0  0  0  0  0  0  0  0  0
    5.2538   -3.7763   21.4723 H   0  0  0  0  0  0  0  0  0  0  0  0
   11.6382   -1.4721   23.2504 H   0  0  0  0  0  0  0  0  0  0  0  0
  1  3  2  0  0  0  0
  1  5  1  0  0  0  0
  2  4  1  0  0  0  0
  2  5  2  0  0  0  0
  3  6  1  0  0  0  0
  4  6  2  0  0  0  0
  5  7  1  0  0  0  0
  6 14  1  0  0  0  0
  7 10  1  0  0  0  0
  7 11  2  0  0  0  0
  8 10  1  0  0  0  0
  9 14  1  0  0  0  0
 12 14  2  0  0  0  0
 13 14  2  0  0  0  0
  9 15  1  0  0  0  0
  9 16  1  0  0  0  0
 10 17  1  0  0  0  0
M  END
> <ref_mols>
x0215_0

> <original SMILES>
CNC(=O)C=1C=CC(=CC1)S(=O)(=O)N

> <Chemgauss4>
-6.701376

> <ref_pdb>
x0749_0

$$$$
x1090
  -OEChem-05172015543D

 17 17  0     0  0  0  0  0  0999 V2000
   10.0363   -4.8627   24.3340 C   0  0  0  0  0  0  0  0  0  0  0  0
    9.4796   -2.7652   23.2719 C   0  0  0  0  0  0  0  0  0  0  0  0
    8.9561   -5.4724   23.6961 C   0  0  0  0  0  0  0  0  0  0  0  0
    8.3993   -3.3750   22.6340 C   0  0  0  0  0  0  0  0  0  0  0  0
   10.2981   -3.5090   24.1219 C   0  0  0  0  0  0  0  0  0  0  0  0
    8.1376   -4.7286   22.8462 C   0  0  0  0  0  0  0  0  0  0  0  0
   11.4222   -2.8725   24.7898 C   0  0  0  0  0  0  0  0  0  0  0  0
   13.1255   -1.0362   24.6824 C   0  0  0  0  0  0  0  0  0  0  0  0
    6.1464   -4.1788   21.1616 N   0  0  0  0  0  0  0  0  0  0  0  0
   11.9909   -1.7610   24.1570 N   0  0  0  0  0  0  0  0  0  0  0  0
   11.8564   -3.3242   25.8642 O   0  0  0  0  0  0  0  0  0  0  0  0
    7.3027   -6.4824   21.1139 O   0  0  0  0  0  0  0  0  0  0  0  0
    5.8156   -5.8894   23.0593 O   0  0  0  0  0  0  0  0  0  0  0  0
    6.7853   -5.4924   22.0481 S   0  0  0  0  0  0  0  0  0  0  0  0
    6.2680   -4.1813   20.1415 H   0  0  0  0  0  0  0  0  0  0  0  0
    5.2538   -3.7763   21.4723 H   0  0  0  0  0  0  0  0  0  0  0  0
   11.6382   -1.4721   23.2504 H   0  0  0  0  0  0  0  0  0  0  0  0
  1  3  2  0  0  0  0
  1  5  1  0  0  0  0
  2  4  1  0  0  0  0
  2  5  2  0  0  0  0
  3  6  1  0  0  0  0
  4  6  2  0  0  0  0
  5  7  1  0  0  0  0
  6 14  1  0  0  0  0
  7 10  1  0  0  0  0
  7 11  2  0  0  0  0
  8 10  1  0  0  0  0
  9 14  1  0  0  0  0
 12 14  2  0  0  0  0
 13 14  2  0  0  0  0
  9 15  1  0  0  0  0
  9 16  1  0  0  0  0
 10 17  1  0  0  0  0
M  END
> <ref_mols>
x1090_0

> <original SMILES>
CNC(=O)C=1C=CC(=CC1)S(=O)(=O)N

> <Chemgauss4>
-6.701376

> <ref_pdb>
x0749_0

$$$$
x0333
  -OEChem-05172015543D

 13 13  0     0  0  0  0  0  0999 V2000
    9.1204   -1.9305   21.7392 C   0  0  0  0  0  0  0  0  0  0  0  0
   10.1826   -2.0142   22.5945 C   0  0  0  0  0  0  0  0  0  0  0  0
    8.5996   -3.3724   23.3361 C   0  0  0  0  0  0  0  0  0  0  0  0
    7.0296   -3.9035   20.4007 C   0  0  0  0  0  0  0  0  0  0  0  0
    8.6711   -4.7892   25.4196 C   0  0  0  0  0  0  0  0  0  0  0  0
    7.4419   -5.6111   23.3780 C   0  0  0  0  0  0  0  0  0  0  0  0
    6.8587   -3.0033   21.6133 C   0  0  0  0  0  0  0  0  0  0  0  0
    7.8551   -4.3814   24.1904 C   0  0  0  0  0  0  0  0  0  0  0  0
    8.1556   -2.7816   22.2219 N   0  0  0  0  0  0  0  0  0  0  0  0
    9.8327   -2.9131   23.5729 N   0  3  0  0  0  0  0  0  0  0  0  0
    5.9648   -4.1717   19.7758 O   0  5  0  0  0  0  0  0  0  0  0  0
    8.2129   -4.2854   20.1770 O   0  0  0  0  0  0  0  0  0  0  0  0
   10.4204   -3.1870   24.3556 H   0  0  0  0  0  0  0  0  0  0  0  0
  1  2  2  0  0  0  0
  1  9  1  0  0  0  0
  2 10  1  0  0  0  0
  3  8  1  0  0  0  0
  3  9  1  0  0  0  0
  3 10  2  0  0  0  0
  4  7  1  0  0  0  0
  4 11  1  0  0  0  0
  4 12  2  0  0  0  0
  5  8  1  0  0  0  0
  6  8  1  0  0  0  0
  7  9  1  0  0  0  0
 10 13  1  0  0  0  0
M  CHG  2  10   1  11  -1
M  END
> <ref_mols>
x0333_0

> <original SMILES>
CC(C)C1=NC=CN1CC(=O)O

> <Chemgauss4>
-6.698031

> <ref_pdb>
x1392_0

$$$$
x0966
  -OEChem-05172015543D

 14 13  0     0  0  0  0  0  0999 V2000
   12.4246   -0.0103   23.4211 C   0  0  0  0  0  0  0  0  0  0  0  0
   13.3274   -0.7196   23.7721 C   0  0  0  0  0  0  0  0  0  0  0  0
    7.2169    0.4556   19.1277 C   0  0  0  0  0  0  0  0  0  0  0  0
    9.8045    0.2596   21.1143 C   0  0  0  0  0  0  0  0  0  0  0  0
    5.9501    1.2317   18.9827 C   0  0  0  0  0  0  0  0  0  0  0  0
   11.3272    0.8574   22.9953 C   0  0  0  0  0  0  0  0  0  0  0  0
    8.6736   -0.6829   20.7903 C   0  0  0  0  0  0  0  0  0  0  0  0
   10.2492    0.0875   22.4174 N   0  0  0  0  0  0  0  0  0  0  0  0
    7.4787    0.0894   20.4199 N   0  0  0  0  0  0  0  0  0  0  0  0
    7.8941    0.2136   18.1355 O   0  0  0  0  0  0  0  0  0  0  0  0
   10.2615    1.0683   20.3109 O   0  0  0  0  0  0  0  0  0  0  0  0
   14.7562   -1.8422   24.3279 Br  0  0  0  0  0  0  0  0  0  0  0  0
    9.7945   -0.6146   22.9938 H   0  0  0  0  0  0  0  0  0  0  0  0
    6.8321    0.3574   21.1402 H   0  0  0  0  0  0  0  0  0  0  0  0
  1  2  3  0  0  0  0
  1  6  1  0  0  0  0
  2 12  1  0  0  0  0
  3  5  1  0  0  0  0
  3  9  1  0  0  0  0
  3 10  2  0  0  0  0
  4  7  1  0  0  0  0
  4  8  1  0  0  0  0
  4 11  2  0  0  0  0
  6  8  1  0  0  0  0
  7  9  1  0  0  0  0
  8 13  1  0  0  0  0
  9 14  1  0  0  0  0
M  END
> <ref_mols>
x0966_0

> <original SMILES>
CC(=O)NCC(=O)NCC#CBr

> <Chemgauss4>
-6.687051

> <ref_pdb>
x0678_0

$$$$
x0920
  -OEChem-05172015543D

 18 20  0     1  0  0  0  0  0999 V2000
    7.1757   -4.8862   28.6800 C   0  0  0  0  0  0  0  0  0  0  0  0
    6.4220   -5.3385   27.5970 C   0  0  0  0  0  0  0  0  0  0  0  0
    8.4792   -4.4312   28.4811 C   0  0  0  0  0  0  0  0  0  0  0  0
    6.9718   -5.3360   26.3150 C   0  0  0  0  0  0  0  0  0  0  0  0
    9.0291   -4.4288   27.1992 C   0  0  0  0  0  0  0  0  0  0  0  0
    8.2754   -4.8811   26.1161 C   0  0  0  0  0  0  0  0  0  0  0  0
    6.5830   -3.5522   22.2744 C   0  0  0  0  0  0  0  0  0  0  0  0
    9.7330   -1.6325   22.5392 C   0  0  0  0  0  0  0  0  0  0  0  0
    8.6336   -2.1567   24.8745 C   0  0  0  0  0  0  0  0  0  0  0  0
    8.7079   -2.3793   21.6726 C   0  0  0  0  0  0  0  0  0  0  0  0
    9.7292   -2.3506   23.8600 C   0  0  1  0  0  0  0  0  0  0  0  0
    8.5224   -3.2569   23.8678 C   0  0  2  0  0  0  0  0  0  0  0  0
    5.6059   -3.6679   23.4158 C   0  0  0  0  0  0  0  0  0  0  0  0
    7.8570   -3.1292   22.6033 N   0  0  0  0  0  0  0  0  0  0  0  0
    6.2306   -3.8373   21.1280 O   0  0  0  0  0  0  0  0  0  0  0  0
   10.4053   -4.9129   24.6340 O   0  0  0  0  0  0  0  0  0  0  0  0
    8.2639   -5.8445   23.6892 O   0  0  0  0  0  0  0  0  0  0  0  0
    8.9699   -4.8813   24.4988 S   0  0  0  0  0  0  0  0  0  0  0  0
  1  2  1  0  0  0  0
  1  3  2  0  0  0  0
  2  4  2  0  0  0  0
  3  5  1  0  0  0  0
  4  6  1  0  0  0  0
  5  6  2  0  0  0  0
  6 18  1  0  0  0  0
  7 13  1  0  0  0  0
  7 14  1  0  0  0  0
  7 15  2  0  0  0  0
  8 10  1  0  0  0  0
  8 11  1  0  0  0  0
  9 11  1  0  0  0  0
  9 12  1  0  0  0  0
 10 14  1  0  0  0  0
 11 12  1  0  0  0  0
 12 14  1  0  0  0  0
 12 18  1  0  0  0  0
 16 18  2  0  0  0  0
 17 18  2  0  0  0  0
M  END
> <ref_mols>
x0920_0

> <original SMILES>
O=S(C12N(C(C)=O)CCC1C2)(C3=CC=CC=C3)=O

> <Chemgauss4>
-6.683548

> <ref_pdb>
x1334_0

$$$$
x1023
  -OEChem-05172015543D

  9  9  0     0  0  0  0  0  0999 V2000
    5.7255    0.4860   20.1321 C   0  0  0  0  0  0  0  0  0  0  0  0
    4.7456    1.1471   19.4326 C   0  0  0  0  0  0  0  0  0  0  0  0
    6.6437    0.0743   19.1476 C   0  0  0  0  0  0  0  0  0  0  0  0
    7.8926   -0.6804   19.3458 C   0  0  0  0  0  0  0  0  0  0  0  0
    6.2796    0.4429   17.9165 N   0  0  0  0  0  0  0  0  0  0  0  0
    5.1216    1.0931   18.1227 N   0  0  0  0  0  0  0  0  0  0  0  0
    8.9002    0.1723   19.8925 O   0  0  0  0  0  0  0  0  0  0  0  0
    4.6379    1.4776   17.3209 H   0  0  0  0  0  0  0  0  0  0  0  0
    9.6921   -0.3754   19.9999 H   0  0  0  0  0  0  0  0  0  0  0  0
  1  2  2  0  0  0  0
  1  3  1  0  0  0  0
  2  6  1  0  0  0  0
  3  4  1  0  0  0  0
  3  5  2  0  0  0  0
  4  7  1  0  0  0  0
  5  6  1  0  0  0  0
  6  8  1  0  0  0  0
  7  9  1  0  0  0  0
M  END
> <ref_mols>
x1023_0

> <original SMILES>
OCC=1C=CNN1

> <Chemgauss4>
-6.683507

> <ref_pdb>
x0397_0

$$$$
x0081
  -OEChem-05172015543D

 13 13  0     1  0  0  0  0  0999 V2000
    4.6598   -6.0373   24.4378 C   0  0  0  0  0  0  0  0  0  0  0  0
    6.4974   -5.1255   21.2547 C   0  0  0  0  0  0  0  0  0  0  0  0
    8.2945   -3.8420   23.7112 C   0  0  0  0  0  0  0  0  0  0  0  0
    7.5268   -4.3811   24.8858 C   0  0  0  0  0  0  0  0  0  0  0  0
    7.4030   -5.0407   23.5403 C   0  0  0  0  0  0  0  0  0  0  0  0
    3.7319   -7.1876   24.6477 C   0  0  0  0  0  0  0  0  0  0  0  0
    5.4545   -3.5641   23.0028 C   0  0  0  0  0  0  0  0  0  0  0  0
    6.0998   -4.9263   22.7423 C   0  0  1  0  0  0  0  0  0  0  0  0
    5.1784   -5.9668   23.1628 N   0  0  0  0  0  0  0  0  0  0  0  0
    5.5562   -5.0726   20.4135 O   0  5  0  0  0  0  0  0  0  0  0  0
    4.8879   -5.2682   25.3641 O   0  0  0  0  0  0  0  0  0  0  0  0
    7.7308   -5.3249   21.0499 O   0  0  0  0  0  0  0  0  0  0  0  0
    4.9049   -6.6718   22.4896 H   0  0  0  0  0  0  0  0  0  0  0  0
  1  6  1  0  0  0  0
  1  9  1  0  0  0  0
  1 11  2  0  0  0  0
  2  8  1  0  0  0  0
  2 10  1  0  0  0  0
  2 12  2  0  0  0  0
  3  4  1  0  0  0  0
  3  5  1  0  0  0  0
  4  5  1  0  0  0  0
  5  8  1  0  0  0  0
  7  8  1  0  0  0  0
  8  9  1  0  0  0  0
  9 13  1  0  0  0  0
M  CHG  1  10  -1
M  END
> <ref_mols>
x0081_0

> <original SMILES>
CC(=O)NC(C)(C1CC1)C(=O)O

> <Chemgauss4>
-6.676784

> <ref_pdb>
x0769_0

$$$$
x1180
  -OEChem-05172015543D

 13 13  0     1  0  0  0  0  0999 V2000
    4.6598   -6.0373   24.4378 C   0  0  0  0  0  0  0  0  0  0  0  0
    6.4974   -5.1255   21.2547 C   0  0  0  0  0  0  0  0  0  0  0  0
    8.2945   -3.8420   23.7112 C   0  0  0  0  0  0  0  0  0  0  0  0
    7.5268   -4.3811   24.8858 C   0  0  0  0  0  0  0  0  0  0  0  0
    7.4030   -5.0407   23.5403 C   0  0  0  0  0  0  0  0  0  0  0  0
    3.7319   -7.1876   24.6477 C   0  0  0  0  0  0  0  0  0  0  0  0
    5.4545   -3.5641   23.0028 C   0  0  0  0  0  0  0  0  0  0  0  0
    6.0998   -4.9263   22.7423 C   0  0  1  0  0  0  0  0  0  0  0  0
    5.1784   -5.9668   23.1628 N   0  0  0  0  0  0  0  0  0  0  0  0
    5.5562   -5.0726   20.4135 O   0  5  0  0  0  0  0  0  0  0  0  0
    4.8879   -5.2682   25.3641 O   0  0  0  0  0  0  0  0  0  0  0  0
    7.7308   -5.3249   21.0499 O   0  0  0  0  0  0  0  0  0  0  0  0
    4.9049   -6.6718   22.4896 H   0  0  0  0  0  0  0  0  0  0  0  0
  1  6  1  0  0  0  0
  1  9  1  0  0  0  0
  1 11  2  0  0  0  0
  2  8  1  0  0  0  0
  2 10  1  0  0  0  0
  2 12  2  0  0  0  0
  3  4  1  0  0  0  0
  3  5  1  0  0  0  0
  4  5  1  0  0  0  0
  5  8  1  0  0  0  0
  7  8  1  0  0  0  0
  8  9  1  0  0  0  0
  9 13  1  0  0  0  0
M  CHG  1  10  -1
M  END
> <ref_mols>
x1180_0

> <original SMILES>
CC(=O)NC(C)(C1CC1)C(=O)O

> <Chemgauss4>
-6.676784

> <ref_pdb>
x0769_0

$$$$
x0850
  -OEChem-05172015543D

 12 12  0     1  0  0  0  0  0999 V2000
   10.4328   -1.3056   23.2442 C   0  0  0  0  0  0  0  0  0  0  0  0
   11.7726   -1.9638   23.5771 C   0  0  0  0  0  0  0  0  0  0  0  0
   10.1778   -1.2703   21.7466 C   0  0  0  0  0  0  0  0  0  0  0  0
   12.6429   -1.2997   21.3014 C   0  0  0  0  0  0  0  0  0  0  0  0
   12.9619   -1.3453   22.8066 C   0  0  2  0  0  0  0  0  0  0  0  0
   14.2083   -2.2235   23.0201 C   0  0  0  0  0  0  0  0  0  0  0  0
   13.2775    0.0650   23.3432 C   0  0  0  0  0  0  0  0  0  0  0  0
   11.3328   -0.6221   21.0601 N   0  3  0  0  0  0  0  0  0  0  0  0
   13.5946   -0.0520   24.7130 O   0  0  0  0  0  0  0  0  0  0  0  0
   11.1502   -0.6067   20.0472 H   0  0  0  0  0  0  0  0  0  0  0  0
   11.3906    0.3667   21.3394 H   0  0  0  0  0  0  0  0  0  0  0  0
   13.7923    0.8428   25.0428 H   0  0  0  0  0  0  0  0  0  0  0  0
  1  2  1  0  0  0  0
  1  3  1  0  0  0  0
  2  5  1  0  0  0  0
  3  8  1  0  0  0  0
  4  5  1  0  0  0  0
  4  8  1  0  0  0  0
  5  6  1  0  0  0  0
  5  7  1  0  0  0  0
  7  9  1  0  0  0  0
  8 10  1  0  0  0  0
  8 11  1  0  0  0  0
  9 12  1  0  0  0  0
M  CHG  1   8   1
M  END
> <ref_mols>
x0850_0

> <original SMILES>
CC1(CO)CNCCC1

> <Chemgauss4>
-6.667232

> <ref_pdb>
x0678_0

$$$$
x2892
  -OEChem-05172015543D

 16 16  0     0  0  0  0  0  0999 V2000
   14.5151   -1.4879   26.4042 C   0  0  0  0  0  0  0  0  0  0  0  0
   13.7645   -2.4941   25.9519 C   0  0  0  0  0  0  0  0  0  0  0  0
    7.1809   -5.5512   22.1879 C   0  0  0  0  0  0  0  0  0  0  0  0
    9.8676   -3.3310   23.0224 C   0  0  0  0  0  0  0  0  0  0  0  0
    9.5771   -5.0239   24.8665 C   0  0  0  0  0  0  0  0  0  0  0  0
    8.3774   -3.4506   22.7142 C   0  0  0  0  0  0  0  0  0  0  0  0
    8.0918   -5.1100   24.5213 C   0  0  0  0  0  0  0  0  0  0  0  0
   10.1566   -3.6557   24.4914 C   0  0  0  0  0  0  0  0  0  0  0  0
    7.2896   -7.0449   22.3632 C   0  0  0  0  0  0  0  0  0  0  0  0
    7.8633   -4.7622   23.1134 N   0  0  0  0  0  0  0  0  0  0  0  0
   11.5736   -3.6075   24.7548 N   0  0  0  0  0  0  0  0  0  0  0  0
    6.5111   -5.1012   21.2548 O   0  0  0  0  0  0  0  0  0  0  0  0
   11.3938   -1.4881   26.2059 O   0  0  0  0  0  0  0  0  0  0  0  0
   12.5421   -1.3769   23.9760 O   0  0  0  0  0  0  0  0  0  0  0  0
   12.2525   -2.0956   25.2045 S   0  0  0  0  0  0  0  0  0  0  0  0
   12.1212   -4.1775   24.1020 H   0  0  0  0  0  0  0  0  0  0  0  0
  1  2  2  0  0  0  0
  2 15  1  0  0  0  0
  3  9  1  0  0  0  0
  3 10  1  0  0  0  0
  3 12  2  0  0  0  0
  4  6  1  0  0  0  0
  4  8  1  0  0  0  0
  5  7  1  0  0  0  0
  5  8  1  0  0  0  0
  6 10  1  0  0  0  0
  7 10  1  0  0  0  0
  8 11  1  0  0  0  0
 11 15  1  0  0  0  0
 13 15  2  0  0  0  0
 14 15  2  0  0  0  0
 11 16  1  0  0  0  0
M  END
> <ref_mols>
x2892_0

> <original SMILES>
CC(N(CC1)CCC1NS(C=C)(=O)=O)=O

> <Chemgauss4>
-6.665370

> <ref_pdb>
x0749_0

$$$$
x0943
  -OEChem-05172015543D

  7  7  0     0  0  0  0  0  0999 V2000
    8.3482   -4.8827   26.0486 C   0  0  0  0  0  0  0  0  0  0  0  0
   10.0845   -4.5978   24.7299 C   0  0  0  0  0  0  0  0  0  0  0  0
    9.0365   -3.9131   25.2951 C   0  0  0  0  0  0  0  0  0  0  0  0
    8.9114   -6.0914   25.9712 N   0  0  0  0  0  0  0  0  0  0  0  0
    9.9646   -5.8858   25.1622 N   0  0  0  0  0  0  0  0  0  0  0  0
    8.5854   -1.9443   25.0869 I   0  0  0  0  0  0  0  0  0  0  0  0
   10.5638   -6.6724   24.9454 H   0  0  0  0  0  0  0  0  0  0  0  0
  1  3  1  0  0  0  0
  1  4  2  0  0  0  0
  2  3  2  0  0  0  0
  2  5  1  0  0  0  0
  3  6  1  0  0  0  0
  4  5  1  0  0  0  0
  5  7  1  0  0  0  0
M  END
> <ref_mols>
x0943_0

> <original SMILES>
IC1=CNN=C1

> <Chemgauss4>
-6.653956

> <ref_pdb>
x1077_0

$$$$
x0045
  -OEChem-05172015543D

 11 11  0     0  0  0  0  0  0999 V2000
   13.8046    1.4579   22.6790 C   0  0  0  0  0  0  0  0  0  0  0  0
   12.9134    2.4976   22.7674 C   0  0  0  0  0  0  0  0  0  0  0  0
   13.2690    3.9766   22.6963 C   0  0  0  0  0  0  0  0  0  0  0  0
   14.1955   -1.4015   21.4840 C   0  0  0  0  0  0  0  0  0  0  0  0
   12.2642   -2.0062   23.0040 C   0  0  0  0  0  0  0  0  0  0  0  0
   13.4381   -1.0543   22.7671 C   0  0  0  0  0  0  0  0  0  0  0  0
   11.6478    2.0055   22.9275 N   0  0  0  0  0  0  0  0  0  0  0  0
   11.7243    0.6793   22.9426 N   0  0  0  0  0  0  0  0  0  0  0  0
   13.0184    0.3530   22.7937 N   0  0  0  0  0  0  0  0  0  0  0  0
   12.3125    4.7971   22.7964 O   0  5  0  0  0  0  0  0  0  0  0  0
   14.4912    4.2610   22.5428 O   0  0  0  0  0  0  0  0  0  0  0  0
  1  2  2  0  0  0  0
  1  9  1  0  0  0  0
  2  3  1  0  0  0  0
  2  7  1  0  0  0  0
  3 10  1  0  0  0  0
  3 11  2  0  0  0  0
  4  6  1  0  0  0  0
  5  6  1  0  0  0  0
  6  9  1  0  0  0  0
  7  8  2  0  0  0  0
  8  9  1  0  0  0  0
M  CHG  1  10  -1
M  END
> <ref_mols>
x0045_0

> <original SMILES>
CC(C)N1C=C(N=N1)C(=O)O

> <Chemgauss4>
-6.650498

> <ref_pdb>
x0195_0

$$$$
x2888
  -OEChem-05172015543D

 20 22  0     0  0  0  0  0  0999 V2000
    6.5622    0.1537   18.1728 C   0  0  0  0  0  0  0  0  0  0  0  0
    8.0126   -3.3110   23.1157 C   0  0  0  0  0  0  0  0  0  0  0  0
    7.7022    0.2200   18.9476 C   0  0  0  0  0  0  0  0  0  0  0  0
    5.6388   -0.7999   18.5497 C   0  0  0  0  0  0  0  0  0  0  0  0
    6.7536   -3.8298   22.7583 C   0  0  0  0  0  0  0  0  0  0  0  0
    8.2516   -2.3231   22.1919 C   0  0  0  0  0  0  0  0  0  0  0  0
    6.9575   -1.4670   20.2768 C   0  0  0  0  0  0  0  0  0  0  0  0
   12.6001   -0.1344   22.9831 C   0  0  0  0  0  0  0  0  0  0  0  0
   11.4381   -0.3481   22.3579 C   0  0  0  0  0  0  0  0  0  0  0  0
   10.5007   -1.4042   22.8387 C   0  0  0  0  0  0  0  0  0  0  0  0
    6.7798   -6.2831   23.6817 C   0  0  0  0  0  0  0  0  0  0  0  0
    5.6283   -6.1977   22.7293 C   0  0  0  0  0  0  0  0  0  0  0  0
    6.0529   -4.9650   23.5027 C   0  0  0  0  0  0  0  0  0  0  0  0
    7.9334   -0.5780   20.0107 N   0  0  0  0  0  0  0  0  0  0  0  0
    5.8047   -1.6302   19.6001 N   0  0  0  0  0  0  0  0  0  0  0  0
    6.2294   -3.2216   21.6909 N   0  0  0  0  0  0  0  0  0  0  0  0
    7.1635   -2.3104   21.3697 N   0  0  0  0  0  0  0  0  0  0  0  0
    9.3607   -1.4540   22.0472 N   0  0  0  0  0  0  0  0  0  0  0  0
   10.7701   -2.0975   23.8125 O   0  0  0  0  0  0  0  0  0  0  0  0
    9.3173   -0.7910   21.2758 H   0  0  0  0  0  0  0  0  0  0  0  0
  1  3  1  0  0  0  0
  1  4  2  0  0  0  0
  2  5  1  0  0  0  0
  2  6  2  0  0  0  0
  3 14  2  0  0  0  0
  4 15  1  0  0  0  0
  5 13  1  0  0  0  0
  5 16  2  0  0  0  0
  6 17  1  0  0  0  0
  6 18  1  0  0  0  0
  7 14  1  0  0  0  0
  7 15  2  0  0  0  0
  7 17  1  0  0  0  0
  8  9  2  0  0  0  0
  9 10  1  0  0  0  0
 10 18  1  0  0  0  0
 10 19  2  0  0  0  0
 11 12  1  0  0  0  0
 11 13  1  0  0  0  0
 12 13  1  0  0  0  0
 16 17  1  0  0  0  0
 18 20  1  0  0  0  0
M  END
> <ref_mols>
x2888_0

> <original SMILES>
C=CC(Nc1cc(C2CC2)nn1-c1ncccn1)=O

> <Chemgauss4>
-6.647250

> <ref_pdb>
x1386_0

$$$$
x1158
  -OEChem-05172015543D

 13 13  0     1  0  0  0  0  0999 V2000
    6.7217   -4.7492   21.0627 C   0  0  0  0  0  0  0  0  0  0  0  0
    7.7101   -5.3438   23.9874 C   0  0  0  0  0  0  0  0  0  0  0  0
    6.3012   -5.0122   23.4983 C   0  0  0  0  0  0  0  0  0  0  0  0
    8.5158   -4.0800   24.2587 C   0  0  0  0  0  0  0  0  0  0  0  0
    7.2036   -2.8223   22.5747 C   0  0  0  0  0  0  0  0  0  0  0  0
    6.3111   -4.0366   22.3197 C   0  0  1  0  0  0  0  0  0  0  0  0
    9.2219   -1.0908   24.4190 C   0  0  0  0  0  0  0  0  0  0  0  0
    8.5640   -3.2505   23.0214 N   0  0  1  0  0  0  0  0  0  0  0  0
    7.8899   -5.2271   21.0711 O   0  5  0  0  0  0  0  0  0  0  0  0
    5.8410   -4.7770   20.1578 O   0  0  0  0  0  0  0  0  0  0  0  0
    9.5680   -1.2030   21.8316 O   0  0  0  0  0  0  0  0  0  0  0  0
   11.0384   -2.6165   23.3234 O   0  0  0  0  0  0  0  0  0  0  0  0
    9.7589   -2.0219   23.0078 S   0  0  0  0  0  0  0  0  0  0  0  0
  1  6  1  0  0  0  0
  1  9  1  0  0  0  0
  1 10  2  0  0  0  0
  2  3  1  0  0  0  0
  2  4  1  0  0  0  0
  3  6  1  0  0  0  0
  4  8  1  0  0  0  0
  5  6  1  0  0  0  0
  5  8  1  0  0  0  0
  7 13  1  0  0  0  0
  8 13  1  0  0  0  0
 11 13  2  0  0  0  0
 12 13  2  0  0  0  0
M  CHG  1   9  -1
M  END
> <ref_mols>
x1158_0

> <original SMILES>
CS(=O)(=O)N1CCCC(C1)C(=O)O

> <Chemgauss4>
-6.643096

> <ref_pdb>
x0759_0

$$$$
x0124
  -OEChem-05172015543D

 13 13  0     1  0  0  0  0  0999 V2000
    6.7217   -4.7492   21.0627 C   0  0  0  0  0  0  0  0  0  0  0  0
    7.7101   -5.3438   23.9874 C   0  0  0  0  0  0  0  0  0  0  0  0
    6.3012   -5.0122   23.4983 C   0  0  0  0  0  0  0  0  0  0  0  0
    8.5158   -4.0800   24.2587 C   0  0  0  0  0  0  0  0  0  0  0  0
    7.2036   -2.8223   22.5747 C   0  0  0  0  0  0  0  0  0  0  0  0
    6.3111   -4.0366   22.3197 C   0  0  1  0  0  0  0  0  0  0  0  0
    9.2219   -1.0908   24.4190 C   0  0  0  0  0  0  0  0  0  0  0  0
    8.5640   -3.2505   23.0214 N   0  0  1  0  0  0  0  0  0  0  0  0
    7.8899   -5.2271   21.0711 O   0  5  0  0  0  0  0  0  0  0  0  0
    5.8410   -4.7770   20.1578 O   0  0  0  0  0  0  0  0  0  0  0  0
    9.5680   -1.2030   21.8316 O   0  0  0  0  0  0  0  0  0  0  0  0
   11.0384   -2.6165   23.3234 O   0  0  0  0  0  0  0  0  0  0  0  0
    9.7589   -2.0219   23.0078 S   0  0  0  0  0  0  0  0  0  0  0  0
  1  6  1  0  0  0  0
  1  9  1  0  0  0  0
  1 10  2  0  0  0  0
  2  3  1  0  0  0  0
  2  4  1  0  0  0  0
  3  6  1  0  0  0  0
  4  8  1  0  0  0  0
  5  6  1  0  0  0  0
  5  8  1  0  0  0  0
  7 13  1  0  0  0  0
  8 13  1  0  0  0  0
 11 13  2  0  0  0  0
 12 13  2  0  0  0  0
M  CHG  1   9  -1
M  END
> <ref_mols>
x0124_0

> <original SMILES>
CS(=O)(=O)N1CCCC(C1)C(=O)O

> <Chemgauss4>
-6.643096

> <ref_pdb>
x0759_0

$$$$
x0138
  -OEChem-05172015543D

 13 13  0     0  0  0  0  0  0999 V2000
   14.5325    0.0294   22.1785 C   0  0  0  0  0  0  0  0  0  0  0  0
   14.0507   -1.2783   22.1215 C   0  0  0  0  0  0  0  0  0  0  0  0
   13.7703    1.0276   22.7854 C   0  0  0  0  0  0  0  0  0  0  0  0
   12.8067   -1.5879   22.6711 C   0  0  0  0  0  0  0  0  0  0  0  0
   12.5262    0.7181   23.3351 C   0  0  0  0  0  0  0  0  0  0  0  0
   12.0444   -0.5897   23.2780 C   0  0  0  0  0  0  0  0  0  0  0  0
   11.8527    3.1125   23.5322 C   0  0  0  0  0  0  0  0  0  0  0  0
    9.3111   -0.2442   22.8734 C   0  0  0  0  0  0  0  0  0  0  0  0
   11.7734    1.7463   23.9441 N   0  0  0  0  0  0  0  0  0  0  0  0
   10.3330   -2.4597   23.8337 O   0  0  0  0  0  0  0  0  0  0  0  0
   10.3548   -0.3819   25.2579 O   0  0  0  0  0  0  0  0  0  0  0  0
   10.4882   -1.0188   23.9566 S   0  0  0  0  0  0  0  0  0  0  0  0
   11.1669    1.4789   24.6951 H   0  0  0  0  0  0  0  0  0  0  0  0
  1  2  1  0  0  0  0
  1  3  2  0  0  0  0
  2  4  2  0  0  0  0
  3  5  1  0  0  0  0
  4  6  1  0  0  0  0
  5  6  2  0  0  0  0
  5  9  1  0  0  0  0
  6 12  1  0  0  0  0
  7  9  1  0  0  0  0
  8 12  1  0  0  0  0
 10 12  2  0  0  0  0
 11 12  2  0  0  0  0
  9 13  1  0  0  0  0
M  END
> <ref_mols>
x0138_0

> <original SMILES>
CNC=1C=CC=CC1S(=O)(=O)C

> <Chemgauss4>
-6.642445

> <ref_pdb>
x0195_0

$$$$
x0955
  -OEChem-05172015543D

 11 11  0     0  0  0  0  0  0999 V2000
    8.3506   -2.4109   22.0173 C   0  0  0  0  0  0  0  0  0  0  0  0
    9.7406   -5.0353   24.2764 C   0  0  0  0  0  0  0  0  0  0  0  0
   10.8519   -4.3709   24.7952 C   0  0  0  0  0  0  0  0  0  0  0  0
   10.3020   -2.4220   23.4774 C   0  0  0  0  0  0  0  0  0  0  0  0
    9.1907   -3.0864   22.9585 C   0  0  0  0  0  0  0  0  0  0  0  0
    8.9100   -4.3931   23.3580 C   0  0  0  0  0  0  0  0  0  0  0  0
   11.1326   -3.0642   24.3957 C   0  0  0  0  0  0  0  0  0  0  0  0
    8.0295   -5.8294   21.6794 C   0  0  0  0  0  0  0  0  0  0  0  0
    7.6693   -1.8632   21.2540 N   0  0  0  0  0  0  0  0  0  0  0  0
    7.8303   -5.0658   22.8667 O   0  0  0  0  0  0  0  0  0  0  0  0
   12.6387   -2.1651   25.0997 Br  0  0  0  0  0  0  0  0  0  0  0  0
  1  5  1  0  0  0  0
  1  9  3  0  0  0  0
  2  3  1  0  0  0  0
  2  6  2  0  0  0  0
  3  7  2  0  0  0  0
  4  5  2  0  0  0  0
  4  7  1  0  0  0  0
  5  6  1  0  0  0  0
  6 10  1  0  0  0  0
  7 11  1  0  0  0  0
  8 10  1  0  0  0  0
M  END
> <ref_mols>
x0955_0

> <original SMILES>
BrC1=CC(C#N)=C(OC)C=C1

> <Chemgauss4>
-6.631884

> <ref_pdb>
x0749_0

> <CYS145-warhead dist minimum (A)>
6.101982

> <CYS145-warhead dist mean (A)>
6.6627793

> <CYS145-warhead dist stddev (A)>
0.29976115

$$$$
x0343
  -OEChem-05172015543D

 14 14  0     0  0  0  0  0  0999 V2000
   11.3917    0.2372   23.1403 C   0  0  0  0  0  0  0  0  0  0  0  0
   12.2876    1.1935   23.6548 C   0  0  0  0  0  0  0  0  0  0  0  0
   12.0349   -0.9640   23.3134 C   0  0  0  0  0  0  0  0  0  0  0  0
   10.0258    0.3775   21.0239 C   0  0  0  0  0  0  0  0  0  0  0  0
   12.1085    2.6545   23.7238 C   0  0  0  0  0  0  0  0  0  0  0  0
   11.6293   -2.3428   22.9809 C   0  0  0  0  0  0  0  0  0  0  0  0
   14.2663   -1.5971   24.2805 C   0  0  0  0  0  0  0  0  0  0  0  0
   10.0628    0.4690   22.5481 C   0  0  0  0  0  0  0  0  0  0  0  0
   13.4140    0.6469   24.1201 N   0  0  0  0  0  0  0  0  0  0  0  0
   13.2302   -0.6658   23.8986 N   0  0  0  0  0  0  0  0  0  0  0  0
    9.6770   -0.8731   20.5595 N   0  0  0  0  0  0  0  0  0  0  0  0
   10.2846    1.3270   20.2896 O   0  0  0  0  0  0  0  0  0  0  0  0
    9.4773   -1.6152   21.2226 H   0  0  0  0  0  0  0  0  0  0  0  0
    9.6171   -1.0621   19.5645 H   0  0  0  0  0  0  0  0  0  0  0  0
  1  2  1  0  0  0  0
  1  3  2  0  0  0  0
  1  8  1  0  0  0  0
  2  5  1  0  0  0  0
  2  9  2  0  0  0  0
  3  6  1  0  0  0  0
  3 10  1  0  0  0  0
  4  8  1  0  0  0  0
  4 11  1  0  0  0  0
  4 12  2  0  0  0  0
  7 10  1  0  0  0  0
  9 10  1  0  0  0  0
 11 13  1  0  0  0  0
 11 14  1  0  0  0  0
M  END
> <ref_mols>
x0343_0

> <original SMILES>
CC1=NN(C)C(C)=C1CC(=O)N

> <Chemgauss4>
-6.627599

> <ref_pdb>
x0678_0

$$$$
x0915
  -OEChem-05172015543D

 16 16  0     1  0  0  0  0  0999 V2000
   10.9899    1.8976   22.1776 C   0  0  0  0  0  0  0  0  0  0  0  0
   12.6280   -1.1513   22.0887 C   0  0  0  0  0  0  0  0  0  0  0  0
   12.8819    0.3063   22.4635 C   0  0  0  0  0  0  0  0  0  0  0  0
   11.2045   -1.3649   21.6040 C   0  0  0  0  0  0  0  0  0  0  0  0
   11.6742    0.9650   23.1411 C   0  0  2  0  0  0  0  0  0  0  0  0
   10.6940   -0.0697   23.7267 C   0  0  1  0  0  0  0  0  0  0  0  0
    9.5183    0.6183   24.4247 C   0  0  0  0  0  0  0  0  0  0  0  0
   10.1354   -2.9556   24.4686 C   0  0  0  0  0  0  0  0  0  0  0  0
   10.2001   -1.0093   22.6565 N   0  0  2  0  0  0  0  0  0  0  0  0
   11.5348    3.1594   22.1457 N   0  0  0  0  0  0  0  0  0  0  0  0
   10.0440    1.5377   21.4812 O   0  0  0  0  0  0  0  0  0  0  0  0
    9.1130   -3.2757   22.0855 O   0  0  0  0  0  0  0  0  0  0  0  0
    7.9592   -1.7233   23.7116 O   0  0  0  0  0  0  0  0  0  0  0  0
    9.1637   -2.2882   23.1422 S   0  0  0  0  0  0  0  0  0  0  0  0
   12.3255    3.3639   22.7478 H   0  0  0  0  0  0  0  0  0  0  0  0
   11.1779    3.8947   21.5439 H   0  0  0  0  0  0  0  0  0  0  0  0
  1  5  1  0  0  0  0
  1 10  1  0  0  0  0
  1 11  2  0  0  0  0
  2  3  1  0  0  0  0
  2  4  1  0  0  0  0
  3  5  1  0  0  0  0
  4  9  1  0  0  0  0
  5  6  1  0  0  0  0
  6  7  1  0  0  0  0
  6  9  1  0  0  0  0
  8 14  1  0  0  0  0
  9 14  1  0  0  0  0
 12 14  2  0  0  0  0
 13 14  2  0  0  0  0
 10 15  1  0  0  0  0
 10 16  1  0  0  0  0
M  END
> <ref_mols>
x0915_0

> <original SMILES>
C[C@H]1N(S(=O)(C)=O)CCC[C@H]1C(N)=O

> <Chemgauss4>
-6.617237

> <ref_pdb>
x0874_0

$$$$
x0080
  -OEChem-05172015543D

 14 14  0     0  0  0  0  0  0999 V2000
   11.6760   -1.0502   23.3981 C   0  0  0  0  0  0  0  0  0  0  0  0
   13.6840    4.0186   22.4174 C   0  0  0  0  0  0  0  0  0  0  0  0
   11.4676    1.3921   23.7393 C   0  0  0  0  0  0  0  0  0  0  0  0
   13.6939    0.4858   23.1996 C   0  0  0  0  0  0  0  0  0  0  0  0
   11.6490    2.4863   22.6889 C   0  0  0  0  0  0  0  0  0  0  0  0
   13.8753    1.5687   22.1406 C   0  0  0  0  0  0  0  0  0  0  0  0
   10.5142   -1.2623   24.3356 C   0  0  0  0  0  0  0  0  0  0  0  0
   12.2687    0.2110   23.4153 N   0  0  0  0  0  0  0  0  0  0  0  0
   13.0759    2.7585   22.4528 N   0  0  0  0  0  0  0  0  0  0  0  0
   12.8619    5.1061   22.6204 N   0  0  0  0  0  0  0  0  0  0  0  0
   12.0457   -1.9790   22.6752 O   0  0  0  0  0  0  0  0  0  0  0  0
   14.8905    4.1888   22.2143 O   0  0  0  0  0  0  0  0  0  0  0  0
   11.8754    4.9645   22.8132 H   0  0  0  0  0  0  0  0  0  0  0  0
   13.1746    6.0672   22.6535 H   0  0  0  0  0  0  0  0  0  0  0  0
  1  7  1  0  0  0  0
  1  8  1  0  0  0  0
  1 11  2  0  0  0  0
  2  9  1  0  0  0  0
  2 10  1  0  0  0  0
  2 12  2  0  0  0  0
  3  5  1  0  0  0  0
  3  8  1  0  0  0  0
  4  6  1  0  0  0  0
  4  8  1  0  0  0  0
  5  9  1  0  0  0  0
  6  9  1  0  0  0  0
 10 13  1  0  0  0  0
 10 14  1  0  0  0  0
M  END
> <ref_mols>
x0080_0

> <original SMILES>
CC(=O)N1CCN(CC1)C(=O)N

> <Chemgauss4>
-6.616466

> <ref_pdb>
x0195_0

$$$$
x0331
  -OEChem-05172015543D

 14 14  0     0  0  0  0  0  0999 V2000
   14.8765    0.1587   21.9915 C   0  0  0  0  0  0  0  0  0  0  0  0
   13.8308    0.8621   22.5789 C   0  0  0  0  0  0  0  0  0  0  0  0
   14.6821   -1.1862   21.7208 C   0  0  0  0  0  0  0  0  0  0  0  0
   12.6395    0.2084   22.8735 C   0  0  0  0  0  0  0  0  0  0  0  0
   12.5452   -1.1387   22.5631 C   0  0  0  0  0  0  0  0  0  0  0  0
   11.3013   -1.8799   22.8563 C   0  0  0  0  0  0  0  0  0  0  0  0
   11.5459    2.2613   23.8293 C   0  0  0  0  0  0  0  0  0  0  0  0
   10.2193    2.6345   24.4419 C   0  0  0  0  0  0  0  0  0  0  0  0
   13.5394   -1.8554   21.9924 N   0  0  0  0  0  0  0  0  0  0  0  0
   11.5873    0.9093   23.4639 N   0  0  0  0  0  0  0  0  0  0  0  0
   11.2450   -3.1283   22.5562 O   0  5  0  0  0  0  0  0  0  0  0  0
   10.3232   -1.2478   23.3999 O   0  0  0  0  0  0  0  0  0  0  0  0
   12.4338    3.0974   23.6964 O   0  0  0  0  0  0  0  0  0  0  0  0
   10.7337    0.3727   23.6565 H   0  0  0  0  0  0  0  0  0  0  0  0
  1  2  2  0  0  0  0
  1  3  1  0  0  0  0
  2  4  1  0  0  0  0
  3  9  2  0  0  0  0
  4  5  2  0  0  0  0
  4 10  1  0  0  0  0
  5  6  1  0  0  0  0
  5  9  1  0  0  0  0
  6 11  1  0  0  0  0
  6 12  2  0  0  0  0
  7  8  1  0  0  0  0
  7 10  1  0  0  0  0
  7 13  2  0  0  0  0
 10 14  1  0  0  0  0
M  CHG  1  11  -1
M  END
> <ref_mols>
x0331_0

> <original SMILES>
CC(=O)NC=1C=CC=NC1C(=O)O

> <Chemgauss4>
-6.615999

> <ref_pdb>
x0195_0

$$$$
x0841
  -OEChem-05172015543D

 16 16  0     1  0  0  0  0  0999 V2000
    9.0159   -0.1512   20.7750 C   0  0  0  0  0  0  0  0  0  0  0  0
   10.2616   -1.3594   24.1953 C   0  0  0  0  0  0  0  0  0  0  0  0
    9.3576   -0.6556   23.1875 C   0  0  0  0  0  0  0  0  0  0  0  0
   11.7109   -0.9030   24.0739 C   0  0  0  0  0  0  0  0  0  0  0  0
    9.9062   -0.8313   21.7710 C   0  0  2  0  0  0  0  0  0  0  0  0
   11.3641   -0.3526   21.6417 C   0  0  1  0  0  0  0  0  0  0  0  0
   11.5487    1.1638   21.7483 C   0  0  0  0  0  0  0  0  0  0  0  0
    6.6775   -0.0568   19.9351 C   0  0  0  0  0  0  0  0  0  0  0  0
   14.2877   -2.4964   23.4576 C   0  0  0  0  0  0  0  0  0  0  0  0
   12.1877   -1.0746   22.6715 N   0  0  1  0  0  0  0  0  0  0  0  0
    7.7031   -0.5811   20.8082 N   0  0  0  0  0  0  0  0  0  0  0  0
    9.4835    0.7027   20.0308 O   0  0  0  0  0  0  0  0  0  0  0  0
   14.4502    0.0822   23.0685 O   0  0  0  0  0  0  0  0  0  0  0  0
   14.1676   -1.4394   21.0709 O   0  0  0  0  0  0  0  0  0  0  0  0
   13.8823   -1.0950   22.4472 S   0  0  0  0  0  0  0  0  0  0  0  0
    7.4465   -1.2999   21.4782 H   0  0  0  0  0  0  0  0  0  0  0  0
  1  5  1  0  0  0  0
  1 11  1  0  0  0  0
  1 12  2  0  0  0  0
  2  3  1  0  0  0  0
  2  4  1  0  0  0  0
  3  5  1  0  0  0  0
  4 10  1  0  0  0  0
  5  6  1  0  0  0  0
  6  7  1  0  0  0  0
  6 10  1  0  0  0  0
  8 11  1  0  0  0  0
  9 15  1  0  0  0  0
 10 15  1  0  0  0  0
 13 15  2  0  0  0  0
 14 15  2  0  0  0  0
 11 16  1  0  0  0  0
M  END
> <ref_mols>
x0841_0

> <original SMILES>
C[C@H]1N(S(=O)(C)=O)CCC[C@H]1C(NC)=O

> <Chemgauss4>
-6.611940

> <ref_pdb>
x0678_0

$$$$
x0908
  -OEChem-05172015543D

 14 14  0     1  0  0  0  0  0999 V2000
   10.9914   -0.4026   24.0866 C   0  0  0  0  0  0  0  0  0  0  0  0
   10.6317    1.0264   24.4886 C   0  0  0  0  0  0  0  0  0  0  0  0
   11.4054   -0.4782   22.6230 C   0  0  0  0  0  0  0  0  0  0  0  0
   11.7569    2.0206   24.1433 C   0  0  1  0  0  0  0  0  0  0  0  0
   12.1438    1.8876   22.6527 C   0  0  1  0  0  0  0  0  0  0  0  0
   11.3143    3.4388   24.5104 C   0  0  0  0  0  0  0  0  0  0  0  0
   14.1714   -1.5355   21.7718 C   0  0  0  0  0  0  0  0  0  0  0  0
   13.2391    2.8547   22.2077 C   0  0  0  0  0  0  0  0  0  0  0  0
   12.5340    0.4617   22.3597 N   0  0  1  0  0  0  0  0  0  0  0  0
   14.0503   -0.5244   24.1781 O   0  0  0  0  0  0  0  0  0  0  0  0
   15.0680    0.8563   22.3225 O   0  0  0  0  0  0  0  0  0  0  0  0
   12.6470    4.1156   21.9650 O   0  0  0  0  0  0  0  0  0  0  0  0
   14.0928   -0.0942   22.8009 S   0  0  0  0  0  0  0  0  0  0  0  0
   13.3577    4.7174   21.6832 H   0  0  0  0  0  0  0  0  0  0  0  0
  1  2  1  0  0  0  0
  1  3  1  0  0  0  0
  2  4  1  0  0  0  0
  3  9  1  0  0  0  0
  4  5  1  0  0  0  0
  4  6  1  0  0  0  0
  5  8  1  0  0  0  0
  5  9  1  0  0  0  0
  7 13  1  0  0  0  0
  8 12  1  0  0  0  0
  9 13  1  0  0  0  0
 10 13  2  0  0  0  0
 11 13  2  0  0  0  0
 12 14  1  0  0  0  0
M  END
> <ref_mols>
x0908_0

> <original SMILES>
C[C@@H]1[C@@H](CO)N(S(C)(=O)=O)CCC1

> <Chemgauss4>
-6.600513

> <ref_pdb>
x0195_0

$$$$
x0909
  -OEChem-05172015543D

 12 12  0     1  0  0  0  0  0999 V2000
   11.0580    2.1897   24.4414 C   0  0  0  0  0  0  0  0  0  0  0  0
   10.6305    3.1195   23.3137 C   0  0  0  0  0  0  0  0  0  0  0  0
   12.4973    2.2370   21.8760 C   0  0  0  0  0  0  0  0  0  0  0  0
   11.7622    0.9187   23.9393 C   0  0  2  0  0  0  0  0  0  0  0  0
   12.9350    1.2985   23.0053 C   0  0  1  0  0  0  0  0  0  0  0  0
   13.6501    0.0774   22.4228 C   0  0  0  0  0  0  0  0  0  0  0  0
   12.7349    4.4764   23.0165 C   0  0  0  0  0  0  0  0  0  0  0  0
   10.7523   -0.0484   23.3081 C   0  0  0  0  0  0  0  0  0  0  0  0
   11.7980    3.4585   22.4222 N   0  3  2  0  0  0  0  0  0  0  0  0
   10.1210    0.6080   22.2253 O   0  0  0  0  0  0  0  0  0  0  0  0
   11.3742    3.9498   21.5781 H   0  0  0  0  0  0  0  0  0  0  0  0
    9.4863   -0.0204   21.8399 H   0  0  0  0  0  0  0  0  0  0  0  0
  1  2  1  0  0  0  0
  1  4  1  0  0  0  0
  2  9  1  0  0  0  0
  3  5  1  0  0  0  0
  3  9  1  0  0  0  0
  4  5  1  0  0  0  0
  4  8  1  0  0  0  0
  5  6  1  0  0  0  0
  7  9  1  0  0  0  0
  8 10  1  0  0  0  0
  9 11  1  0  0  0  0
 10 12  1  0  0  0  0
M  CHG  1   9   1
M  END
> <ref_mols>
x0909_0

> <original SMILES>
C[C@H]1CN(C)CC[C@H]1CO

> <Chemgauss4>
-6.600132

> <ref_pdb>
x0104_0

$$$$
x0329
  -OEChem-05172015543D

 15 15  0     1  0  0  0  0  0999 V2000
    9.8160    0.3469   21.3184 C   0  0  0  0  0  0  0  0  0  0  0  0
   10.6185    0.5760   24.7463 C   0  0  0  0  0  0  0  0  0  0  0  0
   13.4552   -0.8125   23.9559 C   0  0  0  0  0  0  0  0  0  0  0  0
   12.0706   -2.0318   22.2528 C   0  0  0  0  0  0  0  0  0  0  0  0
   14.2444   -0.2263   22.7906 C   0  0  0  0  0  0  0  0  0  0  0  0
   12.9381   -1.3773   21.1833 C   0  0  0  0  0  0  0  0  0  0  0  0
   12.0305   -1.2087   23.5469 C   0  0  0  0  0  0  0  0  0  0  0  0
    8.6162   -0.1332   20.5713 C   0  0  0  0  0  0  0  0  0  0  0  0
   11.1228    0.0161   23.4078 C   0  0  1  0  0  0  0  0  0  0  0  0
   10.0211   -0.2924   22.5272 N   0  0  0  0  0  0  0  0  0  0  0  0
   11.3727    0.4179   25.7460 O   0  5  0  0  0  0  0  0  0  0  0  0
   10.5122    1.2335   20.8378 O   0  0  0  0  0  0  0  0  0  0  0  0
    9.4872    1.1398   24.6809 O   0  0  0  0  0  0  0  0  0  0  0  0
   14.2509   -1.1236   21.6813 O   0  0  0  0  0  0  0  0  0  0  0  0
    9.3642   -1.0147   22.8096 H   0  0  0  0  0  0  0  0  0  0  0  0
  1  8  1  0  0  0  0
  1 10  1  0  0  0  0
  1 12  2  0  0  0  0
  2  9  1  0  0  0  0
  2 11  1  0  0  0  0
  2 13  2  0  0  0  0
  3  5  1  0  0  0  0
  3  7  1  0  0  0  0
  4  6  1  0  0  0  0
  4  7  1  0  0  0  0
  5 14  1  0  0  0  0
  6 14  1  0  0  0  0
  7  9  1  0  0  0  0
  9 10  1  0  0  0  0
 10 15  1  0  0  0  0
M  CHG  1  11  -1
M  END
> <ref_mols>
x0329_0

> <original SMILES>
CC(=O)NC(C1CCOCC1)C(=O)O

> <Chemgauss4>
-6.589023

> <ref_pdb>
x0678_0

$$$$
x1172
  -OEChem-05172015543D

 15 15  0     1  0  0  0  0  0999 V2000
    9.8160    0.3469   21.3184 C   0  0  0  0  0  0  0  0  0  0  0  0
   10.6185    0.5760   24.7463 C   0  0  0  0  0  0  0  0  0  0  0  0
   13.4552   -0.8125   23.9559 C   0  0  0  0  0  0  0  0  0  0  0  0
   12.0706   -2.0318   22.2528 C   0  0  0  0  0  0  0  0  0  0  0  0
   14.2444   -0.2263   22.7906 C   0  0  0  0  0  0  0  0  0  0  0  0
   12.9381   -1.3773   21.1833 C   0  0  0  0  0  0  0  0  0  0  0  0
   12.0305   -1.2087   23.5469 C   0  0  0  0  0  0  0  0  0  0  0  0
    8.6162   -0.1332   20.5713 C   0  0  0  0  0  0  0  0  0  0  0  0
   11.1228    0.0161   23.4078 C   0  0  1  0  0  0  0  0  0  0  0  0
   10.0211   -0.2924   22.5272 N   0  0  0  0  0  0  0  0  0  0  0  0
   11.3727    0.4179   25.7460 O   0  5  0  0  0  0  0  0  0  0  0  0
   10.5122    1.2335   20.8378 O   0  0  0  0  0  0  0  0  0  0  0  0
    9.4872    1.1398   24.6809 O   0  0  0  0  0  0  0  0  0  0  0  0
   14.2509   -1.1236   21.6813 O   0  0  0  0  0  0  0  0  0  0  0  0
    9.3642   -1.0147   22.8096 H   0  0  0  0  0  0  0  0  0  0  0  0
  1  8  1  0  0  0  0
  1 10  1  0  0  0  0
  1 12  2  0  0  0  0
  2  9  1  0  0  0  0
  2 11  1  0  0  0  0
  2 13  2  0  0  0  0
  3  5  1  0  0  0  0
  3  7  1  0  0  0  0
  4  6  1  0  0  0  0
  4  7  1  0  0  0  0
  5 14  1  0  0  0  0
  6 14  1  0  0  0  0
  7  9  1  0  0  0  0
  9 10  1  0  0  0  0
 10 15  1  0  0  0  0
M  CHG  1  11  -1
M  END
> <ref_mols>
x1172_0

> <original SMILES>
CC(=O)NC(C1CCOCC1)C(=O)O

> <Chemgauss4>
-6.589023

> <ref_pdb>
x0678_0

$$$$
x0964
  -OEChem-05172015543D

 12 12  0     0  0  0  0  0  0999 V2000
   14.2958    0.9161   22.2566 C   0  0  0  0  0  0  0  0  0  0  0  0
   12.3094    0.4995   23.5673 C   0  0  0  0  0  0  0  0  0  0  0  0
   13.9973    2.2170   22.1652 C   0  0  0  0  0  0  0  0  0  0  0  0
   13.4204    0.0285   22.9831 C   0  0  0  0  0  0  0  0  0  0  0  0
   11.9637    1.9515   23.4736 C   0  0  0  0  0  0  0  0  0  0  0  0
   12.6233    4.1760   22.5973 C   0  0  0  0  0  0  0  0  0  0  0  0
   12.9768    4.8939   23.8870 C   0  0  0  0  0  0  0  0  0  0  0  0
   12.8618    2.7461   22.7523 N   0  0  0  0  0  0  0  0  0  0  0  0
   10.9377    2.3518   24.0215 O   0  0  0  0  0  0  0  0  0  0  0  0
   12.7765    6.2917   23.7197 O   0  0  0  0  0  0  0  0  0  0  0  0
   13.8921   -1.7755   23.0739 Br  0  0  0  0  0  0  0  0  0  0  0  0
   13.0128    6.7108   24.5627 H   0  0  0  0  0  0  0  0  0  0  0  0
  1  3  2  0  0  0  0
  1  4  1  0  0  0  0
  2  4  2  0  0  0  0
  2  5  1  0  0  0  0
  3  8  1  0  0  0  0
  4 11  1  0  0  0  0
  5  8  1  0  0  0  0
  5  9  2  0  0  0  0
  6  7  1  0  0  0  0
  6  8  1  0  0  0  0
  7 10  1  0  0  0  0
 10 12  1  0  0  0  0
M  END
> <ref_mols>
x0964_0

> <original SMILES>
O=C1N(CCO)C=CC(Br)=C1

> <Chemgauss4>
-6.584172

> <ref_pdb>
x0195_0

$$$$
x0332
  -OEChem-05172015543D

 17 17  0     0  0  0  0  0  0999 V2000
   11.7265    3.1789   23.4023 C   0  0  0  0  0  0  0  0  0  0  0  0
   13.7212    2.0260   22.6749 C   0  0  0  0  0  0  0  0  0  0  0  0
   11.1725    1.9647   23.8075 C   0  0  0  0  0  0  0  0  0  0  0  0
   13.1672    0.8117   23.0802 C   0  0  0  0  0  0  0  0  0  0  0  0
   13.0009    3.2096   22.8359 C   0  0  0  0  0  0  0  0  0  0  0  0
   11.8928    0.7811   23.6465 C   0  0  0  0  0  0  0  0  0  0  0  0
   13.5788    4.4757   22.4143 C   0  0  0  0  0  0  0  0  0  0  0  0
   11.0830   -1.1606   21.4788 C   0  0  0  0  0  0  0  0  0  0  0  0
   12.8192    5.6275   22.5979 N   0  0  0  0  0  0  0  0  0  0  0  0
   11.3253   -0.4620   24.0607 N   0  0  0  0  0  0  0  0  0  0  0  0
   14.7058    4.5318   21.8913 O   0  0  0  0  0  0  0  0  0  0  0  0
   12.9805   -2.1177   22.9791 O   0  0  0  0  0  0  0  0  0  0  0  0
   10.6178   -2.8904   23.3865 O   0  0  0  0  0  0  0  0  0  0  0  0
   11.5583   -1.8391   23.0530 S   0  0  0  0  0  0  0  0  0  0  0  0
   11.8975    5.5525   23.0145 H   0  0  0  0  0  0  0  0  0  0  0  0
   13.1672    6.5407   22.3242 H   0  0  0  0  0  0  0  0  0  0  0  0
   10.3786   -0.3816   24.4671 H   0  0  0  0  0  0  0  0  0  0  0  0
  1  3  2  0  0  0  0
  1  5  1  0  0  0  0
  2  4  1  0  0  0  0
  2  5  2  0  0  0  0
  3  6  1  0  0  0  0
  4  6  2  0  0  0  0
  5  7  1  0  0  0  0
  6 10  1  0  0  0  0
  7  9  1  0  0  0  0
  7 11  2  0  0  0  0
  8 14  1  0  0  0  0
 10 14  1  0  0  0  0
 12 14  2  0  0  0  0
 13 14  2  0  0  0  0
  9 15  1  0  0  0  0
  9 16  1  0  0  0  0
 10 17  1  0  0  0  0
M  END
> <ref_mols>
x0332_0

> <original SMILES>
CS(=O)(=O)NC=1C=CC(=CC1)C(=O)N

> <Chemgauss4>
-6.583884

> <ref_pdb>
x0195_0

$$$$
x0237
  -OEChem-05172015543D

 11 11  0     0  0  0  0  0  0999 V2000
   14.1684   -1.1432   22.2632 C   0  0  0  0  0  0  0  0  0  0  0  0
   12.9251   -1.5126   22.7643 C   0  0  0  0  0  0  0  0  0  0  0  0
   14.4833    0.2059   22.2395 C   0  0  0  0  0  0  0  0  0  0  0  0
   12.0471   -0.5355   23.2199 C   0  0  0  0  0  0  0  0  0  0  0  0
   12.4570    0.7864   23.1535 C   0  0  0  0  0  0  0  0  0  0  0  0
   10.7149   -0.9358   23.7566 C   0  0  0  0  0  0  0  0  0  0  0  0
   10.6147    3.9814   23.8754 C   0  0  0  0  0  0  0  0  0  0  0  0
   11.6775    3.1553   23.2347 C   0  0  0  0  0  0  0  0  0  0  0  0
   13.6567    1.1837   22.6732 N   0  0  0  0  0  0  0  0  0  0  0  0
   11.5657    1.7856   23.6176 N   0  0  0  0  0  0  0  0  0  0  0  0
   10.8413    1.4863   24.2378 H   0  0  0  0  0  0  0  0  0  0  0  0
  1  2  2  0  0  0  0
  1  3  1  0  0  0  0
  2  4  1  0  0  0  0
  3  9  2  0  0  0  0
  4  5  2  0  0  0  0
  4  6  1  0  0  0  0
  5  9  1  0  0  0  0
  5 10  1  0  0  0  0
  7  8  1  0  0  0  0
  8 10  1  0  0  0  0
 10 11  1  0  0  0  0
M  END
> <ref_mols>
x0237_0

> <original SMILES>
CCNC=1N=CC=CC1C

> <Chemgauss4>
-6.579196

> <ref_pdb>
x0195_0

$$$$
x0091
  -OEChem-05172015543D

 14 14  0     0  0  0  0  0  0999 V2000
   12.1996   -0.6817   23.7087 C   0  0  0  0  0  0  0  0  0  0  0  0
   11.4833   -0.0989   24.7713 C   0  0  0  0  0  0  0  0  0  0  0  0
   13.4960   -0.7381   24.1588 C   0  0  0  0  0  0  0  0  0  0  0  0
   10.0418    0.2012   24.8342 C   0  0  0  0  0  0  0  0  0  0  0  0
   14.7378   -1.2331   23.5406 C   0  0  0  0  0  0  0  0  0  0  0  0
   11.8419    1.3728   21.2678 C   0  0  0  0  0  0  0  0  0  0  0  0
    9.9348    0.0986   20.3734 C   0  0  0  0  0  0  0  0  0  0  0  0
   12.2601    0.1937   25.8176 N   0  0  0  0  0  0  0  0  0  0  0  0
   13.4780   -0.2068   25.4148 N   0  0  0  0  0  0  0  0  0  0  0  0
   10.9207    0.2270   21.4766 N   0  0  0  0  0  0  0  0  0  0  0  0
   12.7155   -1.6460   21.3481 O   0  0  0  0  0  0  0  0  0  0  0  0
   10.5026   -2.1622   22.4066 O   0  0  0  0  0  0  0  0  0  0  0  0
   11.5765   -1.2227   22.1417 S   0  0  0  0  0  0  0  0  0  0  0  0
   14.2558   -0.0866   26.0518 H   0  0  0  0  0  0  0  0  0  0  0  0
  1  2  1  0  0  0  0
  1  3  2  0  0  0  0
  1 13  1  0  0  0  0
  2  4  1  0  0  0  0
  2  8  2  0  0  0  0
  3  5  1  0  0  0  0
  3  9  1  0  0  0  0
  6 10  1  0  0  0  0
  7 10  1  0  0  0  0
  8  9  1  0  0  0  0
 10 13  1  0  0  0  0
 11 13  2  0  0  0  0
 12 13  2  0  0  0  0
  9 14  1  0  0  0  0
M  END
> <ref_mols>
x0091_0

> <original SMILES>
CN(C)S(=O)(=O)C=1C(C)=NNC1C

> <Chemgauss4>
-6.574100

> <ref_pdb>
x0678_0

$$$$
x2813
  -OEChem-05172015543D

 19 19  0     1  0  0  0  0  0999 V2000
    8.2145    0.1153   20.7697 C   0  0  0  0  0  0  0  0  0  0  0  0
   11.3845   -1.2019   22.4825 C   0  0  0  0  0  0  0  0  0  0  0  0
   10.2521   -0.5321   24.5088 C   0  0  0  0  0  0  0  0  0  0  0  0
   10.2569   -1.9233   22.0907 C   0  0  0  0  0  0  0  0  0  0  0  0
    9.1244   -1.2534   24.1170 C   0  0  0  0  0  0  0  0  0  0  0  0
   11.3822   -0.5064   23.6916 C   0  0  0  0  0  0  0  0  0  0  0  0
    9.1268   -1.9491   22.9079 C   0  0  0  0  0  0  0  0  0  0  0  0
    6.9126   -0.0433   18.0421 C   0  0  0  0  0  0  0  0  0  0  0  0
    5.4367   -1.8461   18.9660 C   0  0  0  0  0  0  0  0  0  0  0  0
   12.5880    0.2644   24.1111 C   0  0  0  0  0  0  0  0  0  0  0  0
    7.3961   -1.0402   20.3658 C   0  0  2  0  0  0  0  0  0  0  0  0
    6.3244   -0.6485   19.3225 C   0  0  0  0  0  0  0  0  0  0  0  0
    8.8625    1.0239   21.0878 N   0  0  0  0  0  0  0  0  0  0  0  0
    6.8245   -1.6704   21.5308 N   0  0  0  0  0  0  0  0  0  0  0  0
    8.1251   -3.8986   21.4915 O   0  0  0  0  0  0  0  0  0  0  0  0
    6.9759   -3.2101   23.6199 O   0  0  0  0  0  0  0  0  0  0  0  0
   12.2830    1.5845   24.2591 F   0  0  0  0  0  0  0  0  0  0  0  0
    7.6967   -2.8614   22.4106 S   0  0  0  0  0  0  0  0  0  0  0  0
    6.0979   -1.1407   22.0526 H   0  0  0  0  0  0  0  0  0  0  0  0
  1 11  1  0  0  0  0
  1 13  3  0  0  0  0
  2  4  2  0  0  0  0
  2  6  1  0  0  0  0
  3  5  1  0  0  0  0
  3  6  2  0  0  0  0
  4  7  1  0  0  0  0
  5  7  2  0  0  0  0
  6 10  1  0  0  0  0
  7 18  1  0  0  0  0
  8 12  1  0  0  0  0
  9 12  1  0  0  0  0
 10 17  1  0  0  0  0
 11 12  1  0  0  0  0
 11 14  1  0  0  0  0
 14 18  1  0  0  0  0
 15 18  2  0  0  0  0
 16 18  2  0  0  0  0
 14 19  1  0  0  0  0
M  END
> <ref_mols>
x2813_0

> <original SMILES>
CC(C)[C@H](NS(=O)(=O)C=1C=CC(CF)=CC1)C#N

> <Chemgauss4>
-6.573712

> <ref_pdb>
x1386_0

$$$$
x0885
  -OEChem-05172015543D

 12 12  0     1  0  0  0  0  0999 V2000
   14.0151   -0.8886   24.2405 C   0  0  0  0  0  0  0  0  0  0  0  0
   12.7152   -0.0927   24.2551 C   0  0  0  0  0  0  0  0  0  0  0  0
   13.8874   -2.1750   23.4416 C   0  0  0  0  0  0  0  0  0  0  0  0
   12.2073    0.1794   22.8335 C   0  0  1  0  0  0  0  0  0  0  0  0
   12.0702   -1.1135   22.0016 C   0  0  2  0  0  0  0  0  0  0  0  0
   10.9267   -2.0406   22.4226 C   0  0  0  0  0  0  0  0  0  0  0  0
   14.4407   -1.3386   21.1324 C   0  0  0  0  0  0  0  0  0  0  0  0
   10.9056    0.9826   22.8790 C   0  0  0  0  0  0  0  0  0  0  0  0
   13.3791   -1.9013   22.0450 N   0  3  1  0  0  0  0  0  0  0  0  0
   10.4851    1.2166   21.5506 O   0  0  0  0  0  0  0  0  0  0  0  0
   13.1506   -2.8524   21.6232 H   0  0  0  0  0  0  0  0  0  0  0  0
    9.6578    1.7274   21.5957 H   0  0  0  0  0  0  0  0  0  0  0  0
  1  2  1  0  0  0  0
  1  3  1  0  0  0  0
  2  4  1  0  0  0  0
  3  9  1  0  0  0  0
  4  5  1  0  0  0  0
  4  8  1  0  0  0  0
  5  6  1  0  0  0  0
  5  9  1  0  0  0  0
  7  9  1  0  0  0  0
  8 10  1  0  0  0  0
  9 11  1  0  0  0  0
 10 12  1  0  0  0  0
M  CHG  1   9   1
M  END
> <ref_mols>
x0885_0

> <original SMILES>
C[C@H]1[C@@H](CO)CCCN1C

> <Chemgauss4>
-6.570337

> <ref_pdb>
x0678_0

$$$$
x2512
  -OEChem-05172015543D

 34 36  0     1  0  0  0  0  0999 V2000
    2.8529   -4.3685   24.2396 C   0  0  0  0  0  0  0  0  0  0  0  0
    3.9041   -3.7047   23.6169 C   0  0  0  0  0  0  0  0  0  0  0  0
   11.1471   -3.7672   24.2305 C   0  0  0  0  0  0  0  0  0  0  0  0
    9.7928   -2.3958   25.6873 C   0  0  0  0  0  0  0  0  0  0  0  0
    9.9971   -4.2056   23.5741 C   0  0  0  0  0  0  0  0  0  0  0  0
    8.6428   -2.8341   25.0308 C   0  0  0  0  0  0  0  0  0  0  0  0
    7.5016    0.0439   20.0400 C   0  0  0  0  0  0  0  0  0  0  0  0
    5.9031   -1.5757   19.2284 C   0  0  0  0  0  0  0  0  0  0  0  0
    7.4624    0.6993   18.8094 C   0  0  0  0  0  0  0  0  0  0  0  0
    5.8639   -0.9203   17.9977 C   0  0  0  0  0  0  0  0  0  0  0  0
    3.1633   -5.3142   25.2036 C   0  0  0  0  0  0  0  0  0  0  0  0
    5.4196   -4.9645   24.9483 C   0  0  0  0  0  0  0  0  0  0  0  0
   11.0449   -2.8623   25.2872 C   0  0  0  0  0  0  0  0  0  0  0  0
    5.2149   -4.0026   23.9722 C   0  0  0  0  0  0  0  0  0  0  0  0
    6.7220   -1.0937   20.2495 C   0  0  0  0  0  0  0  0  0  0  0  0
    8.7449   -3.7391   23.9742 C   0  0  0  0  0  0  0  0  0  0  0  0
    6.6435    0.2173   17.7883 C   0  0  0  0  0  0  0  0  0  0  0  0
    8.2454   -7.8069   22.7494 C   0  0  0  0  0  0  0  0  0  0  0  0
    8.3068   -6.5786   23.2736 C   0  0  0  0  0  0  0  0  0  0  0  0
    7.4792   -5.4749   22.7043 C   0  0  0  0  0  0  0  0  0  0  0  0
    6.0552   -2.8974   21.8769 C   0  0  0  0  0  0  0  0  0  0  0  0
   12.4964   -0.2062   24.5829 C   0  0  0  0  0  0  0  0  0  0  0  0
   13.6232   -2.9861   25.4519 C   0  0  0  0  0  0  0  0  0  0  0  0
   12.2285   -2.8208   27.4941 C   0  0  0  0  0  0  0  0  0  0  0  0
   12.4288   -0.8231   25.9770 C   0  0  0  0  0  0  0  0  0  0  0  0
    6.3802   -3.2976   23.3138 C   0  0  2  0  0  0  0  0  0  0  0  0
   12.3144   -2.3785   26.0117 C   0  0  0  0  0  0  0  0  0  0  0  0
    4.4240   -5.6304   25.5753 N   0  0  0  0  0  0  0  0  0  0  0  0
    6.7615   -1.7584   21.4982 N   0  0  0  0  0  0  0  0  0  0  0  0
    7.5945   -4.1772   23.3176 N   0  0  0  0  0  0  0  0  0  0  0  0
    6.7231   -5.7232   21.7647 O   0  0  0  0  0  0  0  0  0  0  0  0
    5.2546   -3.5328   21.1961 O   0  0  0  0  0  0  0  0  0  0  0  0
    6.5905    1.1055   16.1210 Br  0  0  0  0  0  0  0  0  0  0  0  0
    7.3781   -1.3573   22.2016 H   0  0  0  0  0  0  0  0  0  0  0  0
  1  2  2  0  0  0  0
  1 11  1  0  0  0  0
  2 14  1  0  0  0  0
  3  5  2  0  0  0  0
  3 13  1  0  0  0  0
  4  6  1  0  0  0  0
  4 13  2  0  0  0  0
  5 16  1  0  0  0  0
  6 16  2  0  0  0  0
  7  9  2  0  0  0  0
  7 15  1  0  0  0  0
  8 10  1  0  0  0  0
  8 15  2  0  0  0  0
  9 17  1  0  0  0  0
 10 17  2  0  0  0  0
 11 28  2  0  0  0  0
 12 14  2  0  0  0  0
 12 28  1  0  0  0  0
 13 27  1  0  0  0  0
 14 26  1  0  0  0  0
 15 29  1  0  0  0  0
 16 30  1  0  0  0  0
 17 33  1  0  0  0  0
 18 19  2  0  0  0  0
 19 20  1  0  0  0  0
 20 30  1  0  0  0  0
 20 31  2  0  0  0  0
 21 26  1  0  0  0  0
 21 29  1  0  0  0  0
 21 32  2  0  0  0  0
 22 25  1  0  0  0  0
 23 27  1  0  0  0  0
 24 27  1  0  0  0  0
 25 27  1  0  0  0  0
 26 30  1  0  0  0  0
 29 34  1  0  0  0  0
M  END
> <ref_mols>
x2512_0

> <original SMILES>
CCC(C)(C)C=1C=CC(=CC1)N(C(C(=O)NC=2C=CC(Br)=CC2)C=3C=CC=NC3)C(=O)C=C

> <Chemgauss4>
-6.567985

> <ref_pdb>
x0749_0

> <CYS145-warhead dist minimum (A)>
4.725637

> <CYS145-warhead dist mean (A)>
6.1812315

> <CYS145-warhead dist stddev (A)>
0.3941902

$$$$
x2680
  -OEChem-05172015543D

 34 36  0     1  0  0  0  0  0999 V2000
    2.8529   -4.3685   24.2396 C   0  0  0  0  0  0  0  0  0  0  0  0
    3.9041   -3.7047   23.6169 C   0  0  0  0  0  0  0  0  0  0  0  0
   11.1471   -3.7672   24.2305 C   0  0  0  0  0  0  0  0  0  0  0  0
    9.7928   -2.3958   25.6873 C   0  0  0  0  0  0  0  0  0  0  0  0
    9.9971   -4.2056   23.5741 C   0  0  0  0  0  0  0  0  0  0  0  0
    8.6428   -2.8341   25.0308 C   0  0  0  0  0  0  0  0  0  0  0  0
    7.5016    0.0439   20.0400 C   0  0  0  0  0  0  0  0  0  0  0  0
    5.9031   -1.5757   19.2284 C   0  0  0  0  0  0  0  0  0  0  0  0
    7.4624    0.6993   18.8094 C   0  0  0  0  0  0  0  0  0  0  0  0
    5.8639   -0.9203   17.9977 C   0  0  0  0  0  0  0  0  0  0  0  0
    3.1633   -5.3142   25.2036 C   0  0  0  0  0  0  0  0  0  0  0  0
    5.4196   -4.9645   24.9483 C   0  0  0  0  0  0  0  0  0  0  0  0
   11.0449   -2.8623   25.2872 C   0  0  0  0  0  0  0  0  0  0  0  0
    5.2149   -4.0026   23.9722 C   0  0  0  0  0  0  0  0  0  0  0  0
    6.7220   -1.0937   20.2495 C   0  0  0  0  0  0  0  0  0  0  0  0
    8.7449   -3.7391   23.9742 C   0  0  0  0  0  0  0  0  0  0  0  0
    6.6435    0.2173   17.7883 C   0  0  0  0  0  0  0  0  0  0  0  0
    8.2454   -7.8069   22.7494 C   0  0  0  0  0  0  0  0  0  0  0  0
    8.3068   -6.5786   23.2736 C   0  0  0  0  0  0  0  0  0  0  0  0
    7.4792   -5.4749   22.7043 C   0  0  0  0  0  0  0  0  0  0  0  0
    6.0552   -2.8974   21.8769 C   0  0  0  0  0  0  0  0  0  0  0  0
   12.4964   -0.2062   24.5829 C   0  0  0  0  0  0  0  0  0  0  0  0
   13.6232   -2.9861   25.4519 C   0  0  0  0  0  0  0  0  0  0  0  0
   12.2285   -2.8208   27.4941 C   0  0  0  0  0  0  0  0  0  0  0  0
   12.4288   -0.8231   25.9770 C   0  0  0  0  0  0  0  0  0  0  0  0
    6.3802   -3.2976   23.3138 C   0  0  2  0  0  0  0  0  0  0  0  0
   12.3144   -2.3785   26.0117 C   0  0  0  0  0  0  0  0  0  0  0  0
    4.4240   -5.6304   25.5753 N   0  0  0  0  0  0  0  0  0  0  0  0
    6.7615   -1.7584   21.4982 N   0  0  0  0  0  0  0  0  0  0  0  0
    7.5945   -4.1772   23.3176 N   0  0  0  0  0  0  0  0  0  0  0  0
    6.7231   -5.7232   21.7647 O   0  0  0  0  0  0  0  0  0  0  0  0
    5.2546   -3.5328   21.1961 O   0  0  0  0  0  0  0  0  0  0  0  0
    6.5905    1.1055   16.1210 Br  0  0  0  0  0  0  0  0  0  0  0  0
    7.3781   -1.3573   22.2016 H   0  0  0  0  0  0  0  0  0  0  0  0
  1  2  2  0  0  0  0
  1 11  1  0  0  0  0
  2 14  1  0  0  0  0
  3  5  2  0  0  0  0
  3 13  1  0  0  0  0
  4  6  1  0  0  0  0
  4 13  2  0  0  0  0
  5 16  1  0  0  0  0
  6 16  2  0  0  0  0
  7  9  2  0  0  0  0
  7 15  1  0  0  0  0
  8 10  1  0  0  0  0
  8 15  2  0  0  0  0
  9 17  1  0  0  0  0
 10 17  2  0  0  0  0
 11 28  2  0  0  0  0
 12 14  2  0  0  0  0
 12 28  1  0  0  0  0
 13 27  1  0  0  0  0
 14 26  1  0  0  0  0
 15 29  1  0  0  0  0
 16 30  1  0  0  0  0
 17 33  1  0  0  0  0
 18 19  2  0  0  0  0
 19 20  1  0  0  0  0
 20 30  1  0  0  0  0
 20 31  2  0  0  0  0
 21 26  1  0  0  0  0
 21 29  1  0  0  0  0
 21 32  2  0  0  0  0
 22 25  1  0  0  0  0
 23 27  1  0  0  0  0
 24 27  1  0  0  0  0
 25 27  1  0  0  0  0
 26 30  1  0  0  0  0
 29 34  1  0  0  0  0
M  END
> <ref_mols>
x2680_0

> <original SMILES>
CCC(C)(C)C=1C=CC(=CC1)N(C(C(=O)NC=2C=CC(Br)=CC2)C=3C=CC=NC3)C(=O)C=C

> <Chemgauss4>
-6.567985

> <ref_pdb>
x0749_0

> <CYS145-warhead dist minimum (A)>
8.932904

> <CYS145-warhead dist mean (A)>
9.691324

> <CYS145-warhead dist stddev (A)>
0.23951343

$$$$
x0671
  -OEChem-05172015543D

 14 14  0     0  0  0  0  0  0999 V2000
    6.7067   -3.9794   20.3960 C   0  0  0  0  0  0  0  0  0  0  0  0
    6.5933   -3.0528   22.7294 C   0  0  0  0  0  0  0  0  0  0  0  0
    7.4557   -1.6609   20.7952 C   0  0  0  0  0  0  0  0  0  0  0  0
    8.0361   -3.2513   23.1897 C   0  0  0  0  0  0  0  0  0  0  0  0
    8.8771   -1.9133   21.2919 C   0  0  0  0  0  0  0  0  0  0  0  0
    6.4713   -2.7385   21.2422 C   0  0  0  0  0  0  0  0  0  0  0  0
    9.3529    0.3557   24.5154 C   0  0  0  0  0  0  0  0  0  0  0  0
    9.9283   -0.9772   24.9392 C   0  0  0  0  0  0  0  0  0  0  0  0
    8.8638   -2.0836   22.7728 N   0  0  0  0  0  0  0  0  0  0  0  0
    7.8425   -4.5140   20.5274 O   0  5  0  0  0  0  0  0  0  0  0  0
    5.7314   -4.3166   19.6678 O   0  0  0  0  0  0  0  0  0  0  0  0
   11.2658   -1.1660   22.7025 O   0  0  0  0  0  0  0  0  0  0  0  0
   10.7784   -3.2691   24.0160 O   0  0  0  0  0  0  0  0  0  0  0  0
   10.3929   -1.9603   23.5377 S   0  0  0  0  0  0  0  0  0  0  0  0
  1  6  1  0  0  0  0
  1 10  1  0  0  0  0
  1 11  2  0  0  0  0
  2  4  1  0  0  0  0
  2  6  1  0  0  0  0
  3  5  1  0  0  0  0
  3  6  1  0  0  0  0
  4  9  1  0  0  0  0
  5  9  1  0  0  0  0
  7  8  1  0  0  0  0
  8 14  1  0  0  0  0
  9 14  1  0  0  0  0
 12 14  2  0  0  0  0
 13 14  2  0  0  0  0
M  CHG  1  10  -1
M  END
> <ref_mols>
x0671_0

> <original SMILES>
CCS(=O)(=O)N1CCC(CC1)C(=O)O

> <Chemgauss4>
-6.566713

> <ref_pdb>
x0830_0

$$$$
x0961
  -OEChem-05172015543D

 12 12  0     0  0  0  0  0  0999 V2000
   14.2041    0.9565   22.2275 C   0  0  0  0  0  0  0  0  0  0  0  0
   13.8872    2.3120   22.3152 C   0  0  0  0  0  0  0  0  0  0  0  0
   11.8829    1.7636   23.5479 C   0  0  0  0  0  0  0  0  0  0  0  0
   13.3604    0.0044   22.7999 C   0  0  0  0  0  0  0  0  0  0  0  0
   12.1999    0.4080   23.4601 C   0  0  0  0  0  0  0  0  0  0  0  0
   12.7266    2.7155   22.9755 C   0  0  0  0  0  0  0  0  0  0  0  0
   10.2013   -0.0089   24.6798 C   0  0  0  0  0  0  0  0  0  0  0  0
   13.7150   -1.4421   22.6958 C   0  0  0  0  0  0  0  0  0  0  0  0
   12.6783   -2.1328   22.0105 O   0  0  0  0  0  0  0  0  0  0  0  0
   11.3652   -0.5090   24.0247 O   0  0  0  0  0  0  0  0  0  0  0  0
   12.2987    4.5528   23.0953 Br  0  0  0  0  0  0  0  0  0  0  0  0
   12.9463   -3.0647   21.9643 H   0  0  0  0  0  0  0  0  0  0  0  0
  1  2  1  0  0  0  0
  1  4  2  0  0  0  0
  2  6  2  0  0  0  0
  3  5  2  0  0  0  0
  3  6  1  0  0  0  0
  4  5  1  0  0  0  0
  4  8  1  0  0  0  0
  5 10  1  0  0  0  0
  6 11  1  0  0  0  0
  7 10  1  0  0  0  0
  8  9  1  0  0  0  0
  9 12  1  0  0  0  0
M  END
> <ref_mols>
x0961_0

> <original SMILES>
BrC1=CC(OC)=C(CO)C=C1

> <Chemgauss4>
-6.566291

> <ref_pdb>
x0195_0

$$$$
x2751
  -OEChem-05172015543D

 14 14  0     0  0  0  0  0  0999 V2000
    3.5039   -6.5053   22.9950 C   0  0  0  0  0  0  0  0  0  0  0  0
    4.6374   -6.2350   23.6457 C   0  0  0  0  0  0  0  0  0  0  0  0
    5.6429   -5.3672   22.9978 C   0  0  0  0  0  0  0  0  0  0  0  0
    8.1643   -4.3457   25.6655 C   0  0  0  0  0  0  0  0  0  0  0  0
    9.2446   -5.5278   23.6713 C   0  0  0  0  0  0  0  0  0  0  0  0
    6.8999   -5.0490   25.1773 C   0  0  0  0  0  0  0  0  0  0  0  0
    8.0587   -4.8773   22.9674 C   0  0  0  0  0  0  0  0  0  0  0  0
    9.4352   -4.9691   25.0852 C   0  0  0  0  0  0  0  0  0  0  0  0
    6.8140   -5.1078   23.7089 N   0  0  0  0  0  0  0  0  0  0  0  0
    9.8840   -6.0807   25.9720 N   0  3  0  0  0  0  0  0  0  0  0  0
    5.3930   -4.9337   21.8724 O   0  0  0  0  0  0  0  0  0  0  0  0
    9.1772   -6.8192   26.0086 H   0  0  0  0  0  0  0  0  0  0  0  0
   10.0426   -5.7392   26.9233 H   0  0  0  0  0  0  0  0  0  0  0  0
   10.7568   -6.4868   25.6257 H   0  0  0  0  0  0  0  0  0  0  0  0
  1  2  2  0  0  0  0
  2  3  1  0  0  0  0
  3  9  1  0  0  0  0
  3 11  2  0  0  0  0
  4  6  1  0  0  0  0
  4  8  1  0  0  0  0
  5  7  1  0  0  0  0
  5  8  1  0  0  0  0
  6  9  1  0  0  0  0
  7  9  1  0  0  0  0
  8 10  1  0  0  0  0
 10 12  1  0  0  0  0
 10 13  1  0  0  0  0
 10 14  1  0  0  0  0
M  CHG  1  10   1
M  END
> <ref_mols>
x2751_0

> <original SMILES>
NC1CCN(CC1)C(=O)C=C

> <Chemgauss4>
-6.566169

> <ref_pdb>
x1311_0

> <CYS145-warhead dist minimum (A)>
28.820974

> <CYS145-warhead dist mean (A)>
38.547222

> <CYS145-warhead dist stddev (A)>
3.088438

$$$$
x2032
  -OEChem-05172015543D

 14 14  0     0  0  0  0  0  0999 V2000
    3.5039   -6.5053   22.9950 C   0  0  0  0  0  0  0  0  0  0  0  0
    4.6374   -6.2350   23.6457 C   0  0  0  0  0  0  0  0  0  0  0  0
    5.6429   -5.3672   22.9978 C   0  0  0  0  0  0  0  0  0  0  0  0
    8.1643   -4.3457   25.6655 C   0  0  0  0  0  0  0  0  0  0  0  0
    9.2446   -5.5278   23.6713 C   0  0  0  0  0  0  0  0  0  0  0  0
    6.8999   -5.0490   25.1773 C   0  0  0  0  0  0  0  0  0  0  0  0
    8.0587   -4.8773   22.9674 C   0  0  0  0  0  0  0  0  0  0  0  0
    9.4352   -4.9691   25.0852 C   0  0  0  0  0  0  0  0  0  0  0  0
    6.8140   -5.1078   23.7089 N   0  0  0  0  0  0  0  0  0  0  0  0
    9.8840   -6.0807   25.9720 N   0  3  0  0  0  0  0  0  0  0  0  0
    5.3930   -4.9337   21.8724 O   0  0  0  0  0  0  0  0  0  0  0  0
    9.1772   -6.8192   26.0086 H   0  0  0  0  0  0  0  0  0  0  0  0
   10.0426   -5.7392   26.9233 H   0  0  0  0  0  0  0  0  0  0  0  0
   10.7568   -6.4868   25.6257 H   0  0  0  0  0  0  0  0  0  0  0  0
  1  2  2  0  0  0  0
  2  3  1  0  0  0  0
  3  9  1  0  0  0  0
  3 11  2  0  0  0  0
  4  6  1  0  0  0  0
  4  8  1  0  0  0  0
  5  7  1  0  0  0  0
  5  8  1  0  0  0  0
  6  9  1  0  0  0  0
  7  9  1  0  0  0  0
  8 10  1  0  0  0  0
 10 12  1  0  0  0  0
 10 13  1  0  0  0  0
 10 14  1  0  0  0  0
M  CHG  1  10   1
M  END
> <ref_mols>
x2032_0

> <original SMILES>
NC1CCN(CC1)C(=O)C=C

> <Chemgauss4>
-6.566169

> <ref_pdb>
x1311_0

> <CYS145-warhead dist minimum (A)>
50.709805

> <CYS145-warhead dist mean (A)>
54.88553

> <CYS145-warhead dist stddev (A)>
1.8608248

$$$$
x1042
  -OEChem-05172015543D

 10 10  0     0  0  0  0  0  0999 V2000
   11.1875    0.1456   23.4207 C   0  0  0  0  0  0  0  0  0  0  0  0
   12.5274    0.4200   23.5848 C   0  0  0  0  0  0  0  0  0  0  0  0
   12.1575   -1.6153   22.2541 C   0  0  0  0  0  0  0  0  0  0  0  0
   10.9731   -1.0334   22.6500 C   0  0  0  0  0  0  0  0  0  0  0  0
    9.6331   -1.5685   22.3141 C   0  0  0  0  0  0  0  0  0  0  0  0
    9.0768   -1.0361   21.0349 N   0  3  0  0  0  0  0  0  0  0  0  0
   13.5204   -0.7412   22.8114 S   0  0  0  0  0  0  0  0  0  0  0  0
    8.0551   -1.0666   21.0493 H   0  0  0  0  0  0  0  0  0  0  0  0
    9.4062   -1.5931   20.2433 H   0  0  0  0  0  0  0  0  0  0  0  0
    9.3701   -0.0671   20.8935 H   0  0  0  0  0  0  0  0  0  0  0  0
  1  2  2  0  0  0  0
  1  4  1  0  0  0  0
  2  7  1  0  0  0  0
  3  4  2  0  0  0  0
  3  7  1  0  0  0  0
  4  5  1  0  0  0  0
  5  6  1  0  0  0  0
  6  8  1  0  0  0  0
  6  9  1  0  0  0  0
  6 10  1  0  0  0  0
M  CHG  1   6   1
M  END
> <ref_mols>
x1042_0

> <original SMILES>
NCC=1C=CSC1

> <Chemgauss4>
-6.562441

> <ref_pdb>
x1093_0

$$$$
x0117
  -OEChem-05172015543D

 13 13  0     0  0  0  0  0  0999 V2000
   11.2924    5.2398   23.6926 C   0  0  0  0  0  0  0  0  0  0  0  0
   11.5580   -0.2004   23.9714 C   0  0  0  0  0  0  0  0  0  0  0  0
   10.5035    0.6654   24.6621 C   0  0  0  0  0  0  0  0  0  0  0  0
   12.5403    0.7685   23.3150 C   0  0  0  0  0  0  0  0  0  0  0  0
   10.8832    2.1169   24.3698 C   0  0  0  0  0  0  0  0  0  0  0  0
   11.7212    2.0385   23.0962 C   0  0  0  0  0  0  0  0  0  0  0  0
   10.4288    6.3748   23.2519 C   0  0  0  0  0  0  0  0  0  0  0  0
   12.5734    3.2762   22.8646 C   0  0  0  0  0  0  0  0  0  0  0  0
   11.7377    4.4145   22.6635 N   0  0  0  0  0  0  0  0  0  0  0  0
   11.5513    5.1043   24.8827 O   0  0  0  0  0  0  0  0  0  0  0  0
   10.8483    1.8626   21.9814 O   0  0  0  0  0  0  0  0  0  0  0  0
   11.4484    4.6377   21.7065 H   0  0  0  0  0  0  0  0  0  0  0  0
   10.3545    2.6912   21.8858 H   0  0  0  0  0  0  0  0  0  0  0  0
  1  7  1  0  0  0  0
  1  9  1  0  0  0  0
  1 10  2  0  0  0  0
  2  3  1  0  0  0  0
  2  4  1  0  0  0  0
  3  5  1  0  0  0  0
  4  6  1  0  0  0  0
  5  6  1  0  0  0  0
  6  8  1  0  0  0  0
  6 11  1  0  0  0  0
  8  9  1  0  0  0  0
  9 12  1  0  0  0  0
 11 13  1  0  0  0  0
M  END
> <ref_mols>
x0117_0

> <original SMILES>
CC(=O)NCC1(O)CCCC1

> <Chemgauss4>
-6.560664

> <ref_pdb>
x0104_0

$$$$
x0946
  -OEChem-05172015543D

 13 13  0     0  0  0  0  0  0999 V2000
   11.9838    0.5883   23.3322 C   0  0  0  0  0  0  0  0  0  0  0  0
   14.0267    1.3565   22.2960 C   0  0  0  0  0  0  0  0  0  0  0  0
   11.6123    1.9098   23.5795 C   0  0  0  0  0  0  0  0  0  0  0  0
   13.6551    2.6780   22.5433 C   0  0  0  0  0  0  0  0  0  0  0  0
   13.1911    0.3116   22.6905 C   0  0  0  0  0  0  0  0  0  0  0  0
   12.4479    2.9547   23.1851 C   0  0  0  0  0  0  0  0  0  0  0  0
   12.3267   -2.1847   23.0455 N   0  0  0  0  0  0  0  0  0  0  0  0
   13.6768   -1.5539   20.9420 O   0  0  0  0  0  0  0  0  0  0  0  0
   14.8423   -1.6440   23.1739 O   0  0  0  0  0  0  0  0  0  0  0  0
   13.6573   -1.3421   22.3827 S   0  0  0  0  0  0  0  0  0  0  0  0
   11.9448    4.7452   23.5203 Br  0  0  0  0  0  0  0  0  0  0  0  0
   11.6742   -2.6419   22.3970 H   0  0  0  0  0  0  0  0  0  0  0  0
   12.4711   -2.7010   23.9218 H   0  0  0  0  0  0  0  0  0  0  0  0
  1  3  2  0  0  0  0
  1  5  1  0  0  0  0
  2  4  1  0  0  0  0
  2  5  2  0  0  0  0
  3  6  1  0  0  0  0
  4  6  2  0  0  0  0
  5 10  1  0  0  0  0
  6 11  1  0  0  0  0
  7 10  1  0  0  0  0
  8 10  2  0  0  0  0
  9 10  2  0  0  0  0
  7 12  1  0  0  0  0
  7 13  1  0  0  0  0
M  END
> <ref_mols>
x0946_0

> <original SMILES>
BrC1=CC=C(S(N)(=O)=O)C=C1

> <Chemgauss4>
-6.559289

> <ref_pdb>
x0195_0

$$$$
x0274
  -OEChem-05172015543D

 13 13  0     0  0  0  0  0  0999 V2000
    7.2740    0.0105   21.1105 C   0  0  0  0  0  0  0  0  0  0  0  0
    8.2736    0.0256   22.1123 C   0  0  0  0  0  0  0  0  0  0  0  0
    7.9390    0.0437   19.9069 C   0  0  0  0  0  0  0  0  0  0  0  0
    9.4782    0.0668   21.4495 C   0  0  0  0  0  0  0  0  0  0  0  0
    7.2693    0.0441   18.5310 C   0  0  0  0  0  0  0  0  0  0  0  0
   13.0423   -1.1438   22.1958 C   0  0  0  0  0  0  0  0  0  0  0  0
   10.8679   -2.3410   22.3954 C   0  0  0  0  0  0  0  0  0  0  0  0
   10.9043    0.1019   21.9141 C   0  0  0  0  0  0  0  0  0  0  0  0
   11.6121   -1.2117   21.7416 N   0  3  0  0  0  0  0  0  0  0  0  0
    8.0383    0.0777   17.5324 O   0  5  0  0  0  0  0  0  0  0  0  0
    6.0089    0.0111   18.5200 O   0  0  0  0  0  0  0  0  0  0  0  0
    9.2829    0.0779   20.1048 O   0  0  0  0  0  0  0  0  0  0  0  0
   11.6291   -1.4108   20.7322 H   0  0  0  0  0  0  0  0  0  0  0  0
  1  2  1  0  0  0  0
  1  3  2  0  0  0  0
  2  4  2  0  0  0  0
  3  5  1  0  0  0  0
  3 12  1  0  0  0  0
  4  8  1  0  0  0  0
  4 12  1  0  0  0  0
  5 10  1  0  0  0  0
  5 11  2  0  0  0  0
  6  9  1  0  0  0  0
  7  9  1  0  0  0  0
  8  9  1  0  0  0  0
  9 13  1  0  0  0  0
M  CHG  2   9   1  10  -1
M  END
> <ref_mols>
x0274_0

> <original SMILES>
CN(C)CC1=CC=C(O1)C(=O)O

> <Chemgauss4>
-6.557272

> <ref_pdb>
x0678_0

$$$$
x0190
  -OEChem-05172015543D

 12 12  0     0  0  0  0  0  0999 V2000
   11.5937    1.8478   23.6558 C   0  0  0  0  0  0  0  0  0  0  0  0
   14.1906   -0.9001   22.9257 C   0  0  0  0  0  0  0  0  0  0  0  0
   13.6697    0.4385   23.4495 C   0  0  0  0  0  0  0  0  0  0  0  0
   11.3772   -0.6075   23.5977 C   0  0  0  0  0  0  0  0  0  0  0  0
   13.6062   -1.2978   21.5782 C   0  0  0  0  0  0  0  0  0  0  0  0
   11.1397   -1.1659   22.2039 C   0  0  0  0  0  0  0  0  0  0  0  0
   12.5030    3.0531   23.6267 C   0  0  0  0  0  0  0  0  0  0  0  0
   12.2148    0.5939   23.5622 N   0  0  0  0  0  0  0  0  0  0  0  0
   12.2976   -1.9940   21.7581 N   0  3  0  0  0  0  0  0  0  0  0  0
   10.3750    2.0137   23.7516 O   0  0  0  0  0  0  0  0  0  0  0  0
   12.0493   -2.4143   20.8439 H   0  0  0  0  0  0  0  0  0  0  0  0
   12.4170   -2.8120   22.3852 H   0  0  0  0  0  0  0  0  0  0  0  0
  1  7  1  0  0  0  0
  1  8  1  0  0  0  0
  1 10  2  0  0  0  0
  2  3  1  0  0  0  0
  2  5  1  0  0  0  0
  3  8  1  0  0  0  0
  4  6  1  0  0  0  0
  4  8  1  0  0  0  0
  5  9  1  0  0  0  0
  6  9  1  0  0  0  0
  9 11  1  0  0  0  0
  9 12  1  0  0  0  0
M  CHG  1   9   1
M  END
> <ref_mols>
x0190_0

> <original SMILES>
CC(=O)N1CCCNCC1

> <Chemgauss4>
-6.556643

> <ref_pdb>
x0195_0

$$$$
x0870
  -OEChem-05172015543D

 13 13  0     1  0  0  0  0  0999 V2000
   12.3097   -1.4232   22.6021 C   0  0  0  0  0  0  0  0  0  0  0  0
   14.2335    1.5808   22.5990 C   0  0  0  0  0  0  0  0  0  0  0  0
   12.9910    2.4497   22.3825 C   0  0  0  0  0  0  0  0  0  0  0  0
   13.9501    0.3281   23.4243 C   0  0  0  0  0  0  0  0  0  0  0  0
   11.9408    2.2277   23.4805 C   0  0  2  0  0  0  0  0  0  0  0  0
   11.4934    0.7410   23.5014 C   0  0  2  0  0  0  0  0  0  0  0  0
   10.8519   -1.7545   22.4079 C   0  0  0  0  0  0  0  0  0  0  0  0
   10.8922    0.3575   24.8578 C   0  0  0  0  0  0  0  0  0  0  0  0
   10.7526    3.1689   23.2697 C   0  0  0  0  0  0  0  0  0  0  0  0
   12.6016   -0.1748   23.1564 N   0  0  0  0  0  0  0  0  0  0  0  0
   13.1664   -2.2483   22.2737 O   0  0  0  0  0  0  0  0  0  0  0  0
   11.2257    4.4987   23.3345 O   0  0  0  0  0  0  0  0  0  0  0  0
   10.4601    5.0842   23.1989 H   0  0  0  0  0  0  0  0  0  0  0  0
  1  7  1  0  0  0  0
  1 10  1  0  0  0  0
  1 11  2  0  0  0  0
  2  3  1  0  0  0  0
  2  4  1  0  0  0  0
  3  5  1  0  0  0  0
  4 10  1  0  0  0  0
  5  6  1  0  0  0  0
  5  9  1  0  0  0  0
  6  8  1  0  0  0  0
  6 10  1  0  0  0  0
  9 12  1  0  0  0  0
 12 13  1  0  0  0  0
M  END
> <ref_mols>
x0870_0

> <original SMILES>
C[C@H]1[C@H](CO)CCCN1C(C)=O

> <Chemgauss4>
-6.551220

> <ref_pdb>
x0195_0

$$$$
x0105
  -OEChem-05172015543D

 13 13  0     0  0  0  0  0  0999 V2000
   10.3957   -1.1719   23.6587 C   0  0  0  0  0  0  0  0  0  0  0  0
    9.3833   -1.0858   24.7920 C   0  0  0  0  0  0  0  0  0  0  0  0
    9.9032   -2.3016   22.7659 C   0  0  0  0  0  0  0  0  0  0  0  0
    8.3583   -2.1716   24.4980 C   0  0  0  0  0  0  0  0  0  0  0  0
    8.4015   -6.1090   23.6566 C   0  0  0  0  0  0  0  0  0  0  0  0
    7.8908   -4.8986   25.8013 C   0  0  0  0  0  0  0  0  0  0  0  0
    9.8035   -4.1017   24.3718 C   0  0  0  0  0  0  0  0  0  0  0  0
    8.9947   -5.3246   24.8296 C   0  0  0  0  0  0  0  0  0  0  0  0
    9.0151   -3.1268   23.5957 N   0  0  0  0  0  0  0  0  0  0  0  0
    9.9107   -6.2469   25.5752 N   0  3  0  0  0  0  0  0  0  0  0  0
   10.8229   -5.8084   25.7044 H   0  0  0  0  0  0  0  0  0  0  0  0
   10.0351   -7.1155   25.0542 H   0  0  0  0  0  0  0  0  0  0  0  0
    9.5193   -6.4668   26.4915 H   0  0  0  0  0  0  0  0  0  0  0  0
  1  2  1  0  0  0  0
  1  3  1  0  0  0  0
  2  4  1  0  0  0  0
  3  9  1  0  0  0  0
  4  9  1  0  0  0  0
  5  8  1  0  0  0  0
  6  8  1  0  0  0  0
  7  8  1  0  0  0  0
  7  9  1  0  0  0  0
  8 10  1  0  0  0  0
 10 11  1  0  0  0  0
 10 12  1  0  0  0  0
 10 13  1  0  0  0  0
M  CHG  1  10   1
M  END
> <ref_mols>
x0105_0

> <original SMILES>
CC(C)(N)CN1CCCC1

> <Chemgauss4>
-6.548748

> <ref_pdb>
x1077_0

$$$$
x0146
  -OEChem-05172015543D

 11 11  0     0  0  0  0  0  0999 V2000
    4.9233    1.0906   18.6679 C   0  0  0  0  0  0  0  0  0  0  0  0
    5.7475    0.7086   17.6291 C   0  0  0  0  0  0  0  0  0  0  0  0
    5.4505    0.9409   19.9344 C   0  0  0  0  0  0  0  0  0  0  0  0
    7.3919    0.1195   19.0838 C   0  0  0  0  0  0  0  0  0  0  0  0
    9.2505   -0.5509   20.6075 C   0  0  0  0  0  0  0  0  0  0  0  0
    5.2879    1.1217   22.3001 C   0  0  0  0  0  0  0  0  0  0  0  0
    6.9921    0.2172   17.8016 N   0  0  0  0  0  0  0  0  0  0  0  0
    6.6857    0.4566   20.1798 N   0  0  0  0  0  0  0  0  0  0  0  0
    8.6899   -0.3916   19.3025 N   0  0  0  0  0  0  0  0  0  0  0  0
    4.6940    1.2975   21.0191 O   0  0  0  0  0  0  0  0  0  0  0  0
    9.2196   -0.6445   18.4906 H   0  0  0  0  0  0  0  0  0  0  0  0
  1  2  1  0  0  0  0
  1  3  2  0  0  0  0
  2  7  2  0  0  0  0
  3  8  1  0  0  0  0
  3 10  1  0  0  0  0
  4  7  1  0  0  0  0
  4  8  2  0  0  0  0
  4  9  1  0  0  0  0
  5  9  1  0  0  0  0
  6 10  1  0  0  0  0
  9 11  1  0  0  0  0
M  END
> <ref_mols>
x0146_0

> <original SMILES>
CNC=1N=CC=C(OC)N1

> <Chemgauss4>
-6.543007

> <ref_pdb>
x0540_0

$$$$
x0299
  -OEChem-05172015543D

 14 14  0     0  0  0  0  0  0999 V2000
   13.6704    0.2380   22.5789 C   0  0  0  0  0  0  0  0  0  0  0  0
   13.4259    3.1535   21.6592 C   0  0  0  0  0  0  0  0  0  0  0  0
   11.8754    3.3339   23.5123 C   0  0  0  0  0  0  0  0  0  0  0  0
   13.9446    4.5635   21.9154 C   0  0  0  0  0  0  0  0  0  0  0  0
   12.3542    4.7486   23.8156 C   0  0  0  0  0  0  0  0  0  0  0  0
   14.2798   -2.1355   23.0364 C   0  0  0  0  0  0  0  0  0  0  0  0
   12.4854    1.1670   22.6496 C   0  0  0  0  0  0  0  0  0  0  0  0
   12.9464    2.5317   22.9025 N   0  0  0  0  0  0  0  0  0  0  0  0
   13.3371   -1.0406   23.0025 N   0  0  0  0  0  0  0  0  0  0  0  0
   12.8653    5.3687   22.5583 N   0  3  0  0  0  0  0  0  0  0  0  0
   14.7814    0.5881   22.1898 O   0  0  0  0  0  0  0  0  0  0  0  0
   12.3829   -1.2158   23.3038 H   0  0  0  0  0  0  0  0  0  0  0  0
   13.2156    6.3159   22.7592 H   0  0  0  0  0  0  0  0  0  0  0  0
   12.0877    5.4925   21.8955 H   0  0  0  0  0  0  0  0  0  0  0  0
  1  7  1  0  0  0  0
  1  9  1  0  0  0  0
  1 11  2  0  0  0  0
  2  4  1  0  0  0  0
  2  8  1  0  0  0  0
  3  5  1  0  0  0  0
  3  8  1  0  0  0  0
  4 10  1  0  0  0  0
  5 10  1  0  0  0  0
  6  9  1  0  0  0  0
  7  8  1  0  0  0  0
  9 12  1  0  0  0  0
 10 13  1  0  0  0  0
 10 14  1  0  0  0  0
M  CHG  1  10   1
M  END
> <ref_mols>
x0299_0

> <original SMILES>
CNC(=O)CN1CCNCC1

> <Chemgauss4>
-6.526472

> <ref_pdb>
x0195_0

$$$$
x1404
  -OEChem-05172015543D

 19 20  0     0  0  0  0  0  0999 V2000
   11.8980   -3.4875   25.3363 C   0  0  0  0  0  0  0  0  0  0  0  0
   12.1994   -1.3818   24.1908 C   0  0  0  0  0  0  0  0  0  0  0  0
   13.0334   -3.2318   26.1051 C   0  0  0  0  0  0  0  0  0  0  0  0
   13.3348   -1.1261   24.9597 C   0  0  0  0  0  0  0  0  0  0  0  0
    9.4862   -3.9634   23.6595 C   0  0  0  0  0  0  0  0  0  0  0  0
   11.4810   -2.5625   24.3791 C   0  0  0  0  0  0  0  0  0  0  0  0
   13.7518   -2.0511   25.9169 C   0  0  0  0  0  0  0  0  0  0  0  0
   10.3119   -2.8256   23.5877 C   0  0  0  0  0  0  0  0  0  0  0  0
    8.5136   -3.7419   22.7153 C   0  0  0  0  0  0  0  0  0  0  0  0
    6.7169   -5.3994   23.1480 C   0  0  0  0  0  0  0  0  0  0  0  0
    8.0724   -1.8577   21.1097 C   0  0  0  0  0  0  0  0  0  0  0  0
    6.1346   -6.5528   22.3643 C   0  0  0  0  0  0  0  0  0  0  0  0
    9.9000   -1.9465   22.6703 N   0  0  0  0  0  0  0  0  0  0  0  0
    8.8048   -2.5321   22.1569 N   0  0  0  0  0  0  0  0  0  0  0  0
    7.4423   -4.5067   22.3397 N   0  0  0  0  0  0  0  0  0  0  0  0
    6.5479   -5.3305   24.3624 O   0  0  0  0  0  0  0  0  0  0  0  0
   15.1535   -1.7352   26.8641 Cl  0  0  0  0  0  0  0  0  0  0  0  0
    7.3285   -7.8605   22.3604 Cl  0  0  0  0  0  0  0  0  0  0  0  0
    7.1349   -4.4187   21.3605 H   0  0  0  0  0  0  0  0  0  0  0  0
  1  3  2  0  0  0  0
  1  6  1  0  0  0  0
  2  4  1  0  0  0  0
  2  6  2  0  0  0  0
  3  7  1  0  0  0  0
  4  7  2  0  0  0  0
  5  8  1  0  0  0  0
  5  9  2  0  0  0  0
  6  8  1  0  0  0  0
  7 17  1  0  0  0  0
  8 13  2  0  0  0  0
  9 14  1  0  0  0  0
  9 15  1  0  0  0  0
 10 12  1  0  0  0  0
 10 15  1  0  0  0  0
 10 16  2  0  0  0  0
 11 14  1  0  0  0  0
 12 18  1  0  0  0  0
 13 14  1  0  0  0  0
 15 19  1  0  0  0  0
M  END
> <ref_mols>
x1404_0

> <original SMILES>
Cn1nc(cc1NC(=O)CCl)c2ccc(Cl)cc2

> <Chemgauss4>
-6.524746

> <ref_pdb>
x0749_0

$$$$
x0809
  -OEChem-05172015543D

 19 20  0     0  0  0  0  0  0999 V2000
   11.8980   -3.4875   25.3363 C   0  0  0  0  0  0  0  0  0  0  0  0
   12.1994   -1.3818   24.1908 C   0  0  0  0  0  0  0  0  0  0  0  0
   13.0334   -3.2318   26.1051 C   0  0  0  0  0  0  0  0  0  0  0  0
   13.3348   -1.1261   24.9597 C   0  0  0  0  0  0  0  0  0  0  0  0
    9.4862   -3.9634   23.6595 C   0  0  0  0  0  0  0  0  0  0  0  0
   11.4810   -2.5625   24.3791 C   0  0  0  0  0  0  0  0  0  0  0  0
   13.7518   -2.0511   25.9169 C   0  0  0  0  0  0  0  0  0  0  0  0
   10.3119   -2.8256   23.5877 C   0  0  0  0  0  0  0  0  0  0  0  0
    8.5136   -3.7419   22.7153 C   0  0  0  0  0  0  0  0  0  0  0  0
    6.7169   -5.3994   23.1480 C   0  0  0  0  0  0  0  0  0  0  0  0
    8.0724   -1.8577   21.1097 C   0  0  0  0  0  0  0  0  0  0  0  0
    6.1346   -6.5528   22.3643 C   0  0  0  0  0  0  0  0  0  0  0  0
    9.9000   -1.9465   22.6703 N   0  0  0  0  0  0  0  0  0  0  0  0
    8.8048   -2.5321   22.1569 N   0  0  0  0  0  0  0  0  0  0  0  0
    7.4423   -4.5067   22.3397 N   0  0  0  0  0  0  0  0  0  0  0  0
    6.5479   -5.3305   24.3624 O   0  0  0  0  0  0  0  0  0  0  0  0
   15.1535   -1.7352   26.8641 Cl  0  0  0  0  0  0  0  0  0  0  0  0
    7.3285   -7.8605   22.3604 Cl  0  0  0  0  0  0  0  0  0  0  0  0
    7.1349   -4.4187   21.3605 H   0  0  0  0  0  0  0  0  0  0  0  0
  1  3  2  0  0  0  0
  1  6  1  0  0  0  0
  2  4  1  0  0  0  0
  2  6  2  0  0  0  0
  3  7  1  0  0  0  0
  4  7  2  0  0  0  0
  5  8  1  0  0  0  0
  5  9  2  0  0  0  0
  6  8  1  0  0  0  0
  7 17  1  0  0  0  0
  8 13  2  0  0  0  0
  9 14  1  0  0  0  0
  9 15  1  0  0  0  0
 10 12  1  0  0  0  0
 10 15  1  0  0  0  0
 10 16  2  0  0  0  0
 11 14  1  0  0  0  0
 12 18  1  0  0  0  0
 13 14  1  0  0  0  0
 15 19  1  0  0  0  0
M  END
> <ref_mols>
x0809_0

> <original SMILES>
Cn1nc(cc1NC(=O)CCl)c2ccc(Cl)cc2

> <Chemgauss4>
-6.524746

> <ref_pdb>
x0749_0

$$$$
x0735
  -OEChem-05172015543D

 19 20  0     0  0  0  0  0  0999 V2000
   11.8980   -3.4875   25.3363 C   0  0  0  0  0  0  0  0  0  0  0  0
   12.1994   -1.3818   24.1908 C   0  0  0  0  0  0  0  0  0  0  0  0
   13.0334   -3.2318   26.1051 C   0  0  0  0  0  0  0  0  0  0  0  0
   13.3348   -1.1261   24.9597 C   0  0  0  0  0  0  0  0  0  0  0  0
    9.4862   -3.9634   23.6595 C   0  0  0  0  0  0  0  0  0  0  0  0
   11.4810   -2.5625   24.3791 C   0  0  0  0  0  0  0  0  0  0  0  0
   13.7518   -2.0511   25.9169 C   0  0  0  0  0  0  0  0  0  0  0  0
   10.3119   -2.8256   23.5877 C   0  0  0  0  0  0  0  0  0  0  0  0
    8.5136   -3.7419   22.7153 C   0  0  0  0  0  0  0  0  0  0  0  0
    6.7169   -5.3994   23.1480 C   0  0  0  0  0  0  0  0  0  0  0  0
    8.0724   -1.8577   21.1097 C   0  0  0  0  0  0  0  0  0  0  0  0
    6.1346   -6.5528   22.3643 C   0  0  0  0  0  0  0  0  0  0  0  0
    9.9000   -1.9465   22.6703 N   0  0  0  0  0  0  0  0  0  0  0  0
    8.8048   -2.5321   22.1569 N   0  0  0  0  0  0  0  0  0  0  0  0
    7.4423   -4.5067   22.3397 N   0  0  0  0  0  0  0  0  0  0  0  0
    6.5479   -5.3305   24.3624 O   0  0  0  0  0  0  0  0  0  0  0  0
   15.1535   -1.7352   26.8641 Cl  0  0  0  0  0  0  0  0  0  0  0  0
    7.3285   -7.8605   22.3604 Cl  0  0  0  0  0  0  0  0  0  0  0  0
    7.1349   -4.4187   21.3605 H   0  0  0  0  0  0  0  0  0  0  0  0
  1  3  2  0  0  0  0
  1  6  1  0  0  0  0
  2  4  1  0  0  0  0
  2  6  2  0  0  0  0
  3  7  1  0  0  0  0
  4  7  2  0  0  0  0
  5  8  1  0  0  0  0
  5  9  2  0  0  0  0
  6  8  1  0  0  0  0
  7 17  1  0  0  0  0
  8 13  2  0  0  0  0
  9 14  1  0  0  0  0
  9 15  1  0  0  0  0
 10 12  1  0  0  0  0
 10 15  1  0  0  0  0
 10 16  2  0  0  0  0
 11 14  1  0  0  0  0
 12 18  1  0  0  0  0
 13 14  1  0  0  0  0
 15 19  1  0  0  0  0
M  END
> <ref_mols>
x0735_0

> <original SMILES>
Cn1nc(cc1NC(=O)CCl)c2ccc(Cl)cc2

> <Chemgauss4>
-6.524746

> <ref_pdb>
x0749_0

$$$$
x1316
  -OEChem-05172015543D

 19 20  0     0  0  0  0  0  0999 V2000
   11.8980   -3.4875   25.3363 C   0  0  0  0  0  0  0  0  0  0  0  0
   12.1994   -1.3818   24.1908 C   0  0  0  0  0  0  0  0  0  0  0  0
   13.0334   -3.2318   26.1051 C   0  0  0  0  0  0  0  0  0  0  0  0
   13.3348   -1.1261   24.9597 C   0  0  0  0  0  0  0  0  0  0  0  0
    9.4862   -3.9634   23.6595 C   0  0  0  0  0  0  0  0  0  0  0  0
   11.4810   -2.5625   24.3791 C   0  0  0  0  0  0  0  0  0  0  0  0
   13.7518   -2.0511   25.9169 C   0  0  0  0  0  0  0  0  0  0  0  0
   10.3119   -2.8256   23.5877 C   0  0  0  0  0  0  0  0  0  0  0  0
    8.5136   -3.7419   22.7153 C   0  0  0  0  0  0  0  0  0  0  0  0
    6.7169   -5.3994   23.1480 C   0  0  0  0  0  0  0  0  0  0  0  0
    8.0724   -1.8577   21.1097 C   0  0  0  0  0  0  0  0  0  0  0  0
    6.1346   -6.5528   22.3643 C   0  0  0  0  0  0  0  0  0  0  0  0
    9.9000   -1.9465   22.6703 N   0  0  0  0  0  0  0  0  0  0  0  0
    8.8048   -2.5321   22.1569 N   0  0  0  0  0  0  0  0  0  0  0  0
    7.4423   -4.5067   22.3397 N   0  0  0  0  0  0  0  0  0  0  0  0
    6.5479   -5.3305   24.3624 O   0  0  0  0  0  0  0  0  0  0  0  0
   15.1535   -1.7352   26.8641 Cl  0  0  0  0  0  0  0  0  0  0  0  0
    7.3285   -7.8605   22.3604 Cl  0  0  0  0  0  0  0  0  0  0  0  0
    7.1349   -4.4187   21.3605 H   0  0  0  0  0  0  0  0  0  0  0  0
  1  3  2  0  0  0  0
  1  6  1  0  0  0  0
  2  4  1  0  0  0  0
  2  6  2  0  0  0  0
  3  7  1  0  0  0  0
  4  7  2  0  0  0  0
  5  8  1  0  0  0  0
  5  9  2  0  0  0  0
  6  8  1  0  0  0  0
  7 17  1  0  0  0  0
  8 13  2  0  0  0  0
  9 14  1  0  0  0  0
  9 15  1  0  0  0  0
 10 12  1  0  0  0  0
 10 15  1  0  0  0  0
 10 16  2  0  0  0  0
 11 14  1  0  0  0  0
 12 18  1  0  0  0  0
 13 14  1  0  0  0  0
 15 19  1  0  0  0  0
M  END
> <ref_mols>
x1316_0

> <original SMILES>
Cn1nc(cc1NC(=O)CCl)c2ccc(Cl)cc2

> <Chemgauss4>
-6.524746

> <ref_pdb>
x0749_0

$$$$
x1032
  -OEChem-05172015543D

  9  9  0     0  0  0  0  0  0999 V2000
   13.3417   -1.2828   22.5691 B   0  0  0  0  0  0  0  0  0  0  0  0
   12.9585    2.4289   23.0878 C   0  0  0  0  0  0  0  0  0  0  0  0
   13.9081    1.5210   22.2556 C   0  0  0  0  0  0  0  0  0  0  0  0
   12.1003    1.1728   23.4110 C   0  0  0  0  0  0  0  0  0  0  0  0
   13.3277    0.3571   23.0411 C   0  0  0  0  0  0  0  0  0  0  0  0
   12.3538   -2.1227   23.0176 O   0  0  0  0  0  0  0  0  0  0  0  0
   14.3441   -1.7454   21.7546 O   0  0  0  0  0  0  0  0  0  0  0  0
   12.4682   -3.0278   22.6831 H   0  0  0  0  0  0  0  0  0  0  0  0
   14.2430   -2.6914   21.5569 H   0  0  0  0  0  0  0  0  0  0  0  0
  1  5  1  0  0  0  0
  1  6  1  0  0  0  0
  1  7  1  0  0  0  0
  2  3  1  0  0  0  0
  2  4  1  0  0  0  0
  3  5  1  0  0  0  0
  4  5  1  0  0  0  0
  6  8  1  0  0  0  0
  7  9  1  0  0  0  0
M  END
> <ref_mols>
x1032_0

> <original SMILES>
OB(O)C1CCC1

> <Chemgauss4>
-6.520101

> <ref_pdb>
x0195_0

$$$$
x0858
  -OEChem-05172015543D

 12 12  0     0  0  0  0  0  0999 V2000
   11.8783   -2.1266   22.8232 C   0  0  0  0  0  0  0  0  0  0  0  0
   12.8561   -0.0221   21.8167 C   0  0  0  0  0  0  0  0  0  0  0  0
   10.4800   -1.5552   22.6294 C   0  0  0  0  0  0  0  0  0  0  0  0
   11.4485    0.5292   21.6323 C   0  0  0  0  0  0  0  0  0  0  0  0
   12.9700   -1.0420   22.9732 C   0  0  0  0  0  0  0  0  0  0  0  0
   14.3555   -1.7118   22.9188 C   0  0  0  0  0  0  0  0  0  0  0  0
   12.8402   -0.3306   24.3342 C   0  0  0  0  0  0  0  0  0  0  0  0
   10.4912   -0.6044   21.4802 N   0  3  0  0  0  0  0  0  0  0  0  0
   11.5675    0.2764   24.3882 O   0  0  0  0  0  0  0  0  0  0  0  0
   10.7070   -1.1186   20.6145 H   0  0  0  0  0  0  0  0  0  0  0  0
    9.5426   -0.2275   21.3472 H   0  0  0  0  0  0  0  0  0  0  0  0
   11.4950    0.7227   25.2508 H   0  0  0  0  0  0  0  0  0  0  0  0
  1  3  1  0  0  0  0
  1  5  1  0  0  0  0
  2  4  1  0  0  0  0
  2  5  1  0  0  0  0
  3  8  1  0  0  0  0
  4  8  1  0  0  0  0
  5  6  1  0  0  0  0
  5  7  1  0  0  0  0
  7  9  1  0  0  0  0
  8 10  1  0  0  0  0
  8 11  1  0  0  0  0
  9 12  1  0  0  0  0
M  CHG  1   8   1
M  END
> <ref_mols>
x0858_0

> <original SMILES>
CC1(CO)CCNCC1

> <Chemgauss4>
-6.517841

> <ref_pdb>
x0678_0

$$$$
x1035
  -OEChem-05172015543D

  7  6  0     1  0  0  0  0  0999 V2000
    6.1678   -2.1436   19.5780 C   0  0  0  0  0  0  0  0  0  0  0  0
    7.7876   -0.2884   18.8170 C   0  0  0  0  0  0  0  0  0  0  0  0
    7.5571   -1.7705   19.0449 C   0  0  1  0  0  0  0  0  0  0  0  0
    5.8139   -1.5938   20.6573 O   0  5  0  0  0  0  0  0  0  0  0  0
    5.5333   -2.9644   18.8535 O   0  0  0  0  0  0  0  0  0  0  0  0
    8.5158   -2.2236   19.9989 O   0  0  0  0  0  0  0  0  0  0  0  0
    8.4016   -3.1838   20.0689 H   0  0  0  0  0  0  0  0  0  0  0  0
  1  3  1  0  0  0  0
  1  4  1  0  0  0  0
  1  5  2  0  0  0  0
  2  3  1  0  0  0  0
  3  6  1  0  0  0  0
  6  7  1  0  0  0  0
M  CHG  1   4  -1
M  END
> <ref_mols>
x1035_0

> <original SMILES>
CC(O)C(=O)O

> <Chemgauss4>
-6.505556

> <ref_pdb>
x0397_0

$$$$
x1214
  -OEChem-05172015543D

 13 13  0     1  0  0  0  0  0999 V2000
    6.3706   -2.5096   18.5819 C   0  0  0  0  0  0  0  0  0  0  0  0
    6.6761   -2.6747   21.7626 C   0  0  0  0  0  0  0  0  0  0  0  0
    7.6129   -0.4073   19.0094 C   0  0  0  0  0  0  0  0  0  0  0  0
    6.4834   -0.2248   21.1191 C   0  0  0  0  0  0  0  0  0  0  0  0
    7.3402   -1.8195   19.5226 C   0  0  1  0  0  0  0  0  0  0  0  0
    6.6039    0.4574   19.7630 C   0  0  2  0  0  0  0  0  0  0  0  0
    7.6492   -3.8108   21.5724 C   0  0  0  0  0  0  0  0  0  0  0  0
    6.7912   -1.6308   20.8592 N   0  0  0  0  0  0  0  0  0  0  0  0
    6.4561   -2.1640   17.3710 O   0  5  0  0  0  0  0  0  0  0  0  0
    5.6001   -3.3441   19.1342 O   0  0  0  0  0  0  0  0  0  0  0  0
    5.8530   -2.7070   22.6790 O   0  0  0  0  0  0  0  0  0  0  0  0
    5.3527    0.4291   19.0864 O   0  0  0  0  0  0  0  0  0  0  0  0
    4.7456    0.9885   19.5972 H   0  0  0  0  0  0  0  0  0  0  0  0
  1  5  1  0  0  0  0
  1  9  1  0  0  0  0
  1 10  2  0  0  0  0
  2  7  1  0  0  0  0
  2  8  1  0  0  0  0
  2 11  2  0  0  0  0
  3  5  1  0  0  0  0
  3  6  1  0  0  0  0
  4  6  1  0  0  0  0
  4  8  1  0  0  0  0
  5  8  1  0  0  0  0
  6 12  1  0  0  0  0
 12 13  1  0  0  0  0
M  CHG  1   9  -1
M  END
> <ref_mols>
x1214_0

> <original SMILES>
CC(=O)N1C[C@H](O)C[C@@H]1C(=O)O

> <Chemgauss4>
-6.502400

> <ref_pdb>
x0397_0

$$$$
x0286
  -OEChem-05172015543D

 14 14  0     0  0  0  0  0  0999 V2000
   12.5103   -2.0070   23.0246 C   0  0  0  0  0  0  0  0  0  0  0  0
   11.4518    0.1295   23.4138 C   0  0  0  0  0  0  0  0  0  0  0  0
   13.7078    0.0379   22.5540 C   0  0  0  0  0  0  0  0  0  0  0  0
   11.4055   -1.2643   23.4409 C   0  0  0  0  0  0  0  0  0  0  0  0
   13.6615   -1.3559   22.5812 C   0  0  0  0  0  0  0  0  0  0  0  0
   12.6029    0.7807   22.9703 C   0  0  0  0  0  0  0  0  0  0  0  0
   10.1748   -1.9602   23.9155 C   0  0  0  0  0  0  0  0  0  0  0  0
   14.2397    2.7860   22.3345 N   0  0  0  0  0  0  0  0  0  0  0  0
   11.6987    3.0006   21.9566 O   0  0  0  0  0  0  0  0  0  0  0  0
   12.6008    3.0150   24.3089 O   0  0  0  0  0  0  0  0  0  0  0  0
   14.7225   -2.0695   22.1821 F   0  0  0  0  0  0  0  0  0  0  0  0
   12.6629    2.5252   22.9389 S   0  0  0  0  0  0  0  0  0  0  0  0
   14.3356    3.1389   21.3744 H   0  0  0  0  0  0  0  0  0  0  0  0
   14.9507    3.1468   22.9823 H   0  0  0  0  0  0  0  0  0  0  0  0
  1  4  1  0  0  0  0
  1  5  2  0  0  0  0
  2  4  2  0  0  0  0
  2  6  1  0  0  0  0
  3  5  1  0  0  0  0
  3  6  2  0  0  0  0
  4  7  1  0  0  0  0
  5 11  1  0  0  0  0
  6 12  1  0  0  0  0
  8 12  1  0  0  0  0
  9 12  2  0  0  0  0
 10 12  2  0  0  0  0
  8 13  1  0  0  0  0
  8 14  1  0  0  0  0
M  END
> <ref_mols>
x0286_0

> <original SMILES>
CC=1C=C(F)C=C(C1)S(=O)(=O)N

> <Chemgauss4>
-6.493712

> <ref_pdb>
x0195_0

$$$$
x2547
  -OEChem-05172015543D

 15 16  0     1  0  0  0  0  0999 V2000
    8.0247   -3.4728   24.9589 C   0  0  0  0  0  0  0  0  0  0  0  0
    8.9225   -3.7016   23.9020 C   0  0  0  0  0  0  0  0  0  0  0  0
    8.5302   -4.2267   25.9847 C   0  0  0  0  0  0  0  0  0  0  0  0
    6.3809   -5.9952   22.8459 C   0  0  0  0  0  0  0  0  0  0  0  0
    7.0813   -5.2325   22.0038 C   0  0  0  0  0  0  0  0  0  0  0  0
    6.6130   -3.8522   21.7291 C   0  0  0  0  0  0  0  0  0  0  0  0
    8.4682   -0.7492   22.5500 C   0  0  0  0  0  0  0  0  0  0  0  0
    9.5857   -1.7742   22.3803 C   0  0  0  0  0  0  0  0  0  0  0  0
    7.2744   -1.4190   21.8871 C   0  0  0  0  0  0  0  0  0  0  0  0
    8.8728   -3.1260   22.4971 C   0  0  2  0  0  0  0  0  0  0  0  0
    8.1121   -4.4670   27.3713 C   0  0  0  0  0  0  0  0  0  0  0  0
    9.9095   -4.5337   24.2459 N   0  0  0  0  0  0  0  0  0  0  0  0
    7.5030   -2.8511   22.0591 N   0  0  0  0  0  0  0  0  0  0  0  0
    5.4961   -3.7407   21.2442 O   0  0  0  0  0  0  0  0  0  0  0  0
    9.6551   -4.8646   25.5715 O   0  0  0  0  0  0  0  0  0  0  0  0
  1  2  1  0  0  0  0
  1  3  2  0  0  0  0
  2 10  1  0  0  0  0
  2 12  2  0  0  0  0
  3 11  1  0  0  0  0
  3 15  1  0  0  0  0
  4  5  2  0  0  0  0
  5  6  1  0  0  0  0
  6 13  1  0  0  0  0
  6 14  2  0  0  0  0
  7  8  1  0  0  0  0
  7  9  1  0  0  0  0
  8 10  1  0  0  0  0
  9 13  1  0  0  0  0
 10 13  1  0  0  0  0
 12 15  1  0  0  0  0
M  END
> <ref_mols>
x2547_0

> <original SMILES>
Cc1onc(c1)C2CCCN2C(=O)C=C

> <Chemgauss4>
-6.490336

> <ref_pdb>
x1412_0

$$$$
x2350
  -OEChem-05172015543D

 15 16  0     1  0  0  0  0  0999 V2000
    8.0247   -3.4728   24.9589 C   0  0  0  0  0  0  0  0  0  0  0  0
    8.9225   -3.7016   23.9020 C   0  0  0  0  0  0  0  0  0  0  0  0
    8.5302   -4.2267   25.9847 C   0  0  0  0  0  0  0  0  0  0  0  0
    6.3809   -5.9952   22.8459 C   0  0  0  0  0  0  0  0  0  0  0  0
    7.0813   -5.2325   22.0038 C   0  0  0  0  0  0  0  0  0  0  0  0
    6.6130   -3.8522   21.7291 C   0  0  0  0  0  0  0  0  0  0  0  0
    8.4682   -0.7492   22.5500 C   0  0  0  0  0  0  0  0  0  0  0  0
    9.5857   -1.7742   22.3803 C   0  0  0  0  0  0  0  0  0  0  0  0
    7.2744   -1.4190   21.8871 C   0  0  0  0  0  0  0  0  0  0  0  0
    8.8728   -3.1260   22.4971 C   0  0  2  0  0  0  0  0  0  0  0  0
    8.1121   -4.4670   27.3713 C   0  0  0  0  0  0  0  0  0  0  0  0
    9.9095   -4.5337   24.2459 N   0  0  0  0  0  0  0  0  0  0  0  0
    7.5030   -2.8511   22.0591 N   0  0  0  0  0  0  0  0  0  0  0  0
    5.4961   -3.7407   21.2442 O   0  0  0  0  0  0  0  0  0  0  0  0
    9.6551   -4.8646   25.5715 O   0  0  0  0  0  0  0  0  0  0  0  0
  1  2  1  0  0  0  0
  1  3  2  0  0  0  0
  2 10  1  0  0  0  0
  2 12  2  0  0  0  0
  3 11  1  0  0  0  0
  3 15  1  0  0  0  0
  4  5  2  0  0  0  0
  5  6  1  0  0  0  0
  6 13  1  0  0  0  0
  6 14  2  0  0  0  0
  7  8  1  0  0  0  0
  7  9  1  0  0  0  0
  8 10  1  0  0  0  0
  9 13  1  0  0  0  0
 10 13  1  0  0  0  0
 12 15  1  0  0  0  0
M  END
> <ref_mols>
x2350_0

> <original SMILES>
Cc1onc(c1)C2CCCN2C(=O)C=C

> <Chemgauss4>
-6.490336

> <ref_pdb>
x1412_0

$$$$
x1227
  -OEChem-05172015543D

 14 14  0     0  0  0  0  0  0999 V2000
   11.8788    0.7393   22.2873 C   0  0  0  0  0  0  0  0  0  0  0  0
   12.8972   -1.4897   21.6749 C   0  0  0  0  0  0  0  0  0  0  0  0
   12.7631    0.7912   23.5251 C   0  0  0  0  0  0  0  0  0  0  0  0
   13.7730   -1.4189   22.9179 C   0  0  0  0  0  0  0  0  0  0  0  0
   11.5924   -0.7071   21.8662 C   0  0  0  0  0  0  0  0  0  0  0  0
    8.5114   -0.7005   22.0005 C   0  0  0  0  0  0  0  0  0  0  0  0
   10.8141   -0.7231   20.6294 N   0  0  0  0  0  0  0  0  0  0  0  0
   14.0118    0.0125   23.2708 N   0  3  0  0  0  0  0  0  0  0  0  0
    8.5671   -0.3313   19.4100 O   0  0  0  0  0  0  0  0  0  0  0  0
    9.5052    1.4561   20.9204 O   0  0  0  0  0  0  0  0  0  0  0  0
    9.3008    0.0568   20.5986 S   0  0  0  0  0  0  0  0  0  0  0  0
   10.9076   -1.5951   20.0999 H   0  0  0  0  0  0  0  0  0  0  0  0
   14.5509    0.4651   22.5193 H   0  0  0  0  0  0  0  0  0  0  0  0
   14.6115    0.0568   24.1062 H   0  0  0  0  0  0  0  0  0  0  0  0
  1  3  1  0  0  0  0
  1  5  1  0  0  0  0
  2  4  1  0  0  0  0
  2  5  1  0  0  0  0
  3  8  1  0  0  0  0
  4  8  1  0  0  0  0
  5  7  1  0  0  0  0
  6 11  1  0  0  0  0
  7 11  1  0  0  0  0
  9 11  2  0  0  0  0
 10 11  2  0  0  0  0
  7 12  1  0  0  0  0
  8 13  1  0  0  0  0
  8 14  1  0  0  0  0
M  CHG  1   8   1
M  END
> <ref_mols>
x1227_0

> <original SMILES>
CS(=O)(=O)NC1CCNCC1

> <Chemgauss4>
-6.479243

> <ref_pdb>
x0678_0

$$$$
x0875
  -OEChem-05172015543D

 13 13  0     1  0  0  0  0  0999 V2000
   12.9772    0.9206   23.3151 C   0  0  0  0  0  0  0  0  0  0  0  0
   11.0081   -1.4953   23.6306 C   0  0  0  0  0  0  0  0  0  0  0  0
   13.9667   -1.3523   21.4008 C   0  0  0  0  0  0  0  0  0  0  0  0
   14.5682   -0.9082   22.7290 C   0  0  0  0  0  0  0  0  0  0  0  0
   12.6802   -2.0404   21.8182 C   0  0  0  0  0  0  0  0  0  0  0  0
   13.3430   -0.5182   23.5752 C   0  0  1  0  0  0  0  0  0  0  0  0
   10.0506   -2.4212   22.9209 C   0  0  0  0  0  0  0  0  0  0  0  0
   13.6297   -0.7144   25.0613 C   0  0  0  0  0  0  0  0  0  0  0  0
   13.6071    2.8231   22.0631 C   0  0  0  0  0  0  0  0  0  0  0  0
   12.2579   -1.3536   23.0375 N   0  0  0  0  0  0  0  0  0  0  0  0
   12.0419    1.4977   23.8529 O   0  0  0  0  0  0  0  0  0  0  0  0
   10.6493   -0.9179   24.6580 O   0  0  0  0  0  0  0  0  0  0  0  0
   13.8411    1.4531   22.4046 O   0  0  0  0  0  0  0  0  0  0  0  0
  1  6  1  0  0  0  0
  1 11  2  0  0  0  0
  1 13  1  0  0  0  0
  2  7  1  0  0  0  0
  2 10  1  0  0  0  0
  2 12  2  0  0  0  0
  3  4  1  0  0  0  0
  3  5  1  0  0  0  0
  4  6  1  0  0  0  0
  5 10  1  0  0  0  0
  6  8  1  0  0  0  0
  6 10  1  0  0  0  0
  9 13  1  0  0  0  0
M  END
> <ref_mols>
x0875_0

> <original SMILES>
CC1(C(OC)=O)N(C(C)=O)CCC1

> <Chemgauss4>
-6.461963

> <ref_pdb>
x0195_0

$$$$
x1224
  -OEChem-05172015543D

 13 13  0     1  0  0  0  0  0999 V2000
   13.8268   -1.3666   21.9624 C   0  0  0  0  0  0  0  0  0  0  0  0
   14.4542   -0.0601   22.4338 C   0  0  0  0  0  0  0  0  0  0  0  0
   12.6078   -1.7330   22.8038 C   0  0  0  0  0  0  0  0  0  0  0  0
   13.4354    1.0741   22.4439 C   0  0  0  0  0  0  0  0  0  0  0  0
   11.5681   -0.6029   22.8228 C   0  0  2  0  0  0  0  0  0  0  0  0
   12.1971    0.7266   23.2783 C   0  0  2  0  0  0  0  0  0  0  0  0
    9.5428   -1.8746   23.0025 C   0  0  0  0  0  0  0  0  0  0  0  0
    9.9995    1.8067   24.5953 C   0  0  0  0  0  0  0  0  0  0  0  0
   10.4561   -0.9842   23.6977 N   0  0  0  0  0  0  0  0  0  0  0  0
   10.2239    1.8606   21.9915 O   0  0  0  0  0  0  0  0  0  0  0  0
   11.7635    3.3028   23.3777 O   0  0  0  0  0  0  0  0  0  0  0  0
   11.0320    2.0690   23.1756 S   0  0  0  0  0  0  0  0  0  0  0  0
   10.8336   -1.4518   24.5171 H   0  0  0  0  0  0  0  0  0  0  0  0
  1  2  1  0  0  0  0
  1  3  1  0  0  0  0
  2  4  1  0  0  0  0
  3  5  1  0  0  0  0
  4  6  1  0  0  0  0
  5  6  1  0  0  0  0
  5  9  1  0  0  0  0
  6 12  1  0  0  0  0
  7  9  1  0  0  0  0
  8 12  1  0  0  0  0
 10 12  2  0  0  0  0
 11 12  2  0  0  0  0
  9 13  1  0  0  0  0
M  END
> <ref_mols>
x1224_0

> <original SMILES>
CNC1CCCCC1S(=O)(=O)C

> <Chemgauss4>
-6.451448

> <ref_pdb>
x0195_0

$$$$
x0973
  -OEChem-05172015543D

 27 27  0     1  0  0  0  0  0999 V2000
   10.3556   -2.3246   24.1451 C   0  0  0  0  0  0  0  0  0  0  0  0
    8.9151   -1.1603   22.5938 C   0  0  0  0  0  0  0  0  0  0  0  0
    9.2360   -2.8114   24.8196 C   0  0  0  0  0  0  0  0  0  0  0  0
    7.7954   -1.6472   23.2682 C   0  0  0  0  0  0  0  0  0  0  0  0
   10.1952   -1.4990   23.0323 C   0  0  0  0  0  0  0  0  0  0  0  0
    7.9558   -2.4727   24.3811 C   0  0  0  0  0  0  0  0  0  0  0  0
    6.9095    5.2678   22.7746 C   0  0  0  0  0  0  0  0  0  0  0  0
   13.1253    4.7381   22.2900 C   0  0  0  0  0  0  0  0  0  0  0  0
   11.3893    1.5170   22.3790 C   0  0  0  0  0  0  0  0  0  0  0  0
    7.0210    6.5927   22.0961 C   0  0  0  0  0  0  0  0  0  0  0  0
   13.0393    5.7981   21.2425 C   0  0  0  0  0  0  0  0  0  0  0  0
   11.4005   -0.9750   22.3064 C   0  0  0  0  0  0  0  0  0  0  0  0
    9.6941    3.3816   23.9975 C   0  0  0  0  0  0  0  0  0  0  0  0
    8.8618    3.6658   25.2508 C   0  0  0  0  0  0  0  0  0  0  0  0
   11.1376    3.0187   24.3611 C   0  0  0  0  0  0  0  0  0  0  0  0
    7.4324    4.0634   24.8861 C   0  0  0  0  0  0  0  0  0  0  0  0
   12.0084    2.6858   23.1403 C   0  0  2  0  0  0  0  0  0  0  0  0
   11.8465    0.2910   22.8422 N   0  0  0  0  0  0  0  0  0  0  0  0
    7.4373    5.2537   24.0441 N   0  0  0  0  0  0  0  0  0  0  0  0
   12.1157    3.8107   22.2135 N   0  0  0  0  0  0  0  0  0  0  0  0
    6.3818    4.3307   22.1872 O   0  0  0  0  0  0  0  0  0  0  0  0
   14.0422    4.7647   23.1026 O   0  0  0  0  0  0  0  0  0  0  0  0
   10.5676    1.6652   21.4766 O   0  0  0  0  0  0  0  0  0  0  0  0
    6.4393   -3.1323   25.2958 Br  0  0  0  0  0  0  0  0  0  0  0  0
   12.5352    0.2663   23.5883 H   0  0  0  0  0  0  0  0  0  0  0  0
    7.8450    6.1027   24.4083 H   0  0  0  0  0  0  0  0  0  0  0  0
   11.4211    3.9096   21.4894 H   0  0  0  0  0  0  0  0  0  0  0  0
  1  3  2  0  0  0  0
  1  5  1  0  0  0  0
  2  4  1  0  0  0  0
  2  5  2  0  0  0  0
  3  6  1  0  0  0  0
  4  6  2  0  0  0  0
  5 12  1  0  0  0  0
  6 24  1  0  0  0  0
  7 10  1  0  0  0  0
  7 19  1  0  0  0  0
  7 21  2  0  0  0  0
  8 11  1  0  0  0  0
  8 20  1  0  0  0  0
  8 22  2  0  0  0  0
  9 17  1  0  0  0  0
  9 18  1  0  0  0  0
  9 23  2  0  0  0  0
 12 18  1  0  0  0  0
 13 14  1  0  0  0  0
 13 15  1  0  0  0  0
 14 16  1  0  0  0  0
 15 17  1  0  0  0  0
 16 19  1  0  0  0  0
 17 20  1  0  0  0  0
 18 25  1  0  0  0  0
 19 26  1  0  0  0  0
 20 27  1  0  0  0  0
M  END
> <ref_mols>
x0973_0

> <original SMILES>
CC(=O)NCCCC[C@H](NC(=O)C)C(=O)NCc1ccc(cc1)Br

> <Chemgauss4>
-6.431995

> <ref_pdb>
x0104_0

$$$$
x0938
  -OEChem-05172015543D

  9  9  0     0  0  0  0  0  0999 V2000
    4.8694    0.9249   20.9007 C   0  0  0  0  0  0  0  0  0  0  0  0
    6.6897    0.1246   19.5164 C   0  0  0  0  0  0  0  0  0  0  0  0
    4.1904    1.3302   19.8216 C   0  0  0  0  0  0  0  0  0  0  0  0
    6.1682    0.2985   20.7435 C   0  0  0  0  0  0  0  0  0  0  0  0
    5.9323    0.5768   18.3100 C   0  0  0  0  0  0  0  0  0  0  0  0
    4.7034    1.1627   18.5610 N   0  0  0  0  0  0  0  0  0  0  0  0
    6.4047    0.4207   17.1869 O   0  0  0  0  0  0  0  0  0  0  0  0
    7.2141   -0.3256   22.4181 I   0  0  0  0  0  0  0  0  0  0  0  0
    4.1532    1.4853   17.7705 H   0  0  0  0  0  0  0  0  0  0  0  0
  1  3  2  0  0  0  0
  1  4  1  0  0  0  0
  2  4  2  0  0  0  0
  2  5  1  0  0  0  0
  3  6  1  0  0  0  0
  4  8  1  0  0  0  0
  5  6  1  0  0  0  0
  5  7  2  0  0  0  0
  6  9  1  0  0  0  0
M  END
> <ref_mols>
x0938_0

> <original SMILES>
O=C1C=C(I)C=CN1

> <Chemgauss4>
-6.423131

> <ref_pdb>
x0107_0

$$$$
x0907
  -OEChem-05172015543D

 14 14  0     1  0  0  0  0  0999 V2000
    6.3981   -4.7733   20.9753 C   0  0  0  0  0  0  0  0  0  0  0  0
    7.2528   -5.6031   24.1530 C   0  0  0  0  0  0  0  0  0  0  0  0
    7.5114   -6.1007   22.7392 C   0  0  0  0  0  0  0  0  0  0  0  0
    8.3747   -4.6987   24.6549 C   0  0  0  0  0  0  0  0  0  0  0  0
    7.6965   -4.9487   21.7460 C   0  0  2  0  0  0  0  0  0  0  0  0
    8.1838   -3.6272   22.3684 C   0  0  1  0  0  0  0  0  0  0  0  0
    7.1086   -2.5989   22.7295 C   0  0  0  0  0  0  0  0  0  0  0  0
   11.3502   -3.8803   24.8504 C   0  0  0  0  0  0  0  0  0  0  0  0
    9.0349   -3.9421   23.5553 N   0  0  1  0  0  0  0  0  0  0  0  0
    5.4074   -4.4044   21.6649 O   0  5  0  0  0  0  0  0  0  0  0  0
    6.4783   -5.0204   19.7393 O   0  0  0  0  0  0  0  0  0  0  0  0
    9.6388   -1.9125   25.0121 O   0  0  0  0  0  0  0  0  0  0  0  0
   10.8663   -2.2885   22.8355 O   0  0  0  0  0  0  0  0  0  0  0  0
   10.2130   -2.7985   24.0221 S   0  0  0  0  0  0  0  0  0  0  0  0
  1  5  1  0  0  0  0
  1 10  1  0  0  0  0
  1 11  2  0  0  0  0
  2  3  1  0  0  0  0
  2  4  1  0  0  0  0
  3  5  1  0  0  0  0
  4  9  1  0  0  0  0
  5  6  1  0  0  0  0
  6  7  1  0  0  0  0
  6  9  1  0  0  0  0
  8 14  1  0  0  0  0
  9 14  1  0  0  0  0
 12 14  2  0  0  0  0
 13 14  2  0  0  0  0
M  CHG  1  10  -1
M  END
> <ref_mols>
x0907_0

> <original SMILES>
C[C@H]1N(S(=O)(C)=O)CCC[C@H]1C(O)=O

> <Chemgauss4>
-6.418682

> <ref_pdb>
x0749_0

$$$$
x2052
  -OEChem-05172015543D

 22 23  0     0  0  0  0  0  0999 V2000
   12.6129   -3.1817   25.7744 C   0  0  0  0  0  0  0  0  0  0  0  0
   13.8788   -3.0056   26.3221 C   0  0  0  0  0  0  0  0  0  0  0  0
   12.4097   -0.8173   25.6158 C   0  0  0  0  0  0  0  0  0  0  0  0
   11.8579   -2.0718   25.4118 C   0  0  0  0  0  0  0  0  0  0  0  0
   14.3402   -1.7093   26.4851 C   0  0  0  0  0  0  0  0  0  0  0  0
    9.8887   -3.4028   24.5906 C   0  0  0  0  0  0  0  0  0  0  0  0
    5.7386   -4.7509   21.3051 C   0  0  0  0  0  0  0  0  0  0  0  0
    8.6680   -3.0539   22.4696 C   0  0  0  0  0  0  0  0  0  0  0  0
    7.5565   -4.2308   24.4024 C   0  0  0  0  0  0  0  0  0  0  0  0
    7.2992   -2.8990   21.8121 C   0  0  0  0  0  0  0  0  0  0  0  0
    6.2096   -4.0517   23.7050 C   0  0  0  0  0  0  0  0  0  0  0  0
    8.5422   -3.1329   23.9934 C   0  0  0  0  0  0  0  0  0  0  0  0
   16.0101   -0.1604   27.1692 C   0  0  0  0  0  0  0  0  0  0  0  0
    5.4121   -6.1634   21.7192 C   0  0  0  0  0  0  0  0  0  0  0  0
   13.6358   -0.6067   26.1450 N   0  0  0  0  0  0  0  0  0  0  0  0
    6.3861   -3.9564   22.2506 N   0  0  0  0  0  0  0  0  0  0  0  0
   10.5669   -2.2190   24.8515 N   0  0  0  0  0  0  0  0  0  0  0  0
   10.2666   -4.5521   24.7940 O   0  0  0  0  0  0  0  0  0  0  0  0
    5.4285   -4.3676   20.1743 O   0  0  0  0  0  0  0  0  0  0  0  0
   15.5845   -1.5100   27.0234 O   0  0  0  0  0  0  0  0  0  0  0  0
    6.9457   -6.9529   22.0692 Cl  0  0  0  0  0  0  0  0  0  0  0  0
   10.0913   -1.3498   24.6182 H   0  0  0  0  0  0  0  0  0  0  0  0
  1  2  2  0  0  0  0
  1  4  1  0  0  0  0
  2  5  1  0  0  0  0
  3  4  2  0  0  0  0
  3 15  1  0  0  0  0
  4 17  1  0  0  0  0
  5 15  2  0  0  0  0
  5 20  1  0  0  0  0
  6 12  1  0  0  0  0
  6 17  1  0  0  0  0
  6 18  2  0  0  0  0
  7 14  1  0  0  0  0
  7 16  1  0  0  0  0
  7 19  2  0  0  0  0
  8 10  1  0  0  0  0
  8 12  1  0  0  0  0
  9 11  1  0  0  0  0
  9 12  1  0  0  0  0
 10 16  1  0  0  0  0
 11 16  1  0  0  0  0
 13 20  1  0  0  0  0
 14 21  1  0  0  0  0
 17 22  1  0  0  0  0
M  END
> <ref_mols>
x2052_0

> <original SMILES>
O=C(C1CCN(C(CCl)=O)CC1)NC2=CC=C(OC)N=C2

> <Chemgauss4>
-6.409380

> <ref_pdb>
x0749_0

> <CYS145-warhead dist minimum (A)>
4.7900705

> <CYS145-warhead dist mean (A)>
5.408753

> <CYS145-warhead dist stddev (A)>
0.27599934

$$$$
x2035
  -OEChem-05172015543D

 22 23  0     0  0  0  0  0  0999 V2000
   12.6129   -3.1817   25.7744 C   0  0  0  0  0  0  0  0  0  0  0  0
   13.8788   -3.0056   26.3221 C   0  0  0  0  0  0  0  0  0  0  0  0
   12.4097   -0.8173   25.6158 C   0  0  0  0  0  0  0  0  0  0  0  0
   11.8579   -2.0718   25.4118 C   0  0  0  0  0  0  0  0  0  0  0  0
   14.3402   -1.7093   26.4851 C   0  0  0  0  0  0  0  0  0  0  0  0
    9.8887   -3.4028   24.5906 C   0  0  0  0  0  0  0  0  0  0  0  0
    5.7386   -4.7509   21.3051 C   0  0  0  0  0  0  0  0  0  0  0  0
    8.6680   -3.0539   22.4696 C   0  0  0  0  0  0  0  0  0  0  0  0
    7.5565   -4.2308   24.4024 C   0  0  0  0  0  0  0  0  0  0  0  0
    7.2992   -2.8990   21.8121 C   0  0  0  0  0  0  0  0  0  0  0  0
    6.2096   -4.0517   23.7050 C   0  0  0  0  0  0  0  0  0  0  0  0
    8.5422   -3.1329   23.9934 C   0  0  0  0  0  0  0  0  0  0  0  0
   16.0101   -0.1604   27.1692 C   0  0  0  0  0  0  0  0  0  0  0  0
    5.4121   -6.1634   21.7192 C   0  0  0  0  0  0  0  0  0  0  0  0
   13.6358   -0.6067   26.1450 N   0  0  0  0  0  0  0  0  0  0  0  0
    6.3861   -3.9564   22.2506 N   0  0  0  0  0  0  0  0  0  0  0  0
   10.5669   -2.2190   24.8515 N   0  0  0  0  0  0  0  0  0  0  0  0
   10.2666   -4.5521   24.7940 O   0  0  0  0  0  0  0  0  0  0  0  0
    5.4285   -4.3676   20.1743 O   0  0  0  0  0  0  0  0  0  0  0  0
   15.5845   -1.5100   27.0234 O   0  0  0  0  0  0  0  0  0  0  0  0
    6.9457   -6.9529   22.0692 Cl  0  0  0  0  0  0  0  0  0  0  0  0
   10.0913   -1.3498   24.6182 H   0  0  0  0  0  0  0  0  0  0  0  0
  1  2  2  0  0  0  0
  1  4  1  0  0  0  0
  2  5  1  0  0  0  0
  3  4  2  0  0  0  0
  3 15  1  0  0  0  0
  4 17  1  0  0  0  0
  5 15  2  0  0  0  0
  5 20  1  0  0  0  0
  6 12  1  0  0  0  0
  6 17  1  0  0  0  0
  6 18  2  0  0  0  0
  7 14  1  0  0  0  0
  7 16  1  0  0  0  0
  7 19  2  0  0  0  0
  8 10  1  0  0  0  0
  8 12  1  0  0  0  0
  9 11  1  0  0  0  0
  9 12  1  0  0  0  0
 10 16  1  0  0  0  0
 11 16  1  0  0  0  0
 13 20  1  0  0  0  0
 14 21  1  0  0  0  0
 17 22  1  0  0  0  0
M  END
> <ref_mols>
x2035_0

> <original SMILES>
O=C(C1CCN(C(CCl)=O)CC1)NC2=CC=C(OC)N=C2

> <Chemgauss4>
-6.409380

> <ref_pdb>
x0749_0

> <CYS145-warhead dist minimum (A)>
11.760645

> <CYS145-warhead dist mean (A)>
13.612142

> <CYS145-warhead dist stddev (A)>
0.6832298

$$$$
x0972
  -OEChem-05172015543D

 15 14  0     1  0  0  0  0  0999 V2000
    6.1627   -4.5669   22.1213 C   0  0  0  0  0  0  0  0  0  0  0  0
    6.2441   -4.9169   23.2668 C   0  0  0  0  0  0  0  0  0  0  0  0
    5.7258    0.7380   18.5585 C   0  0  0  0  0  0  0  0  0  0  0  0
    6.7465   -2.2404   19.2825 C   0  0  0  0  0  0  0  0  0  0  0  0
    4.7247    1.7420   19.0254 C   0  0  0  0  0  0  0  0  0  0  0  0
    8.4906   -0.8651   20.4463 C   0  0  0  0  0  0  0  0  0  0  0  0
    6.0614   -4.1447   20.7249 C   0  0  0  0  0  0  0  0  0  0  0  0
    7.4356   -0.8840   19.3511 C   0  0  2  0  0  0  0  0  0  0  0  0
    6.7011   -2.8660   20.5205 N   0  0  0  0  0  0  0  0  0  0  0  0
    6.4263    0.1163   19.5791 N   0  0  0  0  0  0  0  0  0  0  0  0
    5.8607    0.5325   17.3580 O   0  0  0  0  0  0  0  0  0  0  0  0
    6.2596   -2.6938   18.2488 O   0  0  0  0  0  0  0  0  0  0  0  0
    6.3732   -5.4709   25.0798 Br  0  0  0  0  0  0  0  0  0  0  0  0
    7.1655   -2.4360   21.3149 H   0  0  0  0  0  0  0  0  0  0  0  0
    6.2162    0.3806   20.5399 H   0  0  0  0  0  0  0  0  0  0  0  0
  1  2  3  0  0  0  0
  1  7  1  0  0  0  0
  2 13  1  0  0  0  0
  3  5  1  0  0  0  0
  3 10  1  0  0  0  0
  3 11  2  0  0  0  0
  4  8  1  0  0  0  0
  4  9  1  0  0  0  0
  4 12  2  0  0  0  0
  6  8  1  0  0  0  0
  7  9  1  0  0  0  0
  8 10  1  0  0  0  0
  9 14  1  0  0  0  0
 10 15  1  0  0  0  0
M  END
> <ref_mols>
x0972_0

> <original SMILES>
C[C@H](NC(=O)C)C(=O)NCC#CBr

> <Chemgauss4>
-6.407586

> <ref_pdb>
x0397_0

$$$$
x0321
  -OEChem-05172015543D

 13 13  0     1  0  0  0  0  0999 V2000
    6.1664    0.4922   18.5229 C   0  0  0  0  0  0  0  0  0  0  0  0
    7.9225   -2.2251   21.1826 C   0  0  0  0  0  0  0  0  0  0  0  0
    7.8819    0.0788   20.2565 C   0  0  0  0  0  0  0  0  0  0  0  0
    7.1927   -2.6776   19.9301 C   0  0  0  0  0  0  0  0  0  0  0  0
    7.1586   -0.4904   19.0490 C   0  0  1  0  0  0  0  0  0  0  0  0
    4.1896    1.8590   19.1604 C   0  0  0  0  0  0  0  0  0  0  0  0
    5.2380    0.9094   19.4574 N   0  0  0  0  0  0  0  0  0  0  0  0
    8.7220   -1.0076   20.8464 N   0  3  0  0  0  0  0  0  0  0  0  0
    6.2339    0.8516   17.3533 O   0  0  0  0  0  0  0  0  0  0  0  0
    6.3743   -1.6243   19.4156 O   0  0  0  0  0  0  0  0  0  0  0  0
    5.2950    0.5308   20.3980 H   0  0  0  0  0  0  0  0  0  0  0  0
    9.1925   -0.6590   21.6928 H   0  0  0  0  0  0  0  0  0  0  0  0
    9.4743   -1.2583   20.1897 H   0  0  0  0  0  0  0  0  0  0  0  0
  1  5  1  0  0  0  0
  1  7  1  0  0  0  0
  1  9  2  0  0  0  0
  2  4  1  0  0  0  0
  2  8  1  0  0  0  0
  3  5  1  0  0  0  0
  3  8  1  0  0  0  0
  4 10  1  0  0  0  0
  5 10  1  0  0  0  0
  6  7  1  0  0  0  0
  7 11  1  0  0  0  0
  8 12  1  0  0  0  0
  8 13  1  0  0  0  0
M  CHG  1   8   1
M  END
> <ref_mols>
x0321_0

> <original SMILES>
CNC(=O)C1CNCCO1

> <Chemgauss4>
-6.405022

> <ref_pdb>
x0397_0

$$$$
x1292
  -OEChem-05172015543D

 13 13  0     1  0  0  0  0  0999 V2000
    6.1664    0.4922   18.5229 C   0  0  0  0  0  0  0  0  0  0  0  0
    7.9225   -2.2251   21.1826 C   0  0  0  0  0  0  0  0  0  0  0  0
    7.8819    0.0788   20.2565 C   0  0  0  0  0  0  0  0  0  0  0  0
    7.1927   -2.6776   19.9301 C   0  0  0  0  0  0  0  0  0  0  0  0
    7.1586   -0.4904   19.0490 C   0  0  1  0  0  0  0  0  0  0  0  0
    4.1896    1.8590   19.1604 C   0  0  0  0  0  0  0  0  0  0  0  0
    5.2380    0.9094   19.4574 N   0  0  0  0  0  0  0  0  0  0  0  0
    8.7220   -1.0076   20.8464 N   0  3  0  0  0  0  0  0  0  0  0  0
    6.2339    0.8516   17.3533 O   0  0  0  0  0  0  0  0  0  0  0  0
    6.3743   -1.6243   19.4156 O   0  0  0  0  0  0  0  0  0  0  0  0
    5.2950    0.5308   20.3980 H   0  0  0  0  0  0  0  0  0  0  0  0
    9.1925   -0.6590   21.6928 H   0  0  0  0  0  0  0  0  0  0  0  0
    9.4743   -1.2583   20.1897 H   0  0  0  0  0  0  0  0  0  0  0  0
  1  5  1  0  0  0  0
  1  7  1  0  0  0  0
  1  9  2  0  0  0  0
  2  4  1  0  0  0  0
  2  8  1  0  0  0  0
  3  5  1  0  0  0  0
  3  8  1  0  0  0  0
  4 10  1  0  0  0  0
  5 10  1  0  0  0  0
  6  7  1  0  0  0  0
  7 11  1  0  0  0  0
  8 12  1  0  0  0  0
  8 13  1  0  0  0  0
M  CHG  1   8   1
M  END
> <ref_mols>
x1292_0

> <original SMILES>
CNC(=O)C1CNCCO1

> <Chemgauss4>
-6.405022

> <ref_pdb>
x0397_0

$$$$
x1200
  -OEChem-05172015543D

 13 13  0     1  0  0  0  0  0999 V2000
    6.1664    0.4922   18.5229 C   0  0  0  0  0  0  0  0  0  0  0  0
    7.9225   -2.2251   21.1826 C   0  0  0  0  0  0  0  0  0  0  0  0
    7.8819    0.0788   20.2565 C   0  0  0  0  0  0  0  0  0  0  0  0
    7.1927   -2.6776   19.9301 C   0  0  0  0  0  0  0  0  0  0  0  0
    7.1586   -0.4904   19.0490 C   0  0  1  0  0  0  0  0  0  0  0  0
    4.1896    1.8590   19.1604 C   0  0  0  0  0  0  0  0  0  0  0  0
    5.2380    0.9094   19.4574 N   0  0  0  0  0  0  0  0  0  0  0  0
    8.7220   -1.0076   20.8464 N   0  3  0  0  0  0  0  0  0  0  0  0
    6.2339    0.8516   17.3533 O   0  0  0  0  0  0  0  0  0  0  0  0
    6.3743   -1.6243   19.4156 O   0  0  0  0  0  0  0  0  0  0  0  0
    5.2950    0.5308   20.3980 H   0  0  0  0  0  0  0  0  0  0  0  0
    9.1925   -0.6590   21.6928 H   0  0  0  0  0  0  0  0  0  0  0  0
    9.4743   -1.2583   20.1897 H   0  0  0  0  0  0  0  0  0  0  0  0
  1  5  1  0  0  0  0
  1  7  1  0  0  0  0
  1  9  2  0  0  0  0
  2  4  1  0  0  0  0
  2  8  1  0  0  0  0
  3  5  1  0  0  0  0
  3  8  1  0  0  0  0
  4 10  1  0  0  0  0
  5 10  1  0  0  0  0
  6  7  1  0  0  0  0
  7 11  1  0  0  0  0
  8 12  1  0  0  0  0
  8 13  1  0  0  0  0
M  CHG  1   8   1
M  END
> <ref_mols>
x1200_0

> <original SMILES>
CNC(=O)C1CNCCO1

> <Chemgauss4>
-6.405022

> <ref_pdb>
x0397_0

$$$$
x1312
  -OEChem-05172015543D

 15 16  0     1  0  0  0  0  0999 V2000
   10.6234   -2.8750   24.3728 C   0  0  0  0  0  0  0  0  0  0  0  0
    5.9751   -2.5174   21.7137 C   0  0  0  0  0  0  0  0  0  0  0  0
    7.3017   -1.8173   21.4406 C   0  0  0  0  0  0  0  0  0  0  0  0
    5.8072   -2.8674   23.1920 C   0  0  0  0  0  0  0  0  0  0  0  0
    8.4906   -2.6095   21.9812 C   0  0  0  0  0  0  0  0  0  0  0  0
    8.4245   -5.7439   23.2969 C   0  0  0  0  0  0  0  0  0  0  0  0
    9.3612   -5.0603   24.2806 C   0  0  0  0  0  0  0  0  0  0  0  0
    6.9974   -3.6588   23.7698 C   0  0  1  0  0  0  0  0  0  0  0  0
    7.0143   -5.1328   23.2844 C   0  0  2  0  0  0  0  0  0  0  0  0
    8.3171   -2.9142   23.4792 C   0  0  1  0  0  0  0  0  0  0  0  0
    6.0591   -5.9870   24.1290 C   0  0  0  0  0  0  0  0  0  0  0  0
   11.7500   -3.6289   25.0353 C   0  0  0  0  0  0  0  0  0  0  0  0
    9.4896   -3.6207   24.0273 N   0  0  0  0  0  0  0  0  0  0  0  0
   10.7444   -1.6648   24.1657 O   0  0  0  0  0  0  0  0  0  0  0  0
   12.5882   -2.4757   26.0671 Cl  0  0  0  0  0  0  0  0  0  0  0  0
  1 12  1  0  0  0  0
  1 13  1  0  0  0  0
  1 14  2  0  0  0  0
  2  3  1  0  0  0  0
  2  4  1  0  0  0  0
  3  5  1  0  0  0  0
  4  8  1  0  0  0  0
  5 10  1  0  0  0  0
  6  7  1  0  0  0  0
  6  9  1  0  0  0  0
  7 13  1  0  0  0  0
  8  9  1  0  0  0  0
  8 10  1  0  0  0  0
  9 11  1  0  0  0  0
 10 13  1  0  0  0  0
 12 15  1  0  0  0  0
M  END
> <ref_mols>
x1312_0

> <original SMILES>
CC1CCN(C2CCCCC12)C(=O)CCl

> <Chemgauss4>
-6.403834

> <ref_pdb>
x0749_0

> <CYS145-warhead dist minimum (A)>
5.4222198

> <CYS145-warhead dist mean (A)>
8.460891

> <CYS145-warhead dist stddev (A)>
0.983707

$$$$
x0798
  -OEChem-05172015543D

 15 16  0     1  0  0  0  0  0999 V2000
   10.6234   -2.8750   24.3728 C   0  0  0  0  0  0  0  0  0  0  0  0
    5.9751   -2.5174   21.7137 C   0  0  0  0  0  0  0  0  0  0  0  0
    7.3017   -1.8173   21.4406 C   0  0  0  0  0  0  0  0  0  0  0  0
    5.8072   -2.8674   23.1920 C   0  0  0  0  0  0  0  0  0  0  0  0
    8.4906   -2.6095   21.9812 C   0  0  0  0  0  0  0  0  0  0  0  0
    8.4245   -5.7439   23.2969 C   0  0  0  0  0  0  0  0  0  0  0  0
    9.3612   -5.0603   24.2806 C   0  0  0  0  0  0  0  0  0  0  0  0
    6.9974   -3.6588   23.7698 C   0  0  1  0  0  0  0  0  0  0  0  0
    7.0143   -5.1328   23.2844 C   0  0  2  0  0  0  0  0  0  0  0  0
    8.3171   -2.9142   23.4792 C   0  0  1  0  0  0  0  0  0  0  0  0
    6.0591   -5.9870   24.1290 C   0  0  0  0  0  0  0  0  0  0  0  0
   11.7500   -3.6289   25.0353 C   0  0  0  0  0  0  0  0  0  0  0  0
    9.4896   -3.6207   24.0273 N   0  0  0  0  0  0  0  0  0  0  0  0
   10.7444   -1.6648   24.1657 O   0  0  0  0  0  0  0  0  0  0  0  0
   12.5882   -2.4757   26.0671 Cl  0  0  0  0  0  0  0  0  0  0  0  0
  1 12  1  0  0  0  0
  1 13  1  0  0  0  0
  1 14  2  0  0  0  0
  2  3  1  0  0  0  0
  2  4  1  0  0  0  0
  3  5  1  0  0  0  0
  4  8  1  0  0  0  0
  5 10  1  0  0  0  0
  6  7  1  0  0  0  0
  6  9  1  0  0  0  0
  7 13  1  0  0  0  0
  8  9  1  0  0  0  0
  8 10  1  0  0  0  0
  9 11  1  0  0  0  0
 10 13  1  0  0  0  0
 12 15  1  0  0  0  0
M  END
> <ref_mols>
x0798_0

> <original SMILES>
CC1CCN(C2CCCCC12)C(=O)CCl

> <Chemgauss4>
-6.403834

> <ref_pdb>
x0749_0

$$$$
x0724
  -OEChem-05172015543D

 15 16  0     1  0  0  0  0  0999 V2000
   10.6234   -2.8750   24.3728 C   0  0  0  0  0  0  0  0  0  0  0  0
    5.9751   -2.5174   21.7137 C   0  0  0  0  0  0  0  0  0  0  0  0
    7.3017   -1.8173   21.4406 C   0  0  0  0  0  0  0  0  0  0  0  0
    5.8072   -2.8674   23.1920 C   0  0  0  0  0  0  0  0  0  0  0  0
    8.4906   -2.6095   21.9812 C   0  0  0  0  0  0  0  0  0  0  0  0
    8.4245   -5.7439   23.2969 C   0  0  0  0  0  0  0  0  0  0  0  0
    9.3612   -5.0603   24.2806 C   0  0  0  0  0  0  0  0  0  0  0  0
    6.9974   -3.6588   23.7698 C   0  0  1  0  0  0  0  0  0  0  0  0
    7.0143   -5.1328   23.2844 C   0  0  2  0  0  0  0  0  0  0  0  0
    8.3171   -2.9142   23.4792 C   0  0  1  0  0  0  0  0  0  0  0  0
    6.0591   -5.9870   24.1290 C   0  0  0  0  0  0  0  0  0  0  0  0
   11.7500   -3.6289   25.0353 C   0  0  0  0  0  0  0  0  0  0  0  0
    9.4896   -3.6207   24.0273 N   0  0  0  0  0  0  0  0  0  0  0  0
   10.7444   -1.6648   24.1657 O   0  0  0  0  0  0  0  0  0  0  0  0
   12.5882   -2.4757   26.0671 Cl  0  0  0  0  0  0  0  0  0  0  0  0
  1 12  1  0  0  0  0
  1 13  1  0  0  0  0
  1 14  2  0  0  0  0
  2  3  1  0  0  0  0
  2  4  1  0  0  0  0
  3  5  1  0  0  0  0
  4  8  1  0  0  0  0
  5 10  1  0  0  0  0
  6  7  1  0  0  0  0
  6  9  1  0  0  0  0
  7 13  1  0  0  0  0
  8  9  1  0  0  0  0
  8 10  1  0  0  0  0
  9 11  1  0  0  0  0
 10 13  1  0  0  0  0
 12 15  1  0  0  0  0
M  END
> <ref_mols>
x0724_0

> <original SMILES>
CC1CCN(C2CCCCC12)C(=O)CCl

> <Chemgauss4>
-6.403834

> <ref_pdb>
x0749_0

$$$$
x1350
  -OEChem-05172015543D

 15 16  0     1  0  0  0  0  0999 V2000
   10.6234   -2.8750   24.3728 C   0  0  0  0  0  0  0  0  0  0  0  0
    5.9751   -2.5174   21.7137 C   0  0  0  0  0  0  0  0  0  0  0  0
    7.3017   -1.8173   21.4406 C   0  0  0  0  0  0  0  0  0  0  0  0
    5.8072   -2.8674   23.1920 C   0  0  0  0  0  0  0  0  0  0  0  0
    8.4906   -2.6095   21.9812 C   0  0  0  0  0  0  0  0  0  0  0  0
    8.4245   -5.7439   23.2969 C   0  0  0  0  0  0  0  0  0  0  0  0
    9.3612   -5.0603   24.2806 C   0  0  0  0  0  0  0  0  0  0  0  0
    6.9974   -3.6588   23.7698 C   0  0  1  0  0  0  0  0  0  0  0  0
    7.0143   -5.1328   23.2844 C   0  0  2  0  0  0  0  0  0  0  0  0
    8.3171   -2.9142   23.4792 C   0  0  1  0  0  0  0  0  0  0  0  0
    6.0591   -5.9870   24.1290 C   0  0  0  0  0  0  0  0  0  0  0  0
   11.7500   -3.6289   25.0353 C   0  0  0  0  0  0  0  0  0  0  0  0
    9.4896   -3.6207   24.0273 N   0  0  0  0  0  0  0  0  0  0  0  0
   10.7444   -1.6648   24.1657 O   0  0  0  0  0  0  0  0  0  0  0  0
   12.5882   -2.4757   26.0671 Cl  0  0  0  0  0  0  0  0  0  0  0  0
  1 12  1  0  0  0  0
  1 13  1  0  0  0  0
  1 14  2  0  0  0  0
  2  3  1  0  0  0  0
  2  4  1  0  0  0  0
  3  5  1  0  0  0  0
  4  8  1  0  0  0  0
  5 10  1  0  0  0  0
  6  7  1  0  0  0  0
  6  9  1  0  0  0  0
  7 13  1  0  0  0  0
  8  9  1  0  0  0  0
  8 10  1  0  0  0  0
  9 11  1  0  0  0  0
 10 13  1  0  0  0  0
 12 15  1  0  0  0  0
M  END
> <ref_mols>
x1350_0

> <original SMILES>
CC1CCN(C2CCCCC12)C(=O)CCl

> <Chemgauss4>
-6.403834

> <ref_pdb>
x0749_0

$$$$
x0140
  -OEChem-05172015543D

 15 15  0     0  0  0  0  0  0999 V2000
   13.8870    1.0925   22.4973 C   0  0  0  0  0  0  0  0  0  0  0  0
   13.3679   -0.1720   22.6874 C   0  0  0  0  0  0  0  0  0  0  0  0
   12.0934   -0.2211   23.2142 C   0  0  0  0  0  0  0  0  0  0  0  0
   11.9878    2.0478   23.3020 C   0  0  0  0  0  0  0  0  0  0  0  0
   11.4125   -1.4832   23.4675 C   0  0  0  0  0  0  0  0  0  0  0  0
    9.8729    3.3579   22.8965 C   0  0  0  0  0  0  0  0  0  0  0  0
   12.0295    4.5667   23.3894 C   0  0  0  0  0  0  0  0  0  0  0  0
   11.2063    3.3020   23.6462 C   0  0  0  0  0  0  0  0  0  0  0  0
   13.2221    2.2282   22.7946 N   0  0  0  0  0  0  0  0  0  0  0  0
   11.3719    0.8730   23.5344 N   0  0  0  0  0  0  0  0  0  0  0  0
   10.1288   -1.4287   24.0004 N   0  0  0  0  0  0  0  0  0  0  0  0
   11.9622   -2.5726   23.2331 O   0  0  0  0  0  0  0  0  0  0  0  0
   14.2827   -1.5641   22.2843 Cl  0  0  0  0  0  0  0  0  0  0  0  0
    9.7098   -0.5256   24.1944 H   0  0  0  0  0  0  0  0  0  0  0  0
    9.6027   -2.2735   24.1991 H   0  0  0  0  0  0  0  0  0  0  0  0
  1  2  1  0  0  0  0
  1  9  2  0  0  0  0
  2  3  2  0  0  0  0
  2 13  1  0  0  0  0
  3  5  1  0  0  0  0
  3 10  1  0  0  0  0
  4  8  1  0  0  0  0
  4  9  1  0  0  0  0
  4 10  2  0  0  0  0
  5 11  1  0  0  0  0
  5 12  2  0  0  0  0
  6  8  1  0  0  0  0
  7  8  1  0  0  0  0
 11 14  1  0  0  0  0
 11 15  1  0  0  0  0
M  END
> <ref_mols>
x0140_0

> <original SMILES>
CC(C)C=1N=CC(Cl)=C(N1)C(=O)N

> <Chemgauss4>
-6.390458

> <ref_pdb>
x0195_0

$$$$
x1352
  -OEChem-05172015543D

 13 13  0     0  0  0  0  0  0999 V2000
    7.5627   -6.4269   22.5475 C   0  0  0  0  0  0  0  0  0  0  0  0
    8.4638   -5.4662   22.9928 C   0  0  0  0  0  0  0  0  0  0  0  0
    6.4498   -5.9956   21.8439 C   0  0  0  0  0  0  0  0  0  0  0  0
    8.2278   -4.1224   22.7247 C   0  0  0  0  0  0  0  0  0  0  0  0
    7.0851   -3.7943   22.0129 C   0  0  0  0  0  0  0  0  0  0  0  0
   10.2986   -3.4006   23.8879 C   0  0  0  0  0  0  0  0  0  0  0  0
   11.0374   -2.1213   24.2057 C   0  0  0  0  0  0  0  0  0  0  0  0
    6.1868   -4.6994   21.5641 N   0  0  0  0  0  0  0  0  0  0  0  0
    9.1325   -3.1584   23.1712 N   0  0  0  0  0  0  0  0  0  0  0  0
   10.7386   -4.4800   24.2745 O   0  0  0  0  0  0  0  0  0  0  0  0
    6.6784   -2.1692   21.6162 Cl  0  0  0  0  0  0  0  0  0  0  0  0
   12.4977   -2.5514   25.1102 Cl  0  0  0  0  0  0  0  0  0  0  0  0
    8.9186   -2.1874   22.9516 H   0  0  0  0  0  0  0  0  0  0  0  0
  1  2  2  0  0  0  0
  1  3  1  0  0  0  0
  2  4  1  0  0  0  0
  3  8  2  0  0  0  0
  4  5  2  0  0  0  0
  4  9  1  0  0  0  0
  5  8  1  0  0  0  0
  5 11  1  0  0  0  0
  6  7  1  0  0  0  0
  6  9  1  0  0  0  0
  6 10  2  0  0  0  0
  7 12  1  0  0  0  0
  9 13  1  0  0  0  0
M  END
> <ref_mols>
x1352_0

> <original SMILES>
ClCC(=O)Nc1cccnc1Cl

> <Chemgauss4>
-6.384676

> <ref_pdb>
x0749_0

$$$$
x0728
  -OEChem-05172015543D

 13 13  0     0  0  0  0  0  0999 V2000
    7.5627   -6.4269   22.5475 C   0  0  0  0  0  0  0  0  0  0  0  0
    8.4638   -5.4662   22.9928 C   0  0  0  0  0  0  0  0  0  0  0  0
    6.4498   -5.9956   21.8439 C   0  0  0  0  0  0  0  0  0  0  0  0
    8.2278   -4.1224   22.7247 C   0  0  0  0  0  0  0  0  0  0  0  0
    7.0851   -3.7943   22.0129 C   0  0  0  0  0  0  0  0  0  0  0  0
   10.2986   -3.4006   23.8879 C   0  0  0  0  0  0  0  0  0  0  0  0
   11.0374   -2.1213   24.2057 C   0  0  0  0  0  0  0  0  0  0  0  0
    6.1868   -4.6994   21.5641 N   0  0  0  0  0  0  0  0  0  0  0  0
    9.1325   -3.1584   23.1712 N   0  0  0  0  0  0  0  0  0  0  0  0
   10.7386   -4.4800   24.2745 O   0  0  0  0  0  0  0  0  0  0  0  0
    6.6784   -2.1692   21.6162 Cl  0  0  0  0  0  0  0  0  0  0  0  0
   12.4977   -2.5514   25.1102 Cl  0  0  0  0  0  0  0  0  0  0  0  0
    8.9186   -2.1874   22.9516 H   0  0  0  0  0  0  0  0  0  0  0  0
  1  2  2  0  0  0  0
  1  3  1  0  0  0  0
  2  4  1  0  0  0  0
  3  8  2  0  0  0  0
  4  5  2  0  0  0  0
  4  9  1  0  0  0  0
  5  8  1  0  0  0  0
  5 11  1  0  0  0  0
  6  7  1  0  0  0  0
  6  9  1  0  0  0  0
  6 10  2  0  0  0  0
  7 12  1  0  0  0  0
  9 13  1  0  0  0  0
M  END
> <ref_mols>
x0728_0

> <original SMILES>
ClCC(=O)Nc1cccnc1Cl

> <Chemgauss4>
-6.384676

> <ref_pdb>
x0749_0

$$$$
x1427
  -OEChem-05172015543D

 13 13  0     0  0  0  0  0  0999 V2000
    7.5627   -6.4269   22.5475 C   0  0  0  0  0  0  0  0  0  0  0  0
    8.4638   -5.4662   22.9928 C   0  0  0  0  0  0  0  0  0  0  0  0
    6.4498   -5.9956   21.8439 C   0  0  0  0  0  0  0  0  0  0  0  0
    8.2278   -4.1224   22.7247 C   0  0  0  0  0  0  0  0  0  0  0  0
    7.0851   -3.7943   22.0129 C   0  0  0  0  0  0  0  0  0  0  0  0
   10.2986   -3.4006   23.8879 C   0  0  0  0  0  0  0  0  0  0  0  0
   11.0374   -2.1213   24.2057 C   0  0  0  0  0  0  0  0  0  0  0  0
    6.1868   -4.6994   21.5641 N   0  0  0  0  0  0  0  0  0  0  0  0
    9.1325   -3.1584   23.1712 N   0  0  0  0  0  0  0  0  0  0  0  0
   10.7386   -4.4800   24.2745 O   0  0  0  0  0  0  0  0  0  0  0  0
    6.6784   -2.1692   21.6162 Cl  0  0  0  0  0  0  0  0  0  0  0  0
   12.4977   -2.5514   25.1102 Cl  0  0  0  0  0  0  0  0  0  0  0  0
    8.9186   -2.1874   22.9516 H   0  0  0  0  0  0  0  0  0  0  0  0
  1  2  2  0  0  0  0
  1  3  1  0  0  0  0
  2  4  1  0  0  0  0
  3  8  2  0  0  0  0
  4  5  2  0  0  0  0
  4  9  1  0  0  0  0
  5  8  1  0  0  0  0
  5 11  1  0  0  0  0
  6  7  1  0  0  0  0
  6  9  1  0  0  0  0
  6 10  2  0  0  0  0
  7 12  1  0  0  0  0
  9 13  1  0  0  0  0
M  END
> <ref_mols>
x1427_0

> <original SMILES>
ClCC(=O)Nc1cccnc1Cl

> <Chemgauss4>
-6.384676

> <ref_pdb>
x0749_0

$$$$
x0802
  -OEChem-05172015543D

 13 13  0     0  0  0  0  0  0999 V2000
    7.5627   -6.4269   22.5475 C   0  0  0  0  0  0  0  0  0  0  0  0
    8.4638   -5.4662   22.9928 C   0  0  0  0  0  0  0  0  0  0  0  0
    6.4498   -5.9956   21.8439 C   0  0  0  0  0  0  0  0  0  0  0  0
    8.2278   -4.1224   22.7247 C   0  0  0  0  0  0  0  0  0  0  0  0
    7.0851   -3.7943   22.0129 C   0  0  0  0  0  0  0  0  0  0  0  0
   10.2986   -3.4006   23.8879 C   0  0  0  0  0  0  0  0  0  0  0  0
   11.0374   -2.1213   24.2057 C   0  0  0  0  0  0  0  0  0  0  0  0
    6.1868   -4.6994   21.5641 N   0  0  0  0  0  0  0  0  0  0  0  0
    9.1325   -3.1584   23.1712 N   0  0  0  0  0  0  0  0  0  0  0  0
   10.7386   -4.4800   24.2745 O   0  0  0  0  0  0  0  0  0  0  0  0
    6.6784   -2.1692   21.6162 Cl  0  0  0  0  0  0  0  0  0  0  0  0
   12.4977   -2.5514   25.1102 Cl  0  0  0  0  0  0  0  0  0  0  0  0
    8.9186   -2.1874   22.9516 H   0  0  0  0  0  0  0  0  0  0  0  0
  1  2  2  0  0  0  0
  1  3  1  0  0  0  0
  2  4  1  0  0  0  0
  3  8  2  0  0  0  0
  4  5  2  0  0  0  0
  4  9  1  0  0  0  0
  5  8  1  0  0  0  0
  5 11  1  0  0  0  0
  6  7  1  0  0  0  0
  6  9  1  0  0  0  0
  6 10  2  0  0  0  0
  7 12  1  0  0  0  0
  9 13  1  0  0  0  0
M  END
> <ref_mols>
x0802_0

> <original SMILES>
ClCC(=O)Nc1cccnc1Cl

> <Chemgauss4>
-6.384676

> <ref_pdb>
x0749_0

$$$$
x1478
  -OEChem-05172015543D

 13 13  0     0  0  0  0  0  0999 V2000
    7.5627   -6.4269   22.5475 C   0  0  0  0  0  0  0  0  0  0  0  0
    8.4638   -5.4662   22.9928 C   0  0  0  0  0  0  0  0  0  0  0  0
    6.4498   -5.9956   21.8439 C   0  0  0  0  0  0  0  0  0  0  0  0
    8.2278   -4.1224   22.7247 C   0  0  0  0  0  0  0  0  0  0  0  0
    7.0851   -3.7943   22.0129 C   0  0  0  0  0  0  0  0  0  0  0  0
   10.2986   -3.4006   23.8879 C   0  0  0  0  0  0  0  0  0  0  0  0
   11.0374   -2.1213   24.2057 C   0  0  0  0  0  0  0  0  0  0  0  0
    6.1868   -4.6994   21.5641 N   0  0  0  0  0  0  0  0  0  0  0  0
    9.1325   -3.1584   23.1712 N   0  0  0  0  0  0  0  0  0  0  0  0
   10.7386   -4.4800   24.2745 O   0  0  0  0  0  0  0  0  0  0  0  0
    6.6784   -2.1692   21.6162 Cl  0  0  0  0  0  0  0  0  0  0  0  0
   12.4977   -2.5514   25.1102 Cl  0  0  0  0  0  0  0  0  0  0  0  0
    8.9186   -2.1874   22.9516 H   0  0  0  0  0  0  0  0  0  0  0  0
  1  2  2  0  0  0  0
  1  3  1  0  0  0  0
  2  4  1  0  0  0  0
  3  8  2  0  0  0  0
  4  5  2  0  0  0  0
  4  9  1  0  0  0  0
  5  8  1  0  0  0  0
  5 11  1  0  0  0  0
  6  7  1  0  0  0  0
  6  9  1  0  0  0  0
  6 10  2  0  0  0  0
  7 12  1  0  0  0  0
  9 13  1  0  0  0  0
M  END
> <ref_mols>
x1478_0

> <original SMILES>
ClCC(=O)Nc1cccnc1Cl

> <Chemgauss4>
-6.384676

> <ref_pdb>
x0749_0

> <CYS145-warhead dist minimum (A)>
9.054104

> <CYS145-warhead dist mean (A)>
10.271377

> <CYS145-warhead dist stddev (A)>
0.50882185

$$$$
x1453
  -OEChem-05172015543D

 13 13  0     0  0  0  0  0  0999 V2000
    7.5627   -6.4269   22.5475 C   0  0  0  0  0  0  0  0  0  0  0  0
    8.4638   -5.4662   22.9928 C   0  0  0  0  0  0  0  0  0  0  0  0
    6.4498   -5.9956   21.8439 C   0  0  0  0  0  0  0  0  0  0  0  0
    8.2278   -4.1224   22.7247 C   0  0  0  0  0  0  0  0  0  0  0  0
    7.0851   -3.7943   22.0129 C   0  0  0  0  0  0  0  0  0  0  0  0
   10.2986   -3.4006   23.8879 C   0  0  0  0  0  0  0  0  0  0  0  0
   11.0374   -2.1213   24.2057 C   0  0  0  0  0  0  0  0  0  0  0  0
    6.1868   -4.6994   21.5641 N   0  0  0  0  0  0  0  0  0  0  0  0
    9.1325   -3.1584   23.1712 N   0  0  0  0  0  0  0  0  0  0  0  0
   10.7386   -4.4800   24.2745 O   0  0  0  0  0  0  0  0  0  0  0  0
    6.6784   -2.1692   21.6162 Cl  0  0  0  0  0  0  0  0  0  0  0  0
   12.4977   -2.5514   25.1102 Cl  0  0  0  0  0  0  0  0  0  0  0  0
    8.9186   -2.1874   22.9516 H   0  0  0  0  0  0  0  0  0  0  0  0
  1  2  2  0  0  0  0
  1  3  1  0  0  0  0
  2  4  1  0  0  0  0
  3  8  2  0  0  0  0
  4  5  2  0  0  0  0
  4  9  1  0  0  0  0
  5  8  1  0  0  0  0
  5 11  1  0  0  0  0
  6  7  1  0  0  0  0
  6  9  1  0  0  0  0
  6 10  2  0  0  0  0
  7 12  1  0  0  0  0
  9 13  1  0  0  0  0
M  END
> <ref_mols>
x1453_0

> <original SMILES>
ClCC(=O)Nc1cccnc1Cl

> <Chemgauss4>
-6.384676

> <ref_pdb>
x0749_0

$$$$
x1173
  -OEChem-05172015543D

 10 10  0     1  0  0  0  0  0999 V2000
   11.9198    2.5124   23.8792 C   0  0  0  0  0  0  0  0  0  0  0  0
   10.9961    3.6121   24.3613 C   0  0  0  0  0  0  0  0  0  0  0  0
   12.1421    2.8506   22.4174 C   0  0  0  0  0  0  0  0  0  0  0  0
   11.5962    4.8551   23.7203 C   0  0  2  0  0  0  0  0  0  0  0  0
   13.2877    5.0279   21.8468 C   0  0  0  0  0  0  0  0  0  0  0  0
   10.6119    6.0015   23.5777 C   0  0  0  0  0  0  0  0  0  0  0  0
   12.0407    4.3656   22.3481 N   0  3  1  0  0  0  0  0  0  0  0  0
    9.5343    5.5813   22.7566 O   0  0  0  0  0  0  0  0  0  0  0  0
   11.2940    4.5811   21.6732 H   0  0  0  0  0  0  0  0  0  0  0  0
    8.9236    6.3336   22.6844 H   0  0  0  0  0  0  0  0  0  0  0  0
  1  2  1  0  0  0  0
  1  3  1  0  0  0  0
  2  4  1  0  0  0  0
  3  7  1  0  0  0  0
  4  6  1  0  0  0  0
  4  7  1  0  0  0  0
  5  7  1  0  0  0  0
  6  8  1  0  0  0  0
  7  9  1  0  0  0  0
  8 10  1  0  0  0  0
M  CHG  1   7   1
M  END
> <ref_mols>
x1173_0

> <original SMILES>
CN1CCC[C@@H]1CO

> <Chemgauss4>
-6.382343

> <ref_pdb>
x0946_0

$$$$
x0189
  -OEChem-05172015543D

 10 10  0     1  0  0  0  0  0999 V2000
   11.9198    2.5124   23.8792 C   0  0  0  0  0  0  0  0  0  0  0  0
   10.9961    3.6121   24.3613 C   0  0  0  0  0  0  0  0  0  0  0  0
   12.1421    2.8506   22.4174 C   0  0  0  0  0  0  0  0  0  0  0  0
   11.5962    4.8551   23.7203 C   0  0  2  0  0  0  0  0  0  0  0  0
   13.2877    5.0279   21.8468 C   0  0  0  0  0  0  0  0  0  0  0  0
   10.6119    6.0015   23.5777 C   0  0  0  0  0  0  0  0  0  0  0  0
   12.0407    4.3656   22.3481 N   0  3  1  0  0  0  0  0  0  0  0  0
    9.5343    5.5813   22.7566 O   0  0  0  0  0  0  0  0  0  0  0  0
   11.2940    4.5811   21.6732 H   0  0  0  0  0  0  0  0  0  0  0  0
    8.9236    6.3336   22.6844 H   0  0  0  0  0  0  0  0  0  0  0  0
  1  2  1  0  0  0  0
  1  3  1  0  0  0  0
  2  4  1  0  0  0  0
  3  7  1  0  0  0  0
  4  6  1  0  0  0  0
  4  7  1  0  0  0  0
  5  7  1  0  0  0  0
  6  8  1  0  0  0  0
  7  9  1  0  0  0  0
  8 10  1  0  0  0  0
M  CHG  1   7   1
M  END
> <ref_mols>
x0189_0

> <original SMILES>
CN1CCC[C@@H]1CO

> <Chemgauss4>
-6.382343

> <ref_pdb>
x0946_0

$$$$
x0970
  -OEChem-05172015543D

 17 16  0     1  0  0  0  0  0999 V2000
   13.6038   -0.5340   23.0246 C   0  0  0  0  0  0  0  0  0  0  0  0
   13.5308   -1.4788   23.7617 C   0  0  0  0  0  0  0  0  0  0  0  0
   12.8964    4.7631   22.5956 C   0  0  0  0  0  0  0  0  0  0  0  0
   11.7017    1.7952   23.0259 C   0  0  0  0  0  0  0  0  0  0  0  0
   13.0784    5.7761   21.5144 C   0  0  0  0  0  0  0  0  0  0  0  0
   13.6955    0.6143   22.1237 C   0  0  0  0  0  0  0  0  0  0  0  0
    9.7681    3.1982   23.8535 C   0  0  0  0  0  0  0  0  0  0  0  0
   11.2645    3.1545   23.5608 C   0  0  2  0  0  0  0  0  0  0  0  0
   13.0484    1.7741   22.6919 N   0  0  0  0  0  0  0  0  0  0  0  0
   11.6500    4.1600   22.6047 N   0  0  0  0  0  0  0  0  0  0  0  0
   13.8171    4.5359   23.3718 O   0  0  0  0  0  0  0  0  0  0  0  0
   10.9268    0.8522   22.8792 O   0  0  0  0  0  0  0  0  0  0  0  0
    9.0261    2.9446   22.6659 O   0  0  0  0  0  0  0  0  0  0  0  0
   13.4154   -2.9741   24.9284 Br  0  0  0  0  0  0  0  0  0  0  0  0
   13.6073    2.6128   22.8180 H   0  0  0  0  0  0  0  0  0  0  0  0
   10.9717    4.4417   21.8998 H   0  0  0  0  0  0  0  0  0  0  0  0
    9.2864    2.0619   22.3582 H   0  0  0  0  0  0  0  0  0  0  0  0
  1  2  3  0  0  0  0
  1  6  1  0  0  0  0
  2 14  1  0  0  0  0
  3  5  1  0  0  0  0
  3 10  1  0  0  0  0
  3 11  2  0  0  0  0
  4  8  1  0  0  0  0
  4  9  1  0  0  0  0
  4 12  2  0  0  0  0
  6  9  1  0  0  0  0
  7  8  1  0  0  0  0
  7 13  1  0  0  0  0
  8 10  1  0  0  0  0
  9 15  1  0  0  0  0
 10 16  1  0  0  0  0
 13 17  1  0  0  0  0
M  END
> <ref_mols>
x0970_0

> <original SMILES>
CC(=O)N[C@@H](CO)C(=O)NCC#CBr

> <Chemgauss4>
-6.375698

> <ref_pdb>
x0161_0

$$$$
x0443
  -OEChem-05172015543D

 15 15  0     1  0  0  0  0  0999 V2000
   13.8503   -0.1653   23.5962 C   0  0  0  0  0  0  0  0  0  0  0  0
   11.3993   -0.3796   23.6309 C   0  0  0  0  0  0  0  0  0  0  0  0
   13.8676   -1.1093   22.4038 C   0  0  0  0  0  0  0  0  0  0  0  0
   11.5101   -1.3173   22.4288 C   0  0  2  0  0  0  0  0  0  0  0  0
   10.3996   -2.3582   22.4447 C   0  0  0  0  0  0  0  0  0  0  0  0
   12.6539    5.4093   23.1224 C   0  0  0  0  0  0  0  0  0  0  0  0
   10.6129    5.0059   24.5428 C   0  0  0  0  0  0  0  0  0  0  0  0
   13.1076    3.3411   24.9662 C   0  0  0  0  0  0  0  0  0  0  0  0
   11.5160    4.4533   23.4499 C   0  0  0  0  0  0  0  0  0  0  0  0
   12.5528    0.5645   23.6395 N   0  0  2  0  0  0  0  0  0  0  0  0
   12.0844    3.1581   23.9047 N   0  0  1  0  0  0  0  0  0  0  0  0
   11.2498    1.8356   21.8382 O   0  0  0  0  0  0  0  0  0  0  0  0
   13.7140    2.2538   22.1041 O   0  0  0  0  0  0  0  0  0  0  0  0
   12.7627   -2.0141   22.4711 O   0  0  0  0  0  0  0  0  0  0  0  0
   12.4162    1.9756   22.6890 S   0  0  0  0  0  0  0  0  0  0  0  0
  1  3  1  0  0  0  0
  1 10  1  0  0  0  0
  2  4  1  0  0  0  0
  2 10  1  0  0  0  0
  3 14  1  0  0  0  0
  4  5  1  0  0  0  0
  4 14  1  0  0  0  0
  6  9  1  0  0  0  0
  7  9  1  0  0  0  0
  8 11  1  0  0  0  0
  9 11  1  0  0  0  0
 10 15  1  0  0  0  0
 11 15  1  0  0  0  0
 12 15  2  0  0  0  0
 13 15  2  0  0  0  0
M  END
> <ref_mols>
x0443_0

> <original SMILES>
CC(C)N(C)S(=O)(=O)N1CCOC(C)C1

> <Chemgauss4>
-6.373279

> <ref_pdb>
x0195_0

$$$$
x0308
  -OEChem-05172015543D

 13 13  0     0  0  0  0  0  0999 V2000
   10.7024   -0.4400   23.9002 C   0  0  0  0  0  0  0  0  0  0  0  0
   10.4406    1.9905   24.2738 C   0  0  0  0  0  0  0  0  0  0  0  0
   12.4967    1.2015   23.1586 C   0  0  0  0  0  0  0  0  0  0  0  0
   10.2578    3.0688   23.2158 C   0  0  0  0  0  0  0  0  0  0  0  0
   12.3433    2.2716   22.0860 C   0  0  0  0  0  0  0  0  0  0  0  0
   12.4146    4.3495   23.5219 C   0  0  0  0  0  0  0  0  0  0  0  0
   11.5399   -1.5564   23.3290 C   0  0  0  0  0  0  0  0  0  0  0  0
   11.1988    0.8546   23.7484 N   0  0  0  0  0  0  0  0  0  0  0  0
   11.5910    3.4655   22.6257 N   0  3  0  0  0  0  0  0  0  0  0  0
    9.6381   -0.7121   24.4617 O   0  0  0  0  0  0  0  0  0  0  0  0
   10.8957   -2.7923   23.5598 O   0  0  0  0  0  0  0  0  0  0  0  0
   11.3624    4.0638   21.7802 H   0  0  0  0  0  0  0  0  0  0  0  0
   11.4608   -3.4879   23.1800 H   0  0  0  0  0  0  0  0  0  0  0  0
  1  7  1  0  0  0  0
  1  8  1  0  0  0  0
  1 10  2  0  0  0  0
  2  4  1  0  0  0  0
  2  8  1  0  0  0  0
  3  5  1  0  0  0  0
  3  8  1  0  0  0  0
  4  9  1  0  0  0  0
  5  9  1  0  0  0  0
  6  9  1  0  0  0  0
  7 11  1  0  0  0  0
  9 12  1  0  0  0  0
 11 13  1  0  0  0  0
M  CHG  1   9   1
M  END
> <ref_mols>
x0308_0

> <original SMILES>
CN1CCN(CC1)C(=O)CO

> <Chemgauss4>
-6.370572

> <ref_pdb>
x0104_0

$$$$
x0170
  -OEChem-05172015543D

 12 12  0     0  0  0  0  0  0999 V2000
   12.9383    1.6705   22.7628 C   0  0  0  0  0  0  0  0  0  0  0  0
   10.9587    1.5846   21.8096 C   0  0  0  0  0  0  0  0  0  0  0  0
   11.9027    0.7858   22.4074 C   0  0  0  0  0  0  0  0  0  0  0  0
   14.2429   -1.1443   21.3562 C   0  0  0  0  0  0  0  0  0  0  0  0
   14.3196   -1.1871   23.8165 C   0  0  0  0  0  0  0  0  0  0  0  0
   12.6772    2.9346   22.4194 N   0  0  0  0  0  0  0  0  0  0  0  0
   11.4667    2.8499   21.8418 N   0  0  0  0  0  0  0  0  0  0  0  0
   13.4917   -1.4231   22.6064 N   0  0  0  0  0  0  0  0  0  0  0  0
   11.3180   -1.1807   24.0073 O   0  0  0  0  0  0  0  0  0  0  0  0
   11.1287   -1.5391   21.5335 O   0  0  0  0  0  0  0  0  0  0  0  0
   11.8303   -0.9647   22.6667 S   0  0  0  0  0  0  0  0  0  0  0  0
   11.0441    3.6987   21.4875 H   0  0  0  0  0  0  0  0  0  0  0  0
  1  3  1  0  0  0  0
  1  6  2  0  0  0  0
  2  3  2  0  0  0  0
  2  7  1  0  0  0  0
  3 11  1  0  0  0  0
  4  8  1  0  0  0  0
  5  8  1  0  0  0  0
  6  7  1  0  0  0  0
  8 11  1  0  0  0  0
  9 11  2  0  0  0  0
 10 11  2  0  0  0  0
  7 12  1  0  0  0  0
M  END
> <ref_mols>
x0170_0

> <original SMILES>
CN(C)S(=O)(=O)C=1C=NNC1

> <Chemgauss4>
-6.358209

> <ref_pdb>
x0195_0

$$$$
x1005
  -OEChem-05172015543D

  8  8  0     0  0  0  0  0  0999 V2000
   12.0306   -0.8362   22.0950 C   0  0  0  0  0  0  0  0  0  0  0  0
   13.2023   -1.4881   21.7107 C   0  0  0  0  0  0  0  0  0  0  0  0
   11.8791   -0.3902   23.4080 C   0  0  0  0  0  0  0  0  0  0  0  0
   14.2225   -1.6941   22.6393 C   0  0  0  0  0  0  0  0  0  0  0  0
   12.8993   -0.5963   24.3366 C   0  0  0  0  0  0  0  0  0  0  0  0
   14.0710   -1.2482   23.9523 C   0  0  0  0  0  0  0  0  0  0  0  0
   15.0655   -1.4504   24.8592 O   0  0  0  0  0  0  0  0  0  0  0  0
   15.8099   -1.9147   24.4443 H   0  0  0  0  0  0  0  0  0  0  0  0
  1  2  1  0  0  0  0
  1  3  2  0  0  0  0
  2  4  2  0  0  0  0
  3  5  1  0  0  0  0
  4  6  1  0  0  0  0
  5  6  2  0  0  0  0
  6  7  1  0  0  0  0
  7  8  1  0  0  0  0
M  END
> <ref_mols>
x1005_0

> <original SMILES>
OC=1C=CC=CC1

> <Chemgauss4>
-6.355002

> <ref_pdb>
x0678_0

$$$$
x0782
  -OEChem-05172015543D

 19 20  0     0  0  0  0  0  0999 V2000
    7.2935   -4.0452   24.6153 C   0  0  0  0  0  0  0  0  0  0  0  0
    6.5619   -4.9416   25.4508 C   0  0  0  0  0  0  0  0  0  0  0  0
    6.6981   -3.8803   23.3831 C   0  0  0  0  0  0  0  0  0  0  0  0
    5.4380   -5.4248   24.8077 C   0  0  0  0  0  0  0  0  0  0  0  0
    7.1219   -3.0721   22.2858 C   0  0  0  0  0  0  0  0  0  0  0  0
    6.2737   -1.6100   19.5097 C   0  0  0  0  0  0  0  0  0  0  0  0
    6.9276   -5.3631   26.8402 C   0  0  0  0  0  0  0  0  0  0  0  0
    4.4394   -6.3628   25.4101 C   0  0  0  0  0  0  0  0  0  0  0  0
    5.7434   -6.0191   27.5675 C   0  0  0  0  0  0  0  0  0  0  0  0
    5.0164   -7.0301   26.6687 C   0  0  0  0  0  0  0  0  0  0  0  0
    6.7430   -0.6171   18.4782 C   0  0  0  0  0  0  0  0  0  0  0  0
    6.2498   -2.0607   21.8389 N   0  0  0  0  0  0  0  0  0  0  0  0
    6.6010   -1.2358   20.7979 N   0  0  0  0  0  0  0  0  0  0  0  0
    8.2420   -3.2376   21.7367 O   0  0  0  0  0  0  0  0  0  0  0  0
    5.6807   -2.6409   19.1967 O   0  0  0  0  0  0  0  0  0  0  0  0
    5.2637   -4.8036   23.2323 S   0  0  0  0  0  0  0  0  0  0  0  0
    6.0026    0.9471   18.8515 Cl  0  0  0  0  0  0  0  0  0  0  0  0
    5.3505   -1.9396   22.2915 H   0  0  0  0  0  0  0  0  0  0  0  0
    7.0929   -0.3660   20.9728 H   0  0  0  0  0  0  0  0  0  0  0  0
  1  2  1  0  0  0  0
  1  3  2  0  0  0  0
  2  4  2  0  0  0  0
  2  7  1  0  0  0  0
  3  5  1  0  0  0  0
  3 16  1  0  0  0  0
  4  8  1  0  0  0  0
  4 16  1  0  0  0  0
  5 12  1  0  0  0  0
  5 14  2  0  0  0  0
  6 11  1  0  0  0  0
  6 13  1  0  0  0  0
  6 15  2  0  0  0  0
  7  9  1  0  0  0  0
  8 10  1  0  0  0  0
  9 10  1  0  0  0  0
 11 17  1  0  0  0  0
 12 13  1  0  0  0  0
 12 18  1  0  0  0  0
 13 19  1  0  0  0  0
M  END
> <ref_mols>
x0782_0

> <original SMILES>
ClCC(=O)NNC(=O)c1cc2CCCCc2s1

> <Chemgauss4>
-6.353718

> <ref_pdb>
x1348_0

$$$$
x0708
  -OEChem-05172015543D

 19 20  0     0  0  0  0  0  0999 V2000
    7.2935   -4.0452   24.6153 C   0  0  0  0  0  0  0  0  0  0  0  0
    6.5619   -4.9416   25.4508 C   0  0  0  0  0  0  0  0  0  0  0  0
    6.6981   -3.8803   23.3831 C   0  0  0  0  0  0  0  0  0  0  0  0
    5.4380   -5.4248   24.8077 C   0  0  0  0  0  0  0  0  0  0  0  0
    7.1219   -3.0721   22.2858 C   0  0  0  0  0  0  0  0  0  0  0  0
    6.2737   -1.6100   19.5097 C   0  0  0  0  0  0  0  0  0  0  0  0
    6.9276   -5.3631   26.8402 C   0  0  0  0  0  0  0  0  0  0  0  0
    4.4394   -6.3628   25.4101 C   0  0  0  0  0  0  0  0  0  0  0  0
    5.7434   -6.0191   27.5675 C   0  0  0  0  0  0  0  0  0  0  0  0
    5.0164   -7.0301   26.6687 C   0  0  0  0  0  0  0  0  0  0  0  0
    6.7430   -0.6171   18.4782 C   0  0  0  0  0  0  0  0  0  0  0  0
    6.2498   -2.0607   21.8389 N   0  0  0  0  0  0  0  0  0  0  0  0
    6.6010   -1.2358   20.7979 N   0  0  0  0  0  0  0  0  0  0  0  0
    8.2420   -3.2376   21.7367 O   0  0  0  0  0  0  0  0  0  0  0  0
    5.6807   -2.6409   19.1967 O   0  0  0  0  0  0  0  0  0  0  0  0
    5.2637   -4.8036   23.2323 S   0  0  0  0  0  0  0  0  0  0  0  0
    6.0026    0.9471   18.8515 Cl  0  0  0  0  0  0  0  0  0  0  0  0
    5.3505   -1.9396   22.2915 H   0  0  0  0  0  0  0  0  0  0  0  0
    7.0929   -0.3660   20.9728 H   0  0  0  0  0  0  0  0  0  0  0  0
  1  2  1  0  0  0  0
  1  3  2  0  0  0  0
  2  4  2  0  0  0  0
  2  7  1  0  0  0  0
  3  5  1  0  0  0  0
  3 16  1  0  0  0  0
  4  8  1  0  0  0  0
  4 16  1  0  0  0  0
  5 12  1  0  0  0  0
  5 14  2  0  0  0  0
  6 11  1  0  0  0  0
  6 13  1  0  0  0  0
  6 15  2  0  0  0  0
  7  9  1  0  0  0  0
  8 10  1  0  0  0  0
  9 10  1  0  0  0  0
 11 17  1  0  0  0  0
 12 13  1  0  0  0  0
 12 18  1  0  0  0  0
 13 19  1  0  0  0  0
M  END
> <ref_mols>
x0708_0

> <original SMILES>
ClCC(=O)NNC(=O)c1cc2CCCCc2s1

> <Chemgauss4>
-6.353718

> <ref_pdb>
x1348_0

> <CYS145-warhead dist minimum (A)>
7.277036

> <CYS145-warhead dist mean (A)>
8.7001295

> <CYS145-warhead dist stddev (A)>
0.40152118

$$$$
x0662
  -OEChem-05172015543D

 11 11  0     0  0  0  0  0  0999 V2000
    8.0217   -0.2597   18.9415 C   0  0  0  0  0  0  0  0  0  0  0  0
    7.5268   -0.1174   20.2209 C   0  0  0  0  0  0  0  0  0  0  0  0
    6.0626    0.5917   18.4445 C   0  0  0  0  0  0  0  0  0  0  0  0
    8.1479   -0.4461   21.5299 C   0  0  0  0  0  0  0  0  0  0  0  0
    4.9220    1.1127   17.6601 C   0  0  0  0  0  0  0  0  0  0  0  0
   10.1516   -1.3741   22.6612 C   0  0  0  0  0  0  0  0  0  0  0  0
    7.1833    0.1460   17.9215 N   0  0  0  0  0  0  0  0  0  0  0  0
    9.4252   -0.9807   21.4753 N   0  0  0  0  0  0  0  0  0  0  0  0
    7.5103   -0.2532   22.5618 O   0  0  0  0  0  0  0  0  0  0  0  0
    5.9493    0.5523   20.1564 S   0  0  0  0  0  0  0  0  0  0  0  0
    9.8650   -1.1701   20.5806 H   0  0  0  0  0  0  0  0  0  0  0  0
  1  2  2  0  0  0  0
  1  7  1  0  0  0  0
  2  4  1  0  0  0  0
  2 10  1  0  0  0  0
  3  5  1  0  0  0  0
  3  7  2  0  0  0  0
  3 10  1  0  0  0  0
  4  8  1  0  0  0  0
  4  9  2  0  0  0  0
  6  8  1  0  0  0  0
  8 11  1  0  0  0  0
M  END
> <ref_mols>
x0662_0

> <original SMILES>
CNC(=O)C1=CN=C(C)S1

> <Chemgauss4>
-6.349371

> <ref_pdb>
x0107_0

$$$$
x1277
  -OEChem-05172015543D

 11 11  0     0  0  0  0  0  0999 V2000
    8.0217   -0.2597   18.9415 C   0  0  0  0  0  0  0  0  0  0  0  0
    7.5268   -0.1174   20.2209 C   0  0  0  0  0  0  0  0  0  0  0  0
    6.0626    0.5917   18.4445 C   0  0  0  0  0  0  0  0  0  0  0  0
    8.1479   -0.4461   21.5299 C   0  0  0  0  0  0  0  0  0  0  0  0
    4.9220    1.1127   17.6601 C   0  0  0  0  0  0  0  0  0  0  0  0
   10.1516   -1.3741   22.6612 C   0  0  0  0  0  0  0  0  0  0  0  0
    7.1833    0.1460   17.9215 N   0  0  0  0  0  0  0  0  0  0  0  0
    9.4252   -0.9807   21.4753 N   0  0  0  0  0  0  0  0  0  0  0  0
    7.5103   -0.2532   22.5618 O   0  0  0  0  0  0  0  0  0  0  0  0
    5.9493    0.5523   20.1564 S   0  0  0  0  0  0  0  0  0  0  0  0
    9.8650   -1.1701   20.5806 H   0  0  0  0  0  0  0  0  0  0  0  0
  1  2  2  0  0  0  0
  1  7  1  0  0  0  0
  2  4  1  0  0  0  0
  2 10  1  0  0  0  0
  3  5  1  0  0  0  0
  3  7  2  0  0  0  0
  3 10  1  0  0  0  0
  4  8  1  0  0  0  0
  4  9  2  0  0  0  0
  6  8  1  0  0  0  0
  8 11  1  0  0  0  0
M  END
> <ref_mols>
x1277_0

> <original SMILES>
CNC(=O)C1=CN=C(C)S1

> <Chemgauss4>
-6.349371

> <ref_pdb>
x0107_0

$$$$
x0893
  -OEChem-05172015543D

 12 12  0     1  0  0  0  0  0999 V2000
   11.7843   -2.2510   23.4717 C   0  0  0  0  0  0  0  0  0  0  0  0
   12.7834   -1.3296   21.3425 C   0  0  0  0  0  0  0  0  0  0  0  0
   10.3420   -1.8848   21.4330 C   0  0  0  0  0  0  0  0  0  0  0  0
   12.8635   -1.3382   22.8681 C   0  0  2  0  0  0  0  0  0  0  0  0
   10.3708   -1.9262   22.9615 C   0  0  2  0  0  0  0  0  0  0  0  0
   14.2544   -1.7785   23.3231 C   0  0  0  0  0  0  0  0  0  0  0  0
    9.8304   -0.6326   23.5783 C   0  0  0  0  0  0  0  0  0  0  0  0
   11.3990   -0.9642   20.9184 N   0  3  0  0  0  0  0  0  0  0  0  0
   10.3995    0.4614   22.8864 O   0  0  0  0  0  0  0  0  0  0  0  0
   11.1933    0.0019   21.2075 H   0  0  0  0  0  0  0  0  0  0  0  0
   11.3587   -0.9545   19.8899 H   0  0  0  0  0  0  0  0  0  0  0  0
   10.0457    1.2726   23.2908 H   0  0  0  0  0  0  0  0  0  0  0  0
  1  4  1  0  0  0  0
  1  5  1  0  0  0  0
  2  4  1  0  0  0  0
  2  8  1  0  0  0  0
  3  5  1  0  0  0  0
  3  8  1  0  0  0  0
  4  6  1  0  0  0  0
  5  7  1  0  0  0  0
  7  9  1  0  0  0  0
  8 10  1  0  0  0  0
  8 11  1  0  0  0  0
  9 12  1  0  0  0  0
M  CHG  1   8   1
M  END
> <ref_mols>
x0893_0

> <original SMILES>
OC[C@H]1CNC[C@H](C)C1

> <Chemgauss4>
-6.347243

> <ref_pdb>
x0678_0

$$$$
x2619
  -OEChem-05172015543D

 24 26  0     1  0  0  0  0  0999 V2000
    6.3895   -5.1117   27.6750 C   0  0  0  0  0  0  0  0  0  0  0  0
    9.7548   -2.4014   22.4285 C   0  0  0  0  0  0  0  0  0  0  0  0
   11.1003   -2.3050   22.0738 C   0  0  0  0  0  0  0  0  0  0  0  0
    6.7684   -3.9666   26.9164 C   0  0  0  0  0  0  0  0  0  0  0  0
    9.7272   -0.0459   22.9648 C   0  0  0  0  0  0  0  0  0  0  0  0
    5.8998   -6.1222   26.8770 C   0  0  0  0  0  0  0  0  0  0  0  0
    9.0682   -1.2719   22.8739 C   0  0  0  0  0  0  0  0  0  0  0  0
   11.7593   -1.0790   22.1646 C   0  0  0  0  0  0  0  0  0  0  0  0
   11.0728    0.0506   22.6101 C   0  0  0  0  0  0  0  0  0  0  0  0
    6.5542   -4.1458   25.5673 C   0  0  0  0  0  0  0  0  0  0  0  0
    6.8139   -3.2067   24.4541 C   0  0  0  0  0  0  0  0  0  0  0  0
    6.6422   -2.3240   21.1182 C   0  0  0  0  0  0  0  0  0  0  0  0
    7.3909   -1.8327   24.6929 C   0  0  0  0  0  0  0  0  0  0  0  0
    7.6042   -1.3761   23.2572 C   0  0  2  0  0  0  0  0  0  0  0  0
   13.3645   -0.6912   20.4532 C   0  0  0  0  0  0  0  0  0  0  0  0
   12.3409    1.5564   23.9443 C   0  0  0  0  0  0  0  0  0  0  0  0
    7.0731   -1.0455   20.4421 C   0  0  0  0  0  0  0  0  0  0  0  0
    6.5429   -3.4820   23.2142 N   0  0  0  0  0  0  0  0  0  0  0  0
    6.9319   -2.4084   22.4671 N   0  0  0  0  0  0  0  0  0  0  0  0
    6.0743   -3.2101   20.4782 O   0  0  0  0  0  0  0  0  0  0  0  0
   13.0737   -0.9981   21.8152 O   0  0  0  0  0  0  0  0  0  0  0  0
   11.7060    1.2531   22.7037 O   0  0  0  0  0  0  0  0  0  0  0  0
    5.8984   -5.6891   25.2203 S   0  0  0  0  0  0  0  0  0  0  0  0
    5.9549   -0.7801   19.1096 Cl  0  0  0  0  0  0  0  0  0  0  0  0
  1  4  1  0  0  0  0
  1  6  2  0  0  0  0
  2  3  2  0  0  0  0
  2  7  1  0  0  0  0
  3  8  1  0  0  0  0
  4 10  2  0  0  0  0
  5  7  2  0  0  0  0
  5  9  1  0  0  0  0
  6 23  1  0  0  0  0
  7 14  1  0  0  0  0
  8  9  2  0  0  0  0
  8 21  1  0  0  0  0
  9 22  1  0  0  0  0
 10 11  1  0  0  0  0
 10 23  1  0  0  0  0
 11 13  1  0  0  0  0
 11 18  2  0  0  0  0
 12 17  1  0  0  0  0
 12 19  1  0  0  0  0
 12 20  2  0  0  0  0
 13 14  1  0  0  0  0
 14 19  1  0  0  0  0
 15 21  1  0  0  0  0
 16 22  1  0  0  0  0
 17 24  1  0  0  0  0
 18 19  1  0  0  0  0
M  END
> <ref_mols>
x2619_0

> <original SMILES>
COC=1C=CC(=CC1OC)C2CC(=NN2C(=O)CCl)C3=CC=CS3

> <Chemgauss4>
-6.344529

> <ref_pdb>
x1392_0

$$$$
x1223
  -OEChem-05172015543D

 14 14  0     0  0  0  0  0  0999 V2000
   10.4255    1.2088   21.5871 C   0  0  0  0  0  0  0  0  0  0  0  0
   12.1548    0.9876   24.4285 C   0  0  0  0  0  0  0  0  0  0  0  0
   13.1428    0.1216   23.6672 C   0  0  0  0  0  0  0  0  0  0  0  0
   10.8033    0.4792   23.9417 C   0  0  0  0  0  0  0  0  0  0  0  0
   12.5501    0.0427   22.2637 C   0  0  0  0  0  0  0  0  0  0  0  0
   11.0300    0.1489   22.4598 C   0  0  0  0  0  0  0  0  0  0  0  0
   10.9154   -2.2977   22.9575 C   0  0  0  0  0  0  0  0  0  0  0  0
   10.9471    2.4636   21.7965 N   0  0  0  0  0  0  0  0  0  0  0  0
   10.3957   -1.1615   22.1508 N   0  3  0  0  0  0  0  0  0  0  0  0
    9.5574    0.9534   20.7561 O   0  0  0  0  0  0  0  0  0  0  0  0
   11.6726    2.5788   22.4964 H   0  0  0  0  0  0  0  0  0  0  0  0
   10.6355    3.2792   21.2792 H   0  0  0  0  0  0  0  0  0  0  0  0
    9.3788   -1.0860   22.2919 H   0  0  0  0  0  0  0  0  0  0  0  0
   10.5244   -1.3715   21.1513 H   0  0  0  0  0  0  0  0  0  0  0  0
  1  6  1  0  0  0  0
  1  8  1  0  0  0  0
  1 10  2  0  0  0  0
  2  3  1  0  0  0  0
  2  4  1  0  0  0  0
  3  5  1  0  0  0  0
  4  6  1  0  0  0  0
  5  6  1  0  0  0  0
  6  9  1  0  0  0  0
  7  9  1  0  0  0  0
  8 11  1  0  0  0  0
  8 12  1  0  0  0  0
  9 13  1  0  0  0  0
  9 14  1  0  0  0  0
M  CHG  1   9   1
M  END
> <ref_mols>
x1223_0

> <original SMILES>
CNC1(CCCC1)C(=O)N

> <Chemgauss4>
-6.342130

> <ref_pdb>
x0874_0

$$$$
x2847
  -OEChem-05172015543D

 26 27  0     0  0  0  0  0  0999 V2000
    8.6701    4.3427   24.9095 C   0  0  0  0  0  0  0  0  0  0  0  0
    8.4297    6.0468   23.2138 C   0  0  0  0  0  0  0  0  0  0  0  0
   10.0373    4.2703   24.6429 C   0  0  0  0  0  0  0  0  0  0  0  0
    9.7969    5.9744   22.9472 C   0  0  0  0  0  0  0  0  0  0  0  0
    7.8662    5.2309   24.1949 C   0  0  0  0  0  0  0  0  0  0  0  0
   10.6007    5.0862   23.6618 C   0  0  0  0  0  0  0  0  0  0  0  0
   12.8856    0.1335   23.1742 C   0  0  0  0  0  0  0  0  0  0  0  0
   11.5491    0.4732   23.1557 C   0  0  0  0  0  0  0  0  0  0  0  0
   12.3878    2.4000   22.5282 C   0  0  0  0  0  0  0  0  0  0  0  0
   13.5220   -1.0985   23.5039 C   0  0  0  0  0  0  0  0  0  0  0  0
   10.5186   -0.9484   24.9621 C   0  0  0  0  0  0  0  0  0  0  0  0
   10.3700   -1.6706   22.5553 C   0  0  0  0  0  0  0  0  0  0  0  0
    8.9883    0.2206   23.3894 C   0  0  0  0  0  0  0  0  0  0  0  0
   14.4822   -2.3871   25.2991 C   0  0  0  0  0  0  0  0  0  0  0  0
    6.4043    5.3081   24.4792 C   0  0  0  0  0  0  0  0  0  0  0  0
   10.3738   -0.4543   23.5064 C   0  0  0  0  0  0  0  0  0  0  0  0
   11.2617    1.7726   22.7859 N   0  0  0  0  0  0  0  0  0  0  0  0
   12.4105    3.7966   22.1106 N   0  0  0  0  0  0  0  0  0  0  0  0
   13.7867   -2.0216   22.6962 O   0  0  0  0  0  0  0  0  0  0  0  0
   12.9692    4.4692   24.5194 O   0  0  0  0  0  0  0  0  0  0  0  0
   12.7516    6.2810   22.7962 O   0  0  0  0  0  0  0  0  0  0  0  0
   13.8366   -1.1933   24.8433 O   0  0  0  0  0  0  0  0  0  0  0  0
    5.7182    5.6671   23.3575 F   0  0  0  0  0  0  0  0  0  0  0  0
   13.8299    1.4877   22.7097 S   0  0  0  0  0  0  0  0  0  0  0  0
   12.3359    4.9961   23.3249 S   0  0  0  0  0  0  0  0  0  0  0  0
   11.9022    3.9746   21.2438 H   0  0  0  0  0  0  0  0  0  0  0  0
  1  3  2  0  0  0  0
  1  5  1  0  0  0  0
  2  4  1  0  0  0  0
  2  5  2  0  0  0  0
  3  6  1  0  0  0  0
  4  6  2  0  0  0  0
  5 15  1  0  0  0  0
  6 25  1  0  0  0  0
  7  8  2  0  0  0  0
  7 10  1  0  0  0  0
  7 24  1  0  0  0  0
  8 16  1  0  0  0  0
  8 17  1  0  0  0  0
  9 17  2  0  0  0  0
  9 18  1  0  0  0  0
  9 24  1  0  0  0  0
 10 19  2  0  0  0  0
 10 22  1  0  0  0  0
 11 16  1  0  0  0  0
 12 16  1  0  0  0  0
 13 16  1  0  0  0  0
 14 22  1  0  0  0  0
 15 23  1  0  0  0  0
 18 25  1  0  0  0  0
 20 25  2  0  0  0  0
 21 25  2  0  0  0  0
 18 26  1  0  0  0  0
M  END
> <ref_mols>
x2847_0

> <original SMILES>
COC(=O)C=1SC(NS(=O)(=O)C=2C=CC(CF)=CC2)=NC1C(C)(C)C

> <Chemgauss4>
-6.340725

> <ref_pdb>
x0161_0

$$$$
x1021
  -OEChem-05172015543D

  9  9  0     0  0  0  0  0  0999 V2000
    6.3803    0.2393   20.0242 C   0  0  0  0  0  0  0  0  0  0  0  0
    5.9959    1.0948   18.0300 C   0  0  0  0  0  0  0  0  0  0  0  0
    7.2945   -0.2086   19.1001 C   0  0  0  0  0  0  0  0  0  0  0  0
    4.4260    1.7992   19.8523 C   0  0  0  0  0  0  0  0  0  0  0  0
    7.0499    0.3278   17.8607 N   0  0  0  0  0  0  0  0  0  0  0  0
    5.5552    1.0737   19.3241 N   0  0  0  0  0  0  0  0  0  0  0  0
    8.3110   -1.0626   19.3453 N   0  0  0  0  0  0  0  0  0  0  0  0
    8.5108   -1.4199   20.2913 H   0  0  0  0  0  0  0  0  0  0  0  0
    8.9935   -1.3252   18.6188 H   0  0  0  0  0  0  0  0  0  0  0  0
  1  3  2  0  0  0  0
  1  6  1  0  0  0  0
  2  5  2  0  0  0  0
  2  6  1  0  0  0  0
  3  5  1  0  0  0  0
  3  7  1  0  0  0  0
  4  6  1  0  0  0  0
  7  8  1  0  0  0  0
  7  9  1  0  0  0  0
M  END
> <ref_mols>
x1021_0

> <original SMILES>
Cl.Cl.CN1C=NC(N)=C1

> <Chemgauss4>
-6.333661

> <ref_pdb>
x0397_0

$$$$
x2539
  -OEChem-05172015543D

 33 35  0     1  0  0  0  0  0999 V2000
    3.0061   -5.0295   23.6994 C   0  0  0  0  0  0  0  0  0  0  0  0
    4.0346   -4.2705   23.1524 C   0  0  0  0  0  0  0  0  0  0  0  0
   10.5044   -4.4898   25.2863 C   0  0  0  0  0  0  0  0  0  0  0  0
   10.6022   -2.4938   23.9285 C   0  0  0  0  0  0  0  0  0  0  0  0
    9.3865   -4.9209   24.5722 C   0  0  0  0  0  0  0  0  0  0  0  0
    9.4843   -2.9249   23.2143 C   0  0  0  0  0  0  0  0  0  0  0  0
    7.5052   -0.0430   20.0105 C   0  0  0  0  0  0  0  0  0  0  0  0
    5.9469   -1.6049   19.0261 C   0  0  0  0  0  0  0  0  0  0  0  0
    7.4403    0.7457   18.8619 C   0  0  0  0  0  0  0  0  0  0  0  0
    5.8819   -0.8161   17.8775 C   0  0  0  0  0  0  0  0  0  0  0  0
    3.3484   -6.0687   24.5495 C   0  0  0  0  0  0  0  0  0  0  0  0
    5.5925   -5.6293   24.3283 C   0  0  0  0  0  0  0  0  0  0  0  0
   11.1123   -3.2762   24.9645 C   0  0  0  0  0  0  0  0  0  0  0  0
    5.3554   -4.5696   23.4677 C   0  0  0  0  0  0  0  0  0  0  0  0
    6.7586   -1.2184   20.0926 C   0  0  0  0  0  0  0  0  0  0  0  0
    8.8765   -4.1385   23.5362 C   0  0  0  0  0  0  0  0  0  0  0  0
    6.6286    0.3592   17.7955 C   0  0  0  0  0  0  0  0  0  0  0  0
    9.0385   -7.8723   21.9917 C   0  0  0  0  0  0  0  0  0  0  0  0
    9.0200   -6.5383   22.0764 C   0  0  0  0  0  0  0  0  0  0  0  0
    7.7219   -5.8018   22.0773 C   0  0  0  0  0  0  0  0  0  0  0  0
    6.1519   -3.2120   21.5080 C   0  0  0  0  0  0  0  0  0  0  0  0
   11.9499   -1.9251   26.9195 C   0  0  0  0  0  0  0  0  0  0  0  0
   14.4823   -2.0018   25.3660 C   0  0  0  0  0  0  0  0  0  0  0  0
    6.4967   -3.7625   22.8895 C   0  0  2  0  0  0  0  0  0  0  0  0
   12.3075   -2.8153   25.7282 C   0  0  2  0  0  0  0  0  0  0  0  0
    4.6196   -6.3893   24.8793 N   0  0  0  0  0  0  0  0  0  0  0  0
    6.8241   -2.0183   21.2581 N   0  0  0  0  0  0  0  0  0  0  0  0
    7.7125   -4.5873   22.7920 N   0  0  0  0  0  0  0  0  0  0  0  0
    6.7616   -6.2899   21.4809 O   0  0  0  0  0  0  0  0  0  0  0  0
    5.3647   -3.7888   20.7623 O   0  0  0  0  0  0  0  0  0  0  0  0
   13.1626   -2.0699   24.8539 O   0  0  0  0  0  0  0  0  0  0  0  0
    6.5486    1.3327   16.3782 Cl  0  0  0  0  0  0  0  0  0  0  0  0
    7.4339   -1.6819   22.0005 H   0  0  0  0  0  0  0  0  0  0  0  0
  1  2  2  0  0  0  0
  1 11  1  0  0  0  0
  2 14  1  0  0  0  0
  3  5  2  0  0  0  0
  3 13  1  0  0  0  0
  4  6  1  0  0  0  0
  4 13  2  0  0  0  0
  5 16  1  0  0  0  0
  6 16  2  0  0  0  0
  7  9  2  0  0  0  0
  7 15  1  0  0  0  0
  8 10  1  0  0  0  0
  8 15  2  0  0  0  0
  9 17  1  0  0  0  0
 10 17  2  0  0  0  0
 11 26  2  0  0  0  0
 12 14  2  0  0  0  0
 12 26  1  0  0  0  0
 13 25  1  0  0  0  0
 14 24  1  0  0  0  0
 15 27  1  0  0  0  0
 16 28  1  0  0  0  0
 17 32  1  0  0  0  0
 18 19  2  0  0  0  0
 19 20  1  0  0  0  0
 20 28  1  0  0  0  0
 20 29  2  0  0  0  0
 21 24  1  0  0  0  0
 21 27  1  0  0  0  0
 21 30  2  0  0  0  0
 22 25  1  0  0  0  0
 23 31  1  0  0  0  0
 24 28  1  0  0  0  0
 25 31  1  0  0  0  0
 27 33  1  0  0  0  0
M  END
> <ref_mols>
x2539_0

> <original SMILES>
COC(C)C=1C=CC(=CC1)N(C(C(=O)NC=2C=CC(Cl)=CC2)C=3C=CC=NC3)C(=O)C=C

> <Chemgauss4>
-6.333134

> <ref_pdb>
x0749_0

$$$$
x2707
  -OEChem-05172015543D

 33 35  0     1  0  0  0  0  0999 V2000
    3.0061   -5.0295   23.6994 C   0  0  0  0  0  0  0  0  0  0  0  0
    4.0346   -4.2705   23.1524 C   0  0  0  0  0  0  0  0  0  0  0  0
   10.5044   -4.4898   25.2863 C   0  0  0  0  0  0  0  0  0  0  0  0
   10.6022   -2.4938   23.9285 C   0  0  0  0  0  0  0  0  0  0  0  0
    9.3865   -4.9209   24.5722 C   0  0  0  0  0  0  0  0  0  0  0  0
    9.4843   -2.9249   23.2143 C   0  0  0  0  0  0  0  0  0  0  0  0
    7.5052   -0.0430   20.0105 C   0  0  0  0  0  0  0  0  0  0  0  0
    5.9469   -1.6049   19.0261 C   0  0  0  0  0  0  0  0  0  0  0  0
    7.4403    0.7457   18.8619 C   0  0  0  0  0  0  0  0  0  0  0  0
    5.8819   -0.8161   17.8775 C   0  0  0  0  0  0  0  0  0  0  0  0
    3.3484   -6.0687   24.5495 C   0  0  0  0  0  0  0  0  0  0  0  0
    5.5925   -5.6293   24.3283 C   0  0  0  0  0  0  0  0  0  0  0  0
   11.1123   -3.2762   24.9645 C   0  0  0  0  0  0  0  0  0  0  0  0
    5.3554   -4.5696   23.4677 C   0  0  0  0  0  0  0  0  0  0  0  0
    6.7586   -1.2184   20.0926 C   0  0  0  0  0  0  0  0  0  0  0  0
    8.8765   -4.1385   23.5362 C   0  0  0  0  0  0  0  0  0  0  0  0
    6.6286    0.3592   17.7955 C   0  0  0  0  0  0  0  0  0  0  0  0
    9.0385   -7.8723   21.9917 C   0  0  0  0  0  0  0  0  0  0  0  0
    9.0200   -6.5383   22.0764 C   0  0  0  0  0  0  0  0  0  0  0  0
    7.7219   -5.8018   22.0773 C   0  0  0  0  0  0  0  0  0  0  0  0
    6.1519   -3.2120   21.5080 C   0  0  0  0  0  0  0  0  0  0  0  0
   11.9499   -1.9251   26.9195 C   0  0  0  0  0  0  0  0  0  0  0  0
   14.4823   -2.0018   25.3660 C   0  0  0  0  0  0  0  0  0  0  0  0
    6.4967   -3.7625   22.8895 C   0  0  2  0  0  0  0  0  0  0  0  0
   12.3075   -2.8153   25.7282 C   0  0  2  0  0  0  0  0  0  0  0  0
    4.6196   -6.3893   24.8793 N   0  0  0  0  0  0  0  0  0  0  0  0
    6.8241   -2.0183   21.2581 N   0  0  0  0  0  0  0  0  0  0  0  0
    7.7125   -4.5873   22.7920 N   0  0  0  0  0  0  0  0  0  0  0  0
    6.7616   -6.2899   21.4809 O   0  0  0  0  0  0  0  0  0  0  0  0
    5.3647   -3.7888   20.7623 O   0  0  0  0  0  0  0  0  0  0  0  0
   13.1626   -2.0699   24.8539 O   0  0  0  0  0  0  0  0  0  0  0  0
    6.5486    1.3327   16.3782 Cl  0  0  0  0  0  0  0  0  0  0  0  0
    7.4339   -1.6819   22.0005 H   0  0  0  0  0  0  0  0  0  0  0  0
  1  2  2  0  0  0  0
  1 11  1  0  0  0  0
  2 14  1  0  0  0  0
  3  5  2  0  0  0  0
  3 13  1  0  0  0  0
  4  6  1  0  0  0  0
  4 13  2  0  0  0  0
  5 16  1  0  0  0  0
  6 16  2  0  0  0  0
  7  9  2  0  0  0  0
  7 15  1  0  0  0  0
  8 10  1  0  0  0  0
  8 15  2  0  0  0  0
  9 17  1  0  0  0  0
 10 17  2  0  0  0  0
 11 26  2  0  0  0  0
 12 14  2  0  0  0  0
 12 26  1  0  0  0  0
 13 25  1  0  0  0  0
 14 24  1  0  0  0  0
 15 27  1  0  0  0  0
 16 28  1  0  0  0  0
 17 32  1  0  0  0  0
 18 19  2  0  0  0  0
 19 20  1  0  0  0  0
 20 28  1  0  0  0  0
 20 29  2  0  0  0  0
 21 24  1  0  0  0  0
 21 27  1  0  0  0  0
 21 30  2  0  0  0  0
 22 25  1  0  0  0  0
 23 31  1  0  0  0  0
 24 28  1  0  0  0  0
 25 31  1  0  0  0  0
 27 33  1  0  0  0  0
M  END
> <ref_mols>
x2707_0

> <original SMILES>
COC(C)C=1C=CC(=CC1)N(C(C(=O)NC=2C=CC(Cl)=CC2)C=3C=CC=NC3)C(=O)C=C

> <Chemgauss4>
-6.333134

> <ref_pdb>
x0749_0

> <CYS145-warhead dist minimum (A)>
8.499788

> <CYS145-warhead dist mean (A)>
10.383047

> <CYS145-warhead dist stddev (A)>
0.5163061

$$$$
x0848
  -OEChem-05172015543D

 12 12  0     1  0  0  0  0  0999 V2000
    7.0027   -4.7187   20.8964 C   0  0  0  0  0  0  0  0  0  0  0  0
    8.5076   -2.7781   22.8975 C   0  0  0  0  0  0  0  0  0  0  0  0
    7.4761   -6.2360   23.6538 C   0  0  0  0  0  0  0  0  0  0  0  0
    6.2062   -5.7033   22.9981 C   0  0  0  0  0  0  0  0  0  0  0  0
    8.1878   -4.9750   24.1090 C   0  0  0  0  0  0  0  0  0  0  0  0
    6.6519   -4.3880   22.3417 C   0  0  2  0  0  0  0  0  0  0  0  0
    9.7269   -2.5561   23.7578 C   0  0  0  0  0  0  0  0  0  0  0  0
    5.5133   -3.3741   22.3220 C   0  0  0  0  0  0  0  0  0  0  0  0
    7.8230   -3.9652   23.1200 N   0  0  0  0  0  0  0  0  0  0  0  0
    8.2049   -5.0464   20.6949 O   0  5  0  0  0  0  0  0  0  0  0  0
    6.0416   -4.6220   20.0827 O   0  0  0  0  0  0  0  0  0  0  0  0
    8.1877   -1.9344   22.0584 O   0  0  0  0  0  0  0  0  0  0  0  0
  1  6  1  0  0  0  0
  1 10  1  0  0  0  0
  1 11  2  0  0  0  0
  2  7  1  0  0  0  0
  2  9  1  0  0  0  0
  2 12  2  0  0  0  0
  3  4  1  0  0  0  0
  3  5  1  0  0  0  0
  4  6  1  0  0  0  0
  5  9  1  0  0  0  0
  6  8  1  0  0  0  0
  6  9  1  0  0  0  0
M  CHG  1  10  -1
M  END
> <ref_mols>
x0848_0

> <original SMILES>
CC1(C(O)=O)N(C(C)=O)CCC1

> <Chemgauss4>
-6.316975

> <ref_pdb>
x0759_0

$$$$
x0883
  -OEChem-05172015543D

 14 14  0     1  0  0  0  0  0999 V2000
   12.5052    1.9634   22.8478 C   0  0  0  0  0  0  0  0  0  0  0  0
   14.1015   -1.2736   22.2086 C   0  0  0  0  0  0  0  0  0  0  0  0
   14.2293    0.2186   22.4593 C   0  0  0  0  0  0  0  0  0  0  0  0
   12.6321   -1.4536   21.8563 C   0  0  0  0  0  0  0  0  0  0  0  0
   12.9246    0.5667   23.1825 C   0  0  1  0  0  0  0  0  0  0  0  0
   13.0206    0.3667   24.6915 C   0  0  0  0  0  0  0  0  0  0  0  0
   13.3514    4.0895   22.2582 C   0  0  0  0  0  0  0  0  0  0  0  0
    9.3599   -0.2557   21.8673 C   0  0  0  0  0  0  0  0  0  0  0  0
   11.9254   -0.3418   22.5488 N   0  0  2  0  0  0  0  0  0  0  0  0
   11.3414    2.3397   22.8134 O   0  0  0  0  0  0  0  0  0  0  0  0
   10.1530    0.3411   24.2843 O   0  0  0  0  0  0  0  0  0  0  0  0
   10.2763   -2.0633   23.5167 O   0  0  0  0  0  0  0  0  0  0  0  0
   13.6091    2.7226   22.5946 O   0  0  0  0  0  0  0  0  0  0  0  0
   10.4132   -0.6420   23.2461 S   0  0  0  0  0  0  0  0  0  0  0  0
  1  5  1  0  0  0  0
  1 10  2  0  0  0  0
  1 13  1  0  0  0  0
  2  3  1  0  0  0  0
  2  4  1  0  0  0  0
  3  5  1  0  0  0  0
  4  9  1  0  0  0  0
  5  6  1  0  0  0  0
  5  9  1  0  0  0  0
  7 13  1  0  0  0  0
  8 14  1  0  0  0  0
  9 14  1  0  0  0  0
 11 14  2  0  0  0  0
 12 14  2  0  0  0  0
M  END
> <ref_mols>
x0883_0

> <original SMILES>
CC1(C(OC)=O)N(S(=O)(C)=O)CCC1

> <Chemgauss4>
-6.290434

> <ref_pdb>
x0195_0

$$$$
x1000
  -OEChem-05172015543D

  8  7  0     0  0  0  0  0  0999 V2000
    6.1022   -2.2140   19.5741 C   0  0  0  0  0  0  0  0  0  0  0  0
    7.5026   -1.8368   19.1108 C   0  0  0  0  0  0  0  0  0  0  0  0
    8.5105   -1.6456   20.1860 N   0  3  0  0  0  0  0  0  0  0  0  0
    5.4243   -2.9247   18.7819 O   0  5  0  0  0  0  0  0  0  0  0  0
    5.7911   -1.7582   20.7118 O   0  0  0  0  0  0  0  0  0  0  0  0
    8.7290   -0.6520   20.3082 H   0  0  0  0  0  0  0  0  0  0  0  0
    9.3809   -2.1373   19.9603 H   0  0  0  0  0  0  0  0  0  0  0  0
    8.1631   -2.0074   21.0796 H   0  0  0  0  0  0  0  0  0  0  0  0
  1  2  1  0  0  0  0
  1  4  1  0  0  0  0
  1  5  2  0  0  0  0
  2  3  1  0  0  0  0
  3  6  1  0  0  0  0
  3  7  1  0  0  0  0
  3  8  1  0  0  0  0
M  CHG  2   3   1   4  -1
M  END
> <ref_mols>
x1000_0

> <original SMILES>
NCC(=O)O

> <Chemgauss4>
-6.288817

> <ref_pdb>
x0397_0

$$$$
x0899
  -OEChem-05172015543D

 15 15  0     1  0  0  0  0  0999 V2000
    8.7228   -0.2817   20.8240 C   0  0  0  0  0  0  0  0  0  0  0  0
   10.0545   -1.0616   24.3351 C   0  0  0  0  0  0  0  0  0  0  0  0
    9.1374   -0.4671   23.2704 C   0  0  0  0  0  0  0  0  0  0  0  0
   11.5127   -0.6813   24.1054 C   0  0  0  0  0  0  0  0  0  0  0  0
    9.6266   -0.8538   21.8742 C   0  0  2  0  0  0  0  0  0  0  0  0
   11.0938   -0.4527   21.6334 C   0  0  1  0  0  0  0  0  0  0  0  0
   11.3323    1.0560   21.5256 C   0  0  0  0  0  0  0  0  0  0  0  0
    6.4719   -0.2302   20.1066 C   0  0  0  0  0  0  0  0  0  0  0  0
   14.0104   -2.4400   23.6294 C   0  0  0  0  0  0  0  0  0  0  0  0
   11.9309   -1.0593   22.7249 N   0  0  1  0  0  0  0  0  0  0  0  0
    9.1006    0.4517   19.9204 O   0  0  0  0  0  0  0  0  0  0  0  0
   14.2437    0.0541   22.8863 O   0  0  0  0  0  0  0  0  0  0  0  0
   13.8364   -1.7124   21.1258 O   0  0  0  0  0  0  0  0  0  0  0  0
    7.4453   -0.7054   21.0419 O   0  0  0  0  0  0  0  0  0  0  0  0
   13.6142   -1.1741   22.4506 S   0  0  0  0  0  0  0  0  0  0  0  0
  1  5  1  0  0  0  0
  1 11  2  0  0  0  0
  1 14  1  0  0  0  0
  2  3  1  0  0  0  0
  2  4  1  0  0  0  0
  3  5  1  0  0  0  0
  4 10  1  0  0  0  0
  5  6  1  0  0  0  0
  6  7  1  0  0  0  0
  6 10  1  0  0  0  0
  8 14  1  0  0  0  0
  9 15  1  0  0  0  0
 10 15  1  0  0  0  0
 12 15  2  0  0  0  0
 13 15  2  0  0  0  0
M  END
> <ref_mols>
x0899_0

> <original SMILES>
C[C@H]1N(S(=O)(C)=O)CCC[C@H]1C(OC)=O

> <Chemgauss4>
-6.285163

> <ref_pdb>
x0678_0

$$$$
x0935
  -OEChem-05172015543D

  7  7  0     0  0  0  0  0  0999 V2000
    6.8859    0.1594   18.7903 C   0  0  0  0  0  0  0  0  0  0  0  0
    4.9780    1.1430   19.2668 C   0  0  0  0  0  0  0  0  0  0  0  0
    6.0918    0.6051   19.8638 C   0  0  0  0  0  0  0  0  0  0  0  0
    6.3242    0.3936   17.6013 N   0  0  0  0  0  0  0  0  0  0  0  0
    5.1652    0.9924   17.9243 N   0  0  0  0  0  0  0  0  0  0  0  0
    6.5062    0.4703   21.6735 Br  0  0  0  0  0  0  0  0  0  0  0  0
    4.5455    1.2739   17.1748 H   0  0  0  0  0  0  0  0  0  0  0  0
  1  3  1  0  0  0  0
  1  4  2  0  0  0  0
  2  3  2  0  0  0  0
  2  5  1  0  0  0  0
  3  6  1  0  0  0  0
  4  5  1  0  0  0  0
  5  7  1  0  0  0  0
M  END
> <ref_mols>
x0935_0

> <original SMILES>
BrC1=CNN=C1

> <Chemgauss4>
-6.270739

> <ref_pdb>
x0107_0

$$$$
x1028
  -OEChem-05172015543D

  7  7  0     0  0  0  0  0  0999 V2000
    6.8859    0.1594   18.7903 C   0  0  0  0  0  0  0  0  0  0  0  0
    4.9780    1.1430   19.2668 C   0  0  0  0  0  0  0  0  0  0  0  0
    6.0918    0.6051   19.8638 C   0  0  0  0  0  0  0  0  0  0  0  0
    6.3242    0.3936   17.6013 N   0  0  0  0  0  0  0  0  0  0  0  0
    5.1652    0.9924   17.9243 N   0  0  0  0  0  0  0  0  0  0  0  0
    6.5062    0.4703   21.6735 Br  0  0  0  0  0  0  0  0  0  0  0  0
    4.5455    1.2739   17.1748 H   0  0  0  0  0  0  0  0  0  0  0  0
  1  3  1  0  0  0  0
  1  4  2  0  0  0  0
  2  3  2  0  0  0  0
  2  5  1  0  0  0  0
  3  6  1  0  0  0  0
  4  5  1  0  0  0  0
  5  7  1  0  0  0  0
M  END
> <ref_mols>
x1028_0

> <original SMILES>
BrC=1C=NNC1

> <Chemgauss4>
-6.270739

> <ref_pdb>
x0107_0

$$$$
x1002
  -OEChem-05172015543D

  8  8  0     0  0  0  0  0  0999 V2000
   13.3876   -0.5629   23.5347 C   0  0  0  0  0  0  0  0  0  0  0  0
   12.4832    0.3194   23.0888 C   0  0  0  0  0  0  0  0  0  0  0  0
   13.8055   -1.6789   22.7229 C   0  0  0  0  0  0  0  0  0  0  0  0
   13.2817   -1.8380   21.5024 C   0  0  0  0  0  0  0  0  0  0  0  0
   11.8956    0.1462   21.7269 C   0  0  0  0  0  0  0  0  0  0  0  0
   12.3527   -0.9524   21.0148 N   0  0  0  0  0  0  0  0  0  0  0  0
   11.0653    0.9461   21.3030 O   0  0  0  0  0  0  0  0  0  0  0  0
   11.9872   -1.1199   20.0820 H   0  0  0  0  0  0  0  0  0  0  0  0
  1  2  2  0  0  0  0
  1  3  1  0  0  0  0
  2  5  1  0  0  0  0
  3  4  2  0  0  0  0
  4  6  1  0  0  0  0
  5  6  1  0  0  0  0
  5  7  2  0  0  0  0
  6  8  1  0  0  0  0
M  END
> <ref_mols>
x1002_0

> <original SMILES>
OC=1C=CC=CN1

> <Chemgauss4>
-6.261490

> <ref_pdb>
x0678_0

$$$$
x2066
  -OEChem-05172015543D

 27 29  0     1  0  0  0  0  0999 V2000
    6.8185    2.5894   25.0773 C   0  0  0  0  0  0  0  0  0  0  0  0
    7.3566    3.3580   24.0453 C   0  0  0  0  0  0  0  0  0  0  0  0
    7.6582    1.8304   25.8925 C   0  0  0  0  0  0  0  0  0  0  0  0
    8.7345    3.3676   23.8283 C   0  0  0  0  0  0  0  0  0  0  0  0
    9.0361    1.8400   25.6756 C   0  0  0  0  0  0  0  0  0  0  0  0
    9.5742    2.6086   24.6435 C   0  0  0  0  0  0  0  0  0  0  0  0
    9.6195   -1.2257   22.4986 C   0  0  0  0  0  0  0  0  0  0  0  0
    9.5485   -4.2944   26.0800 C   0  0  0  0  0  0  0  0  0  0  0  0
    8.0615   -3.8246   23.3631 C   0  0  0  0  0  0  0  0  0  0  0  0
   10.8484    1.7332   22.1914 C   0  0  0  0  0  0  0  0  0  0  0  0
    8.4269   -3.3588   26.4191 C   0  0  0  0  0  0  0  0  0  0  0  0
    8.5328   -2.3167   25.3268 C   0  0  0  0  0  0  0  0  0  0  0  0
   11.8355   -1.9067   22.1888 C   0  0  0  0  0  0  0  0  0  0  0  0
   10.9053   -0.7442   21.9004 C   0  0  2  0  0  0  0  0  0  0  0  0
    9.1204   -3.0957   24.1724 C   0  0  2  0  0  0  0  0  0  0  0  0
   11.3744    2.8205   23.1039 C   0  0  0  0  0  0  0  0  0  0  0  0
    9.9375   -2.2737   23.3231 N   0  0  0  0  0  0  0  0  0  0  0  0
   11.2634    0.4626   22.5904 N   0  0  0  0  0  0  0  0  0  0  0  0
    8.4961   -4.4928   22.3844 O   0  5  0  0  0  0  0  0  0  0  0  0
    8.5253   -0.7084   22.3304 O   0  0  0  0  0  0  0  0  0  0  0  0
   10.0228   -5.1339   26.8295 O   0  0  0  0  0  0  0  0  0  0  0  0
    6.8782   -3.6672   23.7755 O   0  0  0  0  0  0  0  0  0  0  0  0
   10.1383    1.9695   21.2177 O   0  0  0  0  0  0  0  0  0  0  0  0
    9.9446   -4.0962   24.7851 O   0  0  0  0  0  0  0  0  0  0  0  0
   11.3202   -2.5367   23.3640 O   0  0  0  0  0  0  0  0  0  0  0  0
   10.9323    2.6165   24.4291 O   0  0  0  0  0  0  0  0  0  0  0  0
   11.8560    0.3865   23.4213 H   0  0  0  0  0  0  0  0  0  0  0  0
  1  2  1  0  0  0  0
  1  3  2  0  0  0  0
  2  4  2  0  0  0  0
  3  5  1  0  0  0  0
  4  6  1  0  0  0  0
  5  6  2  0  0  0  0
  6 26  1  0  0  0  0
  7 14  1  0  0  0  0
  7 17  1  0  0  0  0
  7 20  2  0  0  0  0
  8 11  1  0  0  0  0
  8 21  2  0  0  0  0
  8 24  1  0  0  0  0
  9 15  1  0  0  0  0
  9 19  1  0  0  0  0
  9 22  2  0  0  0  0
 10 16  1  0  0  0  0
 10 18  1  0  0  0  0
 10 23  2  0  0  0  0
 11 12  1  0  0  0  0
 12 15  1  0  0  0  0
 13 14  1  0  0  0  0
 13 25  1  0  0  0  0
 14 18  1  0  0  0  0
 15 17  1  0  0  0  0
 15 24  1  0  0  0  0
 16 26  1  0  0  0  0
 17 25  1  0  0  0  0
 18 27  1  0  0  0  0
M  CHG  1  19  -1
M  END
> <ref_mols>
x2066_0

> <original SMILES>
O=C(COC1=CC=CC=C1)N[C@H]2CON(C3(C(O)=O)OC(CC3)=O)C2=O

> <Chemgauss4>
-6.254964

> <ref_pdb>
x0874_0

$$$$
x0857
  -OEChem-05172015543D

 12 12  0     1  0  0  0  0  0999 V2000
   13.8237   -1.5237   22.1026 C   0  0  0  0  0  0  0  0  0  0  0  0
   14.2754   -0.7393   23.3334 C   0  0  0  0  0  0  0  0  0  0  0  0
   12.3553   -1.9060   22.1850 C   0  0  0  0  0  0  0  0  0  0  0  0
   13.3864    0.4855   23.6162 C   0  0  2  0  0  0  0  0  0  0  0  0
   11.9075    0.0555   23.6924 C   0  0  1  0  0  0  0  0  0  0  0  0
   10.9239    1.2038   23.8787 C   0  0  0  0  0  0  0  0  0  0  0  0
   13.4145    3.9146   22.2573 C   0  0  0  0  0  0  0  0  0  0  0  0
   13.6631    1.6035   22.6032 C   0  0  0  0  0  0  0  0  0  0  0  0
   11.5329   -0.6859   22.4398 N   0  3  0  0  0  0  0  0  0  0  0  0
   13.1924    2.8231   23.1439 O   0  0  0  0  0  0  0  0  0  0  0  0
   11.6023   -0.0597   21.6359 H   0  0  0  0  0  0  0  0  0  0  0  0
   10.5507   -0.9612   22.5026 H   0  0  0  0  0  0  0  0  0  0  0  0
  1  2  1  0  0  0  0
  1  3  1  0  0  0  0
  2  4  1  0  0  0  0
  3  9  1  0  0  0  0
  4  5  1  0  0  0  0
  4  8  1  0  0  0  0
  5  6  1  0  0  0  0
  5  9  1  0  0  0  0
  7 10  1  0  0  0  0
  8 10  1  0  0  0  0
  9 11  1  0  0  0  0
  9 12  1  0  0  0  0
M  CHG  1   9   1
M  END
> <ref_mols>
x0857_0

> <original SMILES>
C[C@H]1NCCC[C@H]1COC

> <Chemgauss4>
-6.254652

> <ref_pdb>
x0195_0

$$$$
x0157
  -OEChem-05172015543D

 10 10  0     0  0  0  0  0  0999 V2000
    6.3417   -5.1414   21.0145 C   0  0  0  0  0  0  0  0  0  0  0  0
    6.6464   -5.3181   25.6483 C   0  0  0  0  0  0  0  0  0  0  0  0
    6.0936   -6.2637   23.3012 C   0  0  0  0  0  0  0  0  0  0  0  0
    6.4446   -4.1543   23.3731 C   0  0  0  0  0  0  0  0  0  0  0  0
    5.7400   -5.0877   22.3732 C   0  0  0  0  0  0  0  0  0  0  0  0
    6.9450   -3.9842   26.2788 C   0  0  0  0  0  0  0  0  0  0  0  0
    6.4089   -5.2655   24.3033 N   0  0  0  0  0  0  0  0  0  0  0  0
    7.5866   -5.3476   20.9841 O   0  5  0  0  0  0  0  0  0  0  0  0
    5.5246   -4.9729   20.0663 O   0  0  0  0  0  0  0  0  0  0  0  0
    6.6293   -6.3526   26.3133 O   0  0  0  0  0  0  0  0  0  0  0  0
  1  5  1  0  0  0  0
  1  8  1  0  0  0  0
  1  9  2  0  0  0  0
  2  6  1  0  0  0  0
  2  7  1  0  0  0  0
  2 10  2  0  0  0  0
  3  5  1  0  0  0  0
  3  7  1  0  0  0  0
  4  5  1  0  0  0  0
  4  7  1  0  0  0  0
M  CHG  1   8  -1
M  END
> <ref_mols>
x0157_0

> <original SMILES>
CC(=O)N1CC(C1)C(=O)O

> <Chemgauss4>
-6.249505

> <ref_pdb>
x1402_0

$$$$
x0259
  -OEChem-05172015543D

 15 15  0     0  0  0  0  0  0999 V2000
    2.9454   -6.0966   24.2297 C   0  0  0  0  0  0  0  0  0  0  0  0
    6.8658   -5.2799   23.8290 C   0  0  0  0  0  0  0  0  0  0  0  0
    7.7285   -5.4842   22.7355 C   0  0  0  0  0  0  0  0  0  0  0  0
    7.7062   -5.1023   24.9009 C   0  0  0  0  0  0  0  0  0  0  0  0
    4.5895   -4.8691   22.8301 C   0  0  0  0  0  0  0  0  0  0  0  0
    7.3632   -5.7312   21.3292 C   0  0  0  0  0  0  0  0  0  0  0  0
    7.4279   -4.8486   26.3280 C   0  0  0  0  0  0  0  0  0  0  0  0
   10.2077   -5.0926   25.1424 C   0  0  0  0  0  0  0  0  0  0  0  0
    3.1428   -5.0000   23.2754 C   0  0  0  0  0  0  0  0  0  0  0  0
    2.7849   -6.9632   24.9845 N   0  0  0  0  0  0  0  0  0  0  0  0
    9.0180   -5.4405   23.0809 N   0  0  0  0  0  0  0  0  0  0  0  0
    8.9718   -5.2066   24.4035 N   0  0  0  0  0  0  0  0  0  0  0  0
    5.4508   -5.2586   23.8531 N   0  0  0  0  0  0  0  0  0  0  0  0
    4.8976   -4.4691   21.7118 O   0  0  0  0  0  0  0  0  0  0  0  0
    5.0264   -5.5662   24.7257 H   0  0  0  0  0  0  0  0  0  0  0  0
  1  9  1  0  0  0  0
  1 10  3  0  0  0  0
  2  3  1  0  0  0  0
  2  4  2  0  0  0  0
  2 13  1  0  0  0  0
  3  6  1  0  0  0  0
  3 11  2  0  0  0  0
  4  7  1  0  0  0  0
  4 12  1  0  0  0  0
  5  9  1  0  0  0  0
  5 13  1  0  0  0  0
  5 14  2  0  0  0  0
  8 12  1  0  0  0  0
 11 12  1  0  0  0  0
 13 15  1  0  0  0  0
M  END
> <ref_mols>
x0259_0

> <original SMILES>
CC1=NN(C)C(C)=C1NC(=O)CC#N

> <Chemgauss4>
-6.248705

> <ref_pdb>
x1311_0

> <CYS145-warhead dist minimum (A)>
36.152225

> <CYS145-warhead dist mean (A)>
39.05424

> <CYS145-warhead dist stddev (A)>
1.2668597

$$$$
x0891
  -OEChem-05172015543D

 13 13  0     1  0  0  0  0  0999 V2000
   13.5160    1.4602   22.6791 C   0  0  0  0  0  0  0  0  0  0  0  0
   13.4959   -1.6288   22.3700 C   0  0  0  0  0  0  0  0  0  0  0  0
   14.0115   -0.7754   23.5302 C   0  0  0  0  0  0  0  0  0  0  0  0
   12.0177   -1.9466   22.5145 C   0  0  0  0  0  0  0  0  0  0  0  0
   13.1570    0.4704   23.7794 C   0  0  2  0  0  0  0  0  0  0  0  0
   11.6667    0.1397   23.8641 C   0  0  1  0  0  0  0  0  0  0  0  0
   10.7682    1.3677   23.9459 C   0  0  0  0  0  0  0  0  0  0  0  0
   13.1251    3.6698   21.9380 C   0  0  0  0  0  0  0  0  0  0  0  0
   11.2525   -0.6744   22.6727 N   0  3  0  0  0  0  0  0  0  0  0  0
   14.2682    1.2066   21.7479 O   0  0  0  0  0  0  0  0  0  0  0  0
   12.8750    2.6427   22.9027 O   0  0  0  0  0  0  0  0  0  0  0  0
   11.3390   -0.1136   21.8137 H   0  0  0  0  0  0  0  0  0  0  0  0
   10.2517   -0.9031   22.7513 H   0  0  0  0  0  0  0  0  0  0  0  0
  1  5  1  0  0  0  0
  1 10  2  0  0  0  0
  1 11  1  0  0  0  0
  2  3  1  0  0  0  0
  2  4  1  0  0  0  0
  3  5  1  0  0  0  0
  4  9  1  0  0  0  0
  5  6  1  0  0  0  0
  6  7  1  0  0  0  0
  6  9  1  0  0  0  0
  8 11  1  0  0  0  0
  9 12  1  0  0  0  0
  9 13  1  0  0  0  0
M  CHG  1   9   1
M  END
> <ref_mols>
x0891_0

> <original SMILES>
C[C@H]1NCCC[C@H]1C(OC)=O

> <Chemgauss4>
-6.247520

> <ref_pdb>
x0195_0

$$$$
x0917
  -OEChem-05172015543D

 12 12  0     1  0  0  0  0  0999 V2000
   14.2546   -0.7691   23.1309 C   0  0  0  0  0  0  0  0  0  0  0  0
   13.8629   -1.3660   21.7873 C   0  0  0  0  0  0  0  0  0  0  0  0
   11.4358   -1.1553   22.3893 C   0  0  0  0  0  0  0  0  0  0  0  0
   13.1790    0.1703   23.7058 C   0  0  2  0  0  0  0  0  0  0  0  0
   11.8114   -0.5556   23.7463 C   0  0  1  0  0  0  0  0  0  0  0  0
   13.1539    1.4991   22.9402 C   0  0  0  0  0  0  0  0  0  0  0  0
   10.6791    0.3328   24.2628 C   0  0  0  0  0  0  0  0  0  0  0  0
   12.5401   -2.0429   21.9172 N   0  3  0  0  0  0  0  0  0  0  0  0
    9.5125   -0.4577   24.3888 O   0  0  0  0  0  0  0  0  0  0  0  0
   12.2796   -2.4472   21.0072 H   0  0  0  0  0  0  0  0  0  0  0  0
   12.6294   -2.8439   22.5582 H   0  0  0  0  0  0  0  0  0  0  0  0
    8.8059    0.1245   24.7177 H   0  0  0  0  0  0  0  0  0  0  0  0
  1  2  1  0  0  0  0
  1  4  1  0  0  0  0
  2  8  1  0  0  0  0
  3  5  1  0  0  0  0
  3  8  1  0  0  0  0
  4  5  1  0  0  0  0
  4  6  1  0  0  0  0
  5  7  1  0  0  0  0
  7  9  1  0  0  0  0
  8 10  1  0  0  0  0
  8 11  1  0  0  0  0
  9 12  1  0  0  0  0
M  CHG  1   8   1
M  END
> <ref_mols>
x0917_0

> <original SMILES>
C[C@@H]1CCNC[C@@H]1CO

> <Chemgauss4>
-6.246874

> <ref_pdb>
x0195_0

$$$$
x0052
  -OEChem-05172015543D

 14 14  0     0  0  0  0  0  0999 V2000
   12.1166    2.2158   23.1081 C   0  0  0  0  0  0  0  0  0  0  0  0
   12.2939    0.8549   23.1639 C   0  0  0  0  0  0  0  0  0  0  0  0
   13.5596    0.6409   22.5860 C   0  0  0  0  0  0  0  0  0  0  0  0
   11.3605   -0.0870   23.7031 C   0  0  0  0  0  0  0  0  0  0  0  0
   13.5214    4.1038   22.2477 C   0  0  0  0  0  0  0  0  0  0  0  0
   14.2566   -0.6424   22.3870 C   0  0  0  0  0  0  0  0  0  0  0  0
   14.1449    1.7750   22.1918 N   0  0  0  0  0  0  0  0  0  0  0  0
   13.2429    2.7147   22.5226 N   0  0  0  0  0  0  0  0  0  0  0  0
   11.6957   -1.4488   23.6841 N   0  0  0  0  0  0  0  0  0  0  0  0
   10.2506    0.2629   24.1747 O   0  0  0  0  0  0  0  0  0  0  0  0
   13.5249   -1.4952   21.6116 F   0  0  0  0  0  0  0  0  0  0  0  0
   14.4533   -1.2939   23.5706 F   0  0  0  0  0  0  0  0  0  0  0  0
   12.5876   -1.7280   23.2901 H   0  0  0  0  0  0  0  0  0  0  0  0
   11.0767   -2.1646   24.0510 H   0  0  0  0  0  0  0  0  0  0  0  0
  1  2  2  0  0  0  0
  1  8  1  0  0  0  0
  2  3  1  0  0  0  0
  2  4  1  0  0  0  0
  3  6  1  0  0  0  0
  3  7  2  0  0  0  0
  4  9  1  0  0  0  0
  4 10  2  0  0  0  0
  5  8  1  0  0  0  0
  6 11  1  0  0  0  0
  6 12  1  0  0  0  0
  7  8  1  0  0  0  0
  9 13  1  0  0  0  0
  9 14  1  0  0  0  0
M  END
> <ref_mols>
x0052_0

> <original SMILES>
CN1C=C(C(=O)N)C(=N1)C(F)F

> <Chemgauss4>
-6.245347

> <ref_pdb>
x0195_0

$$$$
x2521
  -OEChem-05172015543D

 30 31  0     1  0  0  0  0  0999 V2000
    4.2001   -5.3376   24.1821 C   0  0  0  0  0  0  0  0  0  0  0  0
    5.1870   -4.7585   23.3922 C   0  0  0  0  0  0  0  0  0  0  0  0
   11.4451   -2.1498   23.1033 C   0  0  0  0  0  0  0  0  0  0  0  0
   10.2885   -1.6734   25.1702 C   0  0  0  0  0  0  0  0  0  0  0  0
   10.3101   -2.7990   22.6177 C   0  0  0  0  0  0  0  0  0  0  0  0
    9.1534   -2.3225   24.6846 C   0  0  0  0  0  0  0  0  0  0  0  0
    3.7229   -4.6104   25.2606 C   0  0  0  0  0  0  0  0  0  0  0  0
    5.1169   -2.8432   24.8004 C   0  0  0  0  0  0  0  0  0  0  0  0
   11.4344   -1.5871   24.3796 C   0  0  0  0  0  0  0  0  0  0  0  0
    5.6597   -3.4877   23.7005 C   0  0  0  0  0  0  0  0  0  0  0  0
    9.1642   -2.8853   23.4083 C   0  0  0  0  0  0  0  0  0  0  0  0
    9.7127   -6.7499   22.6535 C   0  0  0  0  0  0  0  0  0  0  0  0
    9.1186   -5.7102   23.2478 C   0  0  0  0  0  0  0  0  0  0  0  0
    8.0545   -4.9433   22.5359 C   0  0  0  0  0  0  0  0  0  0  0  0
    6.3029   -2.6915   21.4052 C   0  0  0  0  0  0  0  0  0  0  0  0
   13.1700   -1.4960   26.2039 C   0  0  0  0  0  0  0  0  0  0  0  0
    7.4177    0.0499   19.0811 C   0  0  0  0  0  0  0  0  0  0  0  0
    7.0139   -2.3543   18.4938 C   0  0  0  0  0  0  0  0  0  0  0  0
    5.1139   -0.9147   19.2721 C   0  0  0  0  0  0  0  0  0  0  0  0
   12.3615    1.2295   23.9315 C   0  0  0  0  0  0  0  0  0  0  0  0
    6.7309   -2.8309   22.8613 C   0  0  2  0  0  0  0  0  0  0  0  0
   12.6481   -0.8931   24.8987 C   0  0  2  0  0  0  0  0  0  0  0  0
    6.6108   -1.2071   19.4261 C   0  0  0  0  0  0  0  0  0  0  0  0
    4.1574   -3.3737   25.5913 N   0  0  0  0  0  0  0  0  0  0  0  0
    6.8858   -1.5920   20.7985 N   0  0  0  0  0  0  0  0  0  0  0  0
    7.9705   -3.5675   22.8980 N   0  0  0  0  0  0  0  0  0  0  0  0
    7.3471   -5.5297   21.7162 O   0  0  0  0  0  0  0  0  0  0  0  0
    5.5025   -3.4557   20.8697 O   0  0  0  0  0  0  0  0  0  0  0  0
   12.3340    0.4839   25.1364 O   0  0  0  0  0  0  0  0  0  0  0  0
    7.5358   -1.0145   21.3178 H   0  0  0  0  0  0  0  0  0  0  0  0
  1  2  2  0  0  0  0
  1  7  1  0  0  0  0
  2 10  1  0  0  0  0
  3  5  2  0  0  0  0
  3  9  1  0  0  0  0
  4  6  1  0  0  0  0
  4  9  2  0  0  0  0
  5 11  1  0  0  0  0
  6 11  2  0  0  0  0
  7 24  2  0  0  0  0
  8 10  2  0  0  0  0
  8 24  1  0  0  0  0
  9 22  1  0  0  0  0
 10 21  1  0  0  0  0
 11 26  1  0  0  0  0
 12 13  2  0  0  0  0
 13 14  1  0  0  0  0
 14 26  1  0  0  0  0
 14 27  2  0  0  0  0
 15 21  1  0  0  0  0
 15 25  1  0  0  0  0
 15 28  2  0  0  0  0
 16 22  1  0  0  0  0
 17 23  1  0  0  0  0
 18 23  1  0  0  0  0
 19 23  1  0  0  0  0
 20 29  1  0  0  0  0
 21 26  1  0  0  0  0
 22 29  1  0  0  0  0
 23 25  1  0  0  0  0
 25 30  1  0  0  0  0
M  END
> <ref_mols>
x2521_0

> <original SMILES>
COC(C)C=1C=CC(=CC1)N(C(C(=O)NC(C)(C)C)C=2C=CC=NC2)C(=O)C=C

> <Chemgauss4>
-6.235109

> <ref_pdb>
x0749_0

$$$$
x2689
  -OEChem-05172015543D

 30 31  0     1  0  0  0  0  0999 V2000
    4.2001   -5.3376   24.1821 C   0  0  0  0  0  0  0  0  0  0  0  0
    5.1870   -4.7585   23.3922 C   0  0  0  0  0  0  0  0  0  0  0  0
   11.4451   -2.1498   23.1033 C   0  0  0  0  0  0  0  0  0  0  0  0
   10.2885   -1.6734   25.1702 C   0  0  0  0  0  0  0  0  0  0  0  0
   10.3101   -2.7990   22.6177 C   0  0  0  0  0  0  0  0  0  0  0  0
    9.1534   -2.3225   24.6846 C   0  0  0  0  0  0  0  0  0  0  0  0
    3.7229   -4.6104   25.2606 C   0  0  0  0  0  0  0  0  0  0  0  0
    5.1169   -2.8432   24.8004 C   0  0  0  0  0  0  0  0  0  0  0  0
   11.4344   -1.5871   24.3796 C   0  0  0  0  0  0  0  0  0  0  0  0
    5.6597   -3.4877   23.7005 C   0  0  0  0  0  0  0  0  0  0  0  0
    9.1642   -2.8853   23.4083 C   0  0  0  0  0  0  0  0  0  0  0  0
    9.7127   -6.7499   22.6535 C   0  0  0  0  0  0  0  0  0  0  0  0
    9.1186   -5.7102   23.2478 C   0  0  0  0  0  0  0  0  0  0  0  0
    8.0545   -4.9433   22.5359 C   0  0  0  0  0  0  0  0  0  0  0  0
    6.3029   -2.6915   21.4052 C   0  0  0  0  0  0  0  0  0  0  0  0
   13.1700   -1.4960   26.2039 C   0  0  0  0  0  0  0  0  0  0  0  0
    7.4177    0.0499   19.0811 C   0  0  0  0  0  0  0  0  0  0  0  0
    7.0139   -2.3543   18.4938 C   0  0  0  0  0  0  0  0  0  0  0  0
    5.1139   -0.9147   19.2721 C   0  0  0  0  0  0  0  0  0  0  0  0
   12.3615    1.2295   23.9315 C   0  0  0  0  0  0  0  0  0  0  0  0
    6.7309   -2.8309   22.8613 C   0  0  2  0  0  0  0  0  0  0  0  0
   12.6481   -0.8931   24.8987 C   0  0  2  0  0  0  0  0  0  0  0  0
    6.6108   -1.2071   19.4261 C   0  0  0  0  0  0  0  0  0  0  0  0
    4.1574   -3.3737   25.5913 N   0  0  0  0  0  0  0  0  0  0  0  0
    6.8858   -1.5920   20.7985 N   0  0  0  0  0  0  0  0  0  0  0  0
    7.9705   -3.5675   22.8980 N   0  0  0  0  0  0  0  0  0  0  0  0
    7.3471   -5.5297   21.7162 O   0  0  0  0  0  0  0  0  0  0  0  0
    5.5025   -3.4557   20.8697 O   0  0  0  0  0  0  0  0  0  0  0  0
   12.3340    0.4839   25.1364 O   0  0  0  0  0  0  0  0  0  0  0  0
    7.5358   -1.0145   21.3178 H   0  0  0  0  0  0  0  0  0  0  0  0
  1  2  2  0  0  0  0
  1  7  1  0  0  0  0
  2 10  1  0  0  0  0
  3  5  2  0  0  0  0
  3  9  1  0  0  0  0
  4  6  1  0  0  0  0
  4  9  2  0  0  0  0
  5 11  1  0  0  0  0
  6 11  2  0  0  0  0
  7 24  2  0  0  0  0
  8 10  2  0  0  0  0
  8 24  1  0  0  0  0
  9 22  1  0  0  0  0
 10 21  1  0  0  0  0
 11 26  1  0  0  0  0
 12 13  2  0  0  0  0
 13 14  1  0  0  0  0
 14 26  1  0  0  0  0
 14 27  2  0  0  0  0
 15 21  1  0  0  0  0
 15 25  1  0  0  0  0
 15 28  2  0  0  0  0
 16 22  1  0  0  0  0
 17 23  1  0  0  0  0
 18 23  1  0  0  0  0
 19 23  1  0  0  0  0
 20 29  1  0  0  0  0
 21 26  1  0  0  0  0
 22 29  1  0  0  0  0
 23 25  1  0  0  0  0
 25 30  1  0  0  0  0
M  END
> <ref_mols>
x2689_0

> <original SMILES>
COC(C)C=1C=CC(=CC1)N(C(C(=O)NC(C)(C)C)C=2C=CC=NC2)C(=O)C=C

> <Chemgauss4>
-6.235109

> <ref_pdb>
x0749_0

> <CYS145-warhead dist minimum (A)>
8.5095

> <CYS145-warhead dist mean (A)>
9.389936

> <CYS145-warhead dist stddev (A)>
0.3418707

$$$$
x1014
  -OEChem-05172015543D

  9  9  0     0  0  0  0  0  0999 V2000
   11.6501   -0.6542   23.2582 C   0  0  0  0  0  0  0  0  0  0  0  0
   12.3234   -1.3501   22.0713 C   0  0  0  0  0  0  0  0  0  0  0  0
   12.6269   -0.7654   24.4259 C   0  0  0  0  0  0  0  0  0  0  0  0
   13.6675   -1.8584   22.5847 C   0  0  0  0  0  0  0  0  0  0  0  0
   13.9738   -0.9287   23.7449 C   0  0  0  0  0  0  0  0  0  0  0  0
   14.9627   -1.5270   24.6590 N   0  3  0  0  0  0  0  0  0  0  0  0
   14.5010   -1.9348   25.4773 H   0  0  0  0  0  0  0  0  0  0  0  0
   15.6276   -0.8200   24.9872 H   0  0  0  0  0  0  0  0  0  0  0  0
   15.4909   -2.2678   24.1884 H   0  0  0  0  0  0  0  0  0  0  0  0
  1  2  1  0  0  0  0
  1  3  1  0  0  0  0
  2  4  1  0  0  0  0
  3  5  1  0  0  0  0
  4  5  1  0  0  0  0
  5  6  1  0  0  0  0
  6  7  1  0  0  0  0
  6  8  1  0  0  0  0
  6  9  1  0  0  0  0
M  CHG  1   6   1
M  END
> <ref_mols>
x1014_0

> <original SMILES>
NC1CCCC1

> <Chemgauss4>
-6.217303

> <ref_pdb>
x0678_0

$$$$
x0981
  -OEChem-05172015543D

 20 19  0     1  0  0  0  0  0999 V2000
   12.7532   -1.7698   23.1688 C   0  0  0  0  0  0  0  0  0  0  0  0
   12.0526   -2.7406   23.2580 C   0  0  0  0  0  0  0  0  0  0  0  0
   10.0227    2.1977   22.3835 C   0  0  0  0  0  0  0  0  0  0  0  0
   12.3630    5.3865   23.8382 C   0  0  0  0  0  0  0  0  0  0  0  0
   13.2033    1.8189   22.6521 C   0  0  0  0  0  0  0  0  0  0  0  0
    8.9761    2.3517   21.3303 C   0  0  0  0  0  0  0  0  0  0  0  0
   13.6104   -0.5901   23.0595 C   0  0  0  0  0  0  0  0  0  0  0  0
   13.0397    4.2951   23.0278 C   0  0  0  0  0  0  0  0  0  0  0  0
   12.2877    2.9645   23.0650 C   0  0  1  0  0  0  0  0  0  0  0  0
   11.4345    6.0874   23.0981 N   0  0  0  0  0  0  0  0  0  0  0  0
   12.8542    0.6224   23.2624 N   0  0  0  0  0  0  0  0  0  0  0  0
   11.1577    2.9612   22.1711 N   0  0  0  0  0  0  0  0  0  0  0  0
    9.8231    1.4426   23.3278 O   0  0  0  0  0  0  0  0  0  0  0  0
   12.6137    5.6246   25.0160 O   0  0  0  0  0  0  0  0  0  0  0  0
   14.1638    1.9649   21.8986 O   0  0  0  0  0  0  0  0  0  0  0  0
   10.9437   -4.2772   23.3996 Br  0  0  0  0  0  0  0  0  0  0  0  0
   11.2623    5.8578   22.1249 H   0  0  0  0  0  0  0  0  0  0  0  0
   10.8924    6.8509   23.4898 H   0  0  0  0  0  0  0  0  0  0  0  0
   12.0479    0.5880   23.8791 H   0  0  0  0  0  0  0  0  0  0  0  0
   11.1959    3.5498   21.3418 H   0  0  0  0  0  0  0  0  0  0  0  0
  1  2  3  0  0  0  0
  1  7  1  0  0  0  0
  2 16  1  0  0  0  0
  3  6  1  0  0  0  0
  3 12  1  0  0  0  0
  3 13  2  0  0  0  0
  4  8  1  0  0  0  0
  4 10  1  0  0  0  0
  4 14  2  0  0  0  0
  5  9  1  0  0  0  0
  5 11  1  0  0  0  0
  5 15  2  0  0  0  0
  7 11  1  0  0  0  0
  8  9  1  0  0  0  0
  9 12  1  0  0  0  0
 10 17  1  0  0  0  0
 10 18  1  0  0  0  0
 11 19  1  0  0  0  0
 12 20  1  0  0  0  0
M  END
> <ref_mols>
x0981_0

> <original SMILES>
CC(NC(CC(N)=O)C(NCC#CBr)=O)=O

> <Chemgauss4>
-6.209602

> <ref_pdb>
x0195_0

$$$$
x2639
  -OEChem-05172015543D

 34 36  0     1  0  0  0  0  0999 V2000
    5.4079   -5.5963   26.1652 C   0  0  0  0  0  0  0  0  0  0  0  0
    6.3671   -4.9595   25.3857 C   0  0  0  0  0  0  0  0  0  0  0  0
   11.4755   -2.3977   23.4439 C   0  0  0  0  0  0  0  0  0  0  0  0
   10.9682   -3.1423   25.6856 C   0  0  0  0  0  0  0  0  0  0  0  0
   10.2893   -2.9705   22.9851 C   0  0  0  0  0  0  0  0  0  0  0  0
    9.7819   -3.7151   25.2268 C   0  0  0  0  0  0  0  0  0  0  0  0
    7.4435   -0.3449   19.8082 C   0  0  0  0  0  0  0  0  0  0  0  0
    5.8827   -2.1345   19.3630 C   0  0  0  0  0  0  0  0  0  0  0  0
    7.2038    0.1801   18.5384 C   0  0  0  0  0  0  0  0  0  0  0  0
    5.6429   -1.6094   18.0932 C   0  0  0  0  0  0  0  0  0  0  0  0
    4.0741   -5.3540   25.8786 C   0  0  0  0  0  0  0  0  0  0  0  0
    4.6100   -3.9361   24.1522 C   0  0  0  0  0  0  0  0  0  0  0  0
   11.8150   -2.4837   24.7941 C   0  0  0  0  0  0  0  0  0  0  0  0
    5.9689   -4.1118   24.3580 C   0  0  0  0  0  0  0  0  0  0  0  0
    6.7830   -1.5023   20.2205 C   0  0  0  0  0  0  0  0  0  0  0  0
    9.4425   -3.6292   23.8766 C   0  0  0  0  0  0  0  0  0  0  0  0
    6.3034   -0.4521   17.6809 C   0  0  0  0  0  0  0  0  0  0  0  0
    9.4034   -7.6259   22.4796 C   0  0  0  0  0  0  0  0  0  0  0  0
    9.4221   -6.3596   22.9074 C   0  0  0  0  0  0  0  0  0  0  0  0
    8.1630   -5.5593   22.9463 C   0  0  0  0  0  0  0  0  0  0  0  0
    6.4591   -3.1719   22.0789 C   0  0  0  0  0  0  0  0  0  0  0  0
   11.9559    0.3518   26.0583 C   0  0  0  0  0  0  0  0  0  0  0  0
   13.9529   -1.1584   24.1918 C   0  0  0  0  0  0  0  0  0  0  0  0
   14.0203   -2.9779   25.8735 C   0  0  0  0  0  0  0  0  0  0  0  0
   12.8528   -0.8221   26.4407 C   0  0  0  0  0  0  0  0  0  0  0  0
    6.9880   -3.4049   23.4919 C   0  0  2  0  0  0  0  0  0  0  0  0
   13.1244   -1.8514   25.3003 C   0  0  0  0  0  0  0  0  0  0  0  0
    3.6489   -4.5374   24.8887 N   0  0  0  0  0  0  0  0  0  0  0  0
    7.0260   -2.0347   21.5089 N   0  0  0  0  0  0  0  0  0  0  0  0
    8.2559   -4.2020   23.4181 N   0  0  0  0  0  0  0  0  0  0  0  0
    7.1082   -6.0943   22.6038 O   0  0  0  0  0  0  0  0  0  0  0  0
    5.6302   -3.9211   21.5691 O   0  0  0  0  0  0  0  0  0  0  0  0
    6.0076    0.1960   16.1140 Cl  0  0  0  0  0  0  0  0  0  0  0  0
    7.6930   -1.5273   22.0865 H   0  0  0  0  0  0  0  0  0  0  0  0
  1  2  2  0  0  0  0
  1 11  1  0  0  0  0
  2 14  1  0  0  0  0
  3  5  2  0  0  0  0
  3 13  1  0  0  0  0
  4  6  1  0  0  0  0
  4 13  2  0  0  0  0
  5 16  1  0  0  0  0
  6 16  2  0  0  0  0
  7  9  2  0  0  0  0
  7 15  1  0  0  0  0
  8 10  1  0  0  0  0
  8 15  2  0  0  0  0
  9 17  1  0  0  0  0
 10 17  2  0  0  0  0
 11 28  2  0  0  0  0
 12 14  2  0  0  0  0
 12 28  1  0  0  0  0
 13 27  1  0  0  0  0
 14 26  1  0  0  0  0
 15 29  1  0  0  0  0
 16 30  1  0  0  0  0
 17 33  1  0  0  0  0
 18 19  2  0  0  0  0
 19 20  1  0  0  0  0
 20 30  1  0  0  0  0
 20 31  2  0  0  0  0
 21 26  1  0  0  0  0
 21 29  1  0  0  0  0
 21 32  2  0  0  0  0
 22 25  1  0  0  0  0
 23 27  1  0  0  0  0
 24 27  1  0  0  0  0
 25 27  1  0  0  0  0
 26 30  1  0  0  0  0
 29 34  1  0  0  0  0
M  END
> <ref_mols>
x2639_0

> <original SMILES>
CCC(C)(C)C=1C=CC(=CC1)N(C(C(=O)NC=2C=CC(Cl)=CC2)C=3C=CC=NC3)C(=O)C=C

> <Chemgauss4>
-6.207908

> <ref_pdb>
x0749_0

$$$$
x2471
  -OEChem-05172015543D

 34 36  0     1  0  0  0  0  0999 V2000
    5.4079   -5.5963   26.1652 C   0  0  0  0  0  0  0  0  0  0  0  0
    6.3671   -4.9595   25.3857 C   0  0  0  0  0  0  0  0  0  0  0  0
   11.4755   -2.3977   23.4439 C   0  0  0  0  0  0  0  0  0  0  0  0
   10.9682   -3.1423   25.6856 C   0  0  0  0  0  0  0  0  0  0  0  0
   10.2893   -2.9705   22.9851 C   0  0  0  0  0  0  0  0  0  0  0  0
    9.7819   -3.7151   25.2268 C   0  0  0  0  0  0  0  0  0  0  0  0
    7.4435   -0.3449   19.8082 C   0  0  0  0  0  0  0  0  0  0  0  0
    5.8827   -2.1345   19.3630 C   0  0  0  0  0  0  0  0  0  0  0  0
    7.2038    0.1801   18.5384 C   0  0  0  0  0  0  0  0  0  0  0  0
    5.6429   -1.6094   18.0932 C   0  0  0  0  0  0  0  0  0  0  0  0
    4.0741   -5.3540   25.8786 C   0  0  0  0  0  0  0  0  0  0  0  0
    4.6100   -3.9361   24.1522 C   0  0  0  0  0  0  0  0  0  0  0  0
   11.8150   -2.4837   24.7941 C   0  0  0  0  0  0  0  0  0  0  0  0
    5.9689   -4.1118   24.3580 C   0  0  0  0  0  0  0  0  0  0  0  0
    6.7830   -1.5023   20.2205 C   0  0  0  0  0  0  0  0  0  0  0  0
    9.4425   -3.6292   23.8766 C   0  0  0  0  0  0  0  0  0  0  0  0
    6.3034   -0.4521   17.6809 C   0  0  0  0  0  0  0  0  0  0  0  0
    9.4034   -7.6259   22.4796 C   0  0  0  0  0  0  0  0  0  0  0  0
    9.4221   -6.3596   22.9074 C   0  0  0  0  0  0  0  0  0  0  0  0
    8.1630   -5.5593   22.9463 C   0  0  0  0  0  0  0  0  0  0  0  0
    6.4591   -3.1719   22.0789 C   0  0  0  0  0  0  0  0  0  0  0  0
   11.9559    0.3518   26.0583 C   0  0  0  0  0  0  0  0  0  0  0  0
   13.9529   -1.1584   24.1918 C   0  0  0  0  0  0  0  0  0  0  0  0
   14.0203   -2.9779   25.8735 C   0  0  0  0  0  0  0  0  0  0  0  0
   12.8528   -0.8221   26.4407 C   0  0  0  0  0  0  0  0  0  0  0  0
    6.9880   -3.4049   23.4919 C   0  0  2  0  0  0  0  0  0  0  0  0
   13.1244   -1.8514   25.3003 C   0  0  0  0  0  0  0  0  0  0  0  0
    3.6489   -4.5374   24.8887 N   0  0  0  0  0  0  0  0  0  0  0  0
    7.0260   -2.0347   21.5089 N   0  0  0  0  0  0  0  0  0  0  0  0
    8.2559   -4.2020   23.4181 N   0  0  0  0  0  0  0  0  0  0  0  0
    7.1082   -6.0943   22.6038 O   0  0  0  0  0  0  0  0  0  0  0  0
    5.6302   -3.9211   21.5691 O   0  0  0  0  0  0  0  0  0  0  0  0
    6.0076    0.1960   16.1140 Cl  0  0  0  0  0  0  0  0  0  0  0  0
    7.6930   -1.5273   22.0865 H   0  0  0  0  0  0  0  0  0  0  0  0
  1  2  2  0  0  0  0
  1 11  1  0  0  0  0
  2 14  1  0  0  0  0
  3  5  2  0  0  0  0
  3 13  1  0  0  0  0
  4  6  1  0  0  0  0
  4 13  2  0  0  0  0
  5 16  1  0  0  0  0
  6 16  2  0  0  0  0
  7  9  2  0  0  0  0
  7 15  1  0  0  0  0
  8 10  1  0  0  0  0
  8 15  2  0  0  0  0
  9 17  1  0  0  0  0
 10 17  2  0  0  0  0
 11 28  2  0  0  0  0
 12 14  2  0  0  0  0
 12 28  1  0  0  0  0
 13 27  1  0  0  0  0
 14 26  1  0  0  0  0
 15 29  1  0  0  0  0
 16 30  1  0  0  0  0
 17 33  1  0  0  0  0
 18 19  2  0  0  0  0
 19 20  1  0  0  0  0
 20 30  1  0  0  0  0
 20 31  2  0  0  0  0
 21 26  1  0  0  0  0
 21 29  1  0  0  0  0
 21 32  2  0  0  0  0
 22 25  1  0  0  0  0
 23 27  1  0  0  0  0
 24 27  1  0  0  0  0
 25 27  1  0  0  0  0
 26 30  1  0  0  0  0
 29 34  1  0  0  0  0
M  END
> <ref_mols>
x2471_0

> <original SMILES>
CCC(C)(C)C=1C=CC(=CC1)N(C(C(=O)NC=2C=CC(Cl)=CC2)C=3C=CC=NC3)C(=O)C=C

> <Chemgauss4>
-6.207908

> <ref_pdb>
x0749_0

> <CYS145-warhead dist minimum (A)>
9.199244

> <CYS145-warhead dist mean (A)>
9.897256

> <CYS145-warhead dist stddev (A)>
0.28631324

$$$$
x2788
  -OEChem-05172015543D

 34 36  0     1  0  0  0  0  0999 V2000
    5.4079   -5.5963   26.1652 C   0  0  0  0  0  0  0  0  0  0  0  0
    6.3671   -4.9595   25.3857 C   0  0  0  0  0  0  0  0  0  0  0  0
   11.4755   -2.3977   23.4439 C   0  0  0  0  0  0  0  0  0  0  0  0
   10.9682   -3.1423   25.6856 C   0  0  0  0  0  0  0  0  0  0  0  0
   10.2893   -2.9705   22.9851 C   0  0  0  0  0  0  0  0  0  0  0  0
    9.7819   -3.7151   25.2268 C   0  0  0  0  0  0  0  0  0  0  0  0
    7.4435   -0.3449   19.8082 C   0  0  0  0  0  0  0  0  0  0  0  0
    5.8827   -2.1345   19.3630 C   0  0  0  0  0  0  0  0  0  0  0  0
    7.2038    0.1801   18.5384 C   0  0  0  0  0  0  0  0  0  0  0  0
    5.6429   -1.6094   18.0932 C   0  0  0  0  0  0  0  0  0  0  0  0
    4.0741   -5.3540   25.8786 C   0  0  0  0  0  0  0  0  0  0  0  0
    4.6100   -3.9361   24.1522 C   0  0  0  0  0  0  0  0  0  0  0  0
   11.8150   -2.4837   24.7941 C   0  0  0  0  0  0  0  0  0  0  0  0
    5.9689   -4.1118   24.3580 C   0  0  0  0  0  0  0  0  0  0  0  0
    6.7830   -1.5023   20.2205 C   0  0  0  0  0  0  0  0  0  0  0  0
    9.4425   -3.6292   23.8766 C   0  0  0  0  0  0  0  0  0  0  0  0
    6.3034   -0.4521   17.6809 C   0  0  0  0  0  0  0  0  0  0  0  0
    9.4034   -7.6259   22.4796 C   0  0  0  0  0  0  0  0  0  0  0  0
    9.4221   -6.3596   22.9074 C   0  0  0  0  0  0  0  0  0  0  0  0
    8.1630   -5.5593   22.9463 C   0  0  0  0  0  0  0  0  0  0  0  0
    6.4591   -3.1719   22.0789 C   0  0  0  0  0  0  0  0  0  0  0  0
   11.9559    0.3518   26.0583 C   0  0  0  0  0  0  0  0  0  0  0  0
   13.9529   -1.1584   24.1918 C   0  0  0  0  0  0  0  0  0  0  0  0
   14.0203   -2.9779   25.8735 C   0  0  0  0  0  0  0  0  0  0  0  0
   12.8528   -0.8221   26.4407 C   0  0  0  0  0  0  0  0  0  0  0  0
    6.9880   -3.4049   23.4919 C   0  0  2  0  0  0  0  0  0  0  0  0
   13.1244   -1.8514   25.3003 C   0  0  0  0  0  0  0  0  0  0  0  0
    3.6489   -4.5374   24.8887 N   0  0  0  0  0  0  0  0  0  0  0  0
    7.0260   -2.0347   21.5089 N   0  0  0  0  0  0  0  0  0  0  0  0
    8.2559   -4.2020   23.4181 N   0  0  0  0  0  0  0  0  0  0  0  0
    7.1082   -6.0943   22.6038 O   0  0  0  0  0  0  0  0  0  0  0  0
    5.6302   -3.9211   21.5691 O   0  0  0  0  0  0  0  0  0  0  0  0
    6.0076    0.1960   16.1140 Cl  0  0  0  0  0  0  0  0  0  0  0  0
    7.6930   -1.5273   22.0865 H   0  0  0  0  0  0  0  0  0  0  0  0
  1  2  2  0  0  0  0
  1 11  1  0  0  0  0
  2 14  1  0  0  0  0
  3  5  2  0  0  0  0
  3 13  1  0  0  0  0
  4  6  1  0  0  0  0
  4 13  2  0  0  0  0
  5 16  1  0  0  0  0
  6 16  2  0  0  0  0
  7  9  2  0  0  0  0
  7 15  1  0  0  0  0
  8 10  1  0  0  0  0
  8 15  2  0  0  0  0
  9 17  1  0  0  0  0
 10 17  2  0  0  0  0
 11 28  2  0  0  0  0
 12 14  2  0  0  0  0
 12 28  1  0  0  0  0
 13 27  1  0  0  0  0
 14 26  1  0  0  0  0
 15 29  1  0  0  0  0
 16 30  1  0  0  0  0
 17 33  1  0  0  0  0
 18 19  2  0  0  0  0
 19 20  1  0  0  0  0
 20 30  1  0  0  0  0
 20 31  2  0  0  0  0
 21 26  1  0  0  0  0
 21 29  1  0  0  0  0
 21 32  2  0  0  0  0
 22 25  1  0  0  0  0
 23 27  1  0  0  0  0
 24 27  1  0  0  0  0
 25 27  1  0  0  0  0
 26 30  1  0  0  0  0
 29 34  1  0  0  0  0
M  END
> <ref_mols>
x2788_0

> <original SMILES>
CCC(C)(C)C=1C=CC(=CC1)N(C(C(=O)NC=2C=CC(Cl)=CC2)C=3C=CC=NC3)C(=O)C=C

> <Chemgauss4>
-6.207908

> <ref_pdb>
x0749_0

> <CYS145-warhead dist minimum (A)>
8.811997

> <CYS145-warhead dist mean (A)>
10.651015

> <CYS145-warhead dist stddev (A)>
0.49087676

$$$$
x1024
  -OEChem-05172015543D

 11 11  0     0  0  0  0  0  0999 V2000
   11.6028   -0.1844   21.4416 C   0  0  0  0  0  0  0  0  0  0  0  0
   13.7708   -0.9006   23.0851 C   0  0  0  0  0  0  0  0  0  0  0  0
   13.8749   -1.1975   21.5985 C   0  0  0  0  0  0  0  0  0  0  0  0
   13.1079    0.4452   23.3264 C   0  0  0  0  0  0  0  0  0  0  0  0
   12.5841   -1.0286   20.9194 N   0  0  0  0  0  0  0  0  0  0  0  0
   11.8402    0.5647   22.5956 N   0  3  0  0  0  0  0  0  0  0  0  0
   10.3792   -0.0735   20.7932 N   0  0  0  0  0  0  0  0  0  0  0  0
   12.3864   -1.5380   20.0608 H   0  0  0  0  0  0  0  0  0  0  0  0
   11.1119    1.1910   22.9316 H   0  0  0  0  0  0  0  0  0  0  0  0
   10.2514   -0.6061   19.9745 H   0  0  0  0  0  0  0  0  0  0  0  0
    9.7103    0.5313   21.1896 H   0  0  0  0  0  0  0  0  0  0  0  0
  1  5  1  0  0  0  0
  1  6  2  0  0  0  0
  1  7  1  0  0  0  0
  2  3  1  0  0  0  0
  2  4  1  0  0  0  0
  3  5  1  0  0  0  0
  4  6  1  0  0  0  0
  5  8  1  0  0  0  0
  6  9  1  0  0  0  0
  7 10  1  0  0  0  0
  7 11  1  0  0  0  0
M  CHG  1   6   1
M  END
> <ref_mols>
x1024_0

> <original SMILES>
Cl.N=C1NCCCN1

> <Chemgauss4>
-6.175355

> <ref_pdb>
x0678_0

$$$$
x0953
  -OEChem-05172015543D

 10 10  0     0  0  0  0  0  0999 V2000
    7.0857   -3.7559   21.6664 C   0  0  0  0  0  0  0  0  0  0  0  0
    9.6463   -3.9601   24.3989 C   0  0  0  0  0  0  0  0  0  0  0  0
   10.5277   -2.9611   23.9859 C   0  0  0  0  0  0  0  0  0  0  0  0
    9.1258   -2.5166   22.0691 C   0  0  0  0  0  0  0  0  0  0  0  0
    8.2444   -3.5158   22.4821 C   0  0  0  0  0  0  0  0  0  0  0  0
    8.5046   -4.2375   23.6469 C   0  0  0  0  0  0  0  0  0  0  0  0
   10.2675   -2.2393   22.8211 C   0  0  0  0  0  0  0  0  0  0  0  0
    6.1501   -3.9500   21.0078 N   0  0  0  0  0  0  0  0  0  0  0  0
    7.7132   -5.1634   24.0539 O   0  5  0  0  0  0  0  0  0  0  0  0
   11.4628   -0.8858   22.2628 Br  0  0  0  0  0  0  0  0  0  0  0  0
  1  5  1  0  0  0  0
  1  8  3  0  0  0  0
  2  3  1  0  0  0  0
  2  6  2  0  0  0  0
  3  7  2  0  0  0  0
  4  5  2  0  0  0  0
  4  7  1  0  0  0  0
  5  6  1  0  0  0  0
  6  9  1  0  0  0  0
  7 10  1  0  0  0  0
M  CHG  1   9  -1
M  END
> <ref_mols>
x0953_0

> <original SMILES>
OC1=C(C#N)C=C(Br)C=C1

> <Chemgauss4>
-6.172769

> <ref_pdb>
x1418_0

> <CYS145-warhead dist minimum (A)>
13.133085

> <CYS145-warhead dist mean (A)>
13.725894

> <CYS145-warhead dist stddev (A)>
0.4197482

$$$$
x0991
  -OEChem-05172015543D

  9  8  0     0  0  0  0  0  0999 V2000
   13.8522    4.0194   22.1734 C   0  0  0  0  0  0  0  0  0  0  0  0
   12.7039    2.0344   23.0931 C   0  0  0  0  0  0  0  0  0  0  0  0
   13.5410    2.5891   21.9531 C   0  0  0  0  0  0  0  0  0  0  0  0
   14.9754    4.3141   22.8116 N   0  0  0  0  0  0  0  0  0  0  0  0
   12.9872    4.9150   21.7201 N   0  3  0  0  0  0  0  0  0  0  0  0
   15.5989    3.5845   23.1387 H   0  0  0  0  0  0  0  0  0  0  0  0
   15.2284    5.2804   22.9859 H   0  0  0  0  0  0  0  0  0  0  0  0
   12.1451    4.6183   21.2395 H   0  0  0  0  0  0  0  0  0  0  0  0
   13.1498    5.9083   21.8421 H   0  0  0  0  0  0  0  0  0  0  0  0
  1  3  1  0  0  0  0
  1  4  1  0  0  0  0
  1  5  2  0  0  0  0
  2  3  1  0  0  0  0
  4  6  1  0  0  0  0
  4  7  1  0  0  0  0
  5  8  1  0  0  0  0
  5  9  1  0  0  0  0
M  CHG  1   5   1
M  END
> <ref_mols>
x0991_0

> <original SMILES>
CCC(=N)N

> <Chemgauss4>
-6.168726

> <ref_pdb>
x0195_0

$$$$
x1011
  -OEChem-05172015543D

  7  7  0     0  0  0  0  0  0999 V2000
    6.3955   -2.6105   19.2759 C   0  0  0  0  0  0  0  0  0  0  0  0
    8.2824    0.1794   20.0243 C   0  0  0  0  0  0  0  0  0  0  0  0
    7.6971   -0.4604   18.7490 C   0  0  0  0  0  0  0  0  0  0  0  0
    7.5373   -0.9096   20.8225 C   0  0  0  0  0  0  0  0  0  0  0  0
    7.6000   -1.7848   19.5464 C   0  0  0  0  0  0  0  0  0  0  0  0
    6.0435   -2.6701   18.0652 O   0  5  0  0  0  0  0  0  0  0  0  0
    5.8802   -3.1460   20.2971 O   0  0  0  0  0  0  0  0  0  0  0  0
  1  5  1  0  0  0  0
  1  6  1  0  0  0  0
  1  7  2  0  0  0  0
  2  3  1  0  0  0  0
  2  4  1  0  0  0  0
  3  5  1  0  0  0  0
  4  5  1  0  0  0  0
M  CHG  1   6  -1
M  END
> <ref_mols>
x1011_0

> <original SMILES>
OC(=O)C1CCC1

> <Chemgauss4>
-6.165310

> <ref_pdb>
x0397_0

$$$$
x0900
  -OEChem-05172015543D

 12 12  0     1  0  0  0  0  0999 V2000
   12.6040   -2.5339   25.4750 C   0  0  0  0  0  0  0  0  0  0  0  0
   11.1258   -2.3421   25.8148 C   0  0  0  0  0  0  0  0  0  0  0  0
   12.7313   -0.1300   24.7230 C   0  0  0  0  0  0  0  0  0  0  0  0
   13.0932   -1.5757   24.3788 C   0  0  2  0  0  0  0  0  0  0  0  0
   10.8051   -0.8857   26.1486 C   0  0  2  0  0  0  0  0  0  0  0  0
    9.3136   -0.6584   26.3471 C   0  0  0  0  0  0  0  0  0  0  0  0
   12.5675   -1.9827   22.9989 C   0  0  0  0  0  0  0  0  0  0  0  0
   11.2710   -0.0145   25.0192 N   0  3  0  0  0  0  0  0  0  0  0  0
   13.0480   -1.0529   22.0482 O   0  0  0  0  0  0  0  0  0  0  0  0
   11.0609    0.9681   25.2436 H   0  0  0  0  0  0  0  0  0  0  0  0
   10.7282   -0.2227   24.1697 H   0  0  0  0  0  0  0  0  0  0  0  0
   12.7050   -1.3265   21.1797 H   0  0  0  0  0  0  0  0  0  0  0  0
  1  2  1  0  0  0  0
  1  4  1  0  0  0  0
  2  5  1  0  0  0  0
  3  4  1  0  0  0  0
  3  8  1  0  0  0  0
  4  7  1  0  0  0  0
  5  6  1  0  0  0  0
  5  8  1  0  0  0  0
  7  9  1  0  0  0  0
  8 10  1  0  0  0  0
  8 11  1  0  0  0  0
  9 12  1  0  0  0  0
M  CHG  1   8   1
M  END
> <ref_mols>
x0900_0

> <original SMILES>
OC[C@H]1CN[C@@H](C)CC1

> <Chemgauss4>
-6.155234

> <ref_pdb>
x0354_0

$$$$
x0872
  -OEChem-05172015543D

 12 12  0     1  0  0  0  0  0999 V2000
   13.3311    0.1617   23.2338 C   0  0  0  0  0  0  0  0  0  0  0  0
   12.3662   -2.1615   23.0313 C   0  0  0  0  0  0  0  0  0  0  0  0
   10.8588   -0.1699   22.8353 C   0  0  0  0  0  0  0  0  0  0  0  0
   13.6048   -1.2914   22.8127 C   0  0  1  0  0  0  0  0  0  0  0  0
   12.0604    0.7421   22.5930 C   0  0  1  0  0  0  0  0  0  0  0  0
   14.1150   -1.3757   21.3710 C   0  0  0  0  0  0  0  0  0  0  0  0
   11.7791    2.1435   23.1335 C   0  0  0  0  0  0  0  0  0  0  0  0
   11.1780   -1.5507   22.3646 N   0  3  0  0  0  0  0  0  0  0  0  0
   10.6109    2.6355   22.5071 O   0  0  0  0  0  0  0  0  0  0  0  0
   11.3438   -1.5255   21.3491 H   0  0  0  0  0  0  0  0  0  0  0  0
   10.3598   -2.1621   22.4912 H   0  0  0  0  0  0  0  0  0  0  0  0
   10.4476    3.5264   22.8625 H   0  0  0  0  0  0  0  0  0  0  0  0
  1  4  1  0  0  0  0
  1  5  1  0  0  0  0
  2  4  1  0  0  0  0
  2  8  1  0  0  0  0
  3  5  1  0  0  0  0
  3  8  1  0  0  0  0
  4  6  1  0  0  0  0
  5  7  1  0  0  0  0
  7  9  1  0  0  0  0
  8 10  1  0  0  0  0
  8 11  1  0  0  0  0
  9 12  1  0  0  0  0
M  CHG  1   8   1
M  END
> <ref_mols>
x0872_0

> <original SMILES>
C[C@@H]1CNC[C@@H](CO)C1

> <Chemgauss4>
-6.152914

> <ref_pdb>
x0195_0

$$$$
x0516
  -OEChem-05172015543D

 13 13  0     1  0  0  0  0  0999 V2000
    8.2626   -4.1179   22.8038 C   0  0  0  0  0  0  0  0  0  0  0  0
    9.8838   -2.3757   23.1712 C   0  0  0  0  0  0  0  0  0  0  0  0
    7.3821   -3.1060   22.0762 C   0  0  0  0  0  0  0  0  0  0  0  0
    8.9646   -1.4046   22.4359 C   0  0  0  0  0  0  0  0  0  0  0  0
    8.5780   -4.3067   26.6690 C   0  0  0  0  0  0  0  0  0  0  0  0
    9.9467   -4.3808   24.5113 C   0  0  0  0  0  0  0  0  0  0  0  0
    9.1811   -5.1720   25.5707 C   0  0  1  0  0  0  0  0  0  0  0  0
    9.0854   -3.4314   23.8095 N   0  0  0  0  0  0  0  0  0  0  0  0
   10.0932   -6.1678   26.1998 N   0  3  0  0  0  0  0  0  0  0  0  0
    8.1860   -2.0988   21.4607 O   0  0  0  0  0  0  0  0  0  0  0  0
    9.5601   -6.9490   26.5906 H   0  0  0  0  0  0  0  0  0  0  0  0
   10.6312   -5.7360   26.9560 H   0  0  0  0  0  0  0  0  0  0  0  0
   10.7509   -6.5408   25.5100 H   0  0  0  0  0  0  0  0  0  0  0  0
  1  3  1  0  0  0  0
  1  8  1  0  0  0  0
  2  4  1  0  0  0  0
  2  8  1  0  0  0  0
  3 10  1  0  0  0  0
  4 10  1  0  0  0  0
  5  7  1  0  0  0  0
  6  7  1  0  0  0  0
  6  8  1  0  0  0  0
  7  9  1  0  0  0  0
  9 11  1  0  0  0  0
  9 12  1  0  0  0  0
  9 13  1  0  0  0  0
M  CHG  1   9   1
M  END
> <ref_mols>
x0516_0

> <original SMILES>
CC(N)CN1CCOCC1

> <Chemgauss4>
-6.148088

> <ref_pdb>
x1385_0

$$$$
x1253
  -OEChem-05172015543D

 13 13  0     1  0  0  0  0  0999 V2000
    8.2626   -4.1179   22.8038 C   0  0  0  0  0  0  0  0  0  0  0  0
    9.8838   -2.3757   23.1712 C   0  0  0  0  0  0  0  0  0  0  0  0
    7.3821   -3.1060   22.0762 C   0  0  0  0  0  0  0  0  0  0  0  0
    8.9646   -1.4046   22.4359 C   0  0  0  0  0  0  0  0  0  0  0  0
    8.5780   -4.3067   26.6690 C   0  0  0  0  0  0  0  0  0  0  0  0
    9.9467   -4.3808   24.5113 C   0  0  0  0  0  0  0  0  0  0  0  0
    9.1811   -5.1720   25.5707 C   0  0  1  0  0  0  0  0  0  0  0  0
    9.0854   -3.4314   23.8095 N   0  0  0  0  0  0  0  0  0  0  0  0
   10.0932   -6.1678   26.1998 N   0  3  0  0  0  0  0  0  0  0  0  0
    8.1860   -2.0988   21.4607 O   0  0  0  0  0  0  0  0  0  0  0  0
    9.5601   -6.9490   26.5906 H   0  0  0  0  0  0  0  0  0  0  0  0
   10.6312   -5.7360   26.9560 H   0  0  0  0  0  0  0  0  0  0  0  0
   10.7509   -6.5408   25.5100 H   0  0  0  0  0  0  0  0  0  0  0  0
  1  3  1  0  0  0  0
  1  8  1  0  0  0  0
  2  4  1  0  0  0  0
  2  8  1  0  0  0  0
  3 10  1  0  0  0  0
  4 10  1  0  0  0  0
  5  7  1  0  0  0  0
  6  7  1  0  0  0  0
  6  8  1  0  0  0  0
  7  9  1  0  0  0  0
  9 11  1  0  0  0  0
  9 12  1  0  0  0  0
  9 13  1  0  0  0  0
M  CHG  1   9   1
M  END
> <ref_mols>
x1253_0

> <original SMILES>
CC(N)CN1CCOCC1

> <Chemgauss4>
-6.148088

> <ref_pdb>
x1385_0

$$$$
x0977
  -OEChem-05172015543D

 17 16  0     1  0  0  0  0  0999 V2000
   11.5253    0.5645   22.7433 C   0  0  0  0  0  0  0  0  0  0  0  0
   12.4489   -0.0731   23.1698 C   0  0  0  0  0  0  0  0  0  0  0  0
    8.6782    5.9728   23.1430 C   0  0  0  0  0  0  0  0  0  0  0  0
   10.5253    3.1461   23.9272 C   0  0  0  0  0  0  0  0  0  0  0  0
    8.0606    6.4643   21.8759 C   0  0  0  0  0  0  0  0  0  0  0  0
   12.7263    5.2347   22.7429 C   0  0  0  0  0  0  0  0  0  0  0  0
   12.1064    6.5645   24.7763 C   0  0  0  0  0  0  0  0  0  0  0  0
   10.3987    1.3372   22.2215 C   0  0  0  0  0  0  0  0  0  0  0  0
   10.5907    4.6672   24.0486 C   0  0  1  0  0  0  0  0  0  0  0  0
   12.0433    5.1849   24.1137 C   0  0  0  0  0  0  0  0  0  0  0  0
   10.4989    2.7266   22.6048 N   0  0  0  0  0  0  0  0  0  0  0  0
    9.8344    5.2340   22.9608 N   0  0  0  0  0  0  0  0  0  0  0  0
    8.1507    6.2414   24.2160 O   0  0  0  0  0  0  0  0  0  0  0  0
   10.4677    2.3998   24.9023 O   0  0  0  0  0  0  0  0  0  0  0  0
   13.9108   -1.0821   23.8446 Br  0  0  0  0  0  0  0  0  0  0  0  0
   10.5260    3.4187   21.8619 H   0  0  0  0  0  0  0  0  0  0  0  0
   10.1671    5.0835   22.0110 H   0  0  0  0  0  0  0  0  0  0  0  0
  1  2  3  0  0  0  0
  1  8  1  0  0  0  0
  2 15  1  0  0  0  0
  3  5  1  0  0  0  0
  3 12  1  0  0  0  0
  3 13  2  0  0  0  0
  4  9  1  0  0  0  0
  4 11  1  0  0  0  0
  4 14  2  0  0  0  0
  6 10  1  0  0  0  0
  7 10  1  0  0  0  0
  8 11  1  0  0  0  0
  9 10  1  0  0  0  0
  9 12  1  0  0  0  0
 11 16  1  0  0  0  0
 12 17  1  0  0  0  0
M  END
> <ref_mols>
x0977_0

> <original SMILES>
CC(C)C(NC(=O)C)C(=O)NCC#CBr

> <Chemgauss4>
-6.133964

> <ref_pdb>
x0104_0

$$$$
x0974
  -OEChem-05172015543D

 17 16  0     1  0  0  0  0  0999 V2000
   11.5253    0.5645   22.7433 C   0  0  0  0  0  0  0  0  0  0  0  0
   12.4489   -0.0731   23.1698 C   0  0  0  0  0  0  0  0  0  0  0  0
    8.6782    5.9728   23.1430 C   0  0  0  0  0  0  0  0  0  0  0  0
   10.5253    3.1461   23.9272 C   0  0  0  0  0  0  0  0  0  0  0  0
    8.0606    6.4643   21.8759 C   0  0  0  0  0  0  0  0  0  0  0  0
   12.7263    5.2347   22.7429 C   0  0  0  0  0  0  0  0  0  0  0  0
   12.1064    6.5645   24.7763 C   0  0  0  0  0  0  0  0  0  0  0  0
   10.3987    1.3372   22.2215 C   0  0  0  0  0  0  0  0  0  0  0  0
   10.5907    4.6672   24.0486 C   0  0  1  0  0  0  0  0  0  0  0  0
   12.0433    5.1849   24.1137 C   0  0  0  0  0  0  0  0  0  0  0  0
   10.4989    2.7266   22.6048 N   0  0  0  0  0  0  0  0  0  0  0  0
    9.8344    5.2340   22.9608 N   0  0  0  0  0  0  0  0  0  0  0  0
    8.1507    6.2414   24.2160 O   0  0  0  0  0  0  0  0  0  0  0  0
   10.4677    2.3998   24.9023 O   0  0  0  0  0  0  0  0  0  0  0  0
   13.9108   -1.0821   23.8446 Br  0  0  0  0  0  0  0  0  0  0  0  0
   10.5260    3.4187   21.8619 H   0  0  0  0  0  0  0  0  0  0  0  0
   10.1671    5.0835   22.0110 H   0  0  0  0  0  0  0  0  0  0  0  0
  1  2  3  0  0  0  0
  1  8  1  0  0  0  0
  2 15  1  0  0  0  0
  3  5  1  0  0  0  0
  3 12  1  0  0  0  0
  3 13  2  0  0  0  0
  4  9  1  0  0  0  0
  4 11  1  0  0  0  0
  4 14  2  0  0  0  0
  6 10  1  0  0  0  0
  7 10  1  0  0  0  0
  8 11  1  0  0  0  0
  9 10  1  0  0  0  0
  9 12  1  0  0  0  0
 11 16  1  0  0  0  0
 12 17  1  0  0  0  0
M  END
> <ref_mols>
x0974_0

> <original SMILES>
CC(C)C(NC(=O)C)C(=O)NCC#CBr

> <Chemgauss4>
-6.133964

> <ref_pdb>
x0104_0

$$$$
x0945
  -OEChem-05172015543D

  9  9  0     0  0  0  0  0  0999 V2000
   12.1389    0.4334   23.8190 C   0  0  0  0  0  0  0  0  0  0  0  0
   13.2682   -1.5030   22.8969 C   0  0  0  0  0  0  0  0  0  0  0  0
   13.0177    0.5001   24.8258 C   0  0  0  0  0  0  0  0  0  0  0  0
   12.2720   -0.6061   22.8211 C   0  0  0  0  0  0  0  0  0  0  0  0
   14.2501   -1.4300   24.0204 C   0  0  0  0  0  0  0  0  0  0  0  0
   14.0447   -0.4035   24.9273 N   0  0  0  0  0  0  0  0  0  0  0  0
   15.1651   -2.2459   24.0983 O   0  0  0  0  0  0  0  0  0  0  0  0
   11.0156   -0.6473   21.4401 Br  0  0  0  0  0  0  0  0  0  0  0  0
   14.6823   -0.3058   25.7119 H   0  0  0  0  0  0  0  0  0  0  0  0
  1  3  2  0  0  0  0
  1  4  1  0  0  0  0
  2  4  2  0  0  0  0
  2  5  1  0  0  0  0
  3  6  1  0  0  0  0
  4  8  1  0  0  0  0
  5  6  1  0  0  0  0
  5  7  2  0  0  0  0
  6  9  1  0  0  0  0
M  END
> <ref_mols>
x0945_0

> <original SMILES>
O=C1C=C(Br)C=CN1

> <Chemgauss4>
-6.133605

> <ref_pdb>
x0678_0

$$$$
x0234
  -OEChem-05172015543D

 13 13  0     1  0  0  0  0  0999 V2000
   13.2582   -0.9543   21.6083 C   0  0  0  0  0  0  0  0  0  0  0  0
   13.9515   -1.6354   22.7847 C   0  0  0  0  0  0  0  0  0  0  0  0
   12.6418   -0.4356   24.3240 C   0  0  0  0  0  0  0  0  0  0  0  0
   11.8878    0.2886   23.1996 C   0  0  1  0  0  0  0  0  0  0  0  0
   12.4658    1.6929   22.9721 C   0  0  0  0  0  0  0  0  0  0  0  0
   10.9346   -1.5635   21.9404 C   0  0  0  0  0  0  0  0  0  0  0  0
    9.5339   -1.0221   21.7254 C   0  0  0  0  0  0  0  0  0  0  0  0
   11.9074   -0.4701   21.9328 N   0  0  2  0  0  0  0  0  0  0  0  0
    9.4759   -0.2771   20.4435 N   0  3  0  0  0  0  0  0  0  0  0  0
   13.9694   -0.7700   23.9192 O   0  0  0  0  0  0  0  0  0  0  0  0
    8.9157    0.5763   20.5403 H   0  0  0  0  0  0  0  0  0  0  0  0
    9.0535   -0.8507   19.7055 H   0  0  0  0  0  0  0  0  0  0  0  0
   10.4154   -0.0055   20.1344 H   0  0  0  0  0  0  0  0  0  0  0  0
  1  2  1  0  0  0  0
  1  8  1  0  0  0  0
  2 10  1  0  0  0  0
  3  4  1  0  0  0  0
  3 10  1  0  0  0  0
  4  5  1  0  0  0  0
  4  8  1  0  0  0  0
  6  7  1  0  0  0  0
  6  8  1  0  0  0  0
  7  9  1  0  0  0  0
  9 11  1  0  0  0  0
  9 12  1  0  0  0  0
  9 13  1  0  0  0  0
M  CHG  1   9   1
M  END
> <ref_mols>
x0234_0

> <original SMILES>
CC1COCCN1CCN

> <Chemgauss4>
-6.133045

> <ref_pdb>
x0678_0

$$$$
x1141
  -OEChem-05172015543D

 13 13  0     1  0  0  0  0  0999 V2000
   13.2582   -0.9543   21.6083 C   0  0  0  0  0  0  0  0  0  0  0  0
   13.9515   -1.6354   22.7847 C   0  0  0  0  0  0  0  0  0  0  0  0
   12.6418   -0.4356   24.3240 C   0  0  0  0  0  0  0  0  0  0  0  0
   11.8878    0.2886   23.1996 C   0  0  1  0  0  0  0  0  0  0  0  0
   12.4658    1.6929   22.9721 C   0  0  0  0  0  0  0  0  0  0  0  0
   10.9346   -1.5635   21.9404 C   0  0  0  0  0  0  0  0  0  0  0  0
    9.5339   -1.0221   21.7254 C   0  0  0  0  0  0  0  0  0  0  0  0
   11.9074   -0.4701   21.9328 N   0  0  2  0  0  0  0  0  0  0  0  0
    9.4759   -0.2771   20.4435 N   0  3  0  0  0  0  0  0  0  0  0  0
   13.9694   -0.7700   23.9192 O   0  0  0  0  0  0  0  0  0  0  0  0
    8.9157    0.5763   20.5403 H   0  0  0  0  0  0  0  0  0  0  0  0
    9.0535   -0.8507   19.7055 H   0  0  0  0  0  0  0  0  0  0  0  0
   10.4154   -0.0055   20.1344 H   0  0  0  0  0  0  0  0  0  0  0  0
  1  2  1  0  0  0  0
  1  8  1  0  0  0  0
  2 10  1  0  0  0  0
  3  4  1  0  0  0  0
  3 10  1  0  0  0  0
  4  5  1  0  0  0  0
  4  8  1  0  0  0  0
  6  7  1  0  0  0  0
  6  8  1  0  0  0  0
  7  9  1  0  0  0  0
  9 11  1  0  0  0  0
  9 12  1  0  0  0  0
  9 13  1  0  0  0  0
M  CHG  1   9   1
M  END
> <ref_mols>
x1141_0

> <original SMILES>
CC1COCCN1CCN

> <Chemgauss4>
-6.133045

> <ref_pdb>
x0678_0

$$$$
x0053
  -OEChem-05172015543D

 12 12  0     0  0  0  0  0  0999 V2000
   12.3382   -1.1517   22.7653 C   0  0  0  0  0  0  0  0  0  0  0  0
   13.2919    0.7853   22.4933 C   0  0  0  0  0  0  0  0  0  0  0  0
   12.8902    3.2358   22.8911 C   0  0  0  0  0  0  0  0  0  0  0  0
   13.6226    4.5354   22.6696 C   0  0  0  0  0  0  0  0  0  0  0  0
    9.8548   -1.0455   23.9206 C   0  0  0  0  0  0  0  0  0  0  0  0
   12.1992    0.2135   22.9496 N   0  0  0  0  0  0  0  0  0  0  0  0
   13.4405   -1.6569   22.2119 N   0  0  0  0  0  0  0  0  0  0  0  0
   13.6432    2.1554   22.4492 N   0  0  0  0  0  0  0  0  0  0  0  0
   11.7765    3.2221   23.4053 O   0  0  0  0  0  0  0  0  0  0  0  0
   14.4228   -0.3455   21.8712 S   0  0  0  0  0  0  0  0  0  0  0  0
   11.0488   -2.2378   23.2647 S   0  0  0  0  0  0  0  0  0  0  0  0
   14.5553    2.3587   22.0455 H   0  0  0  0  0  0  0  0  0  0  0  0
  1  6  1  0  0  0  0
  1  7  2  0  0  0  0
  1 11  1  0  0  0  0
  2  6  2  0  0  0  0
  2  8  1  0  0  0  0
  2 10  1  0  0  0  0
  3  4  1  0  0  0  0
  3  8  1  0  0  0  0
  3  9  2  0  0  0  0
  5 11  1  0  0  0  0
  7 10  1  0  0  0  0
  8 12  1  0  0  0  0
M  END
> <ref_mols>
x0053_0

> <original SMILES>
CSC1=NSC(NC(=O)C)=N1

> <Chemgauss4>
-6.131921

> <ref_pdb>
x0195_0

$$$$
x2632
  -OEChem-05172015543D

 30 31  0     1  0  0  0  0  0999 V2000
    5.3155   -6.3960   24.3633 C   0  0  0  0  0  0  0  0  0  0  0  0
    6.1784   -5.4691   23.7893 C   0  0  0  0  0  0  0  0  0  0  0  0
    9.7498   -2.3139   22.0827 C   0  0  0  0  0  0  0  0  0  0  0  0
   10.8565   -1.7161   22.6856 C   0  0  0  0  0  0  0  0  0  0  0  0
    9.4399   -3.7066   24.0324 C   0  0  0  0  0  0  0  0  0  0  0  0
    3.9551   -6.2271   24.1620 C   0  0  0  0  0  0  0  0  0  0  0  0
    4.2860   -4.3362   22.8997 C   0  0  0  0  0  0  0  0  0  0  0  0
    5.6619   -4.4164   23.0420 C   0  0  0  0  0  0  0  0  0  0  0  0
   10.5466   -3.1088   24.6353 C   0  0  0  0  0  0  0  0  0  0  0  0
    9.0415   -3.3091   22.7561 C   0  0  0  0  0  0  0  0  0  0  0  0
   11.2549   -2.1136   23.9619 C   0  0  0  0  0  0  0  0  0  0  0  0
    9.8747   -6.1385   20.0252 C   0  0  0  0  0  0  0  0  0  0  0  0
    9.4886   -5.5119   21.1411 C   0  0  0  0  0  0  0  0  0  0  0  0
    8.0650   -5.1012   21.3198 C   0  0  0  0  0  0  0  0  0  0  0  0
    5.9917   -2.8489   21.1056 C   0  0  0  0  0  0  0  0  0  0  0  0
   10.9521   -3.5544   26.0026 C   0  0  0  0  0  0  0  0  0  0  0  0
    6.5889    0.6132   19.7576 C   0  0  0  0  0  0  0  0  0  0  0  0
    6.3743   -1.5051   18.4329 C   0  0  0  0  0  0  0  0  0  0  0  0
    4.4245   -0.6478   19.7563 C   0  0  0  0  0  0  0  0  0  0  0  0
   12.2155   -0.3082   25.3683 C   0  0  0  0  0  0  0  0  0  0  0  0
   13.7018   -2.0548   24.3738 C   0  0  0  0  0  0  0  0  0  0  0  0
    6.5732   -3.3933   22.4049 C   0  0  2  0  0  0  0  0  0  0  0  0
    5.9512   -0.7803   19.7148 C   0  0  0  0  0  0  0  0  0  0  0  0
    3.4162   -5.2174   23.4425 N   0  0  0  0  0  0  0  0  0  0  0  0
    6.3977   -1.5477   20.8632 N   0  0  0  0  0  0  0  0  0  0  0  0
    7.8784   -3.9376   22.1213 N   0  0  0  0  0  0  0  0  0  0  0  0
   12.3775   -1.4971   24.5569 N   0  0  0  0  0  0  0  0  0  0  0  0
    7.1817   -5.7712   20.7840 O   0  0  0  0  0  0  0  0  0  0  0  0
    5.2238   -3.4959   20.3963 O   0  0  0  0  0  0  0  0  0  0  0  0
    7.0341   -1.0898   21.5044 H   0  0  0  0  0  0  0  0  0  0  0  0
  1  2  2  0  0  0  0
  1  6  1  0  0  0  0
  2  8  1  0  0  0  0
  3  4  2  0  0  0  0
  3 10  1  0  0  0  0
  4 11  1  0  0  0  0
  5  9  1  0  0  0  0
  5 10  2  0  0  0  0
  6 24  2  0  0  0  0
  7  8  2  0  0  0  0
  7 24  1  0  0  0  0
  8 22  1  0  0  0  0
  9 11  2  0  0  0  0
  9 16  1  0  0  0  0
 10 26  1  0  0  0  0
 11 27  1  0  0  0  0
 12 13  2  0  0  0  0
 13 14  1  0  0  0  0
 14 26  1  0  0  0  0
 14 28  2  0  0  0  0
 15 22  1  0  0  0  0
 15 25  1  0  0  0  0
 15 29  2  0  0  0  0
 17 23  1  0  0  0  0
 18 23  1  0  0  0  0
 19 23  1  0  0  0  0
 20 27  1  0  0  0  0
 21 27  1  0  0  0  0
 22 26  1  0  0  0  0
 23 25  1  0  0  0  0
 25 30  1  0  0  0  0
M  END
> <ref_mols>
x2632_0

> <original SMILES>
CN(C)C=1C=CC(=CC1C)N(C(C(=O)NC(C)(C)C)C=2C=CC=NC2)C(=O)C=C

> <Chemgauss4>
-6.128372

> <ref_pdb>
x0749_0

$$$$
x1074
  -OEChem-05172015543D

 11 11  0     0  0  0  0  0  0999 V2000
   13.4018   -1.9891   21.8501 C   0  0  0  0  0  0  0  0  0  0  0  0
   12.3386    0.2621   21.8344 C   0  0  0  0  0  0  0  0  0  0  0  0
   14.0039   -1.6232   23.1963 C   0  0  0  0  0  0  0  0  0  0  0  0
   12.9962    0.5100   23.1816 C   0  0  0  0  0  0  0  0  0  0  0  0
   10.9433   -1.7697   22.3897 C   0  0  0  0  0  0  0  0  0  0  0  0
    9.7280   -0.9038   22.1227 C   0  0  0  0  0  0  0  0  0  0  0  0
   12.1209   -1.2188   21.6342 N   0  3  0  0  0  0  0  0  0  0  0  0
   14.2224   -0.2148   23.2824 O   0  0  0  0  0  0  0  0  0  0  0  0
    9.4193   -0.9315   20.7355 O   0  0  0  0  0  0  0  0  0  0  0  0
   11.8794   -1.3398   20.6117 H   0  0  0  0  0  0  0  0  0  0  0  0
    8.6393   -0.3670   20.6109 H   0  0  0  0  0  0  0  0  0  0  0  0
  1  3  1  0  0  0  0
  1  7  1  0  0  0  0
  2  4  1  0  0  0  0
  2  7  1  0  0  0  0
  3  8  1  0  0  0  0
  4  8  1  0  0  0  0
  5  6  1  0  0  0  0
  5  7  1  0  0  0  0
  6  9  1  0  0  0  0
  7 10  1  0  0  0  0
  9 11  1  0  0  0  0
M  CHG  1   7   1
M  END
> <ref_mols>
x1074_0

> <original SMILES>
OCCN1CCOCC1

> <Chemgauss4>
-6.127538

> <ref_pdb>
x0678_0

$$$$
x0201
  -OEChem-05172015543D

 11 11  0     0  0  0  0  0  0999 V2000
   13.4018   -1.9891   21.8501 C   0  0  0  0  0  0  0  0  0  0  0  0
   12.3386    0.2621   21.8344 C   0  0  0  0  0  0  0  0  0  0  0  0
   14.0039   -1.6232   23.1963 C   0  0  0  0  0  0  0  0  0  0  0  0
   12.9962    0.5100   23.1816 C   0  0  0  0  0  0  0  0  0  0  0  0
   10.9433   -1.7697   22.3897 C   0  0  0  0  0  0  0  0  0  0  0  0
    9.7280   -0.9038   22.1227 C   0  0  0  0  0  0  0  0  0  0  0  0
   12.1209   -1.2188   21.6342 N   0  3  0  0  0  0  0  0  0  0  0  0
   14.2224   -0.2148   23.2824 O   0  0  0  0  0  0  0  0  0  0  0  0
    9.4193   -0.9315   20.7355 O   0  0  0  0  0  0  0  0  0  0  0  0
   11.8794   -1.3398   20.6117 H   0  0  0  0  0  0  0  0  0  0  0  0
    8.6393   -0.3670   20.6109 H   0  0  0  0  0  0  0  0  0  0  0  0
  1  3  1  0  0  0  0
  1  7  1  0  0  0  0
  2  4  1  0  0  0  0
  2  7  1  0  0  0  0
  3  8  1  0  0  0  0
  4  8  1  0  0  0  0
  5  6  1  0  0  0  0
  5  7  1  0  0  0  0
  6  9  1  0  0  0  0
  7 10  1  0  0  0  0
  9 11  1  0  0  0  0
M  CHG  1   7   1
M  END
> <ref_mols>
x0201_0

> <original SMILES>
OCCN1CCOCC1

> <Chemgauss4>
-6.127538

> <ref_pdb>
x0678_0

$$$$
x1228
  -OEChem-05172015543D

 13 13  0     1  0  0  0  0  0999 V2000
   10.4559   -0.7230   24.1769 C   0  0  0  0  0  0  0  0  0  0  0  0
   10.1580    0.6964   24.6631 C   0  0  0  0  0  0  0  0  0  0  0  0
   12.5340    1.0658   24.0325 C   0  0  0  0  0  0  0  0  0  0  0  0
   12.5035   -0.0768   23.0001 C   0  0  1  0  0  0  0  0  0  0  0  0
   13.6727   -1.0279   23.2927 C   0  0  0  0  0  0  0  0  0  0  0  0
   11.1580   -2.0108   22.2488 C   0  0  0  0  0  0  0  0  0  0  0  0
    9.7266   -2.4139   21.9451 C   0  0  0  0  0  0  0  0  0  0  0  0
   11.1708   -0.7090   22.9017 N   0  0  1  0  0  0  0  0  0  0  0  0
   11.1738    1.6613   24.1414 N   0  3  0  0  0  0  0  0  0  0  0  0
    9.1249   -1.4292   21.1143 O   0  0  0  0  0  0  0  0  0  0  0  0
   10.8731    2.0110   23.2204 H   0  0  0  0  0  0  0  0  0  0  0  0
   11.2061    2.4868   24.7559 H   0  0  0  0  0  0  0  0  0  0  0  0
    8.2157   -1.7240   20.9450 H   0  0  0  0  0  0  0  0  0  0  0  0
  1  2  1  0  0  0  0
  1  8  1  0  0  0  0
  2  9  1  0  0  0  0
  3  4  1  0  0  0  0
  3  9  1  0  0  0  0
  4  5  1  0  0  0  0
  4  8  1  0  0  0  0
  6  7  1  0  0  0  0
  6  8  1  0  0  0  0
  7 10  1  0  0  0  0
  9 11  1  0  0  0  0
  9 12  1  0  0  0  0
 10 13  1  0  0  0  0
M  CHG  1   9   1
M  END
> <ref_mols>
x1228_0

> <original SMILES>
CC1CNCCN1CCO

> <Chemgauss4>
-6.106348

> <ref_pdb>
x0708_0

$$$$
x2059
  -OEChem-05172015543D

 36 38  0     1  0  0  0  0  0999 V2000
    6.9891    4.5566   21.7963 C   0  0  0  0  0  0  0  0  0  0  0  0
    7.9848    3.6367   22.0501 C   0  0  0  0  0  0  0  0  0  0  0  0
    8.8921    5.3812   23.0215 C   0  0  0  0  0  0  0  0  0  0  0  0
    9.5091   -1.6072   23.1993 C   0  0  0  0  0  0  0  0  0  0  0  0
    6.2489   -4.3381   24.9281 C   0  0  0  0  0  0  0  0  0  0  0  0
    7.9271    2.2148   21.6164 C   0  0  0  0  0  0  0  0  0  0  0  0
    9.0783    1.3039   21.9532 C   0  0  0  0  0  0  0  0  0  0  0  0
    9.3664   -4.5962   24.7595 C   0  0  0  0  0  0  0  0  0  0  0  0
    5.8285    0.8594   18.6396 C   0  0  0  0  0  0  0  0  0  0  0  0
    6.5103   -4.8776   23.5537 C   0  0  0  0  0  0  0  0  0  0  0  0
    7.6168   -3.9732   23.0557 C   0  0  0  0  0  0  0  0  0  0  0  0
    9.7652   -0.4312   25.2048 C   0  0  0  0  0  0  0  0  0  0  0  0
    9.8759   -0.2455   23.7038 C   0  0  2  0  0  0  0  0  0  0  0  0
    8.3271   -3.5753   24.3293 C   0  0  2  0  0  0  0  0  0  0  0  0
    4.6910    0.1140   20.8345 C   0  0  0  0  0  0  0  0  0  0  0  0
    6.1102   -1.4584   19.4920 C   0  0  0  0  0  0  0  0  0  0  0  0
    5.9018   -0.0078   19.9164 C   0  0  0  0  0  0  0  0  0  0  0  0
    9.0770    4.1078   22.7521 N   0  0  0  0  0  0  0  0  0  0  0  0
    6.9066    1.7620   20.9525 N   0  0  0  0  0  0  0  0  0  0  0  0
    8.9053   -2.2629   24.2408 N   0  0  0  0  0  0  0  0  0  0  0  0
    9.7776    6.1561   23.7025 N   0  0  0  0  0  0  0  0  0  0  0  0
    8.9137    0.6745   23.1665 N   0  0  0  0  0  0  0  0  0  0  0  0
    8.9434   -5.5064   25.5249 O   0  5  0  0  0  0  0  0  0  0  0  0
    6.8174    0.7763   17.8578 O   0  5  0  0  0  0  0  0  0  0  0  0
    9.6560   -1.9977   22.0509 O   0  0  0  0  0  0  0  0  0  0  0  0
    5.2602   -4.5724   25.6056 O   0  0  0  0  0  0  0  0  0  0  0  0
    9.9968    1.2165   21.1541 O   0  0  0  0  0  0  0  0  0  0  0  0
   10.5242   -4.4018   24.2939 O   0  0  0  0  0  0  0  0  0  0  0  0
    4.7791    1.5562   18.5192 O   0  0  0  0  0  0  0  0  0  0  0  0
    7.3043   -3.5670   25.3339 O   0  0  0  0  0  0  0  0  0  0  0  0
    8.8024   -1.4698   25.3998 O   0  0  0  0  0  0  0  0  0  0  0  0
    7.0531    0.4041   20.6368 O   0  0  0  0  0  0  0  0  0  0  0  0
    7.4265    6.0759   22.4607 S   0  0  0  0  0  0  0  0  0  0  0  0
   10.6424    5.7683   24.0947 H   0  0  0  0  0  0  0  0  0  0  0  0
    9.5718    7.1344   23.9317 H   0  0  0  0  0  0  0  0  0  0  0  0
    8.0850    0.8698   23.7206 H   0  0  0  0  0  0  0  0  0  0  0  0
  1  2  2  0  0  0  0
  1 33  1  0  0  0  0
  2  6  1  0  0  0  0
  2 18  1  0  0  0  0
  3 18  2  0  0  0  0
  3 21  1  0  0  0  0
  3 33  1  0  0  0  0
  4 13  1  0  0  0  0
  4 20  1  0  0  0  0
  4 25  2  0  0  0  0
  5 10  1  0  0  0  0
  5 26  2  0  0  0  0
  5 30  1  0  0  0  0
  6  7  1  0  0  0  0
  6 19  2  0  0  0  0
  7 22  1  0  0  0  0
  7 27  2  0  0  0  0
  8 14  1  0  0  0  0
  8 23  1  0  0  0  0
  8 28  2  0  0  0  0
  9 17  1  0  0  0  0
  9 24  1  0  0  0  0
  9 29  2  0  0  0  0
 10 11  1  0  0  0  0
 11 14  1  0  0  0  0
 12 13  1  0  0  0  0
 12 31  1  0  0  0  0
 13 22  1  0  0  0  0
 14 20  1  0  0  0  0
 14 30  1  0  0  0  0
 15 17  1  0  0  0  0
 16 17  1  0  0  0  0
 17 32  1  0  0  0  0
 19 32  1  0  0  0  0
 20 31  1  0  0  0  0
 21 34  1  0  0  0  0
 21 35  1  0  0  0  0
 22 36  1  0  0  0  0
M  CHG  2  23  -1  24  -1
M  END
> <ref_mols>
x2059_0

> <original SMILES>
CC(C)(O\N=C(/C(=O)N[C@H]1CON(C1=O)C1(CCC(=O)O1)C(O)=O)C1=CSC(N)=N1)C(O)=O

> <Chemgauss4>
-6.086568

> <ref_pdb>
x0107_0

$$$$
x1001
  -OEChem-05172015543D

  8  8  0     0  0  0  0  0  0999 V2000
   14.4324    0.1881   22.3253 C   0  0  0  0  0  0  0  0  0  0  0  0
   14.1885   -1.1670   22.3672 C   0  0  0  0  0  0  0  0  0  0  0  0
   12.1467    0.1512   22.7455 C   0  0  0  0  0  0  0  0  0  0  0  0
   13.2497    0.9519   22.5446 C   0  0  0  0  0  0  0  0  0  0  0  0
   13.2102    2.4787   22.5543 C   0  0  0  0  0  0  0  0  0  0  0  0
   12.0857    3.0127   22.7621 O   0  5  0  0  0  0  0  0  0  0  0  0
   14.3055    3.0728   22.3534 O   0  0  0  0  0  0  0  0  0  0  0  0
   12.5391   -1.5139   22.6698 S   0  0  0  0  0  0  0  0  0  0  0  0
  1  2  2  0  0  0  0
  1  4  1  0  0  0  0
  2  8  1  0  0  0  0
  3  4  2  0  0  0  0
  3  8  1  0  0  0  0
  4  5  1  0  0  0  0
  5  6  1  0  0  0  0
  5  7  2  0  0  0  0
M  CHG  1   6  -1
M  END
> <ref_mols>
x1001_0

> <original SMILES>
OC(=O)C=1C=CSC1

> <Chemgauss4>
-6.069356

> <ref_pdb>
x0195_0

$$$$
x2879
  -OEChem-05172015543D

 17 17  0     1  0  0  0  0  0999 V2000
    7.5473   -2.4312   22.2601 C   0  0  0  0  0  0  0  0  0  0  0  0
   12.1131    1.2314   24.1965 C   0  0  0  0  0  0  0  0  0  0  0  0
   11.3652    0.1260   24.2118 C   0  0  0  0  0  0  0  0  0  0  0  0
   10.0899    0.1171   23.4665 C   0  0  0  0  0  0  0  0  0  0  0  0
    9.8815   -3.1426   24.3142 C   0  0  0  0  0  0  0  0  0  0  0  0
    8.3900   -2.9676   24.5862 C   0  0  0  0  0  0  0  0  0  0  0  0
   10.3575   -2.3780   23.0798 C   0  0  0  0  0  0  0  0  0  0  0  0
    8.3638   -1.1231   22.2133 C   0  0  2  0  0  0  0  0  0  0  0  0
    6.8981    1.1891   20.8273 C   0  0  0  0  0  0  0  0  0  0  0  0
    7.6769    0.2559   18.6397 C   0  0  0  0  0  0  0  0  0  0  0  0
    8.6002   -0.7059   20.7567 C   0  0  0  0  0  0  0  0  0  0  0  0
    7.3657   -0.0733   20.1017 C   0  0  0  0  0  0  0  0  0  0  0  0
    7.5882   -3.2015   23.4009 N   0  0  0  0  0  0  0  0  0  0  0  0
    9.6446   -1.1023   22.9459 N   0  0  0  0  0  0  0  0  0  0  0  0
    6.7646   -2.7184   21.3480 O   0  0  0  0  0  0  0  0  0  0  0  0
    9.4882    1.1867   23.3520 O   0  0  0  0  0  0  0  0  0  0  0  0
    6.9916   -4.0231   23.4135 H   0  0  0  0  0  0  0  0  0  0  0  0
  1  8  1  0  0  0  0
  1 13  1  0  0  0  0
  1 15  2  0  0  0  0
  2  3  2  0  0  0  0
  3  4  1  0  0  0  0
  4 14  1  0  0  0  0
  4 16  2  0  0  0  0
  5  6  1  0  0  0  0
  5  7  1  0  0  0  0
  6 13  1  0  0  0  0
  7 14  1  0  0  0  0
  8 11  1  0  0  0  0
  8 14  1  0  0  0  0
  9 12  1  0  0  0  0
 10 12  1  0  0  0  0
 11 12  1  0  0  0  0
 13 17  1  0  0  0  0
M  END
> <ref_mols>
x2879_0

> <original SMILES>
CC(C)C[C@@H](C(NCCC1)=O)N1C(C=C)=O

> <Chemgauss4>
-6.068536

> <ref_pdb>
x1386_0

$$$$
x0988
  -OEChem-05172015543D

 11 11  0     0  0  0  0  0  0999 V2000
    8.7667   -4.0537   25.3500 C   0  0  0  0  0  0  0  0  0  0  0  0
    9.9502   -4.5916   24.9963 C   0  0  0  0  0  0  0  0  0  0  0  0
    7.9934   -5.1575   25.9819 C   0  0  0  0  0  0  0  0  0  0  0  0
    9.9611   -5.9257   25.3272 N   0  0  0  0  0  0  0  0  0  0  0  0
    8.8074   -6.2745   25.9447 N   0  0  0  0  0  0  0  0  0  0  0  0
   10.9759   -3.9065   24.4210 N   0  0  0  0  0  0  0  0  0  0  0  0
    6.8671   -5.0451   26.4332 O   0  0  0  0  0  0  0  0  0  0  0  0
   10.8032   -6.4801   25.3805 H   0  0  0  0  0  0  0  0  0  0  0  0
    8.5815   -7.1888   26.3129 H   0  0  0  0  0  0  0  0  0  0  0  0
   10.8606   -2.9315   24.2400 H   0  0  0  0  0  0  0  0  0  0  0  0
   11.8153   -4.3976   24.1958 H   0  0  0  0  0  0  0  0  0  0  0  0
  1  2  2  0  0  0  0
  1  3  1  0  0  0  0
  2  4  1  0  0  0  0
  2  6  1  0  0  0  0
  3  5  1  0  0  0  0
  3  7  2  0  0  0  0
  4  5  1  0  0  0  0
  4  8  1  0  0  0  0
  5  9  1  0  0  0  0
  6 10  1  0  0  0  0
  6 11  1  0  0  0  0
M  END
> <ref_mols>
x0988_0

> <original SMILES>
NC1=CC(=O)NN1

> <Chemgauss4>
-6.065588

> <ref_pdb>
x1077_0

$$$$
x1030
  -OEChem-05172015543D

  6  6  0     0  0  0  0  0  0999 V2000
    6.5064    0.6775   19.0727 C   0  0  0  0  0  0  0  0  0  0  0  0
    6.3285    1.3900   20.3389 C   0  0  0  0  0  0  0  0  0  0  0  0
    6.1807   -0.6503   17.4436 N   0  5  0  0  0  0  0  0  0  0  0  0
    5.6460   -0.2577   18.6270 N   0  0  0  0  0  0  0  0  0  0  0  0
    7.5457    0.8961   18.2447 N   0  0  0  0  0  0  0  0  0  0  0  0
    7.3220    0.0428   17.2139 N   0  0  0  0  0  0  0  0  0  0  0  0
  1  2  1  0  0  0  0
  1  4  2  0  0  0  0
  1  5  1  0  0  0  0
  3  4  1  0  0  0  0
  3  6  1  0  0  0  0
  5  6  2  0  0  0  0
M  CHG  1   3  -1
M  END
> <ref_mols>
x1030_0

> <original SMILES>
CC1=NN=NN1

> <Chemgauss4>
-6.058117

> <ref_pdb>
x0678_0

$$$$
x0836
  -OEChem-05172015543D

 12 12  0     1  0  0  0  0  0999 V2000
   12.2983    0.9915   22.6359 C   0  0  0  0  0  0  0  0  0  0  0  0
   10.7885   -1.6460   23.5919 C   0  0  0  0  0  0  0  0  0  0  0  0
   12.2778   -1.3800   23.4455 C   0  0  0  0  0  0  0  0  0  0  0  0
   10.3294   -1.8057   22.1599 C   0  0  0  0  0  0  0  0  0  0  0  0
   12.3720   -0.4539   22.2303 C   0  0  2  0  0  0  0  0  0  0  0  0
   13.6241   -0.6968   21.3974 C   0  0  0  0  0  0  0  0  0  0  0  0
   13.5012    3.0245   22.5742 C   0  0  0  0  0  0  0  0  0  0  0  0
   11.1489   -0.8002   21.4060 N   0  3  0  0  0  0  0  0  0  0  0  0
   11.3478    1.4909   23.2228 O   0  0  0  0  0  0  0  0  0  0  0  0
   13.4379    1.6322   22.2491 O   0  0  0  0  0  0  0  0  0  0  0  0
   11.4037   -1.1760   20.4819 H   0  0  0  0  0  0  0  0  0  0  0  0
   10.5849    0.0410   21.2205 H   0  0  0  0  0  0  0  0  0  0  0  0
  1  5  1  0  0  0  0
  1  9  2  0  0  0  0
  1 10  1  0  0  0  0
  2  3  1  0  0  0  0
  2  4  1  0  0  0  0
  3  5  1  0  0  0  0
  4  8  1  0  0  0  0
  5  6  1  0  0  0  0
  5  8  1  0  0  0  0
  7 10  1  0  0  0  0
  8 11  1  0  0  0  0
  8 12  1  0  0  0  0
M  CHG  1   8   1
M  END
> <ref_mols>
x0836_0

> <original SMILES>
COC(=O)C1(C)CCCN1

> <Chemgauss4>
-6.047223

> <ref_pdb>
x0195_0

$$$$
x0862
  -OEChem-05172015543D

 13 13  0     1  0  0  0  0  0999 V2000
    6.5176   -0.6109   18.4966 C   0  0  0  0  0  0  0  0  0  0  0  0
    8.5370    0.4013   20.7182 C   0  0  0  0  0  0  0  0  0  0  0  0
    7.1389    0.9058   20.3998 C   0  0  0  0  0  0  0  0  0  0  0  0
    8.2619   -0.9341   21.3883 C   0  0  0  0  0  0  0  0  0  0  0  0
    6.3795   -0.3576   19.9693 C   0  0  1  0  0  0  0  0  0  0  0  0
    4.9043   -0.2763   20.3324 C   0  0  0  0  0  0  0  0  0  0  0  0
    7.6948   -4.0024   21.2432 C   0  0  0  0  0  0  0  0  0  0  0  0
    7.1186   -1.4869   20.6168 N   0  0  2  0  0  0  0  0  0  0  0  0
    5.9185   -1.6355   18.0673 O   0  5  0  0  0  0  0  0  0  0  0  0
    7.2182    0.2377   17.8766 O   0  0  0  0  0  0  0  0  0  0  0  0
    5.3706   -3.3385   20.2510 O   0  0  0  0  0  0  0  0  0  0  0  0
    5.9442   -2.6209   22.6050 O   0  0  0  0  0  0  0  0  0  0  0  0
    6.3347   -2.8582   21.2260 S   0  0  0  0  0  0  0  0  0  0  0  0
  1  5  1  0  0  0  0
  1  9  1  0  0  0  0
  1 10  2  0  0  0  0
  2  3  1  0  0  0  0
  2  4  1  0  0  0  0
  3  5  1  0  0  0  0
  4  8  1  0  0  0  0
  5  6  1  0  0  0  0
  5  8  1  0  0  0  0
  7 13  1  0  0  0  0
  8 13  1  0  0  0  0
 11 13  2  0  0  0  0
 12 13  2  0  0  0  0
M  CHG  1   9  -1
M  END
> <ref_mols>
x0862_0

> <original SMILES>
CC1(C(O)=O)N(S(=O)(C)=O)CCC1

> <Chemgauss4>
-6.037449

> <ref_pdb>
x0397_0

$$$$
x0842
  -OEChem-05172015543D

 12 12  0     1  0  0  0  0  0999 V2000
   12.1419    2.8585   23.3895 C   0  0  0  0  0  0  0  0  0  0  0  0
   12.8361    3.1871   22.0727 C   0  0  0  0  0  0  0  0  0  0  0  0
   10.9481    3.7801   23.6334 C   0  0  0  0  0  0  0  0  0  0  0  0
   13.2354    4.6501   21.9922 C   0  0  0  0  0  0  0  0  0  0  0  0
   11.2997    5.2750   23.5421 C   0  0  2  0  0  0  0  0  0  0  0  0
   12.1705    5.7523   24.7109 C   0  0  0  0  0  0  0  0  0  0  0  0
   10.0190    6.1189   23.4863 C   0  0  0  0  0  0  0  0  0  0  0  0
   12.0405    5.5127   22.2445 N   0  3  0  0  0  0  0  0  0  0  0  0
    9.2885    5.7392   22.3375 O   0  0  0  0  0  0  0  0  0  0  0  0
   12.3478    6.4953   22.2138 H   0  0  0  0  0  0  0  0  0  0  0  0
   11.3869    5.4110   21.4552 H   0  0  0  0  0  0  0  0  0  0  0  0
    8.4812    6.2824   22.3170 H   0  0  0  0  0  0  0  0  0  0  0  0
  1  2  1  0  0  0  0
  1  3  1  0  0  0  0
  2  4  1  0  0  0  0
  3  5  1  0  0  0  0
  4  8  1  0  0  0  0
  5  6  1  0  0  0  0
  5  7  1  0  0  0  0
  5  8  1  0  0  0  0
  7  9  1  0  0  0  0
  8 10  1  0  0  0  0
  8 11  1  0  0  0  0
  9 12  1  0  0  0  0
M  CHG  1   8   1
M  END
> <ref_mols>
x0842_0

> <original SMILES>
CC1(CO)CCCCN1

> <Chemgauss4>
-6.026960

> <ref_pdb>
x0946_0

$$$$
x0992
  -OEChem-05172015543D

  6  6  0     0  0  0  0  0  0999 V2000
    6.3285   -0.0357   19.9361 C   0  0  0  0  0  0  0  0  0  0  0  0
    6.3970    0.2168   18.5528 C   0  0  0  0  0  0  0  0  0  0  0  0
    7.5303   -0.6289   20.2367 C   0  0  0  0  0  0  0  0  0  0  0  0
    7.5511   -0.1830   18.0122 N   0  0  0  0  0  0  0  0  0  0  0  0
    8.2189   -0.6927   19.0611 N   0  0  0  0  0  0  0  0  0  0  0  0
    9.1443   -1.0714   18.9023 H   0  0  0  0  0  0  0  0  0  0  0  0
  1  2  1  0  0  0  0
  1  3  2  0  0  0  0
  2  4  2  0  0  0  0
  3  5  1  0  0  0  0
  4  5  1  0  0  0  0
  5  6  1  0  0  0  0
M  END
> <ref_mols>
x0992_0

> <original SMILES>
C=1C=NNC1

> <Chemgauss4>
-6.021192

> <ref_pdb>
x0397_0

$$$$
x2522
  -OEChem-05172015543D

 32 34  0     1  0  0  0  0  0999 V2000
    7.3712   -1.4236   20.3880 C   0  0  0  0  0  0  0  0  0  0  0  0
    7.7861   -1.9708   21.5970 C   0  0  0  0  0  0  0  0  0  0  0  0
   10.8344   -0.7454   25.3736 C   0  0  0  0  0  0  0  0  0  0  0  0
   11.7713   -2.7409   24.3852 C   0  0  0  0  0  0  0  0  0  0  0  0
    5.2290   -6.4259   24.3965 C   0  0  0  0  0  0  0  0  0  0  0  0
    6.2797   -4.8049   25.8476 C   0  0  0  0  0  0  0  0  0  0  0  0
   12.1143   -0.3215   25.7312 C   0  0  0  0  0  0  0  0  0  0  0  0
   13.0512   -2.3171   24.7427 C   0  0  0  0  0  0  0  0  0  0  0  0
    4.3627   -6.7879   25.4280 C   0  0  0  0  0  0  0  0  0  0  0  0
    5.4133   -5.1669   26.8792 C   0  0  0  0  0  0  0  0  0  0  0  0
    6.2499   -1.9662   19.7814 C   0  0  0  0  0  0  0  0  0  0  0  0
    5.9686   -3.4994   21.4691 C   0  0  0  0  0  0  0  0  0  0  0  0
    7.0769   -3.0288   22.1546 C   0  0  0  0  0  0  0  0  0  0  0  0
   10.6629   -1.9551   24.7007 C   0  0  0  0  0  0  0  0  0  0  0  0
    6.1876   -5.4345   24.6063 C   0  0  0  0  0  0  0  0  0  0  0  0
   13.2227   -1.1074   25.4157 C   0  0  0  0  0  0  0  0  0  0  0  0
    4.4548   -6.1583   26.6693 C   0  0  0  0  0  0  0  0  0  0  0  0
    8.7796   -6.2348   20.4757 C   0  0  0  0  0  0  0  0  0  0  0  0
    8.3502   -5.4385   21.4598 C   0  0  0  0  0  0  0  0  0  0  0  0
    7.4846   -5.9839   22.5462 C   0  0  0  0  0  0  0  0  0  0  0  0
    9.0131   -3.5549   23.6687 C   0  0  0  0  0  0  0  0  0  0  0  0
   14.5748    0.5528   26.4508 C   0  0  0  0  0  0  0  0  0  0  0  0
    4.5532   -7.1731   29.2137 C   0  0  0  0  0  0  0  0  0  0  0  0
    7.5023   -3.6455   23.4689 C   0  0  2  0  0  0  0  0  0  0  0  0
    5.5353   -2.9936   20.2926 N   0  0  0  0  0  0  0  0  0  0  0  0
    9.3645   -2.3852   24.3379 N   0  0  0  0  0  0  0  0  0  0  0  0
    7.0898   -5.0575   23.5320 N   0  0  0  0  0  0  0  0  0  0  0  0
    7.1847   -7.1779   22.5239 O   0  0  0  0  0  0  0  0  0  0  0  0
    9.7713   -4.4293   23.2578 O   0  0  0  0  0  0  0  0  0  0  0  0
   14.4717   -0.6938   25.7645 O   0  0  0  0  0  0  0  0  0  0  0  0
    3.3479   -6.6209   27.9870 S   0  0  0  0  0  0  0  0  0  0  0  0
    8.5978   -1.7676   24.5963 H   0  0  0  0  0  0  0  0  0  0  0  0
  1  2  2  0  0  0  0
  1 11  1  0  0  0  0
  2 13  1  0  0  0  0
  3  7  2  0  0  0  0
  3 14  1  0  0  0  0
  4  8  1  0  0  0  0
  4 14  2  0  0  0  0
  5  9  2  0  0  0  0
  5 15  1  0  0  0  0
  6 10  1  0  0  0  0
  6 15  2  0  0  0  0
  7 16  1  0  0  0  0
  8 16  2  0  0  0  0
  9 17  1  0  0  0  0
 10 17  2  0  0  0  0
 11 25  2  0  0  0  0
 12 13  2  0  0  0  0
 12 25  1  0  0  0  0
 13 24  1  0  0  0  0
 14 26  1  0  0  0  0
 15 27  1  0  0  0  0
 16 30  1  0  0  0  0
 17 31  1  0  0  0  0
 18 19  2  0  0  0  0
 19 20  1  0  0  0  0
 20 27  1  0  0  0  0
 20 28  2  0  0  0  0
 21 24  1  0  0  0  0
 21 26  1  0  0  0  0
 21 29  2  0  0  0  0
 22 30  1  0  0  0  0
 23 31  1  0  0  0  0
 24 27  1  0  0  0  0
 26 32  1  0  0  0  0
M  END
> <ref_mols>
x2522_0

> <original SMILES>
COC=1C=CC(NC(=O)C(N(C(=O)C=C)C=2C=CC(SC)=CC2)C=3C=CC=NC3)=CC1

> <Chemgauss4>
-6.003866

> <ref_pdb>
x0749_0

$$$$
x2690
  -OEChem-05172015543D

 32 34  0     1  0  0  0  0  0999 V2000
    7.3712   -1.4236   20.3880 C   0  0  0  0  0  0  0  0  0  0  0  0
    7.7861   -1.9708   21.5970 C   0  0  0  0  0  0  0  0  0  0  0  0
   10.8344   -0.7454   25.3736 C   0  0  0  0  0  0  0  0  0  0  0  0
   11.7713   -2.7409   24.3852 C   0  0  0  0  0  0  0  0  0  0  0  0
    5.2290   -6.4259   24.3965 C   0  0  0  0  0  0  0  0  0  0  0  0
    6.2797   -4.8049   25.8476 C   0  0  0  0  0  0  0  0  0  0  0  0
   12.1143   -0.3215   25.7312 C   0  0  0  0  0  0  0  0  0  0  0  0
   13.0512   -2.3171   24.7427 C   0  0  0  0  0  0  0  0  0  0  0  0
    4.3627   -6.7879   25.4280 C   0  0  0  0  0  0  0  0  0  0  0  0
    5.4133   -5.1669   26.8792 C   0  0  0  0  0  0  0  0  0  0  0  0
    6.2499   -1.9662   19.7814 C   0  0  0  0  0  0  0  0  0  0  0  0
    5.9686   -3.4994   21.4691 C   0  0  0  0  0  0  0  0  0  0  0  0
    7.0769   -3.0288   22.1546 C   0  0  0  0  0  0  0  0  0  0  0  0
   10.6629   -1.9551   24.7007 C   0  0  0  0  0  0  0  0  0  0  0  0
    6.1876   -5.4345   24.6063 C   0  0  0  0  0  0  0  0  0  0  0  0
   13.2227   -1.1074   25.4157 C   0  0  0  0  0  0  0  0  0  0  0  0
    4.4548   -6.1583   26.6693 C   0  0  0  0  0  0  0  0  0  0  0  0
    8.7796   -6.2348   20.4757 C   0  0  0  0  0  0  0  0  0  0  0  0
    8.3502   -5.4385   21.4598 C   0  0  0  0  0  0  0  0  0  0  0  0
    7.4846   -5.9839   22.5462 C   0  0  0  0  0  0  0  0  0  0  0  0
    9.0131   -3.5549   23.6687 C   0  0  0  0  0  0  0  0  0  0  0  0
   14.5748    0.5528   26.4508 C   0  0  0  0  0  0  0  0  0  0  0  0
    4.5532   -7.1731   29.2137 C   0  0  0  0  0  0  0  0  0  0  0  0
    7.5023   -3.6455   23.4689 C   0  0  2  0  0  0  0  0  0  0  0  0
    5.5353   -2.9936   20.2926 N   0  0  0  0  0  0  0  0  0  0  0  0
    9.3645   -2.3852   24.3379 N   0  0  0  0  0  0  0  0  0  0  0  0
    7.0898   -5.0575   23.5320 N   0  0  0  0  0  0  0  0  0  0  0  0
    7.1847   -7.1779   22.5239 O   0  0  0  0  0  0  0  0  0  0  0  0
    9.7713   -4.4293   23.2578 O   0  0  0  0  0  0  0  0  0  0  0  0
   14.4717   -0.6938   25.7645 O   0  0  0  0  0  0  0  0  0  0  0  0
    3.3479   -6.6209   27.9870 S   0  0  0  0  0  0  0  0  0  0  0  0
    8.5978   -1.7676   24.5963 H   0  0  0  0  0  0  0  0  0  0  0  0
  1  2  2  0  0  0  0
  1 11  1  0  0  0  0
  2 13  1  0  0  0  0
  3  7  2  0  0  0  0
  3 14  1  0  0  0  0
  4  8  1  0  0  0  0
  4 14  2  0  0  0  0
  5  9  2  0  0  0  0
  5 15  1  0  0  0  0
  6 10  1  0  0  0  0
  6 15  2  0  0  0  0
  7 16  1  0  0  0  0
  8 16  2  0  0  0  0
  9 17  1  0  0  0  0
 10 17  2  0  0  0  0
 11 25  2  0  0  0  0
 12 13  2  0  0  0  0
 12 25  1  0  0  0  0
 13 24  1  0  0  0  0
 14 26  1  0  0  0  0
 15 27  1  0  0  0  0
 16 30  1  0  0  0  0
 17 31  1  0  0  0  0
 18 19  2  0  0  0  0
 19 20  1  0  0  0  0
 20 27  1  0  0  0  0
 20 28  2  0  0  0  0
 21 24  1  0  0  0  0
 21 26  1  0  0  0  0
 21 29  2  0  0  0  0
 22 30  1  0  0  0  0
 23 31  1  0  0  0  0
 24 27  1  0  0  0  0
 26 32  1  0  0  0  0
M  END
> <ref_mols>
x2690_0

> <original SMILES>
COC=1C=CC(NC(=O)C(N(C(=O)C=C)C=2C=CC(SC)=CC2)C=3C=CC=NC3)=CC1

> <Chemgauss4>
-6.003866

> <ref_pdb>
x0749_0

> <CYS145-warhead dist minimum (A)>
5.03543

> <CYS145-warhead dist mean (A)>
7.035956

> <CYS145-warhead dist stddev (A)>
0.39747643

$$$$
x1156
  -OEChem-05172015543D

 15 16  0     1  0  0  0  0  0999 V2000
   11.0871   -1.0986   23.8264 C   0  0  0  0  0  0  0  0  0  0  0  0
   14.1234   -1.1231   23.8917 C   0  0  0  0  0  0  0  0  0  0  0  0
   11.3743    1.3731   23.3825 C   0  0  0  0  0  0  0  0  0  0  0  0
   14.6020   -2.2244   22.9659 C   0  0  0  0  0  0  0  0  0  0  0  0
   11.9127    2.0603   22.1370 C   0  0  0  0  0  0  0  0  0  0  0  0
   13.3507   -0.8531   21.6148 C   0  0  0  0  0  0  0  0  0  0  0  0
   13.9986    1.1910   22.9433 C   0  0  0  0  0  0  0  0  0  0  0  0
   13.2928   -0.1864   22.9986 C   0  0  2  0  0  0  0  0  0  0  0  0
    9.9355    0.2053   25.6660 C   0  0  0  0  0  0  0  0  0  0  0  0
    8.9235   -1.8463   24.7432 C   0  0  0  0  0  0  0  0  0  0  0  0
   11.9021    0.0038   23.4905 N   0  0  0  0  0  0  0  0  0  0  0  0
    9.9829   -0.8510   24.6584 N   0  0  0  0  0  0  0  0  0  0  0  0
   11.3243   -2.2419   23.4170 O   0  0  0  0  0  0  0  0  0  0  0  0
   14.4992   -1.7098   21.6383 O   0  0  0  0  0  0  0  0  0  0  0  0
   13.3351    2.1352   22.1044 O   0  0  0  0  0  0  0  0  0  0  0  0
  1 11  1  0  0  0  0
  1 12  1  0  0  0  0
  1 13  2  0  0  0  0
  2  4  1  0  0  0  0
  2  8  1  0  0  0  0
  3  5  1  0  0  0  0
  3 11  1  0  0  0  0
  4 14  1  0  0  0  0
  5 15  1  0  0  0  0
  6  8  1  0  0  0  0
  6 14  1  0  0  0  0
  7  8  1  0  0  0  0
  7 15  1  0  0  0  0
  8 11  1  0  0  0  0
  9 12  1  0  0  0  0
 10 12  1  0  0  0  0
M  END
> <ref_mols>
x1156_0

> <original SMILES>
CN(C)C(=O)N1CCOCC21CCOC2

> <Chemgauss4>
-6.000435

> <ref_pdb>
x0195_0

$$$$
x0166
  -OEChem-05172015543D

 15 16  0     1  0  0  0  0  0999 V2000
   11.0871   -1.0986   23.8264 C   0  0  0  0  0  0  0  0  0  0  0  0
   14.1234   -1.1231   23.8917 C   0  0  0  0  0  0  0  0  0  0  0  0
   11.3743    1.3731   23.3825 C   0  0  0  0  0  0  0  0  0  0  0  0
   14.6020   -2.2244   22.9659 C   0  0  0  0  0  0  0  0  0  0  0  0
   11.9127    2.0603   22.1370 C   0  0  0  0  0  0  0  0  0  0  0  0
   13.3507   -0.8531   21.6148 C   0  0  0  0  0  0  0  0  0  0  0  0
   13.9986    1.1910   22.9433 C   0  0  0  0  0  0  0  0  0  0  0  0
   13.2928   -0.1864   22.9986 C   0  0  2  0  0  0  0  0  0  0  0  0
    9.9355    0.2053   25.6660 C   0  0  0  0  0  0  0  0  0  0  0  0
    8.9235   -1.8463   24.7432 C   0  0  0  0  0  0  0  0  0  0  0  0
   11.9021    0.0038   23.4905 N   0  0  0  0  0  0  0  0  0  0  0  0
    9.9829   -0.8510   24.6584 N   0  0  0  0  0  0  0  0  0  0  0  0
   11.3243   -2.2419   23.4170 O   0  0  0  0  0  0  0  0  0  0  0  0
   14.4992   -1.7098   21.6383 O   0  0  0  0  0  0  0  0  0  0  0  0
   13.3351    2.1352   22.1044 O   0  0  0  0  0  0  0  0  0  0  0  0
  1 11  1  0  0  0  0
  1 12  1  0  0  0  0
  1 13  2  0  0  0  0
  2  4  1  0  0  0  0
  2  8  1  0  0  0  0
  3  5  1  0  0  0  0
  3 11  1  0  0  0  0
  4 14  1  0  0  0  0
  5 15  1  0  0  0  0
  6  8  1  0  0  0  0
  6 14  1  0  0  0  0
  7  8  1  0  0  0  0
  7 15  1  0  0  0  0
  8 11  1  0  0  0  0
  9 12  1  0  0  0  0
 10 12  1  0  0  0  0
M  END
> <ref_mols>
x0166_0

> <original SMILES>
CN(C)C(=O)N1CCOCC21CCOC2

> <Chemgauss4>
-6.000435

> <ref_pdb>
x0195_0

$$$$
x0852
  -OEChem-05172015543D

 14 14  0     1  0  0  0  0  0999 V2000
   13.1058    2.3656   22.6082 C   0  0  0  0  0  0  0  0  0  0  0  0
   14.2754   -1.2815   22.3356 C   0  0  0  0  0  0  0  0  0  0  0  0
   14.0831    0.1857   21.9576 C   0  0  0  0  0  0  0  0  0  0  0  0
   12.9576   -1.9588   22.6761 C   0  0  0  0  0  0  0  0  0  0  0  0
   13.3216    0.9297   23.0504 C   0  0  2  0  0  0  0  0  0  0  0  0
   11.9819    0.2774   23.3989 C   0  0  1  0  0  0  0  0  0  0  0  0
   10.8956    0.3583   22.3271 C   0  0  0  0  0  0  0  0  0  0  0  0
   14.2687    3.0330   22.3043 N   0  0  0  0  0  0  0  0  0  0  0  0
   12.2428   -1.1711   23.7280 N   0  3  0  0  0  0  0  0  0  0  0  0
   11.9846    2.8602   22.5207 O   0  0  0  0  0  0  0  0  0  0  0  0
   15.1509    2.5395   22.3933 H   0  0  0  0  0  0  0  0  0  0  0  0
   14.2803    3.9993   21.9946 H   0  0  0  0  0  0  0  0  0  0  0  0
   11.3493   -1.6437   23.9601 H   0  0  0  0  0  0  0  0  0  0  0  0
   12.7954   -1.2208   24.6039 H   0  0  0  0  0  0  0  0  0  0  0  0
  1  5  1  0  0  0  0
  1  8  1  0  0  0  0
  1 10  2  0  0  0  0
  2  3  1  0  0  0  0
  2  4  1  0  0  0  0
  3  5  1  0  0  0  0
  4  9  1  0  0  0  0
  5  6  1  0  0  0  0
  6  7  1  0  0  0  0
  6  9  1  0  0  0  0
  8 11  1  0  0  0  0
  8 12  1  0  0  0  0
  9 13  1  0  0  0  0
  9 14  1  0  0  0  0
M  CHG  1   9   1
M  END
> <ref_mols>
x0852_0

> <original SMILES>
C[C@H]1NCCC[C@H]1C(N)=O

> <Chemgauss4>
-5.998316

> <ref_pdb>
x0195_0

$$$$
x0990
  -OEChem-05172015543D

  6  6  0     0  0  0  0  0  0999 V2000
    7.0750    0.6601   18.7479 C   0  0  0  0  0  0  0  0  0  0  0  0
    7.4569    0.5582   20.0930 C   0  0  0  0  0  0  0  0  0  0  0  0
    8.0294    0.1481   17.9658 N   0  0  0  0  0  0  0  0  0  0  0  0
    8.6576   -0.0209   20.1802 N   0  0  0  0  0  0  0  0  0  0  0  0
    8.9322   -0.2343   18.8833 N   0  0  0  0  0  0  0  0  0  0  0  0
    9.8020   -0.6733   18.6031 H   0  0  0  0  0  0  0  0  0  0  0  0
  1  2  1  0  0  0  0
  1  3  2  0  0  0  0
  2  4  2  0  0  0  0
  3  5  1  0  0  0  0
  4  5  1  0  0  0  0
  5  6  1  0  0  0  0
M  END
> <ref_mols>
x0990_0

> <original SMILES>
C1=CNN=N1

> <Chemgauss4>
-5.986625

> <ref_pdb>
x0678_0

$$$$
x2529
  -OEChem-05172015543D

 34 36  0     1  0  0  0  0  0999 V2000
   13.9473   -0.6443   22.3310 C   0  0  0  0  0  0  0  0  0  0  0  0
    4.9061    1.0413   23.8586 C   0  0  0  0  0  0  0  0  0  0  0  0
   13.2289    0.2347   23.1413 C   0  0  0  0  0  0  0  0  0  0  0  0
   13.2980   -1.7147   21.7159 C   0  0  0  0  0  0  0  0  0  0  0  0
    5.5067   -0.1689   23.5297 C   0  0  0  0  0  0  0  0  0  0  0  0
    6.6098   -0.4097   19.9923 C   0  0  0  0  0  0  0  0  0  0  0  0
    5.6064    2.2066   23.5913 C   0  0  0  0  0  0  0  0  0  0  0  0
    7.3880    1.0432   22.7248 C   0  0  0  0  0  0  0  0  0  0  0  0
    6.7713   -0.1766   22.9517 C   0  0  0  0  0  0  0  0  0  0  0  0
   11.8611    0.0433   23.3368 C   0  0  0  0  0  0  0  0  0  0  0  0
   11.9303   -1.9062   21.9113 C   0  0  0  0  0  0  0  0  0  0  0  0
   11.2118   -1.0272   22.7218 C   0  0  0  0  0  0  0  0  0  0  0  0
    6.0808   -0.3119   18.7326 C   0  0  0  0  0  0  0  0  0  0  0  0
    6.2684   -1.7114   20.3981 C   0  0  0  0  0  0  0  0  0  0  0  0
    7.4950   -5.1541   23.4536 C   0  0  0  0  0  0  0  0  0  0  0  0
    6.7032   -4.0813   23.3581 C   0  0  0  0  0  0  0  0  0  0  0  0
    6.2375   -3.6057   22.0223 C   0  0  0  0  0  0  0  0  0  0  0  0
    8.8215   -1.2345   21.9539 C   0  0  0  0  0  0  0  0  0  0  0  0
   11.1186    1.0018   24.2106 C   0  0  0  0  0  0  0  0  0  0  0  0
   10.9947   -4.2143   22.2011 C   0  0  0  0  0  0  0  0  0  0  0  0
    7.4958    1.1783   17.2757 C   0  0  0  0  0  0  0  0  0  0  0  0
    5.3433    2.0479   18.2487 C   0  0  0  0  0  0  0  0  0  0  0  0
    5.3080    0.4128   16.3761 C   0  0  0  0  0  0  0  0  0  0  0  0
   11.2633   -3.0620   21.2385 C   0  0  0  0  0  0  0  0  0  0  0  0
    7.4511   -1.4764   22.5818 C   0  0  2  0  0  0  0  0  0  0  0  0
    6.0520    0.8024   17.6735 C   0  0  0  0  0  0  0  0  0  0  0  0
    6.8362    2.2389   23.0309 N   0  0  0  0  0  0  0  0  0  0  0  0
    5.5802   -2.3705   19.4617 N   0  0  0  0  0  0  0  0  0  0  0  0
    9.8242   -1.2217   22.9202 N   0  0  0  0  0  0  0  0  0  0  0  0
    6.5976   -2.2618   21.6202 N   0  0  0  0  0  0  0  0  0  0  0  0
    5.5456   -4.3555   21.3329 O   0  0  0  0  0  0  0  0  0  0  0  0
    8.9561   -1.0675   20.7447 O   0  0  0  0  0  0  0  0  0  0  0  0
    5.4638   -1.4759   18.4047 O   0  0  0  0  0  0  0  0  0  0  0  0
    9.5240   -1.3696   23.8815 H   0  0  0  0  0  0  0  0  0  0  0  0
  1  3  1  0  0  0  0
  1  4  2  0  0  0  0
  2  5  2  0  0  0  0
  2  7  1  0  0  0  0
  3 10  2  0  0  0  0
  4 11  1  0  0  0  0
  5  9  1  0  0  0  0
  6 13  2  0  0  0  0
  6 14  1  0  0  0  0
  7 27  2  0  0  0  0
  8  9  2  0  0  0  0
  8 27  1  0  0  0  0
  9 25  1  0  0  0  0
 10 12  1  0  0  0  0
 10 19  1  0  0  0  0
 11 12  2  0  0  0  0
 11 24  1  0  0  0  0
 12 29  1  0  0  0  0
 13 26  1  0  0  0  0
 13 33  1  0  0  0  0
 14 28  2  0  0  0  0
 14 30  1  0  0  0  0
 15 16  2  0  0  0  0
 16 17  1  0  0  0  0
 17 30  1  0  0  0  0
 17 31  2  0  0  0  0
 18 25  1  0  0  0  0
 18 29  1  0  0  0  0
 18 32  2  0  0  0  0
 20 24  1  0  0  0  0
 21 26  1  0  0  0  0
 22 26  1  0  0  0  0
 23 26  1  0  0  0  0
 25 30  1  0  0  0  0
 28 33  1  0  0  0  0
 29 34  1  0  0  0  0
M  END
> <ref_mols>
x2529_0

> <original SMILES>
CCC=1C=CC=C(C)C1NC(=O)C(N(C(=O)C=C)C=2C=C(ON2)C(C)(C)C)C=3C=CC=NC3

> <Chemgauss4>
-5.954724

> <ref_pdb>
x0831_0

$$$$
x2697
  -OEChem-05172015543D

 34 36  0     1  0  0  0  0  0999 V2000
   13.9473   -0.6443   22.3310 C   0  0  0  0  0  0  0  0  0  0  0  0
    4.9061    1.0413   23.8586 C   0  0  0  0  0  0  0  0  0  0  0  0
   13.2289    0.2347   23.1413 C   0  0  0  0  0  0  0  0  0  0  0  0
   13.2980   -1.7147   21.7159 C   0  0  0  0  0  0  0  0  0  0  0  0
    5.5067   -0.1689   23.5297 C   0  0  0  0  0  0  0  0  0  0  0  0
    6.6098   -0.4097   19.9923 C   0  0  0  0  0  0  0  0  0  0  0  0
    5.6064    2.2066   23.5913 C   0  0  0  0  0  0  0  0  0  0  0  0
    7.3880    1.0432   22.7248 C   0  0  0  0  0  0  0  0  0  0  0  0
    6.7713   -0.1766   22.9517 C   0  0  0  0  0  0  0  0  0  0  0  0
   11.8611    0.0433   23.3368 C   0  0  0  0  0  0  0  0  0  0  0  0
   11.9303   -1.9062   21.9113 C   0  0  0  0  0  0  0  0  0  0  0  0
   11.2118   -1.0272   22.7218 C   0  0  0  0  0  0  0  0  0  0  0  0
    6.0808   -0.3119   18.7326 C   0  0  0  0  0  0  0  0  0  0  0  0
    6.2684   -1.7114   20.3981 C   0  0  0  0  0  0  0  0  0  0  0  0
    7.4950   -5.1541   23.4536 C   0  0  0  0  0  0  0  0  0  0  0  0
    6.7032   -4.0813   23.3581 C   0  0  0  0  0  0  0  0  0  0  0  0
    6.2375   -3.6057   22.0223 C   0  0  0  0  0  0  0  0  0  0  0  0
    8.8215   -1.2345   21.9539 C   0  0  0  0  0  0  0  0  0  0  0  0
   11.1186    1.0018   24.2106 C   0  0  0  0  0  0  0  0  0  0  0  0
   10.9947   -4.2143   22.2011 C   0  0  0  0  0  0  0  0  0  0  0  0
    7.4958    1.1783   17.2757 C   0  0  0  0  0  0  0  0  0  0  0  0
    5.3433    2.0479   18.2487 C   0  0  0  0  0  0  0  0  0  0  0  0
    5.3080    0.4128   16.3761 C   0  0  0  0  0  0  0  0  0  0  0  0
   11.2633   -3.0620   21.2385 C   0  0  0  0  0  0  0  0  0  0  0  0
    7.4511   -1.4764   22.5818 C   0  0  2  0  0  0  0  0  0  0  0  0
    6.0520    0.8024   17.6735 C   0  0  0  0  0  0  0  0  0  0  0  0
    6.8362    2.2389   23.0309 N   0  0  0  0  0  0  0  0  0  0  0  0
    5.5802   -2.3705   19.4617 N   0  0  0  0  0  0  0  0  0  0  0  0
    9.8242   -1.2217   22.9202 N   0  0  0  0  0  0  0  0  0  0  0  0
    6.5976   -2.2618   21.6202 N   0  0  0  0  0  0  0  0  0  0  0  0
    5.5456   -4.3555   21.3329 O   0  0  0  0  0  0  0  0  0  0  0  0
    8.9561   -1.0675   20.7447 O   0  0  0  0  0  0  0  0  0  0  0  0
    5.4638   -1.4759   18.4047 O   0  0  0  0  0  0  0  0  0  0  0  0
    9.5240   -1.3696   23.8815 H   0  0  0  0  0  0  0  0  0  0  0  0
  1  3  1  0  0  0  0
  1  4  2  0  0  0  0
  2  5  2  0  0  0  0
  2  7  1  0  0  0  0
  3 10  2  0  0  0  0
  4 11  1  0  0  0  0
  5  9  1  0  0  0  0
  6 13  2  0  0  0  0
  6 14  1  0  0  0  0
  7 27  2  0  0  0  0
  8  9  2  0  0  0  0
  8 27  1  0  0  0  0
  9 25  1  0  0  0  0
 10 12  1  0  0  0  0
 10 19  1  0  0  0  0
 11 12  2  0  0  0  0
 11 24  1  0  0  0  0
 12 29  1  0  0  0  0
 13 26  1  0  0  0  0
 13 33  1  0  0  0  0
 14 28  2  0  0  0  0
 14 30  1  0  0  0  0
 15 16  2  0  0  0  0
 16 17  1  0  0  0  0
 17 30  1  0  0  0  0
 17 31  2  0  0  0  0
 18 25  1  0  0  0  0
 18 29  1  0  0  0  0
 18 32  2  0  0  0  0
 20 24  1  0  0  0  0
 21 26  1  0  0  0  0
 22 26  1  0  0  0  0
 23 26  1  0  0  0  0
 25 30  1  0  0  0  0
 28 33  1  0  0  0  0
 29 34  1  0  0  0  0
M  END
> <ref_mols>
x2697_0

> <original SMILES>
CCC=1C=CC=C(C)C1NC(=O)C(N(C(=O)C=C)C=2C=C(ON2)C(C)(C)C)C=3C=CC=NC3

> <Chemgauss4>
-5.954724

> <ref_pdb>
x0831_0

> <CYS145-warhead dist minimum (A)>
6.3694406

> <CYS145-warhead dist mean (A)>
7.3502913

> <CYS145-warhead dist stddev (A)>
0.31308097

$$$$
x1045
  -OEChem-05172015543D

  8  8  0     0  0  0  0  0  0999 V2000
   13.5899   -1.2715   21.9195 C   0  0  0  0  0  0  0  0  0  0  0  0
   11.3182   -1.5938   22.9730 C   0  0  0  0  0  0  0  0  0  0  0  0
   10.1337   -1.8795   21.2278 C   0  0  0  0  0  0  0  0  0  0  0  0
   12.1931   -1.5032   21.9162 C   0  0  0  0  0  0  0  0  0  0  0  0
   14.7348   -1.0816   21.9222 N   0  0  0  0  0  0  0  0  0  0  0  0
   10.0379   -1.8284   22.5378 N   0  0  0  0  0  0  0  0  0  0  0  0
   11.4199   -1.6888   20.8049 N   0  0  0  0  0  0  0  0  0  0  0  0
   11.7368   -1.6857   19.8443 H   0  0  0  0  0  0  0  0  0  0  0  0
  1  4  1  0  0  0  0
  1  5  3  0  0  0  0
  2  4  2  0  0  0  0
  2  6  1  0  0  0  0
  3  6  2  0  0  0  0
  3  7  1  0  0  0  0
  4  7  1  0  0  0  0
  7  8  1  0  0  0  0
M  END
> <ref_mols>
x1045_0

> <original SMILES>
Cl.N#CC1=CNC=N1

> <Chemgauss4>
-5.929905

> <ref_pdb>
x1382_0

$$$$
x0595
  -OEChem-05172015543D

 13 13  0     0  0  0  0  0  0999 V2000
    6.4764   -0.4721   18.9450 C   0  0  0  0  0  0  0  0  0  0  0  0
    7.2258   -2.3656   20.4279 C   0  0  0  0  0  0  0  0  0  0  0  0
    9.6709   -2.9585   20.2248 C   0  0  0  0  0  0  0  0  0  0  0  0
    8.1493   -4.3472   21.6556 C   0  0  0  0  0  0  0  0  0  0  0  0
    4.0579    1.9388   19.3453 C   0  0  0  0  0  0  0  0  0  0  0  0
    8.2527   -3.5016   20.3877 C   0  0  0  0  0  0  0  0  0  0  0  0
    6.6368    0.1897   17.7640 N   0  0  0  0  0  0  0  0  0  0  0  0
    5.5220    0.0356   19.7290 N   0  0  0  0  0  0  0  0  0  0  0  0
    5.7480    1.1754   17.7736 N   0  0  0  0  0  0  0  0  0  0  0  0
    5.1154    1.0464   18.9482 N   0  0  0  0  0  0  0  0  0  0  0  0
    7.2744   -1.5951   19.2696 N   0  0  0  0  0  0  0  0  0  0  0  0
    6.4760   -2.2108   21.3877 O   0  0  0  0  0  0  0  0  0  0  0  0
    7.9645   -1.8717   18.5747 H   0  0  0  0  0  0  0  0  0  0  0  0
  1  7  1  0  0  0  0
  1  8  2  0  0  0  0
  1 11  1  0  0  0  0
  2  6  1  0  0  0  0
  2 11  1  0  0  0  0
  2 12  2  0  0  0  0
  3  6  1  0  0  0  0
  4  6  1  0  0  0  0
  5 10  1  0  0  0  0
  7  9  2  0  0  0  0
  8 10  1  0  0  0  0
  9 10  1  0  0  0  0
 11 13  1  0  0  0  0
M  END
> <ref_mols>
x0595_0

> <original SMILES>
CC(C)C(=O)NC=1N=NN(C)N1

> <Chemgauss4>
-5.926614

> <ref_pdb>
x0397_0

$$$$
x1261
  -OEChem-05172015543D

 13 13  0     0  0  0  0  0  0999 V2000
    6.4764   -0.4721   18.9450 C   0  0  0  0  0  0  0  0  0  0  0  0
    7.2258   -2.3656   20.4279 C   0  0  0  0  0  0  0  0  0  0  0  0
    9.6709   -2.9585   20.2248 C   0  0  0  0  0  0  0  0  0  0  0  0
    8.1493   -4.3472   21.6556 C   0  0  0  0  0  0  0  0  0  0  0  0
    4.0579    1.9388   19.3453 C   0  0  0  0  0  0  0  0  0  0  0  0
    8.2527   -3.5016   20.3877 C   0  0  0  0  0  0  0  0  0  0  0  0
    6.6368    0.1897   17.7640 N   0  0  0  0  0  0  0  0  0  0  0  0
    5.5220    0.0356   19.7290 N   0  0  0  0  0  0  0  0  0  0  0  0
    5.7480    1.1754   17.7736 N   0  0  0  0  0  0  0  0  0  0  0  0
    5.1154    1.0464   18.9482 N   0  0  0  0  0  0  0  0  0  0  0  0
    7.2744   -1.5951   19.2696 N   0  0  0  0  0  0  0  0  0  0  0  0
    6.4760   -2.2108   21.3877 O   0  0  0  0  0  0  0  0  0  0  0  0
    7.9645   -1.8717   18.5747 H   0  0  0  0  0  0  0  0  0  0  0  0
  1  7  1  0  0  0  0
  1  8  2  0  0  0  0
  1 11  1  0  0  0  0
  2  6  1  0  0  0  0
  2 11  1  0  0  0  0
  2 12  2  0  0  0  0
  3  6  1  0  0  0  0
  4  6  1  0  0  0  0
  5 10  1  0  0  0  0
  7  9  2  0  0  0  0
  8 10  1  0  0  0  0
  9 10  1  0  0  0  0
 11 13  1  0  0  0  0
M  END
> <ref_mols>
x1261_0

> <original SMILES>
CC(C)C(=O)NC=1N=NN(C)N1

> <Chemgauss4>
-5.926614

> <ref_pdb>
x0397_0

$$$$
x2049
  -OEChem-05172015543D

 30 31  0     1  0  0  0  0  0999 V2000
    4.0729   -5.8428   23.7838 C   0  0  0  0  0  0  0  0  0  0  0  0
    5.0895   -5.2297   23.0600 C   0  0  0  0  0  0  0  0  0  0  0  0
   10.3737   -2.6925   25.1461 C   0  0  0  0  0  0  0  0  0  0  0  0
   11.4911   -2.9781   23.0231 C   0  0  0  0  0  0  0  0  0  0  0  0
    9.1996   -3.2086   24.5976 C   0  0  0  0  0  0  0  0  0  0  0  0
   10.3170   -3.4942   22.4746 C   0  0  0  0  0  0  0  0  0  0  0  0
    3.6439   -5.2273   24.9487 C   0  0  0  0  0  0  0  0  0  0  0  0
    5.1391   -3.5017   24.6934 C   0  0  0  0  0  0  0  0  0  0  0  0
   11.5194   -2.5773   24.3589 C   0  0  0  0  0  0  0  0  0  0  0  0
    5.6382   -4.0365   23.5167 C   0  0  0  0  0  0  0  0  0  0  0  0
    9.1713   -3.6094   23.2618 C   0  0  0  0  0  0  0  0  0  0  0  0
    9.4855   -7.3770   22.0322 C   0  0  0  0  0  0  0  0  0  0  0  0
    8.9568   -6.3854   22.7562 C   0  0  0  0  0  0  0  0  0  0  0  0
    7.9376   -5.4755   22.1557 C   0  0  0  0  0  0  0  0  0  0  0  0
    6.3190   -3.0026   21.3297 C   0  0  0  0  0  0  0  0  0  0  0  0
   13.2653   -2.8907   26.1475 C   0  0  0  0  0  0  0  0  0  0  0  0
   12.5632   -0.5707   25.4684 C   0  0  0  0  0  0  0  0  0  0  0  0
   13.9932   -1.9428   23.9672 C   0  0  0  0  0  0  0  0  0  0  0  0
    7.5864   -0.0659   19.3474 C   0  0  0  0  0  0  0  0  0  0  0  0
    7.0377   -2.3516   18.4739 C   0  0  0  0  0  0  0  0  0  0  0  0
    5.2299   -0.9098   19.4441 C   0  0  0  0  0  0  0  0  0  0  0  0
    6.7435   -3.3453   22.7527 C   0  0  2  0  0  0  0  0  0  0  0  0
   12.7746   -2.0255   24.9454 C   0  0  0  0  0  0  0  0  0  0  0  0
    6.7073   -1.3063   19.5445 C   0  0  0  0  0  0  0  0  0  0  0  0
    4.1526   -4.0684   25.4238 N   0  0  0  0  0  0  0  0  0  0  0  0
    6.9641   -1.8729   20.8560 N   0  0  0  0  0  0  0  0  0  0  0  0
    7.9371   -4.1523   22.6849 N   0  0  0  0  0  0  0  0  0  0  0  0
    7.1934   -5.9139   21.2781 O   0  0  0  0  0  0  0  0  0  0  0  0
    5.4724   -3.6467   20.7133 O   0  0  0  0  0  0  0  0  0  0  0  0
    7.6494   -1.4030   21.4350 H   0  0  0  0  0  0  0  0  0  0  0  0
  1  2  2  0  0  0  0
  1  7  1  0  0  0  0
  2 10  1  0  0  0  0
  3  5  2  0  0  0  0
  3  9  1  0  0  0  0
  4  6  1  0  0  0  0
  4  9  2  0  0  0  0
  5 11  1  0  0  0  0
  6 11  2  0  0  0  0
  7 25  2  0  0  0  0
  8 10  2  0  0  0  0
  8 25  1  0  0  0  0
  9 23  1  0  0  0  0
 10 22  1  0  0  0  0
 11 27  1  0  0  0  0
 12 13  2  0  0  0  0
 13 14  1  0  0  0  0
 14 27  1  0  0  0  0
 14 28  2  0  0  0  0
 15 22  1  0  0  0  0
 15 26  1  0  0  0  0
 15 29  2  0  0  0  0
 16 23  1  0  0  0  0
 17 23  1  0  0  0  0
 18 23  1  0  0  0  0
 19 24  1  0  0  0  0
 20 24  1  0  0  0  0
 21 24  1  0  0  0  0
 22 27  1  0  0  0  0
 24 26  1  0  0  0  0
 26 30  1  0  0  0  0
M  END
> <ref_mols>
x2049_0

> <original SMILES>
CC(C)(C)C1=CC=C(C=C1)N(C(C(NC(C)(C)C)=O)C2=CC=CN=C2)C(C=C)=O

> <Chemgauss4>
-5.917193

> <ref_pdb>
x0749_0

$$$$
x2631
  -OEChem-05172015543D

 30 31  0     1  0  0  0  0  0999 V2000
    4.0729   -5.8428   23.7838 C   0  0  0  0  0  0  0  0  0  0  0  0
    5.0895   -5.2297   23.0600 C   0  0  0  0  0  0  0  0  0  0  0  0
   10.3737   -2.6925   25.1461 C   0  0  0  0  0  0  0  0  0  0  0  0
   11.4911   -2.9781   23.0231 C   0  0  0  0  0  0  0  0  0  0  0  0
    9.1996   -3.2086   24.5976 C   0  0  0  0  0  0  0  0  0  0  0  0
   10.3170   -3.4942   22.4746 C   0  0  0  0  0  0  0  0  0  0  0  0
    3.6439   -5.2273   24.9487 C   0  0  0  0  0  0  0  0  0  0  0  0
    5.1391   -3.5017   24.6934 C   0  0  0  0  0  0  0  0  0  0  0  0
   11.5194   -2.5773   24.3589 C   0  0  0  0  0  0  0  0  0  0  0  0
    5.6382   -4.0365   23.5167 C   0  0  0  0  0  0  0  0  0  0  0  0
    9.1713   -3.6094   23.2618 C   0  0  0  0  0  0  0  0  0  0  0  0
    9.4855   -7.3770   22.0322 C   0  0  0  0  0  0  0  0  0  0  0  0
    8.9568   -6.3854   22.7562 C   0  0  0  0  0  0  0  0  0  0  0  0
    7.9376   -5.4755   22.1557 C   0  0  0  0  0  0  0  0  0  0  0  0
    6.3190   -3.0026   21.3297 C   0  0  0  0  0  0  0  0  0  0  0  0
   13.2653   -2.8907   26.1475 C   0  0  0  0  0  0  0  0  0  0  0  0
   12.5632   -0.5707   25.4684 C   0  0  0  0  0  0  0  0  0  0  0  0
   13.9932   -1.9428   23.9672 C   0  0  0  0  0  0  0  0  0  0  0  0
    7.5864   -0.0659   19.3474 C   0  0  0  0  0  0  0  0  0  0  0  0
    7.0377   -2.3516   18.4739 C   0  0  0  0  0  0  0  0  0  0  0  0
    5.2299   -0.9098   19.4441 C   0  0  0  0  0  0  0  0  0  0  0  0
    6.7435   -3.3453   22.7527 C   0  0  2  0  0  0  0  0  0  0  0  0
   12.7746   -2.0255   24.9454 C   0  0  0  0  0  0  0  0  0  0  0  0
    6.7073   -1.3063   19.5445 C   0  0  0  0  0  0  0  0  0  0  0  0
    4.1526   -4.0684   25.4238 N   0  0  0  0  0  0  0  0  0  0  0  0
    6.9641   -1.8729   20.8560 N   0  0  0  0  0  0  0  0  0  0  0  0
    7.9371   -4.1523   22.6849 N   0  0  0  0  0  0  0  0  0  0  0  0
    7.1934   -5.9139   21.2781 O   0  0  0  0  0  0  0  0  0  0  0  0
    5.4724   -3.6467   20.7133 O   0  0  0  0  0  0  0  0  0  0  0  0
    7.6494   -1.4030   21.4350 H   0  0  0  0  0  0  0  0  0  0  0  0
  1  2  2  0  0  0  0
  1  7  1  0  0  0  0
  2 10  1  0  0  0  0
  3  5  2  0  0  0  0
  3  9  1  0  0  0  0
  4  6  1  0  0  0  0
  4  9  2  0  0  0  0
  5 11  1  0  0  0  0
  6 11  2  0  0  0  0
  7 25  2  0  0  0  0
  8 10  2  0  0  0  0
  8 25  1  0  0  0  0
  9 23  1  0  0  0  0
 10 22  1  0  0  0  0
 11 27  1  0  0  0  0
 12 13  2  0  0  0  0
 13 14  1  0  0  0  0
 14 27  1  0  0  0  0
 14 28  2  0  0  0  0
 15 22  1  0  0  0  0
 15 26  1  0  0  0  0
 15 29  2  0  0  0  0
 16 23  1  0  0  0  0
 17 23  1  0  0  0  0
 18 23  1  0  0  0  0
 19 24  1  0  0  0  0
 20 24  1  0  0  0  0
 21 24  1  0  0  0  0
 22 27  1  0  0  0  0
 24 26  1  0  0  0  0
 26 30  1  0  0  0  0
M  END
> <ref_mols>
x2631_0

> <original SMILES>
CC(C)(C)NC(=O)C(N(C(=O)C=C)C=1C=CC(=CC1)C(C)(C)C)C=2C=CC=NC2

> <Chemgauss4>
-5.917193

> <ref_pdb>
x0749_0

$$$$
x2044
  -OEChem-05172015543D

 23 24  0     0  0  0  0  0  0999 V2000
   12.1448   -1.2015   24.4760 C   0  0  0  0  0  0  0  0  0  0  0  0
   13.2761   -2.8552   25.8260 C   0  0  0  0  0  0  0  0  0  0  0  0
   11.2054   -2.1581   24.0913 C   0  0  0  0  0  0  0  0  0  0  0  0
   12.3366   -3.8118   25.4414 C   0  0  0  0  0  0  0  0  0  0  0  0
   13.1802   -1.5500   25.3433 C   0  0  0  0  0  0  0  0  0  0  0  0
   11.3012   -3.4633   24.5740 C   0  0  0  0  0  0  0  0  0  0  0  0
   14.1598   -0.5527   25.7441 C   0  0  0  0  0  0  0  0  0  0  0  0
    9.2629   -4.2573   23.3335 C   0  0  0  0  0  0  0  0  0  0  0  0
    4.3465   -5.3785   22.5391 C   0  0  0  0  0  0  0  0  0  0  0  0
    7.4377   -5.6596   24.2789 C   0  0  0  0  0  0  0  0  0  0  0  0
    7.8717   -5.6329   21.7741 C   0  0  0  0  0  0  0  0  0  0  0  0
    6.2207   -4.7692   24.0346 C   0  0  0  0  0  0  0  0  0  0  0  0
    6.6289   -4.7579   21.6056 C   0  0  0  0  0  0  0  0  0  0  0  0
    8.4898   -5.5338   23.1724 C   0  0  0  0  0  0  0  0  0  0  0  0
   14.4678    0.5474   24.7704 C   0  0  0  0  0  0  0  0  0  0  0  0
    3.5381   -5.5443   23.8012 C   0  0  0  0  0  0  0  0  0  0  0  0
    5.6765   -4.9908   22.6955 N   0  0  0  0  0  0  0  0  0  0  0  0
   10.3475   -4.4329   24.1834 N   0  0  0  0  0  0  0  0  0  0  0  0
   14.7599   -0.5448   26.8210 O   0  0  0  0  0  0  0  0  0  0  0  0
    8.9157   -3.2350   22.7511 O   0  0  0  0  0  0  0  0  0  0  0  0
    3.8095   -5.5859   21.4478 O   0  0  0  0  0  0  0  0  0  0  0  0
    1.9119   -5.9962   23.3021 Cl  0  0  0  0  0  0  0  0  0  0  0  0
   10.4840   -5.3618   24.5768 H   0  0  0  0  0  0  0  0  0  0  0  0
  1  3  2  0  0  0  0
  1  5  1  0  0  0  0
  2  4  1  0  0  0  0
  2  5  2  0  0  0  0
  3  6  1  0  0  0  0
  4  6  2  0  0  0  0
  5  7  1  0  0  0  0
  6 18  1  0  0  0  0
  7 15  1  0  0  0  0
  7 19  2  0  0  0  0
  8 14  1  0  0  0  0
  8 18  1  0  0  0  0
  8 20  2  0  0  0  0
  9 16  1  0  0  0  0
  9 17  1  0  0  0  0
  9 21  2  0  0  0  0
 10 12  1  0  0  0  0
 10 14  1  0  0  0  0
 11 13  1  0  0  0  0
 11 14  1  0  0  0  0
 12 17  1  0  0  0  0
 13 17  1  0  0  0  0
 16 22  1  0  0  0  0
 18 23  1  0  0  0  0
M  END
> <ref_mols>
x2044_0

> <original SMILES>
O=C(C1CCN(C(CCl)=O)CC1)NC2=CC=C(C(C)=O)C=C2

> <Chemgauss4>
-5.900887

> <ref_pdb>
x0749_0

$$$$
x0784
  -OEChem-05172015543D

 20 20  0     0  0  0  0  0  0999 V2000
    9.6913   -5.2315   24.4078 C   0  0  0  0  0  0  0  0  0  0  0  0
    9.5911   -2.9408   23.6464 C   0  0  0  0  0  0  0  0  0  0  0  0
    8.5150   -5.5138   23.7135 C   0  0  0  0  0  0  0  0  0  0  0  0
    8.4148   -3.2231   22.9520 C   0  0  0  0  0  0  0  0  0  0  0  0
   10.2294   -3.9450   24.3744 C   0  0  0  0  0  0  0  0  0  0  0  0
    7.8767   -4.5096   22.9855 C   0  0  0  0  0  0  0  0  0  0  0  0
   11.4561   -3.6496   25.0976 C   0  0  0  0  0  0  0  0  0  0  0  0
   13.3625   -1.3116   26.2455 C   0  0  0  0  0  0  0  0  0  0  0  0
    5.4979   -5.3083   23.2067 C   0  0  0  0  0  0  0  0  0  0  0  0
    6.8479   -5.9262   21.1740 C   0  0  0  0  0  0  0  0  0  0  0  0
    5.9950   -3.6086   21.4615 C   0  0  0  0  0  0  0  0  0  0  0  0
   14.7171   -1.0273   26.8407 C   0  0  0  0  0  0  0  0  0  0  0  0
    6.5807   -4.8216   22.2193 C   0  0  0  0  0  0  0  0  0  0  0  0
   12.2438   -2.6086   24.6037 N   0  0  0  0  0  0  0  0  0  0  0  0
   13.4076   -2.2653   25.2480 N   0  0  0  0  0  0  0  0  0  0  0  0
   11.7633   -4.2963   26.1154 O   0  0  0  0  0  0  0  0  0  0  0  0
   12.3505   -0.7234   26.6228 O   0  0  0  0  0  0  0  0  0  0  0  0
   15.0594    0.6952   26.6175 Cl  0  0  0  0  0  0  0  0  0  0  0  0
   11.9575   -2.1064   23.7706 H   0  0  0  0  0  0  0  0  0  0  0  0
   14.2860   -2.7054   24.9950 H   0  0  0  0  0  0  0  0  0  0  0  0
  1  3  2  0  0  0  0
  1  5  1  0  0  0  0
  2  4  1  0  0  0  0
  2  5  2  0  0  0  0
  3  6  1  0  0  0  0
  4  6  2  0  0  0  0
  5  7  1  0  0  0  0
  6 13  1  0  0  0  0
  7 14  1  0  0  0  0
  7 16  2  0  0  0  0
  8 12  1  0  0  0  0
  8 15  1  0  0  0  0
  8 17  2  0  0  0  0
  9 13  1  0  0  0  0
 10 13  1  0  0  0  0
 11 13  1  0  0  0  0
 12 18  1  0  0  0  0
 14 15  1  0  0  0  0
 14 19  1  0  0  0  0
 15 20  1  0  0  0  0
M  END
> <ref_mols>
x0784_0

> <original SMILES>
CC(C)(C)c1ccc(cc1)C(=O)NNC(=O)CCl

> <Chemgauss4>
-5.895091

> <ref_pdb>
x0749_0

$$$$
x0710
  -OEChem-05172015543D

 20 20  0     0  0  0  0  0  0999 V2000
    9.6913   -5.2315   24.4078 C   0  0  0  0  0  0  0  0  0  0  0  0
    9.5911   -2.9408   23.6464 C   0  0  0  0  0  0  0  0  0  0  0  0
    8.5150   -5.5138   23.7135 C   0  0  0  0  0  0  0  0  0  0  0  0
    8.4148   -3.2231   22.9520 C   0  0  0  0  0  0  0  0  0  0  0  0
   10.2294   -3.9450   24.3744 C   0  0  0  0  0  0  0  0  0  0  0  0
    7.8767   -4.5096   22.9855 C   0  0  0  0  0  0  0  0  0  0  0  0
   11.4561   -3.6496   25.0976 C   0  0  0  0  0  0  0  0  0  0  0  0
   13.3625   -1.3116   26.2455 C   0  0  0  0  0  0  0  0  0  0  0  0
    5.4979   -5.3083   23.2067 C   0  0  0  0  0  0  0  0  0  0  0  0
    6.8479   -5.9262   21.1740 C   0  0  0  0  0  0  0  0  0  0  0  0
    5.9950   -3.6086   21.4615 C   0  0  0  0  0  0  0  0  0  0  0  0
   14.7171   -1.0273   26.8407 C   0  0  0  0  0  0  0  0  0  0  0  0
    6.5807   -4.8216   22.2193 C   0  0  0  0  0  0  0  0  0  0  0  0
   12.2438   -2.6086   24.6037 N   0  0  0  0  0  0  0  0  0  0  0  0
   13.4076   -2.2653   25.2480 N   0  0  0  0  0  0  0  0  0  0  0  0
   11.7633   -4.2963   26.1154 O   0  0  0  0  0  0  0  0  0  0  0  0
   12.3505   -0.7234   26.6228 O   0  0  0  0  0  0  0  0  0  0  0  0
   15.0594    0.6952   26.6175 Cl  0  0  0  0  0  0  0  0  0  0  0  0
   11.9575   -2.1064   23.7706 H   0  0  0  0  0  0  0  0  0  0  0  0
   14.2860   -2.7054   24.9950 H   0  0  0  0  0  0  0  0  0  0  0  0
  1  3  2  0  0  0  0
  1  5  1  0  0  0  0
  2  4  1  0  0  0  0
  2  5  2  0  0  0  0
  3  6  1  0  0  0  0
  4  6  2  0  0  0  0
  5  7  1  0  0  0  0
  6 13  1  0  0  0  0
  7 14  1  0  0  0  0
  7 16  2  0  0  0  0
  8 12  1  0  0  0  0
  8 15  1  0  0  0  0
  8 17  2  0  0  0  0
  9 13  1  0  0  0  0
 10 13  1  0  0  0  0
 11 13  1  0  0  0  0
 12 18  1  0  0  0  0
 14 15  1  0  0  0  0
 14 19  1  0  0  0  0
 15 20  1  0  0  0  0
M  END
> <ref_mols>
x0710_0

> <original SMILES>
CC(C)(C)c1ccc(cc1)C(=O)NNC(=O)CCl

> <Chemgauss4>
-5.895091

> <ref_pdb>
x0749_0

$$$$
x0833
  -OEChem-05172015543D

 13 13  0     1  0  0  0  0  0999 V2000
    6.1254   -2.7397   20.3330 C   0  0  0  0  0  0  0  0  0  0  0  0
    8.2504    0.2840   20.7638 C   0  0  0  0  0  0  0  0  0  0  0  0
    6.8816   -0.3125   20.4810 C   0  0  0  0  0  0  0  0  0  0  0  0
    8.9963   -0.8642   21.4077 C   0  0  0  0  0  0  0  0  0  0  0  0
    7.1992   -1.7211   19.9766 C   0  0  2  0  0  0  0  0  0  0  0  0
    7.4201   -1.7374   18.4905 C   0  0  0  0  0  0  0  0  0  0  0  0
    5.9197   -2.8785   21.6852 N   0  0  0  0  0  0  0  0  0  0  0  0
    8.4888   -2.0796   20.6867 N   0  3  0  0  0  0  0  0  0  0  0  0
    5.5005   -3.3571   19.4741 O   0  0  0  0  0  0  0  0  0  0  0  0
    6.4743   -2.3163   22.3224 H   0  0  0  0  0  0  0  0  0  0  0  0
    5.2355   -3.5206   22.0718 H   0  0  0  0  0  0  0  0  0  0  0  0
    9.2044   -2.4233   20.0312 H   0  0  0  0  0  0  0  0  0  0  0  0
    8.3340   -2.8440   21.3588 H   0  0  0  0  0  0  0  0  0  0  0  0
  1  5  1  0  0  0  0
  1  7  1  0  0  0  0
  1  9  2  0  0  0  0
  2  3  1  0  0  0  0
  2  4  1  0  0  0  0
  3  5  1  0  0  0  0
  4  8  1  0  0  0  0
  5  6  1  0  0  0  0
  5  8  1  0  0  0  0
  7 10  1  0  0  0  0
  7 11  1  0  0  0  0
  8 12  1  0  0  0  0
  8 13  1  0  0  0  0
M  CHG  1   8   1
M  END
> <ref_mols>
x0833_0

> <original SMILES>
CC1(C(N)=O)NCCC1

> <Chemgauss4>
-5.894870

> <ref_pdb>
x0397_0

$$$$
x1022
  -OEChem-05172015543D

 11 11  0     0  0  0  0  0  0999 V2000
    6.2211   -0.1595   20.1597 C   0  0  0  0  0  0  0  0  0  0  0  0
    7.0992   -0.5854   19.1853 C   0  0  0  0  0  0  0  0  0  0  0  0
    6.0046    0.9098   18.0121 C   0  0  0  0  0  0  0  0  0  0  0  0
    6.9763    0.0264   17.9530 N   0  0  0  0  0  0  0  0  0  0  0  0
    8.0347   -1.5417   19.3920 N   0  0  0  0  0  0  0  0  0  0  0  0
    5.6163    1.6919   16.9701 N   0  0  0  0  0  0  0  0  0  0  0  0
    5.1965    1.0574   19.5189 S   0  0  0  0  0  0  0  0  0  0  0  0
    8.1745   -1.9766   20.3138 H   0  0  0  0  0  0  0  0  0  0  0  0
    8.7097   -1.8094   18.6632 H   0  0  0  0  0  0  0  0  0  0  0  0
    6.1036    1.6682   16.0678 H   0  0  0  0  0  0  0  0  0  0  0  0
    4.8836    2.4022   17.0737 H   0  0  0  0  0  0  0  0  0  0  0  0
  1  2  2  0  0  0  0
  1  7  1  0  0  0  0
  2  4  1  0  0  0  0
  2  5  1  0  0  0  0
  3  4  2  0  0  0  0
  3  6  1  0  0  0  0
  3  7  1  0  0  0  0
  5  8  1  0  0  0  0
  5  9  1  0  0  0  0
  6 10  1  0  0  0  0
  6 11  1  0  0  0  0
M  END
> <ref_mols>
x1022_0

> <original SMILES>
Cl.NC1=CSC(N)=N1

> <Chemgauss4>
-5.869900

> <ref_pdb>
x0397_0

$$$$
x1040
  -OEChem-05172015543D

 12 11  0     1  0  0  0  0  0999 V2000
    2.7015    1.9803   21.2894 C   0  0  0  0  0  0  0  0  0  0  0  0
    4.9988   -0.0163   20.9885 C   0  0  0  0  0  0  0  0  0  0  0  0
    4.6960    1.0920   19.9868 C   0  0  0  0  0  0  0  0  0  0  0  0
    3.2290    1.5325   19.9383 C   0  0  2  0  0  0  0  0  0  0  0  0
    3.4143    3.0300   21.8268 N   0  0  0  0  0  0  0  0  0  0  0  0
    3.0647    2.6141   18.9268 N   0  3  0  0  0  0  0  0  0  0  0  0
    1.7354    1.4620   21.8439 O   0  0  0  0  0  0  0  0  0  0  0  0
    4.1990    3.4058   21.3049 H   0  0  0  0  0  0  0  0  0  0  0  0
    3.1831    3.4410   22.7255 H   0  0  0  0  0  0  0  0  0  0  0  0
    2.8683    2.2178   18.0040 H   0  0  0  0  0  0  0  0  0  0  0  0
    3.9168    3.1770   18.8601 H   0  0  0  0  0  0  0  0  0  0  0  0
    2.2902    3.2322   19.1826 H   0  0  0  0  0  0  0  0  0  0  0  0
  1  4  1  0  0  0  0
  1  5  1  0  0  0  0
  1  7  2  0  0  0  0
  2  3  1  0  0  0  0
  3  4  1  0  0  0  0
  4  6  1  0  0  0  0
  5  8  1  0  0  0  0
  5  9  1  0  0  0  0
  6 10  1  0  0  0  0
  6 11  1  0  0  0  0
  6 12  1  0  0  0  0
M  CHG  1   6   1
M  END
> <ref_mols>
x1040_0

> <original SMILES>
Cl.CC[C@H](N)C(=O)N

> <Chemgauss4>
-5.865477

> <ref_pdb>
x0426_0

$$$$
x0137
  -OEChem-05172015543D

 11 11  0     0  0  0  0  0  0999 V2000
   10.6011   -1.1238   24.1296 C   0  0  0  0  0  0  0  0  0  0  0  0
    7.1746   -4.2104   22.0369 C   0  0  0  0  0  0  0  0  0  0  0  0
    9.8322   -1.8169   21.8731 C   0  0  0  0  0  0  0  0  0  0  0  0
   10.3647   -3.5456   23.6375 C   0  0  0  0  0  0  0  0  0  0  0  0
    8.3447   -2.0341   22.1533 C   0  0  0  0  0  0  0  0  0  0  0  0
    8.8637   -3.7247   23.8748 C   0  0  0  0  0  0  0  0  0  0  0  0
   10.7152   -2.1568   23.0829 C   0  0  0  0  0  0  0  0  0  0  0  0
    6.9832   -5.5845   22.6276 C   0  0  0  0  0  0  0  0  0  0  0  0
   10.5114   -0.3112   24.9529 N   0  0  0  0  0  0  0  0  0  0  0  0
    8.1011   -3.3817   22.6691 N   0  0  0  0  0  0  0  0  0  0  0  0
    6.5209   -3.8860   21.0422 O   0  0  0  0  0  0  0  0  0  0  0  0
  1  7  1  0  0  0  0
  1  9  3  0  0  0  0
  2  8  1  0  0  0  0
  2 10  1  0  0  0  0
  2 11  2  0  0  0  0
  3  5  1  0  0  0  0
  3  7  1  0  0  0  0
  4  6  1  0  0  0  0
  4  7  1  0  0  0  0
  5 10  1  0  0  0  0
  6 10  1  0  0  0  0
M  END
> <ref_mols>
x0137_0

> <original SMILES>
CC(=O)N1CCC(CC1)C#N

> <Chemgauss4>
-5.854254

> <ref_pdb>
x0759_0

> <CYS145-warhead dist minimum (A)>
4.6186523

> <CYS145-warhead dist mean (A)>
11.166602

> <CYS145-warhead dist stddev (A)>
2.448076

$$$$
x1085
  -OEChem-05172015543D

 11 11  0     0  0  0  0  0  0999 V2000
   10.6011   -1.1238   24.1296 C   0  0  0  0  0  0  0  0  0  0  0  0
    7.1746   -4.2104   22.0369 C   0  0  0  0  0  0  0  0  0  0  0  0
    9.8322   -1.8169   21.8731 C   0  0  0  0  0  0  0  0  0  0  0  0
   10.3647   -3.5456   23.6375 C   0  0  0  0  0  0  0  0  0  0  0  0
    8.3447   -2.0341   22.1533 C   0  0  0  0  0  0  0  0  0  0  0  0
    8.8637   -3.7247   23.8748 C   0  0  0  0  0  0  0  0  0  0  0  0
   10.7152   -2.1568   23.0829 C   0  0  0  0  0  0  0  0  0  0  0  0
    6.9832   -5.5845   22.6276 C   0  0  0  0  0  0  0  0  0  0  0  0
   10.5114   -0.3112   24.9529 N   0  0  0  0  0  0  0  0  0  0  0  0
    8.1011   -3.3817   22.6691 N   0  0  0  0  0  0  0  0  0  0  0  0
    6.5209   -3.8860   21.0422 O   0  0  0  0  0  0  0  0  0  0  0  0
  1  7  1  0  0  0  0
  1  9  3  0  0  0  0
  2  8  1  0  0  0  0
  2 10  1  0  0  0  0
  2 11  2  0  0  0  0
  3  5  1  0  0  0  0
  3  7  1  0  0  0  0
  4  6  1  0  0  0  0
  4  7  1  0  0  0  0
  5 10  1  0  0  0  0
  6 10  1  0  0  0  0
M  END
> <ref_mols>
x1085_0

> <original SMILES>
CC(=O)N1CCC(CC1)C#N

> <Chemgauss4>
-5.854254

> <ref_pdb>
x0759_0

> <CYS145-warhead dist minimum (A)>
4.544477

> <CYS145-warhead dist mean (A)>
7.726242

> <CYS145-warhead dist stddev (A)>
1.0592554

$$$$
x2513
  -OEChem-05172015543D

 28 29  0     1  0  0  0  0  0999 V2000
    3.4611   -4.4972   23.7928 C   0  0  0  0  0  0  0  0  0  0  0  0
    4.4465   -3.7691   23.1354 C   0  0  0  0  0  0  0  0  0  0  0  0
    9.8420   -3.7641   24.6278 C   0  0  0  0  0  0  0  0  0  0  0  0
    9.7815   -2.0067   22.9709 C   0  0  0  0  0  0  0  0  0  0  0  0
   10.9230   -3.1400   25.2503 C   0  0  0  0  0  0  0  0  0  0  0  0
   10.8625   -1.3826   23.5934 C   0  0  0  0  0  0  0  0  0  0  0  0
    3.8579   -5.3674   24.7954 C   0  0  0  0  0  0  0  0  0  0  0  0
    6.0726   -4.8266   24.5115 C   0  0  0  0  0  0  0  0  0  0  0  0
    5.7797   -3.9312   23.4955 C   0  0  0  0  0  0  0  0  0  0  0  0
    9.2712   -3.1975   23.4880 C   0  0  0  0  0  0  0  0  0  0  0  0
   11.4332   -1.9492   24.7331 C   0  0  0  0  0  0  0  0  0  0  0  0
   10.5570   -5.5585   21.4703 C   0  0  0  0  0  0  0  0  0  0  0  0
    9.6684   -5.7337   22.4536 C   0  0  0  0  0  0  0  0  0  0  0  0
    8.2890   -5.1777   22.3297 C   0  0  0  0  0  0  0  0  0  0  0  0
    6.5264   -2.8668   21.3449 C   0  0  0  0  0  0  0  0  0  0  0  0
    7.6753    0.1470   19.4066 C   0  0  0  0  0  0  0  0  0  0  0  0
    7.3931   -2.1881   18.5371 C   0  0  0  0  0  0  0  0  0  0  0  0
    5.4004   -0.9000   19.3485 C   0  0  0  0  0  0  0  0  0  0  0  0
   13.9998   -1.1718   24.1660 C   0  0  0  0  0  0  0  0  0  0  0  0
    6.8736   -3.1542   22.8008 C   0  0  2  0  0  0  0  0  0  0  0  0
    6.8955   -1.1637   19.5621 C   0  0  0  0  0  0  0  0  0  0  0  0
    5.1429   -5.5515   25.1730 N   0  0  0  0  0  0  0  0  0  0  0  0
    7.1037   -1.6902   20.8987 N   0  0  0  0  0  0  0  0  0  0  0  0
    8.1346   -3.8536   22.8336 N   0  0  0  0  0  0  0  0  0  0  0  0
    7.4109   -5.8751   21.8211 O   0  0  0  0  0  0  0  0  0  0  0  0
    5.7865   -3.5900   20.6808 O   0  0  0  0  0  0  0  0  0  0  0  0
   12.8143   -1.1521   25.5286 S   0  0  0  0  0  0  0  0  0  0  0  0
    7.7012   -1.1550   21.5170 H   0  0  0  0  0  0  0  0  0  0  0  0
  1  2  2  0  0  0  0
  1  7  1  0  0  0  0
  2  9  1  0  0  0  0
  3  5  2  0  0  0  0
  3 10  1  0  0  0  0
  4  6  1  0  0  0  0
  4 10  2  0  0  0  0
  5 11  1  0  0  0  0
  6 11  2  0  0  0  0
  7 22  2  0  0  0  0
  8  9  2  0  0  0  0
  8 22  1  0  0  0  0
  9 20  1  0  0  0  0
 10 24  1  0  0  0  0
 11 27  1  0  0  0  0
 12 13  2  0  0  0  0
 13 14  1  0  0  0  0
 14 24  1  0  0  0  0
 14 25  2  0  0  0  0
 15 20  1  0  0  0  0
 15 23  1  0  0  0  0
 15 26  2  0  0  0  0
 16 21  1  0  0  0  0
 17 21  1  0  0  0  0
 18 21  1  0  0  0  0
 19 27  1  0  0  0  0
 20 24  1  0  0  0  0
 21 23  1  0  0  0  0
 23 28  1  0  0  0  0
M  END
> <ref_mols>
x2513_0

> <original SMILES>
CSC=1C=CC(=CC1)N(C(C(=O)NC(C)(C)C)C=2C=CC=NC2)C(=O)C=C

> <Chemgauss4>
-5.821193

> <ref_pdb>
x0749_0

$$$$
x2681
  -OEChem-05172015543D

 28 29  0     1  0  0  0  0  0999 V2000
    3.4611   -4.4972   23.7928 C   0  0  0  0  0  0  0  0  0  0  0  0
    4.4465   -3.7691   23.1354 C   0  0  0  0  0  0  0  0  0  0  0  0
    9.8420   -3.7641   24.6278 C   0  0  0  0  0  0  0  0  0  0  0  0
    9.7815   -2.0067   22.9709 C   0  0  0  0  0  0  0  0  0  0  0  0
   10.9230   -3.1400   25.2503 C   0  0  0  0  0  0  0  0  0  0  0  0
   10.8625   -1.3826   23.5934 C   0  0  0  0  0  0  0  0  0  0  0  0
    3.8579   -5.3674   24.7954 C   0  0  0  0  0  0  0  0  0  0  0  0
    6.0726   -4.8266   24.5115 C   0  0  0  0  0  0  0  0  0  0  0  0
    5.7797   -3.9312   23.4955 C   0  0  0  0  0  0  0  0  0  0  0  0
    9.2712   -3.1975   23.4880 C   0  0  0  0  0  0  0  0  0  0  0  0
   11.4332   -1.9492   24.7331 C   0  0  0  0  0  0  0  0  0  0  0  0
   10.5570   -5.5585   21.4703 C   0  0  0  0  0  0  0  0  0  0  0  0
    9.6684   -5.7337   22.4536 C   0  0  0  0  0  0  0  0  0  0  0  0
    8.2890   -5.1777   22.3297 C   0  0  0  0  0  0  0  0  0  0  0  0
    6.5264   -2.8668   21.3449 C   0  0  0  0  0  0  0  0  0  0  0  0
    7.6753    0.1470   19.4066 C   0  0  0  0  0  0  0  0  0  0  0  0
    7.3931   -2.1881   18.5371 C   0  0  0  0  0  0  0  0  0  0  0  0
    5.4004   -0.9000   19.3485 C   0  0  0  0  0  0  0  0  0  0  0  0
   13.9998   -1.1718   24.1660 C   0  0  0  0  0  0  0  0  0  0  0  0
    6.8736   -3.1542   22.8008 C   0  0  2  0  0  0  0  0  0  0  0  0
    6.8955   -1.1637   19.5621 C   0  0  0  0  0  0  0  0  0  0  0  0
    5.1429   -5.5515   25.1730 N   0  0  0  0  0  0  0  0  0  0  0  0
    7.1037   -1.6902   20.8987 N   0  0  0  0  0  0  0  0  0  0  0  0
    8.1346   -3.8536   22.8336 N   0  0  0  0  0  0  0  0  0  0  0  0
    7.4109   -5.8751   21.8211 O   0  0  0  0  0  0  0  0  0  0  0  0
    5.7865   -3.5900   20.6808 O   0  0  0  0  0  0  0  0  0  0  0  0
   12.8143   -1.1521   25.5286 S   0  0  0  0  0  0  0  0  0  0  0  0
    7.7012   -1.1550   21.5170 H   0  0  0  0  0  0  0  0  0  0  0  0
  1  2  2  0  0  0  0
  1  7  1  0  0  0  0
  2  9  1  0  0  0  0
  3  5  2  0  0  0  0
  3 10  1  0  0  0  0
  4  6  1  0  0  0  0
  4 10  2  0  0  0  0
  5 11  1  0  0  0  0
  6 11  2  0  0  0  0
  7 22  2  0  0  0  0
  8  9  2  0  0  0  0
  8 22  1  0  0  0  0
  9 20  1  0  0  0  0
 10 24  1  0  0  0  0
 11 27  1  0  0  0  0
 12 13  2  0  0  0  0
 13 14  1  0  0  0  0
 14 24  1  0  0  0  0
 14 25  2  0  0  0  0
 15 20  1  0  0  0  0
 15 23  1  0  0  0  0
 15 26  2  0  0  0  0
 16 21  1  0  0  0  0
 17 21  1  0  0  0  0
 18 21  1  0  0  0  0
 19 27  1  0  0  0  0
 20 24  1  0  0  0  0
 21 23  1  0  0  0  0
 23 28  1  0  0  0  0
M  END
> <ref_mols>
x2681_0

> <original SMILES>
CSC=1C=CC(=CC1)N(C(C(=O)NC(C)(C)C)C=2C=CC=NC2)C(=O)C=C

> <Chemgauss4>
-5.821193

> <ref_pdb>
x0749_0

> <CYS145-warhead dist minimum (A)>
3.79348

> <CYS145-warhead dist mean (A)>
6.304596

> <CYS145-warhead dist stddev (A)>
0.83006704

$$$$
x1006
  -OEChem-05172015543D

  9  9  0     0  0  0  0  0  0999 V2000
   12.1774   -0.5201   21.4686 C   0  0  0  0  0  0  0  0  0  0  0  0
   14.2686   -1.0873   24.2480 C   0  0  0  0  0  0  0  0  0  0  0  0
   13.9640   -1.8074   22.9213 C   0  0  0  0  0  0  0  0  0  0  0  0
   13.3654    0.0573   23.7518 C   0  0  0  0  0  0  0  0  0  0  0  0
   12.6520   -0.9828   22.8485 C   0  0  0  0  0  0  0  0  0  0  0  0
   12.3417   -1.4624   20.4810 N   0  0  0  0  0  0  0  0  0  0  0  0
   11.6824    0.5895   21.2868 O   0  0  0  0  0  0  0  0  0  0  0  0
   12.7483   -2.3591   20.7262 H   0  0  0  0  0  0  0  0  0  0  0  0
   12.0725   -1.2970   19.5165 H   0  0  0  0  0  0  0  0  0  0  0  0
  1  5  1  0  0  0  0
  1  6  1  0  0  0  0
  1  7  2  0  0  0  0
  2  3  1  0  0  0  0
  2  4  1  0  0  0  0
  3  5  1  0  0  0  0
  4  5  1  0  0  0  0
  6  8  1  0  0  0  0
  6  9  1  0  0  0  0
M  END
> <ref_mols>
x1006_0

> <original SMILES>
NC(=O)C1CCC1

> <Chemgauss4>
-5.808318

> <ref_pdb>
x0678_0

$$$$
x2467
  -OEChem-05172015543D

 29 30  0     1  0  0  0  0  0999 V2000
    3.2858   -4.2143   24.4854 C   0  0  0  0  0  0  0  0  0  0  0  0
    4.2362   -3.5947   23.6817 C   0  0  0  0  0  0  0  0  0  0  0  0
   10.0771   -4.0129   24.1792 C   0  0  0  0  0  0  0  0  0  0  0  0
   11.2297   -3.3809   24.6324 C   0  0  0  0  0  0  0  0  0  0  0  0
    3.7360   -5.0281   25.5125 C   0  0  0  0  0  0  0  0  0  0  0  0
    5.9359   -4.6366   24.9785 C   0  0  0  0  0  0  0  0  0  0  0  0
    9.3110   -1.9151   23.3613 C   0  0  0  0  0  0  0  0  0  0  0  0
    5.5888   -3.8047   23.9262 C   0  0  0  0  0  0  0  0  0  0  0  0
    9.0946   -3.2732   23.5306 C   0  0  0  0  0  0  0  0  0  0  0  0
   11.3507   -2.0181   24.4136 C   0  0  0  0  0  0  0  0  0  0  0  0
    9.6115   -6.9636   22.1114 C   0  0  0  0  0  0  0  0  0  0  0  0
    9.1902   -5.6998   22.0001 C   0  0  0  0  0  0  0  0  0  0  0  0
    7.9066   -5.2757   22.6324 C   0  0  0  0  0  0  0  0  0  0  0  0
    6.1717   -2.9487   21.6364 C   0  0  0  0  0  0  0  0  0  0  0  0
   13.8551   -1.8237   24.2048 C   0  0  0  0  0  0  0  0  0  0  0  0
   12.7356   -1.3687   26.4172 C   0  0  0  0  0  0  0  0  0  0  0  0
    7.2712   -0.1589   19.3632 C   0  0  0  0  0  0  0  0  0  0  0  0
    6.7900   -2.5327   18.7141 C   0  0  0  0  0  0  0  0  0  0  0  0
    4.9528   -1.0764   19.6041 C   0  0  0  0  0  0  0  0  0  0  0  0
    6.6460   -3.1454   23.0714 C   0  0  2  0  0  0  0  0  0  0  0  0
   12.5744   -1.3072   24.8868 C   0  0  0  0  0  0  0  0  0  0  0  0
    6.4468   -1.4077   19.6961 C   0  0  0  0  0  0  0  0  0  0  0  0
    5.0412   -5.2560   25.7807 N   0  0  0  0  0  0  0  0  0  0  0  0
   10.4177   -1.2662   23.7876 N   0  0  0  0  0  0  0  0  0  0  0  0
    6.7595   -1.8436   21.0450 N   0  0  0  0  0  0  0  0  0  0  0  0
    7.8681   -3.9109   23.0410 N   0  0  0  0  0  0  0  0  0  0  0  0
    7.0029   -6.1029   22.7549 O   0  0  0  0  0  0  0  0  0  0  0  0
    5.3352   -3.6765   21.1052 O   0  0  0  0  0  0  0  0  0  0  0  0
    7.4406   -1.2983   21.5593 H   0  0  0  0  0  0  0  0  0  0  0  0
  1  2  2  0  0  0  0
  1  5  1  0  0  0  0
  2  8  1  0  0  0  0
  3  4  2  0  0  0  0
  3  9  1  0  0  0  0
  4 10  1  0  0  0  0
  5 23  2  0  0  0  0
  6  8  2  0  0  0  0
  6 23  1  0  0  0  0
  7  9  2  0  0  0  0
  7 24  1  0  0  0  0
  8 20  1  0  0  0  0
  9 26  1  0  0  0  0
 10 21  1  0  0  0  0
 10 24  2  0  0  0  0
 11 12  2  0  0  0  0
 12 13  1  0  0  0  0
 13 26  1  0  0  0  0
 13 27  2  0  0  0  0
 14 20  1  0  0  0  0
 14 25  1  0  0  0  0
 14 28  2  0  0  0  0
 15 21  1  0  0  0  0
 16 21  1  0  0  0  0
 17 22  1  0  0  0  0
 18 22  1  0  0  0  0
 19 22  1  0  0  0  0
 20 26  1  0  0  0  0
 22 25  1  0  0  0  0
 25 29  1  0  0  0  0
M  END
> <ref_mols>
x2467_0

> <original SMILES>
CC(C)C=1C=CC(=CN1)N(C(C(=O)NC(C)(C)C)C=2C=CC=NC2)C(=O)C=C

> <Chemgauss4>
-5.736517

> <ref_pdb>
x0749_0

> <CYS145-warhead dist minimum (A)>
4.032894

> <CYS145-warhead dist mean (A)>
6.5498066

> <CYS145-warhead dist stddev (A)>
0.43795726

$$$$
x2635
  -OEChem-05172015543D

 29 30  0     1  0  0  0  0  0999 V2000
    3.2858   -4.2143   24.4854 C   0  0  0  0  0  0  0  0  0  0  0  0
    4.2362   -3.5947   23.6817 C   0  0  0  0  0  0  0  0  0  0  0  0
   10.0771   -4.0129   24.1792 C   0  0  0  0  0  0  0  0  0  0  0  0
   11.2297   -3.3809   24.6324 C   0  0  0  0  0  0  0  0  0  0  0  0
    3.7360   -5.0281   25.5125 C   0  0  0  0  0  0  0  0  0  0  0  0
    5.9359   -4.6366   24.9785 C   0  0  0  0  0  0  0  0  0  0  0  0
    9.3110   -1.9151   23.3613 C   0  0  0  0  0  0  0  0  0  0  0  0
    5.5888   -3.8047   23.9262 C   0  0  0  0  0  0  0  0  0  0  0  0
    9.0946   -3.2732   23.5306 C   0  0  0  0  0  0  0  0  0  0  0  0
   11.3507   -2.0181   24.4136 C   0  0  0  0  0  0  0  0  0  0  0  0
    9.6115   -6.9636   22.1114 C   0  0  0  0  0  0  0  0  0  0  0  0
    9.1902   -5.6998   22.0001 C   0  0  0  0  0  0  0  0  0  0  0  0
    7.9066   -5.2757   22.6324 C   0  0  0  0  0  0  0  0  0  0  0  0
    6.1717   -2.9487   21.6364 C   0  0  0  0  0  0  0  0  0  0  0  0
   13.8551   -1.8237   24.2048 C   0  0  0  0  0  0  0  0  0  0  0  0
   12.7356   -1.3687   26.4172 C   0  0  0  0  0  0  0  0  0  0  0  0
    7.2712   -0.1589   19.3632 C   0  0  0  0  0  0  0  0  0  0  0  0
    6.7900   -2.5327   18.7141 C   0  0  0  0  0  0  0  0  0  0  0  0
    4.9528   -1.0764   19.6041 C   0  0  0  0  0  0  0  0  0  0  0  0
    6.6460   -3.1454   23.0714 C   0  0  2  0  0  0  0  0  0  0  0  0
   12.5744   -1.3072   24.8868 C   0  0  0  0  0  0  0  0  0  0  0  0
    6.4468   -1.4077   19.6961 C   0  0  0  0  0  0  0  0  0  0  0  0
    5.0412   -5.2560   25.7807 N   0  0  0  0  0  0  0  0  0  0  0  0
   10.4177   -1.2662   23.7876 N   0  0  0  0  0  0  0  0  0  0  0  0
    6.7595   -1.8436   21.0450 N   0  0  0  0  0  0  0  0  0  0  0  0
    7.8681   -3.9109   23.0410 N   0  0  0  0  0  0  0  0  0  0  0  0
    7.0029   -6.1029   22.7549 O   0  0  0  0  0  0  0  0  0  0  0  0
    5.3352   -3.6765   21.1052 O   0  0  0  0  0  0  0  0  0  0  0  0
    7.4406   -1.2983   21.5593 H   0  0  0  0  0  0  0  0  0  0  0  0
  1  2  2  0  0  0  0
  1  5  1  0  0  0  0
  2  8  1  0  0  0  0
  3  4  2  0  0  0  0
  3  9  1  0  0  0  0
  4 10  1  0  0  0  0
  5 23  2  0  0  0  0
  6  8  2  0  0  0  0
  6 23  1  0  0  0  0
  7  9  2  0  0  0  0
  7 24  1  0  0  0  0
  8 20  1  0  0  0  0
  9 26  1  0  0  0  0
 10 21  1  0  0  0  0
 10 24  2  0  0  0  0
 11 12  2  0  0  0  0
 12 13  1  0  0  0  0
 13 26  1  0  0  0  0
 13 27  2  0  0  0  0
 14 20  1  0  0  0  0
 14 25  1  0  0  0  0
 14 28  2  0  0  0  0
 15 21  1  0  0  0  0
 16 21  1  0  0  0  0
 17 22  1  0  0  0  0
 18 22  1  0  0  0  0
 19 22  1  0  0  0  0
 20 26  1  0  0  0  0
 22 25  1  0  0  0  0
 25 29  1  0  0  0  0
M  END
> <ref_mols>
x2635_0

> <original SMILES>
CC(C)C=1C=CC(=CN1)N(C(C(=O)NC(C)(C)C)C=2C=CC=NC2)C(=O)C=C

> <Chemgauss4>
-5.736517

> <ref_pdb>
x0749_0

$$$$
x1056
  -OEChem-05172015543D

 11 11  0     0  0  0  0  0  0999 V2000
    7.4347    0.4028   20.5438 C   0  0  0  0  0  0  0  0  0  0  0  0
    6.0832   -0.4331   18.7998 C   0  0  0  0  0  0  0  0  0  0  0  0
    9.4201   -1.0432   22.2741 C   0  0  0  0  0  0  0  0  0  0  0  0
    8.0352    0.8093   21.8575 C   0  0  0  0  0  0  0  0  0  0  0  0
    7.9754    0.6156   19.3630 N   0  0  0  0  0  0  0  0  0  0  0  0
    7.1822    0.1261   18.3400 N   0  0  0  0  0  0  0  0  0  0  0  0
    5.1167   -0.9998   18.0330 N   0  0  0  0  0  0  0  0  0  0  0  0
    8.2384   -0.3505   22.6533 O   0  0  0  0  0  0  0  0  0  0  0  0
    5.9243   -0.4090   20.5073 S   0  0  0  0  0  0  0  0  0  0  0  0
    5.1631   -0.9863   17.0074 H   0  0  0  0  0  0  0  0  0  0  0  0
    4.2558   -1.3806   18.4428 H   0  0  0  0  0  0  0  0  0  0  0  0
  1  4  1  0  0  0  0
  1  5  2  0  0  0  0
  1  9  1  0  0  0  0
  2  6  2  0  0  0  0
  2  7  1  0  0  0  0
  2  9  1  0  0  0  0
  3  8  1  0  0  0  0
  4  8  1  0  0  0  0
  5  6  1  0  0  0  0
  7 10  1  0  0  0  0
  7 11  1  0  0  0  0
M  END
> <ref_mols>
x1056_0

> <original SMILES>
COCC1=NN=C(N)S1

> <Chemgauss4>
-5.658806

> <ref_pdb>
x0107_0

$$$$
x0129
  -OEChem-05172015543D

 11 11  0     0  0  0  0  0  0999 V2000
    7.4347    0.4028   20.5438 C   0  0  0  0  0  0  0  0  0  0  0  0
    6.0832   -0.4331   18.7998 C   0  0  0  0  0  0  0  0  0  0  0  0
    9.4201   -1.0432   22.2741 C   0  0  0  0  0  0  0  0  0  0  0  0
    8.0352    0.8093   21.8575 C   0  0  0  0  0  0  0  0  0  0  0  0
    7.9754    0.6156   19.3630 N   0  0  0  0  0  0  0  0  0  0  0  0
    7.1822    0.1261   18.3400 N   0  0  0  0  0  0  0  0  0  0  0  0
    5.1167   -0.9998   18.0330 N   0  0  0  0  0  0  0  0  0  0  0  0
    8.2384   -0.3505   22.6533 O   0  0  0  0  0  0  0  0  0  0  0  0
    5.9243   -0.4090   20.5073 S   0  0  0  0  0  0  0  0  0  0  0  0
    5.1631   -0.9863   17.0074 H   0  0  0  0  0  0  0  0  0  0  0  0
    4.2558   -1.3806   18.4428 H   0  0  0  0  0  0  0  0  0  0  0  0
  1  4  1  0  0  0  0
  1  5  2  0  0  0  0
  1  9  1  0  0  0  0
  2  6  2  0  0  0  0
  2  7  1  0  0  0  0
  2  9  1  0  0  0  0
  3  8  1  0  0  0  0
  4  8  1  0  0  0  0
  5  6  1  0  0  0  0
  7 10  1  0  0  0  0
  7 11  1  0  0  0  0
M  END
> <ref_mols>
x0129_0

> <original SMILES>
COCC1=NN=C(N)S1

> <Chemgauss4>
-5.658806

> <ref_pdb>
x0107_0

$$$$
x0840
  -OEChem-05172015543D

 11 11  0     1  0  0  0  0  0999 V2000
   14.0130   -1.6261   23.2678 C   0  0  0  0  0  0  0  0  0  0  0  0
   13.4411   -1.4754   21.8682 C   0  0  0  0  0  0  0  0  0  0  0  0
   13.6819   -0.3006   23.9170 C   0  0  0  0  0  0  0  0  0  0  0  0
   12.1090   -0.7483   22.0835 C   0  0  2  0  0  0  0  0  0  0  0  0
   10.9542   -1.7173   22.3498 C   0  0  0  0  0  0  0  0  0  0  0  0
   10.0385    1.4343   21.9335 C   0  0  0  0  0  0  0  0  0  0  0  0
   11.7730    0.2009   20.9370 C   0  0  0  0  0  0  0  0  0  0  0  0
   12.3435    0.0648   23.3447 N   0  3  0  0  0  0  0  0  0  0  0  0
   10.3807    0.4567   20.9574 O   0  0  0  0  0  0  0  0  0  0  0  0
   11.6056   -0.1189   24.0388 H   0  0  0  0  0  0  0  0  0  0  0  0
   12.3068    1.0767   23.1584 H   0  0  0  0  0  0  0  0  0  0  0  0
  1  2  1  0  0  0  0
  1  3  1  0  0  0  0
  2  4  1  0  0  0  0
  3  8  1  0  0  0  0
  4  5  1  0  0  0  0
  4  7  1  0  0  0  0
  4  8  1  0  0  0  0
  6  9  1  0  0  0  0
  7  9  1  0  0  0  0
  8 10  1  0  0  0  0
  8 11  1  0  0  0  0
M  CHG  1   8   1
M  END
> <ref_mols>
x0840_0

> <original SMILES>
CC1(COC)NCCC1

> <Chemgauss4>
-5.630962

> <ref_pdb>
x0678_0

$$$$
x1007
  -OEChem-05172015543D

  9  9  0     0  0  0  0  0  0999 V2000
    5.8020    0.8680   18.1316 C   0  0  0  0  0  0  0  0  0  0  0  0
    5.4357    0.6419   19.4374 C   0  0  0  0  0  0  0  0  0  0  0  0
    7.2470   -0.4926   18.9003 C   0  0  0  0  0  0  0  0  0  0  0  0
    6.9301    0.1587   17.8034 N   0  0  0  0  0  0  0  0  0  0  0  0
    6.3705   -0.2320   19.9167 N   0  0  0  0  0  0  0  0  0  0  0  0
    8.2720   -1.3405   19.1381 N   0  0  0  0  0  0  0  0  0  0  0  0
    6.4084   -0.6158   20.8515 H   0  0  0  0  0  0  0  0  0  0  0  0
    8.9377   -1.6142   18.4012 H   0  0  0  0  0  0  0  0  0  0  0  0
    8.3817   -1.8263   20.0398 H   0  0  0  0  0  0  0  0  0  0  0  0
  1  2  2  0  0  0  0
  1  4  1  0  0  0  0
  2  5  1  0  0  0  0
  3  4  2  0  0  0  0
  3  5  1  0  0  0  0
  3  6  1  0  0  0  0
  5  7  1  0  0  0  0
  6  8  1  0  0  0  0
  6  9  1  0  0  0  0
M  END
> <ref_mols>
x1007_0

> <original SMILES>
NC1=NC=CN1.NC1=NC=CN1.OS(=O)(=O)O

> <Chemgauss4>
-5.620991

> <ref_pdb>
x0397_0

$$$$
x0231
  -OEChem-05172015543D

 10 10  0     0  0  0  0  0  0999 V2000
   12.6208   -2.8903   25.5675 C   0  0  0  0  0  0  0  0  0  0  0  0
    9.1339   -3.5095   22.9728 C   0  0  0  0  0  0  0  0  0  0  0  0
    8.9252   -5.6591   24.0380 C   0  0  0  0  0  0  0  0  0  0  0  0
    8.3849   -4.0668   21.7656 C   0  0  0  0  0  0  0  0  0  0  0  0
    8.1822   -6.1659   22.8052 C   0  0  0  0  0  0  0  0  0  0  0  0
   11.8777   -3.4061   24.4082 C   0  0  0  0  0  0  0  0  0  0  0  0
   10.5747   -4.0824   24.8212 C   0  0  0  0  0  0  0  0  0  0  0  0
   13.2088   -2.4826   26.4809 N   0  0  0  0  0  0  0  0  0  0  0  0
    9.8590   -4.5917   23.6532 N   0  0  0  0  0  0  0  0  0  0  0  0
    7.4810   -5.0950   22.1721 O   0  0  0  0  0  0  0  0  0  0  0  0
  1  6  1  0  0  0  0
  1  8  3  0  0  0  0
  2  4  1  0  0  0  0
  2  9  1  0  0  0  0
  3  5  1  0  0  0  0
  3  9  1  0  0  0  0
  4 10  1  0  0  0  0
  5 10  1  0  0  0  0
  6  7  1  0  0  0  0
  7  9  1  0  0  0  0
M  END
> <ref_mols>
x0231_0

> <original SMILES>
N#CCCN1CCOCC1

> <Chemgauss4>
-5.614038

> <ref_pdb>
x0749_0

> <CYS145-warhead dist minimum (A)>
7.582752

> <CYS145-warhead dist mean (A)>
9.151668

> <CYS145-warhead dist stddev (A)>
0.44008207

$$$$
x0936
  -OEChem-05172015543D

  6  6  0     0  0  0  0  0  0999 V2000
    6.7448   -0.3445   18.8917 C   0  0  0  0  0  0  0  0  0  0  0  0
    5.2784    1.2458   19.1882 C   0  0  0  0  0  0  0  0  0  0  0  0
    5.9093    0.2343   19.8626 C   0  0  0  0  0  0  0  0  0  0  0  0
    6.6400    0.2616   17.7058 N   0  0  0  0  0  0  0  0  0  0  0  0
    5.7061    1.2723   17.9000 O   0  0  0  0  0  0  0  0  0  0  0  0
    5.7381   -0.2907   21.6379 Br  0  0  0  0  0  0  0  0  0  0  0  0
  1  3  1  0  0  0  0
  1  4  2  0  0  0  0
  2  3  2  0  0  0  0
  2  5  1  0  0  0  0
  3  6  1  0  0  0  0
  4  5  1  0  0  0  0
M  END
> <ref_mols>
x0936_0

> <original SMILES>
BrC1=CON=C1

> <Chemgauss4>
-5.611597

> <ref_pdb>
x0540_0

$$$$
x1036
  -OEChem-05172015543D

  8  8  0     0  0  0  0  0  0999 V2000
   12.8202    0.4122   22.7661 C   0  0  0  0  0  0  0  0  0  0  0  0
   13.5317   -0.7214   23.4505 C   0  0  0  0  0  0  0  0  0  0  0  0
   12.5251   -1.0082   22.3711 C   0  0  0  0  0  0  0  0  0  0  0  0
   11.2136   -1.6255   22.7139 C   0  0  0  0  0  0  0  0  0  0  0  0
   10.1644   -1.1570   21.7662 N   0  3  0  0  0  0  0  0  0  0  0  0
   10.3084   -0.1726   21.5260 H   0  0  0  0  0  0  0  0  0  0  0  0
    9.2341   -1.2531   22.1823 H   0  0  0  0  0  0  0  0  0  0  0  0
   10.1878   -1.7051   20.9021 H   0  0  0  0  0  0  0  0  0  0  0  0
  1  2  1  0  0  0  0
  1  3  1  0  0  0  0
  2  3  1  0  0  0  0
  3  4  1  0  0  0  0
  4  5  1  0  0  0  0
  5  6  1  0  0  0  0
  5  7  1  0  0  0  0
  5  8  1  0  0  0  0
M  CHG  1   5   1
M  END
> <ref_mols>
x1036_0

> <original SMILES>
NCC1CC1

> <Chemgauss4>
-5.603897

> <ref_pdb>
x1093_0

$$$$
x1039
  -OEChem-05172015543D

 11 11  0     1  0  0  0  0  0999 V2000
    7.8032   -5.3084   25.8475 C   0  0  0  0  0  0  0  0  0  0  0  0
    9.2015   -4.3314   24.1764 C   0  0  0  0  0  0  0  0  0  0  0  0
    8.6582   -3.2467   25.0867 C   0  0  0  0  0  0  0  0  0  0  0  0
    8.9805   -5.6239   24.9587 C   0  0  1  0  0  0  0  0  0  0  0  0
    7.6608   -3.9249   25.8679 N   0  0  0  0  0  0  0  0  0  0  0  0
   10.1702   -5.9318   25.7890 N   0  3  0  0  0  0  0  0  0  0  0  0
    7.1413   -6.1278   26.4658 O   0  0  0  0  0  0  0  0  0  0  0  0
    6.9095   -3.4485   26.3609 H   0  0  0  0  0  0  0  0  0  0  0  0
   10.4337   -5.1306   26.3772 H   0  0  0  0  0  0  0  0  0  0  0  0
   10.9829   -6.1677   25.2045 H   0  0  0  0  0  0  0  0  0  0  0  0
    9.9947   -6.7301   26.4129 H   0  0  0  0  0  0  0  0  0  0  0  0
  1  4  1  0  0  0  0
  1  5  1  0  0  0  0
  1  7  2  0  0  0  0
  2  3  1  0  0  0  0
  2  4  1  0  0  0  0
  3  5  1  0  0  0  0
  4  6  1  0  0  0  0
  5  8  1  0  0  0  0
  6  9  1  0  0  0  0
  6 10  1  0  0  0  0
  6 11  1  0  0  0  0
M  CHG  1   6   1
M  END
> <ref_mols>
x1039_0

> <original SMILES>
Cl.NC1CCNC1=O

> <Chemgauss4>
-5.603454

> <ref_pdb>
x1077_0

$$$$
x2704
  -OEChem-05172015543D

 33 35  0     1  0  0  0  0  0999 V2000
    5.4675   -0.7623   17.8719 C   0  0  0  0  0  0  0  0  0  0  0  0
    6.1269    0.4607   17.7498 C   0  0  0  0  0  0  0  0  0  0  0  0
    3.1085   -5.1842   23.7070 C   0  0  0  0  0  0  0  0  0  0  0  0
    4.0696   -4.3579   23.1354 C   0  0  0  0  0  0  0  0  0  0  0  0
   11.3079   -3.7542   23.5155 C   0  0  0  0  0  0  0  0  0  0  0  0
    9.8717   -2.7304   25.1666 C   0  0  0  0  0  0  0  0  0  0  0  0
    5.6487   -1.5414   19.0146 C   0  0  0  0  0  0  0  0  0  0  0  0
   10.1871   -4.2336   22.8377 C   0  0  0  0  0  0  0  0  0  0  0  0
    8.7508   -3.2097   24.4888 C   0  0  0  0  0  0  0  0  0  0  0  0
    6.9678    0.9046   18.7704 C   0  0  0  0  0  0  0  0  0  0  0  0
    3.5431   -6.2191   24.5193 C   0  0  0  0  0  0  0  0  0  0  0  0
    5.7482   -5.6499   24.2166 C   0  0  0  0  0  0  0  0  0  0  0  0
   11.1503   -3.0027   24.6800 C   0  0  0  0  0  0  0  0  0  0  0  0
    5.4169   -4.5885   23.3899 C   0  0  0  0  0  0  0  0  0  0  0  0
    8.9085   -3.9613   23.3243 C   0  0  0  0  0  0  0  0  0  0  0  0
    6.4896   -1.0975   20.0352 C   0  0  0  0  0  0  0  0  0  0  0  0
    7.1491    0.1255   19.9131 C   0  0  0  0  0  0  0  0  0  0  0  0
    9.3622   -7.4922   21.4489 C   0  0  0  0  0  0  0  0  0  0  0  0
    8.8030   -6.6546   22.3280 C   0  0  0  0  0  0  0  0  0  0  0  0
    7.7877   -5.6579   21.8774 C   0  0  0  0  0  0  0  0  0  0  0  0
    6.0541   -3.1498   21.4298 C   0  0  0  0  0  0  0  0  0  0  0  0
   12.4197   -2.9669   26.8563 C   0  0  0  0  0  0  0  0  0  0  0  0
   12.7797   -0.5371   24.1708 C   0  0  0  0  0  0  0  0  0  0  0  0
    6.4865   -3.7071   22.7837 C   0  0  2  0  0  0  0  0  0  0  0  0
   12.3488   -2.4902   25.4047 C   0  0  2  0  0  0  0  0  0  0  0  0
    4.8429   -6.4742   24.7898 N   0  0  0  0  0  0  0  0  0  0  0  0
    6.6482   -1.9154   21.1791 N   0  0  0  0  0  0  0  0  0  0  0  0
    7.7409   -4.4601   22.6185 N   0  0  0  0  0  0  0  0  0  0  0  0
    7.0649   -5.9372   20.9205 O   0  0  0  0  0  0  0  0  0  0  0  0
    5.2696   -3.7550   20.7042 O   0  0  0  0  0  0  0  0  0  0  0  0
   12.3185   -1.0583   25.4053 O   0  0  0  0  0  0  0  0  0  0  0  0
    8.3074    0.7763   21.2690 Br  0  0  0  0  0  0  0  0  0  0  0  0
    7.2689   -1.5599   21.9032 H   0  0  0  0  0  0  0  0  0  0  0  0
  1  2  1  0  0  0  0
  1  7  2  0  0  0  0
  2 10  2  0  0  0  0
  3  4  2  0  0  0  0
  3 11  1  0  0  0  0
  4 14  1  0  0  0  0
  5  8  2  0  0  0  0
  5 13  1  0  0  0  0
  6  9  1  0  0  0  0
  6 13  2  0  0  0  0
  7 16  1  0  0  0  0
  8 15  1  0  0  0  0
  9 15  2  0  0  0  0
 10 17  1  0  0  0  0
 11 26  2  0  0  0  0
 12 14  2  0  0  0  0
 12 26  1  0  0  0  0
 13 25  1  0  0  0  0
 14 24  1  0  0  0  0
 15 28  1  0  0  0  0
 16 17  2  0  0  0  0
 16 27  1  0  0  0  0
 17 32  1  0  0  0  0
 18 19  2  0  0  0  0
 19 20  1  0  0  0  0
 20 28  1  0  0  0  0
 20 29  2  0  0  0  0
 21 24  1  0  0  0  0
 21 27  1  0  0  0  0
 21 30  2  0  0  0  0
 22 25  1  0  0  0  0
 23 31  1  0  0  0  0
 24 28  1  0  0  0  0
 25 31  1  0  0  0  0
 27 33  1  0  0  0  0
M  END
> <ref_mols>
x2704_0

> <original SMILES>
COC(C)C=1C=CC(=CC1)N(C(C(=O)NC=2C=CC=CC2Br)C=3C=CC=NC3)C(=O)C=C

> <Chemgauss4>
-5.576895

> <ref_pdb>
x0749_0

> <CYS145-warhead dist minimum (A)>
6.779276

> <CYS145-warhead dist mean (A)>
7.892919

> <CYS145-warhead dist stddev (A)>
0.33358416

$$$$
x2536
  -OEChem-05172015543D

 33 35  0     1  0  0  0  0  0999 V2000
    5.4675   -0.7623   17.8719 C   0  0  0  0  0  0  0  0  0  0  0  0
    6.1269    0.4607   17.7498 C   0  0  0  0  0  0  0  0  0  0  0  0
    3.1085   -5.1842   23.7070 C   0  0  0  0  0  0  0  0  0  0  0  0
    4.0696   -4.3579   23.1354 C   0  0  0  0  0  0  0  0  0  0  0  0
   11.3079   -3.7542   23.5155 C   0  0  0  0  0  0  0  0  0  0  0  0
    9.8717   -2.7304   25.1666 C   0  0  0  0  0  0  0  0  0  0  0  0
    5.6487   -1.5414   19.0146 C   0  0  0  0  0  0  0  0  0  0  0  0
   10.1871   -4.2336   22.8377 C   0  0  0  0  0  0  0  0  0  0  0  0
    8.7508   -3.2097   24.4888 C   0  0  0  0  0  0  0  0  0  0  0  0
    6.9678    0.9046   18.7704 C   0  0  0  0  0  0  0  0  0  0  0  0
    3.5431   -6.2191   24.5193 C   0  0  0  0  0  0  0  0  0  0  0  0
    5.7482   -5.6499   24.2166 C   0  0  0  0  0  0  0  0  0  0  0  0
   11.1503   -3.0027   24.6800 C   0  0  0  0  0  0  0  0  0  0  0  0
    5.4169   -4.5885   23.3899 C   0  0  0  0  0  0  0  0  0  0  0  0
    8.9085   -3.9613   23.3243 C   0  0  0  0  0  0  0  0  0  0  0  0
    6.4896   -1.0975   20.0352 C   0  0  0  0  0  0  0  0  0  0  0  0
    7.1491    0.1255   19.9131 C   0  0  0  0  0  0  0  0  0  0  0  0
    9.3622   -7.4922   21.4489 C   0  0  0  0  0  0  0  0  0  0  0  0
    8.8030   -6.6546   22.3280 C   0  0  0  0  0  0  0  0  0  0  0  0
    7.7877   -5.6579   21.8774 C   0  0  0  0  0  0  0  0  0  0  0  0
    6.0541   -3.1498   21.4298 C   0  0  0  0  0  0  0  0  0  0  0  0
   12.4197   -2.9669   26.8563 C   0  0  0  0  0  0  0  0  0  0  0  0
   12.7797   -0.5371   24.1708 C   0  0  0  0  0  0  0  0  0  0  0  0
    6.4865   -3.7071   22.7837 C   0  0  2  0  0  0  0  0  0  0  0  0
   12.3488   -2.4902   25.4047 C   0  0  2  0  0  0  0  0  0  0  0  0
    4.8429   -6.4742   24.7898 N   0  0  0  0  0  0  0  0  0  0  0  0
    6.6482   -1.9154   21.1791 N   0  0  0  0  0  0  0  0  0  0  0  0
    7.7409   -4.4601   22.6185 N   0  0  0  0  0  0  0  0  0  0  0  0
    7.0649   -5.9372   20.9205 O   0  0  0  0  0  0  0  0  0  0  0  0
    5.2696   -3.7550   20.7042 O   0  0  0  0  0  0  0  0  0  0  0  0
   12.3185   -1.0583   25.4053 O   0  0  0  0  0  0  0  0  0  0  0  0
    8.3074    0.7763   21.2690 Br  0  0  0  0  0  0  0  0  0  0  0  0
    7.2689   -1.5599   21.9032 H   0  0  0  0  0  0  0  0  0  0  0  0
  1  2  1  0  0  0  0
  1  7  2  0  0  0  0
  2 10  2  0  0  0  0
  3  4  2  0  0  0  0
  3 11  1  0  0  0  0
  4 14  1  0  0  0  0
  5  8  2  0  0  0  0
  5 13  1  0  0  0  0
  6  9  1  0  0  0  0
  6 13  2  0  0  0  0
  7 16  1  0  0  0  0
  8 15  1  0  0  0  0
  9 15  2  0  0  0  0
 10 17  1  0  0  0  0
 11 26  2  0  0  0  0
 12 14  2  0  0  0  0
 12 26  1  0  0  0  0
 13 25  1  0  0  0  0
 14 24  1  0  0  0  0
 15 28  1  0  0  0  0
 16 17  2  0  0  0  0
 16 27  1  0  0  0  0
 17 32  1  0  0  0  0
 18 19  2  0  0  0  0
 19 20  1  0  0  0  0
 20 28  1  0  0  0  0
 20 29  2  0  0  0  0
 21 24  1  0  0  0  0
 21 27  1  0  0  0  0
 21 30  2  0  0  0  0
 22 25  1  0  0  0  0
 23 31  1  0  0  0  0
 24 28  1  0  0  0  0
 25 31  1  0  0  0  0
 27 33  1  0  0  0  0
M  END
> <ref_mols>
x2536_0

> <original SMILES>
COC(C)C=1C=CC(=CC1)N(C(C(=O)NC=2C=CC=CC2Br)C=3C=CC=NC3)C(=O)C=C

> <Chemgauss4>
-5.576895

> <ref_pdb>
x0749_0

$$$$
x2505
  -OEChem-05172015543D

 39 41  0     1  0  0  0  0  0999 V2000
    4.7091   -5.8322   27.0526 C   0  0  0  0  0  0  0  0  0  0  0  0
    5.6269   -6.5943   26.3299 C   0  0  0  0  0  0  0  0  0  0  0  0
    4.4193   -4.5271   26.6546 C   0  0  0  0  0  0  0  0  0  0  0  0
    6.2551   -6.0513   25.2091 C   0  0  0  0  0  0  0  0  0  0  0  0
    5.0475   -3.9841   25.5338 C   0  0  0  0  0  0  0  0  0  0  0  0
    5.9654   -4.7462   24.8110 C   0  0  0  0  0  0  0  0  0  0  0  0
    6.5039    0.7991   18.3137 C   0  0  0  0  0  0  0  0  0  0  0  0
    8.7701   -0.3220   20.2769 C   0  0  0  0  0  0  0  0  0  0  0  0
   11.9464    2.0819   23.6807 C   0  0  0  0  0  0  0  0  0  0  0  0
    5.2782    6.1026   23.1828 C   0  0  0  0  0  0  0  0  0  0  0  0
    6.5948    5.4369   23.5708 C   0  0  0  0  0  0  0  0  0  0  0  0
    4.2279    5.0738   22.7758 C   0  0  0  0  0  0  0  0  0  0  0  0
    7.1096    4.5190   22.4644 C   0  0  0  0  0  0  0  0  0  0  0  0
    4.7387    4.1551   21.6681 C   0  0  0  0  0  0  0  0  0  0  0  0
    5.5835    1.5181   20.4877 C   0  0  0  0  0  0  0  0  0  0  0  0
    7.8248    1.8084   21.2814 C   0  0  0  0  0  0  0  0  0  0  0  0
    6.4645    0.4823   19.7970 C   0  0  2  0  0  0  0  0  0  0  0  0
    6.0588    3.4767   22.0583 C   0  0  0  0  0  0  0  0  0  0  0  0
    6.5765    2.6060   20.9150 C   0  0  2  0  0  0  0  0  0  0  0  0
   13.0382    3.8654   22.3282 C   0  0  0  0  0  0  0  0  0  0  0  0
   14.9324   -0.0411   22.7188 C   0  0  0  0  0  0  0  0  0  0  0  0
   14.1253   -1.7669   24.3458 C   0  0  0  0  0  0  0  0  0  0  0  0
    6.6444   -4.1584   23.5995 C   0  0  0  0  0  0  0  0  0  0  0  0
   10.0260   -0.0760   21.0742 C   0  0  0  0  0  0  0  0  0  0  0  0
   11.7628    3.4207   23.0156 C   0  0  0  0  0  0  0  0  0  0  0  0
    7.9607   -3.4390   23.9167 C   0  0  0  0  0  0  0  0  0  0  0  0
    8.6743   -2.9202   22.6643 C   0  0  0  0  0  0  0  0  0  0  0  0
    9.9682   -2.1910   23.0042 C   0  0  0  0  0  0  0  0  0  0  0  0
   13.8768   -0.3657   23.7775 C   0  0  0  0  0  0  0  0  0  0  0  0
   12.4528   -0.2153   23.2021 C   0  0  1  0  0  0  0  0  0  0  0  0
    7.7706    0.6246   20.4285 N   0  0  0  0  0  0  0  0  0  0  0  0
    7.5835    0.5074   17.7286 O   0  5  0  0  0  0  0  0  0  0  0  0
    5.4470    1.3160   17.8543 O   0  0  0  0  0  0  0  0  0  0  0  0
    8.6810   -1.3084   19.5439 O   0  0  0  0  0  0  0  0  0  0  0  0
   11.8242    1.8984   24.8846 O   0  0  0  0  0  0  0  0  0  0  0  0
   10.9179   -2.5891   20.4652 O   0  0  0  0  0  0  0  0  0  0  0  0
   12.2511    1.1387   22.7448 O   0  0  0  0  0  0  0  0  0  0  0  0
   12.2910   -1.1180   22.1100 O   0  0  0  0  0  0  0  0  0  0  0  0
   10.8375   -1.5803   21.5756 P   0  0  1  0  0  0  0  0  0  0  0  0
  1  2  1  0  0  0  0
  1  3  2  0  0  0  0
  2  4  2  0  0  0  0
  3  5  1  0  0  0  0
  4  6  1  0  0  0  0
  5  6  2  0  0  0  0
  6 23  1  0  0  0  0
  7 17  1  0  0  0  0
  7 32  1  0  0  0  0
  7 33  2  0  0  0  0
  8 24  1  0  0  0  0
  8 31  1  0  0  0  0
  8 34  2  0  0  0  0
  9 25  1  0  0  0  0
  9 35  2  0  0  0  0
  9 37  1  0  0  0  0
 10 11  1  0  0  0  0
 10 12  1  0  0  0  0
 11 13  1  0  0  0  0
 12 14  1  0  0  0  0
 13 18  1  0  0  0  0
 14 18  1  0  0  0  0
 15 17  1  0  0  0  0
 15 19  1  0  0  0  0
 16 19  1  0  0  0  0
 16 31  1  0  0  0  0
 17 31  1  0  0  0  0
 18 19  1  0  0  0  0
 20 25  1  0  0  0  0
 21 29  1  0  0  0  0
 22 29  1  0  0  0  0
 23 26  1  0  0  0  0
 24 39  1  0  0  0  0
 26 27  1  0  0  0  0
 27 28  1  0  0  0  0
 28 39  1  0  0  0  0
 29 30  1  0  0  0  0
 30 37  1  0  0  0  0
 30 38  1  0  0  0  0
 36 39  2  0  0  0  0
 38 39  1  0  0  0  0
M  CHG  1  32  -1
M  END
> <ref_mols>
x2505_0

> <original SMILES>
CCC(=O)O[C@@H](OP(=O)(CCCCC=1C=CC=CC1)CC(=O)N2C[C@@H](C[C@H]2C(=O)O)C3CCCCC3)C(C)C

> <Chemgauss4>
-5.570315

> <ref_pdb>
x0678_0

$$$$
x2673
  -OEChem-05172015543D

 39 41  0     1  0  0  0  0  0999 V2000
    4.7091   -5.8322   27.0526 C   0  0  0  0  0  0  0  0  0  0  0  0
    5.6269   -6.5943   26.3299 C   0  0  0  0  0  0  0  0  0  0  0  0
    4.4193   -4.5271   26.6546 C   0  0  0  0  0  0  0  0  0  0  0  0
    6.2551   -6.0513   25.2091 C   0  0  0  0  0  0  0  0  0  0  0  0
    5.0475   -3.9841   25.5338 C   0  0  0  0  0  0  0  0  0  0  0  0
    5.9654   -4.7462   24.8110 C   0  0  0  0  0  0  0  0  0  0  0  0
    6.5039    0.7991   18.3137 C   0  0  0  0  0  0  0  0  0  0  0  0
    8.7701   -0.3220   20.2769 C   0  0  0  0  0  0  0  0  0  0  0  0
   11.9464    2.0819   23.6807 C   0  0  0  0  0  0  0  0  0  0  0  0
    5.2782    6.1026   23.1828 C   0  0  0  0  0  0  0  0  0  0  0  0
    6.5948    5.4369   23.5708 C   0  0  0  0  0  0  0  0  0  0  0  0
    4.2279    5.0738   22.7758 C   0  0  0  0  0  0  0  0  0  0  0  0
    7.1096    4.5190   22.4644 C   0  0  0  0  0  0  0  0  0  0  0  0
    4.7387    4.1551   21.6681 C   0  0  0  0  0  0  0  0  0  0  0  0
    5.5835    1.5181   20.4877 C   0  0  0  0  0  0  0  0  0  0  0  0
    7.8248    1.8084   21.2814 C   0  0  0  0  0  0  0  0  0  0  0  0
    6.4645    0.4823   19.7970 C   0  0  2  0  0  0  0  0  0  0  0  0
    6.0588    3.4767   22.0583 C   0  0  0  0  0  0  0  0  0  0  0  0
    6.5765    2.6060   20.9150 C   0  0  2  0  0  0  0  0  0  0  0  0
   13.0382    3.8654   22.3282 C   0  0  0  0  0  0  0  0  0  0  0  0
   14.9324   -0.0411   22.7188 C   0  0  0  0  0  0  0  0  0  0  0  0
   14.1253   -1.7669   24.3458 C   0  0  0  0  0  0  0  0  0  0  0  0
    6.6444   -4.1584   23.5995 C   0  0  0  0  0  0  0  0  0  0  0  0
   10.0260   -0.0760   21.0742 C   0  0  0  0  0  0  0  0  0  0  0  0
   11.7628    3.4207   23.0156 C   0  0  0  0  0  0  0  0  0  0  0  0
    7.9607   -3.4390   23.9167 C   0  0  0  0  0  0  0  0  0  0  0  0
    8.6743   -2.9202   22.6643 C   0  0  0  0  0  0  0  0  0  0  0  0
    9.9682   -2.1910   23.0042 C   0  0  0  0  0  0  0  0  0  0  0  0
   13.8768   -0.3657   23.7775 C   0  0  0  0  0  0  0  0  0  0  0  0
   12.4528   -0.2153   23.2021 C   0  0  1  0  0  0  0  0  0  0  0  0
    7.7706    0.6246   20.4285 N   0  0  0  0  0  0  0  0  0  0  0  0
    7.5835    0.5074   17.7286 O   0  5  0  0  0  0  0  0  0  0  0  0
    5.4470    1.3160   17.8543 O   0  0  0  0  0  0  0  0  0  0  0  0
    8.6810   -1.3084   19.5439 O   0  0  0  0  0  0  0  0  0  0  0  0
   11.8242    1.8984   24.8846 O   0  0  0  0  0  0  0  0  0  0  0  0
   10.9179   -2.5891   20.4652 O   0  0  0  0  0  0  0  0  0  0  0  0
   12.2511    1.1387   22.7448 O   0  0  0  0  0  0  0  0  0  0  0  0
   12.2910   -1.1180   22.1100 O   0  0  0  0  0  0  0  0  0  0  0  0
   10.8375   -1.5803   21.5756 P   0  0  1  0  0  0  0  0  0  0  0  0
  1  2  1  0  0  0  0
  1  3  2  0  0  0  0
  2  4  2  0  0  0  0
  3  5  1  0  0  0  0
  4  6  1  0  0  0  0
  5  6  2  0  0  0  0
  6 23  1  0  0  0  0
  7 17  1  0  0  0  0
  7 32  1  0  0  0  0
  7 33  2  0  0  0  0
  8 24  1  0  0  0  0
  8 31  1  0  0  0  0
  8 34  2  0  0  0  0
  9 25  1  0  0  0  0
  9 35  2  0  0  0  0
  9 37  1  0  0  0  0
 10 11  1  0  0  0  0
 10 12  1  0  0  0  0
 11 13  1  0  0  0  0
 12 14  1  0  0  0  0
 13 18  1  0  0  0  0
 14 18  1  0  0  0  0
 15 17  1  0  0  0  0
 15 19  1  0  0  0  0
 16 19  1  0  0  0  0
 16 31  1  0  0  0  0
 17 31  1  0  0  0  0
 18 19  1  0  0  0  0
 20 25  1  0  0  0  0
 21 29  1  0  0  0  0
 22 29  1  0  0  0  0
 23 26  1  0  0  0  0
 24 39  1  0  0  0  0
 26 27  1  0  0  0  0
 27 28  1  0  0  0  0
 28 39  1  0  0  0  0
 29 30  1  0  0  0  0
 30 37  1  0  0  0  0
 30 38  1  0  0  0  0
 36 39  2  0  0  0  0
 38 39  1  0  0  0  0
M  CHG  1  32  -1
M  END
> <ref_mols>
x2673_0

> <original SMILES>
CCC(=O)O[C@@H](OP(=O)(CCCCC=1C=CC=CC1)CC(=O)N2C[C@@H](C[C@H]2C(=O)O)C3CCCCC3)C(C)C

> <Chemgauss4>
-5.570315

> <ref_pdb>
x0678_0

$$$$
x1008
  -OEChem-05172015543D

  8  8  0     0  0  0  0  0  0999 V2000
   12.3585   -0.3507   24.1053 C   0  0  0  0  0  0  0  0  0  0  0  0
   11.9781   -0.9702   22.7944 C   0  0  0  0  0  0  0  0  0  0  0  0
   13.3249   -1.4230   22.2532 C   0  0  0  0  0  0  0  0  0  0  0  0
   13.6275   -0.8069   24.4060 N   0  0  0  0  0  0  0  0  0  0  0  0
   14.1522   -1.6517   23.4406 N   0  0  0  0  0  0  0  0  0  0  0  0
   11.6507    0.3827   24.7772 O   0  0  0  0  0  0  0  0  0  0  0  0
   14.1546   -0.5676   25.2374 H   0  0  0  0  0  0  0  0  0  0  0  0
   13.9918   -2.6005   23.7798 H   0  0  0  0  0  0  0  0  0  0  0  0
  1  2  1  0  0  0  0
  1  4  1  0  0  0  0
  1  6  2  0  0  0  0
  2  3  1  0  0  0  0
  3  5  1  0  0  0  0
  4  5  1  0  0  0  0
  4  7  1  0  0  0  0
  5  8  1  0  0  0  0
M  END
> <ref_mols>
x1008_0

> <original SMILES>
Cl.O=C1CCNN1

> <Chemgauss4>
-5.561816

> <ref_pdb>
x0678_0

$$$$
x0098
  -OEChem-05172015543D

 11 11  0     0  0  0  0  0  0999 V2000
   13.3423   -0.5070   25.1410 C   0  0  0  0  0  0  0  0  0  0  0  0
   12.4124   -0.0431   23.3026 C   0  0  0  0  0  0  0  0  0  0  0  0
   13.6500   -0.8629   23.6824 C   0  0  0  0  0  0  0  0  0  0  0  0
    9.6687   -0.2085   24.4133 C   0  0  0  0  0  0  0  0  0  0  0  0
   11.2238   -2.1866   24.5760 C   0  0  0  0  0  0  0  0  0  0  0  0
   10.7787   -0.7623   26.6085 C   0  0  0  0  0  0  0  0  0  0  0  0
   10.9156   -0.7799   25.0867 C   0  0  0  0  0  0  0  0  0  0  0  0
   12.0623    0.0922   24.7268 N   0  3  0  0  0  0  0  0  0  0  0  0
   13.6069   -2.2612   23.3454 O   0  0  0  0  0  0  0  0  0  0  0  0
   11.9342    1.0641   25.0367 H   0  0  0  0  0  0  0  0  0  0  0  0
   13.8208   -2.3135   22.4042 H   0  0  0  0  0  0  0  0  0  0  0  0
  1  3  1  0  0  0  0
  1  8  1  0  0  0  0
  2  3  1  0  0  0  0
  2  8  1  0  0  0  0
  3  9  1  0  0  0  0
  4  7  1  0  0  0  0
  5  7  1  0  0  0  0
  6  7  1  0  0  0  0
  7  8  1  0  0  0  0
  8 10  1  0  0  0  0
  9 11  1  0  0  0  0
M  CHG  1   8   1
M  END
> <ref_mols>
x0098_0

> <original SMILES>
CC(C)(C)N1CC(O)C1

> <Chemgauss4>
-5.541882

> <ref_pdb>
x0354_0

$$$$
x1112
  -OEChem-05172015543D

 11 11  0     0  0  0  0  0  0999 V2000
   13.3423   -0.5070   25.1410 C   0  0  0  0  0  0  0  0  0  0  0  0
   12.4124   -0.0431   23.3026 C   0  0  0  0  0  0  0  0  0  0  0  0
   13.6500   -0.8629   23.6824 C   0  0  0  0  0  0  0  0  0  0  0  0
    9.6687   -0.2085   24.4133 C   0  0  0  0  0  0  0  0  0  0  0  0
   11.2238   -2.1866   24.5760 C   0  0  0  0  0  0  0  0  0  0  0  0
   10.7787   -0.7623   26.6085 C   0  0  0  0  0  0  0  0  0  0  0  0
   10.9156   -0.7799   25.0867 C   0  0  0  0  0  0  0  0  0  0  0  0
   12.0623    0.0922   24.7268 N   0  3  0  0  0  0  0  0  0  0  0  0
   13.6069   -2.2612   23.3454 O   0  0  0  0  0  0  0  0  0  0  0  0
   11.9342    1.0641   25.0367 H   0  0  0  0  0  0  0  0  0  0  0  0
   13.8208   -2.3135   22.4042 H   0  0  0  0  0  0  0  0  0  0  0  0
  1  3  1  0  0  0  0
  1  8  1  0  0  0  0
  2  3  1  0  0  0  0
  2  8  1  0  0  0  0
  3  9  1  0  0  0  0
  4  7  1  0  0  0  0
  5  7  1  0  0  0  0
  6  7  1  0  0  0  0
  7  8  1  0  0  0  0
  8 10  1  0  0  0  0
  9 11  1  0  0  0  0
M  CHG  1   8   1
M  END
> <ref_mols>
x1112_0

> <original SMILES>
CC(C)(C)N1CC(O)C1

> <Chemgauss4>
-5.541882

> <ref_pdb>
x0354_0

$$$$
x0999
  -OEChem-05172015543D

  7  7  0     0  0  0  0  0  0999 V2000
   12.3768   -0.2179   24.1237 C   0  0  0  0  0  0  0  0  0  0  0  0
   12.3298   -0.7343   22.7061 C   0  0  0  0  0  0  0  0  0  0  0  0
   13.5655   -1.6239   22.6230 C   0  0  0  0  0  0  0  0  0  0  0  0
   14.5361   -0.9839   23.5941 C   0  0  0  0  0  0  0  0  0  0  0  0
   13.6762   -0.4000   24.5850 N   0  0  0  0  0  0  0  0  0  0  0  0
   11.4444    0.2982   24.7199 O   0  0  0  0  0  0  0  0  0  0  0  0
   13.9912   -0.0993   25.5020 H   0  0  0  0  0  0  0  0  0  0  0  0
  1  2  1  0  0  0  0
  1  5  1  0  0  0  0
  1  6  2  0  0  0  0
  2  3  1  0  0  0  0
  3  4  1  0  0  0  0
  4  5  1  0  0  0  0
  5  7  1  0  0  0  0
M  END
> <ref_mols>
x0999_0

> <original SMILES>
O=C1CCCN1

> <Chemgauss4>
-5.473995

> <ref_pdb>
x0678_0

$$$$
x2710
  -OEChem-05172015543D

 33 36  0     1  0  0  0  0  0999 V2000
    7.6067   -5.9866   26.6161 C   0  0  0  0  0  0  0  0  0  0  0  0
    8.2836   -5.4376   25.5328 C   0  0  0  0  0  0  0  0  0  0  0  0
    6.4230   -0.1601   22.2556 C   0  0  0  0  0  0  0  0  0  0  0  0
    6.6251   -1.4640   22.7172 C   0  0  0  0  0  0  0  0  0  0  0  0
   12.0697   -1.1888   22.2473 C   0  0  0  0  0  0  0  0  0  0  0  0
   10.7423   -0.2366   24.0272 C   0  0  0  0  0  0  0  0  0  0  0  0
   12.9218   -0.0854   22.2924 C   0  0  0  0  0  0  0  0  0  0  0  0
   11.5944    0.8668   24.0724 C   0  0  0  0  0  0  0  0  0  0  0  0
    7.5357   -2.1241   20.5693 C   0  0  0  0  0  0  0  0  0  0  0  0
    6.2802   -5.6309   26.7999 C   0  0  0  0  0  0  0  0  0  0  0  0
    6.2955   -4.2704   24.9488 C   0  0  0  0  0  0  0  0  0  0  0  0
    7.0719    1.3730   19.1011 C   0  0  0  0  0  0  0  0  0  0  0  0
    7.6227   -4.5621   24.6783 C   0  0  0  0  0  0  0  0  0  0  0  0
    6.7794    0.1774   20.9319 C   0  0  0  0  0  0  0  0  0  0  0  0
   10.9799   -1.2644   23.1147 C   0  0  0  0  0  0  0  0  0  0  0  0
    7.1744   -2.4317   21.8834 C   0  0  0  0  0  0  0  0  0  0  0  0
   12.6841    0.9424   23.2050 C   0  0  0  0  0  0  0  0  0  0  0  0
    7.3300   -0.8124   20.1122 C   0  0  0  0  0  0  0  0  0  0  0  0
    6.2017   -7.2153   22.3381 C   0  0  0  0  0  0  0  0  0  0  0  0
    7.0908   -6.2173   22.3649 C   0  0  0  0  0  0  0  0  0  0  0  0
    6.7490   -4.8885   21.7779 C   0  0  0  0  0  0  0  0  0  0  0  0
    8.9901   -2.6206   23.8545 C   0  0  0  0  0  0  0  0  0  0  0  0
   13.2141    3.0335   24.2062 C   0  0  0  0  0  0  0  0  0  0  0  0
    8.3310   -3.9487   23.4907 C   0  0  2  0  0  0  0  0  0  0  0  0
    5.6048   -4.7839   25.9913 N   0  0  0  0  0  0  0  0  0  0  0  0
    6.6380    1.4235   20.3388 N   0  0  0  0  0  0  0  0  0  0  0  0
   10.1153   -2.3837   23.0689 N   0  0  0  0  0  0  0  0  0  0  0  0
    7.3681   -3.7282   22.3633 N   0  0  0  0  0  0  0  0  0  0  0  0
    5.9428   -4.8393   20.8485 O   0  0  0  0  0  0  0  0  0  0  0  0
    8.5440   -1.9020   24.7450 O   0  0  0  0  0  0  0  0  0  0  0  0
   13.5156    2.0192   23.2491 O   0  0  0  0  0  0  0  0  0  0  0  0
    7.6702   -0.1364   18.5630 S   0  0  0  0  0  0  0  0  0  0  0  0
   10.3424   -3.0993   22.3816 H   0  0  0  0  0  0  0  0  0  0  0  0
  1  2  2  0  0  0  0
  1 10  1  0  0  0  0
  2 13  1  0  0  0  0
  3  4  2  0  0  0  0
  3 14  1  0  0  0  0
  4 16  1  0  0  0  0
  5  7  2  0  0  0  0
  5 15  1  0  0  0  0
  6  8  1  0  0  0  0
  6 15  2  0  0  0  0
  7 17  1  0  0  0  0
  8 17  2  0  0  0  0
  9 16  2  0  0  0  0
  9 18  1  0  0  0  0
 10 25  2  0  0  0  0
 11 13  2  0  0  0  0
 11 25  1  0  0  0  0
 12 26  2  0  0  0  0
 12 32  1  0  0  0  0
 13 24  1  0  0  0  0
 14 18  2  0  0  0  0
 14 26  1  0  0  0  0
 15 27  1  0  0  0  0
 16 28  1  0  0  0  0
 17 31  1  0  0  0  0
 18 32  1  0  0  0  0
 19 20  2  0  0  0  0
 20 21  1  0  0  0  0
 21 28  1  0  0  0  0
 21 29  2  0  0  0  0
 22 24  1  0  0  0  0
 22 27  1  0  0  0  0
 22 30  2  0  0  0  0
 23 31  1  0  0  0  0
 24 28  1  0  0  0  0
 27 33  1  0  0  0  0
M  END
> <ref_mols>
x2710_0

> <original SMILES>
COC=1C=CC(NC(=O)C(N(C(=O)C=C)C=2C=CC=3N=CSC3C2)C=4C=CC=NC4)=CC1

> <Chemgauss4>
-5.472166

> <ref_pdb>
x0759_0

> <CYS145-warhead dist minimum (A)>
6.659909

> <CYS145-warhead dist mean (A)>
10.044459

> <CYS145-warhead dist stddev (A)>
0.7773327

$$$$
x2542
  -OEChem-05172015543D

 33 36  0     1  0  0  0  0  0999 V2000
    7.6067   -5.9866   26.6161 C   0  0  0  0  0  0  0  0  0  0  0  0
    8.2836   -5.4376   25.5328 C   0  0  0  0  0  0  0  0  0  0  0  0
    6.4230   -0.1601   22.2556 C   0  0  0  0  0  0  0  0  0  0  0  0
    6.6251   -1.4640   22.7172 C   0  0  0  0  0  0  0  0  0  0  0  0
   12.0697   -1.1888   22.2473 C   0  0  0  0  0  0  0  0  0  0  0  0
   10.7423   -0.2366   24.0272 C   0  0  0  0  0  0  0  0  0  0  0  0
   12.9218   -0.0854   22.2924 C   0  0  0  0  0  0  0  0  0  0  0  0
   11.5944    0.8668   24.0724 C   0  0  0  0  0  0  0  0  0  0  0  0
    7.5357   -2.1241   20.5693 C   0  0  0  0  0  0  0  0  0  0  0  0
    6.2802   -5.6309   26.7999 C   0  0  0  0  0  0  0  0  0  0  0  0
    6.2955   -4.2704   24.9488 C   0  0  0  0  0  0  0  0  0  0  0  0
    7.0719    1.3730   19.1011 C   0  0  0  0  0  0  0  0  0  0  0  0
    7.6227   -4.5621   24.6783 C   0  0  0  0  0  0  0  0  0  0  0  0
    6.7794    0.1774   20.9319 C   0  0  0  0  0  0  0  0  0  0  0  0
   10.9799   -1.2644   23.1147 C   0  0  0  0  0  0  0  0  0  0  0  0
    7.1744   -2.4317   21.8834 C   0  0  0  0  0  0  0  0  0  0  0  0
   12.6841    0.9424   23.2050 C   0  0  0  0  0  0  0  0  0  0  0  0
    7.3300   -0.8124   20.1122 C   0  0  0  0  0  0  0  0  0  0  0  0
    6.2017   -7.2153   22.3381 C   0  0  0  0  0  0  0  0  0  0  0  0
    7.0908   -6.2173   22.3649 C   0  0  0  0  0  0  0  0  0  0  0  0
    6.7490   -4.8885   21.7779 C   0  0  0  0  0  0  0  0  0  0  0  0
    8.9901   -2.6206   23.8545 C   0  0  0  0  0  0  0  0  0  0  0  0
   13.2141    3.0335   24.2062 C   0  0  0  0  0  0  0  0  0  0  0  0
    8.3310   -3.9487   23.4907 C   0  0  2  0  0  0  0  0  0  0  0  0
    5.6048   -4.7839   25.9913 N   0  0  0  0  0  0  0  0  0  0  0  0
    6.6380    1.4235   20.3388 N   0  0  0  0  0  0  0  0  0  0  0  0
   10.1153   -2.3837   23.0689 N   0  0  0  0  0  0  0  0  0  0  0  0
    7.3681   -3.7282   22.3633 N   0  0  0  0  0  0  0  0  0  0  0  0
    5.9428   -4.8393   20.8485 O   0  0  0  0  0  0  0  0  0  0  0  0
    8.5440   -1.9020   24.7450 O   0  0  0  0  0  0  0  0  0  0  0  0
   13.5156    2.0192   23.2491 O   0  0  0  0  0  0  0  0  0  0  0  0
    7.6702   -0.1364   18.5630 S   0  0  0  0  0  0  0  0  0  0  0  0
   10.3424   -3.0993   22.3816 H   0  0  0  0  0  0  0  0  0  0  0  0
  1  2  2  0  0  0  0
  1 10  1  0  0  0  0
  2 13  1  0  0  0  0
  3  4  2  0  0  0  0
  3 14  1  0  0  0  0
  4 16  1  0  0  0  0
  5  7  2  0  0  0  0
  5 15  1  0  0  0  0
  6  8  1  0  0  0  0
  6 15  2  0  0  0  0
  7 17  1  0  0  0  0
  8 17  2  0  0  0  0
  9 16  2  0  0  0  0
  9 18  1  0  0  0  0
 10 25  2  0  0  0  0
 11 13  2  0  0  0  0
 11 25  1  0  0  0  0
 12 26  2  0  0  0  0
 12 32  1  0  0  0  0
 13 24  1  0  0  0  0
 14 18  2  0  0  0  0
 14 26  1  0  0  0  0
 15 27  1  0  0  0  0
 16 28  1  0  0  0  0
 17 31  1  0  0  0  0
 18 32  1  0  0  0  0
 19 20  2  0  0  0  0
 20 21  1  0  0  0  0
 21 28  1  0  0  0  0
 21 29  2  0  0  0  0
 22 24  1  0  0  0  0
 22 27  1  0  0  0  0
 22 30  2  0  0  0  0
 23 31  1  0  0  0  0
 24 28  1  0  0  0  0
 27 33  1  0  0  0  0
M  END
> <ref_mols>
x2542_0

> <original SMILES>
COC=1C=CC(NC(=O)C(N(C(=O)C=C)C=2C=CC=3N=CSC3C2)C=4C=CC=NC4)=CC1

> <Chemgauss4>
-5.472166

> <ref_pdb>
x0759_0

$$$$
x0834
  -OEChem-05172015543D

 13 13  0     1  0  0  0  0  0999 V2000
    6.6426   -4.4286   21.3786 C   0  0  0  0  0  0  0  0  0  0  0  0
    9.1006   -5.6828   24.0277 C   0  0  0  0  0  0  0  0  0  0  0  0
    8.0944   -5.7580   22.8784 C   0  0  0  0  0  0  0  0  0  0  0  0
    9.9483   -4.4198   23.9717 C   0  0  0  0  0  0  0  0  0  0  0  0
    7.8537   -4.3951   22.2179 C   0  0  2  0  0  0  0  0  0  0  0  0
    7.8153   -3.2450   23.2420 C   0  0  1  0  0  0  0  0  0  0  0  0
    6.6379   -3.3054   24.2197 C   0  0  0  0  0  0  0  0  0  0  0  0
   10.7974   -1.7691   22.6521 C   0  0  0  0  0  0  0  0  0  0  0  0
    5.6892   -4.4549   20.7179 N   0  0  0  0  0  0  0  0  0  0  0  0
    9.0799   -3.2129   24.0557 N   0  0  2  0  0  0  0  0  0  0  0  0
   10.8269   -1.7804   25.2648 O   0  0  0  0  0  0  0  0  0  0  0  0
    8.9051   -0.6564   24.0694 O   0  0  0  0  0  0  0  0  0  0  0  0
    9.8861   -1.7109   24.1717 S   0  0  0  0  0  0  0  0  0  0  0  0
  1  5  1  0  0  0  0
  1  9  3  0  0  0  0
  2  3  1  0  0  0  0
  2  4  1  0  0  0  0
  3  5  1  0  0  0  0
  4 10  1  0  0  0  0
  5  6  1  0  0  0  0
  6  7  1  0  0  0  0
  6 10  1  0  0  0  0
  8 13  1  0  0  0  0
 10 13  1  0  0  0  0
 11 13  2  0  0  0  0
 12 13  2  0  0  0  0
M  END
> <ref_mols>
x0834_0

> <original SMILES>
C[C@H]1N(S(=O)(C)=O)CCC[C@H]1C#N

> <Chemgauss4>
-5.455515

> <ref_pdb>
x0749_0

$$$$
x1037
  -OEChem-05172015543D

  6  5  0     0  0  0  0  0  0999 V2000
    5.8005   -5.1404   22.5350 C   0  0  0  0  0  0  0  0  0  0  0  0
    6.5016   -5.2532   21.2130 C   0  0  0  0  0  0  0  0  0  0  0  0
    6.5556   -5.2927   23.8195 C   0  0  0  0  0  0  0  0  0  0  0  0
    5.7762   -5.1084   20.1861 O   0  5  0  0  0  0  0  0  0  0  0  0
    4.5997   -4.9198   22.4566 O   0  0  0  0  0  0  0  0  0  0  0  0
    7.7441   -5.4816   21.2748 O   0  0  0  0  0  0  0  0  0  0  0  0
  1  2  1  0  0  0  0
  1  3  1  0  0  0  0
  1  5  2  0  0  0  0
  2  4  1  0  0  0  0
  2  6  2  0  0  0  0
M  CHG  1   4  -1
M  END
> <ref_mols>
x1037_0

> <original SMILES>
CC(=O)C(=O)O

> <Chemgauss4>
-5.448891

> <ref_pdb>
x0689_0

$$$$
x1025
  -OEChem-05172015543D

  6  5  0     0  0  0  0  0  0999 V2000
    6.1584   -2.0482   21.0961 O   0  5  0  0  0  0  0  0  0  0  0  0
    7.5956   -2.5839   19.0429 O   0  5  0  0  0  0  0  0  0  0  0  0
    5.4973   -3.9722   19.5373 O   0  0  0  0  0  0  0  0  0  0  0  0
    5.3126   -1.5931   18.7859 O   0  0  0  0  0  0  0  0  0  0  0  0
    6.2156   -2.6356   19.6898 P   0  0  0  0  0  0  0  0  0  0  0  0
    5.2125   -1.7838   17.8288 H   0  0  0  0  0  0  0  0  0  0  0  0
  1  5  1  0  0  0  0
  2  5  1  0  0  0  0
  3  5  2  0  0  0  0
  4  5  1  0  0  0  0
  4  6  1  0  0  0  0
M  CHG  2   1  -1   2  -1
M  END
> <ref_mols>
x1025_0

> <original SMILES>
OP(=O)(O)O

> <Chemgauss4>
-5.408278

> <ref_pdb>
x0397_0

$$$$
x2516
  -OEChem-05172015543D

 32 35  0     1  0  0  0  0  0999 V2000
    7.4468    0.0614   18.3134 C   0  0  0  0  0  0  0  0  0  0  0  0
    8.2206   -0.4537   19.3474 C   0  0  0  0  0  0  0  0  0  0  0  0
   11.7810    0.6414   24.3624 C   0  0  0  0  0  0  0  0  0  0  0  0
   10.4447    0.3392   24.0845 C   0  0  0  0  0  0  0  0  0  0  0  0
    7.9824   -3.5799   25.9557 C   0  0  0  0  0  0  0  0  0  0  0  0
    6.6103   -4.6508   24.2801 C   0  0  0  0  0  0  0  0  0  0  0  0
    7.5095   -4.4752   26.9151 C   0  0  0  0  0  0  0  0  0  0  0  0
    6.1375   -5.5461   25.2394 C   0  0  0  0  0  0  0  0  0  0  0  0
   11.0454   -0.4617   21.8762 C   0  0  0  0  0  0  0  0  0  0  0  0
    6.0686    0.0017   18.4430 C   0  0  0  0  0  0  0  0  0  0  0  0
    6.2162   -1.0169   20.4970 C   0  0  0  0  0  0  0  0  0  0  0  0
   14.7527    0.2860   22.4219 C   0  0  0  0  0  0  0  0  0  0  0  0
    7.6013   -1.0051   20.4636 C   0  0  0  0  0  0  0  0  0  0  0  0
   12.7726    0.3920   23.3890 C   0  0  0  0  0  0  0  0  0  0  0  0
    7.5327   -3.6676   24.6382 C   0  0  0  0  0  0  0  0  0  0  0  0
   10.0839   -0.2051   22.8569 C   0  0  0  0  0  0  0  0  0  0  0  0
   12.3857   -0.1559   22.1621 C   0  0  0  0  0  0  0  0  0  0  0  0
    6.5871   -5.4583   26.5570 C   0  0  0  0  0  0  0  0  0  0  0  0
    7.2312    2.2116   24.5686 C   0  0  0  0  0  0  0  0  0  0  0  0
    7.8937    1.6556   23.5492 C   0  0  0  0  0  0  0  0  0  0  0  0
    7.6480    0.2309   23.1791 C   0  0  0  0  0  0  0  0  0  0  0  0
    7.6741   -2.7035   22.3151 C   0  0  0  0  0  0  0  0  0  0  0  0
    8.4151   -1.5731   21.6053 C   0  0  2  0  0  0  0  0  0  0  0  0
    5.4311   -0.5261   19.5119 N   0  0  0  0  0  0  0  0  0  0  0  0
   14.1311    0.6392   23.5227 N   0  0  0  0  0  0  0  0  0  0  0  0
    8.0128   -2.7596   23.6648 N   0  0  0  0  0  0  0  0  0  0  0  0
    8.7441   -0.4998   22.5987 N   0  0  0  0  0  0  0  0  0  0  0  0
    6.5264   -0.2446   23.3587 O   0  0  0  0  0  0  0  0  0  0  0  0
    6.8994   -3.4434   21.7147 O   0  0  0  0  0  0  0  0  0  0  0  0
   13.7809   -0.3559   21.1691 S   0  0  0  0  0  0  0  0  0  0  0  0
    6.0037   -6.5631   27.7410 Cl  0  0  0  0  0  0  0  0  0  0  0  0
    8.6841   -2.0665   23.9889 H   0  0  0  0  0  0  0  0  0  0  0  0
  1  2  2  0  0  0  0
  1 10  1  0  0  0  0
  2 13  1  0  0  0  0
  3  4  2  0  0  0  0
  3 14  1  0  0  0  0
  4 16  1  0  0  0  0
  5  7  2  0  0  0  0
  5 15  1  0  0  0  0
  6  8  1  0  0  0  0
  6 15  2  0  0  0  0
  7 18  1  0  0  0  0
  8 18  2  0  0  0  0
  9 16  2  0  0  0  0
  9 17  1  0  0  0  0
 10 24  2  0  0  0  0
 11 13  2  0  0  0  0
 11 24  1  0  0  0  0
 12 25  2  0  0  0  0
 12 30  1  0  0  0  0
 13 23  1  0  0  0  0
 14 17  2  0  0  0  0
 14 25  1  0  0  0  0
 15 26  1  0  0  0  0
 16 27  1  0  0  0  0
 17 30  1  0  0  0  0
 18 31  1  0  0  0  0
 19 20  2  0  0  0  0
 20 21  1  0  0  0  0
 21 27  1  0  0  0  0
 21 28  2  0  0  0  0
 22 23  1  0  0  0  0
 22 26  1  0  0  0  0
 22 29  2  0  0  0  0
 23 27  1  0  0  0  0
 26 32  1  0  0  0  0
M  END
> <ref_mols>
x2516_0

> <original SMILES>
ClC=1C=CC(NC(=O)C(N(C(=O)C=C)C=2C=CC=3N=CSC3C2)C=4C=CC=NC4)=CC1

> <Chemgauss4>
-5.381918

> <ref_pdb>
x1392_0

$$$$
x2684
  -OEChem-05172015543D

 32 35  0     1  0  0  0  0  0999 V2000
    7.4468    0.0614   18.3134 C   0  0  0  0  0  0  0  0  0  0  0  0
    8.2206   -0.4537   19.3474 C   0  0  0  0  0  0  0  0  0  0  0  0
   11.7810    0.6414   24.3624 C   0  0  0  0  0  0  0  0  0  0  0  0
   10.4447    0.3392   24.0845 C   0  0  0  0  0  0  0  0  0  0  0  0
    7.9824   -3.5799   25.9557 C   0  0  0  0  0  0  0  0  0  0  0  0
    6.6103   -4.6508   24.2801 C   0  0  0  0  0  0  0  0  0  0  0  0
    7.5095   -4.4752   26.9151 C   0  0  0  0  0  0  0  0  0  0  0  0
    6.1375   -5.5461   25.2394 C   0  0  0  0  0  0  0  0  0  0  0  0
   11.0454   -0.4617   21.8762 C   0  0  0  0  0  0  0  0  0  0  0  0
    6.0686    0.0017   18.4430 C   0  0  0  0  0  0  0  0  0  0  0  0
    6.2162   -1.0169   20.4970 C   0  0  0  0  0  0  0  0  0  0  0  0
   14.7527    0.2860   22.4219 C   0  0  0  0  0  0  0  0  0  0  0  0
    7.6013   -1.0051   20.4636 C   0  0  0  0  0  0  0  0  0  0  0  0
   12.7726    0.3920   23.3890 C   0  0  0  0  0  0  0  0  0  0  0  0
    7.5327   -3.6676   24.6382 C   0  0  0  0  0  0  0  0  0  0  0  0
   10.0839   -0.2051   22.8569 C   0  0  0  0  0  0  0  0  0  0  0  0
   12.3857   -0.1559   22.1621 C   0  0  0  0  0  0  0  0  0  0  0  0
    6.5871   -5.4583   26.5570 C   0  0  0  0  0  0  0  0  0  0  0  0
    7.2312    2.2116   24.5686 C   0  0  0  0  0  0  0  0  0  0  0  0
    7.8937    1.6556   23.5492 C   0  0  0  0  0  0  0  0  0  0  0  0
    7.6480    0.2309   23.1791 C   0  0  0  0  0  0  0  0  0  0  0  0
    7.6741   -2.7035   22.3151 C   0  0  0  0  0  0  0  0  0  0  0  0
    8.4151   -1.5731   21.6053 C   0  0  2  0  0  0  0  0  0  0  0  0
    5.4311   -0.5261   19.5119 N   0  0  0  0  0  0  0  0  0  0  0  0
   14.1311    0.6392   23.5227 N   0  0  0  0  0  0  0  0  0  0  0  0
    8.0128   -2.7596   23.6648 N   0  0  0  0  0  0  0  0  0  0  0  0
    8.7441   -0.4998   22.5987 N   0  0  0  0  0  0  0  0  0  0  0  0
    6.5264   -0.2446   23.3587 O   0  0  0  0  0  0  0  0  0  0  0  0
    6.8994   -3.4434   21.7147 O   0  0  0  0  0  0  0  0  0  0  0  0
   13.7809   -0.3559   21.1691 S   0  0  0  0  0  0  0  0  0  0  0  0
    6.0037   -6.5631   27.7410 Cl  0  0  0  0  0  0  0  0  0  0  0  0
    8.6841   -2.0665   23.9889 H   0  0  0  0  0  0  0  0  0  0  0  0
  1  2  2  0  0  0  0
  1 10  1  0  0  0  0
  2 13  1  0  0  0  0
  3  4  2  0  0  0  0
  3 14  1  0  0  0  0
  4 16  1  0  0  0  0
  5  7  2  0  0  0  0
  5 15  1  0  0  0  0
  6  8  1  0  0  0  0
  6 15  2  0  0  0  0
  7 18  1  0  0  0  0
  8 18  2  0  0  0  0
  9 16  2  0  0  0  0
  9 17  1  0  0  0  0
 10 24  2  0  0  0  0
 11 13  2  0  0  0  0
 11 24  1  0  0  0  0
 12 25  2  0  0  0  0
 12 30  1  0  0  0  0
 13 23  1  0  0  0  0
 14 17  2  0  0  0  0
 14 25  1  0  0  0  0
 15 26  1  0  0  0  0
 16 27  1  0  0  0  0
 17 30  1  0  0  0  0
 18 31  1  0  0  0  0
 19 20  2  0  0  0  0
 20 21  1  0  0  0  0
 21 27  1  0  0  0  0
 21 28  2  0  0  0  0
 22 23  1  0  0  0  0
 22 26  1  0  0  0  0
 22 29  2  0  0  0  0
 23 27  1  0  0  0  0
 26 32  1  0  0  0  0
M  END
> <ref_mols>
x2684_0

> <original SMILES>
ClC=1C=CC(NC(=O)C(N(C(=O)C=C)C=2C=CC=3N=CSC3C2)C=4C=CC=NC4)=CC1

> <Chemgauss4>
-5.381918

> <ref_pdb>
x1392_0

> <CYS145-warhead dist minimum (A)>
4.1139145

> <CYS145-warhead dist mean (A)>
5.547464

> <CYS145-warhead dist stddev (A)>
0.49707884

$$$$
x2862
  -OEChem-05172015543D

 34 37  0     1  0  0  0  0  0999 V2000
    6.8427   -4.8804   30.2690 C   0  0  0  0  0  0  0  0  0  0  0  0
    6.5298   -6.0160   21.5946 C   0  0  0  0  0  0  0  0  0  0  0  0
    8.1737   -1.8527   20.2286 C   0  0  0  0  0  0  0  0  0  0  0  0
    6.5445   -1.1032   21.8475 C   0  0  0  0  0  0  0  0  0  0  0  0
    6.3674   -3.6118   30.6010 C   0  0  0  0  0  0  0  0  0  0  0  0
    7.5560   -5.4592   22.3497 C   0  0  0  0  0  0  0  0  0  0  0  0
    7.2968   -5.1386   28.9756 C   0  0  0  0  0  0  0  0  0  0  0  0
    8.8633   -2.5283   21.2353 C   0  0  0  0  0  0  0  0  0  0  0  0
    7.2341   -1.7790   22.8543 C   0  0  0  0  0  0  0  0  0  0  0  0
    6.8001   -2.8595   28.3462 C   0  0  0  0  0  0  0  0  0  0  0  0
    5.2336   -5.8873   22.0670 C   0  0  0  0  0  0  0  0  0  0  0  0
    5.9300   -4.7256   23.9226 C   0  0  0  0  0  0  0  0  0  0  0  0
    7.0143   -1.1401   20.5347 C   0  0  0  0  0  0  0  0  0  0  0  0
    6.3461   -2.6014   29.6397 C   0  0  0  0  0  0  0  0  0  0  0  0
    7.2589   -4.8001   23.5373 C   0  0  0  0  0  0  0  0  0  0  0  0
    8.3935   -2.4915   22.5481 C   0  0  0  0  0  0  0  0  0  0  0  0
    7.2754   -4.1282   28.0142 C   0  0  0  0  0  0  0  0  0  0  0  0
   12.3470   -3.9000   25.0885 C   0  0  0  0  0  0  0  0  0  0  0  0
   11.0379   -3.6313   25.0552 C   0  0  0  0  0  0  0  0  0  0  0  0
   10.4516   -2.8846   23.9037 C   0  0  0  0  0  0  0  0  0  0  0  0
    7.7866   -3.5068   25.6270 C   0  0  0  0  0  0  0  0  0  0  0  0
    7.0159    0.6684   18.6984 C   0  0  0  0  0  0  0  0  0  0  0  0
    5.9534    1.0482   19.6817 C   0  0  0  0  0  0  0  0  0  0  0  0
    6.2775   -0.4181   19.4593 C   0  0  0  0  0  0  0  0  0  0  0  0
    5.2800   -1.2505   18.7025 C   0  0  0  0  0  0  0  0  0  0  0  0
    6.9428   -0.3282   30.5134 C   0  0  0  0  0  0  0  0  0  0  0  0
    5.8378   -1.2453   29.9952 C   0  0  0  0  0  0  0  0  0  0  0  0
    8.3526   -4.1832   24.3810 C   0  0  2  0  0  0  0  0  0  0  0  0
    4.9061   -5.2542   23.2156 N   0  0  0  0  0  0  0  0  0  0  0  0
    7.7368   -4.3903   26.7023 N   0  0  0  0  0  0  0  0  0  0  0  0
    9.1117   -3.1950   23.5966 N   0  0  0  0  0  0  0  0  0  0  0  0
   11.1556   -2.0739   23.3010 O   0  0  0  0  0  0  0  0  0  0  0  0
    7.4269   -2.3325   25.6161 O   0  0  0  0  0  0  0  0  0  0  0  0
    8.0713   -5.3349   26.5238 H   0  0  0  0  0  0  0  0  0  0  0  0
  1  5  2  0  0  0  0
  1  7  1  0  0  0  0
  2  6  2  0  0  0  0
  2 11  1  0  0  0  0
  3  8  2  0  0  0  0
  3 13  1  0  0  0  0
  4  9  1  0  0  0  0
  4 13  2  0  0  0  0
  5 14  1  0  0  0  0
  6 15  1  0  0  0  0
  7 17  2  0  0  0  0
  8 16  1  0  0  0  0
  9 16  2  0  0  0  0
 10 14  2  0  0  0  0
 10 17  1  0  0  0  0
 11 29  2  0  0  0  0
 12 15  2  0  0  0  0
 12 29  1  0  0  0  0
 13 24  1  0  0  0  0
 14 27  1  0  0  0  0
 15 28  1  0  0  0  0
 16 31  1  0  0  0  0
 17 30  1  0  0  0  0
 18 19  2  0  0  0  0
 19 20  1  0  0  0  0
 20 31  1  0  0  0  0
 20 32  2  0  0  0  0
 21 28  1  0  0  0  0
 21 30  1  0  0  0  0
 21 33  2  0  0  0  0
 22 23  1  0  0  0  0
 22 24  1  0  0  0  0
 23 24  1  0  0  0  0
 24 25  1  0  0  0  0
 26 27  1  0  0  0  0
 28 31  1  0  0  0  0
 30 34  1  0  0  0  0
M  END
> <ref_mols>
x2862_0

> <original SMILES>
CCC=1C=CC=C(NC(=O)C(N(C(=O)C=C)C=2C=CC(=CC2)C3(C)CC3)C=4C=CC=NC4)C1

> <Chemgauss4>
-5.348599

> <ref_pdb>
x1380_0

> <CYS145-warhead dist minimum (A)>
4.822909

> <CYS145-warhead dist mean (A)>
8.819795

> <CYS145-warhead dist stddev (A)>
0.9051045

$$$$
x1038
  -OEChem-05172015543D

 11 10  0     1  0  0  0  0  0999 V2000
    6.7312   -2.4793   19.3716 C   0  0  0  0  0  0  0  0  0  0  0  0
    6.7045   -0.1674   18.3961 C   0  0  0  0  0  0  0  0  0  0  0  0
    6.3412   -3.7682   21.4552 C   0  0  0  0  0  0  0  0  0  0  0  0
    7.5714   -1.3457   18.8117 C   0  0  1  0  0  0  0  0  0  0  0  0
    7.0168   -2.7366   20.7042 N   0  0  0  0  0  0  0  0  0  0  0  0
    8.5475   -0.8687   19.8318 N   0  3  0  0  0  0  0  0  0  0  0  0
    5.8960   -3.0831   18.7020 O   0  0  0  0  0  0  0  0  0  0  0  0
    7.7274   -2.1789   21.1688 H   0  0  0  0  0  0  0  0  0  0  0  0
    9.2357   -0.2423   19.4065 H   0  0  0  0  0  0  0  0  0  0  0  0
    9.0465   -1.6587   20.2491 H   0  0  0  0  0  0  0  0  0  0  0  0
    8.0679   -0.3600   20.5790 H   0  0  0  0  0  0  0  0  0  0  0  0
  1  4  1  0  0  0  0
  1  5  1  0  0  0  0
  1  7  2  0  0  0  0
  2  4  1  0  0  0  0
  3  5  1  0  0  0  0
  4  6  1  0  0  0  0
  5  8  1  0  0  0  0
  6  9  1  0  0  0  0
  6 10  1  0  0  0  0
  6 11  1  0  0  0  0
M  CHG  1   6   1
M  END
> <ref_mols>
x1038_0

> <original SMILES>
Cl.CNC(=O)[C@@H](C)N

> <Chemgauss4>
-5.331532

> <ref_pdb>
x0397_0

$$$$
x1026
  -OEChem-05172015543D

 10  9  0     0  0  0  0  0  0999 V2000
   10.6745   -0.8571   25.5660 C   0  0  0  0  0  0  0  0  0  0  0  0
   12.6171   -1.6731   23.4024 C   0  0  0  0  0  0  0  0  0  0  0  0
   13.5609   -1.7214   25.7376 C   0  0  0  0  0  0  0  0  0  0  0  0
   12.9862   -0.8516   24.6291 C   0  0  0  0  0  0  0  0  0  0  0  0
    9.6852    0.0132   25.9871 N   0  0  0  0  0  0  0  0  0  0  0  0
   11.7733   -0.1654   25.1371 N   0  0  0  0  0  0  0  0  0  0  0  0
   10.5416   -2.0795   25.5907 O   0  0  0  0  0  0  0  0  0  0  0  0
    9.8126    1.0191   25.9582 H   0  0  0  0  0  0  0  0  0  0  0  0
    8.7975   -0.3309   26.3378 H   0  0  0  0  0  0  0  0  0  0  0  0
   11.7587    0.8317   25.1667 H   0  0  0  0  0  0  0  0  0  0  0  0
  1  5  1  0  0  0  0
  1  6  1  0  0  0  0
  1  7  2  0  0  0  0
  2  4  1  0  0  0  0
  3  4  1  0  0  0  0
  4  6  1  0  0  0  0
  5  8  1  0  0  0  0
  5  9  1  0  0  0  0
  6 10  1  0  0  0  0
M  END
> <ref_mols>
x1026_0

> <original SMILES>
CC(C)NC(=O)N

> <Chemgauss4>
-5.303004

> <ref_pdb>
x0354_0

$$$$
x0267
  -OEChem-05172015543D

 10 10  0     0  0  0  0  0  0999 V2000
    6.8875   -3.1744   21.6622 C   0  0  0  0  0  0  0  0  0  0  0  0
   10.5871   -1.7147   22.8630 C   0  0  0  0  0  0  0  0  0  0  0  0
   10.1119   -2.8729   23.4681 C   0  0  0  0  0  0  0  0  0  0  0  0
    9.7961   -1.1175   21.8948 C   0  0  0  0  0  0  0  0  0  0  0  0
    8.1632   -2.7187   22.1135 C   0  0  0  0  0  0  0  0  0  0  0  0
    8.8777   -3.3911   23.0918 C   0  0  0  0  0  0  0  0  0  0  0  0
    9.2350   -5.1279   24.6766 C   0  0  0  0  0  0  0  0  0  0  0  0
    5.8507   -3.5447   21.2953 N   0  0  0  0  0  0  0  0  0  0  0  0
    8.5921   -1.5913   21.5030 N   0  0  0  0  0  0  0  0  0  0  0  0
    8.4100   -4.5223   23.6806 O   0  0  0  0  0  0  0  0  0  0  0  0
  1  5  1  0  0  0  0
  1  8  3  0  0  0  0
  2  3  2  0  0  0  0
  2  4  1  0  0  0  0
  3  6  1  0  0  0  0
  4  9  2  0  0  0  0
  5  6  2  0  0  0  0
  5  9  1  0  0  0  0
  6 10  1  0  0  0  0
  7 10  1  0  0  0  0
M  END
> <ref_mols>
x0267_0

> <original SMILES>
COC=1C=CC=NC1C#N

> <Chemgauss4>
-5.295153

> <ref_pdb>
x1392_0

> <CYS145-warhead dist minimum (A)>
6.572259

> <CYS145-warhead dist mean (A)>
8.329918

> <CYS145-warhead dist stddev (A)>
0.33279294

$$$$
x1020
  -OEChem-05172015543D

 12 11  0     1  0  0  0  0  0999 V2000
    6.4514   -2.3446   19.4697 C   0  0  0  0  0  0  0  0  0  0  0  0
    5.9362    0.5588   20.0706 C   0  0  0  0  0  0  0  0  0  0  0  0
    7.3511   -1.2251   18.9752 C   0  0  0  0  0  0  0  0  0  0  0  0
    6.6267    0.1083   18.7910 C   0  0  1  0  0  0  0  0  0  0  0  0
    6.4766   -2.4682   20.8426 N   0  0  0  0  0  0  0  0  0  0  0  0
    5.5825   -0.0468   17.7367 N   0  3  0  0  0  0  0  0  0  0  0  0
    5.7857   -3.0668   18.7335 O   0  0  0  0  0  0  0  0  0  0  0  0
    7.0578   -1.8420   21.3907 H   0  0  0  0  0  0  0  0  0  0  0  0
    5.9225   -3.1761   21.3128 H   0  0  0  0  0  0  0  0  0  0  0  0
    5.8160   -0.8220   17.1121 H   0  0  0  0  0  0  0  0  0  0  0  0
    5.5081    0.8068   17.1782 H   0  0  0  0  0  0  0  0  0  0  0  0
    4.6710   -0.2363   18.1601 H   0  0  0  0  0  0  0  0  0  0  0  0
  1  3  1  0  0  0  0
  1  5  1  0  0  0  0
  1  7  2  0  0  0  0
  2  4  1  0  0  0  0
  3  4  1  0  0  0  0
  4  6  1  0  0  0  0
  5  8  1  0  0  0  0
  5  9  1  0  0  0  0
  6 10  1  0  0  0  0
  6 11  1  0  0  0  0
  6 12  1  0  0  0  0
M  CHG  1   6   1
M  END
> <ref_mols>
x1020_0

> <original SMILES>
Cl.CC(N)CC(=O)N

> <Chemgauss4>
-5.280088

> <ref_pdb>
x0397_0

$$$$
x1010
  -OEChem-05172015543D

 10  9  0     0  0  0  0  0  0999 V2000
    6.4414   -2.3465   19.2002 C   0  0  0  0  0  0  0  0  0  0  0  0
    6.2744   -3.1390   21.5393 C   0  0  0  0  0  0  0  0  0  0  0  0
    7.2975   -1.4675   18.3255 C   0  0  0  0  0  0  0  0  0  0  0  0
    6.9438   -2.9976   22.7426 N   0  0  0  0  0  0  0  0  0  0  0  0
    6.8846   -2.4031   20.5185 N   0  0  0  0  0  0  0  0  0  0  0  0
    5.4583   -2.9306   18.7494 O   0  0  0  0  0  0  0  0  0  0  0  0
    5.2675   -3.8332   21.4121 O   0  0  0  0  0  0  0  0  0  0  0  0
    7.7694   -2.4093   22.7821 H   0  0  0  0  0  0  0  0  0  0  0  0
    6.6312   -3.4665   23.5861 H   0  0  0  0  0  0  0  0  0  0  0  0
    7.7150   -1.8756   20.7733 H   0  0  0  0  0  0  0  0  0  0  0  0
  1  3  1  0  0  0  0
  1  5  1  0  0  0  0
  1  6  2  0  0  0  0
  2  4  1  0  0  0  0
  2  5  1  0  0  0  0
  2  7  2  0  0  0  0
  4  8  1  0  0  0  0
  4  9  1  0  0  0  0
  5 10  1  0  0  0  0
M  END
> <ref_mols>
x1010_0

> <original SMILES>
CC(=O)NC(=O)N

> <Chemgauss4>
-5.225040

> <ref_pdb>
x0397_0

$$$$
x1043
  -OEChem-05172015543D

  8  8  0     0  0  0  0  0  0999 V2000
    7.3133   -1.3676   18.7415 C   0  0  0  0  0  0  0  0  0  0  0  0
    7.5547   -2.8299   20.2065 C   0  0  0  0  0  0  0  0  0  0  0  0
    6.3141   -2.1911   19.5660 C   0  0  0  0  0  0  0  0  0  0  0  0
    8.3399   -1.6741   19.7487 N   0  3  0  0  0  0  0  0  0  0  0  0
    5.4538   -3.0701   18.8238 O   0  0  0  0  0  0  0  0  0  0  0  0
    9.2605   -1.9111   19.3600 H   0  0  0  0  0  0  0  0  0  0  0  0
    8.4449   -0.9414   20.4627 H   0  0  0  0  0  0  0  0  0  0  0  0
    4.8944   -3.5085   19.4789 H   0  0  0  0  0  0  0  0  0  0  0  0
  1  3  1  0  0  0  0
  1  4  1  0  0  0  0
  2  3  1  0  0  0  0
  2  4  1  0  0  0  0
  3  5  1  0  0  0  0
  4  6  1  0  0  0  0
  4  7  1  0  0  0  0
  5  8  1  0  0  0  0
M  CHG  1   4   1
M  END
> <ref_mols>
x1043_0

> <original SMILES>
Cl.OC1CNC1

> <Chemgauss4>
-5.178344

> <ref_pdb>
x0397_0

$$$$
x2534
  -OEChem-05172015543D

 34 36  0     1  0  0  0  0  0999 V2000
   12.4824    1.4536   24.2078 C   0  0  0  0  0  0  0  0  0  0  0  0
    4.3740    0.7910   20.9756 C   0  0  0  0  0  0  0  0  0  0  0  0
   13.3984    0.8974   23.3149 C   0  0  0  0  0  0  0  0  0  0  0  0
    5.0697   -0.1374   21.7420 C   0  0  0  0  0  0  0  0  0  0  0  0
    7.5743   -4.1229   25.4999 C   0  0  0  0  0  0  0  0  0  0  0  0
    6.5305   -5.7800   24.0852 C   0  0  0  0  0  0  0  0  0  0  0  0
   11.1363    1.0941   24.1405 C   0  0  0  0  0  0  0  0  0  0  0  0
    7.4768   -3.1844   24.4726 C   0  0  0  0  0  0  0  0  0  0  0  0
    6.4329   -4.8415   23.0579 C   0  0  0  0  0  0  0  0  0  0  0  0
   11.6221   -0.3777   22.2871 C   0  0  0  0  0  0  0  0  0  0  0  0
    5.1061    1.6327   20.1539 C   0  0  0  0  0  0  0  0  0  0  0  0
    7.0957    0.6908   20.8116 C   0  0  0  0  0  0  0  0  0  0  0  0
    7.1012   -5.4207   25.3062 C   0  0  0  0  0  0  0  0  0  0  0  0
   12.9682   -0.0182   22.3546 C   0  0  0  0  0  0  0  0  0  0  0  0
    6.4568   -0.1949   21.6643 C   0  0  0  0  0  0  0  0  0  0  0  0
    6.9061   -3.5437   23.2516 C   0  0  0  0  0  0  0  0  0  0  0  0
   10.7062    0.1785   23.1801 C   0  0  0  0  0  0  0  0  0  0  0  0
    5.9047   -1.8668   18.7333 C   0  0  0  0  0  0  0  0  0  0  0  0
    6.7123   -2.0952   19.7739 C   0  0  0  0  0  0  0  0  0  0  0  0
    6.2329   -2.8983   20.9369 C   0  0  0  0  0  0  0  0  0  0  0  0
    8.7425   -1.0776   22.2251 C   0  0  0  0  0  0  0  0  0  0  0  0
   14.5669   -1.9028   21.9316 C   0  0  0  0  0  0  0  0  0  0  0  0
    7.9964   -7.6703   26.0037 C   0  0  0  0  0  0  0  0  0  0  0  0
    5.2872   -5.8821   27.6492 C   0  0  0  0  0  0  0  0  0  0  0  0
   13.9478   -0.6125   21.4002 C   0  0  0  0  0  0  0  0  0  0  0  0
    7.2426   -1.1939   22.4847 C   0  0  2  0  0  0  0  0  0  0  0  0
    7.2055   -6.4241   26.4046 C   0  0  2  0  0  0  0  0  0  0  0  0
    6.4539    1.6064   20.0517 N   0  0  0  0  0  0  0  0  0  0  0  0
    9.3406   -0.1865   23.1125 N   0  0  0  0  0  0  0  0  0  0  0  0
    6.8041   -2.5664   22.1817 N   0  0  0  0  0  0  0  0  0  0  0  0
    5.3999   -3.7843   20.7440 O   0  0  0  0  0  0  0  0  0  0  0  0
    9.2917   -1.7070   21.3248 O   0  0  0  0  0  0  0  0  0  0  0  0
    5.8886   -6.8350   26.7897 O   0  0  0  0  0  0  0  0  0  0  0  0
    8.7235    0.2538   23.7917 H   0  0  0  0  0  0  0  0  0  0  0  0
  1  3  2  0  0  0  0
  1  7  1  0  0  0  0
  2  4  2  0  0  0  0
  2 11  1  0  0  0  0
  3 14  1  0  0  0  0
  4 15  1  0  0  0  0
  5  8  2  0  0  0  0
  5 13  1  0  0  0  0
  6  9  1  0  0  0  0
  6 13  2  0  0  0  0
  7 17  2  0  0  0  0
  8 16  1  0  0  0  0
  9 16  2  0  0  0  0
 10 14  2  0  0  0  0
 10 17  1  0  0  0  0
 11 28  2  0  0  0  0
 12 15  2  0  0  0  0
 12 28  1  0  0  0  0
 13 27  1  0  0  0  0
 14 25  1  0  0  0  0
 15 26  1  0  0  0  0
 16 30  1  0  0  0  0
 17 29  1  0  0  0  0
 18 19  2  0  0  0  0
 19 20  1  0  0  0  0
 20 30  1  0  0  0  0
 20 31  2  0  0  0  0
 21 26  1  0  0  0  0
 21 29  1  0  0  0  0
 21 32  2  0  0  0  0
 22 25  1  0  0  0  0
 23 27  1  0  0  0  0
 24 33  1  0  0  0  0
 26 30  1  0  0  0  0
 27 33  1  0  0  0  0
 29 34  1  0  0  0  0
M  END
> <ref_mols>
x2534_0

> <original SMILES>
CCC=1C=CC=C(NC(=O)C(N(C(=O)C=C)C=2C=CC(=CC2)C(C)OC)C=3C=CC=NC3)C1

> <Chemgauss4>
-5.173100

> <ref_pdb>
x0831_0

$$$$
x2702
  -OEChem-05172015543D

 34 36  0     1  0  0  0  0  0999 V2000
   12.4824    1.4536   24.2078 C   0  0  0  0  0  0  0  0  0  0  0  0
    4.3740    0.7910   20.9756 C   0  0  0  0  0  0  0  0  0  0  0  0
   13.3984    0.8974   23.3149 C   0  0  0  0  0  0  0  0  0  0  0  0
    5.0697   -0.1374   21.7420 C   0  0  0  0  0  0  0  0  0  0  0  0
    7.5743   -4.1229   25.4999 C   0  0  0  0  0  0  0  0  0  0  0  0
    6.5305   -5.7800   24.0852 C   0  0  0  0  0  0  0  0  0  0  0  0
   11.1363    1.0941   24.1405 C   0  0  0  0  0  0  0  0  0  0  0  0
    7.4768   -3.1844   24.4726 C   0  0  0  0  0  0  0  0  0  0  0  0
    6.4329   -4.8415   23.0579 C   0  0  0  0  0  0  0  0  0  0  0  0
   11.6221   -0.3777   22.2871 C   0  0  0  0  0  0  0  0  0  0  0  0
    5.1061    1.6327   20.1539 C   0  0  0  0  0  0  0  0  0  0  0  0
    7.0957    0.6908   20.8116 C   0  0  0  0  0  0  0  0  0  0  0  0
    7.1012   -5.4207   25.3062 C   0  0  0  0  0  0  0  0  0  0  0  0
   12.9682   -0.0182   22.3546 C   0  0  0  0  0  0  0  0  0  0  0  0
    6.4568   -0.1949   21.6643 C   0  0  0  0  0  0  0  0  0  0  0  0
    6.9061   -3.5437   23.2516 C   0  0  0  0  0  0  0  0  0  0  0  0
   10.7062    0.1785   23.1801 C   0  0  0  0  0  0  0  0  0  0  0  0
    5.9047   -1.8668   18.7333 C   0  0  0  0  0  0  0  0  0  0  0  0
    6.7123   -2.0952   19.7739 C   0  0  0  0  0  0  0  0  0  0  0  0
    6.2329   -2.8983   20.9369 C   0  0  0  0  0  0  0  0  0  0  0  0
    8.7425   -1.0776   22.2251 C   0  0  0  0  0  0  0  0  0  0  0  0
   14.5669   -1.9028   21.9316 C   0  0  0  0  0  0  0  0  0  0  0  0
    7.9964   -7.6703   26.0037 C   0  0  0  0  0  0  0  0  0  0  0  0
    5.2872   -5.8821   27.6492 C   0  0  0  0  0  0  0  0  0  0  0  0
   13.9478   -0.6125   21.4002 C   0  0  0  0  0  0  0  0  0  0  0  0
    7.2426   -1.1939   22.4847 C   0  0  2  0  0  0  0  0  0  0  0  0
    7.2055   -6.4241   26.4046 C   0  0  2  0  0  0  0  0  0  0  0  0
    6.4539    1.6064   20.0517 N   0  0  0  0  0  0  0  0  0  0  0  0
    9.3406   -0.1865   23.1125 N   0  0  0  0  0  0  0  0  0  0  0  0
    6.8041   -2.5664   22.1817 N   0  0  0  0  0  0  0  0  0  0  0  0
    5.3999   -3.7843   20.7440 O   0  0  0  0  0  0  0  0  0  0  0  0
    9.2917   -1.7070   21.3248 O   0  0  0  0  0  0  0  0  0  0  0  0
    5.8886   -6.8350   26.7897 O   0  0  0  0  0  0  0  0  0  0  0  0
    8.7235    0.2538   23.7917 H   0  0  0  0  0  0  0  0  0  0  0  0
  1  3  2  0  0  0  0
  1  7  1  0  0  0  0
  2  4  2  0  0  0  0
  2 11  1  0  0  0  0
  3 14  1  0  0  0  0
  4 15  1  0  0  0  0
  5  8  2  0  0  0  0
  5 13  1  0  0  0  0
  6  9  1  0  0  0  0
  6 13  2  0  0  0  0
  7 17  2  0  0  0  0
  8 16  1  0  0  0  0
  9 16  2  0  0  0  0
 10 14  2  0  0  0  0
 10 17  1  0  0  0  0
 11 28  2  0  0  0  0
 12 15  2  0  0  0  0
 12 28  1  0  0  0  0
 13 27  1  0  0  0  0
 14 25  1  0  0  0  0
 15 26  1  0  0  0  0
 16 30  1  0  0  0  0
 17 29  1  0  0  0  0
 18 19  2  0  0  0  0
 19 20  1  0  0  0  0
 20 30  1  0  0  0  0
 20 31  2  0  0  0  0
 21 26  1  0  0  0  0
 21 29  1  0  0  0  0
 21 32  2  0  0  0  0
 22 25  1  0  0  0  0
 23 27  1  0  0  0  0
 24 33  1  0  0  0  0
 26 30  1  0  0  0  0
 27 33  1  0  0  0  0
 29 34  1  0  0  0  0
M  END
> <ref_mols>
x2702_0

> <original SMILES>
CCC=1C=CC=C(NC(=O)C(N(C(=O)C=C)C=2C=CC(=CC2)C(C)OC)C=3C=CC=NC3)C1

> <Chemgauss4>
-5.173100

> <ref_pdb>
x0831_0

> <CYS145-warhead dist minimum (A)>
6.1759605

> <CYS145-warhead dist mean (A)>
7.89814

> <CYS145-warhead dist stddev (A)>
0.44266653

$$$$
x1044
  -OEChem-05172015543D

  8  7  0     1  0  0  0  0  0999 V2000
   10.2894   -3.4597   24.0205 C   0  0  0  0  0  0  0  0  0  0  0  0
    9.6100   -4.4202   24.2608 C   0  0  0  0  0  0  0  0  0  0  0  0
    7.3844   -5.2012   25.0092 C   0  0  0  0  0  0  0  0  0  0  0  0
    8.7791   -5.5939   24.5483 C   0  0  2  0  0  0  0  0  0  0  0  0
    9.4224   -6.3927   25.6286 N   0  3  0  0  0  0  0  0  0  0  0  0
    8.9490   -7.2929   25.7425 H   0  0  0  0  0  0  0  0  0  0  0  0
    9.3797   -5.8924   26.5206 H   0  0  0  0  0  0  0  0  0  0  0  0
   10.4055   -6.5724   25.4079 H   0  0  0  0  0  0  0  0  0  0  0  0
  1  2  3  0  0  0  0
  2  4  1  0  0  0  0
  3  4  1  0  0  0  0
  4  5  1  0  0  0  0
  5  6  1  0  0  0  0
  5  7  1  0  0  0  0
  5  8  1  0  0  0  0
M  CHG  1   5   1
M  END
> <ref_mols>
x1044_0

> <original SMILES>
Cl.CC(N)C#C

> <Chemgauss4>
-5.170494

> <ref_pdb>
x1077_0

$$$$
x0859
  -OEChem-05172015543D

 10 10  0     1  0  0  0  0  0999 V2000
    6.8059   -4.0240   21.2981 C   0  0  0  0  0  0  0  0  0  0  0  0
    9.1625   -4.5496   24.2541 C   0  0  0  0  0  0  0  0  0  0  0  0
    7.8531   -4.5740   23.4705 C   0  0  0  0  0  0  0  0  0  0  0  0
    9.8188   -3.1724   24.2075 C   0  0  0  0  0  0  0  0  0  0  0  0
    8.0716   -4.0345   22.0523 C   0  0  2  0  0  0  0  0  0  0  0  0
    8.7524   -2.6463   22.0655 C   0  0  1  0  0  0  0  0  0  0  0  0
    7.8597   -1.4993   22.5603 C   0  0  0  0  0  0  0  0  0  0  0  0
    5.8092   -4.0158   20.7042 N   0  0  0  0  0  0  0  0  0  0  0  0
   10.0093   -2.6932   22.8355 N   0  0  0  0  0  0  0  0  0  0  0  0
   10.4265   -1.7569   22.8606 H   0  0  0  0  0  0  0  0  0  0  0  0
  1  5  1  0  0  0  0
  1  8  3  0  0  0  0
  2  3  1  0  0  0  0
  2  4  1  0  0  0  0
  3  5  1  0  0  0  0
  4  9  1  0  0  0  0
  5  6  1  0  0  0  0
  6  7  1  0  0  0  0
  6  9  1  0  0  0  0
  9 10  1  0  0  0  0
M  END
> <ref_mols>
x0859_0

> <original SMILES>
C[C@H]1NCCC[C@H]1C#N

> <Chemgauss4>
-5.168789

> <ref_pdb>
x1385_0

> <CYS145-warhead dist minimum (A)>
3.4552977

> <CYS145-warhead dist mean (A)>
4.6217146

> <CYS145-warhead dist stddev (A)>
0.4629166

$$$$
x1027
  -OEChem-05172015543D

  8  8  0     0  0  0  0  0  0999 V2000
   12.5035    0.6167   23.8198 C   0  0  0  0  0  0  0  0  0  0  0  0
   11.6513   -0.5379   25.8475 C   0  0  0  0  0  0  0  0  0  0  0  0
   13.2152   -0.6746   23.4582 C   0  0  0  0  0  0  0  0  0  0  0  0
   12.4042   -1.7728   25.3861 C   0  0  0  0  0  0  0  0  0  0  0  0
   11.3037    0.2754   24.6430 N   0  3  0  0  0  0  0  0  0  0  0  0
   13.5644   -1.4031   24.6375 O   0  0  0  0  0  0  0  0  0  0  0  0
   10.8296    1.1407   24.9362 H   0  0  0  0  0  0  0  0  0  0  0  0
   10.6219   -0.2362   24.0653 H   0  0  0  0  0  0  0  0  0  0  0  0
  1  3  1  0  0  0  0
  1  5  1  0  0  0  0
  2  4  1  0  0  0  0
  2  5  1  0  0  0  0
  3  6  1  0  0  0  0
  4  6  1  0  0  0  0
  5  7  1  0  0  0  0
  5  8  1  0  0  0  0
M  CHG  1   5   1
M  END
> <ref_mols>
x1027_0

> <original SMILES>
Cl.C1COCCN1

> <Chemgauss4>
-5.139683

> <ref_pdb>
x0354_0

$$$$
x1003
  -OEChem-05172015543D

  8  7  0     0  0  0  0  0  0999 V2000
    9.3167   -5.3689   25.0256 C   0  0  0  0  0  0  0  0  0  0  0  0
    9.6417   -2.4508   23.8968 C   0  0  0  0  0  0  0  0  0  0  0  0
    9.1029   -3.7419   23.3184 C   0  0  0  0  0  0  0  0  0  0  0  0
   10.0950   -6.4118   25.4632 N   0  0  0  0  0  0  0  0  0  0  0  0
    8.3047   -4.9751   25.5957 O   0  0  0  0  0  0  0  0  0  0  0  0
    9.8300   -4.8422   23.8765 O   0  0  0  0  0  0  0  0  0  0  0  0
    9.8351   -6.9036   26.3115 H   0  0  0  0  0  0  0  0  0  0  0  0
   10.9246   -6.7010   24.9560 H   0  0  0  0  0  0  0  0  0  0  0  0
  1  4  1  0  0  0  0
  1  5  2  0  0  0  0
  1  6  1  0  0  0  0
  2  3  1  0  0  0  0
  3  6  1  0  0  0  0
  4  7  1  0  0  0  0
  4  8  1  0  0  0  0
M  END
> <ref_mols>
x1003_0

> <original SMILES>
CCOC(=O)N

> <Chemgauss4>
-5.139531

> <ref_pdb>
x1077_0

$$$$
x1029
  -OEChem-05172015543D

  5  4  0     0  0  0  0  0  0999 V2000
    6.3682   -5.0778   21.1206 C   0  0  0  0  0  0  0  0  0  0  0  0
    6.5451   -5.1680   23.6884 C   0  0  0  0  0  0  0  0  0  0  0  0
    5.6530   -5.0073   22.4727 C   0  0  0  0  0  0  0  0  0  0  0  0
    5.6432   -4.9887   20.0922 O   0  5  0  0  0  0  0  0  0  0  0  0
    7.6226   -5.2183   21.2075 O   0  0  0  0  0  0  0  0  0  0  0  0
  1  3  1  0  0  0  0
  1  4  1  0  0  0  0
  1  5  2  0  0  0  0
  2  3  1  0  0  0  0
M  CHG  1   4  -1
M  END
> <ref_mols>
x1029_0

> <original SMILES>
CCC(=O)O

> <Chemgauss4>
-5.135675

> <ref_pdb>
x0689_0

$$$$
x0868
  -OEChem-05172015543D

 12 12  0     1  0  0  0  0  0999 V2000
    6.5861   -3.1743   21.8014 C   0  0  0  0  0  0  0  0  0  0  0  0
    9.7897   -1.4975   22.4620 C   0  0  0  0  0  0  0  0  0  0  0  0
    8.4329   -1.5329   21.7804 C   0  0  0  0  0  0  0  0  0  0  0  0
   10.0323   -2.9486   22.8503 C   0  0  0  0  0  0  0  0  0  0  0  0
    7.6332   -2.5433   22.6204 C   0  0  1  0  0  0  0  0  0  0  0  0
    7.0138   -1.8788   23.8545 C   0  0  0  0  0  0  0  0  0  0  0  0
    8.8267   -3.6764   25.6526 C   0  0  0  0  0  0  0  0  0  0  0  0
    5.7605   -3.6719   21.1557 N   0  0  0  0  0  0  0  0  0  0  0  0
    8.6777   -3.5468   23.0064 N   0  0  2  0  0  0  0  0  0  0  0  0
    9.4189   -5.7278   24.1466 O   0  0  0  0  0  0  0  0  0  0  0  0
    7.0069   -4.9939   24.3183 O   0  0  0  0  0  0  0  0  0  0  0  0
    8.4217   -4.6768   24.2410 S   0  0  0  0  0  0  0  0  0  0  0  0
  1  5  1  0  0  0  0
  1  8  3  0  0  0  0
  2  3  1  0  0  0  0
  2  4  1  0  0  0  0
  3  5  1  0  0  0  0
  4  9  1  0  0  0  0
  5  6  1  0  0  0  0
  5  9  1  0  0  0  0
  7 12  1  0  0  0  0
  9 12  1  0  0  0  0
 10 12  2  0  0  0  0
 11 12  2  0  0  0  0
M  END
> <ref_mols>
x0868_0

> <original SMILES>
CC1(C#N)N(S(=O)(C)=O)CCC1

> <Chemgauss4>
-5.131271

> <ref_pdb>
x1385_0

> <CYS145-warhead dist minimum (A)>
4.4482727

> <CYS145-warhead dist mean (A)>
5.5788994

> <CYS145-warhead dist stddev (A)>
0.45311671

$$$$
x0750
  -OEChem-05172015543D

 12 11  0     0  0  0  0  0  0999 V2000
    5.6095   -4.6682   22.1537 C   0  0  0  0  0  0  0  0  0  0  0  0
   10.0683   -2.6495   22.9370 C   0  0  0  0  0  0  0  0  0  0  0  0
    9.7521   -4.9867   23.7827 C   0  0  0  0  0  0  0  0  0  0  0  0
    4.4639   -5.2551   22.9380 C   0  0  0  0  0  0  0  0  0  0  0  0
    7.9446   -3.8699   22.3826 C   0  0  0  0  0  0  0  0  0  0  0  0
    9.0459   -3.6750   23.4352 C   0  0  0  0  0  0  0  0  0  0  0  0
    6.7297   -4.4136   22.9312 N   0  0  0  0  0  0  0  0  0  0  0  0
    5.5301   -4.4642   20.9435 O   0  0  0  0  0  0  0  0  0  0  0  0
    8.4624   -3.1637   24.6359 O   0  0  0  0  0  0  0  0  0  0  0  0
    5.0143   -6.7817   23.6461 Cl  0  0  0  0  0  0  0  0  0  0  0  0
    6.6912   -4.6189   23.9271 H   0  0  0  0  0  0  0  0  0  0  0  0
    9.1905   -3.0479   25.2641 H   0  0  0  0  0  0  0  0  0  0  0  0
  1  4  1  0  0  0  0
  1  7  1  0  0  0  0
  1  8  2  0  0  0  0
  2  6  1  0  0  0  0
  3  6  1  0  0  0  0
  4 10  1  0  0  0  0
  5  6  1  0  0  0  0
  5  7  1  0  0  0  0
  6  9  1  0  0  0  0
  7 11  1  0  0  0  0
  9 12  1  0  0  0  0
M  END
> <ref_mols>
x0750_0

> <original SMILES>
CC(C)(O)CNC(=O)CCl

> <Chemgauss4>
-5.081408

> <ref_pdb>
x1311_0

> <CYS145-warhead dist minimum (A)>
8.9275875

> <CYS145-warhead dist mean (A)>
10.702663

> <CYS145-warhead dist stddev (A)>
0.53330576

$$$$
x0824
  -OEChem-05172015543D

 12 11  0     0  0  0  0  0  0999 V2000
    5.6095   -4.6682   22.1537 C   0  0  0  0  0  0  0  0  0  0  0  0
   10.0683   -2.6495   22.9370 C   0  0  0  0  0  0  0  0  0  0  0  0
    9.7521   -4.9867   23.7827 C   0  0  0  0  0  0  0  0  0  0  0  0
    4.4639   -5.2551   22.9380 C   0  0  0  0  0  0  0  0  0  0  0  0
    7.9446   -3.8699   22.3826 C   0  0  0  0  0  0  0  0  0  0  0  0
    9.0459   -3.6750   23.4352 C   0  0  0  0  0  0  0  0  0  0  0  0
    6.7297   -4.4136   22.9312 N   0  0  0  0  0  0  0  0  0  0  0  0
    5.5301   -4.4642   20.9435 O   0  0  0  0  0  0  0  0  0  0  0  0
    8.4624   -3.1637   24.6359 O   0  0  0  0  0  0  0  0  0  0  0  0
    5.0143   -6.7817   23.6461 Cl  0  0  0  0  0  0  0  0  0  0  0  0
    6.6912   -4.6189   23.9271 H   0  0  0  0  0  0  0  0  0  0  0  0
    9.1905   -3.0479   25.2641 H   0  0  0  0  0  0  0  0  0  0  0  0
  1  4  1  0  0  0  0
  1  7  1  0  0  0  0
  1  8  2  0  0  0  0
  2  6  1  0  0  0  0
  3  6  1  0  0  0  0
  4 10  1  0  0  0  0
  5  6  1  0  0  0  0
  5  7  1  0  0  0  0
  6  9  1  0  0  0  0
  7 11  1  0  0  0  0
  9 12  1  0  0  0  0
M  END
> <ref_mols>
x0824_0

> <original SMILES>
CC(C)(O)CNC(=O)CCl

> <Chemgauss4>
-5.081408

> <ref_pdb>
x1311_0

$$$$
x1325
  -OEChem-05172015543D

 12 11  0     0  0  0  0  0  0999 V2000
    5.6095   -4.6682   22.1537 C   0  0  0  0  0  0  0  0  0  0  0  0
   10.0683   -2.6495   22.9370 C   0  0  0  0  0  0  0  0  0  0  0  0
    9.7521   -4.9867   23.7827 C   0  0  0  0  0  0  0  0  0  0  0  0
    4.4639   -5.2551   22.9380 C   0  0  0  0  0  0  0  0  0  0  0  0
    7.9446   -3.8699   22.3826 C   0  0  0  0  0  0  0  0  0  0  0  0
    9.0459   -3.6750   23.4352 C   0  0  0  0  0  0  0  0  0  0  0  0
    6.7297   -4.4136   22.9312 N   0  0  0  0  0  0  0  0  0  0  0  0
    5.5301   -4.4642   20.9435 O   0  0  0  0  0  0  0  0  0  0  0  0
    8.4624   -3.1637   24.6359 O   0  0  0  0  0  0  0  0  0  0  0  0
    5.0143   -6.7817   23.6461 Cl  0  0  0  0  0  0  0  0  0  0  0  0
    6.6912   -4.6189   23.9271 H   0  0  0  0  0  0  0  0  0  0  0  0
    9.1905   -3.0479   25.2641 H   0  0  0  0  0  0  0  0  0  0  0  0
  1  4  1  0  0  0  0
  1  7  1  0  0  0  0
  1  8  2  0  0  0  0
  2  6  1  0  0  0  0
  3  6  1  0  0  0  0
  4 10  1  0  0  0  0
  5  6  1  0  0  0  0
  5  7  1  0  0  0  0
  6  9  1  0  0  0  0
  7 11  1  0  0  0  0
  9 12  1  0  0  0  0
M  END
> <ref_mols>
x1325_0

> <original SMILES>
CC(C)(O)CNC(=O)CCl

> <Chemgauss4>
-5.081408

> <ref_pdb>
x1311_0

$$$$
x1383
  -OEChem-05172015543D

 12 11  0     0  0  0  0  0  0999 V2000
    5.6095   -4.6682   22.1537 C   0  0  0  0  0  0  0  0  0  0  0  0
   10.0683   -2.6495   22.9370 C   0  0  0  0  0  0  0  0  0  0  0  0
    9.7521   -4.9867   23.7827 C   0  0  0  0  0  0  0  0  0  0  0  0
    4.4639   -5.2551   22.9380 C   0  0  0  0  0  0  0  0  0  0  0  0
    7.9446   -3.8699   22.3826 C   0  0  0  0  0  0  0  0  0  0  0  0
    9.0459   -3.6750   23.4352 C   0  0  0  0  0  0  0  0  0  0  0  0
    6.7297   -4.4136   22.9312 N   0  0  0  0  0  0  0  0  0  0  0  0
    5.5301   -4.4642   20.9435 O   0  0  0  0  0  0  0  0  0  0  0  0
    8.4624   -3.1637   24.6359 O   0  0  0  0  0  0  0  0  0  0  0  0
    5.0143   -6.7817   23.6461 Cl  0  0  0  0  0  0  0  0  0  0  0  0
    6.6912   -4.6189   23.9271 H   0  0  0  0  0  0  0  0  0  0  0  0
    9.1905   -3.0479   25.2641 H   0  0  0  0  0  0  0  0  0  0  0  0
  1  4  1  0  0  0  0
  1  7  1  0  0  0  0
  1  8  2  0  0  0  0
  2  6  1  0  0  0  0
  3  6  1  0  0  0  0
  4 10  1  0  0  0  0
  5  6  1  0  0  0  0
  5  7  1  0  0  0  0
  6  9  1  0  0  0  0
  7 11  1  0  0  0  0
  9 12  1  0  0  0  0
M  END
> <ref_mols>
x1383_0

> <original SMILES>
CC(C)(O)CNC(=O)CCl

> <Chemgauss4>
-5.081408

> <ref_pdb>
x1311_0

$$$$
x1012
  -OEChem-05172015543D

  8  8  0     0  0  0  0  0  0999 V2000
   11.8998   -1.2413   23.5851 C   0  0  0  0  0  0  0  0  0  0  0  0
   13.5674   -1.4654   22.1222 C   0  0  0  0  0  0  0  0  0  0  0  0
   12.0219   -1.5136   22.0662 C   0  0  0  0  0  0  0  0  0  0  0  0
   14.3395   -1.0285   24.6348 O   0  0  0  0  0  0  0  0  0  0  0  0
   13.4225    0.9277   23.2893 O   0  0  0  0  0  0  0  0  0  0  0  0
   11.4074   -0.5309   21.2071 O   0  0  0  0  0  0  0  0  0  0  0  0
   13.4969   -0.4861   23.5909 S   0  0  0  0  0  0  0  0  0  0  0  0
   11.5661   -0.8359   20.3045 H   0  0  0  0  0  0  0  0  0  0  0  0
  1  3  1  0  0  0  0
  1  7  1  0  0  0  0
  2  3  1  0  0  0  0
  2  7  1  0  0  0  0
  3  6  1  0  0  0  0
  4  7  2  0  0  0  0
  5  7  2  0  0  0  0
  6  8  1  0  0  0  0
M  END
> <ref_mols>
x1012_0

> <original SMILES>
OC1CS(=O)(=O)C1

> <Chemgauss4>
-5.052479

> <ref_pdb>
x0678_0

$$$$
x1013
  -OEChem-05172015543D

  7  7  0     0  0  0  0  0  0999 V2000
   11.6559   -1.6254   22.1917 C   0  0  0  0  0  0  0  0  0  0  0  0
   12.5459   -1.3386   23.3555 C   0  0  0  0  0  0  0  0  0  0  0  0
   13.9060   -1.5904   22.7443 C   0  0  0  0  0  0  0  0  0  0  0  0
   12.4296   -1.5234   21.0572 N   0  0  0  0  0  0  0  0  0  0  0  0
   10.4605   -1.8650   22.2569 O   0  0  0  0  0  0  0  0  0  0  0  0
   13.7704   -1.2146   21.3731 O   0  0  0  0  0  0  0  0  0  0  0  0
   12.1689   -1.6652   20.0900 H   0  0  0  0  0  0  0  0  0  0  0  0
  1  2  1  0  0  0  0
  1  4  1  0  0  0  0
  1  5  2  0  0  0  0
  2  3  1  0  0  0  0
  3  6  1  0  0  0  0
  4  6  1  0  0  0  0
  4  7  1  0  0  0  0
M  END
> <ref_mols>
x1013_0

> <original SMILES>
O=C1CCON1

> <Chemgauss4>
-5.015898

> <ref_pdb>
x0678_0

$$$$
x2895
  -OEChem-05172015543D

 29 31  0     1  0  0  0  0  0999 V2000
    7.0550   -3.2615   21.6009 C   0  0  0  0  0  0  0  0  0  0  0  0
   11.4573    1.2994   22.3575 C   0  0  0  0  0  0  0  0  0  0  0  0
   11.6053    0.0169   24.3996 C   0  0  0  0  0  0  0  0  0  0  0  0
    6.0618   -4.1148   22.0799 C   0  0  0  0  0  0  0  0  0  0  0  0
   11.4828    2.4813   23.0979 C   0  0  0  0  0  0  0  0  0  0  0  0
   11.6309    1.1987   25.1400 C   0  0  0  0  0  0  0  0  0  0  0  0
    8.1143   -3.3186   23.7548 C   0  0  0  0  0  0  0  0  0  0  0  0
    8.0832   -2.8649   22.4372 C   0  0  0  0  0  0  0  0  0  0  0  0
   11.5185    0.0672   23.0084 C   0  0  0  0  0  0  0  0  0  0  0  0
    6.0830   -4.6025   23.4025 C   0  0  0  0  0  0  0  0  0  0  0  0
    7.1314   -4.1924   24.2726 C   0  0  0  0  0  0  0  0  0  0  0  0
   11.5697    2.4309   24.4892 C   0  0  0  0  0  0  0  0  0  0  0  0
    2.0905   -7.4342   23.1738 C   0  0  0  0  0  0  0  0  0  0  0  0
    2.7701   -6.3714   23.6097 C   0  0  0  0  0  0  0  0  0  0  0  0
    9.1188   -1.9691   21.9469 C   0  0  0  0  0  0  0  0  0  0  0  0
    4.1139   -6.1022   23.0484 C   0  0  0  0  0  0  0  0  0  0  0  0
    4.9750   -5.6225   25.3577 C   0  0  0  0  0  0  0  0  0  0  0  0
    6.3561   -5.7625   25.9652 C   0  0  0  0  0  0  0  0  0  0  0  0
    9.3917   -5.2324   26.4179 C   0  0  0  0  0  0  0  0  0  0  0  0
   11.5312    4.8088   24.4819 C   0  0  0  0  0  0  0  0  0  0  0  0
   11.4917   -1.2050   22.2115 C   0  0  0  0  0  0  0  0  0  0  0  0
    8.2690   -4.2543   26.4916 C   0  0  0  0  0  0  0  0  0  0  0  0
    5.0272   -5.4592   23.8979 N   0  0  0  0  0  0  0  0  0  0  0  0
    7.1852   -4.6305   25.5961 N   0  0  1  0  0  0  0  0  0  0  0  0
   10.3703   -2.0437   22.5693 N   0  0  0  0  0  0  0  0  0  0  0  0
    8.8759   -1.1660   21.0288 O   0  0  0  0  0  0  0  0  0  0  0  0
    4.3210   -6.4716   21.8930 O   0  0  0  0  0  0  0  0  0  0  0  0
   11.5959    3.5843   25.2114 O   0  0  0  0  0  0  0  0  0  0  0  0
   10.4966   -2.6724   23.3557 H   0  0  0  0  0  0  0  0  0  0  0  0
  1  4  1  0  0  0  0
  1  8  2  0  0  0  0
  2  5  1  0  0  0  0
  2  9  2  0  0  0  0
  3  6  2  0  0  0  0
  3  9  1  0  0  0  0
  4 10  2  0  0  0  0
  5 12  2  0  0  0  0
  6 12  1  0  0  0  0
  7  8  1  0  0  0  0
  7 11  2  0  0  0  0
  8 15  1  0  0  0  0
  9 21  1  0  0  0  0
 10 11  1  0  0  0  0
 10 23  1  0  0  0  0
 11 24  1  0  0  0  0
 12 28  1  0  0  0  0
 13 14  2  0  0  0  0
 14 16  1  0  0  0  0
 15 25  1  0  0  0  0
 15 26  2  0  0  0  0
 16 23  1  0  0  0  0
 16 27  2  0  0  0  0
 17 18  1  0  0  0  0
 17 23  1  0  0  0  0
 18 24  1  0  0  0  0
 19 22  1  0  0  0  0
 20 28  1  0  0  0  0
 21 25  1  0  0  0  0
 22 24  1  0  0  0  0
 25 29  1  0  0  0  0
M  END
> <ref_mols>
x2895_0

> <original SMILES>
CCN(CC1)c(cc(cc2)C(NCc(cc3)ccc3OC)=O)c2N1C(C=C)=O

> <Chemgauss4>
-5.002441

> <ref_pdb>
x1392_0

$$$$
x2841
  -OEChem-05172015543D

 33 36  0     1  0  0  0  0  0999 V2000
    7.0827   -1.6543   17.5479 C   0  0  0  0  0  0  0  0  0  0  0  0
    8.2904   -3.1565   23.5237 C   0  0  0  0  0  0  0  0  0  0  0  0
    7.4492   -1.8169   25.3499 C   0  0  0  0  0  0  0  0  0  0  0  0
    7.5377   -0.7842   18.5324 C   0  0  0  0  0  0  0  0  0  0  0  0
    7.8130   -2.2144   22.6127 C   0  0  0  0  0  0  0  0  0  0  0  0
    6.9718   -0.8747   24.4388 C   0  0  0  0  0  0  0  0  0  0  0  0
   10.8923    1.7672   23.8110 C   0  0  0  0  0  0  0  0  0  0  0  0
   11.6699    0.0366   22.3152 C   0  0  0  0  0  0  0  0  0  0  0  0
   12.1697    1.8644   24.3627 C   0  0  0  0  0  0  0  0  0  0  0  0
   12.9474    0.1338   22.8669 C   0  0  0  0  0  0  0  0  0  0  0  0
    6.0676   -2.5366   17.8809 C   0  0  0  0  0  0  0  0  0  0  0  0
    5.9613   -1.7418   20.0338 C   0  0  0  0  0  0  0  0  0  0  0  0
    8.1085   -2.9578   24.8924 C   0  0  0  0  0  0  0  0  0  0  0  0
    6.9716   -0.8224   19.8019 C   0  0  0  0  0  0  0  0  0  0  0  0
   10.6424    0.8533   22.7873 C   0  0  0  0  0  0  0  0  0  0  0  0
    7.1536   -1.0735   23.0702 C   0  0  0  0  0  0  0  0  0  0  0  0
   13.1972    1.0477   23.8907 C   0  0  0  0  0  0  0  0  0  0  0  0
    4.5574    2.8454   21.7293 C   0  0  0  0  0  0  0  0  0  0  0  0
    5.1670    1.7103   21.3729 C   0  0  0  0  0  0  0  0  0  0  0  0
    5.5173    0.6884   22.4026 C   0  0  0  0  0  0  0  0  0  0  0  0
    8.9237   -0.0946   21.2081 C   0  0  0  0  0  0  0  0  0  0  0  0
    8.0813   -5.3808   25.7701 C   0  0  0  0  0  0  0  0  0  0  0  0
    7.6500   -4.5031   26.9031 C   0  0  0  0  0  0  0  0  0  0  0  0
    8.6185   -3.9642   25.8658 C   0  0  0  0  0  0  0  0  0  0  0  0
   10.0547   -3.7845   26.2729 C   0  0  0  0  0  0  0  0  0  0  0  0
    7.4440    0.1114   20.8943 C   0  0  2  0  0  0  0  0  0  0  0  0
    5.4931   -2.6030   19.1028 N   0  0  0  0  0  0  0  0  0  0  0  0
    9.3465    0.7550   22.2273 N   0  0  0  0  0  0  0  0  0  0  0  0
    6.6562   -0.0924   22.1214 N   0  0  0  0  0  0  0  0  0  0  0  0
    4.8053    0.5835   23.4016 O   0  0  0  0  0  0  0  0  0  0  0  0
    9.6047   -0.9130   20.5960 O   0  0  0  0  0  0  0  0  0  0  0  0
   14.7735    1.1678   24.5715 Cl  0  0  0  0  0  0  0  0  0  0  0  0
    8.6410    1.3781   22.6147 H   0  0  0  0  0  0  0  0  0  0  0  0
  1  4  2  0  0  0  0
  1 11  1  0  0  0  0
  2  5  2  0  0  0  0
  2 13  1  0  0  0  0
  3  6  1  0  0  0  0
  3 13  2  0  0  0  0
  4 14  1  0  0  0  0
  5 16  1  0  0  0  0
  6 16  2  0  0  0  0
  7  9  2  0  0  0  0
  7 15  1  0  0  0  0
  8 10  1  0  0  0  0
  8 15  2  0  0  0  0
  9 17  1  0  0  0  0
 10 17  2  0  0  0  0
 11 27  2  0  0  0  0
 12 14  2  0  0  0  0
 12 27  1  0  0  0  0
 13 24  1  0  0  0  0
 14 26  1  0  0  0  0
 15 28  1  0  0  0  0
 16 29  1  0  0  0  0
 17 32  1  0  0  0  0
 18 19  2  0  0  0  0
 19 20  1  0  0  0  0
 20 29  1  0  0  0  0
 20 30  2  0  0  0  0
 21 26  1  0  0  0  0
 21 28  1  0  0  0  0
 21 31  2  0  0  0  0
 22 23  1  0  0  0  0
 22 24  1  0  0  0  0
 23 24  1  0  0  0  0
 24 25  1  0  0  0  0
 26 29  1  0  0  0  0
 28 33  1  0  0  0  0
M  END
> <ref_mols>
x2841_0

> <original SMILES>
CC1(CC1)C=2C=CC(=CC2)N(C(C(=O)NC=3C=CC(Cl)=CC3)C=4C=CC=NC4)C(=O)C=C

> <Chemgauss4>
-5.000449

> <ref_pdb>
x0831_0

> <CYS145-warhead dist minimum (A)>
7.6819134

> <CYS145-warhead dist mean (A)>
10.056947

> <CYS145-warhead dist stddev (A)>
0.5171212

$$$$
x2869
  -OEChem-05172015543D

 33 36  0     1  0  0  0  0  0999 V2000
    3.9915   -6.3135   22.0084 C   0  0  0  0  0  0  0  0  0  0  0  0
   10.5902   -2.0098   23.6355 C   0  0  0  0  0  0  0  0  0  0  0  0
   11.1895   -3.9230   24.9837 C   0  0  0  0  0  0  0  0  0  0  0  0
    5.1288   -5.5376   21.8145 C   0  0  0  0  0  0  0  0  0  0  0  0
    9.4987   -2.7119   23.1244 C   0  0  0  0  0  0  0  0  0  0  0  0
   10.0979   -4.6251   24.4726 C   0  0  0  0  0  0  0  0  0  0  0  0
    5.6110   -0.1491   20.0851 C   0  0  0  0  0  0  0  0  0  0  0  0
    6.8320   -1.7982   18.8096 C   0  0  0  0  0  0  0  0  0  0  0  0
    5.5029    0.6507   18.9475 C   0  0  0  0  0  0  0  0  0  0  0  0
    6.7239   -0.9983   17.6720 C   0  0  0  0  0  0  0  0  0  0  0  0
    3.4359   -6.3444   23.2773 C   0  0  0  0  0  0  0  0  0  0  0  0
    5.0376   -4.9236   24.1104 C   0  0  0  0  0  0  0  0  0  0  0  0
   11.4357   -2.6154   24.5652 C   0  0  0  0  0  0  0  0  0  0  0  0
    5.6683   -4.8263   22.8805 C   0  0  0  0  0  0  0  0  0  0  0  0
    6.2756   -1.3736   20.0162 C   0  0  0  0  0  0  0  0  0  0  0  0
    9.2525   -4.0195   23.5429 C   0  0  0  0  0  0  0  0  0  0  0  0
    6.0593    0.2261   17.7410 C   0  0  0  0  0  0  0  0  0  0  0  0
    9.7882   -7.9741   22.9583 C   0  0  0  0  0  0  0  0  0  0  0  0
    9.4746   -6.7420   22.5452 C   0  0  0  0  0  0  0  0  0  0  0  0
    8.1436   -6.1532   22.8754 C   0  0  0  0  0  0  0  0  0  0  0  0
    7.0084   -3.4256   21.2804 C   0  0  0  0  0  0  0  0  0  0  0  0
   13.6550   -1.3786   24.1322 C   0  0  0  0  0  0  0  0  0  0  0  0
   13.9669   -2.5262   25.0410 C   0  0  0  0  0  0  0  0  0  0  0  0
   12.6019   -1.8656   25.1112 C   0  0  0  0  0  0  0  0  0  0  0  0
   12.3006   -1.0020   26.3045 C   0  0  0  0  0  0  0  0  0  0  0  0
    6.9044   -3.9727   22.7018 C   0  0  2  0  0  0  0  0  0  0  0  0
    3.9315   -5.6670   24.3371 N   0  0  0  0  0  0  0  0  0  0  0  0
    6.3849   -2.1852   21.1702 N   0  0  0  0  0  0  0  0  0  0  0  0
    8.1158   -4.7507   23.0106 N   0  0  0  0  0  0  0  0  0  0  0  0
    7.1796   -6.9060   23.0170 O   0  0  0  0  0  0  0  0  0  0  0  0
    7.5728   -4.0527   20.3879 O   0  0  0  0  0  0  0  0  0  0  0  0
    5.9127    1.3100   16.1997 Br  0  0  0  0  0  0  0  0  0  0  0  0
    5.9579   -1.8198   22.0189 H   0  0  0  0  0  0  0  0  0  0  0  0
  1  4  2  0  0  0  0
  1 11  1  0  0  0  0
  2  5  2  0  0  0  0
  2 13  1  0  0  0  0
  3  6  1  0  0  0  0
  3 13  2  0  0  0  0
  4 14  1  0  0  0  0
  5 16  1  0  0  0  0
  6 16  2  0  0  0  0
  7  9  2  0  0  0  0
  7 15  1  0  0  0  0
  8 10  1  0  0  0  0
  8 15  2  0  0  0  0
  9 17  1  0  0  0  0
 10 17  2  0  0  0  0
 11 27  2  0  0  0  0
 12 14  2  0  0  0  0
 12 27  1  0  0  0  0
 13 24  1  0  0  0  0
 14 26  1  0  0  0  0
 15 28  1  0  0  0  0
 16 29  1  0  0  0  0
 17 32  1  0  0  0  0
 18 19  2  0  0  0  0
 19 20  1  0  0  0  0
 20 29  1  0  0  0  0
 20 30  2  0  0  0  0
 21 26  1  0  0  0  0
 21 28  1  0  0  0  0
 21 31  2  0  0  0  0
 22 23  1  0  0  0  0
 22 24  1  0  0  0  0
 23 24  1  0  0  0  0
 24 25  1  0  0  0  0
 26 29  1  0  0  0  0
 28 33  1  0  0  0  0
M  END
> <ref_mols>
x2869_0

> <original SMILES>
CC1(CC1)C=2C=CC(=CC2)N(C(C(=O)NC=3C=CC(Br)=CC3)C=4C=CC=NC4)C(=O)C=C

> <Chemgauss4>
-4.995249

> <ref_pdb>
x0749_0

> <CYS145-warhead dist minimum (A)>
3.793124

> <CYS145-warhead dist mean (A)>
6.6299486

> <CYS145-warhead dist stddev (A)>
0.5442774

$$$$
x0277
  -OEChem-05172015543D

 11 11  0     0  0  0  0  0  0999 V2000
    6.5163   -3.4519   21.4622 C   0  0  0  0  0  0  0  0  0  0  0  0
    9.4264   -2.9673   23.4604 C   0  0  0  0  0  0  0  0  0  0  0  0
    9.6108   -1.6033   23.4071 C   0  0  0  0  0  0  0  0  0  0  0  0
    7.5812   -2.7701   22.1240 C   0  0  0  0  0  0  0  0  0  0  0  0
    7.7651   -1.4060   22.0713 C   0  0  0  0  0  0  0  0  0  0  0  0
    6.6656   -0.7782   19.9213 C   0  0  0  0  0  0  0  0  0  0  0  0
    5.6502   -4.0062   20.9242 N   0  0  0  0  0  0  0  0  0  0  0  0
    8.4084   -3.5753   22.8197 N   0  0  0  0  0  0  0  0  0  0  0  0
    8.7834   -0.7981   22.7117 N   0  0  0  0  0  0  0  0  0  0  0  0
    6.8659   -0.6098   21.3255 N   0  0  0  0  0  0  0  0  0  0  0  0
    6.3630    0.0945   21.8287 H   0  0  0  0  0  0  0  0  0  0  0  0
  1  4  1  0  0  0  0
  1  7  3  0  0  0  0
  2  3  1  0  0  0  0
  2  8  2  0  0  0  0
  3  9  2  0  0  0  0
  4  5  2  0  0  0  0
  4  8  1  0  0  0  0
  5  9  1  0  0  0  0
  5 10  1  0  0  0  0
  6 10  1  0  0  0  0
 10 11  1  0  0  0  0
M  END
> <ref_mols>
x0277_0

> <original SMILES>
CNC=1N=CC=NC1C#N

> <Chemgauss4>
-4.984582

> <ref_pdb>
x1334_0

> <CYS145-warhead dist minimum (A)>
6.2263246

> <CYS145-warhead dist mean (A)>
7.2075334

> <CYS145-warhead dist stddev (A)>
0.28017306

$$$$
x1286
  -OEChem-05172015543D

 11 11  0     0  0  0  0  0  0999 V2000
    6.5163   -3.4519   21.4622 C   0  0  0  0  0  0  0  0  0  0  0  0
    9.4264   -2.9673   23.4604 C   0  0  0  0  0  0  0  0  0  0  0  0
    9.6108   -1.6033   23.4071 C   0  0  0  0  0  0  0  0  0  0  0  0
    7.5812   -2.7701   22.1240 C   0  0  0  0  0  0  0  0  0  0  0  0
    7.7651   -1.4060   22.0713 C   0  0  0  0  0  0  0  0  0  0  0  0
    6.6656   -0.7782   19.9213 C   0  0  0  0  0  0  0  0  0  0  0  0
    5.6502   -4.0062   20.9242 N   0  0  0  0  0  0  0  0  0  0  0  0
    8.4084   -3.5753   22.8197 N   0  0  0  0  0  0  0  0  0  0  0  0
    8.7834   -0.7981   22.7117 N   0  0  0  0  0  0  0  0  0  0  0  0
    6.8659   -0.6098   21.3255 N   0  0  0  0  0  0  0  0  0  0  0  0
    6.3630    0.0945   21.8287 H   0  0  0  0  0  0  0  0  0  0  0  0
  1  4  1  0  0  0  0
  1  7  3  0  0  0  0
  2  3  1  0  0  0  0
  2  8  2  0  0  0  0
  3  9  2  0  0  0  0
  4  5  2  0  0  0  0
  4  8  1  0  0  0  0
  5  9  1  0  0  0  0
  5 10  1  0  0  0  0
  6 10  1  0  0  0  0
 10 11  1  0  0  0  0
M  END
> <ref_mols>
x1286_0

> <original SMILES>
CNC=1N=CC=NC1C#N

> <Chemgauss4>
-4.984582

> <ref_pdb>
x1334_0

> <CYS145-warhead dist minimum (A)>
3.123858

> <CYS145-warhead dist mean (A)>
5.81209

> <CYS145-warhead dist stddev (A)>
0.6055642

$$$$
x1070
  -OEChem-05172015543D

 11 11  0     0  0  0  0  0  0999 V2000
    6.5163   -3.4519   21.4622 C   0  0  0  0  0  0  0  0  0  0  0  0
    9.4264   -2.9673   23.4604 C   0  0  0  0  0  0  0  0  0  0  0  0
    9.6108   -1.6033   23.4071 C   0  0  0  0  0  0  0  0  0  0  0  0
    7.5812   -2.7701   22.1240 C   0  0  0  0  0  0  0  0  0  0  0  0
    7.7651   -1.4060   22.0713 C   0  0  0  0  0  0  0  0  0  0  0  0
    6.6656   -0.7782   19.9213 C   0  0  0  0  0  0  0  0  0  0  0  0
    5.6502   -4.0062   20.9242 N   0  0  0  0  0  0  0  0  0  0  0  0
    8.4084   -3.5753   22.8197 N   0  0  0  0  0  0  0  0  0  0  0  0
    8.7834   -0.7981   22.7117 N   0  0  0  0  0  0  0  0  0  0  0  0
    6.8659   -0.6098   21.3255 N   0  0  0  0  0  0  0  0  0  0  0  0
    6.3630    0.0945   21.8287 H   0  0  0  0  0  0  0  0  0  0  0  0
  1  4  1  0  0  0  0
  1  7  3  0  0  0  0
  2  3  1  0  0  0  0
  2  8  2  0  0  0  0
  3  9  2  0  0  0  0
  4  5  2  0  0  0  0
  4  8  1  0  0  0  0
  5  9  1  0  0  0  0
  5 10  1  0  0  0  0
  6 10  1  0  0  0  0
 10 11  1  0  0  0  0
M  END
> <ref_mols>
x1070_0

> <original SMILES>
CNC=1N=CC=NC1C#N

> <Chemgauss4>
-4.984582

> <ref_pdb>
x1334_0

> <CYS145-warhead dist minimum (A)>
14.976645

> <CYS145-warhead dist mean (A)>
16.347805

> <CYS145-warhead dist stddev (A)>
0.72679853

$$$$
x1031
  -OEChem-05172015543D

  8  8  0     0  0  0  0  0  0999 V2000
    7.0246   -1.9190   18.6769 C   0  0  0  0  0  0  0  0  0  0  0  0
    6.0322   -2.8977   20.5741 C   0  0  0  0  0  0  0  0  0  0  0  0
    7.5300   -2.7771   20.8101 C   0  0  0  0  0  0  0  0  0  0  0  0
    5.8246   -2.3526   19.2559 N   0  0  0  0  0  0  0  0  0  0  0  0
    8.0424   -2.1724   19.6060 N   0  0  0  0  0  0  0  0  0  0  0  0
    7.1584   -1.4149   17.5702 O   0  0  0  0  0  0  0  0  0  0  0  0
    4.9207   -2.2885   18.7988 H   0  0  0  0  0  0  0  0  0  0  0  0
    9.0210   -1.9554   19.4457 H   0  0  0  0  0  0  0  0  0  0  0  0
  1  4  1  0  0  0  0
  1  5  1  0  0  0  0
  1  6  2  0  0  0  0
  2  3  1  0  0  0  0
  2  4  1  0  0  0  0
  3  5  1  0  0  0  0
  4  7  1  0  0  0  0
  5  8  1  0  0  0  0
M  END
> <ref_mols>
x1031_0

> <original SMILES>
O=C1NCCN1

> <Chemgauss4>
-4.983652

> <ref_pdb>
x0397_0

$$$$
x1046
  -OEChem-05172015543D

  9  9  0     1  0  0  0  0  0999 V2000
   14.1692   -1.2102   21.7122 C   0  0  0  0  0  0  0  0  0  0  0  0
   13.5701    0.5724   23.0998 C   0  0  0  0  0  0  0  0  0  0  0  0
   12.8291   -1.5269   22.3455 C   0  0  1  0  0  0  0  0  0  0  0  0
   12.8888   -0.6840   23.5993 C   0  0  2  0  0  0  0  0  0  0  0  0
   14.4733    0.1546   22.0649 O   0  0  0  0  0  0  0  0  0  0  0  0
   11.7996   -1.0685   21.4740 O   0  0  0  0  0  0  0  0  0  0  0  0
   11.6227   -0.4134   24.1579 O   0  0  0  0  0  0  0  0  0  0  0  0
   11.9153   -1.5424   20.6357 H   0  0  0  0  0  0  0  0  0  0  0  0
   11.7582    0.1972   24.9048 H   0  0  0  0  0  0  0  0  0  0  0  0
  1  3  1  0  0  0  0
  1  5  1  0  0  0  0
  2  4  1  0  0  0  0
  2  5  1  0  0  0  0
  3  4  1  0  0  0  0
  3  6  1  0  0  0  0
  4  7  1  0  0  0  0
  6  8  1  0  0  0  0
  7  9  1  0  0  0  0
M  END
> <ref_mols>
x1046_0

> <original SMILES>
O[C@H]1COC[C@H]1O

> <Chemgauss4>
-4.920464

> <ref_pdb>
x0195_0

$$$$
x0998
  -OEChem-05172015543D

  7  7  0     0  0  0  0  0  0999 V2000
   14.3208   -1.3253   23.3960 C   0  0  0  0  0  0  0  0  0  0  0  0
   12.9147   -1.4674   22.7886 C   0  0  0  0  0  0  0  0  0  0  0  0
   13.7975   -0.6830   24.6522 N   0  0  0  0  0  0  0  0  0  0  0  0
   12.5294    1.1322   23.2843 O   0  0  0  0  0  0  0  0  0  0  0  0
   11.2006   -0.5755   24.6365 O   0  0  0  0  0  0  0  0  0  0  0  0
   12.3599   -0.1807   23.8677 S   0  0  0  0  0  0  0  0  0  0  0  0
   13.6761   -1.3345   25.4393 H   0  0  0  0  0  0  0  0  0  0  0  0
  1  2  1  0  0  0  0
  1  3  1  0  0  0  0
  2  6  1  0  0  0  0
  3  6  1  0  0  0  0
  4  6  2  0  0  0  0
  5  6  2  0  0  0  0
  3  7  1  0  0  0  0
M  END
> <ref_mols>
x0998_0

> <original SMILES>
O=S1(=O)CCN1

> <Chemgauss4>
-4.858508

> <ref_pdb>
x0678_0

$$$$
x1004
  -OEChem-05172015543D

  6  6  0     0  0  0  0  0  0999 V2000
   14.2059   -2.2728   23.3077 C   0  0  0  0  0  0  0  0  0  0  0  0
   13.8702   -0.8323   23.5759 C   0  0  0  0  0  0  0  0  0  0  0  0
   12.9310   -1.6852   22.7690 C   0  0  0  0  0  0  0  0  0  0  0  0
   12.7724   -1.4489   21.3070 C   0  0  0  0  0  0  0  0  0  0  0  0
   11.4822   -0.8988   21.0399 O   0  0  0  0  0  0  0  0  0  0  0  0
   11.4343   -0.7665   20.0811 H   0  0  0  0  0  0  0  0  0  0  0  0
  1  2  1  0  0  0  0
  1  3  1  0  0  0  0
  2  3  1  0  0  0  0
  3  4  1  0  0  0  0
  4  5  1  0  0  0  0
  5  6  1  0  0  0  0
M  END
> <ref_mols>
x1004_0

> <original SMILES>
OCC1CC1

> <Chemgauss4>
-4.841540

> <ref_pdb>
x0678_0

$$$$
x0994
  -OEChem-05172015543D

  7  7  0     0  0  0  0  0  0999 V2000
    9.1424   -2.8206   22.4171 C   0  0  0  0  0  0  0  0  0  0  0  0
   10.2302   -2.2812   23.3272 C   0  0  0  0  0  0  0  0  0  0  0  0
    8.9161   -1.6868   21.4383 C   0  0  0  0  0  0  0  0  0  0  0  0
   11.1691   -1.5807   22.3668 C   0  0  0  0  0  0  0  0  0  0  0  0
   10.2681   -1.0524   21.2890 N   0  3  0  0  0  0  0  0  0  0  0  0
   10.6660   -1.2577   20.3622 H   0  0  0  0  0  0  0  0  0  0  0  0
   10.1888   -0.0280   21.3512 H   0  0  0  0  0  0  0  0  0  0  0  0
  1  2  1  0  0  0  0
  1  3  1  0  0  0  0
  2  4  1  0  0  0  0
  3  5  1  0  0  0  0
  4  5  1  0  0  0  0
  5  6  1  0  0  0  0
  5  7  1  0  0  0  0
M  CHG  1   5   1
M  END
> <ref_mols>
x0994_0

> <original SMILES>
C1CCNC1

> <Chemgauss4>
-4.789069

> <ref_pdb>
x1392_0

$$$$
x2699
  -OEChem-05172015543D

 33 35  0     1  0  0  0  0  0999 V2000
    5.9933   -2.1887   29.4026 C   0  0  0  0  0  0  0  0  0  0  0  0
    6.0124   -3.1576   30.4058 C   0  0  0  0  0  0  0  0  0  0  0  0
    4.8105   -5.0808   22.9611 C   0  0  0  0  0  0  0  0  0  0  0  0
    5.7589   -4.4593   23.7659 C   0  0  0  0  0  0  0  0  0  0  0  0
    6.2972   -0.8505   21.6424 C   0  0  0  0  0  0  0  0  0  0  0  0
    7.9823   -1.5689   20.0672 C   0  0  0  0  0  0  0  0  0  0  0  0
    6.4908   -2.4879   28.1343 C   0  0  0  0  0  0  0  0  0  0  0  0
    6.9887   -1.4874   22.6728 C   0  0  0  0  0  0  0  0  0  0  0  0
    8.6739   -2.2058   21.0976 C   0  0  0  0  0  0  0  0  0  0  0  0
    6.5290   -4.4259   30.1407 C   0  0  0  0  0  0  0  0  0  0  0  0
    5.2522   -5.7198   21.8137 C   0  0  0  0  0  0  0  0  0  0  0  0
    7.4400   -5.1607   22.2368 C   0  0  0  0  0  0  0  0  0  0  0  0
    6.7939   -0.8913   20.3396 C   0  0  0  0  0  0  0  0  0  0  0  0
    7.1009   -4.4953   23.4039 C   0  0  0  0  0  0  0  0  0  0  0  0
    8.1771   -2.1651   22.4004 C   0  0  0  0  0  0  0  0  0  0  0  0
    7.0075   -3.7561   27.8692 C   0  0  0  0  0  0  0  0  0  0  0  0
    7.0266   -4.7251   28.8723 C   0  0  0  0  0  0  0  0  0  0  0  0
   12.1249   -3.4015   25.0373 C   0  0  0  0  0  0  0  0  0  0  0  0
   10.8085   -3.1775   24.9749 C   0  0  0  0  0  0  0  0  0  0  0  0
   10.2202   -2.4684   23.8010 C   0  0  0  0  0  0  0  0  0  0  0  0
    7.5443   -3.1538   25.4827 C   0  0  0  0  0  0  0  0  0  0  0  0
    8.1567   -3.8295   24.2584 C   0  0  2  0  0  0  0  0  0  0  0  0
    6.0544   -0.2103   19.2380 C   0  0  0  0  0  0  0  0  0  0  0  0
    6.5471   -5.7760   21.4294 N   0  0  0  0  0  0  0  0  0  0  0  0
    7.5029   -4.0223   26.5706 N   0  0  0  0  0  0  0  0  0  0  0  0
    8.8977   -2.8282   23.4733 N   0  0  0  0  0  0  0  0  0  0  0  0
   10.9085   -1.6436   23.1991 O   0  0  0  0  0  0  0  0  0  0  0  0
    7.1460   -1.9926   25.4466 O   0  0  0  0  0  0  0  0  0  0  0  0
    4.9101    0.4119   19.6495 F   0  0  0  0  0  0  0  0  0  0  0  0
    6.7813    0.7608   18.6100 F   0  0  0  0  0  0  0  0  0  0  0  0
    5.6681   -1.0728   18.2532 F   0  0  0  0  0  0  0  0  0  0  0  0
    7.7212   -6.4654   28.5680 Br  0  0  0  0  0  0  0  0  0  0  0  0
    7.8721   -4.9577   26.4133 H   0  0  0  0  0  0  0  0  0  0  0  0
  1  2  1  0  0  0  0
  1  7  2  0  0  0  0
  2 10  2  0  0  0  0
  3  4  2  0  0  0  0
  3 11  1  0  0  0  0
  4 14  1  0  0  0  0
  5  8  2  0  0  0  0
  5 13  1  0  0  0  0
  6  9  1  0  0  0  0
  6 13  2  0  0  0  0
  7 16  1  0  0  0  0
  8 15  1  0  0  0  0
  9 15  2  0  0  0  0
 10 17  1  0  0  0  0
 11 24  2  0  0  0  0
 12 14  2  0  0  0  0
 12 24  1  0  0  0  0
 13 23  1  0  0  0  0
 14 22  1  0  0  0  0
 15 26  1  0  0  0  0
 16 17  2  0  0  0  0
 16 25  1  0  0  0  0
 17 32  1  0  0  0  0
 18 19  2  0  0  0  0
 19 20  1  0  0  0  0
 20 26  1  0  0  0  0
 20 27  2  0  0  0  0
 21 22  1  0  0  0  0
 21 25  1  0  0  0  0
 21 28  2  0  0  0  0
 22 26  1  0  0  0  0
 23 29  1  0  0  0  0
 23 30  1  0  0  0  0
 23 31  1  0  0  0  0
 25 33  1  0  0  0  0
M  END
> <ref_mols>
x2699_0

> <original SMILES>
FC(F)(F)C=1C=CC(=CC1)N(C(C(=O)NC=2C=CC=CC2Br)C=3C=CC=NC3)C(=O)C=C

> <Chemgauss4>
-4.750962

> <ref_pdb>
x1380_0

> <CYS145-warhead dist minimum (A)>
6.795978

> <CYS145-warhead dist mean (A)>
8.064672

> <CYS145-warhead dist stddev (A)>
0.45219824

$$$$
x2531
  -OEChem-05172015543D

 33 35  0     1  0  0  0  0  0999 V2000
    5.9933   -2.1887   29.4026 C   0  0  0  0  0  0  0  0  0  0  0  0
    6.0124   -3.1576   30.4058 C   0  0  0  0  0  0  0  0  0  0  0  0
    4.8105   -5.0808   22.9611 C   0  0  0  0  0  0  0  0  0  0  0  0
    5.7589   -4.4593   23.7659 C   0  0  0  0  0  0  0  0  0  0  0  0
    6.2972   -0.8505   21.6424 C   0  0  0  0  0  0  0  0  0  0  0  0
    7.9823   -1.5689   20.0672 C   0  0  0  0  0  0  0  0  0  0  0  0
    6.4908   -2.4879   28.1343 C   0  0  0  0  0  0  0  0  0  0  0  0
    6.9887   -1.4874   22.6728 C   0  0  0  0  0  0  0  0  0  0  0  0
    8.6739   -2.2058   21.0976 C   0  0  0  0  0  0  0  0  0  0  0  0
    6.5290   -4.4259   30.1407 C   0  0  0  0  0  0  0  0  0  0  0  0
    5.2522   -5.7198   21.8137 C   0  0  0  0  0  0  0  0  0  0  0  0
    7.4400   -5.1607   22.2368 C   0  0  0  0  0  0  0  0  0  0  0  0
    6.7939   -0.8913   20.3396 C   0  0  0  0  0  0  0  0  0  0  0  0
    7.1009   -4.4953   23.4039 C   0  0  0  0  0  0  0  0  0  0  0  0
    8.1771   -2.1651   22.4004 C   0  0  0  0  0  0  0  0  0  0  0  0
    7.0075   -3.7561   27.8692 C   0  0  0  0  0  0  0  0  0  0  0  0
    7.0266   -4.7251   28.8723 C   0  0  0  0  0  0  0  0  0  0  0  0
   12.1249   -3.4015   25.0373 C   0  0  0  0  0  0  0  0  0  0  0  0
   10.8085   -3.1775   24.9749 C   0  0  0  0  0  0  0  0  0  0  0  0
   10.2202   -2.4684   23.8010 C   0  0  0  0  0  0  0  0  0  0  0  0
    7.5443   -3.1538   25.4827 C   0  0  0  0  0  0  0  0  0  0  0  0
    8.1567   -3.8295   24.2584 C   0  0  2  0  0  0  0  0  0  0  0  0
    6.0544   -0.2103   19.2380 C   0  0  0  0  0  0  0  0  0  0  0  0
    6.5471   -5.7760   21.4294 N   0  0  0  0  0  0  0  0  0  0  0  0
    7.5029   -4.0223   26.5706 N   0  0  0  0  0  0  0  0  0  0  0  0
    8.8977   -2.8282   23.4733 N   0  0  0  0  0  0  0  0  0  0  0  0
   10.9085   -1.6436   23.1991 O   0  0  0  0  0  0  0  0  0  0  0  0
    7.1460   -1.9926   25.4466 O   0  0  0  0  0  0  0  0  0  0  0  0
    4.9101    0.4119   19.6495 F   0  0  0  0  0  0  0  0  0  0  0  0
    6.7813    0.7608   18.6100 F   0  0  0  0  0  0  0  0  0  0  0  0
    5.6681   -1.0728   18.2532 F   0  0  0  0  0  0  0  0  0  0  0  0
    7.7212   -6.4654   28.5680 Br  0  0  0  0  0  0  0  0  0  0  0  0
    7.8721   -4.9577   26.4133 H   0  0  0  0  0  0  0  0  0  0  0  0
  1  2  1  0  0  0  0
  1  7  2  0  0  0  0
  2 10  2  0  0  0  0
  3  4  2  0  0  0  0
  3 11  1  0  0  0  0
  4 14  1  0  0  0  0
  5  8  2  0  0  0  0
  5 13  1  0  0  0  0
  6  9  1  0  0  0  0
  6 13  2  0  0  0  0
  7 16  1  0  0  0  0
  8 15  1  0  0  0  0
  9 15  2  0  0  0  0
 10 17  1  0  0  0  0
 11 24  2  0  0  0  0
 12 14  2  0  0  0  0
 12 24  1  0  0  0  0
 13 23  1  0  0  0  0
 14 22  1  0  0  0  0
 15 26  1  0  0  0  0
 16 17  2  0  0  0  0
 16 25  1  0  0  0  0
 17 32  1  0  0  0  0
 18 19  2  0  0  0  0
 19 20  1  0  0  0  0
 20 26  1  0  0  0  0
 20 27  2  0  0  0  0
 21 22  1  0  0  0  0
 21 25  1  0  0  0  0
 21 28  2  0  0  0  0
 22 26  1  0  0  0  0
 23 29  1  0  0  0  0
 23 30  1  0  0  0  0
 23 31  1  0  0  0  0
 25 33  1  0  0  0  0
M  END
> <ref_mols>
x2531_0

> <original SMILES>
FC(F)(F)C=1C=CC(=CC1)N(C(C(=O)NC=2C=CC=CC2Br)C=3C=CC=NC3)C(=O)C=C

> <Chemgauss4>
-4.750962

> <ref_pdb>
x1380_0

$$$$
x0996
  -OEChem-05172015543D

  9  9  0     0  0  0  0  0  0999 V2000
   13.2998   -1.6992   24.0524 C   0  0  0  0  0  0  0  0  0  0  0  0
   11.7433   -2.4886   25.7181 C   0  0  0  0  0  0  0  0  0  0  0  0
   12.8810   -0.2547   24.2884 C   0  0  0  0  0  0  0  0  0  0  0  0
   11.2747   -1.0698   26.0096 C   0  0  0  0  0  0  0  0  0  0  0  0
   13.1332   -2.5216   25.2541 N   0  0  0  0  0  0  0  0  0  0  0  0
   11.4741   -0.2333   24.7885 N   0  3  0  0  0  0  0  0  0  0  0  0
   13.3948   -3.4840   25.0422 H   0  0  0  0  0  0  0  0  0  0  0  0
   11.1948    0.7371   24.9874 H   0  0  0  0  0  0  0  0  0  0  0  0
   10.8416   -0.5589   24.0440 H   0  0  0  0  0  0  0  0  0  0  0  0
  1  3  1  0  0  0  0
  1  5  1  0  0  0  0
  2  4  1  0  0  0  0
  2  5  1  0  0  0  0
  3  6  1  0  0  0  0
  4  6  1  0  0  0  0
  5  7  1  0  0  0  0
  6  8  1  0  0  0  0
  6  9  1  0  0  0  0
M  CHG  1   6   1
M  END
> <ref_mols>
x0996_0

> <original SMILES>
C1CNCCN1

> <Chemgauss4>
-4.675085

> <ref_pdb>
x0354_0

$$$$
x2748
  -OEChem-05172015543D

 26 27  0     0  0  0  0  0  0999 V2000
    7.1122   -0.1512   20.3351 C   0  0  0  0  0  0  0  0  0  0  0  0
    7.2880   -2.4581   21.0308 C   0  0  0  0  0  0  0  0  0  0  0  0
    7.7632   -1.1471   21.0630 C   0  0  0  0  0  0  0  0  0  0  0  0
    5.9858   -0.4662   19.5750 C   0  0  0  0  0  0  0  0  0  0  0  0
    6.1617   -2.7732   20.2706 C   0  0  0  0  0  0  0  0  0  0  0  0
    5.5106   -1.7773   19.5427 C   0  0  0  0  0  0  0  0  0  0  0  0
    9.6691   -1.6888   22.6117 C   0  0  0  0  0  0  0  0  0  0  0  0
   12.5638    2.8489   23.5413 C   0  0  0  0  0  0  0  0  0  0  0  0
   11.7138   -0.3612   22.2033 C   0  0  0  0  0  0  0  0  0  0  0  0
   10.2498    0.1312   24.1960 C   0  0  0  0  0  0  0  0  0  0  0  0
   12.8121    0.4909   22.8339 C   0  0  0  0  0  0  0  0  0  0  0  0
   11.3787    0.9738   24.7863 C   0  0  0  0  0  0  0  0  0  0  0  0
   10.7981   -0.9611   23.2737 C   0  0  0  0  0  0  0  0  0  0  0  0
    5.8043    0.7371   17.5317 C   0  0  0  0  0  0  0  0  0  0  0  0
    6.4295   -5.0148   21.0184 C   0  0  0  0  0  0  0  0  0  0  0  0
    3.1435   -1.9870   19.4493 C   0  0  0  0  0  0  0  0  0  0  0  0
   11.9333    3.8303   24.4967 C   0  0  0  0  0  0  0  0  0  0  0  0
   12.2414    1.5045   23.7233 N   0  0  0  0  0  0  0  0  0  0  0  0
    8.9057   -0.8272   21.8343 N   0  0  0  0  0  0  0  0  0  0  0  0
    9.5114   -2.8932   22.7838 O   0  0  0  0  0  0  0  0  0  0  0  0
   13.3184    3.2666   22.6593 O   0  0  0  0  0  0  0  0  0  0  0  0
    5.3588    0.5152   18.8683 O   0  0  0  0  0  0  0  0  0  0  0  0
    5.7071   -4.0573   20.2469 O   0  0  0  0  0  0  0  0  0  0  0  0
    4.4091   -2.0855   18.8004 O   0  0  0  0  0  0  0  0  0  0  0  0
   12.5406    5.4225   24.0567 Cl  0  0  0  0  0  0  0  0  0  0  0  0
    9.1905    0.1497   21.8071 H   0  0  0  0  0  0  0  0  0  0  0  0
  1  3  1  0  0  0  0
  1  4  2  0  0  0  0
  2  3  2  0  0  0  0
  2  5  1  0  0  0  0
  3 19  1  0  0  0  0
  4  6  1  0  0  0  0
  4 22  1  0  0  0  0
  5  6  2  0  0  0  0
  5 23  1  0  0  0  0
  6 24  1  0  0  0  0
  7 13  1  0  0  0  0
  7 19  1  0  0  0  0
  7 20  2  0  0  0  0
  8 17  1  0  0  0  0
  8 18  1  0  0  0  0
  8 21  2  0  0  0  0
  9 11  1  0  0  0  0
  9 13  1  0  0  0  0
 10 12  1  0  0  0  0
 10 13  1  0  0  0  0
 11 18  1  0  0  0  0
 12 18  1  0  0  0  0
 14 22  1  0  0  0  0
 15 23  1  0  0  0  0
 16 24  1  0  0  0  0
 17 25  1  0  0  0  0
 19 26  1  0  0  0  0
M  END
> <ref_mols>
x2748_0

> <original SMILES>
O=C(C1CCN(C(CCl)=O)CC1)NC2=CC(OC)=C(OC)C(OC)=C2

> <Chemgauss4>
-4.657787

> <ref_pdb>
x0831_0

> <CYS145-warhead dist minimum (A)>
3.3946755

> <CYS145-warhead dist mean (A)>
6.982457

> <CYS145-warhead dist stddev (A)>
0.7868337

$$$$
x2037
  -OEChem-05172015543D

 26 27  0     0  0  0  0  0  0999 V2000
    7.1122   -0.1512   20.3351 C   0  0  0  0  0  0  0  0  0  0  0  0
    7.2880   -2.4581   21.0308 C   0  0  0  0  0  0  0  0  0  0  0  0
    7.7632   -1.1471   21.0630 C   0  0  0  0  0  0  0  0  0  0  0  0
    5.9858   -0.4662   19.5750 C   0  0  0  0  0  0  0  0  0  0  0  0
    6.1617   -2.7732   20.2706 C   0  0  0  0  0  0  0  0  0  0  0  0
    5.5106   -1.7773   19.5427 C   0  0  0  0  0  0  0  0  0  0  0  0
    9.6691   -1.6888   22.6117 C   0  0  0  0  0  0  0  0  0  0  0  0
   12.5638    2.8489   23.5413 C   0  0  0  0  0  0  0  0  0  0  0  0
   11.7138   -0.3612   22.2033 C   0  0  0  0  0  0  0  0  0  0  0  0
   10.2498    0.1312   24.1960 C   0  0  0  0  0  0  0  0  0  0  0  0
   12.8121    0.4909   22.8339 C   0  0  0  0  0  0  0  0  0  0  0  0
   11.3787    0.9738   24.7863 C   0  0  0  0  0  0  0  0  0  0  0  0
   10.7981   -0.9611   23.2737 C   0  0  0  0  0  0  0  0  0  0  0  0
    5.8043    0.7371   17.5317 C   0  0  0  0  0  0  0  0  0  0  0  0
    6.4295   -5.0148   21.0184 C   0  0  0  0  0  0  0  0  0  0  0  0
    3.1435   -1.9870   19.4493 C   0  0  0  0  0  0  0  0  0  0  0  0
   11.9333    3.8303   24.4967 C   0  0  0  0  0  0  0  0  0  0  0  0
   12.2414    1.5045   23.7233 N   0  0  0  0  0  0  0  0  0  0  0  0
    8.9057   -0.8272   21.8343 N   0  0  0  0  0  0  0  0  0  0  0  0
    9.5114   -2.8932   22.7838 O   0  0  0  0  0  0  0  0  0  0  0  0
   13.3184    3.2666   22.6593 O   0  0  0  0  0  0  0  0  0  0  0  0
    5.3588    0.5152   18.8683 O   0  0  0  0  0  0  0  0  0  0  0  0
    5.7071   -4.0573   20.2469 O   0  0  0  0  0  0  0  0  0  0  0  0
    4.4091   -2.0855   18.8004 O   0  0  0  0  0  0  0  0  0  0  0  0
   12.5406    5.4225   24.0567 Cl  0  0  0  0  0  0  0  0  0  0  0  0
    9.1905    0.1497   21.8071 H   0  0  0  0  0  0  0  0  0  0  0  0
  1  3  1  0  0  0  0
  1  4  2  0  0  0  0
  2  3  2  0  0  0  0
  2  5  1  0  0  0  0
  3 19  1  0  0  0  0
  4  6  1  0  0  0  0
  4 22  1  0  0  0  0
  5  6  2  0  0  0  0
  5 23  1  0  0  0  0
  6 24  1  0  0  0  0
  7 13  1  0  0  0  0
  7 19  1  0  0  0  0
  7 20  2  0  0  0  0
  8 17  1  0  0  0  0
  8 18  1  0  0  0  0
  8 21  2  0  0  0  0
  9 11  1  0  0  0  0
  9 13  1  0  0  0  0
 10 12  1  0  0  0  0
 10 13  1  0  0  0  0
 11 18  1  0  0  0  0
 12 18  1  0  0  0  0
 14 22  1  0  0  0  0
 15 23  1  0  0  0  0
 16 24  1  0  0  0  0
 17 25  1  0  0  0  0
 19 26  1  0  0  0  0
M  END
> <ref_mols>
x2037_0

> <original SMILES>
O=C(C1CCN(C(CCl)=O)CC1)NC2=CC(OC)=C(OC)C(OC)=C2

> <Chemgauss4>
-4.657787

> <ref_pdb>
x0831_0

$$$$
x2679
  -OEChem-05172015543D

 35 37  0     1  0  0  0  0  0999 V2000
    5.3204   -1.6236   18.0321 C   0  0  0  0  0  0  0  0  0  0  0  0
    8.7235   -3.9649   24.9747 C   0  0  0  0  0  0  0  0  0  0  0  0
    5.7623   -2.6758   18.8340 C   0  0  0  0  0  0  0  0  0  0  0  0
    5.6573   -0.3096   18.3574 C   0  0  0  0  0  0  0  0  0  0  0  0
    9.0286   -3.1036   23.9266 C   0  0  0  0  0  0  0  0  0  0  0  0
   11.0621    3.1892   22.8787 C   0  0  0  0  0  0  0  0  0  0  0  0
   13.0553    2.3542   23.9588 C   0  0  0  0  0  0  0  0  0  0  0  0
   10.6103    1.8815   22.7014 C   0  0  0  0  0  0  0  0  0  0  0  0
   12.6036    1.0465   23.7816 C   0  0  0  0  0  0  0  0  0  0  0  0
    8.5278   -3.4139   26.2308 C   0  0  0  0  0  0  0  0  0  0  0  0
    8.9133   -1.2858   25.4558 C   0  0  0  0  0  0  0  0  0  0  0  0
   12.2846    3.4256   23.5074 C   0  0  0  0  0  0  0  0  0  0  0  0
    9.1273   -1.7371   24.1634 C   0  0  0  0  0  0  0  0  0  0  0  0
    6.5409   -2.4142   19.9614 C   0  0  0  0  0  0  0  0  0  0  0  0
    6.4359   -0.0480   19.4848 C   0  0  0  0  0  0  0  0  0  0  0  0
   11.3810    0.8102   23.1528 C   0  0  0  0  0  0  0  0  0  0  0  0
    6.8777   -1.1002   20.2868 C   0  0  0  0  0  0  0  0  0  0  0  0
   13.0434   -0.8389   20.8356 C   0  0  0  0  0  0  0  0  0  0  0  0
   13.0784   -1.2986   22.0904 C   0  0  0  0  0  0  0  0  0  0  0  0
   11.8113   -1.6238   22.8087 C   0  0  0  0  0  0  0  0  0  0  0  0
    8.9573   -1.2873   21.6962 C   0  0  0  0  0  0  0  0  0  0  0  0
    6.9992   -3.5625   20.8010 C   0  0  0  0  0  0  0  0  0  0  0  0
    5.9359    1.9246   20.9496 C   0  0  0  0  0  0  0  0  0  0  0  0
    6.7802    1.3702   19.8066 C   0  0  0  0  0  0  0  0  0  0  0  0
    9.4571   -0.7741   23.0443 C   0  0  2  0  0  0  0  0  0  0  0  0
   12.7676    4.8238   23.6968 C   0  0  0  0  0  0  0  0  0  0  0  0
    8.6151   -2.0919   26.4994 N   0  0  0  0  0  0  0  0  0  0  0  0
    7.6673   -0.8346   21.4307 N   0  0  0  0  0  0  0  0  0  0  0  0
   10.9107   -0.5518   22.9686 N   0  0  0  0  0  0  0  0  0  0  0  0
   11.6379   -2.7725   23.2168 O   0  0  0  0  0  0  0  0  0  0  0  0
    9.6478   -2.0141   20.9868 O   0  0  0  0  0  0  0  0  0  0  0  0
   11.9124    5.7696   23.2069 F   0  0  0  0  0  0  0  0  0  0  0  0
   12.9611    5.1628   25.0058 F   0  0  0  0  0  0  0  0  0  0  0  0
   13.9621    5.0551   23.0784 F   0  0  0  0  0  0  0  0  0  0  0  0
    7.2429   -0.2437   22.1425 H   0  0  0  0  0  0  0  0  0  0  0  0
  1  3  1  0  0  0  0
  1  4  2  0  0  0  0
  2  5  2  0  0  0  0
  2 10  1  0  0  0  0
  3 14  2  0  0  0  0
  4 15  1  0  0  0  0
  5 13  1  0  0  0  0
  6  8  2  0  0  0  0
  6 12  1  0  0  0  0
  7  9  1  0  0  0  0
  7 12  2  0  0  0  0
  8 16  1  0  0  0  0
  9 16  2  0  0  0  0
 10 27  2  0  0  0  0
 11 13  2  0  0  0  0
 11 27  1  0  0  0  0
 12 26  1  0  0  0  0
 13 25  1  0  0  0  0
 14 17  1  0  0  0  0
 14 22  1  0  0  0  0
 15 17  2  0  0  0  0
 15 24  1  0  0  0  0
 16 29  1  0  0  0  0
 17 28  1  0  0  0  0
 18 19  2  0  0  0  0
 19 20  1  0  0  0  0
 20 29  1  0  0  0  0
 20 30  2  0  0  0  0
 21 25  1  0  0  0  0
 21 28  1  0  0  0  0
 21 31  2  0  0  0  0
 23 24  1  0  0  0  0
 25 29  1  0  0  0  0
 26 32  1  0  0  0  0
 26 33  1  0  0  0  0
 26 34  1  0  0  0  0
 28 35  1  0  0  0  0
M  END
> <ref_mols>
x2679_0

> <original SMILES>
CCC=1C=CC=C(C)C1NC(=O)C(N(C(=O)C=C)C=2C=CC(=CC2)C(F)(F)F)C=3C=CC=NC3

> <Chemgauss4>
-4.642575

> <ref_pdb>
x0831_0

> <CYS145-warhead dist minimum (A)>
4.5687666

> <CYS145-warhead dist mean (A)>
6.3873196

> <CYS145-warhead dist stddev (A)>
0.6025123

$$$$
x2511
  -OEChem-05172015543D

 35 37  0     1  0  0  0  0  0999 V2000
    5.3204   -1.6236   18.0321 C   0  0  0  0  0  0  0  0  0  0  0  0
    8.7235   -3.9649   24.9747 C   0  0  0  0  0  0  0  0  0  0  0  0
    5.7623   -2.6758   18.8340 C   0  0  0  0  0  0  0  0  0  0  0  0
    5.6573   -0.3096   18.3574 C   0  0  0  0  0  0  0  0  0  0  0  0
    9.0286   -3.1036   23.9266 C   0  0  0  0  0  0  0  0  0  0  0  0
   11.0621    3.1892   22.8787 C   0  0  0  0  0  0  0  0  0  0  0  0
   13.0553    2.3542   23.9588 C   0  0  0  0  0  0  0  0  0  0  0  0
   10.6103    1.8815   22.7014 C   0  0  0  0  0  0  0  0  0  0  0  0
   12.6036    1.0465   23.7816 C   0  0  0  0  0  0  0  0  0  0  0  0
    8.5278   -3.4139   26.2308 C   0  0  0  0  0  0  0  0  0  0  0  0
    8.9133   -1.2858   25.4558 C   0  0  0  0  0  0  0  0  0  0  0  0
   12.2846    3.4256   23.5074 C   0  0  0  0  0  0  0  0  0  0  0  0
    9.1273   -1.7371   24.1634 C   0  0  0  0  0  0  0  0  0  0  0  0
    6.5409   -2.4142   19.9614 C   0  0  0  0  0  0  0  0  0  0  0  0
    6.4359   -0.0480   19.4848 C   0  0  0  0  0  0  0  0  0  0  0  0
   11.3810    0.8102   23.1528 C   0  0  0  0  0  0  0  0  0  0  0  0
    6.8777   -1.1002   20.2868 C   0  0  0  0  0  0  0  0  0  0  0  0
   13.0434   -0.8389   20.8356 C   0  0  0  0  0  0  0  0  0  0  0  0
   13.0784   -1.2986   22.0904 C   0  0  0  0  0  0  0  0  0  0  0  0
   11.8113   -1.6238   22.8087 C   0  0  0  0  0  0  0  0  0  0  0  0
    8.9573   -1.2873   21.6962 C   0  0  0  0  0  0  0  0  0  0  0  0
    6.9992   -3.5625   20.8010 C   0  0  0  0  0  0  0  0  0  0  0  0
    5.9359    1.9246   20.9496 C   0  0  0  0  0  0  0  0  0  0  0  0
    6.7802    1.3702   19.8066 C   0  0  0  0  0  0  0  0  0  0  0  0
    9.4571   -0.7741   23.0443 C   0  0  2  0  0  0  0  0  0  0  0  0
   12.7676    4.8238   23.6968 C   0  0  0  0  0  0  0  0  0  0  0  0
    8.6151   -2.0919   26.4994 N   0  0  0  0  0  0  0  0  0  0  0  0
    7.6673   -0.8346   21.4307 N   0  0  0  0  0  0  0  0  0  0  0  0
   10.9107   -0.5518   22.9686 N   0  0  0  0  0  0  0  0  0  0  0  0
   11.6379   -2.7725   23.2168 O   0  0  0  0  0  0  0  0  0  0  0  0
    9.6478   -2.0141   20.9868 O   0  0  0  0  0  0  0  0  0  0  0  0
   11.9124    5.7696   23.2069 F   0  0  0  0  0  0  0  0  0  0  0  0
   12.9611    5.1628   25.0058 F   0  0  0  0  0  0  0  0  0  0  0  0
   13.9621    5.0551   23.0784 F   0  0  0  0  0  0  0  0  0  0  0  0
    7.2429   -0.2437   22.1425 H   0  0  0  0  0  0  0  0  0  0  0  0
  1  3  1  0  0  0  0
  1  4  2  0  0  0  0
  2  5  2  0  0  0  0
  2 10  1  0  0  0  0
  3 14  2  0  0  0  0
  4 15  1  0  0  0  0
  5 13  1  0  0  0  0
  6  8  2  0  0  0  0
  6 12  1  0  0  0  0
  7  9  1  0  0  0  0
  7 12  2  0  0  0  0
  8 16  1  0  0  0  0
  9 16  2  0  0  0  0
 10 27  2  0  0  0  0
 11 13  2  0  0  0  0
 11 27  1  0  0  0  0
 12 26  1  0  0  0  0
 13 25  1  0  0  0  0
 14 17  1  0  0  0  0
 14 22  1  0  0  0  0
 15 17  2  0  0  0  0
 15 24  1  0  0  0  0
 16 29  1  0  0  0  0
 17 28  1  0  0  0  0
 18 19  2  0  0  0  0
 19 20  1  0  0  0  0
 20 29  1  0  0  0  0
 20 30  2  0  0  0  0
 21 25  1  0  0  0  0
 21 28  1  0  0  0  0
 21 31  2  0  0  0  0
 23 24  1  0  0  0  0
 25 29  1  0  0  0  0
 26 32  1  0  0  0  0
 26 33  1  0  0  0  0
 26 34  1  0  0  0  0
 28 35  1  0  0  0  0
M  END
> <ref_mols>
x2511_0

> <original SMILES>
CCC=1C=CC=C(C)C1NC(=O)C(N(C(=O)C=C)C=2C=CC(=CC2)C(F)(F)F)C=3C=CC=NC3

> <Chemgauss4>
-4.642575

> <ref_pdb>
x0831_0

$$$$
x1047
  -OEChem-05172015543D

  6  6  0     0  0  0  0  0  0999 V2000
   12.0880   -1.5614   22.6985 C   0  0  0  0  0  0  0  0  0  0  0  0
   12.1946   -0.1062   23.2040 C   0  0  0  0  0  0  0  0  0  0  0  0
   13.3592   -1.4102   21.8348 C   0  0  0  0  0  0  0  0  0  0  0  0
   14.4047    1.0148   22.2155 O   0  0  0  0  0  0  0  0  0  0  0  0
   14.6468   -0.7147   24.0686 O   0  0  0  0  0  0  0  0  0  0  0  0
   13.9436   -0.1526   22.9351 S   0  0  0  0  0  0  0  0  0  0  0  0
  1  2  1  0  0  0  0
  1  3  1  0  0  0  0
  2  6  1  0  0  0  0
  3  6  1  0  0  0  0
  4  6  2  0  0  0  0
  5  6  2  0  0  0  0
M  END
> <ref_mols>
x1047_0

> <original SMILES>
O=S1(=O)CCC1

> <Chemgauss4>
-4.558659

> <ref_pdb>
x0195_0

$$$$
x2871
  -OEChem-05172015543D

 34 37  0     1  0  0  0  0  0999 V2000
    7.6839   -0.2176   18.0517 C   0  0  0  0  0  0  0  0  0  0  0  0
    5.0197   -5.4739   21.9660 C   0  0  0  0  0  0  0  0  0  0  0  0
   11.4361   -1.2977   24.4363 C   0  0  0  0  0  0  0  0  0  0  0  0
   11.9426   -3.3087   25.6758 C   0  0  0  0  0  0  0  0  0  0  0  0
    6.1626   -4.6833   21.9230 C   0  0  0  0  0  0  0  0  0  0  0  0
    7.8253   -0.9693   19.2181 C   0  0  0  0  0  0  0  0  0  0  0  0
   10.3937   -1.9599   23.7879 C   0  0  0  0  0  0  0  0  0  0  0  0
   10.9001   -3.9709   25.0275 C   0  0  0  0  0  0  0  0  0  0  0  0
    6.5451    0.5646   17.8598 C   0  0  0  0  0  0  0  0  0  0  0  0
    4.3665   -5.6041   23.1809 C   0  0  0  0  0  0  0  0  0  0  0  0
    5.8865   -4.2493   24.2450 C   0  0  0  0  0  0  0  0  0  0  0  0
   12.2107   -1.9721   25.3802 C   0  0  0  0  0  0  0  0  0  0  0  0
    6.6111   -4.0558   23.0799 C   0  0  0  0  0  0  0  0  0  0  0  0
    5.6889   -0.1566   20.0008 C   0  0  0  0  0  0  0  0  0  0  0  0
   10.1256   -3.2964   24.0835 C   0  0  0  0  0  0  0  0  0  0  0  0
    6.8278   -0.9388   20.1927 C   0  0  0  0  0  0  0  0  0  0  0  0
    5.5476    0.5951   18.8343 C   0  0  0  0  0  0  0  0  0  0  0  0
   10.7368   -7.1928   23.2394 C   0  0  0  0  0  0  0  0  0  0  0  0
   10.4469   -5.9329   22.8992 C   0  0  0  0  0  0  0  0  0  0  0  0
    9.0895   -5.3739   23.1678 C   0  0  0  0  0  0  0  0  0  0  0  0
    8.0617   -2.5328   21.7036 C   0  0  0  0  0  0  0  0  0  0  0  0
   14.4473   -0.7015   25.2205 C   0  0  0  0  0  0  0  0  0  0  0  0
   14.6959   -1.9155   26.0598 C   0  0  0  0  0  0  0  0  0  0  0  0
   13.3244   -1.2648   26.0728 C   0  0  0  0  0  0  0  0  0  0  0  0
    4.6064   -0.1071   21.0298 C   0  0  0  0  0  0  0  0  0  0  0  0
   12.9235   -0.4969   27.3018 C   0  0  0  0  0  0  0  0  0  0  0  0
    7.8506   -3.1888   23.0658 C   0  0  2  0  0  0  0  0  0  0  0  0
    4.7719   -5.0101   24.3256 N   0  0  0  0  0  0  0  0  0  0  0  0
    6.9902   -1.7086   21.3690 N   0  0  0  0  0  0  0  0  0  0  0  0
    9.0401   -3.9862   23.4082 N   0  0  0  0  0  0  0  0  0  0  0  0
    8.1233   -6.1371   23.1743 O   0  0  0  0  0  0  0  0  0  0  0  0
    9.0648   -2.7534   21.0302 O   0  0  0  0  0  0  0  0  0  0  0  0
    4.4572    1.3502   18.6399 F   0  0  0  0  0  0  0  0  0  0  0  0
    6.2357   -1.6534   22.0500 H   0  0  0  0  0  0  0  0  0  0  0  0
  1  6  2  0  0  0  0
  1  9  1  0  0  0  0
  2  5  2  0  0  0  0
  2 10  1  0  0  0  0
  3  7  2  0  0  0  0
  3 12  1  0  0  0  0
  4  8  1  0  0  0  0
  4 12  2  0  0  0  0
  5 13  1  0  0  0  0
  6 16  1  0  0  0  0
  7 15  1  0  0  0  0
  8 15  2  0  0  0  0
  9 17  2  0  0  0  0
 10 28  2  0  0  0  0
 11 13  2  0  0  0  0
 11 28  1  0  0  0  0
 12 24  1  0  0  0  0
 13 27  1  0  0  0  0
 14 16  2  0  0  0  0
 14 17  1  0  0  0  0
 14 25  1  0  0  0  0
 15 30  1  0  0  0  0
 16 29  1  0  0  0  0
 17 33  1  0  0  0  0
 18 19  2  0  0  0  0
 19 20  1  0  0  0  0
 20 30  1  0  0  0  0
 20 31  2  0  0  0  0
 21 27  1  0  0  0  0
 21 29  1  0  0  0  0
 21 32  2  0  0  0  0
 22 23  1  0  0  0  0
 22 24  1  0  0  0  0
 23 24  1  0  0  0  0
 24 26  1  0  0  0  0
 27 30  1  0  0  0  0
 29 34  1  0  0  0  0
M  END
> <ref_mols>
x2871_0

> <original SMILES>
CC=1C(F)=CC=CC1NC(=O)C(N(C(=O)C=C)C=2C=CC(=CC2)C3(C)CC3)C=4C=CC=NC4

> <Chemgauss4>
-4.542414

> <ref_pdb>
x0749_0

$$$$
x2867
  -OEChem-05172015543D

 34 36  0     1  0  0  0  0  0999 V2000
    6.3986   -2.1589   29.3483 C   0  0  0  0  0  0  0  0  0  0  0  0
    6.4265   -5.9138   21.4694 C   0  0  0  0  0  0  0  0  0  0  0  0
    7.4400   -5.2356   22.1373 C   0  0  0  0  0  0  0  0  0  0  0  0
    6.1304   -0.9413   21.5085 C   0  0  0  0  0  0  0  0  0  0  0  0
    7.7499   -1.6311   19.8536 C   0  0  0  0  0  0  0  0  0  0  0  0
    6.8048   -2.4507   28.0461 C   0  0  0  0  0  0  0  0  0  0  0  0
    6.8997   -1.5353   22.5089 C   0  0  0  0  0  0  0  0  0  0  0  0
    8.5192   -2.2251   20.8541 C   0  0  0  0  0  0  0  0  0  0  0  0
    6.5603   -3.1073   30.3583 C   0  0  0  0  0  0  0  0  0  0  0  0
    5.1540   -5.8807   22.0167 C   0  0  0  0  0  0  0  0  0  0  0  0
    5.8491   -4.5823   23.7800 C   0  0  0  0  0  0  0  0  0  0  0  0
    6.5555   -0.9892   20.1808 C   0  0  0  0  0  0  0  0  0  0  0  0
    7.1542   -4.5547   23.3155 C   0  0  0  0  0  0  0  0  0  0  0  0
    7.5341   -4.6392   28.7640 C   0  0  0  0  0  0  0  0  0  0  0  0
    8.0941   -2.1772   22.1818 C   0  0  0  0  0  0  0  0  0  0  0  0
    7.3725   -3.6908   27.7540 C   0  0  0  0  0  0  0  0  0  0  0  0
    7.1280   -4.3475   30.0661 C   0  0  0  0  0  0  0  0  0  0  0  0
   12.2282   -3.2504   24.5885 C   0  0  0  0  0  0  0  0  0  0  0  0
   10.9033   -3.0735   24.6056 C   0  0  0  0  0  0  0  0  0  0  0  0
   10.2209   -2.3853   23.4707 C   0  0  0  0  0  0  0  0  0  0  0  0
    7.6833   -3.1302   25.3177 C   0  0  0  0  0  0  0  0  0  0  0  0
    8.1396   -5.9749   28.4763 C   0  0  0  0  0  0  0  0  0  0  0  0
    5.5588    1.1756   19.3647 C   0  0  0  0  0  0  0  0  0  0  0  0
    4.3074   -0.9848   19.0438 C   0  0  0  0  0  0  0  0  0  0  0  0
    6.3093   -0.4727   17.6612 C   0  0  0  0  0  0  0  0  0  0  0  0
    8.2345   -3.8069   24.0652 C   0  0  2  0  0  0  0  0  0  0  0  0
    5.7074   -0.3343   19.0780 C   0  0  0  0  0  0  0  0  0  0  0  0
    4.8381   -5.2302   23.1589 N   0  0  0  0  0  0  0  0  0  0  0  0
    7.7779   -3.9673   26.4267 N   0  0  0  0  0  0  0  0  0  0  0  0
    8.8639   -2.7713   23.1822 N   0  0  0  0  0  0  0  0  0  0  0  0
   10.8471   -1.5476   22.8210 O   0  0  0  0  0  0  0  0  0  0  0  0
    7.2176   -1.9943   25.2849 O   0  0  0  0  0  0  0  0  0  0  0  0
    7.2788   -5.2517   31.0442 F   0  0  0  0  0  0  0  0  0  0  0  0
    8.1864   -4.8852   26.2634 H   0  0  0  0  0  0  0  0  0  0  0  0
  1  6  2  0  0  0  0
  1  9  1  0  0  0  0
  2  3  2  0  0  0  0
  2 10  1  0  0  0  0
  3 13  1  0  0  0  0
  4  7  2  0  0  0  0
  4 12  1  0  0  0  0
  5  8  1  0  0  0  0
  5 12  2  0  0  0  0
  6 16  1  0  0  0  0
  7 15  1  0  0  0  0
  8 15  2  0  0  0  0
  9 17  2  0  0  0  0
 10 28  2  0  0  0  0
 11 13  2  0  0  0  0
 11 28  1  0  0  0  0
 12 27  1  0  0  0  0
 13 26  1  0  0  0  0
 14 16  2  0  0  0  0
 14 17  1  0  0  0  0
 14 22  1  0  0  0  0
 15 30  1  0  0  0  0
 16 29  1  0  0  0  0
 17 33  1  0  0  0  0
 18 19  2  0  0  0  0
 19 20  1  0  0  0  0
 20 30  1  0  0  0  0
 20 31  2  0  0  0  0
 21 26  1  0  0  0  0
 21 29  1  0  0  0  0
 21 32  2  0  0  0  0
 23 27  1  0  0  0  0
 24 27  1  0  0  0  0
 25 27  1  0  0  0  0
 26 30  1  0  0  0  0
 29 34  1  0  0  0  0
M  END
> <ref_mols>
x2867_0

> <original SMILES>
CC=1C(F)=CC=CC1NC(=O)C(N(C(=O)C=C)C=2C=CC(=CC2)C(C)(C)C)C=3C=CC=NC3

> <Chemgauss4>
-4.508196

> <ref_pdb>
x1380_0

> <CYS145-warhead dist minimum (A)>
13.693547

> <CYS145-warhead dist mean (A)>
15.238801

> <CYS145-warhead dist stddev (A)>
0.51315874

$$$$
x2043
  -OEChem-05172015543D

 28 31  0     0  0  0  0  0  0999 V2000
   15.3877    0.2756   26.1386 C   0  0  0  0  0  0  0  0  0  0  0  0
   14.9272    1.1660   25.1717 C   0  0  0  0  0  0  0  0  0  0  0  0
   14.7355   -0.9433   26.3569 C   0  0  0  0  0  0  0  0  0  0  0  0
   12.6345   -3.6065   26.2532 C   0  0  0  0  0  0  0  0  0  0  0  0
   13.8045    0.8673   24.3952 C   0  0  0  0  0  0  0  0  0  0  0  0
   11.6108   -4.5121   25.9523 C   0  0  0  0  0  0  0  0  0  0  0  0
   10.7321   -3.0274   24.2436 C   0  0  0  0  0  0  0  0  0  0  0  0
   13.5995   -1.2676   25.5858 C   0  0  0  0  0  0  0  0  0  0  0  0
   12.7135   -2.3907   25.5421 C   0  0  0  0  0  0  0  0  0  0  0  0
   13.1628   -0.3552   24.6251 C   0  0  0  0  0  0  0  0  0  0  0  0
   11.7613   -2.1318   24.5560 C   0  0  0  0  0  0  0  0  0  0  0  0
   10.6747   -4.2247   24.9619 C   0  0  0  0  0  0  0  0  0  0  0  0
    8.6384   -5.0411   23.7326 C   0  0  0  0  0  0  0  0  0  0  0  0
    3.6850   -5.8308   22.7841 C   0  0  0  0  0  0  0  0  0  0  0  0
    6.6265   -6.0723   24.7719 C   0  0  0  0  0  0  0  0  0  0  0  0
    7.2023   -6.5448   22.3412 C   0  0  0  0  0  0  0  0  0  0  0  0
    5.5246   -5.1334   24.2841 C   0  0  0  0  0  0  0  0  0  0  0  0
    6.0689   -5.6047   21.9286 C   0  0  0  0  0  0  0  0  0  0  0  0
    7.7471   -6.2487   23.7422 C   0  0  0  0  0  0  0  0  0  0  0  0
    2.9393   -6.3698   23.9788 C   0  0  0  0  0  0  0  0  0  0  0  0
   12.0551   -0.9002   24.0199 N   0  0  0  0  0  0  0  0  0  0  0  0
    5.0372   -5.5453   22.9684 N   0  0  0  0  0  0  0  0  0  0  0  0
    9.6490   -5.1574   24.6785 N   0  0  0  0  0  0  0  0  0  0  0  0
    8.4332   -4.1151   22.9545 O   0  0  0  0  0  0  0  0  0  0  0  0
    3.0815   -5.6673   21.7205 O   0  0  0  0  0  0  0  0  0  0  0  0
    3.7159   -7.8881   24.4143 Cl  0  0  0  0  0  0  0  0  0  0  0  0
   11.5275   -0.4553   23.2816 H   0  0  0  0  0  0  0  0  0  0  0  0
    9.6654   -6.0070   25.2388 H   0  0  0  0  0  0  0  0  0  0  0  0
  1  2  2  0  0  0  0
  1  3  1  0  0  0  0
  2  5  1  0  0  0  0
  3  8  2  0  0  0  0
  4  6  2  0  0  0  0
  4  9  1  0  0  0  0
  5 10  2  0  0  0  0
  6 12  1  0  0  0  0
  7 11  1  0  0  0  0
  7 12  2  0  0  0  0
  8  9  1  0  0  0  0
  8 10  1  0  0  0  0
  9 11  2  0  0  0  0
 10 21  1  0  0  0  0
 11 21  1  0  0  0  0
 12 23  1  0  0  0  0
 13 19  1  0  0  0  0
 13 23  1  0  0  0  0
 13 24  2  0  0  0  0
 14 20  1  0  0  0  0
 14 22  1  0  0  0  0
 14 25  2  0  0  0  0
 15 17  1  0  0  0  0
 15 19  1  0  0  0  0
 16 18  1  0  0  0  0
 16 19  1  0  0  0  0
 17 22  1  0  0  0  0
 18 22  1  0  0  0  0
 20 26  1  0  0  0  0
 21 27  1  0  0  0  0
 23 28  1  0  0  0  0
M  END
> <ref_mols>
x2043_0

> <original SMILES>
O=C(C1CCN(C(CCl)=O)CC1)NC2=CC=C3C(NC4=C3C=CC=C4)=C2

> <Chemgauss4>
-4.445636

> <ref_pdb>
x0749_0

> <CYS145-warhead dist minimum (A)>
15.139418

> <CYS145-warhead dist mean (A)>
15.998901

> <CYS145-warhead dist stddev (A)>
0.36931077

$$$$
x2740
  -OEChem-05172015543D

 28 31  0     0  0  0  0  0  0999 V2000
   15.3877    0.2756   26.1386 C   0  0  0  0  0  0  0  0  0  0  0  0
   14.9272    1.1660   25.1717 C   0  0  0  0  0  0  0  0  0  0  0  0
   14.7355   -0.9433   26.3569 C   0  0  0  0  0  0  0  0  0  0  0  0
   12.6345   -3.6065   26.2532 C   0  0  0  0  0  0  0  0  0  0  0  0
   13.8045    0.8673   24.3952 C   0  0  0  0  0  0  0  0  0  0  0  0
   11.6108   -4.5121   25.9523 C   0  0  0  0  0  0  0  0  0  0  0  0
   10.7321   -3.0274   24.2436 C   0  0  0  0  0  0  0  0  0  0  0  0
   13.5995   -1.2676   25.5858 C   0  0  0  0  0  0  0  0  0  0  0  0
   12.7135   -2.3907   25.5421 C   0  0  0  0  0  0  0  0  0  0  0  0
   13.1628   -0.3552   24.6251 C   0  0  0  0  0  0  0  0  0  0  0  0
   11.7613   -2.1318   24.5560 C   0  0  0  0  0  0  0  0  0  0  0  0
   10.6747   -4.2247   24.9619 C   0  0  0  0  0  0  0  0  0  0  0  0
    8.6384   -5.0411   23.7326 C   0  0  0  0  0  0  0  0  0  0  0  0
    3.6850   -5.8308   22.7841 C   0  0  0  0  0  0  0  0  0  0  0  0
    6.6265   -6.0723   24.7719 C   0  0  0  0  0  0  0  0  0  0  0  0
    7.2023   -6.5448   22.3412 C   0  0  0  0  0  0  0  0  0  0  0  0
    5.5246   -5.1334   24.2841 C   0  0  0  0  0  0  0  0  0  0  0  0
    6.0689   -5.6047   21.9286 C   0  0  0  0  0  0  0  0  0  0  0  0
    7.7471   -6.2487   23.7422 C   0  0  0  0  0  0  0  0  0  0  0  0
    2.9393   -6.3698   23.9788 C   0  0  0  0  0  0  0  0  0  0  0  0
   12.0551   -0.9002   24.0199 N   0  0  0  0  0  0  0  0  0  0  0  0
    5.0372   -5.5453   22.9684 N   0  0  0  0  0  0  0  0  0  0  0  0
    9.6490   -5.1574   24.6785 N   0  0  0  0  0  0  0  0  0  0  0  0
    8.4332   -4.1151   22.9545 O   0  0  0  0  0  0  0  0  0  0  0  0
    3.0815   -5.6673   21.7205 O   0  0  0  0  0  0  0  0  0  0  0  0
    3.7159   -7.8881   24.4143 Cl  0  0  0  0  0  0  0  0  0  0  0  0
   11.5275   -0.4553   23.2816 H   0  0  0  0  0  0  0  0  0  0  0  0
    9.6654   -6.0070   25.2388 H   0  0  0  0  0  0  0  0  0  0  0  0
  1  2  2  0  0  0  0
  1  3  1  0  0  0  0
  2  5  1  0  0  0  0
  3  8  2  0  0  0  0
  4  6  2  0  0  0  0
  4  9  1  0  0  0  0
  5 10  2  0  0  0  0
  6 12  1  0  0  0  0
  7 11  1  0  0  0  0
  7 12  2  0  0  0  0
  8  9  1  0  0  0  0
  8 10  1  0  0  0  0
  9 11  2  0  0  0  0
 10 21  1  0  0  0  0
 11 21  1  0  0  0  0
 12 23  1  0  0  0  0
 13 19  1  0  0  0  0
 13 23  1  0  0  0  0
 13 24  2  0  0  0  0
 14 20  1  0  0  0  0
 14 22  1  0  0  0  0
 14 25  2  0  0  0  0
 15 17  1  0  0  0  0
 15 19  1  0  0  0  0
 16 18  1  0  0  0  0
 16 19  1  0  0  0  0
 17 22  1  0  0  0  0
 18 22  1  0  0  0  0
 20 26  1  0  0  0  0
 21 27  1  0  0  0  0
 23 28  1  0  0  0  0
M  END
> <ref_mols>
x2740_0

> <original SMILES>
O=C(C1CCN(C(CCl)=O)CC1)NC2=CC=C3C(NC4=C3C=CC=C4)=C2

> <Chemgauss4>
-4.445636

> <ref_pdb>
x0749_0

> <CYS145-warhead dist minimum (A)>
13.82402

> <CYS145-warhead dist mean (A)>
16.575428

> <CYS145-warhead dist stddev (A)>
0.6367346

$$$$
x2722
  -OEChem-05172015543D

 28 31  0     0  0  0  0  0  0999 V2000
   15.3877    0.2756   26.1386 C   0  0  0  0  0  0  0  0  0  0  0  0
   14.9272    1.1660   25.1717 C   0  0  0  0  0  0  0  0  0  0  0  0
   14.7355   -0.9433   26.3569 C   0  0  0  0  0  0  0  0  0  0  0  0
   12.6345   -3.6065   26.2532 C   0  0  0  0  0  0  0  0  0  0  0  0
   13.8045    0.8673   24.3952 C   0  0  0  0  0  0  0  0  0  0  0  0
   11.6108   -4.5121   25.9523 C   0  0  0  0  0  0  0  0  0  0  0  0
   10.7321   -3.0274   24.2436 C   0  0  0  0  0  0  0  0  0  0  0  0
   13.5995   -1.2676   25.5858 C   0  0  0  0  0  0  0  0  0  0  0  0
   12.7135   -2.3907   25.5421 C   0  0  0  0  0  0  0  0  0  0  0  0
   13.1628   -0.3552   24.6251 C   0  0  0  0  0  0  0  0  0  0  0  0
   11.7613   -2.1318   24.5560 C   0  0  0  0  0  0  0  0  0  0  0  0
   10.6747   -4.2247   24.9619 C   0  0  0  0  0  0  0  0  0  0  0  0
    8.6384   -5.0411   23.7326 C   0  0  0  0  0  0  0  0  0  0  0  0
    3.6850   -5.8308   22.7841 C   0  0  0  0  0  0  0  0  0  0  0  0
    6.6265   -6.0723   24.7719 C   0  0  0  0  0  0  0  0  0  0  0  0
    7.2023   -6.5448   22.3412 C   0  0  0  0  0  0  0  0  0  0  0  0
    5.5246   -5.1334   24.2841 C   0  0  0  0  0  0  0  0  0  0  0  0
    6.0689   -5.6047   21.9286 C   0  0  0  0  0  0  0  0  0  0  0  0
    7.7471   -6.2487   23.7422 C   0  0  0  0  0  0  0  0  0  0  0  0
    2.9393   -6.3698   23.9788 C   0  0  0  0  0  0  0  0  0  0  0  0
   12.0551   -0.9002   24.0199 N   0  0  0  0  0  0  0  0  0  0  0  0
    5.0372   -5.5453   22.9684 N   0  0  0  0  0  0  0  0  0  0  0  0
    9.6490   -5.1574   24.6785 N   0  0  0  0  0  0  0  0  0  0  0  0
    8.4332   -4.1151   22.9545 O   0  0  0  0  0  0  0  0  0  0  0  0
    3.0815   -5.6673   21.7205 O   0  0  0  0  0  0  0  0  0  0  0  0
    3.7159   -7.8881   24.4143 Cl  0  0  0  0  0  0  0  0  0  0  0  0
   11.5275   -0.4553   23.2816 H   0  0  0  0  0  0  0  0  0  0  0  0
    9.6654   -6.0070   25.2388 H   0  0  0  0  0  0  0  0  0  0  0  0
  1  2  2  0  0  0  0
  1  3  1  0  0  0  0
  2  5  1  0  0  0  0
  3  8  2  0  0  0  0
  4  6  2  0  0  0  0
  4  9  1  0  0  0  0
  5 10  2  0  0  0  0
  6 12  1  0  0  0  0
  7 11  1  0  0  0  0
  7 12  2  0  0  0  0
  8  9  1  0  0  0  0
  8 10  1  0  0  0  0
  9 11  2  0  0  0  0
 10 21  1  0  0  0  0
 11 21  1  0  0  0  0
 12 23  1  0  0  0  0
 13 19  1  0  0  0  0
 13 23  1  0  0  0  0
 13 24  2  0  0  0  0
 14 20  1  0  0  0  0
 14 22  1  0  0  0  0
 14 25  2  0  0  0  0
 15 17  1  0  0  0  0
 15 19  1  0  0  0  0
 16 18  1  0  0  0  0
 16 19  1  0  0  0  0
 17 22  1  0  0  0  0
 18 22  1  0  0  0  0
 20 26  1  0  0  0  0
 21 27  1  0  0  0  0
 23 28  1  0  0  0  0
M  END
> <ref_mols>
x2722_0

> <original SMILES>
O=C(C1CCN(C(CCl)=O)CC1)NC2=CC=C3C(NC4=C3C=CC=C4)=C2

> <Chemgauss4>
-4.445636

> <ref_pdb>
x0749_0

> <CYS145-warhead dist minimum (A)>
6.3481956

> <CYS145-warhead dist mean (A)>
9.020107

> <CYS145-warhead dist stddev (A)>
0.7200695

$$$$
x2514
  -OEChem-05172015543D

 33 35  0     1  0  0  0  0  0999 V2000
    5.4427    0.5244   19.3478 C   0  0  0  0  0  0  0  0  0  0  0  0
    5.9247   -0.3123   20.3482 C   0  0  0  0  0  0  0  0  0  0  0  0
   12.2033   -0.6489   22.2307 C   0  0  0  0  0  0  0  0  0  0  0  0
    7.3808   -4.9208   22.5086 C   0  0  0  0  0  0  0  0  0  0  0  0
    6.9659   -2.9483   23.8405 C   0  0  0  0  0  0  0  0  0  0  0  0
   13.5319   -0.3296   22.5106 C   0  0  0  0  0  0  0  0  0  0  0  0
    7.2252   -5.7188   23.6419 C   0  0  0  0  0  0  0  0  0  0  0  0
    6.8102   -3.7463   24.9739 C   0  0  0  0  0  0  0  0  0  0  0  0
   12.7964    1.3924   24.0373 C   0  0  0  0  0  0  0  0  0  0  0  0
    6.3649    1.2335   18.5952 C   0  0  0  0  0  0  0  0  0  0  0  0
    8.1342    0.3379   19.7551 C   0  0  0  0  0  0  0  0  0  0  0  0
    7.2949   -0.4130   20.5623 C   0  0  0  0  0  0  0  0  0  0  0  0
   11.4678    1.0731   23.7573 C   0  0  0  0  0  0  0  0  0  0  0  0
    7.2512   -3.5355   22.6079 C   0  0  0  0  0  0  0  0  0  0  0  0
   11.1712    0.0525   22.8540 C   0  0  0  0  0  0  0  0  0  0  0  0
   13.8285    0.6910   23.4139 C   0  0  0  0  0  0  0  0  0  0  0  0
    6.9399   -5.1316   24.8746 C   0  0  0  0  0  0  0  0  0  0  0  0
    7.2537   -2.4399   17.8089 C   0  0  0  0  0  0  0  0  0  0  0  0
    7.8257   -2.5497   19.0122 C   0  0  0  0  0  0  0  0  0  0  0  0
    7.0850   -3.1821   20.1430 C   0  0  0  0  0  0  0  0  0  0  0  0
    9.3762   -1.2699   21.6812 C   0  0  0  0  0  0  0  0  0  0  0  0
   10.3830    1.8414   24.4398 C   0  0  0  0  0  0  0  0  0  0  0  0
   16.1302    0.2448   23.0154 C   0  0  0  0  0  0  0  0  0  0  0  0
    8.0641   -5.4768   27.3505 C   0  0  0  0  0  0  0  0  0  0  0  0
    7.8508   -1.3149   21.6421 C   0  0  2  0  0  0  0  0  0  0  0  0
    7.7030    1.1616   18.7737 N   0  0  0  0  0  0  0  0  0  0  0  0
    9.8298   -0.2851   22.5552 N   0  0  0  0  0  0  0  0  0  0  0  0
    7.4131   -2.7043   21.4276 N   0  0  0  0  0  0  0  0  0  0  0  0
    6.2637   -4.0653   19.8952 O   0  0  0  0  0  0  0  0  0  0  0  0
   10.0613   -2.0247   20.9961 O   0  0  0  0  0  0  0  0  0  0  0  0
   15.1251    1.0021   23.6875 O   0  0  0  0  0  0  0  0  0  0  0  0
    6.7412   -6.1514   26.3223 S   0  0  0  0  0  0  0  0  0  0  0  0
    9.1128    0.2549   23.0350 H   0  0  0  0  0  0  0  0  0  0  0  0
  1  2  2  0  0  0  0
  1 10  1  0  0  0  0
  2 12  1  0  0  0  0
  3  6  2  0  0  0  0
  3 15  1  0  0  0  0
  4  7  2  0  0  0  0
  4 14  1  0  0  0  0
  5  8  1  0  0  0  0
  5 14  2  0  0  0  0
  6 16  1  0  0  0  0
  7 17  1  0  0  0  0
  8 17  2  0  0  0  0
  9 13  1  0  0  0  0
  9 16  2  0  0  0  0
 10 26  2  0  0  0  0
 11 12  2  0  0  0  0
 11 26  1  0  0  0  0
 12 25  1  0  0  0  0
 13 15  2  0  0  0  0
 13 22  1  0  0  0  0
 14 28  1  0  0  0  0
 15 27  1  0  0  0  0
 16 31  1  0  0  0  0
 17 32  1  0  0  0  0
 18 19  2  0  0  0  0
 19 20  1  0  0  0  0
 20 28  1  0  0  0  0
 20 29  2  0  0  0  0
 21 25  1  0  0  0  0
 21 27  1  0  0  0  0
 21 30  2  0  0  0  0
 23 31  1  0  0  0  0
 24 32  1  0  0  0  0
 25 28  1  0  0  0  0
 27 33  1  0  0  0  0
M  END
> <ref_mols>
x2514_0

> <original SMILES>
COC=1C=CC(NC(=O)C(N(C(=O)C=C)C=2C=CC(SC)=CC2)C=3C=CC=NC3)=C(C)C1

> <Chemgauss4>
-4.433858

> <ref_pdb>
x0831_0

$$$$
x2682
  -OEChem-05172015543D

 33 35  0     1  0  0  0  0  0999 V2000
    5.4427    0.5244   19.3478 C   0  0  0  0  0  0  0  0  0  0  0  0
    5.9247   -0.3123   20.3482 C   0  0  0  0  0  0  0  0  0  0  0  0
   12.2033   -0.6489   22.2307 C   0  0  0  0  0  0  0  0  0  0  0  0
    7.3808   -4.9208   22.5086 C   0  0  0  0  0  0  0  0  0  0  0  0
    6.9659   -2.9483   23.8405 C   0  0  0  0  0  0  0  0  0  0  0  0
   13.5319   -0.3296   22.5106 C   0  0  0  0  0  0  0  0  0  0  0  0
    7.2252   -5.7188   23.6419 C   0  0  0  0  0  0  0  0  0  0  0  0
    6.8102   -3.7463   24.9739 C   0  0  0  0  0  0  0  0  0  0  0  0
   12.7964    1.3924   24.0373 C   0  0  0  0  0  0  0  0  0  0  0  0
    6.3649    1.2335   18.5952 C   0  0  0  0  0  0  0  0  0  0  0  0
    8.1342    0.3379   19.7551 C   0  0  0  0  0  0  0  0  0  0  0  0
    7.2949   -0.4130   20.5623 C   0  0  0  0  0  0  0  0  0  0  0  0
   11.4678    1.0731   23.7573 C   0  0  0  0  0  0  0  0  0  0  0  0
    7.2512   -3.5355   22.6079 C   0  0  0  0  0  0  0  0  0  0  0  0
   11.1712    0.0525   22.8540 C   0  0  0  0  0  0  0  0  0  0  0  0
   13.8285    0.6910   23.4139 C   0  0  0  0  0  0  0  0  0  0  0  0
    6.9399   -5.1316   24.8746 C   0  0  0  0  0  0  0  0  0  0  0  0
    7.2537   -2.4399   17.8089 C   0  0  0  0  0  0  0  0  0  0  0  0
    7.8257   -2.5497   19.0122 C   0  0  0  0  0  0  0  0  0  0  0  0
    7.0850   -3.1821   20.1430 C   0  0  0  0  0  0  0  0  0  0  0  0
    9.3762   -1.2699   21.6812 C   0  0  0  0  0  0  0  0  0  0  0  0
   10.3830    1.8414   24.4398 C   0  0  0  0  0  0  0  0  0  0  0  0
   16.1302    0.2448   23.0154 C   0  0  0  0  0  0  0  0  0  0  0  0
    8.0641   -5.4768   27.3505 C   0  0  0  0  0  0  0  0  0  0  0  0
    7.8508   -1.3149   21.6421 C   0  0  2  0  0  0  0  0  0  0  0  0
    7.7030    1.1616   18.7737 N   0  0  0  0  0  0  0  0  0  0  0  0
    9.8298   -0.2851   22.5552 N   0  0  0  0  0  0  0  0  0  0  0  0
    7.4131   -2.7043   21.4276 N   0  0  0  0  0  0  0  0  0  0  0  0
    6.2637   -4.0653   19.8952 O   0  0  0  0  0  0  0  0  0  0  0  0
   10.0613   -2.0247   20.9961 O   0  0  0  0  0  0  0  0  0  0  0  0
   15.1251    1.0021   23.6875 O   0  0  0  0  0  0  0  0  0  0  0  0
    6.7412   -6.1514   26.3223 S   0  0  0  0  0  0  0  0  0  0  0  0
    9.1128    0.2549   23.0350 H   0  0  0  0  0  0  0  0  0  0  0  0
  1  2  2  0  0  0  0
  1 10  1  0  0  0  0
  2 12  1  0  0  0  0
  3  6  2  0  0  0  0
  3 15  1  0  0  0  0
  4  7  2  0  0  0  0
  4 14  1  0  0  0  0
  5  8  1  0  0  0  0
  5 14  2  0  0  0  0
  6 16  1  0  0  0  0
  7 17  1  0  0  0  0
  8 17  2  0  0  0  0
  9 13  1  0  0  0  0
  9 16  2  0  0  0  0
 10 26  2  0  0  0  0
 11 12  2  0  0  0  0
 11 26  1  0  0  0  0
 12 25  1  0  0  0  0
 13 15  2  0  0  0  0
 13 22  1  0  0  0  0
 14 28  1  0  0  0  0
 15 27  1  0  0  0  0
 16 31  1  0  0  0  0
 17 32  1  0  0  0  0
 18 19  2  0  0  0  0
 19 20  1  0  0  0  0
 20 28  1  0  0  0  0
 20 29  2  0  0  0  0
 21 25  1  0  0  0  0
 21 27  1  0  0  0  0
 21 30  2  0  0  0  0
 23 31  1  0  0  0  0
 24 32  1  0  0  0  0
 25 28  1  0  0  0  0
 27 33  1  0  0  0  0
M  END
> <ref_mols>
x2682_0

> <original SMILES>
COC=1C=CC(NC(=O)C(N(C(=O)C=C)C=2C=CC(SC)=CC2)C=3C=CC=NC3)=C(C)C1

> <Chemgauss4>
-4.433858

> <ref_pdb>
x0831_0

> <CYS145-warhead dist minimum (A)>
3.2569573

> <CYS145-warhead dist mean (A)>
5.1157303

> <CYS145-warhead dist stddev (A)>
0.6729271

$$$$
x1016
  -OEChem-05172015543D

  7  7  0     0  0  0  0  0  0999 V2000
   10.8569   -1.9872   22.6110 C   0  0  0  0  0  0  0  0  0  0  0  0
   13.2706   -1.5832   21.8992 C   0  0  0  0  0  0  0  0  0  0  0  0
   14.2457   -0.8395   22.5094 C   0  0  0  0  0  0  0  0  0  0  0  0
   12.1582   -1.4344   22.7453 C   0  0  0  0  0  0  0  0  0  0  0  0
    9.7935   -2.4388   22.5011 N   0  0  0  0  0  0  0  0  0  0  0  0
   12.4230   -0.6578   23.7997 N   0  0  0  0  0  0  0  0  0  0  0  0
   13.7520   -0.2822   23.6446 O   0  0  0  0  0  0  0  0  0  0  0  0
  1  4  1  0  0  0  0
  1  5  3  0  0  0  0
  2  3  2  0  0  0  0
  2  4  1  0  0  0  0
  3  7  1  0  0  0  0
  4  6  2  0  0  0  0
  6  7  1  0  0  0  0
M  END
> <ref_mols>
x1016_0

> <original SMILES>
N#CC=1C=CON1

> <Chemgauss4>
-4.392566

> <ref_pdb>
x1382_0

> <CYS145-warhead dist minimum (A)>
23.056658

> <CYS145-warhead dist mean (A)>
25.605772

> <CYS145-warhead dist stddev (A)>
0.840684

$$$$
x2638
  -OEChem-05172015543D

 33 35  0     1  0  0  0  0  0999 V2000
    4.9529   -2.2764   18.5066 C   0  0  0  0  0  0  0  0  0  0  0  0
    8.9394   -4.1065   24.5363 C   0  0  0  0  0  0  0  0  0  0  0  0
    5.0646   -3.1100   19.6193 C   0  0  0  0  0  0  0  0  0  0  0  0
    5.7033   -1.1027   18.4363 C   0  0  0  0  0  0  0  0  0  0  0  0
    9.1662   -3.1231   23.5799 C   0  0  0  0  0  0  0  0  0  0  0  0
   12.6588    1.0975   23.7106 C   0  0  0  0  0  0  0  0  0  0  0  0
   10.5899    2.0052   22.8546 C   0  0  0  0  0  0  0  0  0  0  0  0
   13.0994    2.3861   24.0123 C   0  0  0  0  0  0  0  0  0  0  0  0
   11.0304    3.2938   23.1563 C   0  0  0  0  0  0  0  0  0  0  0  0
    8.8120   -3.7092   25.8575 C   0  0  0  0  0  0  0  0  0  0  0  0
    9.1154   -1.4974   25.3151 C   0  0  0  0  0  0  0  0  0  0  0  0
    9.2573   -1.7911   23.9685 C   0  0  0  0  0  0  0  0  0  0  0  0
    5.9267   -2.7699   20.6618 C   0  0  0  0  0  0  0  0  0  0  0  0
    6.5653   -0.7625   19.4788 C   0  0  0  0  0  0  0  0  0  0  0  0
   11.4041    0.9070   23.1317 C   0  0  0  0  0  0  0  0  0  0  0  0
    6.6770   -1.5961   20.5916 C   0  0  0  0  0  0  0  0  0  0  0  0
   12.2852    3.4843   23.7352 C   0  0  0  0  0  0  0  0  0  0  0  0
   14.2175   -1.6922   21.8681 C   0  0  0  0  0  0  0  0  0  0  0  0
   13.0670   -1.0251   21.7323 C   0  0  0  0  0  0  0  0  0  0  0  0
   11.8515   -1.4603   22.4809 C   0  0  0  0  0  0  0  0  0  0  0  0
    8.9298   -1.0631   21.5850 C   0  0  0  0  0  0  0  0  0  0  0  0
    6.0246   -3.6832   21.8408 C   0  0  0  0  0  0  0  0  0  0  0  0
    6.7752    1.6192   20.2338 C   0  0  0  0  0  0  0  0  0  0  0  0
   12.8111    5.8569   22.4674 C   0  0  0  0  0  0  0  0  0  0  0  0
    7.3560    0.5013   19.3738 C   0  0  0  0  0  0  0  0  0  0  0  0
    9.5027   -0.6978   22.9521 C   0  0  2  0  0  0  0  0  0  0  0  0
    8.8944   -2.4254   26.2731 N   0  0  0  0  0  0  0  0  0  0  0  0
    7.5514   -1.2507   21.6493 N   0  0  0  0  0  0  0  0  0  0  0  0
   10.9452   -0.4350   22.8176 N   0  0  0  0  0  0  0  0  0  0  0  0
   11.7216   -2.6521   22.7615 O   0  0  0  0  0  0  0  0  0  0  0  0
    9.6469   -1.1741   20.5942 O   0  0  0  0  0  0  0  0  0  0  0  0
   12.8482    5.1304   24.1207 S   0  0  0  0  0  0  0  0  0  0  0  0
    7.1227   -1.1247   22.5639 H   0  0  0  0  0  0  0  0  0  0  0  0
  1  3  1  0  0  0  0
  1  4  2  0  0  0  0
  2  5  2  0  0  0  0
  2 10  1  0  0  0  0
  3 13  2  0  0  0  0
  4 14  1  0  0  0  0
  5 12  1  0  0  0  0
  6  8  2  0  0  0  0
  6 15  1  0  0  0  0
  7  9  1  0  0  0  0
  7 15  2  0  0  0  0
  8 17  1  0  0  0  0
  9 17  2  0  0  0  0
 10 27  2  0  0  0  0
 11 12  2  0  0  0  0
 11 27  1  0  0  0  0
 12 26  1  0  0  0  0
 13 16  1  0  0  0  0
 13 22  1  0  0  0  0
 14 16  2  0  0  0  0
 14 25  1  0  0  0  0
 15 29  1  0  0  0  0
 16 28  1  0  0  0  0
 17 32  1  0  0  0  0
 18 19  2  0  0  0  0
 19 20  1  0  0  0  0
 20 29  1  0  0  0  0
 20 30  2  0  0  0  0
 21 26  1  0  0  0  0
 21 28  1  0  0  0  0
 21 31  2  0  0  0  0
 23 25  1  0  0  0  0
 24 32  1  0  0  0  0
 26 29  1  0  0  0  0
 28 33  1  0  0  0  0
M  END
> <ref_mols>
x2638_0

> <original SMILES>
CCC=1C=CC=C(C)C1NC(=O)C(N(C(=O)C=C)C=2C=CC(SC)=CC2)C=3C=CC=NC3

> <Chemgauss4>
-4.300403

> <ref_pdb>
x0831_0

$$$$
x2470
  -OEChem-05172015543D

 33 35  0     1  0  0  0  0  0999 V2000
    4.9529   -2.2764   18.5066 C   0  0  0  0  0  0  0  0  0  0  0  0
    8.9394   -4.1065   24.5363 C   0  0  0  0  0  0  0  0  0  0  0  0
    5.0646   -3.1100   19.6193 C   0  0  0  0  0  0  0  0  0  0  0  0
    5.7033   -1.1027   18.4363 C   0  0  0  0  0  0  0  0  0  0  0  0
    9.1662   -3.1231   23.5799 C   0  0  0  0  0  0  0  0  0  0  0  0
   12.6588    1.0975   23.7106 C   0  0  0  0  0  0  0  0  0  0  0  0
   10.5899    2.0052   22.8546 C   0  0  0  0  0  0  0  0  0  0  0  0
   13.0994    2.3861   24.0123 C   0  0  0  0  0  0  0  0  0  0  0  0
   11.0304    3.2938   23.1563 C   0  0  0  0  0  0  0  0  0  0  0  0
    8.8120   -3.7092   25.8575 C   0  0  0  0  0  0  0  0  0  0  0  0
    9.1154   -1.4974   25.3151 C   0  0  0  0  0  0  0  0  0  0  0  0
    9.2573   -1.7911   23.9685 C   0  0  0  0  0  0  0  0  0  0  0  0
    5.9267   -2.7699   20.6618 C   0  0  0  0  0  0  0  0  0  0  0  0
    6.5653   -0.7625   19.4788 C   0  0  0  0  0  0  0  0  0  0  0  0
   11.4041    0.9070   23.1317 C   0  0  0  0  0  0  0  0  0  0  0  0
    6.6770   -1.5961   20.5916 C   0  0  0  0  0  0  0  0  0  0  0  0
   12.2852    3.4843   23.7352 C   0  0  0  0  0  0  0  0  0  0  0  0
   14.2175   -1.6922   21.8681 C   0  0  0  0  0  0  0  0  0  0  0  0
   13.0670   -1.0251   21.7323 C   0  0  0  0  0  0  0  0  0  0  0  0
   11.8515   -1.4603   22.4809 C   0  0  0  0  0  0  0  0  0  0  0  0
    8.9298   -1.0631   21.5850 C   0  0  0  0  0  0  0  0  0  0  0  0
    6.0246   -3.6832   21.8408 C   0  0  0  0  0  0  0  0  0  0  0  0
    6.7752    1.6192   20.2338 C   0  0  0  0  0  0  0  0  0  0  0  0
   12.8111    5.8569   22.4674 C   0  0  0  0  0  0  0  0  0  0  0  0
    7.3560    0.5013   19.3738 C   0  0  0  0  0  0  0  0  0  0  0  0
    9.5027   -0.6978   22.9521 C   0  0  2  0  0  0  0  0  0  0  0  0
    8.8944   -2.4254   26.2731 N   0  0  0  0  0  0  0  0  0  0  0  0
    7.5514   -1.2507   21.6493 N   0  0  0  0  0  0  0  0  0  0  0  0
   10.9452   -0.4350   22.8176 N   0  0  0  0  0  0  0  0  0  0  0  0
   11.7216   -2.6521   22.7615 O   0  0  0  0  0  0  0  0  0  0  0  0
    9.6469   -1.1741   20.5942 O   0  0  0  0  0  0  0  0  0  0  0  0
   12.8482    5.1304   24.1207 S   0  0  0  0  0  0  0  0  0  0  0  0
    7.1227   -1.1247   22.5639 H   0  0  0  0  0  0  0  0  0  0  0  0
  1  3  1  0  0  0  0
  1  4  2  0  0  0  0
  2  5  2  0  0  0  0
  2 10  1  0  0  0  0
  3 13  2  0  0  0  0
  4 14  1  0  0  0  0
  5 12  1  0  0  0  0
  6  8  2  0  0  0  0
  6 15  1  0  0  0  0
  7  9  1  0  0  0  0
  7 15  2  0  0  0  0
  8 17  1  0  0  0  0
  9 17  2  0  0  0  0
 10 27  2  0  0  0  0
 11 12  2  0  0  0  0
 11 27  1  0  0  0  0
 12 26  1  0  0  0  0
 13 16  1  0  0  0  0
 13 22  1  0  0  0  0
 14 16  2  0  0  0  0
 14 25  1  0  0  0  0
 15 29  1  0  0  0  0
 16 28  1  0  0  0  0
 17 32  1  0  0  0  0
 18 19  2  0  0  0  0
 19 20  1  0  0  0  0
 20 29  1  0  0  0  0
 20 30  2  0  0  0  0
 21 26  1  0  0  0  0
 21 28  1  0  0  0  0
 21 31  2  0  0  0  0
 23 25  1  0  0  0  0
 24 32  1  0  0  0  0
 26 29  1  0  0  0  0
 28 33  1  0  0  0  0
M  END
> <ref_mols>
x2470_0

> <original SMILES>
CCC=1C=CC=C(C)C1NC(=O)C(N(C(=O)C=C)C=2C=CC(SC)=CC2)C=3C=CC=NC3

> <Chemgauss4>
-4.300403

> <ref_pdb>
x0831_0

$$$$
x2046
  -OEChem-05172015543D

 25 27  0     0  0  0  0  0  0999 V2000
    6.1888   -7.5270   31.0789 C   0  0  0  0  0  0  0  0  0  0  0  0
    7.3895   -8.0140   30.5624 C   0  0  0  0  0  0  0  0  0  0  0  0
    5.5253   -6.4825   30.4352 C   0  0  0  0  0  0  0  0  0  0  0  0
    7.9268   -7.4563   29.4023 C   0  0  0  0  0  0  0  0  0  0  0  0
    6.0626   -5.9248   29.2750 C   0  0  0  0  0  0  0  0  0  0  0  0
    9.1006   -5.4288   25.8973 C   0  0  0  0  0  0  0  0  0  0  0  0
    8.9618   -6.2401   26.9968 C   0  0  0  0  0  0  0  0  0  0  0  0
    7.2633   -6.4117   28.7585 C   0  0  0  0  0  0  0  0  0  0  0  0
    7.9689   -4.5922   25.9321 C   0  0  0  0  0  0  0  0  0  0  0  0
    8.4528   -3.2396   23.8680 C   0  0  0  0  0  0  0  0  0  0  0  0
    6.3053   -1.8882   19.0153 C   0  0  0  0  0  0  0  0  0  0  0  0
    8.7221   -1.7403   21.9278 C   0  0  0  0  0  0  0  0  0  0  0  0
    6.4016   -2.5214   22.6614 C   0  0  0  0  0  0  0  0  0  0  0  0
    7.9383   -1.1110   20.7813 C   0  0  0  0  0  0  0  0  0  0  0  0
    6.3689   -3.0078   21.2155 C   0  0  0  0  0  0  0  0  0  0  0  0
    7.8143   -2.1192   23.1025 C   0  0  0  0  0  0  0  0  0  0  0  0
    6.8643   -0.8085   18.1212 C   0  0  0  0  0  0  0  0  0  0  0  0
    7.1701   -4.8485   26.9714 N   0  0  0  0  0  0  0  0  0  0  0  0
    7.8005   -5.8554   27.5998 N   0  0  0  0  0  0  0  0  0  0  0  0
    6.8670   -1.9872   20.2898 N   0  0  0  0  0  0  0  0  0  0  0  0
    7.6923   -3.5843   24.9781 N   0  0  0  0  0  0  0  0  0  0  0  0
    9.5103   -3.7346   23.4919 O   0  0  0  0  0  0  0  0  0  0  0  0
    5.4057   -2.6205   18.5964 O   0  0  0  0  0  0  0  0  0  0  0  0
    5.8791    0.6256   18.3869 Cl  0  0  0  0  0  0  0  0  0  0  0  0
    6.8342   -3.0597   25.1346 H   0  0  0  0  0  0  0  0  0  0  0  0
  1  2  1  0  0  0  0
  1  3  2  0  0  0  0
  2  4  2  0  0  0  0
  3  5  1  0  0  0  0
  4  8  1  0  0  0  0
  5  8  2  0  0  0  0
  6  7  2  0  0  0  0
  6  9  1  0  0  0  0
  7 19  1  0  0  0  0
  8 19  1  0  0  0  0
  9 18  2  0  0  0  0
  9 21  1  0  0  0  0
 10 16  1  0  0  0  0
 10 21  1  0  0  0  0
 10 22  2  0  0  0  0
 11 17  1  0  0  0  0
 11 20  1  0  0  0  0
 11 23  2  0  0  0  0
 12 14  1  0  0  0  0
 12 16  1  0  0  0  0
 13 15  1  0  0  0  0
 13 16  1  0  0  0  0
 14 20  1  0  0  0  0
 15 20  1  0  0  0  0
 17 24  1  0  0  0  0
 18 19  1  0  0  0  0
 21 25  1  0  0  0  0
M  END
> <ref_mols>
x2046_0

> <original SMILES>
O=C(C1CCN(C(CCl)=O)CC1)NC2=NN(C3=CC=CC=C3)C=C2

> <Chemgauss4>
-4.196924

> <ref_pdb>
x1334_0

> <CYS145-warhead dist minimum (A)>
5.7380686

> <CYS145-warhead dist mean (A)>
6.257558

> <CYS145-warhead dist stddev (A)>
0.22239262

$$$$
x2523
  -OEChem-05172015543D

 33 35  0     1  0  0  0  0  0999 V2000
    7.2394   -1.7160   17.4680 C   0  0  0  0  0  0  0  0  0  0  0  0
    7.6347   -0.8589   18.4890 C   0  0  0  0  0  0  0  0  0  0  0  0
    7.8703   -2.4009   22.5299 C   0  0  0  0  0  0  0  0  0  0  0  0
    8.3638   -3.3512   23.4237 C   0  0  0  0  0  0  0  0  0  0  0  0
   10.7549    1.6623   23.9235 C   0  0  0  0  0  0  0  0  0  0  0  0
   11.6382    0.0108   22.3972 C   0  0  0  0  0  0  0  0  0  0  0  0
   12.0137    1.7937   24.5098 C   0  0  0  0  0  0  0  0  0  0  0  0
   12.8970    0.1423   22.9835 C   0  0  0  0  0  0  0  0  0  0  0  0
    6.9317   -1.1538   24.3740 C   0  0  0  0  0  0  0  0  0  0  0  0
    6.2535   -2.6481   17.7490 C   0  0  0  0  0  0  0  0  0  0  0  0
    6.0633   -1.9245   19.9212 C   0  0  0  0  0  0  0  0  0  0  0  0
    7.0404   -0.9587   19.7420 C   0  0  0  0  0  0  0  0  0  0  0  0
    7.4251   -2.1042   25.2679 C   0  0  0  0  0  0  0  0  0  0  0  0
   10.5671    0.7708   22.8672 C   0  0  0  0  0  0  0  0  0  0  0  0
    7.1543   -1.3022   23.0050 C   0  0  0  0  0  0  0  0  0  0  0  0
    8.1412   -3.2029   24.7927 C   0  0  0  0  0  0  0  0  0  0  0  0
   13.0848    1.0337   24.0398 C   0  0  0  0  0  0  0  0  0  0  0  0
    4.4330    2.5487   21.7158 C   0  0  0  0  0  0  0  0  0  0  0  0
    5.0968    1.4504   21.3414 C   0  0  0  0  0  0  0  0  0  0  0  0
    5.4638    0.4124   22.3489 C   0  0  0  0  0  0  0  0  0  0  0  0
    8.9270   -0.1965   21.2179 C   0  0  0  0  0  0  0  0  0  0  0  0
    7.1713   -1.9212   26.7289 C   0  0  0  0  0  0  0  0  0  0  0  0
    9.9748   -4.0294   26.2470 C   0  0  0  0  0  0  0  0  0  0  0  0
    7.8431   -5.3203   26.0528 C   0  0  0  0  0  0  0  0  0  0  0  0
    7.4480   -0.0405   20.8732 C   0  0  2  0  0  0  0  0  0  0  0  0
    5.6531   -2.7749   18.9536 N   0  0  0  0  0  0  0  0  0  0  0  0
    9.2901    0.6378   22.2722 N   0  0  0  0  0  0  0  0  0  0  0  0
    6.6401   -0.3132   22.0735 N   0  0  0  0  0  0  0  0  0  0  0  0
    8.6486   -4.1746   25.6829 N   0  0  0  0  0  0  0  0  0  0  0  0
    4.7330    0.2485   23.3262 O   0  0  0  0  0  0  0  0  0  0  0  0
    9.6553   -0.9679   20.5992 O   0  0  0  0  0  0  0  0  0  0  0  0
   14.6381    1.1960   24.7633 Cl  0  0  0  0  0  0  0  0  0  0  0  0
    8.5507    1.2199   22.6599 H   0  0  0  0  0  0  0  0  0  0  0  0
  1  2  2  0  0  0  0
  1 10  1  0  0  0  0
  2 12  1  0  0  0  0
  3  4  2  0  0  0  0
  3 15  1  0  0  0  0
  4 16  1  0  0  0  0
  5  7  2  0  0  0  0
  5 14  1  0  0  0  0
  6  8  1  0  0  0  0
  6 14  2  0  0  0  0
  7 17  1  0  0  0  0
  8 17  2  0  0  0  0
  9 13  1  0  0  0  0
  9 15  2  0  0  0  0
 10 26  2  0  0  0  0
 11 12  2  0  0  0  0
 11 26  1  0  0  0  0
 12 25  1  0  0  0  0
 13 16  2  0  0  0  0
 13 22  1  0  0  0  0
 14 27  1  0  0  0  0
 15 28  1  0  0  0  0
 16 29  1  0  0  0  0
 17 32  1  0  0  0  0
 18 19  2  0  0  0  0
 19 20  1  0  0  0  0
 20 28  1  0  0  0  0
 20 30  2  0  0  0  0
 21 25  1  0  0  0  0
 21 27  1  0  0  0  0
 21 31  2  0  0  0  0
 23 29  1  0  0  0  0
 24 29  1  0  0  0  0
 25 28  1  0  0  0  0
 27 33  1  0  0  0  0
M  END
> <ref_mols>
x2523_0

> <original SMILES>
CN(C)C=1C=CC(=CC1C)N(C(C(=O)NC=2C=CC(Cl)=CC2)C=3C=CC=NC3)C(=O)C=C

> <Chemgauss4>
-4.042912

> <ref_pdb>
x0831_0

$$$$
x2778
  -OEChem-05172015543D

 33 35  0     1  0  0  0  0  0999 V2000
    7.2394   -1.7160   17.4680 C   0  0  0  0  0  0  0  0  0  0  0  0
    7.6347   -0.8589   18.4890 C   0  0  0  0  0  0  0  0  0  0  0  0
    7.8703   -2.4009   22.5299 C   0  0  0  0  0  0  0  0  0  0  0  0
    8.3638   -3.3512   23.4237 C   0  0  0  0  0  0  0  0  0  0  0  0
   10.7549    1.6623   23.9235 C   0  0  0  0  0  0  0  0  0  0  0  0
   11.6382    0.0108   22.3972 C   0  0  0  0  0  0  0  0  0  0  0  0
   12.0137    1.7937   24.5098 C   0  0  0  0  0  0  0  0  0  0  0  0
   12.8970    0.1423   22.9835 C   0  0  0  0  0  0  0  0  0  0  0  0
    6.9317   -1.1538   24.3740 C   0  0  0  0  0  0  0  0  0  0  0  0
    6.2535   -2.6481   17.7490 C   0  0  0  0  0  0  0  0  0  0  0  0
    6.0633   -1.9245   19.9212 C   0  0  0  0  0  0  0  0  0  0  0  0
    7.0404   -0.9587   19.7420 C   0  0  0  0  0  0  0  0  0  0  0  0
    7.4251   -2.1042   25.2679 C   0  0  0  0  0  0  0  0  0  0  0  0
   10.5671    0.7708   22.8672 C   0  0  0  0  0  0  0  0  0  0  0  0
    7.1543   -1.3022   23.0050 C   0  0  0  0  0  0  0  0  0  0  0  0
    8.1412   -3.2029   24.7927 C   0  0  0  0  0  0  0  0  0  0  0  0
   13.0848    1.0337   24.0398 C   0  0  0  0  0  0  0  0  0  0  0  0
    4.4330    2.5487   21.7158 C   0  0  0  0  0  0  0  0  0  0  0  0
    5.0968    1.4504   21.3414 C   0  0  0  0  0  0  0  0  0  0  0  0
    5.4638    0.4124   22.3489 C   0  0  0  0  0  0  0  0  0  0  0  0
    8.9270   -0.1965   21.2179 C   0  0  0  0  0  0  0  0  0  0  0  0
    7.1713   -1.9212   26.7289 C   0  0  0  0  0  0  0  0  0  0  0  0
    9.9748   -4.0294   26.2470 C   0  0  0  0  0  0  0  0  0  0  0  0
    7.8431   -5.3203   26.0528 C   0  0  0  0  0  0  0  0  0  0  0  0
    7.4480   -0.0405   20.8732 C   0  0  2  0  0  0  0  0  0  0  0  0
    5.6531   -2.7749   18.9536 N   0  0  0  0  0  0  0  0  0  0  0  0
    9.2901    0.6378   22.2722 N   0  0  0  0  0  0  0  0  0  0  0  0
    6.6401   -0.3132   22.0735 N   0  0  0  0  0  0  0  0  0  0  0  0
    8.6486   -4.1746   25.6829 N   0  0  0  0  0  0  0  0  0  0  0  0
    4.7330    0.2485   23.3262 O   0  0  0  0  0  0  0  0  0  0  0  0
    9.6553   -0.9679   20.5992 O   0  0  0  0  0  0  0  0  0  0  0  0
   14.6381    1.1960   24.7633 Cl  0  0  0  0  0  0  0  0  0  0  0  0
    8.5507    1.2199   22.6599 H   0  0  0  0  0  0  0  0  0  0  0  0
  1  2  2  0  0  0  0
  1 10  1  0  0  0  0
  2 12  1  0  0  0  0
  3  4  2  0  0  0  0
  3 15  1  0  0  0  0
  4 16  1  0  0  0  0
  5  7  2  0  0  0  0
  5 14  1  0  0  0  0
  6  8  1  0  0  0  0
  6 14  2  0  0  0  0
  7 17  1  0  0  0  0
  8 17  2  0  0  0  0
  9 13  1  0  0  0  0
  9 15  2  0  0  0  0
 10 26  2  0  0  0  0
 11 12  2  0  0  0  0
 11 26  1  0  0  0  0
 12 25  1  0  0  0  0
 13 16  2  0  0  0  0
 13 22  1  0  0  0  0
 14 27  1  0  0  0  0
 15 28  1  0  0  0  0
 16 29  1  0  0  0  0
 17 32  1  0  0  0  0
 18 19  2  0  0  0  0
 19 20  1  0  0  0  0
 20 28  1  0  0  0  0
 20 30  2  0  0  0  0
 21 25  1  0  0  0  0
 21 27  1  0  0  0  0
 21 31  2  0  0  0  0
 23 29  1  0  0  0  0
 24 29  1  0  0  0  0
 25 28  1  0  0  0  0
 27 33  1  0  0  0  0
M  END
> <ref_mols>
x2778_0

> <original SMILES>
CN(C)C=1C=CC(=CC1C)N(C(C(=O)NC=2C=CC(Cl)=CC2)C=3C=CC=NC3)C(=O)C=C

> <Chemgauss4>
-4.042912

> <ref_pdb>
x0831_0

> <CYS145-warhead dist minimum (A)>
4.1014943

> <CYS145-warhead dist mean (A)>
8.650703

> <CYS145-warhead dist stddev (A)>
1.0351843

$$$$
x2691
  -OEChem-05172015543D

 33 35  0     1  0  0  0  0  0999 V2000
    7.2394   -1.7160   17.4680 C   0  0  0  0  0  0  0  0  0  0  0  0
    7.6347   -0.8589   18.4890 C   0  0  0  0  0  0  0  0  0  0  0  0
    7.8703   -2.4009   22.5299 C   0  0  0  0  0  0  0  0  0  0  0  0
    8.3638   -3.3512   23.4237 C   0  0  0  0  0  0  0  0  0  0  0  0
   10.7549    1.6623   23.9235 C   0  0  0  0  0  0  0  0  0  0  0  0
   11.6382    0.0108   22.3972 C   0  0  0  0  0  0  0  0  0  0  0  0
   12.0137    1.7937   24.5098 C   0  0  0  0  0  0  0  0  0  0  0  0
   12.8970    0.1423   22.9835 C   0  0  0  0  0  0  0  0  0  0  0  0
    6.9317   -1.1538   24.3740 C   0  0  0  0  0  0  0  0  0  0  0  0
    6.2535   -2.6481   17.7490 C   0  0  0  0  0  0  0  0  0  0  0  0
    6.0633   -1.9245   19.9212 C   0  0  0  0  0  0  0  0  0  0  0  0
    7.0404   -0.9587   19.7420 C   0  0  0  0  0  0  0  0  0  0  0  0
    7.4251   -2.1042   25.2679 C   0  0  0  0  0  0  0  0  0  0  0  0
   10.5671    0.7708   22.8672 C   0  0  0  0  0  0  0  0  0  0  0  0
    7.1543   -1.3022   23.0050 C   0  0  0  0  0  0  0  0  0  0  0  0
    8.1412   -3.2029   24.7927 C   0  0  0  0  0  0  0  0  0  0  0  0
   13.0848    1.0337   24.0398 C   0  0  0  0  0  0  0  0  0  0  0  0
    4.4330    2.5487   21.7158 C   0  0  0  0  0  0  0  0  0  0  0  0
    5.0968    1.4504   21.3414 C   0  0  0  0  0  0  0  0  0  0  0  0
    5.4638    0.4124   22.3489 C   0  0  0  0  0  0  0  0  0  0  0  0
    8.9270   -0.1965   21.2179 C   0  0  0  0  0  0  0  0  0  0  0  0
    7.1713   -1.9212   26.7289 C   0  0  0  0  0  0  0  0  0  0  0  0
    9.9748   -4.0294   26.2470 C   0  0  0  0  0  0  0  0  0  0  0  0
    7.8431   -5.3203   26.0528 C   0  0  0  0  0  0  0  0  0  0  0  0
    7.4480   -0.0405   20.8732 C   0  0  2  0  0  0  0  0  0  0  0  0
    5.6531   -2.7749   18.9536 N   0  0  0  0  0  0  0  0  0  0  0  0
    9.2901    0.6378   22.2722 N   0  0  0  0  0  0  0  0  0  0  0  0
    6.6401   -0.3132   22.0735 N   0  0  0  0  0  0  0  0  0  0  0  0
    8.6486   -4.1746   25.6829 N   0  0  0  0  0  0  0  0  0  0  0  0
    4.7330    0.2485   23.3262 O   0  0  0  0  0  0  0  0  0  0  0  0
    9.6553   -0.9679   20.5992 O   0  0  0  0  0  0  0  0  0  0  0  0
   14.6381    1.1960   24.7633 Cl  0  0  0  0  0  0  0  0  0  0  0  0
    8.5507    1.2199   22.6599 H   0  0  0  0  0  0  0  0  0  0  0  0
  1  2  2  0  0  0  0
  1 10  1  0  0  0  0
  2 12  1  0  0  0  0
  3  4  2  0  0  0  0
  3 15  1  0  0  0  0
  4 16  1  0  0  0  0
  5  7  2  0  0  0  0
  5 14  1  0  0  0  0
  6  8  1  0  0  0  0
  6 14  2  0  0  0  0
  7 17  1  0  0  0  0
  8 17  2  0  0  0  0
  9 13  1  0  0  0  0
  9 15  2  0  0  0  0
 10 26  2  0  0  0  0
 11 12  2  0  0  0  0
 11 26  1  0  0  0  0
 12 25  1  0  0  0  0
 13 16  2  0  0  0  0
 13 22  1  0  0  0  0
 14 27  1  0  0  0  0
 15 28  1  0  0  0  0
 16 29  1  0  0  0  0
 17 32  1  0  0  0  0
 18 19  2  0  0  0  0
 19 20  1  0  0  0  0
 20 28  1  0  0  0  0
 20 30  2  0  0  0  0
 21 25  1  0  0  0  0
 21 27  1  0  0  0  0
 21 31  2  0  0  0  0
 23 29  1  0  0  0  0
 24 29  1  0  0  0  0
 25 28  1  0  0  0  0
 27 33  1  0  0  0  0
M  END
> <ref_mols>
x2691_0

> <original SMILES>
CN(C)C=1C=CC(=CC1C)N(C(C(=O)NC=2C=CC(Cl)=CC2)C=3C=CC=NC3)C(=O)C=C

> <Chemgauss4>
-4.042912

> <ref_pdb>
x0831_0

> <CYS145-warhead dist minimum (A)>
3.7068024

> <CYS145-warhead dist mean (A)>
9.484944

> <CYS145-warhead dist stddev (A)>
1.199508

$$$$
x2700
  -OEChem-05172015543D

 33 35  0     1  0  0  0  0  0999 V2000
    6.1739   -2.6545   29.3774 C   0  0  0  0  0  0  0  0  0  0  0  0
    5.4481   -6.3223   21.4770 C   0  0  0  0  0  0  0  0  0  0  0  0
    6.2807   -3.6343   30.3644 C   0  0  0  0  0  0  0  0  0  0  0  0
    6.5575   -5.7619   22.1002 C   0  0  0  0  0  0  0  0  0  0  0  0
    6.4849   -2.9620   28.0529 C   0  0  0  0  0  0  0  0  0  0  0  0
    7.0098   -5.2290   28.7024 C   0  0  0  0  0  0  0  0  0  0  0  0
    8.0928   -1.8067   21.2668 C   0  0  0  0  0  0  0  0  0  0  0  0
    4.2118   -6.1542   22.0795 C   0  0  0  0  0  0  0  0  0  0  0  0
    5.1201   -4.9485   23.8115 C   0  0  0  0  0  0  0  0  0  0  0  0
    6.6987   -4.9215   30.0269 C   0  0  0  0  0  0  0  0  0  0  0  0
    6.3989   -5.0603   23.2902 C   0  0  0  0  0  0  0  0  0  0  0  0
    6.9029   -4.2492   27.7154 C   0  0  0  0  0  0  0  0  0  0  0  0
    7.0211   -1.4260   20.5034 C   0  0  0  0  0  0  0  0  0  0  0  0
    7.5630   -2.7899   22.1201 C   0  0  0  0  0  0  0  0  0  0  0  0
   10.9068   -3.3877   25.4599 C   0  0  0  0  0  0  0  0  0  0  0  0
   10.3397   -4.0236   24.4299 C   0  0  0  0  0  0  0  0  0  0  0  0
    9.6983   -3.2487   23.3274 C   0  0  0  0  0  0  0  0  0  0  0  0
    7.1665   -3.7126   25.2682 C   0  0  0  0  0  0  0  0  0  0  0  0
    5.5157   -6.7523   31.2659 C   0  0  0  0  0  0  0  0  0  0  0  0
    8.1717    0.3026   19.0773 C   0  0  0  0  0  0  0  0  0  0  0  0
    5.7802    0.6451   19.7842 C   0  0  0  0  0  0  0  0  0  0  0  0
    6.3489   -1.0328   18.0399 C   0  0  0  0  0  0  0  0  0  0  0  0
    6.8128   -5.9686   31.0825 C   0  0  0  0  0  0  0  0  0  0  0  0
    7.5858   -4.4383   23.9923 C   0  0  2  0  0  0  0  0  0  0  0  0
    6.8313   -0.4066   19.3680 C   0  0  0  0  0  0  0  0  0  0  0  0
    4.0185   -5.4793   23.2349 N   0  0  0  0  0  0  0  0  0  0  0  0
    6.2621   -3.0028   21.9026 N   0  0  0  0  0  0  0  0  0  0  0  0
    7.2177   -4.5610   26.3714 N   0  0  0  0  0  0  0  0  0  0  0  0
    8.2885   -3.4677   23.0788 N   0  0  0  0  0  0  0  0  0  0  0  0
   10.3922   -2.4831   22.6577 O   0  0  0  0  0  0  0  0  0  0  0  0
    6.8261   -2.5326   25.2566 O   0  0  0  0  0  0  0  0  0  0  0  0
    5.9226   -2.1328   20.8735 O   0  0  0  0  0  0  0  0  0  0  0  0
    7.5164   -5.5169   26.1898 H   0  0  0  0  0  0  0  0  0  0  0  0
  1  3  2  0  0  0  0
  1  5  1  0  0  0  0
  2  4  2  0  0  0  0
  2  8  1  0  0  0  0
  3 10  1  0  0  0  0
  4 11  1  0  0  0  0
  5 12  2  0  0  0  0
  6 10  2  0  0  0  0
  6 12  1  0  0  0  0
  7 13  2  0  0  0  0
  7 14  1  0  0  0  0
  8 26  2  0  0  0  0
  9 11  2  0  0  0  0
  9 26  1  0  0  0  0
 10 23  1  0  0  0  0
 11 24  1  0  0  0  0
 12 28  1  0  0  0  0
 13 25  1  0  0  0  0
 13 32  1  0  0  0  0
 14 27  2  0  0  0  0
 14 29  1  0  0  0  0
 15 16  2  0  0  0  0
 16 17  1  0  0  0  0
 17 29  1  0  0  0  0
 17 30  2  0  0  0  0
 18 24  1  0  0  0  0
 18 28  1  0  0  0  0
 18 31  2  0  0  0  0
 19 23  1  0  0  0  0
 20 25  1  0  0  0  0
 21 25  1  0  0  0  0
 22 25  1  0  0  0  0
 24 29  1  0  0  0  0
 27 32  1  0  0  0  0
 28 33  1  0  0  0  0
M  END
> <ref_mols>
x2700_0

> <original SMILES>
CCC=1C=CC=C(NC(=O)C(N(C(=O)C=C)C=2C=C(ON2)C(C)(C)C)C=3C=CC=NC3)C1

> <Chemgauss4>
-4.035255

> <ref_pdb>
x1380_0

> <CYS145-warhead dist minimum (A)>
9.201373

> <CYS145-warhead dist mean (A)>
10.860319

> <CYS145-warhead dist stddev (A)>
0.7186599

$$$$
x2532
  -OEChem-05172015543D

 33 35  0     1  0  0  0  0  0999 V2000
    6.1739   -2.6545   29.3774 C   0  0  0  0  0  0  0  0  0  0  0  0
    5.4481   -6.3223   21.4770 C   0  0  0  0  0  0  0  0  0  0  0  0
    6.2807   -3.6343   30.3644 C   0  0  0  0  0  0  0  0  0  0  0  0
    6.5575   -5.7619   22.1002 C   0  0  0  0  0  0  0  0  0  0  0  0
    6.4849   -2.9620   28.0529 C   0  0  0  0  0  0  0  0  0  0  0  0
    7.0098   -5.2290   28.7024 C   0  0  0  0  0  0  0  0  0  0  0  0
    8.0928   -1.8067   21.2668 C   0  0  0  0  0  0  0  0  0  0  0  0
    4.2118   -6.1542   22.0795 C   0  0  0  0  0  0  0  0  0  0  0  0
    5.1201   -4.9485   23.8115 C   0  0  0  0  0  0  0  0  0  0  0  0
    6.6987   -4.9215   30.0269 C   0  0  0  0  0  0  0  0  0  0  0  0
    6.3989   -5.0603   23.2902 C   0  0  0  0  0  0  0  0  0  0  0  0
    6.9029   -4.2492   27.7154 C   0  0  0  0  0  0  0  0  0  0  0  0
    7.0211   -1.4260   20.5034 C   0  0  0  0  0  0  0  0  0  0  0  0
    7.5630   -2.7899   22.1201 C   0  0  0  0  0  0  0  0  0  0  0  0
   10.9068   -3.3877   25.4599 C   0  0  0  0  0  0  0  0  0  0  0  0
   10.3397   -4.0236   24.4299 C   0  0  0  0  0  0  0  0  0  0  0  0
    9.6983   -3.2487   23.3274 C   0  0  0  0  0  0  0  0  0  0  0  0
    7.1665   -3.7126   25.2682 C   0  0  0  0  0  0  0  0  0  0  0  0
    5.5157   -6.7523   31.2659 C   0  0  0  0  0  0  0  0  0  0  0  0
    8.1717    0.3026   19.0773 C   0  0  0  0  0  0  0  0  0  0  0  0
    5.7802    0.6451   19.7842 C   0  0  0  0  0  0  0  0  0  0  0  0
    6.3489   -1.0328   18.0399 C   0  0  0  0  0  0  0  0  0  0  0  0
    6.8128   -5.9686   31.0825 C   0  0  0  0  0  0  0  0  0  0  0  0
    7.5858   -4.4383   23.9923 C   0  0  2  0  0  0  0  0  0  0  0  0
    6.8313   -0.4066   19.3680 C   0  0  0  0  0  0  0  0  0  0  0  0
    4.0185   -5.4793   23.2349 N   0  0  0  0  0  0  0  0  0  0  0  0
    6.2621   -3.0028   21.9026 N   0  0  0  0  0  0  0  0  0  0  0  0
    7.2177   -4.5610   26.3714 N   0  0  0  0  0  0  0  0  0  0  0  0
    8.2885   -3.4677   23.0788 N   0  0  0  0  0  0  0  0  0  0  0  0
   10.3922   -2.4831   22.6577 O   0  0  0  0  0  0  0  0  0  0  0  0
    6.8261   -2.5326   25.2566 O   0  0  0  0  0  0  0  0  0  0  0  0
    5.9226   -2.1328   20.8735 O   0  0  0  0  0  0  0  0  0  0  0  0
    7.5164   -5.5169   26.1898 H   0  0  0  0  0  0  0  0  0  0  0  0
  1  3  2  0  0  0  0
  1  5  1  0  0  0  0
  2  4  2  0  0  0  0
  2  8  1  0  0  0  0
  3 10  1  0  0  0  0
  4 11  1  0  0  0  0
  5 12  2  0  0  0  0
  6 10  2  0  0  0  0
  6 12  1  0  0  0  0
  7 13  2  0  0  0  0
  7 14  1  0  0  0  0
  8 26  2  0  0  0  0
  9 11  2  0  0  0  0
  9 26  1  0  0  0  0
 10 23  1  0  0  0  0
 11 24  1  0  0  0  0
 12 28  1  0  0  0  0
 13 25  1  0  0  0  0
 13 32  1  0  0  0  0
 14 27  2  0  0  0  0
 14 29  1  0  0  0  0
 15 16  2  0  0  0  0
 16 17  1  0  0  0  0
 17 29  1  0  0  0  0
 17 30  2  0  0  0  0
 18 24  1  0  0  0  0
 18 28  1  0  0  0  0
 18 31  2  0  0  0  0
 19 23  1  0  0  0  0
 20 25  1  0  0  0  0
 21 25  1  0  0  0  0
 22 25  1  0  0  0  0
 24 29  1  0  0  0  0
 27 32  1  0  0  0  0
 28 33  1  0  0  0  0
M  END
> <ref_mols>
x2532_0

> <original SMILES>
CCC=1C=CC=C(NC(=O)C(N(C(=O)C=C)C=2C=C(ON2)C(C)(C)C)C=3C=CC=NC3)C1

> <Chemgauss4>
-4.035255

> <ref_pdb>
x1380_0

$$$$
x1009
  -OEChem-05172015543D

  8  7  0     0  0  0  0  0  0999 V2000
   13.5393   -0.7048   22.6928 C   0  0  0  0  0  0  0  0  0  0  0  0
   11.4265   -1.8214   22.0452 C   0  0  0  0  0  0  0  0  0  0  0  0
   12.8145   -1.3945   21.6205 C   0  0  0  0  0  0  0  0  0  0  0  0
   14.1162   -0.1585   23.5385 N   0  0  0  0  0  0  0  0  0  0  0  0
   10.7343   -2.4376   21.0237 N   0  0  0  0  0  0  0  0  0  0  0  0
   10.9626   -1.6417   23.1678 O   0  0  0  0  0  0  0  0  0  0  0  0
   11.1872   -2.5477   20.1225 H   0  0  0  0  0  0  0  0  0  0  0  0
    9.7877   -2.7849   21.1417 H   0  0  0  0  0  0  0  0  0  0  0  0
  1  3  1  0  0  0  0
  1  4  3  0  0  0  0
  2  3  1  0  0  0  0
  2  5  1  0  0  0  0
  2  6  2  0  0  0  0
  5  7  1  0  0  0  0
  5  8  1  0  0  0  0
M  END
> <ref_mols>
x1009_0

> <original SMILES>
NC(=O)CC#N

> <Chemgauss4>
-3.994624

> <ref_pdb>
x1382_0

> <CYS145-warhead dist minimum (A)>
61.287724

> <CYS145-warhead dist mean (A)>
62.180866

> <CYS145-warhead dist stddev (A)>
0.6071192

$$$$
x2696
  -OEChem-05172015543D

 33 35  0     1  0  0  0  0  0999 V2000
    5.8472   -4.2949   27.3553 C   0  0  0  0  0  0  0  0  0  0  0  0
    6.5648   -5.3806   27.8571 C   0  0  0  0  0  0  0  0  0  0  0  0
    6.9543   -0.7283   19.3224 C   0  0  0  0  0  0  0  0  0  0  0  0
    7.6882   -0.6738   20.5021 C   0  0  0  0  0  0  0  0  0  0  0  0
    6.3386   -3.5784   26.2640 C   0  0  0  0  0  0  0  0  0  0  0  0
   10.5928    1.0729   23.9819 C   0  0  0  0  0  0  0  0  0  0  0  0
   11.9672    1.2886   24.0820 C   0  0  0  0  0  0  0  0  0  0  0  0
    7.7739   -5.7498   27.2677 C   0  0  0  0  0  0  0  0  0  0  0  0
   10.9946   -0.8125   22.5257 C   0  0  0  0  0  0  0  0  0  0  0  0
    6.0018   -1.7267   19.1967 C   0  0  0  0  0  0  0  0  0  0  0  0
    6.4758   -2.5652   21.2824 C   0  0  0  0  0  0  0  0  0  0  0  0
    7.4506   -1.6062   21.5058 C   0  0  0  0  0  0  0  0  0  0  0  0
   12.3691   -0.5969   22.6257 C   0  0  0  0  0  0  0  0  0  0  0  0
   10.1065    0.0223   23.2038 C   0  0  0  0  0  0  0  0  0  0  0  0
   12.8554    0.4537   23.4039 C   0  0  0  0  0  0  0  0  0  0  0  0
    7.5477   -3.9477   25.6746 C   0  0  0  0  0  0  0  0  0  0  0  0
    8.2654   -5.0334   26.1764 C   0  0  0  0  0  0  0  0  0  0  0  0
    7.7959    3.3126   23.3634 C   0  0  0  0  0  0  0  0  0  0  0  0
    8.2798    2.2029   22.7964 C   0  0  0  0  0  0  0  0  0  0  0  0
    7.7570    0.8635   23.1965 C   0  0  0  0  0  0  0  0  0  0  0  0
    7.4025   -2.0982   23.9703 C   0  0  0  0  0  0  0  0  0  0  0  0
   13.2979   -1.5055   21.8880 C   0  0  0  0  0  0  0  0  0  0  0  0
   15.0095    0.0502   24.5688 C   0  0  0  0  0  0  0  0  0  0  0  0
   14.9196    1.5542   22.5742 C   0  0  0  0  0  0  0  0  0  0  0  0
    8.2317   -1.5733   22.8009 C   0  0  2  0  0  0  0  0  0  0  0  0
    5.7427   -2.6498   20.1497 N   0  0  0  0  0  0  0  0  0  0  0  0
    8.0137   -3.1969   24.5693 N   0  0  0  0  0  0  0  0  0  0  0  0
    8.6749   -0.2013   23.0995 N   0  0  0  0  0  0  0  0  0  0  0  0
   14.2436    0.6868   23.5170 N   0  0  0  0  0  0  0  0  0  0  0  0
    6.5862    0.7690   23.5660 O   0  0  0  0  0  0  0  0  0  0  0  0
    6.3341   -1.5816   24.2863 O   0  0  0  0  0  0  0  0  0  0  0  0
    9.9174   -5.5772   25.4158 Br  0  0  0  0  0  0  0  0  0  0  0  0
    8.8990   -3.4947   24.1648 H   0  0  0  0  0  0  0  0  0  0  0  0
  1  2  1  0  0  0  0
  1  5  2  0  0  0  0
  2  8  2  0  0  0  0
  3  4  2  0  0  0  0
  3 10  1  0  0  0  0
  4 12  1  0  0  0  0
  5 16  1  0  0  0  0
  6  7  2  0  0  0  0
  6 14  1  0  0  0  0
  7 15  1  0  0  0  0
  8 17  1  0  0  0  0
  9 13  1  0  0  0  0
  9 14  2  0  0  0  0
 10 26  2  0  0  0  0
 11 12  2  0  0  0  0
 11 26  1  0  0  0  0
 12 25  1  0  0  0  0
 13 15  2  0  0  0  0
 13 22  1  0  0  0  0
 14 28  1  0  0  0  0
 15 29  1  0  0  0  0
 16 17  2  0  0  0  0
 16 27  1  0  0  0  0
 17 32  1  0  0  0  0
 18 19  2  0  0  0  0
 19 20  1  0  0  0  0
 20 28  1  0  0  0  0
 20 30  2  0  0  0  0
 21 25  1  0  0  0  0
 21 27  1  0  0  0  0
 21 31  2  0  0  0  0
 23 29  1  0  0  0  0
 24 29  1  0  0  0  0
 25 28  1  0  0  0  0
 27 33  1  0  0  0  0
M  END
> <ref_mols>
x2696_0

> <original SMILES>
CN(C)C=1C=CC(=CC1C)N(C(C(=O)NC=2C=CC=CC2Br)C=3C=CC=NC3)C(=O)C=C

> <Chemgauss4>
-3.970939

> <ref_pdb>
x1392_0

> <CYS145-warhead dist minimum (A)>
6.8772006

> <CYS145-warhead dist mean (A)>
8.104374

> <CYS145-warhead dist stddev (A)>
0.24754052

$$$$
x2528
  -OEChem-05172015543D

 33 35  0     1  0  0  0  0  0999 V2000
    5.8472   -4.2949   27.3553 C   0  0  0  0  0  0  0  0  0  0  0  0
    6.5648   -5.3806   27.8571 C   0  0  0  0  0  0  0  0  0  0  0  0
    6.9543   -0.7283   19.3224 C   0  0  0  0  0  0  0  0  0  0  0  0
    7.6882   -0.6738   20.5021 C   0  0  0  0  0  0  0  0  0  0  0  0
    6.3386   -3.5784   26.2640 C   0  0  0  0  0  0  0  0  0  0  0  0
   10.5928    1.0729   23.9819 C   0  0  0  0  0  0  0  0  0  0  0  0
   11.9672    1.2886   24.0820 C   0  0  0  0  0  0  0  0  0  0  0  0
    7.7739   -5.7498   27.2677 C   0  0  0  0  0  0  0  0  0  0  0  0
   10.9946   -0.8125   22.5257 C   0  0  0  0  0  0  0  0  0  0  0  0
    6.0018   -1.7267   19.1967 C   0  0  0  0  0  0  0  0  0  0  0  0
    6.4758   -2.5652   21.2824 C   0  0  0  0  0  0  0  0  0  0  0  0
    7.4506   -1.6062   21.5058 C   0  0  0  0  0  0  0  0  0  0  0  0
   12.3691   -0.5969   22.6257 C   0  0  0  0  0  0  0  0  0  0  0  0
   10.1065    0.0223   23.2038 C   0  0  0  0  0  0  0  0  0  0  0  0
   12.8554    0.4537   23.4039 C   0  0  0  0  0  0  0  0  0  0  0  0
    7.5477   -3.9477   25.6746 C   0  0  0  0  0  0  0  0  0  0  0  0
    8.2654   -5.0334   26.1764 C   0  0  0  0  0  0  0  0  0  0  0  0
    7.7959    3.3126   23.3634 C   0  0  0  0  0  0  0  0  0  0  0  0
    8.2798    2.2029   22.7964 C   0  0  0  0  0  0  0  0  0  0  0  0
    7.7570    0.8635   23.1965 C   0  0  0  0  0  0  0  0  0  0  0  0
    7.4025   -2.0982   23.9703 C   0  0  0  0  0  0  0  0  0  0  0  0
   13.2979   -1.5055   21.8880 C   0  0  0  0  0  0  0  0  0  0  0  0
   15.0095    0.0502   24.5688 C   0  0  0  0  0  0  0  0  0  0  0  0
   14.9196    1.5542   22.5742 C   0  0  0  0  0  0  0  0  0  0  0  0
    8.2317   -1.5733   22.8009 C   0  0  2  0  0  0  0  0  0  0  0  0
    5.7427   -2.6498   20.1497 N   0  0  0  0  0  0  0  0  0  0  0  0
    8.0137   -3.1969   24.5693 N   0  0  0  0  0  0  0  0  0  0  0  0
    8.6749   -0.2013   23.0995 N   0  0  0  0  0  0  0  0  0  0  0  0
   14.2436    0.6868   23.5170 N   0  0  0  0  0  0  0  0  0  0  0  0
    6.5862    0.7690   23.5660 O   0  0  0  0  0  0  0  0  0  0  0  0
    6.3341   -1.5816   24.2863 O   0  0  0  0  0  0  0  0  0  0  0  0
    9.9174   -5.5772   25.4158 Br  0  0  0  0  0  0  0  0  0  0  0  0
    8.8990   -3.4947   24.1648 H   0  0  0  0  0  0  0  0  0  0  0  0
  1  2  1  0  0  0  0
  1  5  2  0  0  0  0
  2  8  2  0  0  0  0
  3  4  2  0  0  0  0
  3 10  1  0  0  0  0
  4 12  1  0  0  0  0
  5 16  1  0  0  0  0
  6  7  2  0  0  0  0
  6 14  1  0  0  0  0
  7 15  1  0  0  0  0
  8 17  1  0  0  0  0
  9 13  1  0  0  0  0
  9 14  2  0  0  0  0
 10 26  2  0  0  0  0
 11 12  2  0  0  0  0
 11 26  1  0  0  0  0
 12 25  1  0  0  0  0
 13 15  2  0  0  0  0
 13 22  1  0  0  0  0
 14 28  1  0  0  0  0
 15 29  1  0  0  0  0
 16 17  2  0  0  0  0
 16 27  1  0  0  0  0
 17 32  1  0  0  0  0
 18 19  2  0  0  0  0
 19 20  1  0  0  0  0
 20 28  1  0  0  0  0
 20 30  2  0  0  0  0
 21 25  1  0  0  0  0
 21 27  1  0  0  0  0
 21 31  2  0  0  0  0
 23 29  1  0  0  0  0
 24 29  1  0  0  0  0
 25 28  1  0  0  0  0
 27 33  1  0  0  0  0
M  END
> <ref_mols>
x2528_0

> <original SMILES>
CN(C)C=1C=CC(=CC1C)N(C(C(=O)NC=2C=CC=CC2Br)C=3C=CC=NC3)C(=O)C=C

> <Chemgauss4>
-3.970939

> <ref_pdb>
x1392_0

$$$$
x1033
  -OEChem-05172015543D

  5  5  0     0  0  0  0  0  0999 V2000
   11.0546   -1.4575   22.4539 C   0  0  0  0  0  0  0  0  0  0  0  0
   13.5779   -1.3360   22.3213 C   0  0  0  0  0  0  0  0  0  0  0  0
   13.1234   -0.2021   23.1912 C   0  0  0  0  0  0  0  0  0  0  0  0
   12.2258   -0.7137   22.0965 C   0  0  0  0  0  0  0  0  0  0  0  0
   10.1062   -2.0598   22.7434 N   0  0  0  0  0  0  0  0  0  0  0  0
  1  4  1  0  0  0  0
  1  5  3  0  0  0  0
  2  3  1  0  0  0  0
  2  4  1  0  0  0  0
  3  4  1  0  0  0  0
M  END
> <ref_mols>
x1033_0

> <original SMILES>
N#CC1CC1

> <Chemgauss4>
-3.752737

> <ref_pdb>
x0708_0

> <CYS145-warhead dist minimum (A)>
5.0778522

> <CYS145-warhead dist mean (A)>
6.2266974

> <CYS145-warhead dist stddev (A)>
0.45786768

$$$$
x2865
  -OEChem-05172015543D

 35 38  0     1  0  0  0  0  0999 V2000
    5.0653   -3.2682   18.7822 C   0  0  0  0  0  0  0  0  0  0  0  0
    9.0708   -4.3276   24.9815 C   0  0  0  0  0  0  0  0  0  0  0  0
   12.9489    2.2613   23.8505 C   0  0  0  0  0  0  0  0  0  0  0  0
   10.8505    2.9894   22.8998 C   0  0  0  0  0  0  0  0  0  0  0  0
    5.2027   -3.9844   19.9712 C   0  0  0  0  0  0  0  0  0  0  0  0
    5.7645   -2.0747   18.6020 C   0  0  0  0  0  0  0  0  0  0  0  0
    9.2636   -3.4324   23.9353 C   0  0  0  0  0  0  0  0  0  0  0  0
   12.5678    0.9314   23.6732 C   0  0  0  0  0  0  0  0  0  0  0  0
   10.4694    1.6594   22.7224 C   0  0  0  0  0  0  0  0  0  0  0  0
    8.9137   -3.8102   26.2572 C   0  0  0  0  0  0  0  0  0  0  0  0
    9.1257   -1.6501   25.5041 C   0  0  0  0  0  0  0  0  0  0  0  0
   12.0902    3.2904   23.4638 C   0  0  0  0  0  0  0  0  0  0  0  0
    9.2930   -2.0663   24.1931 C   0  0  0  0  0  0  0  0  0  0  0  0
    6.0393   -3.5071   20.9801 C   0  0  0  0  0  0  0  0  0  0  0  0
    6.6011   -1.5974   19.6109 C   0  0  0  0  0  0  0  0  0  0  0  0
   11.3281    0.6304   23.1092 C   0  0  0  0  0  0  0  0  0  0  0  0
    6.7385   -2.3136   20.8000 C   0  0  0  0  0  0  0  0  0  0  0  0
   14.2637   -1.9520   22.1186 C   0  0  0  0  0  0  0  0  0  0  0  0
   13.0866   -1.3528   21.9127 C   0  0  0  0  0  0  0  0  0  0  0  0
   11.8842   -1.7667   22.6938 C   0  0  0  0  0  0  0  0  0  0  0  0
    8.9565   -1.5877   21.7485 C   0  0  0  0  0  0  0  0  0  0  0  0
   12.7935    5.1833   25.0654 C   0  0  0  0  0  0  0  0  0  0  0  0
   11.5385    5.6331   24.3852 C   0  0  0  0  0  0  0  0  0  0  0  0
   12.4973    4.7113   23.6533 C   0  0  0  0  0  0  0  0  0  0  0  0
    6.1659   -4.2967   22.2428 C   0  0  0  0  0  0  0  0  0  0  0  0
   13.3137    5.2939   22.5332 C   0  0  0  0  0  0  0  0  0  0  0  0
    6.7001    0.8531   20.1320 C   0  0  0  0  0  0  0  0  0  0  0  0
    7.3370   -0.3160   19.3876 C   0  0  0  0  0  0  0  0  0  0  0  0
    9.5001   -1.0668   23.0766 C   0  0  2  0  0  0  0  0  0  0  0  0
    8.9363   -2.4898   26.5465 N   0  0  0  0  0  0  0  0  0  0  0  0
    7.5870   -1.8290   21.8236 N   0  0  0  0  0  0  0  0  0  0  0  0
   10.9310   -0.7547   22.9246 N   0  0  0  0  0  0  0  0  0  0  0  0
   11.8037   -2.9304   23.0882 O   0  0  0  0  0  0  0  0  0  0  0  0
    9.6871   -1.7623   20.7769 O   0  0  0  0  0  0  0  0  0  0  0  0
    7.1447   -1.6341   22.7194 H   0  0  0  0  0  0  0  0  0  0  0  0
  1  5  1  0  0  0  0
  1  6  2  0  0  0  0
  2  7  2  0  0  0  0
  2 10  1  0  0  0  0
  3  8  2  0  0  0  0
  3 12  1  0  0  0  0
  4  9  1  0  0  0  0
  4 12  2  0  0  0  0
  5 14  2  0  0  0  0
  6 15  1  0  0  0  0
  7 13  1  0  0  0  0
  8 16  1  0  0  0  0
  9 16  2  0  0  0  0
 10 30  2  0  0  0  0
 11 13  2  0  0  0  0
 11 30  1  0  0  0  0
 12 24  1  0  0  0  0
 13 29  1  0  0  0  0
 14 17  1  0  0  0  0
 14 25  1  0  0  0  0
 15 17  2  0  0  0  0
 15 28  1  0  0  0  0
 16 32  1  0  0  0  0
 17 31  1  0  0  0  0
 18 19  2  0  0  0  0
 19 20  1  0  0  0  0
 20 32  1  0  0  0  0
 20 33  2  0  0  0  0
 21 29  1  0  0  0  0
 21 31  1  0  0  0  0
 21 34  2  0  0  0  0
 22 23  1  0  0  0  0
 22 24  1  0  0  0  0
 23 24  1  0  0  0  0
 24 26  1  0  0  0  0
 27 28  1  0  0  0  0
 29 32  1  0  0  0  0
 31 35  1  0  0  0  0
M  END
> <ref_mols>
x2865_0

> <original SMILES>
CCC=1C=CC=C(C)C1NC(=O)C(N(C(=O)C=C)C=2C=CC(=CC2)C3(C)CC3)C=4C=CC=NC4

> <Chemgauss4>
-3.686610

> <ref_pdb>
x0831_0

$$$$
x2535
  -OEChem-05172015543D

 34 36  0     1  0  0  0  0  0999 V2000
   12.9187    1.1048   23.6048 C   0  0  0  0  0  0  0  0  0  0  0  0
    6.4356   -3.8533   25.9532 C   0  0  0  0  0  0  0  0  0  0  0  0
   11.8607    0.9139   24.4935 C   0  0  0  0  0  0  0  0  0  0  0  0
   13.0827    0.2431   22.5202 C   0  0  0  0  0  0  0  0  0  0  0  0
    6.8320   -3.2997   24.7409 C   0  0  0  0  0  0  0  0  0  0  0  0
    5.9732   -1.7121   20.1639 C   0  0  0  0  0  0  0  0  0  0  0  0
    6.0438   -0.6941   19.2193 C   0  0  0  0  0  0  0  0  0  0  0  0
    7.0138   -5.0520   26.3387 C   0  0  0  0  0  0  0  0  0  0  0  0
    8.2992   -5.1466   24.4368 C   0  0  0  0  0  0  0  0  0  0  0  0
    8.3484   -1.6921   20.2864 C   0  0  0  0  0  0  0  0  0  0  0  0
    7.7811   -3.9524   23.9622 C   0  0  0  0  0  0  0  0  0  0  0  0
   10.9668   -0.1388   24.2978 C   0  0  0  0  0  0  0  0  0  0  0  0
   12.1887   -0.8096   22.3245 C   0  0  0  0  0  0  0  0  0  0  0  0
    7.1429   -2.2261   20.7124 C   0  0  0  0  0  0  0  0  0  0  0  0
   11.1308   -1.0006   23.2133 C   0  0  0  0  0  0  0  0  0  0  0  0
    7.2984   -0.2285   18.8603 C   0  0  0  0  0  0  0  0  0  0  0  0
    5.5685   -6.4059   22.7626 C   0  0  0  0  0  0  0  0  0  0  0  0
    6.4577   -5.6151   22.1536 C   0  0  0  0  0  0  0  0  0  0  0  0
    6.0665   -4.2455   21.7081 C   0  0  0  0  0  0  0  0  0  0  0  0
    8.8488   -1.9891   22.8117 C   0  0  0  0  0  0  0  0  0  0  0  0
    9.8434   -0.3177   25.2671 C   0  0  0  0  0  0  0  0  0  0  0  0
   11.9305   -1.0797   19.8452 C   0  0  0  0  0  0  0  0  0  0  0  0
    8.1702    0.4175   16.5852 C   0  0  0  0  0  0  0  0  0  0  0  0
    8.0598    2.1351   18.4271 C   0  0  0  0  0  0  0  0  0  0  0  0
   12.3909   -1.7154   21.1531 C   0  0  0  0  0  0  0  0  0  0  0  0
    8.2337   -3.3757   22.6389 C   0  0  2  0  0  0  0  0  0  0  0  0
    7.4116    0.8631   17.8492 C   0  0  0  0  0  0  0  0  0  0  0  0
    7.9386   -5.7153   25.6091 N   0  0  0  0  0  0  0  0  0  0  0  0
    8.4566   -0.7030   19.3712 N   0  0  0  0  0  0  0  0  0  0  0  0
   10.2242   -2.0689   23.0148 N   0  0  0  0  0  0  0  0  0  0  0  0
    7.1018   -3.2894   21.7013 N   0  0  0  0  0  0  0  0  0  0  0  0
    4.8949   -4.0353   21.3930 O   0  0  0  0  0  0  0  0  0  0  0  0
    8.1630   -0.9709   22.7778 O   0  0  0  0  0  0  0  0  0  0  0  0
   10.6241   -3.0049   23.0214 H   0  0  0  0  0  0  0  0  0  0  0  0
  1  3  1  0  0  0  0
  1  4  2  0  0  0  0
  2  5  2  0  0  0  0
  2  8  1  0  0  0  0
  3 12  2  0  0  0  0
  4 13  1  0  0  0  0
  5 11  1  0  0  0  0
  6  7  2  0  0  0  0
  6 14  1  0  0  0  0
  7 16  1  0  0  0  0
  8 28  2  0  0  0  0
  9 11  2  0  0  0  0
  9 28  1  0  0  0  0
 10 14  2  0  0  0  0
 10 29  1  0  0  0  0
 11 26  1  0  0  0  0
 12 15  1  0  0  0  0
 12 21  1  0  0  0  0
 13 15  2  0  0  0  0
 13 25  1  0  0  0  0
 14 31  1  0  0  0  0
 15 30  1  0  0  0  0
 16 27  1  0  0  0  0
 16 29  2  0  0  0  0
 17 18  2  0  0  0  0
 18 19  1  0  0  0  0
 19 31  1  0  0  0  0
 19 32  2  0  0  0  0
 20 26  1  0  0  0  0
 20 30  1  0  0  0  0
 20 33  2  0  0  0  0
 22 25  1  0  0  0  0
 23 27  1  0  0  0  0
 24 27  1  0  0  0  0
 26 31  1  0  0  0  0
 30 34  1  0  0  0  0
M  END
> <ref_mols>
x2535_0

> <original SMILES>
CCC=1C=CC=C(C)C1NC(=O)C(N(C(=O)C=C)C=2C=CC(=NC2)C(C)C)C=3C=CC=NC3

> <Chemgauss4>
-3.682618

> <ref_pdb>
x1392_0

$$$$
x2703
  -OEChem-05172015543D

 34 36  0     1  0  0  0  0  0999 V2000
   12.9187    1.1048   23.6048 C   0  0  0  0  0  0  0  0  0  0  0  0
    6.4356   -3.8533   25.9532 C   0  0  0  0  0  0  0  0  0  0  0  0
   11.8607    0.9139   24.4935 C   0  0  0  0  0  0  0  0  0  0  0  0
   13.0827    0.2431   22.5202 C   0  0  0  0  0  0  0  0  0  0  0  0
    6.8320   -3.2997   24.7409 C   0  0  0  0  0  0  0  0  0  0  0  0
    5.9732   -1.7121   20.1639 C   0  0  0  0  0  0  0  0  0  0  0  0
    6.0438   -0.6941   19.2193 C   0  0  0  0  0  0  0  0  0  0  0  0
    7.0138   -5.0520   26.3387 C   0  0  0  0  0  0  0  0  0  0  0  0
    8.2992   -5.1466   24.4368 C   0  0  0  0  0  0  0  0  0  0  0  0
    8.3484   -1.6921   20.2864 C   0  0  0  0  0  0  0  0  0  0  0  0
    7.7811   -3.9524   23.9622 C   0  0  0  0  0  0  0  0  0  0  0  0
   10.9668   -0.1388   24.2978 C   0  0  0  0  0  0  0  0  0  0  0  0
   12.1887   -0.8096   22.3245 C   0  0  0  0  0  0  0  0  0  0  0  0
    7.1429   -2.2261   20.7124 C   0  0  0  0  0  0  0  0  0  0  0  0
   11.1308   -1.0006   23.2133 C   0  0  0  0  0  0  0  0  0  0  0  0
    7.2984   -0.2285   18.8603 C   0  0  0  0  0  0  0  0  0  0  0  0
    5.5685   -6.4059   22.7626 C   0  0  0  0  0  0  0  0  0  0  0  0
    6.4577   -5.6151   22.1536 C   0  0  0  0  0  0  0  0  0  0  0  0
    6.0665   -4.2455   21.7081 C   0  0  0  0  0  0  0  0  0  0  0  0
    8.8488   -1.9891   22.8117 C   0  0  0  0  0  0  0  0  0  0  0  0
    9.8434   -0.3177   25.2671 C   0  0  0  0  0  0  0  0  0  0  0  0
   11.9305   -1.0797   19.8452 C   0  0  0  0  0  0  0  0  0  0  0  0
    8.1702    0.4175   16.5852 C   0  0  0  0  0  0  0  0  0  0  0  0
    8.0598    2.1351   18.4271 C   0  0  0  0  0  0  0  0  0  0  0  0
   12.3909   -1.7154   21.1531 C   0  0  0  0  0  0  0  0  0  0  0  0
    8.2337   -3.3757   22.6389 C   0  0  2  0  0  0  0  0  0  0  0  0
    7.4116    0.8631   17.8492 C   0  0  0  0  0  0  0  0  0  0  0  0
    7.9386   -5.7153   25.6091 N   0  0  0  0  0  0  0  0  0  0  0  0
    8.4566   -0.7030   19.3712 N   0  0  0  0  0  0  0  0  0  0  0  0
   10.2242   -2.0689   23.0148 N   0  0  0  0  0  0  0  0  0  0  0  0
    7.1018   -3.2894   21.7013 N   0  0  0  0  0  0  0  0  0  0  0  0
    4.8949   -4.0353   21.3930 O   0  0  0  0  0  0  0  0  0  0  0  0
    8.1630   -0.9709   22.7778 O   0  0  0  0  0  0  0  0  0  0  0  0
   10.6241   -3.0049   23.0214 H   0  0  0  0  0  0  0  0  0  0  0  0
  1  3  1  0  0  0  0
  1  4  2  0  0  0  0
  2  5  2  0  0  0  0
  2  8  1  0  0  0  0
  3 12  2  0  0  0  0
  4 13  1  0  0  0  0
  5 11  1  0  0  0  0
  6  7  2  0  0  0  0
  6 14  1  0  0  0  0
  7 16  1  0  0  0  0
  8 28  2  0  0  0  0
  9 11  2  0  0  0  0
  9 28  1  0  0  0  0
 10 14  2  0  0  0  0
 10 29  1  0  0  0  0
 11 26  1  0  0  0  0
 12 15  1  0  0  0  0
 12 21  1  0  0  0  0
 13 15  2  0  0  0  0
 13 25  1  0  0  0  0
 14 31  1  0  0  0  0
 15 30  1  0  0  0  0
 16 27  1  0  0  0  0
 16 29  2  0  0  0  0
 17 18  2  0  0  0  0
 18 19  1  0  0  0  0
 19 31  1  0  0  0  0
 19 32  2  0  0  0  0
 20 26  1  0  0  0  0
 20 30  1  0  0  0  0
 20 33  2  0  0  0  0
 22 25  1  0  0  0  0
 23 27  1  0  0  0  0
 24 27  1  0  0  0  0
 26 31  1  0  0  0  0
 30 34  1  0  0  0  0
M  END
> <ref_mols>
x2703_0

> <original SMILES>
CCC=1C=CC=C(C)C1NC(=O)C(N(C(=O)C=C)C=2C=CC(=NC2)C(C)C)C=3C=CC=NC3

> <Chemgauss4>
-3.682618

> <ref_pdb>
x1392_0

> <CYS145-warhead dist minimum (A)>
4.0158396

> <CYS145-warhead dist mean (A)>
4.9362016

> <CYS145-warhead dist stddev (A)>
0.3582367

$$$$
x2692
  -OEChem-05172015543D

 34 37  0     1  0  0  0  0  0999 V2000
    5.4037   -2.7813   18.6466 C   0  0  0  0  0  0  0  0  0  0  0  0
    9.7523   -4.1446   24.5482 C   0  0  0  0  0  0  0  0  0  0  0  0
    5.7158   -3.6590   19.6847 C   0  0  0  0  0  0  0  0  0  0  0  0
    5.8578   -1.4630   18.6876 C   0  0  0  0  0  0  0  0  0  0  0  0
    9.7355   -3.0562   23.6832 C   0  0  0  0  0  0  0  0  0  0  0  0
   10.3284    3.2357   24.9517 C   0  0  0  0  0  0  0  0  0  0  0  0
   10.1703    1.9119   24.5312 C   0  0  0  0  0  0  0  0  0  0  0  0
   12.0653    2.1214   23.0332 C   0  0  0  0  0  0  0  0  0  0  0  0
    9.5451   -3.9045   25.8970 C   0  0  0  0  0  0  0  0  0  0  0  0
    9.3181   -1.6446   25.5512 C   0  0  0  0  0  0  0  0  0  0  0  0
   12.6801    5.7566   24.0371 C   0  0  0  0  0  0  0  0  0  0  0  0
    9.5149   -1.7788   24.1863 C   0  0  0  0  0  0  0  0  0  0  0  0
    6.4819   -3.2185   20.7639 C   0  0  0  0  0  0  0  0  0  0  0  0
    6.6239   -1.0225   19.7668 C   0  0  0  0  0  0  0  0  0  0  0  0
   11.3679    4.0231   24.4109 C   0  0  0  0  0  0  0  0  0  0  0  0
   11.0286    1.3640   23.5843 C   0  0  0  0  0  0  0  0  0  0  0  0
    6.9360   -1.9003   20.8050 C   0  0  0  0  0  0  0  0  0  0  0  0
   12.2183    3.4503   23.4602 C   0  0  0  0  0  0  0  0  0  0  0  0
   14.3860   -0.7821   22.5693 C   0  0  0  0  0  0  0  0  0  0  0  0
   13.2941   -0.5123   23.2919 C   0  0  0  0  0  0  0  0  0  0  0  0
   11.9372   -0.8026   22.7427 C   0  0  0  0  0  0  0  0  0  0  0  0
    9.0085   -0.9434   21.8704 C   0  0  0  0  0  0  0  0  0  0  0  0
    6.7997   -4.1824   21.8610 C   0  0  0  0  0  0  0  0  0  0  0  0
    6.2758    1.2674   20.7270 C   0  0  0  0  0  0  0  0  0  0  0  0
    7.0958    0.3954   19.7815 C   0  0  0  0  0  0  0  0  0  0  0  0
    9.4900   -0.5744   23.2713 C   0  0  2  0  0  0  0  0  0  0  0  0
    9.3277   -2.6781   26.4227 N   0  0  0  0  0  0  0  0  0  0  0  0
   11.6452    5.3441   24.7309 N   0  0  0  0  0  0  0  0  0  0  0  0
    7.7129   -1.4531   21.9000 N   0  0  0  0  0  0  0  0  0  0  0  0
   10.8540    0.0402   23.1773 N   0  0  0  0  0  0  0  0  0  0  0  0
   11.7988   -1.7536   21.9729 O   0  0  0  0  0  0  0  0  0  0  0  0
    9.7243   -0.7970   20.8832 O   0  0  0  0  0  0  0  0  0  0  0  0
   13.3868    4.6202   22.9716 S   0  0  0  0  0  0  0  0  0  0  0  0
    7.2734   -1.5108   22.8163 H   0  0  0  0  0  0  0  0  0  0  0  0
  1  3  1  0  0  0  0
  1  4  2  0  0  0  0
  2  5  2  0  0  0  0
  2  9  1  0  0  0  0
  3 13  2  0  0  0  0
  4 14  1  0  0  0  0
  5 12  1  0  0  0  0
  6  7  2  0  0  0  0
  6 15  1  0  0  0  0
  7 16  1  0  0  0  0
  8 16  2  0  0  0  0
  8 18  1  0  0  0  0
  9 27  2  0  0  0  0
 10 12  2  0  0  0  0
 10 27  1  0  0  0  0
 11 28  2  0  0  0  0
 11 33  1  0  0  0  0
 12 26  1  0  0  0  0
 13 17  1  0  0  0  0
 13 23  1  0  0  0  0
 14 17  2  0  0  0  0
 14 25  1  0  0  0  0
 15 18  2  0  0  0  0
 15 28  1  0  0  0  0
 16 30  1  0  0  0  0
 17 29  1  0  0  0  0
 18 33  1  0  0  0  0
 19 20  2  0  0  0  0
 20 21  1  0  0  0  0
 21 30  1  0  0  0  0
 21 31  2  0  0  0  0
 22 26  1  0  0  0  0
 22 29  1  0  0  0  0
 22 32  2  0  0  0  0
 24 25  1  0  0  0  0
 26 30  1  0  0  0  0
 29 34  1  0  0  0  0
M  END
> <ref_mols>
x2692_0

> <original SMILES>
CCC=1C=CC=C(C)C1NC(=O)C(N(C(=O)C=C)C=2C=CC=3N=CSC3C2)C=4C=CC=NC4

> <Chemgauss4>
-3.652820

> <ref_pdb>
x0831_0

> <CYS145-warhead dist minimum (A)>
8.530904

> <CYS145-warhead dist mean (A)>
10.116491

> <CYS145-warhead dist stddev (A)>
0.5264044

$$$$
x2524
  -OEChem-05172015543D

 34 37  0     1  0  0  0  0  0999 V2000
    5.4037   -2.7813   18.6466 C   0  0  0  0  0  0  0  0  0  0  0  0
    9.7523   -4.1446   24.5482 C   0  0  0  0  0  0  0  0  0  0  0  0
    5.7158   -3.6590   19.6847 C   0  0  0  0  0  0  0  0  0  0  0  0
    5.8578   -1.4630   18.6876 C   0  0  0  0  0  0  0  0  0  0  0  0
    9.7355   -3.0562   23.6832 C   0  0  0  0  0  0  0  0  0  0  0  0
   10.3284    3.2357   24.9517 C   0  0  0  0  0  0  0  0  0  0  0  0
   10.1703    1.9119   24.5312 C   0  0  0  0  0  0  0  0  0  0  0  0
   12.0653    2.1214   23.0332 C   0  0  0  0  0  0  0  0  0  0  0  0
    9.5451   -3.9045   25.8970 C   0  0  0  0  0  0  0  0  0  0  0  0
    9.3181   -1.6446   25.5512 C   0  0  0  0  0  0  0  0  0  0  0  0
   12.6801    5.7566   24.0371 C   0  0  0  0  0  0  0  0  0  0  0  0
    9.5149   -1.7788   24.1863 C   0  0  0  0  0  0  0  0  0  0  0  0
    6.4819   -3.2185   20.7639 C   0  0  0  0  0  0  0  0  0  0  0  0
    6.6239   -1.0225   19.7668 C   0  0  0  0  0  0  0  0  0  0  0  0
   11.3679    4.0231   24.4109 C   0  0  0  0  0  0  0  0  0  0  0  0
   11.0286    1.3640   23.5843 C   0  0  0  0  0  0  0  0  0  0  0  0
    6.9360   -1.9003   20.8050 C   0  0  0  0  0  0  0  0  0  0  0  0
   12.2183    3.4503   23.4602 C   0  0  0  0  0  0  0  0  0  0  0  0
   14.3860   -0.7821   22.5693 C   0  0  0  0  0  0  0  0  0  0  0  0
   13.2941   -0.5123   23.2919 C   0  0  0  0  0  0  0  0  0  0  0  0
   11.9372   -0.8026   22.7427 C   0  0  0  0  0  0  0  0  0  0  0  0
    9.0085   -0.9434   21.8704 C   0  0  0  0  0  0  0  0  0  0  0  0
    6.7997   -4.1824   21.8610 C   0  0  0  0  0  0  0  0  0  0  0  0
    6.2758    1.2674   20.7270 C   0  0  0  0  0  0  0  0  0  0  0  0
    7.0958    0.3954   19.7815 C   0  0  0  0  0  0  0  0  0  0  0  0
    9.4900   -0.5744   23.2713 C   0  0  2  0  0  0  0  0  0  0  0  0
    9.3277   -2.6781   26.4227 N   0  0  0  0  0  0  0  0  0  0  0  0
   11.6452    5.3441   24.7309 N   0  0  0  0  0  0  0  0  0  0  0  0
    7.7129   -1.4531   21.9000 N   0  0  0  0  0  0  0  0  0  0  0  0
   10.8540    0.0402   23.1773 N   0  0  0  0  0  0  0  0  0  0  0  0
   11.7988   -1.7536   21.9729 O   0  0  0  0  0  0  0  0  0  0  0  0
    9.7243   -0.7970   20.8832 O   0  0  0  0  0  0  0  0  0  0  0  0
   13.3868    4.6202   22.9716 S   0  0  0  0  0  0  0  0  0  0  0  0
    7.2734   -1.5108   22.8163 H   0  0  0  0  0  0  0  0  0  0  0  0
  1  3  1  0  0  0  0
  1  4  2  0  0  0  0
  2  5  2  0  0  0  0
  2  9  1  0  0  0  0
  3 13  2  0  0  0  0
  4 14  1  0  0  0  0
  5 12  1  0  0  0  0
  6  7  2  0  0  0  0
  6 15  1  0  0  0  0
  7 16  1  0  0  0  0
  8 16  2  0  0  0  0
  8 18  1  0  0  0  0
  9 27  2  0  0  0  0
 10 12  2  0  0  0  0
 10 27  1  0  0  0  0
 11 28  2  0  0  0  0
 11 33  1  0  0  0  0
 12 26  1  0  0  0  0
 13 17  1  0  0  0  0
 13 23  1  0  0  0  0
 14 17  2  0  0  0  0
 14 25  1  0  0  0  0
 15 18  2  0  0  0  0
 15 28  1  0  0  0  0
 16 30  1  0  0  0  0
 17 29  1  0  0  0  0
 18 33  1  0  0  0  0
 19 20  2  0  0  0  0
 20 21  1  0  0  0  0
 21 30  1  0  0  0  0
 21 31  2  0  0  0  0
 22 26  1  0  0  0  0
 22 29  1  0  0  0  0
 22 32  2  0  0  0  0
 24 25  1  0  0  0  0
 26 30  1  0  0  0  0
 29 34  1  0  0  0  0
M  END
> <ref_mols>
x2524_0

> <original SMILES>
CCC=1C=CC=C(C)C1NC(=O)C(N(C(=O)C=C)C=2C=CC=3N=CSC3C2)C=4C=CC=NC4

> <Chemgauss4>
-3.652820

> <ref_pdb>
x0831_0

$$$$
x2687
  -OEChem-05172015543D

 35 37  0     1  0  0  0  0  0999 V2000
    5.4146    0.6709   18.6310 C   0  0  0  0  0  0  0  0  0  0  0  0
    5.7003   -0.0874   19.7609 C   0  0  0  0  0  0  0  0  0  0  0  0
    6.1276   -5.1912   23.7028 C   0  0  0  0  0  0  0  0  0  0  0  0
    5.7307   -3.0620   24.7732 C   0  0  0  0  0  0  0  0  0  0  0  0
    6.4848   -4.5331   22.5260 C   0  0  0  0  0  0  0  0  0  0  0  0
    6.0879   -2.4038   23.5964 C   0  0  0  0  0  0  0  0  0  0  0  0
   11.6584   -0.6847   22.4483 C   0  0  0  0  0  0  0  0  0  0  0  0
   12.9671   -0.4365   22.8621 C   0  0  0  0  0  0  0  0  0  0  0  0
   12.2079    1.4888   24.1087 C   0  0  0  0  0  0  0  0  0  0  0  0
    6.4775    1.2251   17.9361 C   0  0  0  0  0  0  0  0  0  0  0  0
    8.0125    0.3302   19.3926 C   0  0  0  0  0  0  0  0  0  0  0  0
    5.7505   -4.4557   24.8264 C   0  0  0  0  0  0  0  0  0  0  0  0
    7.0215   -0.2658   20.1558 C   0  0  0  0  0  0  0  0  0  0  0  0
   10.8991    1.2406   23.6948 C   0  0  0  0  0  0  0  0  0  0  0  0
    6.4650   -3.1394   22.4728 C   0  0  0  0  0  0  0  0  0  0  0  0
   10.6244    0.1540   22.8646 C   0  0  0  0  0  0  0  0  0  0  0  0
   13.2418    0.6501   23.6924 C   0  0  0  0  0  0  0  0  0  0  0  0
    7.1315   -2.5671   17.6294 C   0  0  0  0  0  0  0  0  0  0  0  0
    7.5450   -2.5895   18.9004 C   0  0  0  0  0  0  0  0  0  0  0  0
    6.6235   -3.0406   19.9842 C   0  0  0  0  0  0  0  0  0  0  0  0
    8.8733   -1.1497   21.6075 C   0  0  0  0  0  0  0  0  0  0  0  0
    9.8118    2.1558   24.1563 C   0  0  0  0  0  0  0  0  0  0  0  0
    3.9565   -4.8128   26.5593 C   0  0  0  0  0  0  0  0  0  0  0  0
   15.5272   -0.0054   23.6343 C   0  0  0  0  0  0  0  0  0  0  0  0
    7.4940   -5.5384   27.0131 C   0  0  0  0  0  0  0  0  0  0  0  0
    7.3651   -1.0856   21.3799 C   0  0  2  0  0  0  0  0  0  0  0  0
    5.3686   -5.1595   26.0846 C   0  0  2  0  0  0  0  0  0  0  0  0
    7.7737    1.0738   18.2890 N   0  0  0  0  0  0  0  0  0  0  0  0
    9.3037   -0.1133   22.4322 N   0  0  0  0  0  0  0  0  0  0  0  0
    6.8372   -2.4537   21.2475 N   0  0  0  0  0  0  0  0  0  0  0  0
    5.7639   -3.8820   19.7211 O   0  0  0  0  0  0  0  0  0  0  0  0
    9.5667   -2.0222   21.0914 O   0  0  0  0  0  0  0  0  0  0  0  0
   14.5189    0.8919   24.0967 O   0  0  0  0  0  0  0  0  0  0  0  0
    6.2897   -4.7991   27.1204 O   0  0  0  0  0  0  0  0  0  0  0  0
    8.5844    0.5266   22.7625 H   0  0  0  0  0  0  0  0  0  0  0  0
  1  2  2  0  0  0  0
  1 10  1  0  0  0  0
  2 13  1  0  0  0  0
  3  5  2  0  0  0  0
  3 12  1  0  0  0  0
  4  6  1  0  0  0  0
  4 12  2  0  0  0  0
  5 15  1  0  0  0  0
  6 15  2  0  0  0  0
  7  8  2  0  0  0  0
  7 16  1  0  0  0  0
  8 17  1  0  0  0  0
  9 14  1  0  0  0  0
  9 17  2  0  0  0  0
 10 28  2  0  0  0  0
 11 13  2  0  0  0  0
 11 28  1  0  0  0  0
 12 27  1  0  0  0  0
 13 26  1  0  0  0  0
 14 16  2  0  0  0  0
 14 22  1  0  0  0  0
 15 30  1  0  0  0  0
 16 29  1  0  0  0  0
 17 33  1  0  0  0  0
 18 19  2  0  0  0  0
 19 20  1  0  0  0  0
 20 30  1  0  0  0  0
 20 31  2  0  0  0  0
 21 26  1  0  0  0  0
 21 29  1  0  0  0  0
 21 32  2  0  0  0  0
 23 27  1  0  0  0  0
 24 33  1  0  0  0  0
 25 34  1  0  0  0  0
 26 30  1  0  0  0  0
 27 34  1  0  0  0  0
 29 35  1  0  0  0  0
M  END
> <ref_mols>
x2687_0

> <original SMILES>
COC(C)C=1C=CC(=CC1)N(C(C(=O)NC=2C=CC(OC)=CC2C)C=3C=CC=NC3)C(=O)C=C

> <Chemgauss4>
-3.603661

> <ref_pdb>
x1418_0

> <CYS145-warhead dist minimum (A)>
4.4699793

> <CYS145-warhead dist mean (A)>
6.6970043

> <CYS145-warhead dist stddev (A)>
0.52779734

$$$$
x2519
  -OEChem-05172015543D

 35 37  0     1  0  0  0  0  0999 V2000
    5.4146    0.6709   18.6310 C   0  0  0  0  0  0  0  0  0  0  0  0
    5.7003   -0.0874   19.7609 C   0  0  0  0  0  0  0  0  0  0  0  0
    6.1276   -5.1912   23.7028 C   0  0  0  0  0  0  0  0  0  0  0  0
    5.7307   -3.0620   24.7732 C   0  0  0  0  0  0  0  0  0  0  0  0
    6.4848   -4.5331   22.5260 C   0  0  0  0  0  0  0  0  0  0  0  0
    6.0879   -2.4038   23.5964 C   0  0  0  0  0  0  0  0  0  0  0  0
   11.6584   -0.6847   22.4483 C   0  0  0  0  0  0  0  0  0  0  0  0
   12.9671   -0.4365   22.8621 C   0  0  0  0  0  0  0  0  0  0  0  0
   12.2079    1.4888   24.1087 C   0  0  0  0  0  0  0  0  0  0  0  0
    6.4775    1.2251   17.9361 C   0  0  0  0  0  0  0  0  0  0  0  0
    8.0125    0.3302   19.3926 C   0  0  0  0  0  0  0  0  0  0  0  0
    5.7505   -4.4557   24.8264 C   0  0  0  0  0  0  0  0  0  0  0  0
    7.0215   -0.2658   20.1558 C   0  0  0  0  0  0  0  0  0  0  0  0
   10.8991    1.2406   23.6948 C   0  0  0  0  0  0  0  0  0  0  0  0
    6.4650   -3.1394   22.4728 C   0  0  0  0  0  0  0  0  0  0  0  0
   10.6244    0.1540   22.8646 C   0  0  0  0  0  0  0  0  0  0  0  0
   13.2418    0.6501   23.6924 C   0  0  0  0  0  0  0  0  0  0  0  0
    7.1315   -2.5671   17.6294 C   0  0  0  0  0  0  0  0  0  0  0  0
    7.5450   -2.5895   18.9004 C   0  0  0  0  0  0  0  0  0  0  0  0
    6.6235   -3.0406   19.9842 C   0  0  0  0  0  0  0  0  0  0  0  0
    8.8733   -1.1497   21.6075 C   0  0  0  0  0  0  0  0  0  0  0  0
    9.8118    2.1558   24.1563 C   0  0  0  0  0  0  0  0  0  0  0  0
    3.9565   -4.8128   26.5593 C   0  0  0  0  0  0  0  0  0  0  0  0
   15.5272   -0.0054   23.6343 C   0  0  0  0  0  0  0  0  0  0  0  0
    7.4940   -5.5384   27.0131 C   0  0  0  0  0  0  0  0  0  0  0  0
    7.3651   -1.0856   21.3799 C   0  0  2  0  0  0  0  0  0  0  0  0
    5.3686   -5.1595   26.0846 C   0  0  2  0  0  0  0  0  0  0  0  0
    7.7737    1.0738   18.2890 N   0  0  0  0  0  0  0  0  0  0  0  0
    9.3037   -0.1133   22.4322 N   0  0  0  0  0  0  0  0  0  0  0  0
    6.8372   -2.4537   21.2475 N   0  0  0  0  0  0  0  0  0  0  0  0
    5.7639   -3.8820   19.7211 O   0  0  0  0  0  0  0  0  0  0  0  0
    9.5667   -2.0222   21.0914 O   0  0  0  0  0  0  0  0  0  0  0  0
   14.5189    0.8919   24.0967 O   0  0  0  0  0  0  0  0  0  0  0  0
    6.2897   -4.7991   27.1204 O   0  0  0  0  0  0  0  0  0  0  0  0
    8.5844    0.5266   22.7625 H   0  0  0  0  0  0  0  0  0  0  0  0
  1  2  2  0  0  0  0
  1 10  1  0  0  0  0
  2 13  1  0  0  0  0
  3  5  2  0  0  0  0
  3 12  1  0  0  0  0
  4  6  1  0  0  0  0
  4 12  2  0  0  0  0
  5 15  1  0  0  0  0
  6 15  2  0  0  0  0
  7  8  2  0  0  0  0
  7 16  1  0  0  0  0
  8 17  1  0  0  0  0
  9 14  1  0  0  0  0
  9 17  2  0  0  0  0
 10 28  2  0  0  0  0
 11 13  2  0  0  0  0
 11 28  1  0  0  0  0
 12 27  1  0  0  0  0
 13 26  1  0  0  0  0
 14 16  2  0  0  0  0
 14 22  1  0  0  0  0
 15 30  1  0  0  0  0
 16 29  1  0  0  0  0
 17 33  1  0  0  0  0
 18 19  2  0  0  0  0
 19 20  1  0  0  0  0
 20 30  1  0  0  0  0
 20 31  2  0  0  0  0
 21 26  1  0  0  0  0
 21 29  1  0  0  0  0
 21 32  2  0  0  0  0
 23 27  1  0  0  0  0
 24 33  1  0  0  0  0
 25 34  1  0  0  0  0
 26 30  1  0  0  0  0
 27 34  1  0  0  0  0
 29 35  1  0  0  0  0
M  END
> <ref_mols>
x2519_0

> <original SMILES>
COC(C)C=1C=CC(=CC1)N(C(C(=O)NC=2C=CC(OC)=CC2C)C=3C=CC=NC3)C(=O)C=C

> <Chemgauss4>
-3.603661

> <ref_pdb>
x1418_0

$$$$
x2776
  -OEChem-05172015543D

 35 37  0     1  0  0  0  0  0999 V2000
    5.4146    0.6709   18.6310 C   0  0  0  0  0  0  0  0  0  0  0  0
    5.7003   -0.0874   19.7609 C   0  0  0  0  0  0  0  0  0  0  0  0
    6.1276   -5.1912   23.7028 C   0  0  0  0  0  0  0  0  0  0  0  0
    5.7307   -3.0620   24.7732 C   0  0  0  0  0  0  0  0  0  0  0  0
    6.4848   -4.5331   22.5260 C   0  0  0  0  0  0  0  0  0  0  0  0
    6.0879   -2.4038   23.5964 C   0  0  0  0  0  0  0  0  0  0  0  0
   11.6584   -0.6847   22.4483 C   0  0  0  0  0  0  0  0  0  0  0  0
   12.9671   -0.4365   22.8621 C   0  0  0  0  0  0  0  0  0  0  0  0
   12.2079    1.4888   24.1087 C   0  0  0  0  0  0  0  0  0  0  0  0
    6.4775    1.2251   17.9361 C   0  0  0  0  0  0  0  0  0  0  0  0
    8.0125    0.3302   19.3926 C   0  0  0  0  0  0  0  0  0  0  0  0
    5.7505   -4.4557   24.8264 C   0  0  0  0  0  0  0  0  0  0  0  0
    7.0215   -0.2658   20.1558 C   0  0  0  0  0  0  0  0  0  0  0  0
   10.8991    1.2406   23.6948 C   0  0  0  0  0  0  0  0  0  0  0  0
    6.4650   -3.1394   22.4728 C   0  0  0  0  0  0  0  0  0  0  0  0
   10.6244    0.1540   22.8646 C   0  0  0  0  0  0  0  0  0  0  0  0
   13.2418    0.6501   23.6924 C   0  0  0  0  0  0  0  0  0  0  0  0
    7.1315   -2.5671   17.6294 C   0  0  0  0  0  0  0  0  0  0  0  0
    7.5450   -2.5895   18.9004 C   0  0  0  0  0  0  0  0  0  0  0  0
    6.6235   -3.0406   19.9842 C   0  0  0  0  0  0  0  0  0  0  0  0
    8.8733   -1.1497   21.6075 C   0  0  0  0  0  0  0  0  0  0  0  0
    9.8118    2.1558   24.1563 C   0  0  0  0  0  0  0  0  0  0  0  0
    3.9565   -4.8128   26.5593 C   0  0  0  0  0  0  0  0  0  0  0  0
   15.5272   -0.0054   23.6343 C   0  0  0  0  0  0  0  0  0  0  0  0
    7.4940   -5.5384   27.0131 C   0  0  0  0  0  0  0  0  0  0  0  0
    7.3651   -1.0856   21.3799 C   0  0  2  0  0  0  0  0  0  0  0  0
    5.3686   -5.1595   26.0846 C   0  0  2  0  0  0  0  0  0  0  0  0
    7.7737    1.0738   18.2890 N   0  0  0  0  0  0  0  0  0  0  0  0
    9.3037   -0.1133   22.4322 N   0  0  0  0  0  0  0  0  0  0  0  0
    6.8372   -2.4537   21.2475 N   0  0  0  0  0  0  0  0  0  0  0  0
    5.7639   -3.8820   19.7211 O   0  0  0  0  0  0  0  0  0  0  0  0
    9.5667   -2.0222   21.0914 O   0  0  0  0  0  0  0  0  0  0  0  0
   14.5189    0.8919   24.0967 O   0  0  0  0  0  0  0  0  0  0  0  0
    6.2897   -4.7991   27.1204 O   0  0  0  0  0  0  0  0  0  0  0  0
    8.5844    0.5266   22.7625 H   0  0  0  0  0  0  0  0  0  0  0  0
  1  2  2  0  0  0  0
  1 10  1  0  0  0  0
  2 13  1  0  0  0  0
  3  5  2  0  0  0  0
  3 12  1  0  0  0  0
  4  6  1  0  0  0  0
  4 12  2  0  0  0  0
  5 15  1  0  0  0  0
  6 15  2  0  0  0  0
  7  8  2  0  0  0  0
  7 16  1  0  0  0  0
  8 17  1  0  0  0  0
  9 14  1  0  0  0  0
  9 17  2  0  0  0  0
 10 28  2  0  0  0  0
 11 13  2  0  0  0  0
 11 28  1  0  0  0  0
 12 27  1  0  0  0  0
 13 26  1  0  0  0  0
 14 16  2  0  0  0  0
 14 22  1  0  0  0  0
 15 30  1  0  0  0  0
 16 29  1  0  0  0  0
 17 33  1  0  0  0  0
 18 19  2  0  0  0  0
 19 20  1  0  0  0  0
 20 30  1  0  0  0  0
 20 31  2  0  0  0  0
 21 26  1  0  0  0  0
 21 29  1  0  0  0  0
 21 32  2  0  0  0  0
 23 27  1  0  0  0  0
 24 33  1  0  0  0  0
 25 34  1  0  0  0  0
 26 30  1  0  0  0  0
 27 34  1  0  0  0  0
 29 35  1  0  0  0  0
M  END
> <ref_mols>
x2776_0

> <original SMILES>
COC(C)C=1C=CC(=CC1)N(C(C(=O)NC=2C=CC(OC)=CC2C)C=3C=CC=NC3)C(=O)C=C

> <Chemgauss4>
-3.603661

> <ref_pdb>
x1418_0

> <CYS145-warhead dist minimum (A)>
6.471199

> <CYS145-warhead dist mean (A)>
8.740832

> <CYS145-warhead dist stddev (A)>
0.4638035

$$$$
x2701
  -OEChem-05172015543D

 34 36  0     1  0  0  0  0  0999 V2000
    6.9486   -4.4930   29.9930 C   0  0  0  0  0  0  0  0  0  0  0  0
    6.8847   -5.9465   21.3607 C   0  0  0  0  0  0  0  0  0  0  0  0
    6.3616   -3.2590   30.2729 C   0  0  0  0  0  0  0  0  0  0  0  0
    7.8466   -5.2787   22.1104 C   0  0  0  0  0  0  0  0  0  0  0  0
    7.4454   -4.7555   28.7163 C   0  0  0  0  0  0  0  0  0  0  0  0
    7.2048   -1.6245   22.4800 C   0  0  0  0  0  0  0  0  0  0  0  0
    6.4773   -1.0454   21.4403 C   0  0  0  0  0  0  0  0  0  0  0  0
    6.7682   -2.5500   27.9994 C   0  0  0  0  0  0  0  0  0  0  0  0
    8.9189   -2.2869   20.9115 C   0  0  0  0  0  0  0  0  0  0  0  0
    5.5742   -5.9129   21.8094 C   0  0  0  0  0  0  0  0  0  0  0  0
    6.1370   -4.6333   23.6326 C   0  0  0  0  0  0  0  0  0  0  0  0
    6.2714   -2.2875   29.2761 C   0  0  0  0  0  0  0  0  0  0  0  0
    7.4739   -4.6072   23.2695 C   0  0  0  0  0  0  0  0  0  0  0  0
    8.1913   -1.7078   19.8718 C   0  0  0  0  0  0  0  0  0  0  0  0
    7.3552   -3.7840   27.7195 C   0  0  0  0  0  0  0  0  0  0  0  0
    8.4257   -2.2453   22.2155 C   0  0  0  0  0  0  0  0  0  0  0  0
    6.9705   -1.0871   20.1362 C   0  0  0  0  0  0  0  0  0  0  0  0
   12.4395   -3.2235   24.8613 C   0  0  0  0  0  0  0  0  0  0  0  0
   11.1131   -3.0689   24.7996 C   0  0  0  0  0  0  0  0  0  0  0  0
   10.4857   -2.4147   23.6140 C   0  0  0  0  0  0  0  0  0  0  0  0
    7.8534   -3.2030   25.3194 C   0  0  0  0  0  0  0  0  0  0  0  0
    8.7424   -1.7678   18.4842 C   0  0  0  0  0  0  0  0  0  0  0  0
    6.6578    0.0568   30.0772 C   0  0  0  0  0  0  0  0  0  0  0  0
    6.4243    0.8955   18.7466 C   0  0  0  0  0  0  0  0  0  0  0  0
    5.2489   -1.2762   18.3584 C   0  0  0  0  0  0  0  0  0  0  0  0
    5.6439   -0.9684   29.5758 C   0  0  0  0  0  0  0  0  0  0  0  0
    8.4964   -3.8707   24.1065 C   0  0  2  0  0  0  0  0  0  0  0  0
    5.1741   -5.2712   22.9300 N   0  0  0  0  0  0  0  0  0  0  0  0
    7.8600   -4.0503   26.4246 N   0  0  0  0  0  0  0  0  0  0  0  0
    9.1826   -2.8487   23.2987 N   0  0  0  0  0  0  0  0  0  0  0  0
    6.2205   -0.4952   19.0963 N   0  0  0  0  0  0  0  0  0  0  0  0
   11.1288   -1.5679   22.9931 O   0  0  0  0  0  0  0  0  0  0  0  0
    7.3957   -2.0648   25.2616 O   0  0  0  0  0  0  0  0  0  0  0  0
    8.2764   -4.9685   26.2846 H   0  0  0  0  0  0  0  0  0  0  0  0
  1  3  2  0  0  0  0
  1  5  1  0  0  0  0
  2  4  2  0  0  0  0
  2 10  1  0  0  0  0
  3 12  1  0  0  0  0
  4 13  1  0  0  0  0
  5 15  2  0  0  0  0
  6  7  2  0  0  0  0
  6 16  1  0  0  0  0
  7 17  1  0  0  0  0
  8 12  2  0  0  0  0
  8 15  1  0  0  0  0
  9 14  1  0  0  0  0
  9 16  2  0  0  0  0
 10 28  2  0  0  0  0
 11 13  2  0  0  0  0
 11 28  1  0  0  0  0
 12 26  1  0  0  0  0
 13 27  1  0  0  0  0
 14 17  2  0  0  0  0
 14 22  1  0  0  0  0
 15 29  1  0  0  0  0
 16 30  1  0  0  0  0
 17 31  1  0  0  0  0
 18 19  2  0  0  0  0
 19 20  1  0  0  0  0
 20 30  1  0  0  0  0
 20 32  2  0  0  0  0
 21 27  1  0  0  0  0
 21 29  1  0  0  0  0
 21 33  2  0  0  0  0
 23 26  1  0  0  0  0
 24 31  1  0  0  0  0
 25 31  1  0  0  0  0
 27 30  1  0  0  0  0
 29 34  1  0  0  0  0
M  END
> <ref_mols>
x2701_0

> <original SMILES>
CCC=1C=CC=C(NC(=O)C(N(C(=O)C=C)C=2C=CC(N(C)C)=C(C)C2)C=3C=CC=NC3)C1

> <Chemgauss4>
-3.552167

> <ref_pdb>
x1380_0

> <CYS145-warhead dist minimum (A)>
7.93707

> <CYS145-warhead dist mean (A)>
9.414063

> <CYS145-warhead dist stddev (A)>
0.5780122

$$$$
x2787
  -OEChem-05172015543D

 34 36  0     1  0  0  0  0  0999 V2000
    6.9486   -4.4930   29.9930 C   0  0  0  0  0  0  0  0  0  0  0  0
    6.8847   -5.9465   21.3607 C   0  0  0  0  0  0  0  0  0  0  0  0
    6.3616   -3.2590   30.2729 C   0  0  0  0  0  0  0  0  0  0  0  0
    7.8466   -5.2787   22.1104 C   0  0  0  0  0  0  0  0  0  0  0  0
    7.4454   -4.7555   28.7163 C   0  0  0  0  0  0  0  0  0  0  0  0
    7.2048   -1.6245   22.4800 C   0  0  0  0  0  0  0  0  0  0  0  0
    6.4773   -1.0454   21.4403 C   0  0  0  0  0  0  0  0  0  0  0  0
    6.7682   -2.5500   27.9994 C   0  0  0  0  0  0  0  0  0  0  0  0
    8.9189   -2.2869   20.9115 C   0  0  0  0  0  0  0  0  0  0  0  0
    5.5742   -5.9129   21.8094 C   0  0  0  0  0  0  0  0  0  0  0  0
    6.1370   -4.6333   23.6326 C   0  0  0  0  0  0  0  0  0  0  0  0
    6.2714   -2.2875   29.2761 C   0  0  0  0  0  0  0  0  0  0  0  0
    7.4739   -4.6072   23.2695 C   0  0  0  0  0  0  0  0  0  0  0  0
    8.1913   -1.7078   19.8718 C   0  0  0  0  0  0  0  0  0  0  0  0
    7.3552   -3.7840   27.7195 C   0  0  0  0  0  0  0  0  0  0  0  0
    8.4257   -2.2453   22.2155 C   0  0  0  0  0  0  0  0  0  0  0  0
    6.9705   -1.0871   20.1362 C   0  0  0  0  0  0  0  0  0  0  0  0
   12.4395   -3.2235   24.8613 C   0  0  0  0  0  0  0  0  0  0  0  0
   11.1131   -3.0689   24.7996 C   0  0  0  0  0  0  0  0  0  0  0  0
   10.4857   -2.4147   23.6140 C   0  0  0  0  0  0  0  0  0  0  0  0
    7.8534   -3.2030   25.3194 C   0  0  0  0  0  0  0  0  0  0  0  0
    8.7424   -1.7678   18.4842 C   0  0  0  0  0  0  0  0  0  0  0  0
    6.6578    0.0568   30.0772 C   0  0  0  0  0  0  0  0  0  0  0  0
    6.4243    0.8955   18.7466 C   0  0  0  0  0  0  0  0  0  0  0  0
    5.2489   -1.2762   18.3584 C   0  0  0  0  0  0  0  0  0  0  0  0
    5.6439   -0.9684   29.5758 C   0  0  0  0  0  0  0  0  0  0  0  0
    8.4964   -3.8707   24.1065 C   0  0  2  0  0  0  0  0  0  0  0  0
    5.1741   -5.2712   22.9300 N   0  0  0  0  0  0  0  0  0  0  0  0
    7.8600   -4.0503   26.4246 N   0  0  0  0  0  0  0  0  0  0  0  0
    9.1826   -2.8487   23.2987 N   0  0  0  0  0  0  0  0  0  0  0  0
    6.2205   -0.4952   19.0963 N   0  0  0  0  0  0  0  0  0  0  0  0
   11.1288   -1.5679   22.9931 O   0  0  0  0  0  0  0  0  0  0  0  0
    7.3957   -2.0648   25.2616 O   0  0  0  0  0  0  0  0  0  0  0  0
    8.2764   -4.9685   26.2846 H   0  0  0  0  0  0  0  0  0  0  0  0
  1  3  2  0  0  0  0
  1  5  1  0  0  0  0
  2  4  2  0  0  0  0
  2 10  1  0  0  0  0
  3 12  1  0  0  0  0
  4 13  1  0  0  0  0
  5 15  2  0  0  0  0
  6  7  2  0  0  0  0
  6 16  1  0  0  0  0
  7 17  1  0  0  0  0
  8 12  2  0  0  0  0
  8 15  1  0  0  0  0
  9 14  1  0  0  0  0
  9 16  2  0  0  0  0
 10 28  2  0  0  0  0
 11 13  2  0  0  0  0
 11 28  1  0  0  0  0
 12 26  1  0  0  0  0
 13 27  1  0  0  0  0
 14 17  2  0  0  0  0
 14 22  1  0  0  0  0
 15 29  1  0  0  0  0
 16 30  1  0  0  0  0
 17 31  1  0  0  0  0
 18 19  2  0  0  0  0
 19 20  1  0  0  0  0
 20 30  1  0  0  0  0
 20 32  2  0  0  0  0
 21 27  1  0  0  0  0
 21 29  1  0  0  0  0
 21 33  2  0  0  0  0
 23 26  1  0  0  0  0
 24 31  1  0  0  0  0
 25 31  1  0  0  0  0
 27 30  1  0  0  0  0
 29 34  1  0  0  0  0
M  END
> <ref_mols>
x2787_0

> <original SMILES>
CCC=1C=CC=C(NC(=O)C(N(C(=O)C=C)C=2C=CC(N(C)C)=C(C)C2)C=3C=CC=NC3)C1

> <Chemgauss4>
-3.552167

> <ref_pdb>
x1380_0

$$$$
x2533
  -OEChem-05172015543D

 34 36  0     1  0  0  0  0  0999 V2000
    6.9486   -4.4930   29.9930 C   0  0  0  0  0  0  0  0  0  0  0  0
    6.8847   -5.9465   21.3607 C   0  0  0  0  0  0  0  0  0  0  0  0
    6.3616   -3.2590   30.2729 C   0  0  0  0  0  0  0  0  0  0  0  0
    7.8466   -5.2787   22.1104 C   0  0  0  0  0  0  0  0  0  0  0  0
    7.4454   -4.7555   28.7163 C   0  0  0  0  0  0  0  0  0  0  0  0
    7.2048   -1.6245   22.4800 C   0  0  0  0  0  0  0  0  0  0  0  0
    6.4773   -1.0454   21.4403 C   0  0  0  0  0  0  0  0  0  0  0  0
    6.7682   -2.5500   27.9994 C   0  0  0  0  0  0  0  0  0  0  0  0
    8.9189   -2.2869   20.9115 C   0  0  0  0  0  0  0  0  0  0  0  0
    5.5742   -5.9129   21.8094 C   0  0  0  0  0  0  0  0  0  0  0  0
    6.1370   -4.6333   23.6326 C   0  0  0  0  0  0  0  0  0  0  0  0
    6.2714   -2.2875   29.2761 C   0  0  0  0  0  0  0  0  0  0  0  0
    7.4739   -4.6072   23.2695 C   0  0  0  0  0  0  0  0  0  0  0  0
    8.1913   -1.7078   19.8718 C   0  0  0  0  0  0  0  0  0  0  0  0
    7.3552   -3.7840   27.7195 C   0  0  0  0  0  0  0  0  0  0  0  0
    8.4257   -2.2453   22.2155 C   0  0  0  0  0  0  0  0  0  0  0  0
    6.9705   -1.0871   20.1362 C   0  0  0  0  0  0  0  0  0  0  0  0
   12.4395   -3.2235   24.8613 C   0  0  0  0  0  0  0  0  0  0  0  0
   11.1131   -3.0689   24.7996 C   0  0  0  0  0  0  0  0  0  0  0  0
   10.4857   -2.4147   23.6140 C   0  0  0  0  0  0  0  0  0  0  0  0
    7.8534   -3.2030   25.3194 C   0  0  0  0  0  0  0  0  0  0  0  0
    8.7424   -1.7678   18.4842 C   0  0  0  0  0  0  0  0  0  0  0  0
    6.6578    0.0568   30.0772 C   0  0  0  0  0  0  0  0  0  0  0  0
    6.4243    0.8955   18.7466 C   0  0  0  0  0  0  0  0  0  0  0  0
    5.2489   -1.2762   18.3584 C   0  0  0  0  0  0  0  0  0  0  0  0
    5.6439   -0.9684   29.5758 C   0  0  0  0  0  0  0  0  0  0  0  0
    8.4964   -3.8707   24.1065 C   0  0  2  0  0  0  0  0  0  0  0  0
    5.1741   -5.2712   22.9300 N   0  0  0  0  0  0  0  0  0  0  0  0
    7.8600   -4.0503   26.4246 N   0  0  0  0  0  0  0  0  0  0  0  0
    9.1826   -2.8487   23.2987 N   0  0  0  0  0  0  0  0  0  0  0  0
    6.2205   -0.4952   19.0963 N   0  0  0  0  0  0  0  0  0  0  0  0
   11.1288   -1.5679   22.9931 O   0  0  0  0  0  0  0  0  0  0  0  0
    7.3957   -2.0648   25.2616 O   0  0  0  0  0  0  0  0  0  0  0  0
    8.2764   -4.9685   26.2846 H   0  0  0  0  0  0  0  0  0  0  0  0
  1  3  2  0  0  0  0
  1  5  1  0  0  0  0
  2  4  2  0  0  0  0
  2 10  1  0  0  0  0
  3 12  1  0  0  0  0
  4 13  1  0  0  0  0
  5 15  2  0  0  0  0
  6  7  2  0  0  0  0
  6 16  1  0  0  0  0
  7 17  1  0  0  0  0
  8 12  2  0  0  0  0
  8 15  1  0  0  0  0
  9 14  1  0  0  0  0
  9 16  2  0  0  0  0
 10 28  2  0  0  0  0
 11 13  2  0  0  0  0
 11 28  1  0  0  0  0
 12 26  1  0  0  0  0
 13 27  1  0  0  0  0
 14 17  2  0  0  0  0
 14 22  1  0  0  0  0
 15 29  1  0  0  0  0
 16 30  1  0  0  0  0
 17 31  1  0  0  0  0
 18 19  2  0  0  0  0
 19 20  1  0  0  0  0
 20 30  1  0  0  0  0
 20 32  2  0  0  0  0
 21 27  1  0  0  0  0
 21 29  1  0  0  0  0
 21 33  2  0  0  0  0
 23 26  1  0  0  0  0
 24 31  1  0  0  0  0
 25 31  1  0  0  0  0
 27 30  1  0  0  0  0
 29 34  1  0  0  0  0
M  END
> <ref_mols>
x2533_0

> <original SMILES>
CCC=1C=CC=C(NC(=O)C(N(C(=O)C=C)C=2C=CC(N(C)C)=C(C)C2)C=3C=CC=NC3)C1

> <Chemgauss4>
-3.552167

> <ref_pdb>
x1380_0

$$$$
x2640
  -OEChem-05172015543D

 35 37  0     1  0  0  0  0  0999 V2000
    6.8600   -5.6829   21.1436 C   0  0  0  0  0  0  0  0  0  0  0  0
    7.7304   -4.9516   21.9442 C   0  0  0  0  0  0  0  0  0  0  0  0
    5.8269   -0.8918   21.5646 C   0  0  0  0  0  0  0  0  0  0  0  0
    7.6084   -1.2157   19.9650 C   0  0  0  0  0  0  0  0  0  0  0  0
    6.6251   -1.4453   22.5657 C   0  0  0  0  0  0  0  0  0  0  0  0
    8.4066   -1.7692   20.9661 C   0  0  0  0  0  0  0  0  0  0  0  0
    6.3308   -2.7997   27.9848 C   0  0  0  0  0  0  0  0  0  0  0  0
    5.7978   -2.6766   29.2678 C   0  0  0  0  0  0  0  0  0  0  0  0
    6.7405   -4.8195   29.8650 C   0  0  0  0  0  0  0  0  0  0  0  0
    5.5575   -5.8497   21.5858 C   0  0  0  0  0  0  0  0  0  0  0  0
    5.9569   -4.6405   23.4980 C   0  0  0  0  0  0  0  0  0  0  0  0
    6.3185   -0.7771   20.2643 C   0  0  0  0  0  0  0  0  0  0  0  0
    7.2781   -4.4172   23.1455 C   0  0  0  0  0  0  0  0  0  0  0  0
    7.2735   -4.9425   28.5819 C   0  0  0  0  0  0  0  0  0  0  0  0
    7.9149   -1.8840   22.2664 C   0  0  0  0  0  0  0  0  0  0  0  0
    7.0686   -3.9327   27.6417 C   0  0  0  0  0  0  0  0  0  0  0  0
    6.0027   -3.6864   30.2080 C   0  0  0  0  0  0  0  0  0  0  0  0
   11.9114   -3.0602   24.6277 C   0  0  0  0  0  0  0  0  0  0  0  0
   10.6941   -2.5360   24.8020 C   0  0  0  0  0  0  0  0  0  0  0  0
    9.9840   -1.8857   23.6617 C   0  0  0  0  0  0  0  0  0  0  0  0
    7.4804   -3.1243   25.2916 C   0  0  0  0  0  0  0  0  0  0  0  0
    8.0594   -6.1673   28.2426 C   0  0  0  0  0  0  0  0  0  0  0  0
    4.7398   -2.3816   31.7436 C   0  0  0  0  0  0  0  0  0  0  0  0
    8.2001   -3.6165   24.0385 C   0  0  2  0  0  0  0  0  0  0  0  0
    5.4650   -0.1853   19.1940 C   0  0  0  0  0  0  0  0  0  0  0  0
    5.0818   -5.3456   22.7464 N   0  0  0  0  0  0  0  0  0  0  0  0
    7.5994   -4.0398   26.3343 N   0  0  0  0  0  0  0  0  0  0  0  0
    8.7466   -2.4602   23.3088 N   0  0  0  0  0  0  0  0  0  0  0  0
   10.5109   -0.9215   23.1060 O   0  0  0  0  0  0  0  0  0  0  0  0
    6.8799   -2.0532   25.3115 O   0  0  0  0  0  0  0  0  0  0  0  0
    5.4831   -3.5660   31.4603 O   0  0  0  0  0  0  0  0  0  0  0  0
    4.2289    0.1998   19.6297 F   0  0  0  0  0  0  0  0  0  0  0  0
    6.0036    0.9309   18.6197 F   0  0  0  0  0  0  0  0  0  0  0  0
    5.2365   -1.0524   18.1650 F   0  0  0  0  0  0  0  0  0  0  0  0
    8.1300   -4.8846   26.1324 H   0  0  0  0  0  0  0  0  0  0  0  0
  1  2  2  0  0  0  0
  1 10  1  0  0  0  0
  2 13  1  0  0  0  0
  3  5  2  0  0  0  0
  3 12  1  0  0  0  0
  4  6  1  0  0  0  0
  4 12  2  0  0  0  0
  5 15  1  0  0  0  0
  6 15  2  0  0  0  0
  7  8  2  0  0  0  0
  7 16  1  0  0  0  0
  8 17  1  0  0  0  0
  9 14  1  0  0  0  0
  9 17  2  0  0  0  0
 10 26  2  0  0  0  0
 11 13  2  0  0  0  0
 11 26  1  0  0  0  0
 12 25  1  0  0  0  0
 13 24  1  0  0  0  0
 14 16  2  0  0  0  0
 14 22  1  0  0  0  0
 15 28  1  0  0  0  0
 16 27  1  0  0  0  0
 17 31  1  0  0  0  0
 18 19  2  0  0  0  0
 19 20  1  0  0  0  0
 20 28  1  0  0  0  0
 20 29  2  0  0  0  0
 21 24  1  0  0  0  0
 21 27  1  0  0  0  0
 21 30  2  0  0  0  0
 23 31  1  0  0  0  0
 24 28  1  0  0  0  0
 25 32  1  0  0  0  0
 25 33  1  0  0  0  0
 25 34  1  0  0  0  0
 27 35  1  0  0  0  0
M  END
> <ref_mols>
x2640_0

> <original SMILES>
COC=1C=CC(NC(=O)C(N(C(=O)C=C)C=2C=CC(=CC2)C(F)(F)F)C=3C=CC=NC3)=C(C)C1

> <Chemgauss4>
-3.529982

> <ref_pdb>
x1380_0

$$$$
x2472
  -OEChem-05172015543D

 35 37  0     1  0  0  0  0  0999 V2000
    6.8600   -5.6829   21.1436 C   0  0  0  0  0  0  0  0  0  0  0  0
    7.7304   -4.9516   21.9442 C   0  0  0  0  0  0  0  0  0  0  0  0
    5.8269   -0.8918   21.5646 C   0  0  0  0  0  0  0  0  0  0  0  0
    7.6084   -1.2157   19.9650 C   0  0  0  0  0  0  0  0  0  0  0  0
    6.6251   -1.4453   22.5657 C   0  0  0  0  0  0  0  0  0  0  0  0
    8.4066   -1.7692   20.9661 C   0  0  0  0  0  0  0  0  0  0  0  0
    6.3308   -2.7997   27.9848 C   0  0  0  0  0  0  0  0  0  0  0  0
    5.7978   -2.6766   29.2678 C   0  0  0  0  0  0  0  0  0  0  0  0
    6.7405   -4.8195   29.8650 C   0  0  0  0  0  0  0  0  0  0  0  0
    5.5575   -5.8497   21.5858 C   0  0  0  0  0  0  0  0  0  0  0  0
    5.9569   -4.6405   23.4980 C   0  0  0  0  0  0  0  0  0  0  0  0
    6.3185   -0.7771   20.2643 C   0  0  0  0  0  0  0  0  0  0  0  0
    7.2781   -4.4172   23.1455 C   0  0  0  0  0  0  0  0  0  0  0  0
    7.2735   -4.9425   28.5819 C   0  0  0  0  0  0  0  0  0  0  0  0
    7.9149   -1.8840   22.2664 C   0  0  0  0  0  0  0  0  0  0  0  0
    7.0686   -3.9327   27.6417 C   0  0  0  0  0  0  0  0  0  0  0  0
    6.0027   -3.6864   30.2080 C   0  0  0  0  0  0  0  0  0  0  0  0
   11.9114   -3.0602   24.6277 C   0  0  0  0  0  0  0  0  0  0  0  0
   10.6941   -2.5360   24.8020 C   0  0  0  0  0  0  0  0  0  0  0  0
    9.9840   -1.8857   23.6617 C   0  0  0  0  0  0  0  0  0  0  0  0
    7.4804   -3.1243   25.2916 C   0  0  0  0  0  0  0  0  0  0  0  0
    8.0594   -6.1673   28.2426 C   0  0  0  0  0  0  0  0  0  0  0  0
    4.7398   -2.3816   31.7436 C   0  0  0  0  0  0  0  0  0  0  0  0
    8.2001   -3.6165   24.0385 C   0  0  2  0  0  0  0  0  0  0  0  0
    5.4650   -0.1853   19.1940 C   0  0  0  0  0  0  0  0  0  0  0  0
    5.0818   -5.3456   22.7464 N   0  0  0  0  0  0  0  0  0  0  0  0
    7.5994   -4.0398   26.3343 N   0  0  0  0  0  0  0  0  0  0  0  0
    8.7466   -2.4602   23.3088 N   0  0  0  0  0  0  0  0  0  0  0  0
   10.5109   -0.9215   23.1060 O   0  0  0  0  0  0  0  0  0  0  0  0
    6.8799   -2.0532   25.3115 O   0  0  0  0  0  0  0  0  0  0  0  0
    5.4831   -3.5660   31.4603 O   0  0  0  0  0  0  0  0  0  0  0  0
    4.2289    0.1998   19.6297 F   0  0  0  0  0  0  0  0  0  0  0  0
    6.0036    0.9309   18.6197 F   0  0  0  0  0  0  0  0  0  0  0  0
    5.2365   -1.0524   18.1650 F   0  0  0  0  0  0  0  0  0  0  0  0
    8.1300   -4.8846   26.1324 H   0  0  0  0  0  0  0  0  0  0  0  0
  1  2  2  0  0  0  0
  1 10  1  0  0  0  0
  2 13  1  0  0  0  0
  3  5  2  0  0  0  0
  3 12  1  0  0  0  0
  4  6  1  0  0  0  0
  4 12  2  0  0  0  0
  5 15  1  0  0  0  0
  6 15  2  0  0  0  0
  7  8  2  0  0  0  0
  7 16  1  0  0  0  0
  8 17  1  0  0  0  0
  9 14  1  0  0  0  0
  9 17  2  0  0  0  0
 10 26  2  0  0  0  0
 11 13  2  0  0  0  0
 11 26  1  0  0  0  0
 12 25  1  0  0  0  0
 13 24  1  0  0  0  0
 14 16  2  0  0  0  0
 14 22  1  0  0  0  0
 15 28  1  0  0  0  0
 16 27  1  0  0  0  0
 17 31  1  0  0  0  0
 18 19  2  0  0  0  0
 19 20  1  0  0  0  0
 20 28  1  0  0  0  0
 20 29  2  0  0  0  0
 21 24  1  0  0  0  0
 21 27  1  0  0  0  0
 21 30  2  0  0  0  0
 23 31  1  0  0  0  0
 24 28  1  0  0  0  0
 25 32  1  0  0  0  0
 25 33  1  0  0  0  0
 25 34  1  0  0  0  0
 27 35  1  0  0  0  0
M  END
> <ref_mols>
x2472_0

> <original SMILES>
COC=1C=CC(NC(=O)C(N(C(=O)C=C)C=2C=CC(=CC2)C(F)(F)F)C=3C=CC=NC3)=C(C)C1

> <Chemgauss4>
-3.529982

> <ref_pdb>
x1380_0

> <CYS145-warhead dist minimum (A)>
11.460562

> <CYS145-warhead dist mean (A)>
12.523535

> <CYS145-warhead dist stddev (A)>
0.35375118

$$$$
x2641
  -OEChem-05172015543D

 33 36  0     1  0  0  0  0  0999 V2000
   13.6610   -2.8444   26.6144 C   0  0  0  0  0  0  0  0  0  0  0  0
    6.2860   -2.5759   26.0821 C   0  0  0  0  0  0  0  0  0  0  0  0
   14.0257   -1.7060   25.8957 C   0  0  0  0  0  0  0  0  0  0  0  0
    7.3842   -2.9480   25.3148 C   0  0  0  0  0  0  0  0  0  0  0  0
    5.8273   -2.0458   21.3513 C   0  0  0  0  0  0  0  0  0  0  0  0
   12.5109   -3.5517   26.2640 C   0  0  0  0  0  0  0  0  0  0  0  0
    6.3786   -3.1279   22.0436 C   0  0  0  0  0  0  0  0  0  0  0  0
   12.0901   -1.9819   24.4763 C   0  0  0  0  0  0  0  0  0  0  0  0
    8.2600   -3.1960   20.5157 C   0  0  0  0  0  0  0  0  0  0  0  0
    5.1919   -3.4257   26.1036 C   0  0  0  0  0  0  0  0  0  0  0  0
    6.2132   -4.9217   24.6904 C   0  0  0  0  0  0  0  0  0  0  0  0
    6.9363   -0.2472   18.4777 C   0  0  0  0  0  0  0  0  0  0  0  0
   13.2403   -1.2747   24.8267 C   0  0  0  0  0  0  0  0  0  0  0  0
    7.3551   -4.1418   24.6025 C   0  0  0  0  0  0  0  0  0  0  0  0
    6.4948   -1.5231   20.2225 C   0  0  0  0  0  0  0  0  0  0  0  0
   11.7255   -3.1204   25.1950 C   0  0  0  0  0  0  0  0  0  0  0  0
    7.5792   -3.6940   21.6295 C   0  0  0  0  0  0  0  0  0  0  0  0
    7.7006   -2.1088   19.8252 C   0  0  0  0  0  0  0  0  0  0  0  0
    8.6447   -7.0918   19.5293 C   0  0  0  0  0  0  0  0  0  0  0  0
    7.9694   -6.2427   20.3104 C   0  0  0  0  0  0  0  0  0  0  0  0
    8.3595   -6.0619   21.7396 C   0  0  0  0  0  0  0  0  0  0  0  0
    9.6664   -3.5525   23.8095 C   0  0  0  0  0  0  0  0  0  0  0  0
   13.0227    1.2162   24.6405 C   0  0  0  0  0  0  0  0  0  0  0  0
   13.6307   -0.0576   24.0587 C   0  0  0  0  0  0  0  0  0  0  0  0
    8.5339   -4.5750   23.7591 C   0  0  2  0  0  0  0  0  0  0  0  0
    5.1270   -4.5932   25.4251 N   0  0  0  0  0  0  0  0  0  0  0  0
    6.0704   -0.4582   19.4412 N   0  0  0  0  0  0  0  0  0  0  0  0
   10.5591   -3.8385   24.8394 N   0  0  0  0  0  0  0  0  0  0  0  0
    8.1133   -4.7743   22.3342 N   0  0  0  0  0  0  0  0  0  0  0  0
    8.8922   -7.0000   22.3332 O   0  0  0  0  0  0  0  0  0  0  0  0
    9.7213   -2.6120   23.0217 O   0  0  0  0  0  0  0  0  0  0  0  0
    8.2964   -1.2837   18.4334 S   0  0  0  0  0  0  0  0  0  0  0  0
   10.3480   -4.6600   25.4021 H   0  0  0  0  0  0  0  0  0  0  0  0
  1  3  2  0  0  0  0
  1  6  1  0  0  0  0
  2  4  2  0  0  0  0
  2 10  1  0  0  0  0
  3 13  1  0  0  0  0
  4 14  1  0  0  0  0
  5  7  2  0  0  0  0
  5 15  1  0  0  0  0
  6 16  2  0  0  0  0
  7 17  1  0  0  0  0
  8 13  2  0  0  0  0
  8 16  1  0  0  0  0
  9 17  2  0  0  0  0
  9 18  1  0  0  0  0
 10 26  2  0  0  0  0
 11 14  2  0  0  0  0
 11 26  1  0  0  0  0
 12 27  2  0  0  0  0
 12 32  1  0  0  0  0
 13 24  1  0  0  0  0
 14 25  1  0  0  0  0
 15 18  2  0  0  0  0
 15 27  1  0  0  0  0
 16 28  1  0  0  0  0
 17 29  1  0  0  0  0
 18 32  1  0  0  0  0
 19 20  2  0  0  0  0
 20 21  1  0  0  0  0
 21 29  1  0  0  0  0
 21 30  2  0  0  0  0
 22 25  1  0  0  0  0
 22 28  1  0  0  0  0
 22 31  2  0  0  0  0
 23 24  1  0  0  0  0
 25 29  1  0  0  0  0
 28 33  1  0  0  0  0
M  END
> <ref_mols>
x2641_0

> <original SMILES>
CCC=1C=CC=C(NC(=O)C(N(C(=O)C=C)C=2C=CC=3N=CSC3C2)C=4C=CC=NC4)C1

> <Chemgauss4>
-3.529699

> <ref_pdb>
x0749_0

$$$$
x2473
  -OEChem-05172015543D

 33 36  0     1  0  0  0  0  0999 V2000
   13.6610   -2.8444   26.6144 C   0  0  0  0  0  0  0  0  0  0  0  0
    6.2860   -2.5759   26.0821 C   0  0  0  0  0  0  0  0  0  0  0  0
   14.0257   -1.7060   25.8957 C   0  0  0  0  0  0  0  0  0  0  0  0
    7.3842   -2.9480   25.3148 C   0  0  0  0  0  0  0  0  0  0  0  0
    5.8273   -2.0458   21.3513 C   0  0  0  0  0  0  0  0  0  0  0  0
   12.5109   -3.5517   26.2640 C   0  0  0  0  0  0  0  0  0  0  0  0
    6.3786   -3.1279   22.0436 C   0  0  0  0  0  0  0  0  0  0  0  0
   12.0901   -1.9819   24.4763 C   0  0  0  0  0  0  0  0  0  0  0  0
    8.2600   -3.1960   20.5157 C   0  0  0  0  0  0  0  0  0  0  0  0
    5.1919   -3.4257   26.1036 C   0  0  0  0  0  0  0  0  0  0  0  0
    6.2132   -4.9217   24.6904 C   0  0  0  0  0  0  0  0  0  0  0  0
    6.9363   -0.2472   18.4777 C   0  0  0  0  0  0  0  0  0  0  0  0
   13.2403   -1.2747   24.8267 C   0  0  0  0  0  0  0  0  0  0  0  0
    7.3551   -4.1418   24.6025 C   0  0  0  0  0  0  0  0  0  0  0  0
    6.4948   -1.5231   20.2225 C   0  0  0  0  0  0  0  0  0  0  0  0
   11.7255   -3.1204   25.1950 C   0  0  0  0  0  0  0  0  0  0  0  0
    7.5792   -3.6940   21.6295 C   0  0  0  0  0  0  0  0  0  0  0  0
    7.7006   -2.1088   19.8252 C   0  0  0  0  0  0  0  0  0  0  0  0
    8.6447   -7.0918   19.5293 C   0  0  0  0  0  0  0  0  0  0  0  0
    7.9694   -6.2427   20.3104 C   0  0  0  0  0  0  0  0  0  0  0  0
    8.3595   -6.0619   21.7396 C   0  0  0  0  0  0  0  0  0  0  0  0
    9.6664   -3.5525   23.8095 C   0  0  0  0  0  0  0  0  0  0  0  0
   13.0227    1.2162   24.6405 C   0  0  0  0  0  0  0  0  0  0  0  0
   13.6307   -0.0576   24.0587 C   0  0  0  0  0  0  0  0  0  0  0  0
    8.5339   -4.5750   23.7591 C   0  0  2  0  0  0  0  0  0  0  0  0
    5.1270   -4.5932   25.4251 N   0  0  0  0  0  0  0  0  0  0  0  0
    6.0704   -0.4582   19.4412 N   0  0  0  0  0  0  0  0  0  0  0  0
   10.5591   -3.8385   24.8394 N   0  0  0  0  0  0  0  0  0  0  0  0
    8.1133   -4.7743   22.3342 N   0  0  0  0  0  0  0  0  0  0  0  0
    8.8922   -7.0000   22.3332 O   0  0  0  0  0  0  0  0  0  0  0  0
    9.7213   -2.6120   23.0217 O   0  0  0  0  0  0  0  0  0  0  0  0
    8.2964   -1.2837   18.4334 S   0  0  0  0  0  0  0  0  0  0  0  0
   10.3480   -4.6600   25.4021 H   0  0  0  0  0  0  0  0  0  0  0  0
  1  3  2  0  0  0  0
  1  6  1  0  0  0  0
  2  4  2  0  0  0  0
  2 10  1  0  0  0  0
  3 13  1  0  0  0  0
  4 14  1  0  0  0  0
  5  7  2  0  0  0  0
  5 15  1  0  0  0  0
  6 16  2  0  0  0  0
  7 17  1  0  0  0  0
  8 13  2  0  0  0  0
  8 16  1  0  0  0  0
  9 17  2  0  0  0  0
  9 18  1  0  0  0  0
 10 26  2  0  0  0  0
 11 14  2  0  0  0  0
 11 26  1  0  0  0  0
 12 27  2  0  0  0  0
 12 32  1  0  0  0  0
 13 24  1  0  0  0  0
 14 25  1  0  0  0  0
 15 18  2  0  0  0  0
 15 27  1  0  0  0  0
 16 28  1  0  0  0  0
 17 29  1  0  0  0  0
 18 32  1  0  0  0  0
 19 20  2  0  0  0  0
 20 21  1  0  0  0  0
 21 29  1  0  0  0  0
 21 30  2  0  0  0  0
 22 25  1  0  0  0  0
 22 28  1  0  0  0  0
 22 31  2  0  0  0  0
 23 24  1  0  0  0  0
 25 29  1  0  0  0  0
 28 33  1  0  0  0  0
M  END
> <ref_mols>
x2473_0

> <original SMILES>
CCC=1C=CC=C(NC(=O)C(N(C(=O)C=C)C=2C=CC=3N=CSC3C2)C=4C=CC=NC4)C1

> <Chemgauss4>
-3.529699

> <ref_pdb>
x0749_0

> <CYS145-warhead dist minimum (A)>
9.64414

> <CYS145-warhead dist mean (A)>
12.198179

> <CYS145-warhead dist stddev (A)>
0.88441795

$$$$
x2543
  -OEChem-05172015543D

 34 36  0     1  0  0  0  0  0999 V2000
    6.5536   -5.8667   21.3470 C   0  0  0  0  0  0  0  0  0  0  0  0
    7.5369   -5.3363   22.1746 C   0  0  0  0  0  0  0  0  0  0  0  0
    5.9462   -3.2852   28.0400 C   0  0  0  0  0  0  0  0  0  0  0  0
    6.9682   -2.2034   22.5372 C   0  0  0  0  0  0  0  0  0  0  0  0
    5.4104   -3.0658   29.3090 C   0  0  0  0  0  0  0  0  0  0  0  0
    6.3572   -1.4887   21.5129 C   0  0  0  0  0  0  0  0  0  0  0  0
    6.9026   -4.7295   30.2269 C   0  0  0  0  0  0  0  0  0  0  0  0
    5.2343   -5.7605   21.7569 C   0  0  0  0  0  0  0  0  0  0  0  0
    5.8289   -4.6694   23.6893 C   0  0  0  0  0  0  0  0  0  0  0  0
    9.0657   -1.8182   21.4844 C   0  0  0  0  0  0  0  0  0  0  0  0
    7.1760   -4.7247   23.3700 C   0  0  0  0  0  0  0  0  0  0  0  0
    7.4384   -4.9490   28.9579 C   0  0  0  0  0  0  0  0  0  0  0  0
    8.3478   -2.3759   22.5301 C   0  0  0  0  0  0  0  0  0  0  0  0
    6.9602   -4.2269   27.8644 C   0  0  0  0  0  0  0  0  0  0  0  0
    5.8885   -3.7879   30.4024 C   0  0  0  0  0  0  0  0  0  0  0  0
    7.1642   -0.9706   20.5129 C   0  0  0  0  0  0  0  0  0  0  0  0
   10.7087   -3.1607   26.3751 C   0  0  0  0  0  0  0  0  0  0  0  0
   10.8665   -3.6036   25.1237 C   0  0  0  0  0  0  0  0  0  0  0  0
   10.3359   -2.8147   23.9733 C   0  0  0  0  0  0  0  0  0  0  0  0
    7.5896   -3.5117   25.5324 C   0  0  0  0  0  0  0  0  0  0  0  0
    8.5236   -5.9640   28.7997 C   0  0  0  0  0  0  0  0  0  0  0  0
    5.8360    1.0791   19.8894 C   0  0  0  0  0  0  0  0  0  0  0  0
    5.5642   -1.0497   18.5667 C   0  0  0  0  0  0  0  0  0  0  0  0
    4.3323   -2.5958   31.7488 C   0  0  0  0  0  0  0  0  0  0  0  0
    8.2220   -4.1375   24.2918 C   0  0  2  0  0  0  0  0  0  0  0  0
    6.5422   -0.1983   19.3978 C   0  0  0  0  0  0  0  0  0  0  0  0
    4.8452   -5.1735   22.9108 N   0  0  0  0  0  0  0  0  0  0  0  0
    8.5075   -1.1175   20.4720 N   0  0  0  0  0  0  0  0  0  0  0  0
    7.4894   -4.4364   26.5688 N   0  0  0  0  0  0  0  0  0  0  0  0
    9.0151   -3.1172   23.5861 N   0  0  0  0  0  0  0  0  0  0  0  0
   11.0656   -1.9789   23.4392 O   0  0  0  0  0  0  0  0  0  0  0  0
    7.2249   -2.3391   25.5483 O   0  0  0  0  0  0  0  0  0  0  0  0
    5.3660   -3.5732   31.6408 O   0  0  0  0  0  0  0  0  0  0  0  0
    7.8374   -5.3723   26.3714 H   0  0  0  0  0  0  0  0  0  0  0  0
  1  2  2  0  0  0  0
  1  8  1  0  0  0  0
  2 11  1  0  0  0  0
  3  5  2  0  0  0  0
  3 14  1  0  0  0  0
  4  6  2  0  0  0  0
  4 13  1  0  0  0  0
  5 15  1  0  0  0  0
  6 16  1  0  0  0  0
  7 12  1  0  0  0  0
  7 15  2  0  0  0  0
  8 27  2  0  0  0  0
  9 11  2  0  0  0  0
  9 27  1  0  0  0  0
 10 13  2  0  0  0  0
 10 28  1  0  0  0  0
 11 25  1  0  0  0  0
 12 14  2  0  0  0  0
 12 21  1  0  0  0  0
 13 30  1  0  0  0  0
 14 29  1  0  0  0  0
 15 33  1  0  0  0  0
 16 26  1  0  0  0  0
 16 28  2  0  0  0  0
 17 18  2  0  0  0  0
 18 19  1  0  0  0  0
 19 30  1  0  0  0  0
 19 31  2  0  0  0  0
 20 25  1  0  0  0  0
 20 29  1  0  0  0  0
 20 32  2  0  0  0  0
 22 26  1  0  0  0  0
 23 26  1  0  0  0  0
 24 33  1  0  0  0  0
 25 30  1  0  0  0  0
 29 34  1  0  0  0  0
M  END
> <ref_mols>
x2543_0

> <original SMILES>
COC=1C=CC(NC(=O)C(N(C(=O)C=C)C=2C=CC(=NC2)C(C)C)C=3C=CC=NC3)=C(C)C1

> <Chemgauss4>
-3.504733

> <ref_pdb>
x1380_0

$$$$
x2711
  -OEChem-05172015543D

 34 36  0     1  0  0  0  0  0999 V2000
    6.5536   -5.8667   21.3470 C   0  0  0  0  0  0  0  0  0  0  0  0
    7.5369   -5.3363   22.1746 C   0  0  0  0  0  0  0  0  0  0  0  0
    5.9462   -3.2852   28.0400 C   0  0  0  0  0  0  0  0  0  0  0  0
    6.9682   -2.2034   22.5372 C   0  0  0  0  0  0  0  0  0  0  0  0
    5.4104   -3.0658   29.3090 C   0  0  0  0  0  0  0  0  0  0  0  0
    6.3572   -1.4887   21.5129 C   0  0  0  0  0  0  0  0  0  0  0  0
    6.9026   -4.7295   30.2269 C   0  0  0  0  0  0  0  0  0  0  0  0
    5.2343   -5.7605   21.7569 C   0  0  0  0  0  0  0  0  0  0  0  0
    5.8289   -4.6694   23.6893 C   0  0  0  0  0  0  0  0  0  0  0  0
    9.0657   -1.8182   21.4844 C   0  0  0  0  0  0  0  0  0  0  0  0
    7.1760   -4.7247   23.3700 C   0  0  0  0  0  0  0  0  0  0  0  0
    7.4384   -4.9490   28.9579 C   0  0  0  0  0  0  0  0  0  0  0  0
    8.3478   -2.3759   22.5301 C   0  0  0  0  0  0  0  0  0  0  0  0
    6.9602   -4.2269   27.8644 C   0  0  0  0  0  0  0  0  0  0  0  0
    5.8885   -3.7879   30.4024 C   0  0  0  0  0  0  0  0  0  0  0  0
    7.1642   -0.9706   20.5129 C   0  0  0  0  0  0  0  0  0  0  0  0
   10.7087   -3.1607   26.3751 C   0  0  0  0  0  0  0  0  0  0  0  0
   10.8665   -3.6036   25.1237 C   0  0  0  0  0  0  0  0  0  0  0  0
   10.3359   -2.8147   23.9733 C   0  0  0  0  0  0  0  0  0  0  0  0
    7.5896   -3.5117   25.5324 C   0  0  0  0  0  0  0  0  0  0  0  0
    8.5236   -5.9640   28.7997 C   0  0  0  0  0  0  0  0  0  0  0  0
    5.8360    1.0791   19.8894 C   0  0  0  0  0  0  0  0  0  0  0  0
    5.5642   -1.0497   18.5667 C   0  0  0  0  0  0  0  0  0  0  0  0
    4.3323   -2.5958   31.7488 C   0  0  0  0  0  0  0  0  0  0  0  0
    8.2220   -4.1375   24.2918 C   0  0  2  0  0  0  0  0  0  0  0  0
    6.5422   -0.1983   19.3978 C   0  0  0  0  0  0  0  0  0  0  0  0
    4.8452   -5.1735   22.9108 N   0  0  0  0  0  0  0  0  0  0  0  0
    8.5075   -1.1175   20.4720 N   0  0  0  0  0  0  0  0  0  0  0  0
    7.4894   -4.4364   26.5688 N   0  0  0  0  0  0  0  0  0  0  0  0
    9.0151   -3.1172   23.5861 N   0  0  0  0  0  0  0  0  0  0  0  0
   11.0656   -1.9789   23.4392 O   0  0  0  0  0  0  0  0  0  0  0  0
    7.2249   -2.3391   25.5483 O   0  0  0  0  0  0  0  0  0  0  0  0
    5.3660   -3.5732   31.6408 O   0  0  0  0  0  0  0  0  0  0  0  0
    7.8374   -5.3723   26.3714 H   0  0  0  0  0  0  0  0  0  0  0  0
  1  2  2  0  0  0  0
  1  8  1  0  0  0  0
  2 11  1  0  0  0  0
  3  5  2  0  0  0  0
  3 14  1  0  0  0  0
  4  6  2  0  0  0  0
  4 13  1  0  0  0  0
  5 15  1  0  0  0  0
  6 16  1  0  0  0  0
  7 12  1  0  0  0  0
  7 15  2  0  0  0  0
  8 27  2  0  0  0  0
  9 11  2  0  0  0  0
  9 27  1  0  0  0  0
 10 13  2  0  0  0  0
 10 28  1  0  0  0  0
 11 25  1  0  0  0  0
 12 14  2  0  0  0  0
 12 21  1  0  0  0  0
 13 30  1  0  0  0  0
 14 29  1  0  0  0  0
 15 33  1  0  0  0  0
 16 26  1  0  0  0  0
 16 28  2  0  0  0  0
 17 18  2  0  0  0  0
 18 19  1  0  0  0  0
 19 30  1  0  0  0  0
 19 31  2  0  0  0  0
 20 25  1  0  0  0  0
 20 29  1  0  0  0  0
 20 32  2  0  0  0  0
 22 26  1  0  0  0  0
 23 26  1  0  0  0  0
 24 33  1  0  0  0  0
 25 30  1  0  0  0  0
 29 34  1  0  0  0  0
M  END
> <ref_mols>
x2711_0

> <original SMILES>
COC=1C=CC(NC(=O)C(N(C(=O)C=C)C=2C=CC(=NC2)C(C)C)C=3C=CC=NC3)=C(C)C1

> <Chemgauss4>
-3.504733

> <ref_pdb>
x1380_0

> <CYS145-warhead dist minimum (A)>
5.493551

> <CYS145-warhead dist mean (A)>
6.451511

> <CYS145-warhead dist stddev (A)>
0.46187854

$$$$
x2530
  -OEChem-05172015543D

 33 35  0     1  0  0  0  0  0999 V2000
    7.1435   -1.7737   17.4421 C   0  0  0  0  0  0  0  0  0  0  0  0
    7.5360   -0.9157   18.4634 C   0  0  0  0  0  0  0  0  0  0  0  0
    6.8276   -1.2102   24.3476 C   0  0  0  0  0  0  0  0  0  0  0  0
    7.3227   -2.1580   25.2432 C   0  0  0  0  0  0  0  0  0  0  0  0
   10.6457    1.6121   23.9009 C   0  0  0  0  0  0  0  0  0  0  0  0
   11.5339   -0.0377   22.3756 C   0  0  0  0  0  0  0  0  0  0  0  0
   11.9037    1.7460   24.4885 C   0  0  0  0  0  0  0  0  0  0  0  0
   12.7918    0.0963   22.9631 C   0  0  0  0  0  0  0  0  0  0  0  0
    7.7716   -2.4572   22.5061 C   0  0  0  0  0  0  0  0  0  0  0  0
    6.1592   -2.7078   17.7222 C   0  0  0  0  0  0  0  0  0  0  0  0
    5.9654   -1.9845   19.8941 C   0  0  0  0  0  0  0  0  0  0  0  0
    6.9407   -1.0166   19.7159 C   0  0  0  0  0  0  0  0  0  0  0  0
    8.2667   -3.4050   23.4017 C   0  0  0  0  0  0  0  0  0  0  0  0
   10.4608    0.7202   22.8445 C   0  0  0  0  0  0  0  0  0  0  0  0
    7.0520   -1.3598   22.9790 C   0  0  0  0  0  0  0  0  0  0  0  0
    8.0422   -3.2554   24.7703 C   0  0  0  0  0  0  0  0  0  0  0  0
   12.9767    0.9882   24.0196 C   0  0  0  0  0  0  0  0  0  0  0  0
    4.3242    2.4854   21.6869 C   0  0  0  0  0  0  0  0  0  0  0  0
    4.9906    1.3885   21.3132 C   0  0  0  0  0  0  0  0  0  0  0  0
    5.3587    0.3513   22.3211 C   0  0  0  0  0  0  0  0  0  0  0  0
    8.8242   -0.2506   21.1936 C   0  0  0  0  0  0  0  0  0  0  0  0
    9.0350   -4.5702   22.8681 C   0  0  0  0  0  0  0  0  0  0  0  0
    7.7298   -5.3492   26.0659 C   0  0  0  0  0  0  0  0  0  0  0  0
    9.8584   -4.0535   26.2618 C   0  0  0  0  0  0  0  0  0  0  0  0
    7.3453   -0.0976   20.8474 C   0  0  2  0  0  0  0  0  0  0  0  0
    5.5579   -2.8358   18.9262 N   0  0  0  0  0  0  0  0  0  0  0  0
    9.1846    0.5845   22.2482 N   0  0  0  0  0  0  0  0  0  0  0  0
    6.5367   -0.3719   22.0469 N   0  0  0  0  0  0  0  0  0  0  0  0
    8.5355   -4.2052   25.6916 N   0  0  0  0  0  0  0  0  0  0  0  0
    4.6272    0.1859   23.2977 O   0  0  0  0  0  0  0  0  0  0  0  0
    9.5548   -1.0205   20.5756 O   0  0  0  0  0  0  0  0  0  0  0  0
   14.6811    1.1699   24.8157 Br  0  0  0  0  0  0  0  0  0  0  0  0
    8.4436    1.1652   22.6352 H   0  0  0  0  0  0  0  0  0  0  0  0
  1  2  2  0  0  0  0
  1 10  1  0  0  0  0
  2 12  1  0  0  0  0
  3  4  2  0  0  0  0
  3 15  1  0  0  0  0
  4 16  1  0  0  0  0
  5  7  2  0  0  0  0
  5 14  1  0  0  0  0
  6  8  1  0  0  0  0
  6 14  2  0  0  0  0
  7 17  1  0  0  0  0
  8 17  2  0  0  0  0
  9 13  1  0  0  0  0
  9 15  2  0  0  0  0
 10 26  2  0  0  0  0
 11 12  2  0  0  0  0
 11 26  1  0  0  0  0
 12 25  1  0  0  0  0
 13 16  2  0  0  0  0
 13 22  1  0  0  0  0
 14 27  1  0  0  0  0
 15 28  1  0  0  0  0
 16 29  1  0  0  0  0
 17 32  1  0  0  0  0
 18 19  2  0  0  0  0
 19 20  1  0  0  0  0
 20 28  1  0  0  0  0
 20 30  2  0  0  0  0
 21 25  1  0  0  0  0
 21 27  1  0  0  0  0
 21 31  2  0  0  0  0
 23 29  1  0  0  0  0
 24 29  1  0  0  0  0
 25 28  1  0  0  0  0
 27 33  1  0  0  0  0
M  END
> <ref_mols>
x2530_0

> <original SMILES>
CN(C)C=1C=CC(=CC1C)N(C(C(=O)NC=2C=CC(Br)=CC2)C=3C=CC=NC3)C(=O)C=C

> <Chemgauss4>
-3.499897

> <ref_pdb>
x0831_0

$$$$
x2763
  -OEChem-05172015543D

 33 35  0     1  0  0  0  0  0999 V2000
    7.1435   -1.7737   17.4421 C   0  0  0  0  0  0  0  0  0  0  0  0
    7.5360   -0.9157   18.4634 C   0  0  0  0  0  0  0  0  0  0  0  0
    6.8276   -1.2102   24.3476 C   0  0  0  0  0  0  0  0  0  0  0  0
    7.3227   -2.1580   25.2432 C   0  0  0  0  0  0  0  0  0  0  0  0
   10.6457    1.6121   23.9009 C   0  0  0  0  0  0  0  0  0  0  0  0
   11.5339   -0.0377   22.3756 C   0  0  0  0  0  0  0  0  0  0  0  0
   11.9037    1.7460   24.4885 C   0  0  0  0  0  0  0  0  0  0  0  0
   12.7918    0.0963   22.9631 C   0  0  0  0  0  0  0  0  0  0  0  0
    7.7716   -2.4572   22.5061 C   0  0  0  0  0  0  0  0  0  0  0  0
    6.1592   -2.7078   17.7222 C   0  0  0  0  0  0  0  0  0  0  0  0
    5.9654   -1.9845   19.8941 C   0  0  0  0  0  0  0  0  0  0  0  0
    6.9407   -1.0166   19.7159 C   0  0  0  0  0  0  0  0  0  0  0  0
    8.2667   -3.4050   23.4017 C   0  0  0  0  0  0  0  0  0  0  0  0
   10.4608    0.7202   22.8445 C   0  0  0  0  0  0  0  0  0  0  0  0
    7.0520   -1.3598   22.9790 C   0  0  0  0  0  0  0  0  0  0  0  0
    8.0422   -3.2554   24.7703 C   0  0  0  0  0  0  0  0  0  0  0  0
   12.9767    0.9882   24.0196 C   0  0  0  0  0  0  0  0  0  0  0  0
    4.3242    2.4854   21.6869 C   0  0  0  0  0  0  0  0  0  0  0  0
    4.9906    1.3885   21.3132 C   0  0  0  0  0  0  0  0  0  0  0  0
    5.3587    0.3513   22.3211 C   0  0  0  0  0  0  0  0  0  0  0  0
    8.8242   -0.2506   21.1936 C   0  0  0  0  0  0  0  0  0  0  0  0
    9.0350   -4.5702   22.8681 C   0  0  0  0  0  0  0  0  0  0  0  0
    7.7298   -5.3492   26.0659 C   0  0  0  0  0  0  0  0  0  0  0  0
    9.8584   -4.0535   26.2618 C   0  0  0  0  0  0  0  0  0  0  0  0
    7.3453   -0.0976   20.8474 C   0  0  2  0  0  0  0  0  0  0  0  0
    5.5579   -2.8358   18.9262 N   0  0  0  0  0  0  0  0  0  0  0  0
    9.1846    0.5845   22.2482 N   0  0  0  0  0  0  0  0  0  0  0  0
    6.5367   -0.3719   22.0469 N   0  0  0  0  0  0  0  0  0  0  0  0
    8.5355   -4.2052   25.6916 N   0  0  0  0  0  0  0  0  0  0  0  0
    4.6272    0.1859   23.2977 O   0  0  0  0  0  0  0  0  0  0  0  0
    9.5548   -1.0205   20.5756 O   0  0  0  0  0  0  0  0  0  0  0  0
   14.6811    1.1699   24.8157 Br  0  0  0  0  0  0  0  0  0  0  0  0
    8.4436    1.1652   22.6352 H   0  0  0  0  0  0  0  0  0  0  0  0
  1  2  2  0  0  0  0
  1 10  1  0  0  0  0
  2 12  1  0  0  0  0
  3  4  2  0  0  0  0
  3 15  1  0  0  0  0
  4 16  1  0  0  0  0
  5  7  2  0  0  0  0
  5 14  1  0  0  0  0
  6  8  1  0  0  0  0
  6 14  2  0  0  0  0
  7 17  1  0  0  0  0
  8 17  2  0  0  0  0
  9 13  1  0  0  0  0
  9 15  2  0  0  0  0
 10 26  2  0  0  0  0
 11 12  2  0  0  0  0
 11 26  1  0  0  0  0
 12 25  1  0  0  0  0
 13 16  2  0  0  0  0
 13 22  1  0  0  0  0
 14 27  1  0  0  0  0
 15 28  1  0  0  0  0
 16 29  1  0  0  0  0
 17 32  1  0  0  0  0
 18 19  2  0  0  0  0
 19 20  1  0  0  0  0
 20 28  1  0  0  0  0
 20 30  2  0  0  0  0
 21 25  1  0  0  0  0
 21 27  1  0  0  0  0
 21 31  2  0  0  0  0
 23 29  1  0  0  0  0
 24 29  1  0  0  0  0
 25 28  1  0  0  0  0
 27 33  1  0  0  0  0
M  END
> <ref_mols>
x2763_0

> <original SMILES>
CN(C)C=1C=CC(=CC1C)N(C(C(=O)NC=2C=CC(Br)=CC2)C=3C=CC=NC3)C(=O)C=C

> <Chemgauss4>
-3.499897

> <ref_pdb>
x0831_0

> <CYS145-warhead dist minimum (A)>
12.211874

> <CYS145-warhead dist mean (A)>
13.662954

> <CYS145-warhead dist stddev (A)>
0.4820955

$$$$
x2698
  -OEChem-05172015543D

 33 35  0     1  0  0  0  0  0999 V2000
    7.1435   -1.7737   17.4421 C   0  0  0  0  0  0  0  0  0  0  0  0
    7.5360   -0.9157   18.4634 C   0  0  0  0  0  0  0  0  0  0  0  0
    6.8276   -1.2102   24.3476 C   0  0  0  0  0  0  0  0  0  0  0  0
    7.3227   -2.1580   25.2432 C   0  0  0  0  0  0  0  0  0  0  0  0
   10.6457    1.6121   23.9009 C   0  0  0  0  0  0  0  0  0  0  0  0
   11.5339   -0.0377   22.3756 C   0  0  0  0  0  0  0  0  0  0  0  0
   11.9037    1.7460   24.4885 C   0  0  0  0  0  0  0  0  0  0  0  0
   12.7918    0.0963   22.9631 C   0  0  0  0  0  0  0  0  0  0  0  0
    7.7716   -2.4572   22.5061 C   0  0  0  0  0  0  0  0  0  0  0  0
    6.1592   -2.7078   17.7222 C   0  0  0  0  0  0  0  0  0  0  0  0
    5.9654   -1.9845   19.8941 C   0  0  0  0  0  0  0  0  0  0  0  0
    6.9407   -1.0166   19.7159 C   0  0  0  0  0  0  0  0  0  0  0  0
    8.2667   -3.4050   23.4017 C   0  0  0  0  0  0  0  0  0  0  0  0
   10.4608    0.7202   22.8445 C   0  0  0  0  0  0  0  0  0  0  0  0
    7.0520   -1.3598   22.9790 C   0  0  0  0  0  0  0  0  0  0  0  0
    8.0422   -3.2554   24.7703 C   0  0  0  0  0  0  0  0  0  0  0  0
   12.9767    0.9882   24.0196 C   0  0  0  0  0  0  0  0  0  0  0  0
    4.3242    2.4854   21.6869 C   0  0  0  0  0  0  0  0  0  0  0  0
    4.9906    1.3885   21.3132 C   0  0  0  0  0  0  0  0  0  0  0  0
    5.3587    0.3513   22.3211 C   0  0  0  0  0  0  0  0  0  0  0  0
    8.8242   -0.2506   21.1936 C   0  0  0  0  0  0  0  0  0  0  0  0
    9.0350   -4.5702   22.8681 C   0  0  0  0  0  0  0  0  0  0  0  0
    7.7298   -5.3492   26.0659 C   0  0  0  0  0  0  0  0  0  0  0  0
    9.8584   -4.0535   26.2618 C   0  0  0  0  0  0  0  0  0  0  0  0
    7.3453   -0.0976   20.8474 C   0  0  2  0  0  0  0  0  0  0  0  0
    5.5579   -2.8358   18.9262 N   0  0  0  0  0  0  0  0  0  0  0  0
    9.1846    0.5845   22.2482 N   0  0  0  0  0  0  0  0  0  0  0  0
    6.5367   -0.3719   22.0469 N   0  0  0  0  0  0  0  0  0  0  0  0
    8.5355   -4.2052   25.6916 N   0  0  0  0  0  0  0  0  0  0  0  0
    4.6272    0.1859   23.2977 O   0  0  0  0  0  0  0  0  0  0  0  0
    9.5548   -1.0205   20.5756 O   0  0  0  0  0  0  0  0  0  0  0  0
   14.6811    1.1699   24.8157 Br  0  0  0  0  0  0  0  0  0  0  0  0
    8.4436    1.1652   22.6352 H   0  0  0  0  0  0  0  0  0  0  0  0
  1  2  2  0  0  0  0
  1 10  1  0  0  0  0
  2 12  1  0  0  0  0
  3  4  2  0  0  0  0
  3 15  1  0  0  0  0
  4 16  1  0  0  0  0
  5  7  2  0  0  0  0
  5 14  1  0  0  0  0
  6  8  1  0  0  0  0
  6 14  2  0  0  0  0
  7 17  1  0  0  0  0
  8 17  2  0  0  0  0
  9 13  1  0  0  0  0
  9 15  2  0  0  0  0
 10 26  2  0  0  0  0
 11 12  2  0  0  0  0
 11 26  1  0  0  0  0
 12 25  1  0  0  0  0
 13 16  2  0  0  0  0
 13 22  1  0  0  0  0
 14 27  1  0  0  0  0
 15 28  1  0  0  0  0
 16 29  1  0  0  0  0
 17 32  1  0  0  0  0
 18 19  2  0  0  0  0
 19 20  1  0  0  0  0
 20 28  1  0  0  0  0
 20 30  2  0  0  0  0
 21 25  1  0  0  0  0
 21 27  1  0  0  0  0
 21 31  2  0  0  0  0
 23 29  1  0  0  0  0
 24 29  1  0  0  0  0
 25 28  1  0  0  0  0
 27 33  1  0  0  0  0
M  END
> <ref_mols>
x2698_0

> <original SMILES>
CN(C)C=1C=CC(=CC1C)N(C(C(=O)NC=2C=CC(Br)=CC2)C=3C=CC=NC3)C(=O)C=C

> <Chemgauss4>
-3.499897

> <ref_pdb>
x0831_0

> <CYS145-warhead dist minimum (A)>
9.423542

> <CYS145-warhead dist mean (A)>
13.381913

> <CYS145-warhead dist stddev (A)>
0.8136568

$$$$
x2517
  -OEChem-05172015543D

 35 37  0     1  0  0  0  0  0999 V2000
    6.2373   -0.1156   18.1028 C   0  0  0  0  0  0  0  0  0  0  0  0
    5.6881   -5.9822   22.6722 C   0  0  0  0  0  0  0  0  0  0  0  0
    5.4504   -1.1810   18.5399 C   0  0  0  0  0  0  0  0  0  0  0  0
    7.3294    0.3028   18.8630 C   0  0  0  0  0  0  0  0  0  0  0  0
    6.7233   -5.0679   22.5125 C   0  0  0  0  0  0  0  0  0  0  0  0
   10.6745   -1.7349   23.9508 C   0  0  0  0  0  0  0  0  0  0  0  0
   11.6580   -0.9079   24.4932 C   0  0  0  0  0  0  0  0  0  0  0  0
   11.4800   -3.5742   25.2943 C   0  0  0  0  0  0  0  0  0  0  0  0
    5.1130   -6.0981   23.9275 C   0  0  0  0  0  0  0  0  0  0  0  0
    6.5055   -4.4987   24.8114 C   0  0  0  0  0  0  0  0  0  0  0  0
    7.1460   -4.3081   23.5976 C   0  0  0  0  0  0  0  0  0  0  0  0
    5.7554   -1.8281   19.7374 C   0  0  0  0  0  0  0  0  0  0  0  0
    7.6345   -0.3442   20.0605 C   0  0  0  0  0  0  0  0  0  0  0  0
   12.4637   -2.7472   25.8367 C   0  0  0  0  0  0  0  0  0  0  0  0
   10.5854   -3.0680   24.3514 C   0  0  0  0  0  0  0  0  0  0  0  0
   12.5527   -1.4140   25.4361 C   0  0  0  0  0  0  0  0  0  0  0  0
    6.8475   -1.4097   20.4977 C   0  0  0  0  0  0  0  0  0  0  0  0
   11.6248   -6.9171   23.7414 C   0  0  0  0  0  0  0  0  0  0  0  0
   11.1686   -5.7288   23.3330 C   0  0  0  0  0  0  0  0  0  0  0  0
    9.7674   -5.3151   23.6376 C   0  0  0  0  0  0  0  0  0  0  0  0
    8.3350   -2.7311   22.0428 C   0  0  0  0  0  0  0  0  0  0  0  0
    4.8936   -2.9663   20.1794 C   0  0  0  0  0  0  0  0  0  0  0  0
   13.4096   -3.3155   26.8441 C   0  0  0  0  0  0  0  0  0  0  0  0
    8.3977    0.9647   22.0582 C   0  0  0  0  0  0  0  0  0  0  0  0
   13.2723    0.2073   27.1721 C   0  0  0  0  0  0  0  0  0  0  0  0
   14.8416   -0.4587   25.3439 C   0  0  0  0  0  0  0  0  0  0  0  0
    8.8110    0.1272   20.8522 C   0  0  0  0  0  0  0  0  0  0  0  0
    8.2691   -3.3046   23.4561 C   0  0  2  0  0  0  0  0  0  0  0  0
    5.4964   -5.3773   25.0050 N   0  0  0  0  0  0  0  0  0  0  0  0
    7.1569   -2.0657   21.7128 N   0  0  0  0  0  0  0  0  0  0  0  0
    9.5612   -3.9289   23.7856 N   0  0  0  0  0  0  0  0  0  0  0  0
   13.5417   -0.5621   25.9748 N   0  0  0  0  0  0  0  0  0  0  0  0
    8.9024   -6.1842   23.7493 O   0  0  0  0  0  0  0  0  0  0  0  0
    9.3249   -2.8812   21.3316 O   0  0  0  0  0  0  0  0  0  0  0  0
    6.4340   -2.0495   22.4291 H   0  0  0  0  0  0  0  0  0  0  0  0
  1  3  1  0  0  0  0
  1  4  2  0  0  0  0
  2  5  2  0  0  0  0
  2  9  1  0  0  0  0
  3 12  2  0  0  0  0
  4 13  1  0  0  0  0
  5 11  1  0  0  0  0
  6  7  2  0  0  0  0
  6 15  1  0  0  0  0
  7 16  1  0  0  0  0
  8 14  1  0  0  0  0
  8 15  2  0  0  0  0
  9 29  2  0  0  0  0
 10 11  2  0  0  0  0
 10 29  1  0  0  0  0
 11 28  1  0  0  0  0
 12 17  1  0  0  0  0
 12 22  1  0  0  0  0
 13 17  2  0  0  0  0
 13 27  1  0  0  0  0
 14 16  2  0  0  0  0
 14 23  1  0  0  0  0
 15 31  1  0  0  0  0
 16 32  1  0  0  0  0
 17 30  1  0  0  0  0
 18 19  2  0  0  0  0
 19 20  1  0  0  0  0
 20 31  1  0  0  0  0
 20 33  2  0  0  0  0
 21 28  1  0  0  0  0
 21 30  1  0  0  0  0
 21 34  2  0  0  0  0
 24 27  1  0  0  0  0
 25 32  1  0  0  0  0
 26 32  1  0  0  0  0
 28 31  1  0  0  0  0
 30 35  1  0  0  0  0
M  END
> <ref_mols>
x2517_0

> <original SMILES>
CCC=1C=CC=C(C)C1NC(=O)C(N(C(=O)C=C)C=2C=CC(N(C)C)=C(C)C2)C=3C=CC=NC3

> <Chemgauss4>
-3.483134

> <ref_pdb>
x0749_0

$$$$
x2685
  -OEChem-05172015543D

 35 37  0     1  0  0  0  0  0999 V2000
    6.2373   -0.1156   18.1028 C   0  0  0  0  0  0  0  0  0  0  0  0
    5.6881   -5.9822   22.6722 C   0  0  0  0  0  0  0  0  0  0  0  0
    5.4504   -1.1810   18.5399 C   0  0  0  0  0  0  0  0  0  0  0  0
    7.3294    0.3028   18.8630 C   0  0  0  0  0  0  0  0  0  0  0  0
    6.7233   -5.0679   22.5125 C   0  0  0  0  0  0  0  0  0  0  0  0
   10.6745   -1.7349   23.9508 C   0  0  0  0  0  0  0  0  0  0  0  0
   11.6580   -0.9079   24.4932 C   0  0  0  0  0  0  0  0  0  0  0  0
   11.4800   -3.5742   25.2943 C   0  0  0  0  0  0  0  0  0  0  0  0
    5.1130   -6.0981   23.9275 C   0  0  0  0  0  0  0  0  0  0  0  0
    6.5055   -4.4987   24.8114 C   0  0  0  0  0  0  0  0  0  0  0  0
    7.1460   -4.3081   23.5976 C   0  0  0  0  0  0  0  0  0  0  0  0
    5.7554   -1.8281   19.7374 C   0  0  0  0  0  0  0  0  0  0  0  0
    7.6345   -0.3442   20.0605 C   0  0  0  0  0  0  0  0  0  0  0  0
   12.4637   -2.7472   25.8367 C   0  0  0  0  0  0  0  0  0  0  0  0
   10.5854   -3.0680   24.3514 C   0  0  0  0  0  0  0  0  0  0  0  0
   12.5527   -1.4140   25.4361 C   0  0  0  0  0  0  0  0  0  0  0  0
    6.8475   -1.4097   20.4977 C   0  0  0  0  0  0  0  0  0  0  0  0
   11.6248   -6.9171   23.7414 C   0  0  0  0  0  0  0  0  0  0  0  0
   11.1686   -5.7288   23.3330 C   0  0  0  0  0  0  0  0  0  0  0  0
    9.7674   -5.3151   23.6376 C   0  0  0  0  0  0  0  0  0  0  0  0
    8.3350   -2.7311   22.0428 C   0  0  0  0  0  0  0  0  0  0  0  0
    4.8936   -2.9663   20.1794 C   0  0  0  0  0  0  0  0  0  0  0  0
   13.4096   -3.3155   26.8441 C   0  0  0  0  0  0  0  0  0  0  0  0
    8.3977    0.9647   22.0582 C   0  0  0  0  0  0  0  0  0  0  0  0
   13.2723    0.2073   27.1721 C   0  0  0  0  0  0  0  0  0  0  0  0
   14.8416   -0.4587   25.3439 C   0  0  0  0  0  0  0  0  0  0  0  0
    8.8110    0.1272   20.8522 C   0  0  0  0  0  0  0  0  0  0  0  0
    8.2691   -3.3046   23.4561 C   0  0  2  0  0  0  0  0  0  0  0  0
    5.4964   -5.3773   25.0050 N   0  0  0  0  0  0  0  0  0  0  0  0
    7.1569   -2.0657   21.7128 N   0  0  0  0  0  0  0  0  0  0  0  0
    9.5612   -3.9289   23.7856 N   0  0  0  0  0  0  0  0  0  0  0  0
   13.5417   -0.5621   25.9748 N   0  0  0  0  0  0  0  0  0  0  0  0
    8.9024   -6.1842   23.7493 O   0  0  0  0  0  0  0  0  0  0  0  0
    9.3249   -2.8812   21.3316 O   0  0  0  0  0  0  0  0  0  0  0  0
    6.4340   -2.0495   22.4291 H   0  0  0  0  0  0  0  0  0  0  0  0
  1  3  1  0  0  0  0
  1  4  2  0  0  0  0
  2  5  2  0  0  0  0
  2  9  1  0  0  0  0
  3 12  2  0  0  0  0
  4 13  1  0  0  0  0
  5 11  1  0  0  0  0
  6  7  2  0  0  0  0
  6 15  1  0  0  0  0
  7 16  1  0  0  0  0
  8 14  1  0  0  0  0
  8 15  2  0  0  0  0
  9 29  2  0  0  0  0
 10 11  2  0  0  0  0
 10 29  1  0  0  0  0
 11 28  1  0  0  0  0
 12 17  1  0  0  0  0
 12 22  1  0  0  0  0
 13 17  2  0  0  0  0
 13 27  1  0  0  0  0
 14 16  2  0  0  0  0
 14 23  1  0  0  0  0
 15 31  1  0  0  0  0
 16 32  1  0  0  0  0
 17 30  1  0  0  0  0
 18 19  2  0  0  0  0
 19 20  1  0  0  0  0
 20 31  1  0  0  0  0
 20 33  2  0  0  0  0
 21 28  1  0  0  0  0
 21 30  1  0  0  0  0
 21 34  2  0  0  0  0
 24 27  1  0  0  0  0
 25 32  1  0  0  0  0
 26 32  1  0  0  0  0
 28 31  1  0  0  0  0
 30 35  1  0  0  0  0
M  END
> <ref_mols>
x2685_0

> <original SMILES>
CCC=1C=CC=C(C)C1NC(=O)C(N(C(=O)C=C)C=2C=CC(N(C)C)=C(C)C2)C=3C=CC=NC3

> <Chemgauss4>
-3.483134

> <ref_pdb>
x0749_0

> <CYS145-warhead dist minimum (A)>
3.62963

> <CYS145-warhead dist mean (A)>
4.6200657

> <CYS145-warhead dist stddev (A)>
0.38970485

$$$$
x2789
  -OEChem-05172015543D

 35 37  0     1  0  0  0  0  0999 V2000
    6.2373   -0.1156   18.1028 C   0  0  0  0  0  0  0  0  0  0  0  0
    5.6881   -5.9822   22.6722 C   0  0  0  0  0  0  0  0  0  0  0  0
    5.4504   -1.1810   18.5399 C   0  0  0  0  0  0  0  0  0  0  0  0
    7.3294    0.3028   18.8630 C   0  0  0  0  0  0  0  0  0  0  0  0
    6.7233   -5.0679   22.5125 C   0  0  0  0  0  0  0  0  0  0  0  0
   10.6745   -1.7349   23.9508 C   0  0  0  0  0  0  0  0  0  0  0  0
   11.6580   -0.9079   24.4932 C   0  0  0  0  0  0  0  0  0  0  0  0
   11.4800   -3.5742   25.2943 C   0  0  0  0  0  0  0  0  0  0  0  0
    5.1130   -6.0981   23.9275 C   0  0  0  0  0  0  0  0  0  0  0  0
    6.5055   -4.4987   24.8114 C   0  0  0  0  0  0  0  0  0  0  0  0
    7.1460   -4.3081   23.5976 C   0  0  0  0  0  0  0  0  0  0  0  0
    5.7554   -1.8281   19.7374 C   0  0  0  0  0  0  0  0  0  0  0  0
    7.6345   -0.3442   20.0605 C   0  0  0  0  0  0  0  0  0  0  0  0
   12.4637   -2.7472   25.8367 C   0  0  0  0  0  0  0  0  0  0  0  0
   10.5854   -3.0680   24.3514 C   0  0  0  0  0  0  0  0  0  0  0  0
   12.5527   -1.4140   25.4361 C   0  0  0  0  0  0  0  0  0  0  0  0
    6.8475   -1.4097   20.4977 C   0  0  0  0  0  0  0  0  0  0  0  0
   11.6248   -6.9171   23.7414 C   0  0  0  0  0  0  0  0  0  0  0  0
   11.1686   -5.7288   23.3330 C   0  0  0  0  0  0  0  0  0  0  0  0
    9.7674   -5.3151   23.6376 C   0  0  0  0  0  0  0  0  0  0  0  0
    8.3350   -2.7311   22.0428 C   0  0  0  0  0  0  0  0  0  0  0  0
    4.8936   -2.9663   20.1794 C   0  0  0  0  0  0  0  0  0  0  0  0
   13.4096   -3.3155   26.8441 C   0  0  0  0  0  0  0  0  0  0  0  0
    8.3977    0.9647   22.0582 C   0  0  0  0  0  0  0  0  0  0  0  0
   13.2723    0.2073   27.1721 C   0  0  0  0  0  0  0  0  0  0  0  0
   14.8416   -0.4587   25.3439 C   0  0  0  0  0  0  0  0  0  0  0  0
    8.8110    0.1272   20.8522 C   0  0  0  0  0  0  0  0  0  0  0  0
    8.2691   -3.3046   23.4561 C   0  0  2  0  0  0  0  0  0  0  0  0
    5.4964   -5.3773   25.0050 N   0  0  0  0  0  0  0  0  0  0  0  0
    7.1569   -2.0657   21.7128 N   0  0  0  0  0  0  0  0  0  0  0  0
    9.5612   -3.9289   23.7856 N   0  0  0  0  0  0  0  0  0  0  0  0
   13.5417   -0.5621   25.9748 N   0  0  0  0  0  0  0  0  0  0  0  0
    8.9024   -6.1842   23.7493 O   0  0  0  0  0  0  0  0  0  0  0  0
    9.3249   -2.8812   21.3316 O   0  0  0  0  0  0  0  0  0  0  0  0
    6.4340   -2.0495   22.4291 H   0  0  0  0  0  0  0  0  0  0  0  0
  1  3  1  0  0  0  0
  1  4  2  0  0  0  0
  2  5  2  0  0  0  0
  2  9  1  0  0  0  0
  3 12  2  0  0  0  0
  4 13  1  0  0  0  0
  5 11  1  0  0  0  0
  6  7  2  0  0  0  0
  6 15  1  0  0  0  0
  7 16  1  0  0  0  0
  8 14  1  0  0  0  0
  8 15  2  0  0  0  0
  9 29  2  0  0  0  0
 10 11  2  0  0  0  0
 10 29  1  0  0  0  0
 11 28  1  0  0  0  0
 12 17  1  0  0  0  0
 12 22  1  0  0  0  0
 13 17  2  0  0  0  0
 13 27  1  0  0  0  0
 14 16  2  0  0  0  0
 14 23  1  0  0  0  0
 15 31  1  0  0  0  0
 16 32  1  0  0  0  0
 17 30  1  0  0  0  0
 18 19  2  0  0  0  0
 19 20  1  0  0  0  0
 20 31  1  0  0  0  0
 20 33  2  0  0  0  0
 21 28  1  0  0  0  0
 21 30  1  0  0  0  0
 21 34  2  0  0  0  0
 24 27  1  0  0  0  0
 25 32  1  0  0  0  0
 26 32  1  0  0  0  0
 28 31  1  0  0  0  0
 30 35  1  0  0  0  0
M  END
> <ref_mols>
x2789_0

> <original SMILES>
CCC=1C=CC=C(C)C1NC(=O)C(N(C(=O)C=C)C=2C=CC(N(C)C)=C(C)C2)C=3C=CC=NC3

> <Chemgauss4>
-3.483134

> <ref_pdb>
x0749_0

$$$$
x2541
  -OEChem-05172015543D

 31 33  0     1  0  0  0  0  0999 V2000
    7.3300   -0.8053   18.4678 C   0  0  0  0  0  0  0  0  0  0  0  0
    7.8154   -1.2511   19.6921 C   0  0  0  0  0  0  0  0  0  0  0  0
    7.2320   -4.5258   24.1135 C   0  0  0  0  0  0  0  0  0  0  0  0
    7.8805   -2.3376   24.9061 C   0  0  0  0  0  0  0  0  0  0  0  0
   11.8140    0.9767   23.0548 C   0  0  0  0  0  0  0  0  0  0  0  0
   12.1371   -1.3209   22.3812 C   0  0  0  0  0  0  0  0  0  0  0  0
    7.5916   -5.0777   25.3430 C   0  0  0  0  0  0  0  0  0  0  0  0
    8.2401   -2.8895   26.1356 C   0  0  0  0  0  0  0  0  0  0  0  0
   13.1954    1.1419   23.1538 C   0  0  0  0  0  0  0  0  0  0  0  0
   13.5186   -1.1556   22.4802 C   0  0  0  0  0  0  0  0  0  0  0  0
    6.2124    0.0137   18.4725 C   0  0  0  0  0  0  0  0  0  0  0  0
    6.0667   -0.0477   20.7645 C   0  0  0  0  0  0  0  0  0  0  0  0
    7.1773   -0.8697   20.8671 C   0  0  0  0  0  0  0  0  0  0  0  0
   11.2848   -0.2548   22.6685 C   0  0  0  0  0  0  0  0  0  0  0  0
    7.3764   -3.1557   23.8950 C   0  0  0  0  0  0  0  0  0  0  0  0
    8.0957   -4.2596   26.3540 C   0  0  0  0  0  0  0  0  0  0  0  0
   14.0478    0.0758   22.8665 C   0  0  0  0  0  0  0  0  0  0  0  0
    4.2937   -4.9234   22.0077 C   0  0  0  0  0  0  0  0  0  0  0  0
    4.9301   -3.8981   22.5828 C   0  0  0  0  0  0  0  0  0  0  0  0
    5.9745   -3.1427   21.8305 C   0  0  0  0  0  0  0  0  0  0  0  0
    9.1896   -1.5724   22.1995 C   0  0  0  0  0  0  0  0  0  0  0  0
    6.9624   -5.6564   28.4223 C   0  0  0  0  0  0  0  0  0  0  0  0
    7.6812   -1.3373   22.2147 C   0  0  2  0  0  0  0  0  0  0  0  0
    5.5659    0.4053   19.5933 N   0  0  0  0  0  0  0  0  0  0  0  0
    9.8833   -0.4223   22.5675 N   0  0  0  0  0  0  0  0  0  0  0  0
    7.0018   -2.5809   22.6147 N   0  0  0  0  0  0  0  0  0  0  0  0
    5.8737   -3.0483   20.6070 O   0  0  0  0  0  0  0  0  0  0  0  0
    9.6698   -2.6573   21.8822 O   0  0  0  0  0  0  0  0  0  0  0  0
    8.5551   -4.9649   27.9247 S   0  0  0  0  0  0  0  0  0  0  0  0
   15.7525    0.2799   22.9888 Cl  0  0  0  0  0  0  0  0  0  0  0  0
    9.3160    0.3930   22.7899 H   0  0  0  0  0  0  0  0  0  0  0  0
  1  2  2  0  0  0  0
  1 11  1  0  0  0  0
  2 13  1  0  0  0  0
  3  7  2  0  0  0  0
  3 15  1  0  0  0  0
  4  8  1  0  0  0  0
  4 15  2  0  0  0  0
  5  9  2  0  0  0  0
  5 14  1  0  0  0  0
  6 10  1  0  0  0  0
  6 14  2  0  0  0  0
  7 16  1  0  0  0  0
  8 16  2  0  0  0  0
  9 17  1  0  0  0  0
 10 17  2  0  0  0  0
 11 24  2  0  0  0  0
 12 13  2  0  0  0  0
 12 24  1  0  0  0  0
 13 23  1  0  0  0  0
 14 25  1  0  0  0  0
 15 26  1  0  0  0  0
 16 29  1  0  0  0  0
 17 30  1  0  0  0  0
 18 19  2  0  0  0  0
 19 20  1  0  0  0  0
 20 26  1  0  0  0  0
 20 27  2  0  0  0  0
 21 23  1  0  0  0  0
 21 25  1  0  0  0  0
 21 28  2  0  0  0  0
 22 29  1  0  0  0  0
 23 26  1  0  0  0  0
 25 31  1  0  0  0  0
M  END
> <ref_mols>
x2541_0

> <original SMILES>
CSC=1C=CC(=CC1)N(C(C(=O)NC=2C=CC(Cl)=CC2)C=3C=CC=NC3)C(=O)C=C

> <Chemgauss4>
-3.232907

> <ref_pdb>
x0770_0

$$$$
x2709
  -OEChem-05172015543D

 31 33  0     1  0  0  0  0  0999 V2000
    7.3300   -0.8053   18.4678 C   0  0  0  0  0  0  0  0  0  0  0  0
    7.8154   -1.2511   19.6921 C   0  0  0  0  0  0  0  0  0  0  0  0
    7.2320   -4.5258   24.1135 C   0  0  0  0  0  0  0  0  0  0  0  0
    7.8805   -2.3376   24.9061 C   0  0  0  0  0  0  0  0  0  0  0  0
   11.8140    0.9767   23.0548 C   0  0  0  0  0  0  0  0  0  0  0  0
   12.1371   -1.3209   22.3812 C   0  0  0  0  0  0  0  0  0  0  0  0
    7.5916   -5.0777   25.3430 C   0  0  0  0  0  0  0  0  0  0  0  0
    8.2401   -2.8895   26.1356 C   0  0  0  0  0  0  0  0  0  0  0  0
   13.1954    1.1419   23.1538 C   0  0  0  0  0  0  0  0  0  0  0  0
   13.5186   -1.1556   22.4802 C   0  0  0  0  0  0  0  0  0  0  0  0
    6.2124    0.0137   18.4725 C   0  0  0  0  0  0  0  0  0  0  0  0
    6.0667   -0.0477   20.7645 C   0  0  0  0  0  0  0  0  0  0  0  0
    7.1773   -0.8697   20.8671 C   0  0  0  0  0  0  0  0  0  0  0  0
   11.2848   -0.2548   22.6685 C   0  0  0  0  0  0  0  0  0  0  0  0
    7.3764   -3.1557   23.8950 C   0  0  0  0  0  0  0  0  0  0  0  0
    8.0957   -4.2596   26.3540 C   0  0  0  0  0  0  0  0  0  0  0  0
   14.0478    0.0758   22.8665 C   0  0  0  0  0  0  0  0  0  0  0  0
    4.2937   -4.9234   22.0077 C   0  0  0  0  0  0  0  0  0  0  0  0
    4.9301   -3.8981   22.5828 C   0  0  0  0  0  0  0  0  0  0  0  0
    5.9745   -3.1427   21.8305 C   0  0  0  0  0  0  0  0  0  0  0  0
    9.1896   -1.5724   22.1995 C   0  0  0  0  0  0  0  0  0  0  0  0
    6.9624   -5.6564   28.4223 C   0  0  0  0  0  0  0  0  0  0  0  0
    7.6812   -1.3373   22.2147 C   0  0  2  0  0  0  0  0  0  0  0  0
    5.5659    0.4053   19.5933 N   0  0  0  0  0  0  0  0  0  0  0  0
    9.8833   -0.4223   22.5675 N   0  0  0  0  0  0  0  0  0  0  0  0
    7.0018   -2.5809   22.6147 N   0  0  0  0  0  0  0  0  0  0  0  0
    5.8737   -3.0483   20.6070 O   0  0  0  0  0  0  0  0  0  0  0  0
    9.6698   -2.6573   21.8822 O   0  0  0  0  0  0  0  0  0  0  0  0
    8.5551   -4.9649   27.9247 S   0  0  0  0  0  0  0  0  0  0  0  0
   15.7525    0.2799   22.9888 Cl  0  0  0  0  0  0  0  0  0  0  0  0
    9.3160    0.3930   22.7899 H   0  0  0  0  0  0  0  0  0  0  0  0
  1  2  2  0  0  0  0
  1 11  1  0  0  0  0
  2 13  1  0  0  0  0
  3  7  2  0  0  0  0
  3 15  1  0  0  0  0
  4  8  1  0  0  0  0
  4 15  2  0  0  0  0
  5  9  2  0  0  0  0
  5 14  1  0  0  0  0
  6 10  1  0  0  0  0
  6 14  2  0  0  0  0
  7 16  1  0  0  0  0
  8 16  2  0  0  0  0
  9 17  1  0  0  0  0
 10 17  2  0  0  0  0
 11 24  2  0  0  0  0
 12 13  2  0  0  0  0
 12 24  1  0  0  0  0
 13 23  1  0  0  0  0
 14 25  1  0  0  0  0
 15 26  1  0  0  0  0
 16 29  1  0  0  0  0
 17 30  1  0  0  0  0
 18 19  2  0  0  0  0
 19 20  1  0  0  0  0
 20 26  1  0  0  0  0
 20 27  2  0  0  0  0
 21 23  1  0  0  0  0
 21 25  1  0  0  0  0
 21 28  2  0  0  0  0
 22 29  1  0  0  0  0
 23 26  1  0  0  0  0
 25 31  1  0  0  0  0
M  END
> <ref_mols>
x2709_0

> <original SMILES>
CSC=1C=CC(=CC1)N(C(C(=O)NC=2C=CC(Cl)=CC2)C=3C=CC=NC3)C(=O)C=C

> <Chemgauss4>
-3.232907

> <ref_pdb>
x0770_0

> <CYS145-warhead dist minimum (A)>
6.5393696

> <CYS145-warhead dist mean (A)>
8.487646

> <CYS145-warhead dist stddev (A)>
0.43240616

$$$$
x2843
  -OEChem-05172015543D

 35 38  0     1  0  0  0  0  0999 V2000
    7.0904   -0.2345   18.9189 C   0  0  0  0  0  0  0  0  0  0  0  0
    5.5764   -5.6591   25.0386 C   0  0  0  0  0  0  0  0  0  0  0  0
    7.4083   -4.3252   25.8763 C   0  0  0  0  0  0  0  0  0  0  0  0
    7.6264   -0.8553   20.0416 C   0  0  0  0  0  0  0  0  0  0  0  0
    5.7363   -5.0863   23.7769 C   0  0  0  0  0  0  0  0  0  0  0  0
    7.5683   -3.7524   24.6146 C   0  0  0  0  0  0  0  0  0  0  0  0
   11.6281   -0.9064   22.2360 C   0  0  0  0  0  0  0  0  0  0  0  0
   12.9532   -0.5277   22.4512 C   0  0  0  0  0  0  0  0  0  0  0  0
   12.3072    0.5651   24.5068 C   0  0  0  0  0  0  0  0  0  0  0  0
    5.7124   -0.2331   18.7743 C   0  0  0  0  0  0  0  0  0  0  0  0
    5.4158   -1.3914   20.7361 C   0  0  0  0  0  0  0  0  0  0  0  0
    6.4124   -5.2785   26.0883 C   0  0  0  0  0  0  0  0  0  0  0  0
    6.7800   -1.4473   20.9724 C   0  0  0  0  0  0  0  0  0  0  0  0
   10.9820    0.1865   24.2916 C   0  0  0  0  0  0  0  0  0  0  0  0
    6.7322   -4.1330   23.5648 C   0  0  0  0  0  0  0  0  0  0  0  0
   10.6425   -0.5492   23.1562 C   0  0  0  0  0  0  0  0  0  0  0  0
   13.2927    0.2080   23.5865 C   0  0  0  0  0  0  0  0  0  0  0  0
    6.0625   -6.5516   20.4074 C   0  0  0  0  0  0  0  0  0  0  0  0
    6.8194   -5.7186   21.1286 C   0  0  0  0  0  0  0  0  0  0  0  0
    6.5788   -4.2466   21.0766 C   0  0  0  0  0  0  0  0  0  0  0  0
    8.8571   -2.0733   22.2420 C   0  0  0  0  0  0  0  0  0  0  0  0
    4.9059   -5.7093   28.1346 C   0  0  0  0  0  0  0  0  0  0  0  0
    6.1034   -4.9585   28.6268 C   0  0  0  0  0  0  0  0  0  0  0  0
    6.2416   -5.8903   27.4363 C   0  0  0  0  0  0  0  0  0  0  0  0
    9.9475    0.5832   25.2941 C   0  0  0  0  0  0  0  0  0  0  0  0
    6.9707   -7.1890   27.6424 C   0  0  0  0  0  0  0  0  0  0  0  0
   14.8631    1.3278   24.9778 C   0  0  0  0  0  0  0  0  0  0  0  0
    7.3320   -2.1299   22.2045 C   0  0  2  0  0  0  0  0  0  0  0  0
    4.8583   -0.7976   19.6571 N   0  0  0  0  0  0  0  0  0  0  0  0
    9.3035   -0.9411   22.9190 N   0  0  0  0  0  0  0  0  0  0  0  0
    6.8988   -3.5363   22.2509 N   0  0  0  0  0  0  0  0  0  0  0  0
    6.1182   -3.7561   20.0454 O   0  0  0  0  0  0  0  0  0  0  0  0
    9.5476   -2.9404   21.7133 O   0  0  0  0  0  0  0  0  0  0  0  0
   14.5860    0.5769   23.7967 O   0  0  0  0  0  0  0  0  0  0  0  0
    8.5826   -0.3233   23.2859 H   0  0  0  0  0  0  0  0  0  0  0  0
  1  4  2  0  0  0  0
  1 10  1  0  0  0  0
  2  5  2  0  0  0  0
  2 12  1  0  0  0  0
  3  6  1  0  0  0  0
  3 12  2  0  0  0  0
  4 13  1  0  0  0  0
  5 15  1  0  0  0  0
  6 15  2  0  0  0  0
  7  8  2  0  0  0  0
  7 16  1  0  0  0  0
  8 17  1  0  0  0  0
  9 14  1  0  0  0  0
  9 17  2  0  0  0  0
 10 29  2  0  0  0  0
 11 13  2  0  0  0  0
 11 29  1  0  0  0  0
 12 24  1  0  0  0  0
 13 28  1  0  0  0  0
 14 16  2  0  0  0  0
 14 25  1  0  0  0  0
 15 31  1  0  0  0  0
 16 30  1  0  0  0  0
 17 34  1  0  0  0  0
 18 19  2  0  0  0  0
 19 20  1  0  0  0  0
 20 31  1  0  0  0  0
 20 32  2  0  0  0  0
 21 28  1  0  0  0  0
 21 30  1  0  0  0  0
 21 33  2  0  0  0  0
 22 23  1  0  0  0  0
 22 24  1  0  0  0  0
 23 24  1  0  0  0  0
 24 26  1  0  0  0  0
 27 34  1  0  0  0  0
 28 31  1  0  0  0  0
 30 35  1  0  0  0  0
M  END
> <ref_mols>
x2843_0

> <original SMILES>
COC=1C=CC(NC(=O)C(N(C(=O)C=C)C=2C=CC(=CC2)C3(C)CC3)C=4C=CC=NC4)=C(C)C1

> <Chemgauss4>
-3.195148

> <ref_pdb>
x0759_0

$$$$
x2633
  -OEChem-05172015543D

 34 36  0     1  0  0  0  0  0999 V2000
    4.2015   -4.5545   23.0859 C   0  0  0  0  0  0  0  0  0  0  0  0
    5.3237   -3.8963   22.5952 C   0  0  0  0  0  0  0  0  0  0  0  0
    9.3078   -0.5372   23.7972 C   0  0  0  0  0  0  0  0  0  0  0  0
   10.4106    0.2935   23.9950 C   0  0  0  0  0  0  0  0  0  0  0  0
    6.2925    0.7451   19.0868 C   0  0  0  0  0  0  0  0  0  0  0  0
    6.2784   -1.5868   18.4551 C   0  0  0  0  0  0  0  0  0  0  0  0
    6.1351    1.1084   17.7494 C   0  0  0  0  0  0  0  0  0  0  0  0
    6.1209   -1.2235   17.1176 C   0  0  0  0  0  0  0  0  0  0  0  0
   10.7847   -2.4234   23.4841 C   0  0  0  0  0  0  0  0  0  0  0  0
    3.6940   -4.1474   24.3092 C   0  0  0  0  0  0  0  0  0  0  0  0
    5.3126   -2.5340   24.5447 C   0  0  0  0  0  0  0  0  0  0  0  0
    5.8960   -2.8656   23.3325 C   0  0  0  0  0  0  0  0  0  0  0  0
   11.8876   -1.5926   23.6819 C   0  0  0  0  0  0  0  0  0  0  0  0
    6.3642   -0.6026   19.4397 C   0  0  0  0  0  0  0  0  0  0  0  0
    9.4948   -1.8958   23.5418 C   0  0  0  0  0  0  0  0  0  0  0  0
   11.7005   -0.2341   23.9373 C   0  0  0  0  0  0  0  0  0  0  0  0
    6.0492    0.1241   16.7647 C   0  0  0  0  0  0  0  0  0  0  0  0
    9.8989   -5.6923   24.8120 C   0  0  0  0  0  0  0  0  0  0  0  0
    9.3300   -4.4830   24.7815 C   0  0  0  0  0  0  0  0  0  0  0  0
    8.3814   -4.1245   23.6865 C   0  0  0  0  0  0  0  0  0  0  0  0
    7.1625   -2.1018   21.3001 C   0  0  0  0  0  0  0  0  0  0  0  0
   13.2582   -2.1839   23.6136 C   0  0  0  0  0  0  0  0  0  0  0  0
   13.3359    0.8288   25.4722 C   0  0  0  0  0  0  0  0  0  0  0  0
   13.4287    1.2914   23.0174 C   0  0  0  0  0  0  0  0  0  0  0  0
    5.8298    1.8739   15.1692 C   0  0  0  0  0  0  0  0  0  0  0  0
    7.1167   -2.1297   22.8258 C   0  0  2  0  0  0  0  0  0  0  0  0
    4.2225   -3.1506   25.0539 N   0  0  0  0  0  0  0  0  0  0  0  0
    6.5239   -0.9713   20.7966 N   0  0  0  0  0  0  0  0  0  0  0  0
    8.3458   -2.7602   23.3352 N   0  0  0  0  0  0  0  0  0  0  0  0
   12.8052    0.6218   24.1405 N   0  0  0  0  0  0  0  0  0  0  0  0
    7.6983   -5.0136   23.1776 O   0  0  0  0  0  0  0  0  0  0  0  0
    7.6989   -2.9985   20.6547 O   0  0  0  0  0  0  0  0  0  0  0  0
    5.8956    0.4785   15.4596 O   0  0  0  0  0  0  0  0  0  0  0  0
    6.1256   -0.3360   21.4849 H   0  0  0  0  0  0  0  0  0  0  0  0
  1  2  2  0  0  0  0
  1 10  1  0  0  0  0
  2 12  1  0  0  0  0
  3  4  2  0  0  0  0
  3 15  1  0  0  0  0
  4 16  1  0  0  0  0
  5  7  2  0  0  0  0
  5 14  1  0  0  0  0
  6  8  1  0  0  0  0
  6 14  2  0  0  0  0
  7 17  1  0  0  0  0
  8 17  2  0  0  0  0
  9 13  1  0  0  0  0
  9 15  2  0  0  0  0
 10 27  2  0  0  0  0
 11 12  2  0  0  0  0
 11 27  1  0  0  0  0
 12 26  1  0  0  0  0
 13 16  2  0  0  0  0
 13 22  1  0  0  0  0
 14 28  1  0  0  0  0
 15 29  1  0  0  0  0
 16 30  1  0  0  0  0
 17 33  1  0  0  0  0
 18 19  2  0  0  0  0
 19 20  1  0  0  0  0
 20 29  1  0  0  0  0
 20 31  2  0  0  0  0
 21 26  1  0  0  0  0
 21 28  1  0  0  0  0
 21 32  2  0  0  0  0
 23 30  1  0  0  0  0
 24 30  1  0  0  0  0
 25 33  1  0  0  0  0
 26 29  1  0  0  0  0
 28 34  1  0  0  0  0
M  END
> <ref_mols>
x2633_0

> <original SMILES>
COC=1C=CC(NC(=O)C(N(C(=O)C=C)C=2C=CC(N(C)C)=C(C)C2)C=3C=CC=NC3)=CC1

> <Chemgauss4>
-3.120221

> <ref_pdb>
x1418_0

$$$$
x2780
  -OEChem-05172015543D

 34 36  0     1  0  0  0  0  0999 V2000
    4.2015   -4.5545   23.0859 C   0  0  0  0  0  0  0  0  0  0  0  0
    5.3237   -3.8963   22.5952 C   0  0  0  0  0  0  0  0  0  0  0  0
    9.3078   -0.5372   23.7972 C   0  0  0  0  0  0  0  0  0  0  0  0
   10.4106    0.2935   23.9950 C   0  0  0  0  0  0  0  0  0  0  0  0
    6.2925    0.7451   19.0868 C   0  0  0  0  0  0  0  0  0  0  0  0
    6.2784   -1.5868   18.4551 C   0  0  0  0  0  0  0  0  0  0  0  0
    6.1351    1.1084   17.7494 C   0  0  0  0  0  0  0  0  0  0  0  0
    6.1209   -1.2235   17.1176 C   0  0  0  0  0  0  0  0  0  0  0  0
   10.7847   -2.4234   23.4841 C   0  0  0  0  0  0  0  0  0  0  0  0
    3.6940   -4.1474   24.3092 C   0  0  0  0  0  0  0  0  0  0  0  0
    5.3126   -2.5340   24.5447 C   0  0  0  0  0  0  0  0  0  0  0  0
    5.8960   -2.8656   23.3325 C   0  0  0  0  0  0  0  0  0  0  0  0
   11.8876   -1.5926   23.6819 C   0  0  0  0  0  0  0  0  0  0  0  0
    6.3642   -0.6026   19.4397 C   0  0  0  0  0  0  0  0  0  0  0  0
    9.4948   -1.8958   23.5418 C   0  0  0  0  0  0  0  0  0  0  0  0
   11.7005   -0.2341   23.9373 C   0  0  0  0  0  0  0  0  0  0  0  0
    6.0492    0.1241   16.7647 C   0  0  0  0  0  0  0  0  0  0  0  0
    9.8989   -5.6923   24.8120 C   0  0  0  0  0  0  0  0  0  0  0  0
    9.3300   -4.4830   24.7815 C   0  0  0  0  0  0  0  0  0  0  0  0
    8.3814   -4.1245   23.6865 C   0  0  0  0  0  0  0  0  0  0  0  0
    7.1625   -2.1018   21.3001 C   0  0  0  0  0  0  0  0  0  0  0  0
   13.2582   -2.1839   23.6136 C   0  0  0  0  0  0  0  0  0  0  0  0
   13.3359    0.8288   25.4722 C   0  0  0  0  0  0  0  0  0  0  0  0
   13.4287    1.2914   23.0174 C   0  0  0  0  0  0  0  0  0  0  0  0
    5.8298    1.8739   15.1692 C   0  0  0  0  0  0  0  0  0  0  0  0
    7.1167   -2.1297   22.8258 C   0  0  2  0  0  0  0  0  0  0  0  0
    4.2225   -3.1506   25.0539 N   0  0  0  0  0  0  0  0  0  0  0  0
    6.5239   -0.9713   20.7966 N   0  0  0  0  0  0  0  0  0  0  0  0
    8.3458   -2.7602   23.3352 N   0  0  0  0  0  0  0  0  0  0  0  0
   12.8052    0.6218   24.1405 N   0  0  0  0  0  0  0  0  0  0  0  0
    7.6983   -5.0136   23.1776 O   0  0  0  0  0  0  0  0  0  0  0  0
    7.6989   -2.9985   20.6547 O   0  0  0  0  0  0  0  0  0  0  0  0
    5.8956    0.4785   15.4596 O   0  0  0  0  0  0  0  0  0  0  0  0
    6.1256   -0.3360   21.4849 H   0  0  0  0  0  0  0  0  0  0  0  0
  1  2  2  0  0  0  0
  1 10  1  0  0  0  0
  2 12  1  0  0  0  0
  3  4  2  0  0  0  0
  3 15  1  0  0  0  0
  4 16  1  0  0  0  0
  5  7  2  0  0  0  0
  5 14  1  0  0  0  0
  6  8  1  0  0  0  0
  6 14  2  0  0  0  0
  7 17  1  0  0  0  0
  8 17  2  0  0  0  0
  9 13  1  0  0  0  0
  9 15  2  0  0  0  0
 10 27  2  0  0  0  0
 11 12  2  0  0  0  0
 11 27  1  0  0  0  0
 12 26  1  0  0  0  0
 13 16  2  0  0  0  0
 13 22  1  0  0  0  0
 14 28  1  0  0  0  0
 15 29  1  0  0  0  0
 16 30  1  0  0  0  0
 17 33  1  0  0  0  0
 18 19  2  0  0  0  0
 19 20  1  0  0  0  0
 20 29  1  0  0  0  0
 20 31  2  0  0  0  0
 21 26  1  0  0  0  0
 21 28  1  0  0  0  0
 21 32  2  0  0  0  0
 23 30  1  0  0  0  0
 24 30  1  0  0  0  0
 25 33  1  0  0  0  0
 26 29  1  0  0  0  0
 28 34  1  0  0  0  0
M  END
> <ref_mols>
x2780_0

> <original SMILES>
COC=1C=CC(NC(=O)C(N(C(=O)C=C)C=2C=CC(N(C)C)=C(C)C2)C=3C=CC=NC3)=CC1

> <Chemgauss4>
-3.120221

> <ref_pdb>
x1418_0

> <CYS145-warhead dist minimum (A)>
8.325745

> <CYS145-warhead dist mean (A)>
8.959386

> <CYS145-warhead dist stddev (A)>
0.29724586

$$$$
x2851
  -OEChem-05172015543D

 34 37  0     1  0  0  0  0  0999 V2000
    8.7246   -1.6041   19.7088 C   0  0  0  0  0  0  0  0  0  0  0  0
    5.2696   -5.8265   25.7597 C   0  0  0  0  0  0  0  0  0  0  0  0
    7.0697   -4.7250   26.9360 C   0  0  0  0  0  0  0  0  0  0  0  0
    8.9044   -2.2390   20.9327 C   0  0  0  0  0  0  0  0  0  0  0  0
    5.7790   -5.3635   24.5466 C   0  0  0  0  0  0  0  0  0  0  0  0
    7.5791   -4.2620   25.7229 C   0  0  0  0  0  0  0  0  0  0  0  0
   11.6489   -0.4759   25.5824 C   0  0  0  0  0  0  0  0  0  0  0  0
   12.3428   -2.6023   24.6691 C   0  0  0  0  0  0  0  0  0  0  0  0
   12.9336   -0.2731   26.0862 C   0  0  0  0  0  0  0  0  0  0  0  0
   13.6276   -2.3994   25.1728 C   0  0  0  0  0  0  0  0  0  0  0  0
    7.5776   -0.8469   19.5334 C   0  0  0  0  0  0  0  0  0  0  0  0
    6.8333   -1.3196   21.6548 C   0  0  0  0  0  0  0  0  0  0  0  0
    5.9149   -5.5073   26.9545 C   0  0  0  0  0  0  0  0  0  0  0  0
    7.9453   -2.0992   21.9296 C   0  0  0  0  0  0  0  0  0  0  0  0
   11.3534   -1.6406   24.8739 C   0  0  0  0  0  0  0  0  0  0  0  0
    6.9338   -4.5812   24.5281 C   0  0  0  0  0  0  0  0  0  0  0  0
   13.9230   -1.2348   25.8814 C   0  0  0  0  0  0  0  0  0  0  0  0
    6.5739   -7.0689   21.3738 C   0  0  0  0  0  0  0  0  0  0  0  0
    7.2828   -6.3121   22.2175 C   0  0  0  0  0  0  0  0  0  0  0  0
    7.2917   -4.8269   22.0706 C   0  0  0  0  0  0  0  0  0  0  0  0
    9.5847   -2.9414   23.6388 C   0  0  0  0  0  0  0  0  0  0  0  0
    3.9630   -5.5840   28.6358 C   0  0  0  0  0  0  0  0  0  0  0  0
    5.1325   -4.9870   29.3542 C   0  0  0  0  0  0  0  0  0  0  0  0
    5.3707   -6.0018   28.2505 C   0  0  0  0  0  0  0  0  0  0  0  0
    5.8279   -7.3776   28.6488 C   0  0  0  0  0  0  0  0  0  0  0  0
   16.1396   -2.0607   26.1272 C   0  0  0  0  0  0  0  0  0  0  0  0
    8.1120   -2.7766   23.2720 C   0  0  2  0  0  0  0  0  0  0  0  0
    6.6239   -0.6877   20.4782 N   0  0  0  0  0  0  0  0  0  0  0  0
   10.0500   -1.8465   24.3627 N   0  0  0  0  0  0  0  0  0  0  0  0
    7.4643   -4.0989   23.2648 N   0  0  0  0  0  0  0  0  0  0  0  0
    7.1409   -4.3399   20.9498 O   0  0  0  0  0  0  0  0  0  0  0  0
   10.2268   -3.9316   23.2990 O   0  0  0  0  0  0  0  0  0  0  0  0
   15.1767   -1.0369   26.3730 O   0  0  0  0  0  0  0  0  0  0  0  0
    9.3736   -1.1082   24.5455 H   0  0  0  0  0  0  0  0  0  0  0  0
  1  4  2  0  0  0  0
  1 11  1  0  0  0  0
  2  5  2  0  0  0  0
  2 13  1  0  0  0  0
  3  6  1  0  0  0  0
  3 13  2  0  0  0  0
  4 14  1  0  0  0  0
  5 16  1  0  0  0  0
  6 16  2  0  0  0  0
  7  9  2  0  0  0  0
  7 15  1  0  0  0  0
  8 10  1  0  0  0  0
  8 15  2  0  0  0  0
  9 17  1  0  0  0  0
 10 17  2  0  0  0  0
 11 28  2  0  0  0  0
 12 14  2  0  0  0  0
 12 28  1  0  0  0  0
 13 24  1  0  0  0  0
 14 27  1  0  0  0  0
 15 29  1  0  0  0  0
 16 30  1  0  0  0  0
 17 33  1  0  0  0  0
 18 19  2  0  0  0  0
 19 20  1  0  0  0  0
 20 30  1  0  0  0  0
 20 31  2  0  0  0  0
 21 27  1  0  0  0  0
 21 29  1  0  0  0  0
 21 32  2  0  0  0  0
 22 23  1  0  0  0  0
 22 24  1  0  0  0  0
 23 24  1  0  0  0  0
 24 25  1  0  0  0  0
 26 33  1  0  0  0  0
 27 30  1  0  0  0  0
 29 34  1  0  0  0  0
M  END
> <ref_mols>
x2851_0

> <original SMILES>
COC=1C=CC(NC(=O)C(N(C(=O)C=C)C=2C=CC(=CC2)C3(C)CC3)C=4C=CC=NC4)=CC1

> <Chemgauss4>
-2.965664

> <ref_pdb>
x0749_0

$$$$
x2868
  -OEChem-05172015543D

 35 37  0     1  0  0  0  0  0999 V2000
    5.3363   -2.4071   18.3526 C   0  0  0  0  0  0  0  0  0  0  0  0
    9.5142   -2.6491   25.9503 C   0  0  0  0  0  0  0  0  0  0  0  0
    5.7137   -3.3260   19.3317 C   0  0  0  0  0  0  0  0  0  0  0  0
    5.7407   -1.0759   18.4524 C   0  0  0  0  0  0  0  0  0  0  0  0
    9.4170   -1.4841   25.1976 C   0  0  0  0  0  0  0  0  0  0  0  0
   10.2407    3.4645   24.8199 C   0  0  0  0  0  0  0  0  0  0  0  0
   12.0723    3.8272   23.2868 C   0  0  0  0  0  0  0  0  0  0  0  0
   10.1032    2.1595   24.3470 C   0  0  0  0  0  0  0  0  0  0  0  0
   11.9349    2.5221   22.8139 C   0  0  0  0  0  0  0  0  0  0  0  0
    9.7701   -3.8347   25.2804 C   0  0  0  0  0  0  0  0  0  0  0  0
    9.8296   -2.7746   23.2430 C   0  0  0  0  0  0  0  0  0  0  0  0
   11.2252    4.2984   24.2897 C   0  0  0  0  0  0  0  0  0  0  0  0
    9.5763   -1.5395   23.8174 C   0  0  0  0  0  0  0  0  0  0  0  0
    6.4956   -2.9137   20.4107 C   0  0  0  0  0  0  0  0  0  0  0  0
    6.5226   -0.6636   19.5315 C   0  0  0  0  0  0  0  0  0  0  0  0
   10.9503    1.6883   23.3440 C   0  0  0  0  0  0  0  0  0  0  0  0
    6.9000   -1.5825   20.5107 C   0  0  0  0  0  0  0  0  0  0  0  0
   14.3530   -0.2689   22.1153 C   0  0  0  0  0  0  0  0  0  0  0  0
   13.2753   -0.0804   22.8834 C   0  0  0  0  0  0  0  0  0  0  0  0
   11.9133   -0.3928   22.3594 C   0  0  0  0  0  0  0  0  0  0  0  0
    8.9666   -0.6022   21.5663 C   0  0  0  0  0  0  0  0  0  0  0  0
    6.8840   -3.9215   21.4438 C   0  0  0  0  0  0  0  0  0  0  0  0
    6.1172    1.5560   20.6250 C   0  0  0  0  0  0  0  0  0  0  0  0
   11.6883    5.7114   26.3231 C   0  0  0  0  0  0  0  0  0  0  0  0
   10.0640    6.5157   24.5764 C   0  0  0  0  0  0  0  0  0  0  0  0
   12.5089    6.5346   24.1253 C   0  0  0  0  0  0  0  0  0  0  0  0
    6.9402    0.7692   19.6100 C   0  0  0  0  0  0  0  0  0  0  0  0
    9.4770   -0.2898   22.9707 C   0  0  2  0  0  0  0  0  0  0  0  0
   11.3766    5.7370   24.8111 C   0  0  0  0  0  0  0  0  0  0  0  0
    9.9308   -3.9278   23.9413 N   0  0  0  0  0  0  0  0  0  0  0  0
    7.6929   -1.1640   21.6055 N   0  0  0  0  0  0  0  0  0  0  0  0
   10.8133    0.3830   22.8710 N   0  0  0  0  0  0  0  0  0  0  0  0
   11.7858   -1.3060   21.5433 O   0  0  0  0  0  0  0  0  0  0  0  0
    9.6453   -0.3748   20.5683 O   0  0  0  0  0  0  0  0  0  0  0  0
    7.2847   -1.2880   22.5296 H   0  0  0  0  0  0  0  0  0  0  0  0
  1  3  1  0  0  0  0
  1  4  2  0  0  0  0
  2  5  2  0  0  0  0
  2 10  1  0  0  0  0
  3 14  2  0  0  0  0
  4 15  1  0  0  0  0
  5 13  1  0  0  0  0
  6  8  2  0  0  0  0
  6 12  1  0  0  0  0
  7  9  1  0  0  0  0
  7 12  2  0  0  0  0
  8 16  1  0  0  0  0
  9 16  2  0  0  0  0
 10 30  2  0  0  0  0
 11 13  2  0  0  0  0
 11 30  1  0  0  0  0
 12 29  1  0  0  0  0
 13 28  1  0  0  0  0
 14 17  1  0  0  0  0
 14 22  1  0  0  0  0
 15 17  2  0  0  0  0
 15 27  1  0  0  0  0
 16 32  1  0  0  0  0
 17 31  1  0  0  0  0
 18 19  2  0  0  0  0
 19 20  1  0  0  0  0
 20 32  1  0  0  0  0
 20 33  2  0  0  0  0
 21 28  1  0  0  0  0
 21 31  1  0  0  0  0
 21 34  2  0  0  0  0
 23 27  1  0  0  0  0
 24 29  1  0  0  0  0
 25 29  1  0  0  0  0
 26 29  1  0  0  0  0
 28 32  1  0  0  0  0
 31 35  1  0  0  0  0
M  END
> <ref_mols>
x2868_0

> <original SMILES>
CCC=1C=CC=C(C)C1NC(=O)C(N(C(=O)C=C)C=2C=CC(=CC2)C(C)(C)C)C=3C=CC=NC3

> <Chemgauss4>
-2.927537

> <ref_pdb>
x0692_0

> <CYS145-warhead dist minimum (A)>
12.293979

> <CYS145-warhead dist mean (A)>
13.315451

> <CYS145-warhead dist stddev (A)>
0.6277186

$$$$
x2469
  -OEChem-05172015543D

 34 36  0     1  0  0  0  0  0999 V2000
    7.0828   -1.2731   20.3529 C   0  0  0  0  0  0  0  0  0  0  0  0
    7.7086   -1.7585   21.4957 C   0  0  0  0  0  0  0  0  0  0  0  0
    6.4353   -5.2500   26.9672 C   0  0  0  0  0  0  0  0  0  0  0  0
    5.4497   -6.9988   25.6229 C   0  0  0  0  0  0  0  0  0  0  0  0
    7.1162   -4.7727   25.8473 C   0  0  0  0  0  0  0  0  0  0  0  0
    6.1305   -6.5215   24.5029 C   0  0  0  0  0  0  0  0  0  0  0  0
   11.1868   -1.2133   26.0378 C   0  0  0  0  0  0  0  0  0  0  0  0
   12.1115   -2.2374   24.0546 C   0  0  0  0  0  0  0  0  0  0  0  0
   12.4560   -0.7580   26.3946 C   0  0  0  0  0  0  0  0  0  0  0  0
   13.3808   -1.7820   24.4114 C   0  0  0  0  0  0  0  0  0  0  0  0
    5.9814   -1.9638   19.8736 C   0  0  0  0  0  0  0  0  0  0  0  0
    6.1133   -3.5212   21.5574 C   0  0  0  0  0  0  0  0  0  0  0  0
    5.6021   -6.3631   26.8550 C   0  0  0  0  0  0  0  0  0  0  0  0
    7.2209   -2.9036   22.1155 C   0  0  0  0  0  0  0  0  0  0  0  0
   11.0145   -1.9530   24.8678 C   0  0  0  0  0  0  0  0  0  0  0  0
    6.9637   -5.4085   24.6151 C   0  0  0  0  0  0  0  0  0  0  0  0
   13.5530   -1.0423   25.5814 C   0  0  0  0  0  0  0  0  0  0  0  0
    8.2637   -8.1878   21.9973 C   0  0  0  0  0  0  0  0  0  0  0  0
    8.4488   -7.1564   22.8273 C   0  0  0  0  0  0  0  0  0  0  0  0
    8.0695   -5.7752   22.4081 C   0  0  0  0  0  0  0  0  0  0  0  0
    9.3765   -3.1601   23.3826 C   0  0  0  0  0  0  0  0  0  0  0  0
   14.8962    0.1523   27.1385 C   0  0  0  0  0  0  0  0  0  0  0  0
    7.8791   -3.4564   23.3604 C   0  0  2  0  0  0  0  0  0  0  0  0
    4.8742   -6.8733   28.0526 C   0  0  0  0  0  0  0  0  0  0  0  0
    5.4787   -3.0794   20.4484 N   0  0  0  0  0  0  0  0  0  0  0  0
    9.7269   -2.4150   24.5058 N   0  0  0  0  0  0  0  0  0  0  0  0
    7.6724   -4.9115   23.4485 N   0  0  0  0  0  0  0  0  0  0  0  0
    8.1139   -5.4840   21.2126 O   0  0  0  0  0  0  0  0  0  0  0  0
   10.1236   -3.5469   22.4879 O   0  0  0  0  0  0  0  0  0  0  0  0
   14.7916   -0.5981   25.9295 O   0  0  0  0  0  0  0  0  0  0  0  0
    5.1176   -6.1547   29.1885 F   0  0  0  0  0  0  0  0  0  0  0  0
    3.5157   -6.8659   27.9109 F   0  0  0  0  0  0  0  0  0  0  0  0
    5.2035   -8.1623   28.3575 F   0  0  0  0  0  0  0  0  0  0  0  0
    8.9682   -2.1747   25.1404 H   0  0  0  0  0  0  0  0  0  0  0  0
  1  2  2  0  0  0  0
  1 11  1  0  0  0  0
  2 14  1  0  0  0  0
  3  5  2  0  0  0  0
  3 13  1  0  0  0  0
  4  6  1  0  0  0  0
  4 13  2  0  0  0  0
  5 16  1  0  0  0  0
  6 16  2  0  0  0  0
  7  9  2  0  0  0  0
  7 15  1  0  0  0  0
  8 10  1  0  0  0  0
  8 15  2  0  0  0  0
  9 17  1  0  0  0  0
 10 17  2  0  0  0  0
 11 25  2  0  0  0  0
 12 14  2  0  0  0  0
 12 25  1  0  0  0  0
 13 24  1  0  0  0  0
 14 23  1  0  0  0  0
 15 26  1  0  0  0  0
 16 27  1  0  0  0  0
 17 30  1  0  0  0  0
 18 19  2  0  0  0  0
 19 20  1  0  0  0  0
 20 27  1  0  0  0  0
 20 28  2  0  0  0  0
 21 23  1  0  0  0  0
 21 26  1  0  0  0  0
 21 29  2  0  0  0  0
 22 30  1  0  0  0  0
 23 27  1  0  0  0  0
 24 31  1  0  0  0  0
 24 32  1  0  0  0  0
 24 33  1  0  0  0  0
 26 34  1  0  0  0  0
M  END
> <ref_mols>
x2469_0

> <original SMILES>
COC=1C=CC(NC(=O)C(N(C(=O)C=C)C=2C=CC(=CC2)C(F)(F)F)C=3C=CC=NC3)=CC1

> <Chemgauss4>
-2.920132

> <ref_pdb>
x0749_0

$$$$
x2637
  -OEChem-05172015543D

 34 36  0     1  0  0  0  0  0999 V2000
    7.0828   -1.2731   20.3529 C   0  0  0  0  0  0  0  0  0  0  0  0
    7.7086   -1.7585   21.4957 C   0  0  0  0  0  0  0  0  0  0  0  0
    6.4353   -5.2500   26.9672 C   0  0  0  0  0  0  0  0  0  0  0  0
    5.4497   -6.9988   25.6229 C   0  0  0  0  0  0  0  0  0  0  0  0
    7.1162   -4.7727   25.8473 C   0  0  0  0  0  0  0  0  0  0  0  0
    6.1305   -6.5215   24.5029 C   0  0  0  0  0  0  0  0  0  0  0  0
   11.1868   -1.2133   26.0378 C   0  0  0  0  0  0  0  0  0  0  0  0
   12.1115   -2.2374   24.0546 C   0  0  0  0  0  0  0  0  0  0  0  0
   12.4560   -0.7580   26.3946 C   0  0  0  0  0  0  0  0  0  0  0  0
   13.3808   -1.7820   24.4114 C   0  0  0  0  0  0  0  0  0  0  0  0
    5.9814   -1.9638   19.8736 C   0  0  0  0  0  0  0  0  0  0  0  0
    6.1133   -3.5212   21.5574 C   0  0  0  0  0  0  0  0  0  0  0  0
    5.6021   -6.3631   26.8550 C   0  0  0  0  0  0  0  0  0  0  0  0
    7.2209   -2.9036   22.1155 C   0  0  0  0  0  0  0  0  0  0  0  0
   11.0145   -1.9530   24.8678 C   0  0  0  0  0  0  0  0  0  0  0  0
    6.9637   -5.4085   24.6151 C   0  0  0  0  0  0  0  0  0  0  0  0
   13.5530   -1.0423   25.5814 C   0  0  0  0  0  0  0  0  0  0  0  0
    8.2637   -8.1878   21.9973 C   0  0  0  0  0  0  0  0  0  0  0  0
    8.4488   -7.1564   22.8273 C   0  0  0  0  0  0  0  0  0  0  0  0
    8.0695   -5.7752   22.4081 C   0  0  0  0  0  0  0  0  0  0  0  0
    9.3765   -3.1601   23.3826 C   0  0  0  0  0  0  0  0  0  0  0  0
   14.8962    0.1523   27.1385 C   0  0  0  0  0  0  0  0  0  0  0  0
    7.8791   -3.4564   23.3604 C   0  0  2  0  0  0  0  0  0  0  0  0
    4.8742   -6.8733   28.0526 C   0  0  0  0  0  0  0  0  0  0  0  0
    5.4787   -3.0794   20.4484 N   0  0  0  0  0  0  0  0  0  0  0  0
    9.7269   -2.4150   24.5058 N   0  0  0  0  0  0  0  0  0  0  0  0
    7.6724   -4.9115   23.4485 N   0  0  0  0  0  0  0  0  0  0  0  0
    8.1139   -5.4840   21.2126 O   0  0  0  0  0  0  0  0  0  0  0  0
   10.1236   -3.5469   22.4879 O   0  0  0  0  0  0  0  0  0  0  0  0
   14.7916   -0.5981   25.9295 O   0  0  0  0  0  0  0  0  0  0  0  0
    5.1176   -6.1547   29.1885 F   0  0  0  0  0  0  0  0  0  0  0  0
    3.5157   -6.8659   27.9109 F   0  0  0  0  0  0  0  0  0  0  0  0
    5.2035   -8.1623   28.3575 F   0  0  0  0  0  0  0  0  0  0  0  0
    8.9682   -2.1747   25.1404 H   0  0  0  0  0  0  0  0  0  0  0  0
  1  2  2  0  0  0  0
  1 11  1  0  0  0  0
  2 14  1  0  0  0  0
  3  5  2  0  0  0  0
  3 13  1  0  0  0  0
  4  6  1  0  0  0  0
  4 13  2  0  0  0  0
  5 16  1  0  0  0  0
  6 16  2  0  0  0  0
  7  9  2  0  0  0  0
  7 15  1  0  0  0  0
  8 10  1  0  0  0  0
  8 15  2  0  0  0  0
  9 17  1  0  0  0  0
 10 17  2  0  0  0  0
 11 25  2  0  0  0  0
 12 14  2  0  0  0  0
 12 25  1  0  0  0  0
 13 24  1  0  0  0  0
 14 23  1  0  0  0  0
 15 26  1  0  0  0  0
 16 27  1  0  0  0  0
 17 30  1  0  0  0  0
 18 19  2  0  0  0  0
 19 20  1  0  0  0  0
 20 27  1  0  0  0  0
 20 28  2  0  0  0  0
 21 23  1  0  0  0  0
 21 26  1  0  0  0  0
 21 29  2  0  0  0  0
 22 30  1  0  0  0  0
 23 27  1  0  0  0  0
 24 31  1  0  0  0  0
 24 32  1  0  0  0  0
 24 33  1  0  0  0  0
 26 34  1  0  0  0  0
M  END
> <ref_mols>
x2637_0

> <original SMILES>
COC=1C=CC(NC(=O)C(N(C(=O)C=C)C=2C=CC(=CC2)C(F)(F)F)C=3C=CC=NC3)=CC1

> <Chemgauss4>
-2.920132

> <ref_pdb>
x0749_0

$$$$
x2546
  -OEChem-05172015543D

 35 37  0     1  0  0  0  0  0999 V2000
    7.3064   -0.3214   19.1110 C   0  0  0  0  0  0  0  0  0  0  0  0
    7.8563   -0.8193   20.2871 C   0  0  0  0  0  0  0  0  0  0  0  0
    6.0683   -4.7240   24.4073 C   0  0  0  0  0  0  0  0  0  0  0  0
    5.9202   -5.1787   25.7176 C   0  0  0  0  0  0  0  0  0  0  0  0
   11.8549   -0.5609   22.4725 C   0  0  0  0  0  0  0  0  0  0  0  0
   13.1697   -0.1301   22.6495 C   0  0  0  0  0  0  0  0  0  0  0  0
    7.8642   -3.2708   25.1146 C   0  0  0  0  0  0  0  0  0  0  0  0
   12.4932    1.1358   24.5930 C   0  0  0  0  0  0  0  0  0  0  0  0
    5.9290   -0.3686   18.9683 C   0  0  0  0  0  0  0  0  0  0  0  0
    5.6590   -1.3430   21.0313 C   0  0  0  0  0  0  0  0  0  0  0  0
    7.0238   -1.3417   21.2706 C   0  0  0  0  0  0  0  0  0  0  0  0
    7.7160   -3.7255   26.4249 C   0  0  0  0  0  0  0  0  0  0  0  0
   11.1784    0.7051   24.4159 C   0  0  0  0  0  0  0  0  0  0  0  0
    7.0403   -3.7701   24.1058 C   0  0  0  0  0  0  0  0  0  0  0  0
    6.7440   -4.6795   26.7264 C   0  0  0  0  0  0  0  0  0  0  0  0
   10.8592   -0.1432   23.3557 C   0  0  0  0  0  0  0  0  0  0  0  0
   13.4889    0.7182   23.7098 C   0  0  0  0  0  0  0  0  0  0  0  0
    6.4365   -6.4931   21.1923 C   0  0  0  0  0  0  0  0  0  0  0  0
    7.1711   -5.5766   21.8307 C   0  0  0  0  0  0  0  0  0  0  0  0
    6.8934   -4.1228   21.6396 C   0  0  0  0  0  0  0  0  0  0  0  0
    9.1143   -1.7918   22.5917 C   0  0  0  0  0  0  0  0  0  0  0  0
    8.6111   -3.1731   27.4862 C   0  0  0  0  0  0  0  0  0  0  0  0
   10.1327    1.1687   25.3774 C   0  0  0  0  0  0  0  0  0  0  0  0
    7.3206   -6.3077   28.5087 C   0  0  0  0  0  0  0  0  0  0  0  0
    5.6798   -4.4766   28.9595 C   0  0  0  0  0  0  0  0  0  0  0  0
   15.0284    2.0042   24.9872 C   0  0  0  0  0  0  0  0  0  0  0  0
    7.5911   -1.8903   22.5612 C   0  0  2  0  0  0  0  0  0  0  0  0
    5.0882   -0.8684   19.9015 N   0  0  0  0  0  0  0  0  0  0  0  0
    9.5310   -0.5896   23.1579 N   0  0  0  0  0  0  0  0  0  0  0  0
    7.1936   -3.2965   22.7411 N   0  0  0  0  0  0  0  0  0  0  0  0
    6.5800   -5.1516   28.0472 N   0  0  0  0  0  0  0  0  0  0  0  0
    6.4220   -3.7439   20.5671 O   0  0  0  0  0  0  0  0  0  0  0  0
    9.8273   -2.6873   22.1469 O   0  0  0  0  0  0  0  0  0  0  0  0
   14.7721    1.1380   23.8828 O   0  0  0  0  0  0  0  0  0  0  0  0
    8.7941    0.0417   23.4654 H   0  0  0  0  0  0  0  0  0  0  0  0
  1  2  2  0  0  0  0
  1  9  1  0  0  0  0
  2 11  1  0  0  0  0
  3  4  2  0  0  0  0
  3 14  1  0  0  0  0
  4 15  1  0  0  0  0
  5  6  2  0  0  0  0
  5 16  1  0  0  0  0
  6 17  1  0  0  0  0
  7 12  1  0  0  0  0
  7 14  2  0  0  0  0
  8 13  1  0  0  0  0
  8 17  2  0  0  0  0
  9 28  2  0  0  0  0
 10 11  2  0  0  0  0
 10 28  1  0  0  0  0
 11 27  1  0  0  0  0
 12 15  2  0  0  0  0
 12 22  1  0  0  0  0
 13 16  2  0  0  0  0
 13 23  1  0  0  0  0
 14 30  1  0  0  0  0
 15 31  1  0  0  0  0
 16 29  1  0  0  0  0
 17 34  1  0  0  0  0
 18 19  2  0  0  0  0
 19 20  1  0  0  0  0
 20 30  1  0  0  0  0
 20 32  2  0  0  0  0
 21 27  1  0  0  0  0
 21 29  1  0  0  0  0
 21 33  2  0  0  0  0
 24 31  1  0  0  0  0
 25 31  1  0  0  0  0
 26 34  1  0  0  0  0
 27 30  1  0  0  0  0
 29 35  1  0  0  0  0
M  END
> <ref_mols>
x2546_0

> <original SMILES>
COC=1C=CC(NC(=O)C(N(C(=O)C=C)C=2C=CC(N(C)C)=C(C)C2)C=3C=CC=NC3)=C(C)C1

> <Chemgauss4>
-2.911081

> <ref_pdb>
x1392_0

$$$$
x2714
  -OEChem-05172015543D

 35 37  0     1  0  0  0  0  0999 V2000
    7.3064   -0.3214   19.1110 C   0  0  0  0  0  0  0  0  0  0  0  0
    7.8563   -0.8193   20.2871 C   0  0  0  0  0  0  0  0  0  0  0  0
    6.0683   -4.7240   24.4073 C   0  0  0  0  0  0  0  0  0  0  0  0
    5.9202   -5.1787   25.7176 C   0  0  0  0  0  0  0  0  0  0  0  0
   11.8549   -0.5609   22.4725 C   0  0  0  0  0  0  0  0  0  0  0  0
   13.1697   -0.1301   22.6495 C   0  0  0  0  0  0  0  0  0  0  0  0
    7.8642   -3.2708   25.1146 C   0  0  0  0  0  0  0  0  0  0  0  0
   12.4932    1.1358   24.5930 C   0  0  0  0  0  0  0  0  0  0  0  0
    5.9290   -0.3686   18.9683 C   0  0  0  0  0  0  0  0  0  0  0  0
    5.6590   -1.3430   21.0313 C   0  0  0  0  0  0  0  0  0  0  0  0
    7.0238   -1.3417   21.2706 C   0  0  0  0  0  0  0  0  0  0  0  0
    7.7160   -3.7255   26.4249 C   0  0  0  0  0  0  0  0  0  0  0  0
   11.1784    0.7051   24.4159 C   0  0  0  0  0  0  0  0  0  0  0  0
    7.0403   -3.7701   24.1058 C   0  0  0  0  0  0  0  0  0  0  0  0
    6.7440   -4.6795   26.7264 C   0  0  0  0  0  0  0  0  0  0  0  0
   10.8592   -0.1432   23.3557 C   0  0  0  0  0  0  0  0  0  0  0  0
   13.4889    0.7182   23.7098 C   0  0  0  0  0  0  0  0  0  0  0  0
    6.4365   -6.4931   21.1923 C   0  0  0  0  0  0  0  0  0  0  0  0
    7.1711   -5.5766   21.8307 C   0  0  0  0  0  0  0  0  0  0  0  0
    6.8934   -4.1228   21.6396 C   0  0  0  0  0  0  0  0  0  0  0  0
    9.1143   -1.7918   22.5917 C   0  0  0  0  0  0  0  0  0  0  0  0
    8.6111   -3.1731   27.4862 C   0  0  0  0  0  0  0  0  0  0  0  0
   10.1327    1.1687   25.3774 C   0  0  0  0  0  0  0  0  0  0  0  0
    7.3206   -6.3077   28.5087 C   0  0  0  0  0  0  0  0  0  0  0  0
    5.6798   -4.4766   28.9595 C   0  0  0  0  0  0  0  0  0  0  0  0
   15.0284    2.0042   24.9872 C   0  0  0  0  0  0  0  0  0  0  0  0
    7.5911   -1.8903   22.5612 C   0  0  2  0  0  0  0  0  0  0  0  0
    5.0882   -0.8684   19.9015 N   0  0  0  0  0  0  0  0  0  0  0  0
    9.5310   -0.5896   23.1579 N   0  0  0  0  0  0  0  0  0  0  0  0
    7.1936   -3.2965   22.7411 N   0  0  0  0  0  0  0  0  0  0  0  0
    6.5800   -5.1516   28.0472 N   0  0  0  0  0  0  0  0  0  0  0  0
    6.4220   -3.7439   20.5671 O   0  0  0  0  0  0  0  0  0  0  0  0
    9.8273   -2.6873   22.1469 O   0  0  0  0  0  0  0  0  0  0  0  0
   14.7721    1.1380   23.8828 O   0  0  0  0  0  0  0  0  0  0  0  0
    8.7941    0.0417   23.4654 H   0  0  0  0  0  0  0  0  0  0  0  0
  1  2  2  0  0  0  0
  1  9  1  0  0  0  0
  2 11  1  0  0  0  0
  3  4  2  0  0  0  0
  3 14  1  0  0  0  0
  4 15  1  0  0  0  0
  5  6  2  0  0  0  0
  5 16  1  0  0  0  0
  6 17  1  0  0  0  0
  7 12  1  0  0  0  0
  7 14  2  0  0  0  0
  8 13  1  0  0  0  0
  8 17  2  0  0  0  0
  9 28  2  0  0  0  0
 10 11  2  0  0  0  0
 10 28  1  0  0  0  0
 11 27  1  0  0  0  0
 12 15  2  0  0  0  0
 12 22  1  0  0  0  0
 13 16  2  0  0  0  0
 13 23  1  0  0  0  0
 14 30  1  0  0  0  0
 15 31  1  0  0  0  0
 16 29  1  0  0  0  0
 17 34  1  0  0  0  0
 18 19  2  0  0  0  0
 19 20  1  0  0  0  0
 20 30  1  0  0  0  0
 20 32  2  0  0  0  0
 21 27  1  0  0  0  0
 21 29  1  0  0  0  0
 21 33  2  0  0  0  0
 24 31  1  0  0  0  0
 25 31  1  0  0  0  0
 26 34  1  0  0  0  0
 27 30  1  0  0  0  0
 29 35  1  0  0  0  0
M  END
> <ref_mols>
x2714_0

> <original SMILES>
COC=1C=CC(NC(=O)C(N(C(=O)C=C)C=2C=CC(N(C)C)=C(C)C2)C=3C=CC=NC3)=C(C)C1

> <Chemgauss4>
-2.911081

> <ref_pdb>
x1392_0

> <CYS145-warhead dist minimum (A)>
7.636495

> <CYS145-warhead dist mean (A)>
8.800391

> <CYS145-warhead dist stddev (A)>
0.59018075

$$$$
x2502
  -OEChem-05172015543D

 50 53  0     1  0  0  0  0  0999 V2000
   13.7108   -0.2498   21.7110 C   0  0  0  0  0  0  0  0  0  0  0  0
    4.3394    2.1015   19.1364 C   0  0  0  0  0  0  0  0  0  0  0  0
   12.6661   -1.1571   21.8867 C   0  0  0  0  0  0  0  0  0  0  0  0
   13.8293    0.8504   22.5604 C   0  0  0  0  0  0  0  0  0  0  0  0
    5.1179    3.1234   19.6797 C   0  0  0  0  0  0  0  0  0  0  0  0
    3.8695    1.0731   19.9534 C   0  0  0  0  0  0  0  0  0  0  0  0
    7.9323   -6.9051   24.3700 C   0  0  0  0  0  0  0  0  0  0  0  0
   11.7398   -0.9643   22.9116 C   0  0  0  0  0  0  0  0  0  0  0  0
   12.9031    1.0432   23.5853 C   0  0  0  0  0  0  0  0  0  0  0  0
    5.4266    3.1170   21.0400 C   0  0  0  0  0  0  0  0  0  0  0  0
    4.1782    1.0667   21.3136 C   0  0  0  0  0  0  0  0  0  0  0  0
    7.2308   -6.7764   23.1714 C   0  0  0  0  0  0  0  0  0  0  0  0
    8.5699   -5.7968   24.9275 C   0  0  0  0  0  0  0  0  0  0  0  0
   11.8583    0.1359   23.7610 C   0  0  0  0  0  0  0  0  0  0  0  0
    4.9567    2.0886   21.8570 C   0  0  0  0  0  0  0  0  0  0  0  0
    7.1668   -5.5393   22.5301 C   0  0  0  0  0  0  0  0  0  0  0  0
    8.5060   -4.5597   24.2862 C   0  0  0  0  0  0  0  0  0  0  0  0
    7.8045   -4.4310   23.0875 C   0  0  0  0  0  0  0  0  0  0  0  0
   12.8479    5.2126   23.3831 C   0  0  0  0  0  0  0  0  0  0  0  0
    7.0722   -0.9089   22.6581 C   0  0  0  0  0  0  0  0  0  0  0  0
    9.9331    3.3438   23.2210 C   0  0  0  0  0  0  0  0  0  0  0  0
   12.8546    4.6438   20.5674 C   0  0  0  0  0  0  0  0  0  0  0  0
   13.9483    5.5173   21.1421 C   0  0  0  0  0  0  0  0  0  0  0  0
   11.5455    5.0140   21.2404 C   0  0  0  0  0  0  0  0  0  0  0  0
    6.4106   -5.4218   21.2478 C   0  0  0  0  0  0  0  0  0  0  0  0
    9.1954   -3.3852   24.8989 C   0  0  0  0  0  0  0  0  0  0  0  0
    8.0268    5.6449   23.8490 C   0  0  0  0  0  0  0  0  0  0  0  0
    9.8518    7.2437   23.2164 C   0  0  0  0  0  0  0  0  0  0  0  0
   10.8555    0.3454   24.8709 C   0  0  0  0  0  0  0  0  0  0  0  0
    5.2909    2.0809   23.3307 C   0  0  0  0  0  0  0  0  0  0  0  0
    6.6692   -2.3614   22.7977 C   0  0  0  0  0  0  0  0  0  0  0  0
    8.4663    0.9692   25.4102 C   0  0  0  0  0  0  0  0  0  0  0  0
   10.4074    4.7798   23.4343 C   0  0  2  0  0  0  0  0  0  0  0  0
    9.3263    5.8140   23.0548 C   0  0  0  0  0  0  0  0  0  0  0  0
    9.6442    1.1922   24.4395 C   0  0  1  0  0  0  0  0  0  0  0  0
    6.5961    1.3275   23.6417 C   0  0  1  0  0  0  0  0  0  0  0  0
    7.1897    1.7318   25.0086 C   0  0  1  0  0  0  0  0  0  0  0  0
   13.9650    5.4320   22.5886 N   0  0  0  0  0  0  0  0  0  0  0  0
   11.6510    4.9577   22.6987 N   0  0  0  0  0  0  0  0  0  0  0  0
    6.3978   -0.1045   23.5608 N   0  0  0  0  0  0  0  0  0  0  0  0
   10.0005    2.5934   24.3849 N   0  0  0  0  0  0  0  0  0  0  0  0
   12.9429    5.2340   24.6136 O   0  0  0  0  0  0  0  0  0  0  0  0
    7.8993   -0.5255   21.8354 O   0  0  0  0  0  0  0  0  0  0  0  0
    9.5712    2.9151   22.1271 O   0  0  0  0  0  0  0  0  0  0  0  0
    6.1838    1.5420   26.0065 O   0  0  0  0  0  0  0  0  0  0  0  0
    7.7425   -3.2119   22.4546 O   0  0  0  0  0  0  0  0  0  0  0  0
   14.8600    5.5408   23.0557 H   0  0  0  0  0  0  0  0  0  0  0  0
    5.7346   -0.5381   24.1943 H   0  0  0  0  0  0  0  0  0  0  0  0
   10.3361    3.0250   25.2397 H   0  0  0  0  0  0  0  0  0  0  0  0
    6.5507    1.8908   26.8322 H   0  0  0  0  0  0  0  0  0  0  0  0
  1  3  1  0  0  0  0
  1  4  2  0  0  0  0
  2  5  1  0  0  0  0
  2  6  2  0  0  0  0
  3  8  2  0  0  0  0
  4  9  1  0  0  0  0
  5 10  2  0  0  0  0
  6 11  1  0  0  0  0
  7 12  1  0  0  0  0
  7 13  2  0  0  0  0
  8 14  1  0  0  0  0
  9 14  2  0  0  0  0
 10 15  1  0  0  0  0
 11 15  2  0  0  0  0
 12 16  2  0  0  0  0
 13 17  1  0  0  0  0
 14 29  1  0  0  0  0
 15 30  1  0  0  0  0
 16 18  1  0  0  0  0
 16 25  1  0  0  0  0
 17 18  2  0  0  0  0
 17 26  1  0  0  0  0
 18 46  1  0  0  0  0
 19 38  1  0  0  0  0
 19 39  1  0  0  0  0
 19 42  2  0  0  0  0
 20 31  1  0  0  0  0
 20 40  1  0  0  0  0
 20 43  2  0  0  0  0
 21 33  1  0  0  0  0
 21 41  1  0  0  0  0
 21 44  2  0  0  0  0
 22 23  1  0  0  0  0
 22 24  1  0  0  0  0
 23 38  1  0  0  0  0
 24 39  1  0  0  0  0
 27 34  1  0  0  0  0
 28 34  1  0  0  0  0
 29 35  1  0  0  0  0
 30 36  1  0  0  0  0
 31 46  1  0  0  0  0
 32 35  1  0  0  0  0
 32 37  1  0  0  0  0
 33 34  1  0  0  0  0
 33 39  1  0  0  0  0
 35 41  1  0  0  0  0
 36 37  1  0  0  0  0
 36 40  1  0  0  0  0
 37 45  1  0  0  0  0
 38 47  1  0  0  0  0
 40 48  1  0  0  0  0
 41 49  1  0  0  0  0
 45 50  1  0  0  0  0
M  END
> <ref_mols>
x2502_0

> <original SMILES>
CC(C)[C@H](N1CCCNC1=O)C(=O)N[C@H](C[C@H](O)[C@H](CC=2C=CC=CC2)NC(=O)COC=3C(C)=CC=CC3C)CC=4C=CC=CC4

> <Chemgauss4>
-2.535317

> <ref_pdb>
x0104_0

$$$$
x2670
  -OEChem-05172015543D

 50 53  0     1  0  0  0  0  0999 V2000
   13.7108   -0.2498   21.7110 C   0  0  0  0  0  0  0  0  0  0  0  0
    4.3394    2.1015   19.1364 C   0  0  0  0  0  0  0  0  0  0  0  0
   12.6661   -1.1571   21.8867 C   0  0  0  0  0  0  0  0  0  0  0  0
   13.8293    0.8504   22.5604 C   0  0  0  0  0  0  0  0  0  0  0  0
    5.1179    3.1234   19.6797 C   0  0  0  0  0  0  0  0  0  0  0  0
    3.8695    1.0731   19.9534 C   0  0  0  0  0  0  0  0  0  0  0  0
    7.9323   -6.9051   24.3700 C   0  0  0  0  0  0  0  0  0  0  0  0
   11.7398   -0.9643   22.9116 C   0  0  0  0  0  0  0  0  0  0  0  0
   12.9031    1.0432   23.5853 C   0  0  0  0  0  0  0  0  0  0  0  0
    5.4266    3.1170   21.0400 C   0  0  0  0  0  0  0  0  0  0  0  0
    4.1782    1.0667   21.3136 C   0  0  0  0  0  0  0  0  0  0  0  0
    7.2308   -6.7764   23.1714 C   0  0  0  0  0  0  0  0  0  0  0  0
    8.5699   -5.7968   24.9275 C   0  0  0  0  0  0  0  0  0  0  0  0
   11.8583    0.1359   23.7610 C   0  0  0  0  0  0  0  0  0  0  0  0
    4.9567    2.0886   21.8570 C   0  0  0  0  0  0  0  0  0  0  0  0
    7.1668   -5.5393   22.5301 C   0  0  0  0  0  0  0  0  0  0  0  0
    8.5060   -4.5597   24.2862 C   0  0  0  0  0  0  0  0  0  0  0  0
    7.8045   -4.4310   23.0875 C   0  0  0  0  0  0  0  0  0  0  0  0
   12.8479    5.2126   23.3831 C   0  0  0  0  0  0  0  0  0  0  0  0
    7.0722   -0.9089   22.6581 C   0  0  0  0  0  0  0  0  0  0  0  0
    9.9331    3.3438   23.2210 C   0  0  0  0  0  0  0  0  0  0  0  0
   12.8546    4.6438   20.5674 C   0  0  0  0  0  0  0  0  0  0  0  0
   13.9483    5.5173   21.1421 C   0  0  0  0  0  0  0  0  0  0  0  0
   11.5455    5.0140   21.2404 C   0  0  0  0  0  0  0  0  0  0  0  0
    6.4106   -5.4218   21.2478 C   0  0  0  0  0  0  0  0  0  0  0  0
    9.1954   -3.3852   24.8989 C   0  0  0  0  0  0  0  0  0  0  0  0
    8.0268    5.6449   23.8490 C   0  0  0  0  0  0  0  0  0  0  0  0
    9.8518    7.2437   23.2164 C   0  0  0  0  0  0  0  0  0  0  0  0
   10.8555    0.3454   24.8709 C   0  0  0  0  0  0  0  0  0  0  0  0
    5.2909    2.0809   23.3307 C   0  0  0  0  0  0  0  0  0  0  0  0
    6.6692   -2.3614   22.7977 C   0  0  0  0  0  0  0  0  0  0  0  0
    8.4663    0.9692   25.4102 C   0  0  0  0  0  0  0  0  0  0  0  0
   10.4074    4.7798   23.4343 C   0  0  2  0  0  0  0  0  0  0  0  0
    9.3263    5.8140   23.0548 C   0  0  0  0  0  0  0  0  0  0  0  0
    9.6442    1.1922   24.4395 C   0  0  1  0  0  0  0  0  0  0  0  0
    6.5961    1.3275   23.6417 C   0  0  1  0  0  0  0  0  0  0  0  0
    7.1897    1.7318   25.0086 C   0  0  1  0  0  0  0  0  0  0  0  0
   13.9650    5.4320   22.5886 N   0  0  0  0  0  0  0  0  0  0  0  0
   11.6510    4.9577   22.6987 N   0  0  0  0  0  0  0  0  0  0  0  0
    6.3978   -0.1045   23.5608 N   0  0  0  0  0  0  0  0  0  0  0  0
   10.0005    2.5934   24.3849 N   0  0  0  0  0  0  0  0  0  0  0  0
   12.9429    5.2340   24.6136 O   0  0  0  0  0  0  0  0  0  0  0  0
    7.8993   -0.5255   21.8354 O   0  0  0  0  0  0  0  0  0  0  0  0
    9.5712    2.9151   22.1271 O   0  0  0  0  0  0  0  0  0  0  0  0
    6.1838    1.5420   26.0065 O   0  0  0  0  0  0  0  0  0  0  0  0
    7.7425   -3.2119   22.4546 O   0  0  0  0  0  0  0  0  0  0  0  0
   14.8600    5.5408   23.0557 H   0  0  0  0  0  0  0  0  0  0  0  0
    5.7346   -0.5381   24.1943 H   0  0  0  0  0  0  0  0  0  0  0  0
   10.3361    3.0250   25.2397 H   0  0  0  0  0  0  0  0  0  0  0  0
    6.5507    1.8908   26.8322 H   0  0  0  0  0  0  0  0  0  0  0  0
  1  3  1  0  0  0  0
  1  4  2  0  0  0  0
  2  5  1  0  0  0  0
  2  6  2  0  0  0  0
  3  8  2  0  0  0  0
  4  9  1  0  0  0  0
  5 10  2  0  0  0  0
  6 11  1  0  0  0  0
  7 12  1  0  0  0  0
  7 13  2  0  0  0  0
  8 14  1  0  0  0  0
  9 14  2  0  0  0  0
 10 15  1  0  0  0  0
 11 15  2  0  0  0  0
 12 16  2  0  0  0  0
 13 17  1  0  0  0  0
 14 29  1  0  0  0  0
 15 30  1  0  0  0  0
 16 18  1  0  0  0  0
 16 25  1  0  0  0  0
 17 18  2  0  0  0  0
 17 26  1  0  0  0  0
 18 46  1  0  0  0  0
 19 38  1  0  0  0  0
 19 39  1  0  0  0  0
 19 42  2  0  0  0  0
 20 31  1  0  0  0  0
 20 40  1  0  0  0  0
 20 43  2  0  0  0  0
 21 33  1  0  0  0  0
 21 41  1  0  0  0  0
 21 44  2  0  0  0  0
 22 23  1  0  0  0  0
 22 24  1  0  0  0  0
 23 38  1  0  0  0  0
 24 39  1  0  0  0  0
 27 34  1  0  0  0  0
 28 34  1  0  0  0  0
 29 35  1  0  0  0  0
 30 36  1  0  0  0  0
 31 46  1  0  0  0  0
 32 35  1  0  0  0  0
 32 37  1  0  0  0  0
 33 34  1  0  0  0  0
 33 39  1  0  0  0  0
 35 41  1  0  0  0  0
 36 37  1  0  0  0  0
 36 40  1  0  0  0  0
 37 45  1  0  0  0  0
 38 47  1  0  0  0  0
 40 48  1  0  0  0  0
 41 49  1  0  0  0  0
 45 50  1  0  0  0  0
M  END
> <ref_mols>
x2670_0

> <original SMILES>
CC(C)[C@H](N1CCCNC1=O)C(=O)N[C@H](C[C@H](O)[C@H](CC=2C=CC=CC2)NC(=O)COC=3C(C)=CC=CC3C)CC=4C=CC=CC4

> <Chemgauss4>
-2.535317

> <ref_pdb>
x0104_0

$$$$
x2518
  -OEChem-05172015543D

 35 37  0     1  0  0  0  0  0999 V2000
    5.0385   -3.0948   18.9772 C   0  0  0  0  0  0  0  0  0  0  0  0
    8.9688   -2.2912   26.6678 C   0  0  0  0  0  0  0  0  0  0  0  0
    5.1945   -3.7972   20.1721 C   0  0  0  0  0  0  0  0  0  0  0  0
    5.7220   -1.8951   18.7790 C   0  0  0  0  0  0  0  0  0  0  0  0
    9.1371   -1.3577   25.6512 C   0  0  0  0  0  0  0  0  0  0  0  0
   12.8990    2.5784   23.9209 C   0  0  0  0  0  0  0  0  0  0  0  0
   10.7842    3.2717   22.9806 C   0  0  0  0  0  0  0  0  0  0  0  0
   12.5322    1.2422   23.7607 C   0  0  0  0  0  0  0  0  0  0  0  0
   10.4174    1.9355   22.8204 C   0  0  0  0  0  0  0  0  0  0  0  0
    8.9685   -3.6331   26.3226 C   0  0  0  0  0  0  0  0  0  0  0  0
    9.2828   -3.1529   24.0981 C   0  0  0  0  0  0  0  0  0  0  0  0
   12.0250    3.5932   23.5309 C   0  0  0  0  0  0  0  0  0  0  0  0
    9.2976   -1.7885   24.3390 C   0  0  0  0  0  0  0  0  0  0  0  0
    6.0340   -3.2999   21.1689 C   0  0  0  0  0  0  0  0  0  0  0  0
    6.5614   -1.3978   19.7758 C   0  0  0  0  0  0  0  0  0  0  0  0
   11.2914    0.9207   23.2105 C   0  0  0  0  0  0  0  0  0  0  0  0
    6.7175   -2.1002   20.9708 C   0  0  0  0  0  0  0  0  0  0  0  0
   14.2488   -1.6369   22.2205 C   0  0  0  0  0  0  0  0  0  0  0  0
   13.0630   -1.0536   22.0188 C   0  0  0  0  0  0  0  0  0  0  0  0
   11.8722   -1.4737   22.8144 C   0  0  0  0  0  0  0  0  0  0  0  0
    8.9347   -1.3387   21.8927 C   0  0  0  0  0  0  0  0  0  0  0  0
    6.1806   -4.0751   22.4383 C   0  0  0  0  0  0  0  0  0  0  0  0
    6.6358    1.0589   20.2714 C   0  0  0  0  0  0  0  0  0  0  0  0
   11.4361    5.8119   24.5698 C   0  0  0  0  0  0  0  0  0  0  0  0
   13.6968    5.3399   21.7569 C   0  0  0  0  0  0  0  0  0  0  0  0
    7.2802   -0.1102   19.5333 C   0  0  0  0  0  0  0  0  0  0  0  0
    9.4834   -0.7980   23.2108 C   0  0  2  0  0  0  0  0  0  0  0  0
   12.4172    5.0218   23.7022 C   0  0  2  0  0  0  0  0  0  0  0  0
    9.1217   -4.0897   25.0594 N   0  0  0  0  0  0  0  0  0  0  0  0
    7.5689   -1.5953   21.9821 N   0  0  0  0  0  0  0  0  0  0  0  0
   10.9092   -0.4707   23.0433 N   0  0  0  0  0  0  0  0  0  0  0  0
   11.8089   -2.6342   23.2211 O   0  0  0  0  0  0  0  0  0  0  0  0
    9.6590   -1.5146   20.9166 O   0  0  0  0  0  0  0  0  0  0  0  0
   12.4801    5.6473   22.4154 O   0  0  0  0  0  0  0  0  0  0  0  0
    7.1320   -1.3965   22.8797 H   0  0  0  0  0  0  0  0  0  0  0  0
  1  3  1  0  0  0  0
  1  4  2  0  0  0  0
  2  5  2  0  0  0  0
  2 10  1  0  0  0  0
  3 14  2  0  0  0  0
  4 15  1  0  0  0  0
  5 13  1  0  0  0  0
  6  8  2  0  0  0  0
  6 12  1  0  0  0  0
  7  9  1  0  0  0  0
  7 12  2  0  0  0  0
  8 16  1  0  0  0  0
  9 16  2  0  0  0  0
 10 29  2  0  0  0  0
 11 13  2  0  0  0  0
 11 29  1  0  0  0  0
 12 28  1  0  0  0  0
 13 27  1  0  0  0  0
 14 17  1  0  0  0  0
 14 22  1  0  0  0  0
 15 17  2  0  0  0  0
 15 26  1  0  0  0  0
 16 31  1  0  0  0  0
 17 30  1  0  0  0  0
 18 19  2  0  0  0  0
 19 20  1  0  0  0  0
 20 31  1  0  0  0  0
 20 32  2  0  0  0  0
 21 27  1  0  0  0  0
 21 30  1  0  0  0  0
 21 33  2  0  0  0  0
 23 26  1  0  0  0  0
 24 28  1  0  0  0  0
 25 34  1  0  0  0  0
 27 31  1  0  0  0  0
 28 34  1  0  0  0  0
 30 35  1  0  0  0  0
M  END
> <ref_mols>
x2518_0

> <original SMILES>
CCC=1C=CC=C(C)C1NC(=O)C(N(C(=O)C=C)C=2C=CC(=CC2)C(C)OC)C=3C=CC=NC3

> <Chemgauss4>
-2.493143

> <ref_pdb>
x0692_0

$$$$
x2686
  -OEChem-05172015543D

 35 37  0     1  0  0  0  0  0999 V2000
    5.0385   -3.0948   18.9772 C   0  0  0  0  0  0  0  0  0  0  0  0
    8.9688   -2.2912   26.6678 C   0  0  0  0  0  0  0  0  0  0  0  0
    5.1945   -3.7972   20.1721 C   0  0  0  0  0  0  0  0  0  0  0  0
    5.7220   -1.8951   18.7790 C   0  0  0  0  0  0  0  0  0  0  0  0
    9.1371   -1.3577   25.6512 C   0  0  0  0  0  0  0  0  0  0  0  0
   12.8990    2.5784   23.9209 C   0  0  0  0  0  0  0  0  0  0  0  0
   10.7842    3.2717   22.9806 C   0  0  0  0  0  0  0  0  0  0  0  0
   12.5322    1.2422   23.7607 C   0  0  0  0  0  0  0  0  0  0  0  0
   10.4174    1.9355   22.8204 C   0  0  0  0  0  0  0  0  0  0  0  0
    8.9685   -3.6331   26.3226 C   0  0  0  0  0  0  0  0  0  0  0  0
    9.2828   -3.1529   24.0981 C   0  0  0  0  0  0  0  0  0  0  0  0
   12.0250    3.5932   23.5309 C   0  0  0  0  0  0  0  0  0  0  0  0
    9.2976   -1.7885   24.3390 C   0  0  0  0  0  0  0  0  0  0  0  0
    6.0340   -3.2999   21.1689 C   0  0  0  0  0  0  0  0  0  0  0  0
    6.5614   -1.3978   19.7758 C   0  0  0  0  0  0  0  0  0  0  0  0
   11.2914    0.9207   23.2105 C   0  0  0  0  0  0  0  0  0  0  0  0
    6.7175   -2.1002   20.9708 C   0  0  0  0  0  0  0  0  0  0  0  0
   14.2488   -1.6369   22.2205 C   0  0  0  0  0  0  0  0  0  0  0  0
   13.0630   -1.0536   22.0188 C   0  0  0  0  0  0  0  0  0  0  0  0
   11.8722   -1.4737   22.8144 C   0  0  0  0  0  0  0  0  0  0  0  0
    8.9347   -1.3387   21.8927 C   0  0  0  0  0  0  0  0  0  0  0  0
    6.1806   -4.0751   22.4383 C   0  0  0  0  0  0  0  0  0  0  0  0
    6.6358    1.0589   20.2714 C   0  0  0  0  0  0  0  0  0  0  0  0
   11.4361    5.8119   24.5698 C   0  0  0  0  0  0  0  0  0  0  0  0
   13.6968    5.3399   21.7569 C   0  0  0  0  0  0  0  0  0  0  0  0
    7.2802   -0.1102   19.5333 C   0  0  0  0  0  0  0  0  0  0  0  0
    9.4834   -0.7980   23.2108 C   0  0  2  0  0  0  0  0  0  0  0  0
   12.4172    5.0218   23.7022 C   0  0  2  0  0  0  0  0  0  0  0  0
    9.1217   -4.0897   25.0594 N   0  0  0  0  0  0  0  0  0  0  0  0
    7.5689   -1.5953   21.9821 N   0  0  0  0  0  0  0  0  0  0  0  0
   10.9092   -0.4707   23.0433 N   0  0  0  0  0  0  0  0  0  0  0  0
   11.8089   -2.6342   23.2211 O   0  0  0  0  0  0  0  0  0  0  0  0
    9.6590   -1.5146   20.9166 O   0  0  0  0  0  0  0  0  0  0  0  0
   12.4801    5.6473   22.4154 O   0  0  0  0  0  0  0  0  0  0  0  0
    7.1320   -1.3965   22.8797 H   0  0  0  0  0  0  0  0  0  0  0  0
  1  3  1  0  0  0  0
  1  4  2  0  0  0  0
  2  5  2  0  0  0  0
  2 10  1  0  0  0  0
  3 14  2  0  0  0  0
  4 15  1  0  0  0  0
  5 13  1  0  0  0  0
  6  8  2  0  0  0  0
  6 12  1  0  0  0  0
  7  9  1  0  0  0  0
  7 12  2  0  0  0  0
  8 16  1  0  0  0  0
  9 16  2  0  0  0  0
 10 29  2  0  0  0  0
 11 13  2  0  0  0  0
 11 29  1  0  0  0  0
 12 28  1  0  0  0  0
 13 27  1  0  0  0  0
 14 17  1  0  0  0  0
 14 22  1  0  0  0  0
 15 17  2  0  0  0  0
 15 26  1  0  0  0  0
 16 31  1  0  0  0  0
 17 30  1  0  0  0  0
 18 19  2  0  0  0  0
 19 20  1  0  0  0  0
 20 31  1  0  0  0  0
 20 32  2  0  0  0  0
 21 27  1  0  0  0  0
 21 30  1  0  0  0  0
 21 33  2  0  0  0  0
 23 26  1  0  0  0  0
 24 28  1  0  0  0  0
 25 34  1  0  0  0  0
 27 31  1  0  0  0  0
 28 34  1  0  0  0  0
 30 35  1  0  0  0  0
M  END
> <ref_mols>
x2686_0

> <original SMILES>
CCC=1C=CC=C(C)C1NC(=O)C(N(C(=O)C=C)C=2C=CC(=CC2)C(C)OC)C=3C=CC=NC3

> <Chemgauss4>
-2.493143

> <ref_pdb>
x0692_0

> <CYS145-warhead dist minimum (A)>
6.553762

> <CYS145-warhead dist mean (A)>
8.553983

> <CYS145-warhead dist stddev (A)>
0.5951223

$$$$
x2864
  -OEChem-05172015543D

 34 36  0     1  0  0  0  0  0999 V2000
    5.5731   -6.3412   23.0709 C   0  0  0  0  0  0  0  0  0  0  0  0
    6.6146   -5.4526   22.8287 C   0  0  0  0  0  0  0  0  0  0  0  0
   11.7943   -1.4459   24.4224 C   0  0  0  0  0  0  0  0  0  0  0  0
   12.5820   -3.2954   25.7624 C   0  0  0  0  0  0  0  0  0  0  0  0
   10.7418   -2.2328   23.9549 C   0  0  0  0  0  0  0  0  0  0  0  0
   11.5295   -4.0824   25.2950 C   0  0  0  0  0  0  0  0  0  0  0  0
    5.4656   -1.2271   20.5673 C   0  0  0  0  0  0  0  0  0  0  0  0
    7.5804   -1.8913   19.6062 C   0  0  0  0  0  0  0  0  0  0  0  0
    5.1117   -0.6144   19.3652 C   0  0  0  0  0  0  0  0  0  0  0  0
    7.2265   -1.2787   18.4041 C   0  0  0  0  0  0  0  0  0  0  0  0
    5.0605   -6.4048   24.3566 C   0  0  0  0  0  0  0  0  0  0  0  0
    6.5236   -4.8041   25.1150 C   0  0  0  0  0  0  0  0  0  0  0  0
   12.7145   -1.9772   25.3261 C   0  0  0  0  0  0  0  0  0  0  0  0
    7.1049   -4.6657   23.8650 C   0  0  0  0  0  0  0  0  0  0  0  0
    6.7000   -1.8655   20.6878 C   0  0  0  0  0  0  0  0  0  0  0  0
   10.6093   -3.5510   24.3912 C   0  0  0  0  0  0  0  0  0  0  0  0
    5.9921   -0.6402   18.2836 C   0  0  0  0  0  0  0  0  0  0  0  0
   11.3080   -7.5708   23.8291 C   0  0  0  0  0  0  0  0  0  0  0  0
   10.9716   -6.3433   23.4202 C   0  0  0  0  0  0  0  0  0  0  0  0
    9.6419   -5.7684   23.7788 C   0  0  0  0  0  0  0  0  0  0  0  0
    8.2407   -3.1635   22.2002 C   0  0  0  0  0  0  0  0  0  0  0  0
   13.3125    0.1294   26.5713 C   0  0  0  0  0  0  0  0  0  0  0  0
   14.7454   -0.6472   24.6530 C   0  0  0  0  0  0  0  0  0  0  0  0
   14.8081   -1.8393   26.8339 C   0  0  0  0  0  0  0  0  0  0  0  0
    4.3701    0.5922   17.0564 C   0  0  0  0  0  0  0  0  0  0  0  0
    8.2366   -3.6889   23.6336 C   0  0  2  0  0  0  0  0  0  0  0  0
   13.8747   -1.1096   25.8414 C   0  0  0  0  0  0  0  0  0  0  0  0
    5.5105   -5.6565   25.3886 N   0  0  0  0  0  0  0  0  0  0  0  0
    7.0592   -2.4871   21.9073 N   0  0  0  0  0  0  0  0  0  0  0  0
    9.5565   -4.3383   23.9240 N   0  0  0  0  0  0  0  0  0  0  0  0
    8.6934   -6.5326   23.9592 O   0  0  0  0  0  0  0  0  0  0  0  0
    9.1905   -3.3558   21.4458 O   0  0  0  0  0  0  0  0  0  0  0  0
    5.6468   -0.0424   17.1106 O   0  0  0  0  0  0  0  0  0  0  0  0
    6.3739   -2.4335   22.6580 H   0  0  0  0  0  0  0  0  0  0  0  0
  1  2  2  0  0  0  0
  1 11  1  0  0  0  0
  2 14  1  0  0  0  0
  3  5  2  0  0  0  0
  3 13  1  0  0  0  0
  4  6  1  0  0  0  0
  4 13  2  0  0  0  0
  5 16  1  0  0  0  0
  6 16  2  0  0  0  0
  7  9  2  0  0  0  0
  7 15  1  0  0  0  0
  8 10  1  0  0  0  0
  8 15  2  0  0  0  0
  9 17  1  0  0  0  0
 10 17  2  0  0  0  0
 11 28  2  0  0  0  0
 12 14  2  0  0  0  0
 12 28  1  0  0  0  0
 13 27  1  0  0  0  0
 14 26  1  0  0  0  0
 15 29  1  0  0  0  0
 16 30  1  0  0  0  0
 17 33  1  0  0  0  0
 18 19  2  0  0  0  0
 19 20  1  0  0  0  0
 20 30  1  0  0  0  0
 20 31  2  0  0  0  0
 21 26  1  0  0  0  0
 21 29  1  0  0  0  0
 21 32  2  0  0  0  0
 22 27  1  0  0  0  0
 23 27  1  0  0  0  0
 24 27  1  0  0  0  0
 25 33  1  0  0  0  0
 26 30  1  0  0  0  0
 29 34  1  0  0  0  0
M  END
> <ref_mols>
x2864_0

> <original SMILES>
COC=1C=CC(NC(=O)C(N(C(=O)C=C)C=2C=CC(=CC2)C(C)(C)C)C=3C=CC=NC3)=CC1

> <Chemgauss4>
-2.073396

> <ref_pdb>
x0749_0

> <CYS145-warhead dist minimum (A)>
8.863376

> <CYS145-warhead dist mean (A)>
9.615126

> <CYS145-warhead dist stddev (A)>
0.2789463

$$$$
x2842
  -OEChem-05172015543D

 35 37  0     1  0  0  0  0  0999 V2000
    5.0152   -5.8786   24.8926 C   0  0  0  0  0  0  0  0  0  0  0  0
    6.1054   -5.0185   24.8231 C   0  0  0  0  0  0  0  0  0  0  0  0
   10.6040   -1.4546   25.7515 C   0  0  0  0  0  0  0  0  0  0  0  0
   12.2381   -3.0884   25.0461 C   0  0  0  0  0  0  0  0  0  0  0  0
    9.5904   -2.2187   25.1733 C   0  0  0  0  0  0  0  0  0  0  0  0
   11.2244   -3.8525   24.4679 C   0  0  0  0  0  0  0  0  0  0  0  0
    7.7564   -1.5030   19.5322 C   0  0  0  0  0  0  0  0  0  0  0  0
    7.7034   -0.7723   18.3453 C   0  0  0  0  0  0  0  0  0  0  0  0
    6.2512    0.8424   19.4042 C   0  0  0  0  0  0  0  0  0  0  0  0
    4.3083   -6.1252   23.7268 C   0  0  0  0  0  0  0  0  0  0  0  0
    5.6797   -4.7508   22.4986 C   0  0  0  0  0  0  0  0  0  0  0  0
   11.9279   -1.8894   25.6878 C   0  0  0  0  0  0  0  0  0  0  0  0
    6.4507   -4.4396   23.6070 C   0  0  0  0  0  0  0  0  0  0  0  0
    6.3041    0.1116   20.5911 C   0  0  0  0  0  0  0  0  0  0  0  0
    9.9006   -3.4177   24.5316 C   0  0  0  0  0  0  0  0  0  0  0  0
    7.0567   -1.0611   20.6551 C   0  0  0  0  0  0  0  0  0  0  0  0
    6.9509    0.4004   18.2813 C   0  0  0  0  0  0  0  0  0  0  0  0
   10.3477   -7.5065   24.5379 C   0  0  0  0  0  0  0  0  0  0  0  0
    9.7514   -6.3533   24.8566 C   0  0  0  0  0  0  0  0  0  0  0  0
    8.9446   -5.6167   23.8399 C   0  0  0  0  0  0  0  0  0  0  0  0
    7.8222   -3.0010   22.0683 C   0  0  0  0  0  0  0  0  0  0  0  0
    5.5444    0.6088   21.7779 C   0  0  0  0  0  0  0  0  0  0  0  0
   12.7794   -0.8909   27.8381 C   0  0  0  0  0  0  0  0  0  0  0  0
   13.0809    0.3505   25.6692 C   0  0  0  0  0  0  0  0  0  0  0  0
   14.4557   -1.6595   26.1705 C   0  0  0  0  0  0  0  0  0  0  0  0
    7.6393    0.6052   16.0141 C   0  0  0  0  0  0  0  0  0  0  0  0
    7.6316   -3.5003   23.4983 C   0  0  2  0  0  0  0  0  0  0  0  0
   13.0452   -1.0469   26.3251 C   0  0  0  0  0  0  0  0  0  0  0  0
    4.6135   -5.5816   22.5272 N   0  0  0  0  0  0  0  0  0  0  0  0
    7.1214   -1.8176   21.8493 N   0  0  0  0  0  0  0  0  0  0  0  0
    8.8869   -4.1823   23.9535 N   0  0  0  0  0  0  0  0  0  0  0  0
    8.3488   -6.2594   22.9751 O   0  0  0  0  0  0  0  0  0  0  0  0
    8.5091   -3.6159   21.2569 O   0  0  0  0  0  0  0  0  0  0  0  0
    6.8998    1.1139   17.1232 O   0  0  0  0  0  0  0  0  0  0  0  0
    6.5942   -1.4545   22.6406 H   0  0  0  0  0  0  0  0  0  0  0  0
  1  2  2  0  0  0  0
  1 10  1  0  0  0  0
  2 13  1  0  0  0  0
  3  5  2  0  0  0  0
  3 12  1  0  0  0  0
  4  6  1  0  0  0  0
  4 12  2  0  0  0  0
  5 15  1  0  0  0  0
  6 15  2  0  0  0  0
  7  8  2  0  0  0  0
  7 16  1  0  0  0  0
  8 17  1  0  0  0  0
  9 14  1  0  0  0  0
  9 17  2  0  0  0  0
 10 29  2  0  0  0  0
 11 13  2  0  0  0  0
 11 29  1  0  0  0  0
 12 28  1  0  0  0  0
 13 27  1  0  0  0  0
 14 16  2  0  0  0  0
 14 22  1  0  0  0  0
 15 31  1  0  0  0  0
 16 30  1  0  0  0  0
 17 34  1  0  0  0  0
 18 19  2  0  0  0  0
 19 20  1  0  0  0  0
 20 31  1  0  0  0  0
 20 32  2  0  0  0  0
 21 27  1  0  0  0  0
 21 30  1  0  0  0  0
 21 33  2  0  0  0  0
 23 28  1  0  0  0  0
 24 28  1  0  0  0  0
 25 28  1  0  0  0  0
 26 34  1  0  0  0  0
 27 31  1  0  0  0  0
 30 35  1  0  0  0  0
M  END
> <ref_mols>
x2842_0

> <original SMILES>
COC=1C=CC(NC(=O)C(N(C(=O)C=C)C=2C=CC(=CC2)C(C)(C)C)C=3C=CC=NC3)=C(C)C1

> <Chemgauss4>
-2.043368

> <ref_pdb>
x0749_0

$$$$
x2067
  -OEChem-05172015543D

 48 51  0     1  0  0  0  0  0999 V2000
   10.3256    4.0574   23.8396 C   0  0  0  0  0  0  0  0  0  0  0  0
    8.5293    2.5683   24.4665 C   0  0  0  0  0  0  0  0  0  0  0  0
    9.4053    4.9120   23.2327 C   0  0  0  0  0  0  0  0  0  0  0  0
    7.6090    3.4230   23.8597 C   0  0  0  0  0  0  0  0  0  0  0  0
    9.8876    2.8855   24.4565 C   0  0  0  0  0  0  0  0  0  0  0  0
    8.0470    4.5948   23.2427 C   0  0  0  0  0  0  0  0  0  0  0  0
    5.0716   -4.2316   23.6485 C   0  0  0  0  0  0  0  0  0  0  0  0
    4.9076   -3.2665   21.7051 C   0  0  0  0  0  0  0  0  0  0  0  0
    9.4457   -2.0907   24.5945 C   0  0  0  0  0  0  0  0  0  0  0  0
   13.5310   -1.9150   22.4780 C   0  0  0  0  0  0  0  0  0  0  0  0
    5.5958   -4.4022   25.0303 C   0  0  0  0  0  0  0  0  0  0  0  0
    6.6177   -3.4239   25.5471 C   0  0  0  0  0  0  0  0  0  0  0  0
   11.9725   -0.0280   24.4702 C   0  0  0  0  0  0  0  0  0  0  0  0
    5.8198   -1.3268   20.3949 C   0  0  0  0  0  0  0  0  0  0  0  0
   12.6075   -1.1235   21.5993 C   0  0  0  0  0  0  0  0  0  0  0  0
   11.2960   -1.2055   22.3498 C   0  0  0  0  0  0  0  0  0  0  0  0
   10.3197   -3.8753   25.8114 C   0  0  0  0  0  0  0  0  0  0  0  0
    9.0514   -3.0577   25.6707 C   0  0  2  0  0  0  0  0  0  0  0  0
   11.7514   -1.3428   23.7832 C   0  0  2  0  0  0  0  0  0  0  0  0
    5.9652   -6.4607   29.1544 C   0  0  0  0  0  0  0  0  0  0  0  0
    7.8599   -0.0013   18.8914 C   0  0  0  0  0  0  0  0  0  0  0  0
    6.0038    0.7243   17.3625 C   0  0  0  0  0  0  0  0  0  0  0  0
    6.0073    1.4625   19.7632 C   0  0  0  0  0  0  0  0  0  0  0  0
   10.8776    1.9662   25.1092 C   0  0  0  0  0  0  0  0  0  0  0  0
    5.3082   -6.4588   27.7906 C   0  0  0  0  0  0  0  0  0  0  0  0
    6.3737    0.3399   18.7934 C   0  0  0  0  0  0  0  0  0  0  0  0
    5.5255   -3.1857   22.8629 N   0  0  0  0  0  0  0  0  0  0  0  0
    4.1677   -5.0930   23.1823 N   0  0  0  0  0  0  0  0  0  0  0  0
    5.1877   -5.3804   25.7812 N   0  0  0  0  0  0  0  0  0  0  0  0
   10.8176   -2.0520   24.6066 N   0  0  0  0  0  0  0  0  0  0  0  0
    5.0147   -2.4666   20.6023 N   0  0  0  0  0  0  0  0  0  0  0  0
    7.9087   -3.8222   25.2819 N   0  0  0  0  0  0  0  0  0  0  0  0
    7.1102    5.4646   22.6246 N   0  0  0  0  0  0  0  0  0  0  0  0
    8.6813   -1.4477   23.8921 O   0  0  0  0  0  0  0  0  0  0  0  0
   14.6222   -2.3523   22.1472 O   0  0  0  0  0  0  0  0  0  0  0  0
    6.2188   -2.4224   26.1194 O   0  0  0  0  0  0  0  0  0  0  0  0
   13.0444    0.3270   24.9416 O   0  0  0  0  0  0  0  0  0  0  0  0
    6.5976   -0.8331   21.2022 O   0  0  0  0  0  0  0  0  0  0  0  0
    7.5252    6.5135   22.0749 O   0  0  0  0  0  0  0  0  0  0  0  0
    5.8930    5.1605   22.6445 O   0  0  0  0  0  0  0  0  0  0  0  0
   12.9869   -2.0475   23.7273 O   0  0  0  0  0  0  0  0  0  0  0  0
   11.3783   -2.9510   25.5361 O   0  0  0  0  0  0  0  0  0  0  0  0
   10.8090    0.6828   24.4796 O   0  0  0  0  0  0  0  0  0  0  0  0
    5.6149   -0.8253   19.1371 O   0  0  0  0  0  0  0  0  0  0  0  0
    5.8076   -5.3639   27.0384 O   0  0  0  0  0  0  0  0  0  0  0  0
    3.8197   -4.5912   21.6241 S   0  0  0  0  0  0  0  0  0  0  0  0
    4.4152   -2.7377   19.7986 H   0  0  0  0  0  0  0  0  0  0  0  0
    8.0694   -4.7016   24.7994 H   0  0  0  0  0  0  0  0  0  0  0  0
  1  3  1  0  0  0  0
  1  5  2  0  0  0  0
  2  4  2  0  0  0  0
  2  5  1  0  0  0  0
  3  6  2  0  0  0  0
  4  6  1  0  0  0  0
  5 24  1  0  0  0  0
  6 33  1  0  0  0  0
  7 11  1  0  0  0  0
  7 27  1  0  0  0  0
  7 28  2  0  0  0  0
  8 27  2  0  0  0  0
  8 31  1  0  0  0  0
  8 46  1  0  0  0  0
  9 18  1  0  0  0  0
  9 30  1  0  0  0  0
  9 34  2  0  0  0  0
 10 15  1  0  0  0  0
 10 35  2  0  0  0  0
 10 41  1  0  0  0  0
 11 12  1  0  0  0  0
 11 29  2  0  0  0  0
 12 32  1  0  0  0  0
 12 36  2  0  0  0  0
 13 19  1  0  0  0  0
 13 37  2  0  0  0  0
 13 43  1  0  0  0  0
 14 31  1  0  0  0  0
 14 38  2  0  0  0  0
 14 44  1  0  0  0  0
 15 16  1  0  0  0  0
 16 19  1  0  0  0  0
 17 18  1  0  0  0  0
 17 42  1  0  0  0  0
 18 32  1  0  0  0  0
 19 30  1  0  0  0  0
 19 41  1  0  0  0  0
 20 25  1  0  0  0  0
 21 26  1  0  0  0  0
 22 26  1  0  0  0  0
 23 26  1  0  0  0  0
 24 43  1  0  0  0  0
 25 45  1  0  0  0  0
 26 44  1  0  0  0  0
 28 46  1  0  0  0  0
 29 45  1  0  0  0  0
 30 42  1  0  0  0  0
 33 39  2  0  0  0  0
 33 40  2  0  0  0  0
 31 47  1  0  0  0  0
 32 48  1  0  0  0  0
M  END
> <ref_mols>
x2067_0

> <original SMILES>
O=C1OC(C(OCC2=CC=C([N+]([O-])=O)C=C2)=O)(N3C([C@@H](NC(/C(C4=NSC(NC(OC(C)(C)C)=O)=N4)=N\OCC)=O)CO3)=O)CC1

> <Chemgauss4>
-1.169705

> <ref_pdb>
x0072_0

$$$$
x2500
  -OEChem-05172015543D

 54 57  0     1  0  0  0  0  0999 V2000
    7.1012   -2.9438   26.8820 C   0  0  0  0  0  0  0  0  0  0  0  0
    7.7348    0.4934   17.8716 C   0  0  0  0  0  0  0  0  0  0  0  0
    6.0467   -2.0700   27.1468 C   0  0  0  0  0  0  0  0  0  0  0  0
    8.3598   -2.4391   26.5552 C   0  0  0  0  0  0  0  0  0  0  0  0
    8.2116    1.6490   18.4903 C   0  0  0  0  0  0  0  0  0  0  0  0
    6.5512   -0.0972   18.3142 C   0  0  0  0  0  0  0  0  0  0  0  0
    6.2507   -0.6916   27.0846 C   0  0  0  0  0  0  0  0  0  0  0  0
    8.5639   -1.0607   26.4930 C   0  0  0  0  0  0  0  0  0  0  0  0
    7.5048    2.2140   19.5519 C   0  0  0  0  0  0  0  0  0  0  0  0
    5.8444    0.4678   19.3758 C   0  0  0  0  0  0  0  0  0  0  0  0
    4.9648   -5.0641   24.4965 C   0  0  0  0  0  0  0  0  0  0  0  0
   14.2645    2.6142   20.7685 C   0  0  0  0  0  0  0  0  0  0  0  0
    3.3796   -5.8065   23.1751 C   0  0  0  0  0  0  0  0  0  0  0  0
    7.5094   -0.1869   26.7578 C   0  0  0  0  0  0  0  0  0  0  0  0
    6.3212    1.6234   19.9946 C   0  0  0  0  0  0  0  0  0  0  0  0
   13.2845    3.2391   21.5109 C   0  0  0  0  0  0  0  0  0  0  0  0
    5.1615   -4.2065   23.4345 C   0  0  0  0  0  0  0  0  0  0  0  0
   13.2140    1.2661   22.4660 C   0  0  0  0  0  0  0  0  0  0  0  0
    9.1469    3.3350   24.1522 C   0  0  0  0  0  0  0  0  0  0  0  0
   12.0396    5.4987   23.5744 C   0  0  0  0  0  0  0  0  0  0  0  0
    6.2621   -0.7642   22.8958 C   0  0  0  0  0  0  0  0  0  0  0  0
   11.7200   -0.7413   22.7692 C   0  0  0  0  0  0  0  0  0  0  0  0
   12.3746    0.6555   24.7631 C   0  0  0  0  0  0  0  0  0  0  0  0
    9.1636    7.2028   24.5376 C   0  0  0  0  0  0  0  0  0  0  0  0
    8.4178    5.9753   22.4823 C   0  0  0  0  0  0  0  0  0  0  0  0
   14.2874    6.1514   22.6799 C   0  0  0  0  0  0  0  0  0  0  0  0
    7.7310    1.3057   26.6901 C   0  0  0  0  0  0  0  0  0  0  0  0
    5.5551    2.2348   21.1448 C   0  0  0  0  0  0  0  0  0  0  0  0
   12.8326    4.6614   21.3461 C   0  0  0  0  0  0  0  0  0  0  0  0
    6.1662   -3.1053   23.2624 C   0  0  0  0  0  0  0  0  0  0  0  0
    5.9536    2.0983   25.0775 C   0  0  0  0  0  0  0  0  0  0  0  0
   12.8210    0.1621   23.3685 C   0  0  0  0  0  0  0  0  0  0  0  0
    9.7688    4.7279   24.2274 C   0  0  2  0  0  0  0  0  0  0  0  0
    8.7328    5.8439   23.9756 C   0  0  0  0  0  0  0  0  0  0  0  0
    7.4674    1.8934   25.2917 C   0  0  1  0  0  0  0  0  0  0  0  0
    5.9918    1.6815   22.5127 C   0  0  1  0  0  0  0  0  0  0  0  0
    5.5998    2.6220   23.6728 C   0  0  1  0  0  0  0  0  0  0  0  0
    3.9432   -5.9820   24.3497 N   0  0  0  0  0  0  0  0  0  0  0  0
   12.6806    2.4675   22.4845 N   0  0  0  0  0  0  0  0  0  0  0  0
    8.1787    3.1423   25.1257 N   0  0  0  0  0  0  0  0  0  0  0  0
   10.8798    4.7707   23.3107 N   0  0  0  0  0  0  0  0  0  0  0  0
    5.4682    0.3477   22.7213 N   0  0  0  0  0  0  0  0  0  0  0  0
   13.0209    5.4398   22.5678 N   0  0  0  0  0  0  0  0  0  0  0  0
    9.5041    2.4868   23.3372 O   0  0  0  0  0  0  0  0  0  0  0  0
   12.1788    6.1503   24.6140 O   0  0  0  0  0  0  0  0  0  0  0  0
    7.4886   -0.7778   22.8985 O   0  0  0  0  0  0  0  0  0  0  0  0
    4.1940    2.8685   23.5929 O   0  0  0  0  0  0  0  0  0  0  0  0
    5.4737   -1.8670   23.0681 O   0  0  0  0  0  0  0  0  0  0  0  0
   14.4472    0.9951   21.3038 S   0  0  0  0  0  0  0  0  0  0  0  0
    4.0282   -4.5557   22.1955 S   0  0  0  0  0  0  0  0  0  0  0  0
    7.9650    3.8927   25.7744 H   0  0  0  0  0  0  0  0  0  0  0  0
   10.8158    4.2517   22.4407 H   0  0  0  0  0  0  0  0  0  0  0  0
    4.4620    0.2255   22.7400 H   0  0  0  0  0  0  0  0  0  0  0  0
    3.9953    3.5316   24.2704 H   0  0  0  0  0  0  0  0  0  0  0  0
  1  3  1  0  0  0  0
  1  4  2  0  0  0  0
  2  5  1  0  0  0  0
  2  6  2  0  0  0  0
  3  7  2  0  0  0  0
  4  8  1  0  0  0  0
  5  9  2  0  0  0  0
  6 10  1  0  0  0  0
  7 14  1  0  0  0  0
  8 14  2  0  0  0  0
  9 15  1  0  0  0  0
 10 15  2  0  0  0  0
 11 17  2  0  0  0  0
 11 38  1  0  0  0  0
 12 16  2  0  0  0  0
 12 49  1  0  0  0  0
 13 38  2  0  0  0  0
 13 50  1  0  0  0  0
 14 27  1  0  0  0  0
 15 28  1  0  0  0  0
 16 29  1  0  0  0  0
 16 39  1  0  0  0  0
 17 30  1  0  0  0  0
 17 50  1  0  0  0  0
 18 32  1  0  0  0  0
 18 39  2  0  0  0  0
 18 49  1  0  0  0  0
 19 33  1  0  0  0  0
 19 40  1  0  0  0  0
 19 44  2  0  0  0  0
 20 41  1  0  0  0  0
 20 43  1  0  0  0  0
 20 45  2  0  0  0  0
 21 42  1  0  0  0  0
 21 46  2  0  0  0  0
 21 48  1  0  0  0  0
 22 32  1  0  0  0  0
 23 32  1  0  0  0  0
 24 34  1  0  0  0  0
 25 34  1  0  0  0  0
 26 43  1  0  0  0  0
 27 35  1  0  0  0  0
 28 36  1  0  0  0  0
 29 43  1  0  0  0  0
 30 48  1  0  0  0  0
 31 35  1  0  0  0  0
 31 37  1  0  0  0  0
 33 34  1  0  0  0  0
 33 41  1  0  0  0  0
 35 40  1  0  0  0  0
 36 37  1  0  0  0  0
 36 42  1  0  0  0  0
 37 47  1  0  0  0  0
 40 51  1  0  0  0  0
 41 52  1  0  0  0  0
 42 53  1  0  0  0  0
 47 54  1  0  0  0  0
M  END
> <ref_mols>
x2500_0

> <original SMILES>
CC(C)[C@H](NC(=O)N(C)CC1=CSC(=N1)C(C)C)C(=O)N[C@H](C[C@H](O)[C@H](CC=2C=CC=CC2)NC(=O)OCC3=CN=CS3)CC=4C=CC=CC4

> <Chemgauss4>
0.619766

> <ref_pdb>
x0104_0

$$$$
x2668
  -OEChem-05172015543D

 54 57  0     1  0  0  0  0  0999 V2000
    7.1012   -2.9438   26.8820 C   0  0  0  0  0  0  0  0  0  0  0  0
    7.7348    0.4934   17.8716 C   0  0  0  0  0  0  0  0  0  0  0  0
    6.0467   -2.0700   27.1468 C   0  0  0  0  0  0  0  0  0  0  0  0
    8.3598   -2.4391   26.5552 C   0  0  0  0  0  0  0  0  0  0  0  0
    8.2116    1.6490   18.4903 C   0  0  0  0  0  0  0  0  0  0  0  0
    6.5512   -0.0972   18.3142 C   0  0  0  0  0  0  0  0  0  0  0  0
    6.2507   -0.6916   27.0846 C   0  0  0  0  0  0  0  0  0  0  0  0
    8.5639   -1.0607   26.4930 C   0  0  0  0  0  0  0  0  0  0  0  0
    7.5048    2.2140   19.5519 C   0  0  0  0  0  0  0  0  0  0  0  0
    5.8444    0.4678   19.3758 C   0  0  0  0  0  0  0  0  0  0  0  0
    4.9648   -5.0641   24.4965 C   0  0  0  0  0  0  0  0  0  0  0  0
   14.2645    2.6142   20.7685 C   0  0  0  0  0  0  0  0  0  0  0  0
    3.3796   -5.8065   23.1751 C   0  0  0  0  0  0  0  0  0  0  0  0
    7.5094   -0.1869   26.7578 C   0  0  0  0  0  0  0  0  0  0  0  0
    6.3212    1.6234   19.9946 C   0  0  0  0  0  0  0  0  0  0  0  0
   13.2845    3.2391   21.5109 C   0  0  0  0  0  0  0  0  0  0  0  0
    5.1615   -4.2065   23.4345 C   0  0  0  0  0  0  0  0  0  0  0  0
   13.2140    1.2661   22.4660 C   0  0  0  0  0  0  0  0  0  0  0  0
    9.1469    3.3350   24.1522 C   0  0  0  0  0  0  0  0  0  0  0  0
   12.0396    5.4987   23.5744 C   0  0  0  0  0  0  0  0  0  0  0  0
    6.2621   -0.7642   22.8958 C   0  0  0  0  0  0  0  0  0  0  0  0
   11.7200   -0.7413   22.7692 C   0  0  0  0  0  0  0  0  0  0  0  0
   12.3746    0.6555   24.7631 C   0  0  0  0  0  0  0  0  0  0  0  0
    9.1636    7.2028   24.5376 C   0  0  0  0  0  0  0  0  0  0  0  0
    8.4178    5.9753   22.4823 C   0  0  0  0  0  0  0  0  0  0  0  0
   14.2874    6.1514   22.6799 C   0  0  0  0  0  0  0  0  0  0  0  0
    7.7310    1.3057   26.6901 C   0  0  0  0  0  0  0  0  0  0  0  0
    5.5551    2.2348   21.1448 C   0  0  0  0  0  0  0  0  0  0  0  0
   12.8326    4.6614   21.3461 C   0  0  0  0  0  0  0  0  0  0  0  0
    6.1662   -3.1053   23.2624 C   0  0  0  0  0  0  0  0  0  0  0  0
    5.9536    2.0983   25.0775 C   0  0  0  0  0  0  0  0  0  0  0  0
   12.8210    0.1621   23.3685 C   0  0  0  0  0  0  0  0  0  0  0  0
    9.7688    4.7279   24.2274 C   0  0  2  0  0  0  0  0  0  0  0  0
    8.7328    5.8439   23.9756 C   0  0  0  0  0  0  0  0  0  0  0  0
    7.4674    1.8934   25.2917 C   0  0  1  0  0  0  0  0  0  0  0  0
    5.9918    1.6815   22.5127 C   0  0  1  0  0  0  0  0  0  0  0  0
    5.5998    2.6220   23.6728 C   0  0  1  0  0  0  0  0  0  0  0  0
    3.9432   -5.9820   24.3497 N   0  0  0  0  0  0  0  0  0  0  0  0
   12.6806    2.4675   22.4845 N   0  0  0  0  0  0  0  0  0  0  0  0
    8.1787    3.1423   25.1257 N   0  0  0  0  0  0  0  0  0  0  0  0
   10.8798    4.7707   23.3107 N   0  0  0  0  0  0  0  0  0  0  0  0
    5.4682    0.3477   22.7213 N   0  0  0  0  0  0  0  0  0  0  0  0
   13.0209    5.4398   22.5678 N   0  0  0  0  0  0  0  0  0  0  0  0
    9.5041    2.4868   23.3372 O   0  0  0  0  0  0  0  0  0  0  0  0
   12.1788    6.1503   24.6140 O   0  0  0  0  0  0  0  0  0  0  0  0
    7.4886   -0.7778   22.8985 O   0  0  0  0  0  0  0  0  0  0  0  0
    4.1940    2.8685   23.5929 O   0  0  0  0  0  0  0  0  0  0  0  0
    5.4737   -1.8670   23.0681 O   0  0  0  0  0  0  0  0  0  0  0  0
   14.4472    0.9951   21.3038 S   0  0  0  0  0  0  0  0  0  0  0  0
    4.0282   -4.5557   22.1955 S   0  0  0  0  0  0  0  0  0  0  0  0
    7.9650    3.8927   25.7744 H   0  0  0  0  0  0  0  0  0  0  0  0
   10.8158    4.2517   22.4407 H   0  0  0  0  0  0  0  0  0  0  0  0
    4.4620    0.2255   22.7400 H   0  0  0  0  0  0  0  0  0  0  0  0
    3.9953    3.5316   24.2704 H   0  0  0  0  0  0  0  0  0  0  0  0
  1  3  1  0  0  0  0
  1  4  2  0  0  0  0
  2  5  1  0  0  0  0
  2  6  2  0  0  0  0
  3  7  2  0  0  0  0
  4  8  1  0  0  0  0
  5  9  2  0  0  0  0
  6 10  1  0  0  0  0
  7 14  1  0  0  0  0
  8 14  2  0  0  0  0
  9 15  1  0  0  0  0
 10 15  2  0  0  0  0
 11 17  2  0  0  0  0
 11 38  1  0  0  0  0
 12 16  2  0  0  0  0
 12 49  1  0  0  0  0
 13 38  2  0  0  0  0
 13 50  1  0  0  0  0
 14 27  1  0  0  0  0
 15 28  1  0  0  0  0
 16 29  1  0  0  0  0
 16 39  1  0  0  0  0
 17 30  1  0  0  0  0
 17 50  1  0  0  0  0
 18 32  1  0  0  0  0
 18 39  2  0  0  0  0
 18 49  1  0  0  0  0
 19 33  1  0  0  0  0
 19 40  1  0  0  0  0
 19 44  2  0  0  0  0
 20 41  1  0  0  0  0
 20 43  1  0  0  0  0
 20 45  2  0  0  0  0
 21 42  1  0  0  0  0
 21 46  2  0  0  0  0
 21 48  1  0  0  0  0
 22 32  1  0  0  0  0
 23 32  1  0  0  0  0
 24 34  1  0  0  0  0
 25 34  1  0  0  0  0
 26 43  1  0  0  0  0
 27 35  1  0  0  0  0
 28 36  1  0  0  0  0
 29 43  1  0  0  0  0
 30 48  1  0  0  0  0
 31 35  1  0  0  0  0
 31 37  1  0  0  0  0
 33 34  1  0  0  0  0
 33 41  1  0  0  0  0
 35 40  1  0  0  0  0
 36 37  1  0  0  0  0
 36 42  1  0  0  0  0
 37 47  1  0  0  0  0
 40 51  1  0  0  0  0
 41 52  1  0  0  0  0
 42 53  1  0  0  0  0
 47 54  1  0  0  0  0
M  END
> <ref_mols>
x2668_0

> <original SMILES>
CC(C)[C@H](NC(=O)N(C)CC1=CSC(=N1)C(C)C)C(=O)N[C@H](C[C@H](O)[C@H](CC=2C=CC=CC2)NC(=O)OCC3=CN=CS3)CC=4C=CC=CC4

> <Chemgauss4>
0.619766

> <ref_pdb>
x0104_0

$$$$
