@<TRIPOS>MOLECULE
LIG(B-1101)
   34    36     0     0     0
SMALL
USER_CHARGES

@<TRIPOS>ATOM
      1 O1          8.9170    0.7530   21.0260 O.2       1 LIG1101    -0.5601
      2 C1          8.3880   -0.3240   21.3070 C.2       1 LIG1101     0.6578
      3 C2          8.8810   -1.1900   22.4510 C.3       1 LIG1101    -0.1098
      4 C3         10.3220   -0.8940   22.7910 C.ar      1 LIG1101    -0.0685
      5 C4         10.6560    0.0720   23.7350 C.ar      1 LIG1101    -0.1055
      6 C5         11.9780    0.4600   23.9150 C.ar      1 LIG1101    -0.1185
      7 C6         12.9840   -0.1200   23.1530 C.ar      1 LIG1101    -0.1172
      8 C7         11.3360   -1.5050   22.0650 C.ar      1 LIG1101    -0.1121
      9 C8         12.6400   -1.1000   22.2390 C.ar      1 LIG1101     0.0206
     10 Cl1        13.8840   -1.8490   21.2740 Cl        1 LIG1101    -0.0958
     11 N1          7.2820   -0.7860   20.6970 N.am      1 LIG1101    -0.4905
     12 C9          6.5490   -0.1430   19.6820 C.ar      1 LIG1101    -0.0696
     13 C10         5.4330    0.6750   20.0380 C.ar      1 LIG1101    -0.0144
     14 C11         4.9500    0.8250   21.3660 C.ar      1 LIG1101    -0.1278
     15 C12         3.8480    1.5940   21.6320 C.ar      1 LIG1101    -0.1063
     16 C13         3.1900    2.2660   20.6100 C.ar      1 LIG1101    -0.1324
     17 C14         3.6360    2.1770   19.3200 C.ar      1 LIG1101    -0.0971
     18 C15         4.7660    1.3780   19.0010 C.ar      1 LIG1101    -0.1565
     19 C16         5.2760    1.2450   17.6880 C.ar      1 LIG1101     0.4271
     20 N2          6.3230    0.4910   17.3650 N.ar      1 LIG1101    -0.6586
     21 C17         6.9280   -0.1850   18.3470 C.ar      1 LIG1101     0.4090
     22 H1          8.2585   -0.9987   23.3375 H         1 LIG1101     0.0696
     23 H2          8.7924   -2.2477   22.1620 H         1 LIG1101     0.0696
     24 H3          9.8798    0.5249   24.3340 H         1 LIG1101     0.1361
     25 H4         12.2237    1.2137   24.6485 H         1 LIG1101     0.1386
     26 H5         14.0125    0.1874   23.2714 H         1 LIG1101     0.1475
     27 H6         11.1023   -2.2949   21.3665 H         1 LIG1101     0.1451
     28 H7          6.9455   -1.6791   20.9956 H         1 LIG1101     0.3166
     29 H8          5.4590    0.3256   22.1771 H         1 LIG1101     0.1314
     30 H9          3.4873    1.6786   22.6465 H         1 LIG1101     0.1358
     31 H10         2.3192    2.8636   20.8357 H         1 LIG1101     0.1378
     32 H11         3.1248    2.7186   18.5378 H         1 LIG1101     0.1383
     33 H12         4.7834    1.7909   16.8970 H         1 LIG1101     0.0248
     34 H13         7.7704   -0.8073   18.0834 H         1 LIG1101     0.0351
@<TRIPOS>BOND
     1    1    2 2
     2    2    3 1
     3    2   11 am
     4    3    4 1
     5    4    5 ar
     6    4    8 ar
     7    5    6 ar
     8    6    7 ar
     9    7    9 ar
    10    8    9 ar
    11    9   10 1
    12   11   12 1
    13   12   13 ar
    14   12   21 ar
    15   13   14 ar
    16   13   18 ar
    17   14   15 ar
    18   15   16 ar
    19   16   17 ar
    20   17   18 ar
    21   18   19 ar
    22   19   20 ar
    23   20   21 ar
    24    3   22 1
    25    3   23 1
    26    5   24 1
    27    6   25 1
    28    7   26 1
    29    8   27 1
    30   11   28 1
    31   14   29 1
    32   15   30 1
    33   16   31 1
    34   17   32 1
    35   19   33 1
    36   21   34 1
