LIG(B-1101)
  -OEChem-02212116033D

 34 36  0     0  0  0  0  0  0999 V2000
    8.9170    0.7530   21.0260 O   0  0  0  0  0  0  0  0  0  0  0  0
    8.3880   -0.3240   21.3070 C   0  0  0  0  0  0  0  0  0  0  0  0
    8.8810   -1.1900   22.4510 C   0  0  0  0  0  0  0  0  0  0  0  0
   10.3220   -0.8940   22.7910 C   0  0  0  0  0  0  0  0  0  0  0  0
   10.6560    0.0720   23.7350 C   0  0  0  0  0  0  0  0  0  0  0  0
   11.9780    0.4600   23.9150 C   0  0  0  0  0  0  0  0  0  0  0  0
   12.9840   -0.1200   23.1530 C   0  0  0  0  0  0  0  0  0  0  0  0
   11.3360   -1.5050   22.0650 C   0  0  0  0  0  0  0  0  0  0  0  0
   12.6400   -1.1000   22.2390 C   0  0  0  0  0  0  0  0  0  0  0  0
   13.8840   -1.8490   21.2740 Cl  0  0  0  0  0  0  0  0  0  0  0  0
    7.2820   -0.7860   20.6970 N   0  0  0  0  0  0  0  0  0  0  0  0
    6.5490   -0.1430   19.6820 C   0  0  0  0  0  0  0  0  0  0  0  0
    5.4330    0.6750   20.0380 C   0  0  0  0  0  0  0  0  0  0  0  0
    4.9500    0.8250   21.3660 C   0  0  0  0  0  0  0  0  0  0  0  0
    3.8480    1.5940   21.6320 C   0  0  0  0  0  0  0  0  0  0  0  0
    3.1900    2.2660   20.6100 C   0  0  0  0  0  0  0  0  0  0  0  0
    3.6360    2.1770   19.3200 C   0  0  0  0  0  0  0  0  0  0  0  0
    4.7660    1.3780   19.0010 C   0  0  0  0  0  0  0  0  0  0  0  0
    5.2760    1.2450   17.6880 C   0  0  0  0  0  0  0  0  0  0  0  0
    6.3230    0.4910   17.3650 N   0  0  0  0  0  0  0  0  0  0  0  0
    6.9280   -0.1850   18.3470 C   0  0  0  0  0  0  0  0  0  0  0  0
    8.2585   -0.9987   23.3375 H   0  0  0  0  0  0  0  0  0  0  0  0
    8.7924   -2.2477   22.1620 H   0  0  0  0  0  0  0  0  0  0  0  0
    9.8798    0.5249   24.3340 H   0  0  0  0  0  0  0  0  0  0  0  0
   12.2237    1.2137   24.6485 H   0  0  0  0  0  0  0  0  0  0  0  0
   14.0125    0.1874   23.2714 H   0  0  0  0  0  0  0  0  0  0  0  0
   11.1023   -2.2949   21.3665 H   0  0  0  0  0  0  0  0  0  0  0  0
    6.9455   -1.6791   20.9956 H   0  0  0  0  0  0  0  0  0  0  0  0
    5.4590    0.3256   22.1771 H   0  0  0  0  0  0  0  0  0  0  0  0
    3.4873    1.6786   22.6465 H   0  0  0  0  0  0  0  0  0  0  0  0
    2.3192    2.8636   20.8357 H   0  0  0  0  0  0  0  0  0  0  0  0
    3.1248    2.7186   18.5378 H   0  0  0  0  0  0  0  0  0  0  0  0
    4.7834    1.7909   16.8970 H   0  0  0  0  0  0  0  0  0  0  0  0
    7.7704   -0.8073   18.0834 H   0  0  0  0  0  0  0  0  0  0  0  0
  1  2  2  0  0  0  0
  2  3  1  0  0  0  0
  2 11  1  0  0  0  0
  3  4  1  0  0  0  0
  4  5  2  0  0  0  0
  4  8  1  0  0  0  0
  5  6  1  0  0  0  0
  6  7  2  0  0  0  0
  7  9  1  0  0  0  0
  8  9  2  0  0  0  0
  9 10  1  0  0  0  0
 11 12  1  0  0  0  0
 12 13  2  0  0  0  0
 12 21  1  0  0  0  0
 13 14  1  0  0  0  0
 13 18  1  0  0  0  0
 14 15  2  0  0  0  0
 15 16  1  0  0  0  0
 16 17  2  0  0  0  0
 17 18  1  0  0  0  0
 18 19  2  0  0  0  0
 19 20  1  0  0  0  0
 20 21  2  0  0  0  0
  3 22  1  0  0  0  0
  3 23  1  0  0  0  0
  5 24  1  0  0  0  0
  6 25  1  0  0  0  0
  7 26  1  0  0  0  0
  8 27  1  0  0  0  0
 11 28  1  0  0  0  0
 14 29  1  0  0  0  0
 15 30  1  0  0  0  0
 16 31  1  0  0  0  0
 17 32  1  0  0  0  0
 19 33  1  0  0  0  0
 21 34  1  0  0  0  0
M  END
$$$$
