CHR-SOS-709-11
 OpenBabel03242009303D

 26 27  0  0  0  0  0  0  0  0999 V2000
   12.0484   -1.2115   22.7781 C   0  0  0  0  0  0  0  0  0  0  0  0
   11.1749   -2.1362   23.3394 C   0  0  0  0  0  0  0  0  0  0  0  0
    7.5168   -5.6078   27.5996 C   0  0  0  0  0  0  0  0  0  0  0  0
    6.3219   -6.0178   27.0084 C   0  0  0  0  0  0  0  0  0  0  0  0
    7.0625   -5.1218   24.8904 C   0  0  0  0  0  0  0  0  0  0  0  0
   12.1911    0.0130   23.4107 C   0  0  0  0  0  0  0  0  0  0  0  0
   10.6935   -0.5615   25.0555 C   0  0  0  0  0  0  0  0  0  0  0  0
    8.2574   -4.7117   25.4817 C   0  0  0  0  0  0  0  0  0  0  0  0
   10.4805   -1.8128   24.4998 C   0  0  0  0  0  0  0  0  0  0  0  0
    8.4846   -4.9547   26.8363 C   0  0  0  0  0  0  0  0  0  0  0  0
    6.0947   -5.7749   25.6537 C   0  0  0  0  0  0  0  0  0  0  0  0
    9.2537   -4.0293   24.6677 C   0  0  0  0  0  0  0  0  0  0  0  0
   11.5338    0.3630   24.5390 N   0  0  0  0  0  0  0  0  0  0  0  0
    9.5828   -2.7345   25.0953 N   0  0  0  0  0  0  0  0  0  0  0  0
    9.7371   -4.5552   23.6568 O   0  0  0  0  0  0  0  0  0  0  0  0
    9.6447   -4.5598   27.4328 O   0  0  0  0  0  0  0  0  0  0  0  0
    4.6213   -6.2827   24.9237 Cl  0  0  0  0  0  0  0  0  0  0  0  0
   12.6001   -1.4420   21.8739 H   0  0  0  0  0  0  0  0  0  0  0  0
   11.0428   -3.1050   22.8648 H   0  0  0  0  0  0  0  0  0  0  0  0
    7.6880   -5.7993   28.6555 H   0  0  0  0  0  0  0  0  0  0  0  0
    5.5776   -6.5268   27.6152 H   0  0  0  0  0  0  0  0  0  0  0  0
    6.8870   -4.9304   23.8338 H   0  0  0  0  0  0  0  0  0  0  0  0
   12.8596    0.7689   23.0121 H   0  0  0  0  0  0  0  0  0  0  0  0
   10.1806   -0.2513   25.9611 H   0  0  0  0  0  0  0  0  0  0  0  0
    9.1176   -2.4159   25.9417 H   0  0  0  0  0  0  0  0  0  0  0  0
   10.2207   -4.1219   26.7869 H   0  0  0  0  0  0  0  0  0  0  0  0
  1  2  2  0  0  0  0
  1  6  1  0  0  0  0
  1 18  1  0  0  0  0
  2  9  1  0  0  0  0
  2 19  1  0  0  0  0
  3  4  2  0  0  0  0
  3 10  1  0  0  0  0
  3 20  1  0  0  0  0
  4 11  1  0  0  0  0
  4 21  1  0  0  0  0
  5  8  1  0  0  0  0
  5 11  2  0  0  0  0
  5 22  1  0  0  0  0
  6 13  2  0  0  0  0
  6 23  1  0  0  0  0
  7  9  2  0  0  0  0
  7 13  1  0  0  0  0
  7 24  1  0  0  0  0
  8 10  2  0  0  0  0
  8 12  1  0  0  0  0
  9 14  1  0  0  0  0
 10 16  1  0  0  0  0
 11 17  1  0  0  0  0
 12 14  1  0  0  0  0
 12 15  2  0  0  0  0
 14 25  1  0  0  0  0
 16 26  1  0  0  0  0
M  END
>  <Chemgauss4 Score>
-5.2307300567627

>  <Number of Confs>
10

$$$$
