TRY-UNI-714-13
 OpenBabel03242009303D

 42 43  0  0  1  0  0  0  0  0999 V2000
    7.6501   -6.0087   28.1427 C   0  0  0  0  0  0  0  0  0  0  0  0
    8.2204   -5.5618   25.9626 C   0  0  0  0  0  0  0  0  0  0  0  0
    7.9733   -3.7475   27.4803 C   0  0  0  0  0  0  0  0  0  0  0  0
    7.6621   -4.6644   28.4781 C   0  0  0  0  0  0  0  0  0  0  0  0
    8.2590   -4.1965   26.1957 C   0  0  0  0  0  0  0  0  0  0  0  0
    8.8874   -3.6232   23.8246 C   0  0  0  0  0  0  0  0  0  0  0  0
   13.1228   -0.5066   23.2348 C   0  0  0  0  0  0  0  0  0  0  0  0
   12.8753   -1.7808   24.0361 C   0  0  0  0  0  0  0  0  0  0  0  0
   11.8953    0.3991   23.2278 C   0  0  0  0  0  0  0  0  0  0  0  0
   11.6346   -2.5232   23.5449 C   0  0  0  0  0  0  0  0  0  0  0  0
   10.6528   -0.3396   22.7355 C   0  0  0  0  0  0  0  0  0  0  0  0
   10.3955   -1.6177   23.5450 C   0  0  0  0  0  0  0  0  0  0  0  0
    8.0004   -2.2829   27.7871 C   0  0  0  0  0  0  0  0  0  0  0  0
    7.9577   -1.4508   22.9858 C   0  0  0  0  0  0  0  0  0  0  0  0
    9.1805   -2.3661   22.9999 C   0  0  2  0  0  0  0  0  0  0  0  0
    7.9222   -6.4828   26.9063 N   0  0  0  0  0  0  0  0  0  0  0  0
    7.3663   -4.2594   29.7921 N   0  0  0  0  0  0  0  0  0  0  0  0
    8.5824   -3.3051   25.1450 N   0  0  0  0  0  0  0  0  0  0  0  0
    8.9251   -4.7436   23.3241 O   0  0  0  0  0  0  0  0  0  0  0  0
    7.4145   -6.7722   28.8783 H   0  0  0  0  0  0  0  0  0  0  0  0
    8.4346   -5.9736   24.9808 H   0  0  0  0  0  0  0  0  0  0  0  0
   13.9775    0.0342   23.6567 H   0  0  0  0  0  0  0  0  0  0  0  0
   13.3871   -0.7702   22.2033 H   0  0  0  0  0  0  0  0  0  0  0  0
   13.7504   -2.4367   23.9637 H   0  0  0  0  0  0  0  0  0  0  0  0
   12.7529   -1.5278   25.0965 H   0  0  0  0  0  0  0  0  0  0  0  0
   11.7159    0.7792   24.2411 H   0  0  0  0  0  0  0  0  0  0  0  0
   12.0840    1.2697   22.5894 H   0  0  0  0  0  0  0  0  0  0  0  0
   11.8198   -2.9027   22.5317 H   0  0  0  0  0  0  0  0  0  0  0  0
   11.4596   -3.3973   24.1835 H   0  0  0  0  0  0  0  0  0  0  0  0
    9.7850    0.3273   22.8029 H   0  0  0  0  0  0  0  0  0  0  0  0
   10.7794   -0.5890   21.6740 H   0  0  0  0  0  0  0  0  0  0  0  0
   10.1775   -1.3310   24.5824 H   0  0  0  0  0  0  0  0  0  0  0  0
    9.0031   -1.9842   28.1106 H   0  0  0  0  0  0  0  0  0  0  0  0
    7.7236   -1.6916   26.9070 H   0  0  0  0  0  0  0  0  0  0  0  0
    7.2857   -2.0340   28.5798 H   0  0  0  0  0  0  0  0  0  0  0  0
    7.7050   -1.1211   23.9990 H   0  0  0  0  0  0  0  0  0  0  0  0
    7.0814   -1.9613   22.5731 H   0  0  0  0  0  0  0  0  0  0  0  0
    8.1376   -0.5615   22.3715 H   0  0  0  0  0  0  0  0  0  0  0  0
    9.4062   -2.6775   21.9721 H   0  0  0  0  0  0  0  0  0  0  0  0
    7.1010   -4.9470   30.4708 H   0  0  0  0  0  0  0  0  0  0  0  0
    7.3324   -3.2819   30.0093 H   0  0  0  0  0  0  0  0  0  0  0  0
    8.5933   -2.3156   25.3828 H   0  0  0  0  0  0  0  0  0  0  0  0
  1  4  2  0  0  0  0
  1 16  1  0  0  0  0
  1 20  1  0  0  0  0
  2  5  1  0  0  0  0
  2 16  2  0  0  0  0
  2 21  1  0  0  0  0
  3  4  1  0  0  0  0
  3  5  2  0  0  0  0
  3 13  1  0  0  0  0
  4 17  1  0  0  0  0
  5 18  1  0  0  0  0
  6 15  1  0  0  0  0
  6 18  1  0  0  0  0
  6 19  2  0  0  0  0
  7  8  1  0  0  0  0
  7  9  1  0  0  0  0
  7 22  1  0  0  0  0
  7 23  1  0  0  0  0
  8 10  1  0  0  0  0
  8 24  1  0  0  0  0
  8 25  1  0  0  0  0
  9 11  1  0  0  0  0
  9 26  1  0  0  0  0
  9 27  1  0  0  0  0
 10 12  1  0  0  0  0
 10 28  1  0  0  0  0
 10 29  1  0  0  0  0
 11 12  1  0  0  0  0
 11 30  1  0  0  0  0
 11 31  1  0  0  0  0
 12 15  1  0  0  0  0
 12 32  1  0  0  0  0
 13 33  1  0  0  0  0
 13 34  1  0  0  0  0
 13 35  1  0  0  0  0
 14 15  1  0  0  0  0
 14 36  1  0  0  0  0
 14 37  1  0  0  0  0
 14 38  1  0  0  0  0
 15 39  1  6  0  0  0
 17 40  1  0  0  0  0
 17 41  1  0  0  0  0
 18 42  1  0  0  0  0
M  END
>  <Chemgauss4 Score>
-4.53157234191895

>  <Number of Confs>
23

$$$$
