DAR-DIA-23a-18
 OpenBabel03242009303D

 34 36  0  0  0  0  0  0  0  0999 V2000
    9.6079    1.5032   23.9444 C   0  0  0  0  0  0  0  0  0  0  0  0
   11.5419   -1.2901   22.4235 C   0  0  0  0  0  0  0  0  0  0  0  0
    6.7723   -5.3400   24.3141 C   0  0  0  0  0  0  0  0  0  0  0  0
   10.9666   -0.0337   22.6140 C   0  0  0  0  0  0  0  0  0  0  0  0
    7.9447   -5.2848   25.0555 C   0  0  0  0  0  0  0  0  0  0  0  0
   11.3468   -2.2971   23.3689 C   0  0  0  0  0  0  0  0  0  0  0  0
   10.0013   -0.7912   24.6952 C   0  0  0  0  0  0  0  0  0  0  0  0
    5.6035   -4.9430   24.9338 C   0  0  0  0  0  0  0  0  0  0  0  0
    8.9556   -4.3139   28.4687 C   0  0  0  0  0  0  0  0  0  0  0  0
    6.6897   -4.0205   28.2387 C   0  0  0  0  0  0  0  0  0  0  0  0
   10.1964    0.2157   23.7498 C   0  0  0  0  0  0  0  0  0  0  0  0
    7.9165   -4.8382   26.3836 C   0  0  0  0  0  0  0  0  0  0  0  0
    9.0747   -4.7665   27.1672 C   0  0  0  0  0  0  0  0  0  0  0  0
    6.6762   -4.4558   26.9241 C   0  0  0  0  0  0  0  0  0  0  0  0
   10.5765   -2.0476   24.5047 C   0  0  0  0  0  0  0  0  0  0  0  0
   10.8728   -4.3711   25.4312 C   0  0  0  0  0  0  0  0  0  0  0  0
   10.4242   -5.1548   26.6615 C   0  0  0  0  0  0  0  0  0  0  0  0
    9.1299    2.5488   24.1025 N   0  0  0  0  0  0  0  0  0  0  0  0
    7.7881   -3.9377   29.0266 N   0  0  0  0  0  0  0  0  0  0  0  0
    5.5330   -4.5061   26.2120 N   0  0  0  0  0  0  0  0  0  0  0  0
   10.3777   -3.0699   25.4630 N   0  0  0  0  0  0  0  0  0  0  0  0
   11.5756   -4.8776   24.5624 O   0  0  0  0  0  0  0  0  0  0  0  0
   12.1409   -1.4846   21.5386 H   0  0  0  0  0  0  0  0  0  0  0  0
    6.7750   -5.6826   23.2859 H   0  0  0  0  0  0  0  0  0  0  0  0
   11.1286    0.7409   21.8683 H   0  0  0  0  0  0  0  0  0  0  0  0
    8.8715   -5.5947   24.5794 H   0  0  0  0  0  0  0  0  0  0  0  0
   11.7999   -3.2724   23.2100 H   0  0  0  0  0  0  0  0  0  0  0  0
    9.4014   -0.5999   25.5828 H   0  0  0  0  0  0  0  0  0  0  0  0
    4.6571   -4.9648   24.4033 H   0  0  0  0  0  0  0  0  0  0  0  0
    9.8191   -4.2373   29.1220 H   0  0  0  0  0  0  0  0  0  0  0  0
    5.7697   -3.7082   28.7262 H   0  0  0  0  0  0  0  0  0  0  0  0
   11.1820   -5.0160   27.4497 H   0  0  0  0  0  0  0  0  0  0  0  0
   10.4423   -6.2277   26.4099 H   0  0  0  0  0  0  0  0  0  0  0  0
    9.8064   -2.8256   26.2693 H   0  0  0  0  0  0  0  0  0  0  0  0
  1 11  1  0  0  0  0
  1 18  3  0  0  0  0
  2  4  2  0  0  0  0
  2  6  1  0  0  0  0
  2 23  1  0  0  0  0
  3  5  2  0  0  0  0
  3  8  1  0  0  0  0
  3 24  1  0  0  0  0
  4 11  1  0  0  0  0
  4 25  1  0  0  0  0
  5 12  1  0  0  0  0
  5 26  1  0  0  0  0
  6 15  2  0  0  0  0
  6 27  1  0  0  0  0
  7 11  2  0  0  0  0
  7 15  1  0  0  0  0
  7 28  1  0  0  0  0
  8 20  2  0  0  0  0
  8 29  1  0  0  0  0
  9 13  1  0  0  0  0
  9 19  2  0  0  0  0
  9 30  1  0  0  0  0
 10 14  2  0  0  0  0
 10 19  1  0  0  0  0
 10 31  1  0  0  0  0
 12 13  2  0  0  0  0
 12 14  1  0  0  0  0
 13 17  1  0  0  0  0
 14 20  1  0  0  0  0
 15 21  1  0  0  0  0
 16 17  1  0  0  0  0
 16 21  1  0  0  0  0
 16 22  2  0  0  0  0
 17 32  1  0  0  0  0
 17 33  1  0  0  0  0
 21 34  1  0  0  0  0
M  END
>  <Chemgauss4 Score>
-5.23719596862793

>  <Number of Confs>
72

$$$$
