GIA-UNK-995-16
 OpenBabel03242009303D

 35 36  0  0  0  0  0  0  0  0999 V2000
   10.6808   -1.7443   23.2323 C   0  0  0  0  0  0  0  0  0  0  0  0
   11.9054   -0.1653   24.5903 C   0  0  0  0  0  0  0  0  0  0  0  0
   11.7073   -1.7284   22.2881 C   0  0  0  0  0  0  0  0  0  0  0  0
   12.9320   -0.1494   23.6460 C   0  0  0  0  0  0  0  0  0  0  0  0
   10.7798   -0.9627   24.3834 C   0  0  0  0  0  0  0  0  0  0  0  0
   12.8329   -0.9310   22.4949 C   0  0  0  0  0  0  0  0  0  0  0  0
    9.7066   -0.9796   25.3704 C   0  0  0  0  0  0  0  0  0  0  0  0
    8.6111   -5.3521   27.7715 C   0  0  0  0  0  0  0  0  0  0  0  0
    8.8555   -2.9211   28.2647 C   0  0  0  0  0  0  0  0  0  0  0  0
   10.6022   -4.1591   26.8880 C   0  0  0  0  0  0  0  0  0  0  0  0
    8.3355   -2.2963   26.9697 C   0  0  0  0  0  0  0  0  0  0  0  0
   10.0155   -3.5049   25.6381 C   0  0  0  0  0  0  0  0  0  0  0  0
    9.6046   -4.2344   28.0436 C   0  0  0  0  0  0  0  0  0  0  0  0
    5.8996   -5.2890   28.1781 C   0  0  0  0  0  0  0  0  0  0  0  0
    9.4004   -2.2145   25.9707 N   0  0  0  0  0  0  0  0  0  0  0  0
    9.1079    0.0601   25.6514 O   0  0  0  0  0  0  0  0  0  0  0  0
    8.6254   -6.0244   26.7474 O   0  0  0  0  0  0  0  0  0  0  0  0
   13.8188   -0.9157   21.5883 F   0  0  0  0  0  0  0  0  0  0  0  0
    5.6872   -3.9497   28.0783 F   0  0  0  0  0  0  0  0  0  0  0  0
    7.4400   -5.5908   29.0679 S   0  0  0  0  0  0  0  0  0  0  0  0
    9.8083   -2.3694   23.0611 H   0  0  0  0  0  0  0  0  0  0  0  0
   11.9933    0.4473   25.4842 H   0  0  0  0  0  0  0  0  0  0  0  0
   11.6305   -2.3369   21.3919 H   0  0  0  0  0  0  0  0  0  0  0  0
   13.8084    0.4718   23.8068 H   0  0  0  0  0  0  0  0  0  0  0  0
    9.5359   -2.2058   28.7451 H   0  0  0  0  0  0  0  0  0  0  0  0
    8.0158   -3.0678   28.9549 H   0  0  0  0  0  0  0  0  0  0  0  0
   10.9679   -5.1609   26.6319 H   0  0  0  0  0  0  0  0  0  0  0  0
   11.4747   -3.5766   27.2109 H   0  0  0  0  0  0  0  0  0  0  0  0
    7.5283   -2.9029   26.5430 H   0  0  0  0  0  0  0  0  0  0  0  0
    7.9231   -1.3034   27.1769 H   0  0  0  0  0  0  0  0  0  0  0  0
   10.7997   -3.3936   24.8850 H   0  0  0  0  0  0  0  0  0  0  0  0
    9.2352   -4.1348   25.1958 H   0  0  0  0  0  0  0  0  0  0  0  0
   10.1229   -4.5196   28.9515 H   0  0  0  0  0  0  0  0  0  0  0  0
    5.0510   -5.7254   28.7113 H   0  0  0  0  0  0  0  0  0  0  0  0
    5.9493   -5.6980   27.1656 H   0  0  0  0  0  0  0  0  0  0  0  0
  1  3  2  0  0  0  0
  1  5  1  0  0  0  0
  1 21  1  0  0  0  0
  2  4  1  0  0  0  0
  2  5  2  0  0  0  0
  2 22  1  0  0  0  0
  3  6  1  0  0  0  0
  3 23  1  0  0  0  0
  4  6  2  0  0  0  0
  4 24  1  0  0  0  0
  5  7  1  0  0  0  0
  6 18  1  0  0  0  0
  7 15  1  0  0  0  0
  7 16  2  0  0  0  0
  8 13  1  0  0  0  0
  8 17  2  0  0  0  0
  8 20  1  0  0  0  0
  9 11  1  0  0  0  0
  9 13  1  0  0  0  0
  9 25  1  0  0  0  0
  9 26  1  0  0  0  0
 10 12  1  0  0  0  0
 10 13  1  0  0  0  0
 10 27  1  0  0  0  0
 10 28  1  0  0  0  0
 11 15  1  0  0  0  0
 11 29  1  0  0  0  0
 11 30  1  0  0  0  0
 12 15  1  0  0  0  0
 12 31  1  0  0  0  0
 12 32  1  0  0  0  0
 13 33  1  0  0  0  0
 14 19  1  0  0  0  0
 14 20  1  0  0  0  0
 14 34  1  0  0  0  0
 14 35  1  0  0  0  0
M  END
>  <Chemgauss4 Score>
-5.55122423171997

>  <Number of Confs>
200

$$$$
