DAV-AUT-fa2-2
 OpenBabel03242009303D

 44 46  0  0  1  0  0  0  0  0999 V2000
    8.0887   -3.7809   22.8204 C   0  0  0  0  0  0  0  0  0  0  0  0
    7.9434   -4.6523   25.0478 C   0  0  0  0  0  0  0  0  0  0  0  0
    8.5759   -3.7777   24.1378 C   0  0  0  0  0  0  0  0  0  0  0  0
    6.8871   -5.4476   24.5944 C   0  0  0  0  0  0  0  0  0  0  0  0
    7.0315   -4.6137   22.4752 C   0  0  0  0  0  0  0  0  0  0  0  0
   11.6926   -2.3303   23.3577 C   0  0  0  0  0  0  0  0  0  0  0  0
   10.0875   -0.5894   24.1902 C   0  0  0  0  0  0  0  0  0  0  0  0
   10.0343   -2.9121   25.9404 C   0  0  0  0  0  0  0  0  0  0  0  0
   12.3333   -1.2350   22.5148 C   0  0  0  0  0  0  0  0  0  0  0  0
   10.8170    0.4080   23.2993 C   0  0  0  0  0  0  0  0  0  0  0  0
    8.3675   -4.7353   26.4984 C   0  0  1  0  0  0  0  0  0  0  0  0
   10.2239   -2.0081   23.6354 C   0  0  0  0  0  0  0  0  0  0  0  0
    9.8027   -4.2386   26.6366 C   0  0  0  0  0  0  0  0  0  0  0  0
    7.3942   -3.9451   27.3788 C   0  0  0  0  0  0  0  0  0  0  0  0
    7.7132   -4.2924   19.7626 C   0  0  0  0  0  0  0  0  0  0  0  0
    6.4165   -5.4497   23.3315 N   0  0  0  0  0  0  0  0  0  0  0  0
    5.9898   -6.1593   20.6018 N   0  0  0  0  0  0  0  0  0  0  0  0
    9.6452   -2.9761   24.5334 N   0  0  0  0  0  0  0  0  0  0  0  0
    5.4416   -3.5557   20.7193 O   0  0  0  0  0  0  0  0  0  0  0  0
   12.1868    0.0386   23.1427 O   0  0  0  0  0  0  0  0  0  0  0  0
    6.2840   -6.2789   25.4609 F   0  0  0  0  0  0  0  0  0  0  0  0
   10.1355   -4.1296   27.9471 F   0  0  0  0  0  0  0  0  0  0  0  0
   10.6500   -5.1654   26.1110 F   0  0  0  0  0  0  0  0  0  0  0  0
    6.3695   -4.6773   20.8708 S   0  0  1  0  0  0  0  0  0  0  0  0
    8.5200   -3.1442   22.0538 H   0  0  0  0  0  0  0  0  0  0  0  0
   11.7316   -3.2683   22.7955 H   0  0  0  0  0  0  0  0  0  0  0  0
   12.2496   -2.4807   24.2847 H   0  0  0  0  0  0  0  0  0  0  0  0
   10.4476   -0.5265   25.2179 H   0  0  0  0  0  0  0  0  0  0  0  0
    9.0246   -0.3330   24.1975 H   0  0  0  0  0  0  0  0  0  0  0  0
    9.4860   -2.1064   26.4422 H   0  0  0  0  0  0  0  0  0  0  0  0
   11.0994   -2.6638   26.0209 H   0  0  0  0  0  0  0  0  0  0  0  0
   13.3963   -1.4325   22.3313 H   0  0  0  0  0  0  0  0  0  0  0  0
   11.8383   -1.1816   21.5394 H   0  0  0  0  0  0  0  0  0  0  0  0
   10.3608    0.4192   22.3045 H   0  0  0  0  0  0  0  0  0  0  0  0
   10.7573    1.4266   23.6992 H   0  0  0  0  0  0  0  0  0  0  0  0
    8.3503   -5.7865   26.8153 H   0  0  0  0  0  0  0  0  0  0  0  0
    9.6647   -2.0659   22.6761 H   0  0  0  0  0  0  0  0  0  0  0  0
    7.3980   -2.9002   27.0788 H   0  0  0  0  0  0  0  0  0  0  0  0
    7.6995   -4.0225   28.4193 H   0  0  0  0  0  0  0  0  0  0  0  0
    6.3912   -4.3490   27.2662 H   0  0  0  0  0  0  0  0  0  0  0  0
    7.3352   -4.3224   18.7395 H   0  0  0  0  0  0  0  0  0  0  0  0
    8.0839   -3.2951   20.0042 H   0  0  0  0  0  0  0  0  0  0  0  0
    8.4985   -5.0368   19.9022 H   0  0  0  0  0  0  0  0  0  0  0  0
    5.5852   -6.3144   19.6737 H   0  0  0  0  0  0  0  0  0  0  0  0
  1  3  2  0  0  0  0
  1  5  1  0  0  0  0
  1 25  1  0  0  0  0
  2  3  1  0  0  0  0
  2  4  2  0  0  0  0
  2 11  1  0  0  0  0
  3 18  1  0  0  0  0
  4 16  1  0  0  0  0
  4 21  1  0  0  0  0
  5 16  2  0  0  0  0
  5 24  1  0  0  0  0
  6  9  1  0  0  0  0
  6 12  1  0  0  0  0
  6 26  1  0  0  0  0
  6 27  1  0  0  0  0
  7 10  1  0  0  0  0
  7 12  1  0  0  0  0
  7 28  1  0  0  0  0
  7 29  1  0  0  0  0
  8 13  1  0  0  0  0
  8 18  1  0  0  0  0
  8 30  1  0  0  0  0
  8 31  1  0  0  0  0
  9 20  1  0  0  0  0
  9 32  1  0  0  0  0
  9 33  1  0  0  0  0
 10 20  1  0  0  0  0
 10 34  1  0  0  0  0
 10 35  1  0  0  0  0
 11 13  1  0  0  0  0
 11 14  1  0  0  0  0
 11 36  1  1  0  0  0
 12 18  1  0  0  0  0
 12 37  1  0  0  0  0
 13 22  1  0  0  0  0
 13 23  1  0  0  0  0
 14 38  1  0  0  0  0
 14 39  1  0  0  0  0
 14 40  1  0  0  0  0
 15 24  1  0  0  0  0
 15 41  1  0  0  0  0
 15 42  1  0  0  0  0
 15 43  1  0  0  0  0
 17 24  2  0  0  0  0
 17 44  1  0  0  0  0
 24 19  2  6  0  0  0
M  END
>  <Chemgauss4 Score>
-5.57330226898193

>  <Number of Confs>
13

$$$$
