DAR-DIA-fc9-12
 OpenBabel03242009303D

 33 35  0  0  1  0  0  0  0  0999 V2000
   13.5677   -0.9268   22.3228 C   0  0  0  0  0  0  0  0  0  0  0  0
   13.4617   -0.3789   23.6011 C   0  0  0  0  0  0  0  0  0  0  0  0
   12.4507   -1.4998   21.7147 C   0  0  0  0  0  0  0  0  0  0  0  0
    8.5583   -4.8472   28.5751 C   0  0  0  0  0  0  0  0  0  0  0  0
   12.2388   -0.4041   24.2715 C   0  0  0  0  0  0  0  0  0  0  0  0
   11.2278   -1.5251   22.3851 C   0  0  0  0  0  0  0  0  0  0  0  0
    8.7795   -3.8604   27.6208 C   0  0  0  0  0  0  0  0  0  0  0  0
    8.0919   -6.0772   28.1400 C   0  0  0  0  0  0  0  0  0  0  0  0
    8.0660   -5.3921   25.9472 C   0  0  0  0  0  0  0  0  0  0  0  0
   11.1218   -0.9772   23.6635 C   0  0  0  0  0  0  0  0  0  0  0  0
    8.5311   -4.1300   26.2796 C   0  0  0  0  0  0  0  0  0  0  0  0
    7.8301   -2.0043   23.2642 C   0  0  0  0  0  0  0  0  0  0  0  0
    8.6361   -0.9589   23.4483 C   0  0  0  0  0  0  0  0  0  0  0  0
    9.7438   -2.1411   25.4271 C   0  0  0  0  0  0  0  0  0  0  0  0
    8.0210   -3.2857   23.9928 C   0  0  0  0  0  0  0  0  0  0  0  0
    9.7898   -1.0052   24.3931 C   0  0  1  0  0  0  0  0  0  0  0  0
    7.8391   -6.3762   26.8460 N   0  0  0  0  0  0  0  0  0  0  0  0
    8.7515   -3.1231   25.2625 N   0  0  0  0  0  0  0  0  0  0  0  0
   10.5913   -2.1368   26.3268 O   0  0  0  0  0  0  0  0  0  0  0  0
   14.5197   -0.9058   21.8004 H   0  0  0  0  0  0  0  0  0  0  0  0
   14.3310    0.0683   24.0742 H   0  0  0  0  0  0  0  0  0  0  0  0
   12.5326   -1.9255   20.7190 H   0  0  0  0  0  0  0  0  0  0  0  0
    8.7452   -4.6593   29.6262 H   0  0  0  0  0  0  0  0  0  0  0  0
   12.1656    0.0250   25.2673 H   0  0  0  0  0  0  0  0  0  0  0  0
   10.3629   -1.9738   21.9036 H   0  0  0  0  0  0  0  0  0  0  0  0
    9.1453   -2.8858   27.9330 H   0  0  0  0  0  0  0  0  0  0  0  0
    7.9026   -6.8799   28.8450 H   0  0  0  0  0  0  0  0  0  0  0  0
    7.8541   -5.6624   24.9170 H   0  0  0  0  0  0  0  0  0  0  0  0
    7.0146   -1.9344   22.5510 H   0  0  0  0  0  0  0  0  0  0  0  0
    8.4596   -0.0445   22.8887 H   0  0  0  0  0  0  0  0  0  0  0  0
    7.0377   -3.7114   24.2259 H   0  0  0  0  0  0  0  0  0  0  0  0
    8.5697   -3.9978   23.3662 H   0  0  0  0  0  0  0  0  0  0  0  0
    9.7406   -0.0687   24.9947 H   0  0  0  0  0  0  0  0  0  0  0  0
  1  2  1  0  0  0  0
  1  3  2  0  0  0  0
  1 20  1  0  0  0  0
  2  5  2  0  0  0  0
  2 21  1  0  0  0  0
  3  6  1  0  0  0  0
  3 22  1  0  0  0  0
  4  7  2  0  0  0  0
  4  8  1  0  0  0  0
  4 23  1  0  0  0  0
  5 10  1  0  0  0  0
  5 24  1  0  0  0  0
  6 10  2  0  0  0  0
  6 25  1  0  0  0  0
  7 11  1  0  0  0  0
  7 26  1  0  0  0  0
  8 17  2  0  0  0  0
  8 27  1  0  0  0  0
  9 11  2  0  0  0  0
  9 17  1  0  0  0  0
  9 28  1  0  0  0  0
 10 16  1  0  0  0  0
 11 18  1  0  0  0  0
 12 13  2  0  0  0  0
 12 15  1  0  0  0  0
 12 29  1  0  0  0  0
 13 16  1  0  0  0  0
 13 30  1  0  0  0  0
 14 16  1  0  0  0  0
 14 18  1  0  0  0  0
 14 19  2  0  0  0  0
 15 18  1  0  0  0  0
 15 31  1  0  0  0  0
 15 32  1  0  0  0  0
 16 33  1  1  0  0  0
M  END
>  <Chemgauss4 Score>
-5.35490894317627

>  <Number of Confs>
8

$$$$
