NIM-UNI-36e-3
 OpenBabel03242009303D

 30 32  0  0  0  0  0  0  0  0999 V2000
   12.0444   -1.4227   22.6294 C   0  0  0  0  0  0  0  0  0  0  0  0
    6.6828   -2.5778   26.2680 C   0  0  0  0  0  0  0  0  0  0  0  0
   11.4353   -2.4350   23.3626 C   0  0  0  0  0  0  0  0  0  0  0  0
    6.5151   -3.7355   27.0486 C   0  0  0  0  0  0  0  0  0  0  0  0
   12.1221   -0.1636   23.2024 C   0  0  0  0  0  0  0  0  0  0  0  0
   11.0574   -0.8690   25.1121 C   0  0  0  0  0  0  0  0  0  0  0  0
    7.9121   -2.2821   25.6626 C   0  0  0  0  0  0  0  0  0  0  0  0
   10.9297   -2.1611   24.6285 C   0  0  0  0  0  0  0  0  0  0  0  0
    8.9685   -3.1501   25.8718 C   0  0  0  0  0  0  0  0  0  0  0  0
    8.7683   -4.3131   26.6199 C   0  0  0  0  0  0  0  0  0  0  0  0
    7.5693   -4.6296   27.2260 C   0  0  0  0  0  0  0  0  0  0  0  0
   10.9220   -4.3921   25.8413 C   0  0  0  0  0  0  0  0  0  0  0  0
    8.0303   -1.0731   24.8629 C   0  0  0  0  0  0  0  0  0  0  0  0
    7.7697    0.2381   25.5457 C   0  0  0  0  0  0  0  0  0  0  0  0
   11.6425    0.1404   24.4292 N   0  0  0  0  0  0  0  0  0  0  0  0
    9.9368   -5.0683   26.6080 N   0  0  0  0  0  0  0  0  0  0  0  0
   10.3038   -3.1713   25.3990 N   0  0  0  0  0  0  0  0  0  0  0  0
   12.0642   -4.7897   25.6556 O   0  0  0  0  0  0  0  0  0  0  0  0
    8.3236   -1.0437   23.6659 O   0  0  0  0  0  0  0  0  0  0  0  0
    7.3325   -6.1995   28.2410 Br  0  0  0  0  0  0  0  0  0  0  0  0
   12.4456   -1.6135   21.6405 H   0  0  0  0  0  0  0  0  0  0  0  0
    5.8345   -1.9088   26.1372 H   0  0  0  0  0  0  0  0  0  0  0  0
   11.3601   -3.4328   22.9383 H   0  0  0  0  0  0  0  0  0  0  0  0
    5.5437   -3.9247   27.4995 H   0  0  0  0  0  0  0  0  0  0  0  0
   12.5869    0.6602   22.6709 H   0  0  0  0  0  0  0  0  0  0  0  0
   10.6826   -0.5939   26.0935 H   0  0  0  0  0  0  0  0  0  0  0  0
    8.6666    0.6948   25.9933 H   0  0  0  0  0  0  0  0  0  0  0  0
    7.0046    0.1711   26.3346 H   0  0  0  0  0  0  0  0  0  0  0  0
    7.3921    1.0183   24.8609 H   0  0  0  0  0  0  0  0  0  0  0  0
   10.0644   -5.9591   27.0727 H   0  0  0  0  0  0  0  0  0  0  0  0
  1  3  2  0  0  0  0
  1  5  1  0  0  0  0
  1 21  1  0  0  0  0
  2  4  2  0  0  0  0
  2  7  1  0  0  0  0
  2 22  1  0  0  0  0
  3  8  1  0  0  0  0
  3 23  1  0  0  0  0
  4 11  1  0  0  0  0
  4 24  1  0  0  0  0
  5 15  2  0  0  0  0
  5 25  1  0  0  0  0
  6  8  2  0  0  0  0
  6 15  1  0  0  0  0
  6 26  1  0  0  0  0
  7  9  2  0  0  0  0
  7 13  1  0  0  0  0
  8 17  1  0  0  0  0
  9 10  1  0  0  0  0
  9 17  1  0  0  0  0
 10 11  2  0  0  0  0
 10 16  1  0  0  0  0
 11 20  1  0  0  0  0
 12 16  1  0  0  0  0
 12 17  1  0  0  0  0
 12 18  2  0  0  0  0
 13 14  1  0  0  0  0
 13 19  2  0  0  0  0
 14 27  1  0  0  0  0
 14 28  1  0  0  0  0
 14 29  1  0  0  0  0
 16 30  1  0  0  0  0
M  END
>  <Chemgauss4 Score>
-5.72001075744629

>  <Number of Confs>
8

$$$$
