NAU-LAT-ec9-6
 OpenBabel03242009303D

 50 54  0  0  0  0  0  0  0  0999 V2000
    4.5226   -5.4185   22.5191 C   0  0  0  0  0  0  0  0  0  0  0  0
    6.7169   -5.9418   29.0575 C   0  0  0  0  0  0  0  0  0  0  0  0
    5.0914   -6.4974   23.1958 C   0  0  0  0  0  0  0  0  0  0  0  0
    4.9104   -4.1158   22.8326 C   0  0  0  0  0  0  0  0  0  0  0  0
    7.9253   -5.4826   29.5851 C   0  0  0  0  0  0  0  0  0  0  0  0
    6.4079   -5.7630   27.7032 C   0  0  0  0  0  0  0  0  0  0  0  0
    6.0479   -6.2737   24.1861 C   0  0  0  0  0  0  0  0  0  0  0  0
    5.8668   -3.8920   23.8229 C   0  0  0  0  0  0  0  0  0  0  0  0
    7.7498    0.5442   20.7700 C   0  0  0  0  0  0  0  0  0  0  0  0
    8.0915   -1.8207   20.4131 C   0  0  0  0  0  0  0  0  0  0  0  0
    8.9398    0.6067   21.4951 C   0  0  0  0  0  0  0  0  0  0  0  0
    9.2815   -1.7582   21.1382 C   0  0  0  0  0  0  0  0  0  0  0  0
    8.8653   -4.8300   28.7807 C   0  0  0  0  0  0  0  0  0  0  0  0
   10.7924   -2.3483   24.1282 C   0  0  0  0  0  0  0  0  0  0  0  0
    7.3421   -5.1095   26.8824 C   0  0  0  0  0  0  0  0  0  0  0  0
    6.4357   -4.9709   24.4997 C   0  0  0  0  0  0  0  0  0  0  0  0
    7.3257   -0.6696   20.2290 C   0  0  0  0  0  0  0  0  0  0  0  0
    9.7056   -0.5444   21.6791 C   0  0  0  0  0  0  0  0  0  0  0  0
    8.5377   -4.6622   27.4335 C   0  0  0  0  0  0  0  0  0  0  0  0
    7.4236   -4.7394   25.5227 C   0  0  0  0  0  0  0  0  0  0  0  0
   10.6320   -2.3156   25.4907 C   0  0  0  0  0  0  0  0  0  0  0  0
    6.0853   -0.7358   19.4724 C   0  0  0  0  0  0  0  0  0  0  0  0
   10.9899   -0.4762   22.4605 C   0  0  0  0  0  0  0  0  0  0  0  0
   10.5209   -3.4617   26.4595 C   0  0  0  0  0  0  0  0  0  0  0  0
    8.5636   -4.1127   25.2235 N   0  0  0  0  0  0  0  0  0  0  0  0
   10.5825   -1.0172   25.9164 N   0  0  0  0  0  0  0  0  0  0  0  0
   10.7073   -0.2333   24.8511 N   0  0  0  0  0  0  0  0  0  0  0  0
   10.8329   -1.0333   23.7799 N   0  0  0  0  0  0  0  0  0  0  0  0
    9.2168   -4.0804   26.3970 N   0  0  0  0  0  0  0  0  0  0  0  0
    5.3318    0.2170   19.2480 O   0  0  0  0  0  0  0  0  0  0  0  0
    5.8208   -1.9906   19.0156 O   0  0  0  0  0  0  0  0  0  0  0  0
    3.7786   -5.5926   21.7473 H   0  0  0  0  0  0  0  0  0  0  0  0
    6.0050   -6.4456   29.7062 H   0  0  0  0  0  0  0  0  0  0  0  0
    4.7906   -7.5119   22.9511 H   0  0  0  0  0  0  0  0  0  0  0  0
    4.4682   -3.2760   22.3047 H   0  0  0  0  0  0  0  0  0  0  0  0
    8.1403   -5.6343   30.6399 H   0  0  0  0  0  0  0  0  0  0  0  0
    5.4641   -6.1255   27.3072 H   0  0  0  0  0  0  0  0  0  0  0  0
    6.4821   -7.1253   24.7048 H   0  0  0  0  0  0  0  0  0  0  0  0
    6.1584   -2.8704   24.0555 H   0  0  0  0  0  0  0  0  0  0  0  0
    7.1604    1.4470   20.6322 H   0  0  0  0  0  0  0  0  0  0  0  0
    7.7709   -2.7719   19.9963 H   0  0  0  0  0  0  0  0  0  0  0  0
    9.2628    1.5566   21.9127 H   0  0  0  0  0  0  0  0  0  0  0  0
    9.8723   -2.6600   21.2763 H   0  0  0  0  0  0  0  0  0  0  0  0
    9.8033   -4.4740   29.1920 H   0  0  0  0  0  0  0  0  0  0  0  0
   10.8784   -3.1523   23.4109 H   0  0  0  0  0  0  0  0  0  0  0  0
   11.7930   -1.0222   21.9508 H   0  0  0  0  0  0  0  0  0  0  0  0
   11.3356    0.5595   22.5648 H   0  0  0  0  0  0  0  0  0  0  0  0
   11.2755   -4.2302   26.2520 H   0  0  0  0  0  0  0  0  0  0  0  0
   10.6927   -3.1275   27.4899 H   0  0  0  0  0  0  0  0  0  0  0  0
    4.9862   -2.0457   18.5029 H   0  0  0  0  0  0  0  0  0  0  0  0
  1  3  1  0  0  0  0
  1  4  2  0  0  0  0
  1 32  1  0  0  0  0
  2  5  1  0  0  0  0
  2  6  2  0  0  0  0
  2 33  1  0  0  0  0
  3  7  2  0  0  0  0
  3 34  1  0  0  0  0
  4  8  1  0  0  0  0
  4 35  1  0  0  0  0
  5 13  2  0  0  0  0
  5 36  1  0  0  0  0
  6 15  1  0  0  0  0
  6 37  1  0  0  0  0
  7 16  1  0  0  0  0
  7 38  1  0  0  0  0
  8 16  2  0  0  0  0
  8 39  1  0  0  0  0
  9 11  2  0  0  0  0
  9 17  1  0  0  0  0
  9 40  1  0  0  0  0
 10 12  1  0  0  0  0
 10 17  2  0  0  0  0
 10 41  1  0  0  0  0
 11 18  1  0  0  0  0
 11 42  1  0  0  0  0
 12 18  2  0  0  0  0
 12 43  1  0  0  0  0
 13 19  1  0  0  0  0
 13 44  1  0  0  0  0
 14 21  2  0  0  0  0
 14 28  1  0  0  0  0
 14 45  1  0  0  0  0
 15 19  2  0  0  0  0
 15 20  1  0  0  0  0
 16 20  1  0  0  0  0
 17 22  1  0  0  0  0
 18 23  1  0  0  0  0
 19 29  1  0  0  0  0
 20 25  2  0  0  0  0
 21 24  1  0  0  0  0
 21 26  1  0  0  0  0
 22 30  2  0  0  0  0
 22 31  1  0  0  0  0
 23 28  1  0  0  0  0
 23 46  1  0  0  0  0
 23 47  1  0  0  0  0
 24 29  1  0  0  0  0
 24 48  1  0  0  0  0
 24 49  1  0  0  0  0
 25 29  1  0  0  0  0
 26 27  2  0  0  0  0
 27 28  1  0  0  0  0
 31 50  1  0  0  0  0
M  END
>  <Chemgauss4 Score>
-4.73949337005615

>  <Number of Confs>
200

$$$$
