SAL-INS-1ea-2
 OpenBabel03242009303D

 42 44  0  0  1  0  0  0  0  0999 V2000
    7.4916   -5.4871   22.7789 C   0  0  0  0  0  0  0  0  0  0  0  0
    6.0750   -4.2337   24.2819 C   0  0  0  0  0  0  0  0  0  0  0  0
    6.5125   -6.4757   22.6805 C   0  0  0  0  0  0  0  0  0  0  0  0
    5.0958   -5.2223   24.1835 C   0  0  0  0  0  0  0  0  0  0  0  0
    9.8902    1.7585   22.5593 C   0  0  0  0  0  0  0  0  0  0  0  0
    8.8130    2.0792   21.6835 C   0  0  0  0  0  0  0  0  0  0  0  0
    7.2728   -4.3661   23.5797 C   0  0  0  0  0  0  0  0  0  0  0  0
    5.3146   -6.3433   23.3827 C   0  0  0  0  0  0  0  0  0  0  0  0
   10.3288    0.4640   22.3878 C   0  0  0  0  0  0  0  0  0  0  0  0
    8.4696    1.0174   20.8756 C   0  0  0  0  0  0  0  0  0  0  0  0
    9.1170   -4.6919   26.5282 C   0  0  0  0  0  0  0  0  0  0  0  0
    9.6771   -2.3178   26.1849 C   0  0  0  0  0  0  0  0  0  0  0  0
   10.8290   -1.5836   25.5166 C   0  0  0  0  0  0  0  0  0  0  0  0
   10.6137   -2.9972   23.5136 C   0  0  0  0  0  0  0  0  0  0  0  0
    9.5024   -3.8032   24.1860 C   0  0  1  0  0  0  0  0  0  0  0  0
    8.9270   -4.3062   27.9742 C   0  0  0  0  0  0  0  0  0  0  0  0
    9.4908   -3.6691   25.6498 N   0  0  0  0  0  0  0  0  0  0  0  0
   10.6333   -1.6031   24.0423 N   0  0  0  0  0  0  0  0  0  0  0  0
    8.9330   -5.8636   26.1882 O   0  0  0  0  0  0  0  0  0  0  0  0
   12.3022   -1.2111   22.1176 O   0  0  0  0  0  0  0  0  0  0  0  0
   12.3001    0.3602   24.0870 O   0  0  0  0  0  0  0  0  0  0  0  0
    8.2331   -3.3966   23.6762 O   0  0  0  0  0  0  0  0  0  0  0  0
    4.3744   -7.2927   23.2882 F   0  0  0  0  0  0  0  0  0  0  0  0
    9.4436   -0.3589   21.1747 S   0  0  0  0  0  0  0  0  0  0  0  0
   11.5950   -0.4954   23.1573 S   0  0  0  0  0  0  0  0  0  0  0  0
    7.2411    0.9594   19.6822 Cl  0  0  0  0  0  0  0  0  0  0  0  0
    8.4311   -5.7658   28.8231 Cl  0  0  0  0  0  0  0  0  0  0  0  0
    8.4226   -5.5960   22.2293 H   0  0  0  0  0  0  0  0  0  0  0  0
    5.8986   -3.3628   24.9073 H   0  0  0  0  0  0  0  0  0  0  0  0
    6.6825   -7.3486   22.0571 H   0  0  0  0  0  0  0  0  0  0  0  0
    4.1631   -5.1196   24.7301 H   0  0  0  0  0  0  0  0  0  0  0  0
   10.3192    2.4441   23.2786 H   0  0  0  0  0  0  0  0  0  0  0  0
    8.3188    3.0420   21.6539 H   0  0  0  0  0  0  0  0  0  0  0  0
    9.8371   -2.3495   27.2675 H   0  0  0  0  0  0  0  0  0  0  0  0
    8.7358   -1.7814   26.0120 H   0  0  0  0  0  0  0  0  0  0  0  0
   10.8422   -0.5468   25.8702 H   0  0  0  0  0  0  0  0  0  0  0  0
   11.7877   -2.0484   25.7738 H   0  0  0  0  0  0  0  0  0  0  0  0
   11.5877   -3.4661   23.6957 H   0  0  0  0  0  0  0  0  0  0  0  0
   10.4342   -2.9589   22.4331 H   0  0  0  0  0  0  0  0  0  0  0  0
    9.6296   -4.8573   23.8983 H   0  0  0  0  0  0  0  0  0  0  0  0
    8.1479   -3.5555   28.0375 H   0  0  0  0  0  0  0  0  0  0  0  0
    9.8707   -3.9481   28.3685 H   0  0  0  0  0  0  0  0  0  0  0  0
  1  3  2  0  0  0  0
  1  7  1  0  0  0  0
  1 28  1  0  0  0  0
  2  4  1  0  0  0  0
  2  7  2  0  0  0  0
  2 29  1  0  0  0  0
  3  8  1  0  0  0  0
  3 30  1  0  0  0  0
  4  8  2  0  0  0  0
  4 31  1  0  0  0  0
  5  6  1  0  0  0  0
  5  9  2  0  0  0  0
  5 32  1  0  0  0  0
  6 10  2  0  0  0  0
  6 33  1  0  0  0  0
  7 22  1  0  0  0  0
  8 23  1  0  0  0  0
  9 24  1  0  0  0  0
  9 25  1  0  0  0  0
 10 24  1  0  0  0  0
 10 26  1  0  0  0  0
 11 16  1  0  0  0  0
 11 17  1  0  0  0  0
 11 19  2  0  0  0  0
 12 13  1  0  0  0  0
 12 17  1  0  0  0  0
 12 34  1  0  0  0  0
 12 35  1  0  0  0  0
 13 18  1  0  0  0  0
 13 36  1  0  0  0  0
 13 37  1  0  0  0  0
 14 15  1  0  0  0  0
 14 18  1  0  0  0  0
 14 38  1  0  0  0  0
 14 39  1  0  0  0  0
 15 17  1  0  0  0  0
 15 22  1  0  0  0  0
 15 40  1  6  0  0  0
 16 27  1  0  0  0  0
 16 41  1  0  0  0  0
 16 42  1  0  0  0  0
 18 25  1  0  0  0  0
 20 25  2  0  0  0  0
 21 25  2  0  0  0  0
M  END
>  <Chemgauss4 Score>
-5.44116020202637

>  <Number of Confs>
200

$$$$
