CHR-SOS-6c4-10
 OpenBabel03242009303D

 38 40  0  0  0  0  0  0  0  0999 V2000
    9.9289   -1.5996   22.4387 C   0  0  0  0  0  0  0  0  0  0  0  0
    8.7925   -1.9883   22.4271 C   0  0  0  0  0  0  0  0  0  0  0  0
   12.9643    0.4411   23.0297 C   0  0  0  0  0  0  0  0  0  0  0  0
   13.9011   -0.3715   22.4011 C   0  0  0  0  0  0  0  0  0  0  0  0
   11.6281    0.0577   23.0595 C   0  0  0  0  0  0  0  0  0  0  0  0
   10.3680   -4.3489   27.4998 C   0  0  0  0  0  0  0  0  0  0  0  0
   13.4543   -1.5482   21.8218 C   0  0  0  0  0  0  0  0  0  0  0  0
    9.7271   -3.9141   28.6488 C   0  0  0  0  0  0  0  0  0  0  0  0
    8.0929   -2.8438   27.4396 C   0  0  0  0  0  0  0  0  0  0  0  0
   11.2829   -1.1380   22.4505 C   0  0  0  0  0  0  0  0  0  0  0  0
    9.8165   -3.9951   26.2735 C   0  0  0  0  0  0  0  0  0  0  0  0
    8.6573   -3.2282   26.2340 C   0  0  0  0  0  0  0  0  0  0  0  0
    6.9022   -2.0796   24.8265 C   0  0  0  0  0  0  0  0  0  0  0  0
    7.1922   -3.8757   21.9512 C   0  0  0  0  0  0  0  0  0  0  0  0
    6.8108   -2.7340   21.0607 C   0  0  0  0  0  0  0  0  0  0  0  0
    7.4320   -2.4541   22.4124 C   0  0  0  0  0  0  0  0  0  0  0  0
   10.4871   -4.4499   25.0188 C   0  0  0  0  0  0  0  0  0  0  0  0
    8.5997   -3.1679   28.6503 N   0  0  0  0  0  0  0  0  0  0  0  0
   12.1647   -1.9539   21.8304 N   0  0  0  0  0  0  0  0  0  0  0  0
    8.0581   -2.8433   25.0120 N   0  0  0  0  0  0  0  0  0  0  0  0
    6.6260   -1.9101   23.4554 N   0  0  0  0  0  0  0  0  0  0  0  0
    6.1919   -1.6003   25.7070 O   0  0  0  0  0  0  0  0  0  0  0  0
   13.2749    1.3717   23.4953 H   0  0  0  0  0  0  0  0  0  0  0  0
   14.9480   -0.0927   22.3658 H   0  0  0  0  0  0  0  0  0  0  0  0
   10.8896    0.6858   23.5474 H   0  0  0  0  0  0  0  0  0  0  0  0
   11.2712   -4.9459   27.5651 H   0  0  0  0  0  0  0  0  0  0  0  0
   14.1452   -2.2169   21.3191 H   0  0  0  0  0  0  0  0  0  0  0  0
   10.1171   -4.1630   29.6302 H   0  0  0  0  0  0  0  0  0  0  0  0
    7.1877   -2.2448   27.4742 H   0  0  0  0  0  0  0  0  0  0  0  0
    6.3909   -4.4396   22.4152 H   0  0  0  0  0  0  0  0  0  0  0  0
    8.0399   -4.4829   21.6547 H   0  0  0  0  0  0  0  0  0  0  0  0
    7.4025   -2.5747   20.1665 H   0  0  0  0  0  0  0  0  0  0  0  0
    5.7539   -2.5327   20.9278 H   0  0  0  0  0  0  0  0  0  0  0  0
   10.0904   -5.4231   24.7074 H   0  0  0  0  0  0  0  0  0  0  0  0
   10.3319   -3.7321   24.2039 H   0  0  0  0  0  0  0  0  0  0  0  0
   11.5710   -4.5430   25.1602 H   0  0  0  0  0  0  0  0  0  0  0  0
    8.5292   -3.1627   24.1693 H   0  0  0  0  0  0  0  0  0  0  0  0
    5.7995   -1.3653   23.1929 H   0  0  0  0  0  0  0  0  0  0  0  0
  1  2  3  0  0  0  0
  1 10  1  0  0  0  0
  2 16  1  0  0  0  0
  3  4  1  0  0  0  0
  3  5  2  0  0  0  0
  3 23  1  0  0  0  0
  4  7  2  0  0  0  0
  4 24  1  0  0  0  0
  5 10  1  0  0  0  0
  5 25  1  0  0  0  0
  6  8  2  0  0  0  0
  6 11  1  0  0  0  0
  6 26  1  0  0  0  0
  7 19  1  0  0  0  0
  7 27  1  0  0  0  0
  8 18  1  0  0  0  0
  8 28  1  0  0  0  0
  9 12  1  0  0  0  0
  9 18  2  0  0  0  0
  9 29  1  0  0  0  0
 10 19  2  0  0  0  0
 11 12  2  0  0  0  0
 11 17  1  0  0  0  0
 12 20  1  0  0  0  0
 13 20  1  0  0  0  0
 13 21  1  0  0  0  0
 13 22  2  0  0  0  0
 14 15  1  0  0  0  0
 14 16  1  0  0  0  0
 14 30  1  0  0  0  0
 14 31  1  0  0  0  0
 15 16  1  0  0  0  0
 15 32  1  0  0  0  0
 15 33  1  0  0  0  0
 16 21  1  0  0  0  0
 17 34  1  0  0  0  0
 17 35  1  0  0  0  0
 17 36  1  0  0  0  0
 20 37  1  0  0  0  0
 21 38  1  0  0  0  0
M  END
>  <Chemgauss4 Score>
-6.13563013076782

>  <Number of Confs>
5

$$$$
