TIK-301
  -OEChem-03222017192D

 20 21  0     1  0  0  0  0  0999 V2000
    3.9538   -0.9546    0.0000 C   0  0  0  0  0  0  0  0  0  0  0  0
    3.0028   -1.2636    0.0000 C   0  0  1  0  0  0  0  0  0  0  0  0
    2.0517   -1.5725    0.0000 H   0  0  0  0  0  0  0  0  0  0  0  0
    3.3117   -2.2146    0.0000 C   0  0  0  0  0  0  0  0  0  0  0  0
    4.2899   -2.4226    0.0000 N   0  0  0  0  0  0  0  0  0  0  0  0
    4.5989   -3.3737    0.0000 C   0  0  0  0  0  0  0  0  0  0  0  0
    3.9297   -4.1168    0.0000 O   0  0  0  0  0  0  0  0  0  0  0  0
    5.5770   -3.5816    0.0000 C   0  0  0  0  0  0  0  0  0  0  0  0
    2.6938   -0.3125    0.0000 C   0  0  0  0  0  0  0  0  0  0  0  0
    3.2858    0.5023    0.0000 C   0  0  0  0  0  0  0  0  0  0  0  0
    2.6938    1.3169    0.0000 N   0  0  0  0  0  0  0  0  0  0  0  0
    1.7360    1.0058    0.0000 C   0  0  0  0  0  0  0  0  0  0  0  0
    1.7360   -0.0012    0.0000 C   0  0  0  0  0  0  0  0  0  0  0  0
    0.8680   -0.4978    0.0000 C   0  0  0  0  0  0  0  0  0  0  0  0
    0.0000    0.0000    0.0000 C   0  0  0  0  0  0  0  0  0  0  0  0
   -0.0000    1.0058    0.0000 C   0  0  0  0  0  0  0  0  0  0  0  0
    0.8680    1.5138    0.0000 C   0  0  0  0  0  0  0  0  0  0  0  0
   -0.8675    1.5032    0.0000 Cl  0  0  0  0  0  0  0  0  0  0  0  0
   -0.8653   -0.5013    0.0000 O   0  0  0  0  0  0  0  0  0  0  0  0
   -0.8639   -1.5013    0.0000 C   0  0  0  0  0  0  0  0  0  0  0  0
  1  2  1  0  0  0  0
  2  3  1  6  0  0  0
  2  4  1  0  0  0  0
  4  5  1  0  0  0  0
  5  6  1  0  0  0  0
  6  7  2  0  0  0  0
  6  8  1  0  0  0  0
  2  9  1  0  0  0  0
  9 13  1  0  0  0  0
  9 10  2  0  0  0  0
 10 11  1  0  0  0  0
 11 12  1  0  0  0  0
 12 17  2  0  0  0  0
 12 13  1  0  0  0  0
 13 14  2  0  0  0  0
 14 15  1  0  0  0  0
 15 16  2  0  0  0  0
 16 17  1  0  0  0  0
 16 18  1  0  0  0  0
 15 19  1  0  0  0  0
 19 20  1  0  0  0  0
M  END
$$$$
Ramelteon
  -OEChem-03222017192D

 20 22  0     1  0  0  0  0  0999 V2000
   -0.9217   -5.6063    0.0000 C   0  0  0  0  0  0  0  0  0  0  0  0
   -0.4216   -4.7403    0.0000 C   0  0  0  0  0  0  0  0  0  0  0  0
   -0.9215   -3.8742    0.0000 C   0  0  0  0  0  0  0  0  0  0  0  0
   -0.4215   -3.0082    0.0000 N   0  0  0  0  0  0  0  0  0  0  0  0
   -0.9214   -2.1422    0.0000 C   0  0  0  0  0  0  0  0  0  0  0  0
   -0.4214   -1.2762    0.0000 C   0  0  0  0  0  0  0  0  0  0  0  0
   -0.9213   -0.4101    0.0000 C   0  0  2  0  0  0  0  0  0  0  0  0
   -1.7304   -0.9978    0.0000 H   0  0  0  0  0  0  0  0  0  0  0  0
    0.0000    0.0000    0.0000 C   0  0  0  0  0  0  0  0  0  0  0  0
   -0.1055    1.0028    0.0000 C   0  0  0  0  0  0  0  0  0  0  0  0
   -1.0917    1.2125    0.0000 C   0  0  0  0  0  0  0  0  0  0  0  0
   -1.5931    2.0865    0.0000 C   0  0  0  0  0  0  0  0  0  0  0  0
   -2.6014    2.0865    0.0000 C   0  0  0  0  0  0  0  0  0  0  0  0
   -3.1084    1.2125    0.0000 C   0  0  0  0  0  0  0  0  0  0  0  0
   -4.0855    0.9998    0.0000 O   0  0  0  0  0  0  0  0  0  0  0  0
   -4.1854    0.0047    0.0000 C   0  0  0  0  0  0  0  0  0  0  0  0
   -3.2698   -0.3975    0.0000 C   0  0  0  0  0  0  0  0  0  0  0  0
   -2.6042    0.3489    0.0000 C   0  0  0  0  0  0  0  0  0  0  0  0
   -1.5959    0.3392    0.0000 C   0  0  0  0  0  0  0  0  0  0  0  0
   -1.9215   -3.8741    0.0000 O   0  0  0  0  0  0  0  0  0  0  0  0
  1  2  1  0  0  0  0
  2  3  1  0  0  0  0
  3  4  1  0  0  0  0
  4  5  1  0  0  0  0
  5  6  1  0  0  0  0
  6  7  1  0  0  0  0
  7  8  1  6  0  0  0
  7 19  1  0  0  0  0
  7  9  1  0  0  0  0
  9 10  1  0  0  0  0
 10 11  1  0  0  0  0
 11 19  1  0  0  0  0
 11 12  2  0  0  0  0
 12 13  1  0  0  0  0
 13 14  2  0  0  0  0
 14 18  1  0  0  0  0
 14 15  1  0  0  0  0
 15 16  1  0  0  0  0
 16 17  1  0  0  0  0
 17 18  1  0  0  0  0
 18 19  2  0  0  0  0
  3 20  2  0  0  0  0
M  END
$$$$
Agomelatine
  -OEChem-03222017192D

 18 19  0     0  0  0  0  0  0999 V2000
    3.4660    4.0135    0.0000 O   0  0  0  0  0  0  0  0  0  0  0  0
    2.6000    4.5135    0.0000 C   0  0  0  0  0  0  0  0  0  0  0  0
    1.7339    4.0135    0.0000 N   0  0  0  0  0  0  0  0  0  0  0  0
    1.7339    3.0135    0.0000 C   0  0  0  0  0  0  0  0  0  0  0  0
    0.8679    2.5135    0.0000 C   0  0  0  0  0  0  0  0  0  0  0  0
    0.8679    1.5135    0.0000 C   0  0  0  0  0  0  0  0  0  0  0  0
    1.7358    1.0057    0.0000 C   0  0  0  0  0  0  0  0  0  0  0  0
    1.7371   -0.0000    0.0000 C   0  0  0  0  0  0  0  0  0  0  0  0
    0.8679   -0.4978    0.0000 C   0  0  0  0  0  0  0  0  0  0  0  0
    0.0000    0.0000    0.0000 C   0  0  0  0  0  0  0  0  0  0  0  0
    0.0000    1.0057    0.0000 C   0  0  0  0  0  0  0  0  0  0  0  0
    2.6038   -0.4989    0.0000 C   0  0  0  0  0  0  0  0  0  0  0  0
    3.4748    0.0022    0.0000 C   0  0  0  0  0  0  0  0  0  0  0  0
    3.4735    1.0079    0.0000 C   0  0  0  0  0  0  0  0  0  0  0  0
    4.3394    1.5081    0.0000 O   0  0  0  0  0  0  0  0  0  0  0  0
    4.3391    2.5081    0.0000 C   0  0  0  0  0  0  0  0  0  0  0  0
    2.6012    1.5124    0.0000 C   0  0  0  0  0  0  0  0  0  0  0  0
    2.6000    5.5135    0.0000 C   0  0  0  0  0  0  0  0  0  0  0  0
  1  2  2  0  0  0  0
  2  3  1  0  0  0  0
  3  4  1  0  0  0  0
  4  5  1  0  0  0  0
  5  6  1  0  0  0  0
  6 11  2  0  0  0  0
  6  7  1  0  0  0  0
  7 17  2  0  0  0  0
  7  8  1  0  0  0  0
  8  9  1  0  0  0  0
  9 10  2  0  0  0  0
 10 11  1  0  0  0  0
  8 12  2  0  0  0  0
 12 13  1  0  0  0  0
 13 14  2  0  0  0  0
 14 15  1  0  0  0  0
 15 16  1  0  0  0  0
 14 17  1  0  0  0  0
  2 18  1  0  0  0  0
M  END
$$$$
Tasimelteon
  -OEChem-03222017192D

 20 22  0     1  0  0  0  0  0999 V2000
    5.1073   -4.3897    0.0000 C   0  0  0  0  0  0  0  0  0  0  0  0
    4.4644   -3.6238    0.0000 C   0  0  0  0  0  0  0  0  0  0  0  0
    3.4796   -3.7977    0.0000 C   0  0  0  0  0  0  0  0  0  0  0  0
    3.1378   -4.7374    0.0000 O   0  0  0  0  0  0  0  0  0  0  0  0
    2.8367   -3.0318    0.0000 N   0  0  0  0  0  0  0  0  0  0  0  0
    1.8519   -3.2056    0.0000 C   0  0  0  0  0  0  0  0  0  0  0  0
    1.2090   -2.4397    0.0000 C   0  0  2  0  0  0  0  0  0  0  0  0
    0.3427   -2.9392    0.0000 H   0  0  0  0  0  0  0  0  0  0  0  0
    1.8523   -1.6716    0.0000 C   0  0  0  0  0  0  0  0  0  0  0  0
    0.8675   -1.4978    0.0000 C   0  0  1  0  0  0  0  0  0  0  0  0
   -0.1175   -1.6706    0.0000 H   0  0  0  0  0  0  0  0  0  0  0  0
    0.8680   -0.4978    0.0000 C   0  0  0  0  0  0  0  0  0  0  0  0
    1.7360   -0.0012    0.0000 C   0  0  0  0  0  0  0  0  0  0  0  0
    2.6938   -0.3125    0.0000 C   0  0  0  0  0  0  0  0  0  0  0  0
    3.2858    0.5023    0.0000 C   0  0  0  0  0  0  0  0  0  0  0  0
    2.6938    1.3169    0.0000 O   0  0  0  0  0  0  0  0  0  0  0  0
    1.7360    1.0058    0.0000 C   0  0  0  0  0  0  0  0  0  0  0  0
    0.8680    1.5138    0.0000 C   0  0  0  0  0  0  0  0  0  0  0  0
    0.0000    1.0058    0.0000 C   0  0  0  0  0  0  0  0  0  0  0  0
    0.0000    0.0000    0.0000 C   0  0  0  0  0  0  0  0  0  0  0  0
  1  2  1  0  0  0  0
  2  3  1  0  0  0  0
  3  4  2  0  0  0  0
  3  5  1  0  0  0  0
  5  6  1  0  0  0  0
  7  6  1  1  0  0  0
  7  8  1  6  0  0  0
  7 10  1  0  0  0  0
  7  9  1  0  0  0  0
  9 10  1  0  0  0  0
 10 11  1  1  0  0  0
 10 12  1  6  0  0  0
 12 20  1  0  0  0  0
 12 13  2  0  0  0  0
 13 17  1  0  0  0  0
 13 14  1  0  0  0  0
 14 15  1  0  0  0  0
 15 16  1  0  0  0  0
 16 17  1  0  0  0  0
 17 18  2  0  0  0  0
 18 19  1  0  0  0  0
 19 20  2  0  0  0  0
M  END
$$$$
N-[2-(2-iodo-5-methoxy-1H-indol-3-yl)ethyl]acetamide
  -OEChem-03222017192D

 18 19  0     0  0  0  0  0  0999 V2000
   -1.7320   -0.0025    0.0000 C   0  0  0  0  0  0  0  0  0  0  0  0
   -0.8653   -0.5013    0.0000 O   0  0  0  0  0  0  0  0  0  0  0  0
    0.0000    0.0000    0.0000 C   0  0  0  0  0  0  0  0  0  0  0  0
    0.0000    1.0058    0.0000 C   0  0  0  0  0  0  0  0  0  0  0  0
    0.8680    1.5138    0.0000 C   0  0  0  0  0  0  0  0  0  0  0  0
    1.7360    1.0058    0.0000 C   0  0  0  0  0  0  0  0  0  0  0  0
    2.6938    1.3169    0.0000 N   0  0  0  0  0  0  0  0  0  0  0  0
    3.2858    0.5023    0.0000 C   0  0  0  0  0  0  0  0  0  0  0  0
    4.2858    0.5024    0.0000 I   0  0  0  0  0  0  0  0  0  0  0  0
    2.6938   -0.3125    0.0000 C   0  0  0  0  0  0  0  0  0  0  0  0
    3.0028   -1.2636    0.0000 C   0  0  0  0  0  0  0  0  0  0  0  0
    3.9809   -1.4715    0.0000 C   0  0  0  0  0  0  0  0  0  0  0  0
    4.2899   -2.4226    0.0000 N   0  0  0  0  0  0  0  0  0  0  0  0
    5.2680   -2.6306    0.0000 C   0  0  0  0  0  0  0  0  0  0  0  0
    5.5770   -3.5816    0.0000 C   0  0  0  0  0  0  0  0  0  0  0  0
    5.9372   -1.8874    0.0000 O   0  0  0  0  0  0  0  0  0  0  0  0
    1.7360   -0.0012    0.0000 C   0  0  0  0  0  0  0  0  0  0  0  0
    0.8680   -0.4978    0.0000 C   0  0  0  0  0  0  0  0  0  0  0  0
  1  2  1  0  0  0  0
  2  3  1  0  0  0  0
  3 18  1  0  0  0  0
  3  4  2  0  0  0  0
  4  5  1  0  0  0  0
  5  6  2  0  0  0  0
  6 17  1  0  0  0  0
  6  7  1  0  0  0  0
  7  8  1  0  0  0  0
  8  9  1  0  0  0  0
  8 10  2  0  0  0  0
 10 11  1  0  0  0  0
 11 12  1  0  0  0  0
 12 13  1  0  0  0  0
 13 14  1  0  0  0  0
 14 15  1  0  0  0  0
 14 16  2  0  0  0  0
 10 17  1  0  0  0  0
 17 18  2  0  0  0  0
M  END
$$$$
Piromelatine
  -OEChem-03222017192D

 23 25  0     0  0  0  0  0  0999 V2000
   -1.7320   -0.0025    0.0000 C   0  0  0  0  0  0  0  0  0  0  0  0
   -0.8653   -0.5013    0.0000 O   0  0  0  0  0  0  0  0  0  0  0  0
    0.0000    0.0000    0.0000 C   0  0  0  0  0  0  0  0  0  0  0  0
    0.0000    1.0058    0.0000 C   0  0  0  0  0  0  0  0  0  0  0  0
    0.8680    1.5138    0.0000 C   0  0  0  0  0  0  0  0  0  0  0  0
    1.7360    1.0058    0.0000 C   0  0  0  0  0  0  0  0  0  0  0  0
    2.6938    1.3169    0.0000 N   0  0  0  0  0  0  0  0  0  0  0  0
    3.2858    0.5023    0.0000 C   0  0  0  0  0  0  0  0  0  0  0  0
    2.6938   -0.3125    0.0000 C   0  0  0  0  0  0  0  0  0  0  0  0
    3.0028   -1.2636    0.0000 C   0  0  0  0  0  0  0  0  0  0  0  0
    3.9809   -1.4715    0.0000 C   0  0  0  0  0  0  0  0  0  0  0  0
    4.2899   -2.4226    0.0000 N   0  0  0  0  0  0  0  0  0  0  0  0
    5.2680   -2.6306    0.0000 C   0  0  0  0  0  0  0  0  0  0  0  0
    5.9372   -1.8874    0.0000 O   0  0  0  0  0  0  0  0  0  0  0  0
    5.5770   -3.5816    0.0000 C   0  0  0  0  0  0  0  0  0  0  0  0
    6.5608   -3.7878    0.0000 C   0  0  0  0  0  0  0  0  0  0  0  0
    6.8698   -4.7389    0.0000 C   0  0  0  0  0  0  0  0  0  0  0  0
    7.8486   -4.9439    0.0000 O   0  0  0  0  0  0  0  0  0  0  0  0
    6.2050   -5.4859    0.0000 C   0  0  0  0  0  0  0  0  0  0  0  0
    5.2212   -5.2798    0.0000 C   0  0  0  0  0  0  0  0  0  0  0  0
    4.9022   -4.3266    0.0000 O   0  0  0  0  0  0  0  0  0  0  0  0
    1.7360   -0.0012    0.0000 C   0  0  0  0  0  0  0  0  0  0  0  0
    0.8680   -0.4978    0.0000 C   0  0  0  0  0  0  0  0  0  0  0  0
  1  2  1  0  0  0  0
  2  3  1  0  0  0  0
  3 23  1  0  0  0  0
  3  4  2  0  0  0  0
  4  5  1  0  0  0  0
  5  6  2  0  0  0  0
  6 22  1  0  0  0  0
  6  7  1  0  0  0  0
  7  8  1  0  0  0  0
  8  9  2  0  0  0  0
  9 10  1  0  0  0  0
 10 11  1  0  0  0  0
 11 12  1  0  0  0  0
 12 13  1  0  0  0  0
 13 14  2  0  0  0  0
 13 15  1  0  0  0  0
 15 21  1  0  0  0  0
 15 16  2  0  0  0  0
 16 17  1  0  0  0  0
 17 18  2  0  0  0  0
 17 19  1  0  0  0  0
 19 20  2  0  0  0  0
 20 21  1  0  0  0  0
  9 22  1  0  0  0  0
 22 23  2  0  0  0  0
M  END
$$$$
