DAR-DIA-fc9-1
  -OEChem-03222016562D

 18 20  0     0  0  0  0  0  0999 V2000
    1.0906   -1.6681    0.0000 O   0  0  0  0  0  0  0  0  0  0  0  0
    1.8349   -1.0002    0.0000 C   0  0  0  0  0  0  0  0  0  0  0  0
    1.7328   -0.0038    0.0000 N   0  0  0  0  0  0  0  0  0  0  0  0
    2.6478    0.4034    0.0000 C   0  0  0  0  0  0  0  0  0  0  0  0
    3.3148   -0.3418    0.0000 C   0  0  0  0  0  0  0  0  0  0  0  0
    2.8174   -1.2098    0.0000 N   0  0  0  0  0  0  0  0  0  0  0  0
    3.2253   -2.1228    0.0000 C   0  0  0  0  0  0  0  0  0  0  0  0
    4.2254   -2.2237    0.0000 C   0  0  0  0  0  0  0  0  0  0  0  0
    4.6334   -3.1367    0.0000 C   0  0  0  0  0  0  0  0  0  0  0  0
    4.0514   -3.9499    0.0000 C   0  0  0  0  0  0  0  0  0  0  0  0
    3.0512   -3.8491    0.0000 C   0  0  0  0  0  0  0  0  0  0  0  0
    2.6331   -2.9350    0.0000 C   0  0  0  0  0  0  0  0  0  0  0  0
    0.8675    0.4975    0.0000 C   0  0  0  0  0  0  0  0  0  0  0  0
    0.8675    1.5027    0.0000 C   0  0  0  0  0  0  0  0  0  0  0  0
   -0.0000    2.0104    0.0000 N   0  0  0  0  0  0  0  0  0  0  0  0
   -0.8675    1.5027    0.0000 C   0  0  0  0  0  0  0  0  0  0  0  0
   -0.8675    0.4975    0.0000 C   0  0  0  0  0  0  0  0  0  0  0  0
    0.0000    0.0000    0.0000 C   0  0  0  0  0  0  0  0  0  0  0  0
  1  2  2  0  0  0  0
  2  6  1  0  0  0  0
  2  3  1  0  0  0  0
  3  4  1  0  0  0  0
  4  5  1  0  0  0  0
  5  6  1  0  0  0  0
  6  7  1  0  0  0  0
  7 12  2  0  0  0  0
  7  8  1  0  0  0  0
  8  9  2  0  0  0  0
  9 10  1  0  0  0  0
 10 11  2  0  0  0  0
 11 12  1  0  0  0  0
  3 13  1  0  0  0  0
 13 18  2  0  0  0  0
 13 14  1  0  0  0  0
 14 15  2  0  0  0  0
 15 16  1  0  0  0  0
 16 17  2  0  0  0  0
 17 18  1  0  0  0  0
M  END
$$$$
DAR-DIA-fc9-2
  -OEChem-03222016562D

 19 21  0     1  0  0  0  0  0999 V2000
    0.8675   -0.4975    0.0000 C   0  0  3  0  0  0  0  0  0  0  0  0
    0.8675   -1.4975    0.0000 C   0  0  0  0  0  0  0  0  0  0  0  0
    1.7328   -1.9988    0.0000 C   0  0  0  0  0  0  0  0  0  0  0  0
    1.7372   -2.9988    0.0000 C   0  0  0  0  0  0  0  0  0  0  0  0
    0.8674   -3.5027    0.0000 C   0  0  0  0  0  0  0  0  0  0  0  0
   -0.0068   -3.0065    0.0000 N   0  0  0  0  0  0  0  0  0  0  0  0
   -0.0023   -2.0014    0.0000 C   0  0  0  0  0  0  0  0  0  0  0  0
    1.7350    0.0000    0.0000 N   0  0  0  0  0  0  0  0  0  0  0  0
    1.7350    1.0052    0.0000 C   0  0  0  0  0  0  0  0  0  0  0  0
    2.6025    1.5026    0.0000 O   0  0  0  0  0  0  0  0  0  0  0  0
    0.8675    1.5129    0.0000 N   0  0  0  0  0  0  0  0  0  0  0  0
    0.8675    2.5129    0.0000 C   0  0  0  0  0  0  0  0  0  0  0  0
   -0.0045    3.0129    0.0000 C   0  0  0  0  0  0  0  0  0  0  0  0
   -0.0046    4.0130    0.0000 C   0  0  0  0  0  0  0  0  0  0  0  0
    0.8586    4.5180    0.0000 C   0  0  0  0  0  0  0  0  0  0  0  0
    1.7306    4.0180    0.0000 C   0  0  0  0  0  0  0  0  0  0  0  0
    1.7395    3.0129    0.0000 C   0  0  0  0  0  0  0  0  0  0  0  0
    0.0000    1.0052    0.0000 C   0  0  0  0  0  0  0  0  0  0  0  0
    0.0000    0.0000    0.0000 C   0  0  0  0  0  0  0  0  0  0  0  0
  1  2  1  0  0  0  0
  2  7  1  0  0  0  0
  2  3  2  0  0  0  0
  3  4  1  0  0  0  0
  4  5  2  0  0  0  0
  5  6  1  0  0  0  0
  6  7  2  0  0  0  0
  1 19  1  0  0  0  0
  1  8  1  0  0  0  0
  8  9  1  0  0  0  0
  9 10  2  0  0  0  0
  9 11  1  0  0  0  0
 11 12  1  0  0  0  0
 12 17  1  0  0  0  0
 12 13  2  0  0  0  0
 13 14  1  0  0  0  0
 14 15  2  0  0  0  0
 15 16  1  0  0  0  0
 16 17  2  0  0  0  0
 11 18  1  0  0  0  0
 18 19  1  0  0  0  0
M  END
$$$$
DAR-DIA-fc9-3
  -OEChem-03222016562D

 18 20  0     0  0  0  0  0  0999 V2000
    2.8642    1.3789    0.0000 O   0  0  0  0  0  0  0  0  0  0  0  0
    2.6520    0.4017    0.0000 C   0  0  0  0  0  0  0  0  0  0  0  0
    3.3182   -0.3463    0.0000 N   0  0  0  0  0  0  0  0  0  0  0  0
    4.3132   -0.2459    0.0000 C   0  0  0  0  0  0  0  0  0  0  0  0
    4.7232    0.6719    0.0000 C   0  0  0  0  0  0  0  0  0  0  0  0
    5.7181    0.7723    0.0000 C   0  0  0  0  0  0  0  0  0  0  0  0
    6.3073   -0.0357    0.0000 C   0  0  0  0  0  0  0  0  0  0  0  0
    5.8973   -0.9535    0.0000 C   0  0  0  0  0  0  0  0  0  0  0  0
    4.8982   -1.0632    0.0000 C   0  0  0  0  0  0  0  0  0  0  0  0
    2.8149   -1.2121    0.0000 C   0  0  0  0  0  0  0  0  0  0  0  0
    1.8379   -0.9987    0.0000 C   0  0  0  0  0  0  0  0  0  0  0  0
    1.7328   -0.0038    0.0000 N   0  0  0  0  0  0  0  0  0  0  0  0
    0.8675    0.4975    0.0000 C   0  0  0  0  0  0  0  0  0  0  0  0
    0.0000    0.0000    0.0000 C   0  0  0  0  0  0  0  0  0  0  0  0
   -0.8675    0.4975    0.0000 C   0  0  0  0  0  0  0  0  0  0  0  0
   -0.8675    1.5027    0.0000 C   0  0  0  0  0  0  0  0  0  0  0  0
    0.0000    2.0104    0.0000 N   0  0  0  0  0  0  0  0  0  0  0  0
    0.8675    1.5027    0.0000 C   0  0  0  0  0  0  0  0  0  0  0  0
  1  2  2  0  0  0  0
  2 12  1  0  0  0  0
  2  3  1  0  0  0  0
  3  4  1  0  0  0  0
  4  9  2  0  0  0  0
  4  5  1  0  0  0  0
  5  6  2  0  0  0  0
  6  7  1  0  0  0  0
  7  8  2  0  0  0  0
  8  9  1  0  0  0  0
  3 10  1  0  0  0  0
 10 11  2  0  0  0  0
 11 12  1  0  0  0  0
 12 13  1  0  0  0  0
 13 18  2  0  0  0  0
 13 14  1  0  0  0  0
 14 15  2  0  0  0  0
 15 16  1  0  0  0  0
 16 17  2  0  0  0  0
 17 18  1  0  0  0  0
M  END
$$$$
DAR-DIA-fc9-4
  -OEChem-03222016562D

 19 21  0     1  0  0  0  0  0999 V2000
    0.0000    0.0000    0.0000 C   0  0  3  0  0  0  0  0  0  0  0  0
   -0.8675    0.4975    0.0000 C   0  0  0  0  0  0  0  0  0  0  0  0
   -0.8675    1.5027    0.0000 C   0  0  0  0  0  0  0  0  0  0  0  0
    0.0000    2.0104    0.0000 N   0  0  0  0  0  0  0  0  0  0  0  0
    0.0000    3.0104    0.0000 C   0  0  0  0  0  0  0  0  0  0  0  0
   -0.8720    3.5104    0.0000 C   0  0  0  0  0  0  0  0  0  0  0  0
   -0.8721    4.5105    0.0000 C   0  0  0  0  0  0  0  0  0  0  0  0
   -0.0089    5.0155    0.0000 C   0  0  0  0  0  0  0  0  0  0  0  0
    0.8631    4.5155    0.0000 C   0  0  0  0  0  0  0  0  0  0  0  0
    0.8720    3.5104    0.0000 C   0  0  0  0  0  0  0  0  0  0  0  0
    0.8675    1.5027    0.0000 C   0  0  0  0  0  0  0  0  0  0  0  0
    1.7350    2.0001    0.0000 O   0  0  0  0  0  0  0  0  0  0  0  0
    0.8675    0.4975    0.0000 C   0  0  0  0  0  0  0  0  0  0  0  0
   -0.0000   -1.0000    0.0000 C   0  0  0  0  0  0  0  0  0  0  0  0
   -0.8698   -1.5039    0.0000 C   0  0  0  0  0  0  0  0  0  0  0  0
   -0.8743   -2.5090    0.0000 N   0  0  0  0  0  0  0  0  0  0  0  0
   -0.0001   -3.0052    0.0000 C   0  0  0  0  0  0  0  0  0  0  0  0
    0.8697   -2.5013    0.0000 C   0  0  0  0  0  0  0  0  0  0  0  0
    0.8653   -1.5013    0.0000 C   0  0  0  0  0  0  0  0  0  0  0  0
  1 13  1  0  0  0  0
  1  2  1  0  0  0  0
  2  3  1  0  0  0  0
  3  4  1  0  0  0  0
  4  5  1  0  0  0  0
  5 10  2  0  0  0  0
  5  6  1  0  0  0  0
  6  7  2  0  0  0  0
  7  8  1  0  0  0  0
  8  9  2  0  0  0  0
  9 10  1  0  0  0  0
  4 11  1  0  0  0  0
 11 12  2  0  0  0  0
 11 13  1  0  0  0  0
  1 14  1  0  0  0  0
 14 19  2  0  0  0  0
 14 15  1  0  0  0  0
 15 16  2  0  0  0  0
 16 17  1  0  0  0  0
 17 18  2  0  0  0  0
 18 19  1  0  0  0  0
M  END
$$$$
DAR-DIA-fc9-5
  -OEChem-03222016562D

 19 21  0     1  0  0  0  0  0999 V2000
    0.8675   -1.5027    0.0000 N   0  0  3  0  0  0  0  0  0  0  0  0
    0.0000   -1.0052    0.0000 C   0  0  0  0  0  0  0  0  0  0  0  0
    0.0000    0.0000    0.0000 C   0  0  0  0  0  0  0  0  0  0  0  0
    0.8675    0.5077    0.0000 N   0  0  0  0  0  0  0  0  0  0  0  0
    0.8675    1.5077    0.0000 C   0  0  0  0  0  0  0  0  0  0  0  0
   -0.0045    2.0077    0.0000 C   0  0  0  0  0  0  0  0  0  0  0  0
   -0.0046    3.0078    0.0000 C   0  0  0  0  0  0  0  0  0  0  0  0
    0.8586    3.5128    0.0000 C   0  0  0  0  0  0  0  0  0  0  0  0
    1.7306    3.0128    0.0000 C   0  0  0  0  0  0  0  0  0  0  0  0
    1.7395    2.0077    0.0000 C   0  0  0  0  0  0  0  0  0  0  0  0
    1.7350   -0.0000    0.0000 C   0  0  0  0  0  0  0  0  0  0  0  0
    2.6025    0.4974    0.0000 O   0  0  0  0  0  0  0  0  0  0  0  0
    1.7350   -1.0052    0.0000 C   0  0  0  0  0  0  0  0  0  0  0  0
    0.8675   -2.5027    0.0000 C   0  0  0  0  0  0  0  0  0  0  0  0
   -0.0023   -3.0066    0.0000 C   0  0  0  0  0  0  0  0  0  0  0  0
   -0.0068   -4.0117    0.0000 N   0  0  0  0  0  0  0  0  0  0  0  0
    0.8674   -4.5079    0.0000 C   0  0  0  0  0  0  0  0  0  0  0  0
    1.7372   -4.0040    0.0000 C   0  0  0  0  0  0  0  0  0  0  0  0
    1.7328   -3.0040    0.0000 C   0  0  0  0  0  0  0  0  0  0  0  0
  1 13  1  0  0  0  0
  1  2  1  0  0  0  0
  2  3  1  0  0  0  0
  3  4  1  0  0  0  0
  4  5  1  0  0  0  0
  5 10  2  0  0  0  0
  5  6  1  0  0  0  0
  6  7  2  0  0  0  0
  7  8  1  0  0  0  0
  8  9  2  0  0  0  0
  9 10  1  0  0  0  0
  4 11  1  0  0  0  0
 11 12  2  0  0  0  0
 11 13  1  0  0  0  0
  1 14  1  0  0  0  0
 14 19  2  0  0  0  0
 14 15  1  0  0  0  0
 15 16  2  0  0  0  0
 16 17  1  0  0  0  0
 17 18  2  0  0  0  0
 18 19  1  0  0  0  0
M  END
$$$$
DAR-DIA-fc9-6
  -OEChem-03222016562D

 19 21  0     0  0  0  0  0  0999 V2000
    0.0000    1.0052    0.0000 C   0  0  0  0  0  0  0  0  0  0  0  0
    0.0000    0.0000    0.0000 C   0  0  0  0  0  0  0  0  0  0  0  0
    0.8675   -0.4975    0.0000 C   0  0  0  0  0  0  0  0  0  0  0  0
    1.7350    0.0000    0.0000 N   0  0  0  0  0  0  0  0  0  0  0  0
    2.6003   -0.5013    0.0000 C   0  0  0  0  0  0  0  0  0  0  0  0
    3.4678   -0.0038    0.0000 C   0  0  0  0  0  0  0  0  0  0  0  0
    4.3353   -0.5013    0.0000 C   0  0  0  0  0  0  0  0  0  0  0  0
    4.3353   -1.5065    0.0000 C   0  0  0  0  0  0  0  0  0  0  0  0
    3.4678   -2.0142    0.0000 N   0  0  0  0  0  0  0  0  0  0  0  0
    2.6003   -1.5065    0.0000 C   0  0  0  0  0  0  0  0  0  0  0  0
    1.7350    1.0052    0.0000 C   0  0  0  0  0  0  0  0  0  0  0  0
    2.6025    1.5026    0.0000 O   0  0  0  0  0  0  0  0  0  0  0  0
    0.8675    1.5129    0.0000 N   0  0  0  0  0  0  0  0  0  0  0  0
    0.8675    2.5129    0.0000 C   0  0  0  0  0  0  0  0  0  0  0  0
   -0.0045    3.0129    0.0000 C   0  0  0  0  0  0  0  0  0  0  0  0
   -0.0046    4.0130    0.0000 C   0  0  0  0  0  0  0  0  0  0  0  0
    0.8586    4.5180    0.0000 C   0  0  0  0  0  0  0  0  0  0  0  0
    1.7306    4.0180    0.0000 C   0  0  0  0  0  0  0  0  0  0  0  0
    1.7395    3.0129    0.0000 C   0  0  0  0  0  0  0  0  0  0  0  0
  1 13  1  0  0  0  0
  1  2  1  0  0  0  0
  2  3  1  0  0  0  0
  3  4  1  0  0  0  0
  4  5  1  0  0  0  0
  5 10  2  0  0  0  0
  5  6  1  0  0  0  0
  6  7  2  0  0  0  0
  7  8  1  0  0  0  0
  8  9  2  0  0  0  0
  9 10  1  0  0  0  0
  4 11  1  0  0  0  0
 11 12  2  0  0  0  0
 11 13  1  0  0  0  0
 13 14  1  0  0  0  0
 14 19  1  0  0  0  0
 14 15  2  0  0  0  0
 15 16  1  0  0  0  0
 16 17  2  0  0  0  0
 17 18  1  0  0  0  0
 18 19  2  0  0  0  0
M  END
$$$$
DAR-DIA-fc9-7
  -OEChem-03222016562D

 19 21  0     1  0  0  0  0  0999 V2000
    0.0000    0.0000    0.0000 C   0  0  0  0  0  0  0  0  0  0  0  0
    0.8675    0.4975    0.0000 C   0  0  3  0  0  0  0  0  0  0  0  0
    1.7328   -0.0038    0.0000 C   0  0  0  0  0  0  0  0  0  0  0  0
    2.6026    0.5002    0.0000 C   0  0  0  0  0  0  0  0  0  0  0  0
    3.4679   -0.0011    0.0000 C   0  0  0  0  0  0  0  0  0  0  0  0
    3.4723   -1.0011    0.0000 C   0  0  0  0  0  0  0  0  0  0  0  0
    2.6026   -1.5050    0.0000 C   0  0  0  0  0  0  0  0  0  0  0  0
    1.7284   -1.0089    0.0000 C   0  0  0  0  0  0  0  0  0  0  0  0
    0.8675    1.5027    0.0000 C   0  0  0  0  0  0  0  0  0  0  0  0
    1.7350    2.0001    0.0000 O   0  0  0  0  0  0  0  0  0  0  0  0
   -0.0000    2.0104    0.0000 N   0  0  0  0  0  0  0  0  0  0  0  0
    0.0000    3.0104    0.0000 C   0  0  0  0  0  0  0  0  0  0  0  0
    0.8698    3.5143    0.0000 C   0  0  0  0  0  0  0  0  0  0  0  0
    0.8743    4.5194    0.0000 N   0  0  0  0  0  0  0  0  0  0  0  0
    0.0001    5.0156    0.0000 C   0  0  0  0  0  0  0  0  0  0  0  0
   -0.8697    4.5117    0.0000 C   0  0  0  0  0  0  0  0  0  0  0  0
   -0.8653    3.5117    0.0000 C   0  0  0  0  0  0  0  0  0  0  0  0
   -0.8675    1.5027    0.0000 C   0  0  0  0  0  0  0  0  0  0  0  0
   -0.8675    0.4975    0.0000 C   0  0  0  0  0  0  0  0  0  0  0  0
  1 19  1  0  0  0  0
  1  2  1  0  0  0  0
  2  3  1  0  0  0  0
  3  8  2  0  0  0  0
  3  4  1  0  0  0  0
  4  5  2  0  0  0  0
  5  6  1  0  0  0  0
  6  7  2  0  0  0  0
  7  8  1  0  0  0  0
  2  9  1  0  0  0  0
  9 10  2  0  0  0  0
  9 11  1  0  0  0  0
 11 12  1  0  0  0  0
 12 17  2  0  0  0  0
 12 13  1  0  0  0  0
 13 14  2  0  0  0  0
 14 15  1  0  0  0  0
 15 16  2  0  0  0  0
 16 17  1  0  0  0  0
 11 18  1  0  0  0  0
 18 19  1  0  0  0  0
M  END
$$$$
DAR-DIA-fc9-8
  -OEChem-03222016562D

 19 21  0     1  0  0  0  0  0999 V2000
    0.8675    1.5129    0.0000 O   0  0  0  0  0  0  0  0  0  0  0  0
    0.0000    1.0052    0.0000 C   0  0  0  0  0  0  0  0  0  0  0  0
    0.0000    0.0000    0.0000 C   0  0  0  0  0  0  0  0  0  0  0  0
    0.8675   -0.4975    0.0000 N   0  0  0  0  0  0  0  0  0  0  0  0
    0.8675   -1.4975    0.0000 C   0  0  0  0  0  0  0  0  0  0  0  0
    1.7328   -1.9988    0.0000 C   0  0  0  0  0  0  0  0  0  0  0  0
    1.7372   -2.9988    0.0000 C   0  0  0  0  0  0  0  0  0  0  0  0
    0.8674   -3.5027    0.0000 C   0  0  0  0  0  0  0  0  0  0  0  0
   -0.0068   -3.0065    0.0000 N   0  0  0  0  0  0  0  0  0  0  0  0
   -0.0023   -2.0014    0.0000 C   0  0  0  0  0  0  0  0  0  0  0  0
    1.7350    0.0000    0.0000 C   0  0  0  0  0  0  0  0  0  0  0  0
    2.6003   -0.5013    0.0000 O   0  0  0  0  0  0  0  0  0  0  0  0
    1.7350    1.0052    0.0000 C   0  0  3  0  0  0  0  0  0  0  0  0
    2.6025    1.5026    0.0000 C   0  0  0  0  0  0  0  0  0  0  0  0
    2.6025    2.5078    0.0000 C   0  0  0  0  0  0  0  0  0  0  0  0
    3.4700    3.0053    0.0000 C   0  0  0  0  0  0  0  0  0  0  0  0
    4.3375    2.5078    0.0000 C   0  0  0  0  0  0  0  0  0  0  0  0
    4.3375    1.5026    0.0000 C   0  0  0  0  0  0  0  0  0  0  0  0
    3.4700    0.9949    0.0000 C   0  0  0  0  0  0  0  0  0  0  0  0
  1 13  1  0  0  0  0
  1  2  1  0  0  0  0
  2  3  1  0  0  0  0
  3  4  1  0  0  0  0
  4  5  1  0  0  0  0
  5 10  2  0  0  0  0
  5  6  1  0  0  0  0
  6  7  2  0  0  0  0
  7  8  1  0  0  0  0
  8  9  2  0  0  0  0
  9 10  1  0  0  0  0
  4 11  1  0  0  0  0
 11 12  2  0  0  0  0
 11 13  1  0  0  0  0
 13 14  1  0  0  0  0
 14 19  2  0  0  0  0
 14 15  1  0  0  0  0
 15 16  2  0  0  0  0
 16 17  1  0  0  0  0
 17 18  2  0  0  0  0
 18 19  1  0  0  0  0
M  END
$$$$
DAR-DIA-fc9-9
  -OEChem-03222016562D

 19 20  0     0  0  0  0  0  0999 V2000
    2.5966   -1.5050    0.0000 O   0  0  0  0  0  0  0  0  0  0  0  0
    1.7313   -1.0038    0.0000 C   0  0  0  0  0  0  0  0  0  0  0  0
    0.8646   -1.5025    0.0000 N   0  0  0  0  0  0  0  0  0  0  0  0
    0.8631   -2.5025    0.0000 C   0  0  0  0  0  0  0  0  0  0  0  0
    1.7344   -3.0038    0.0000 C   0  0  0  0  0  0  0  0  0  0  0  0
    1.7330   -4.0038    0.0000 C   0  0  0  0  0  0  0  0  0  0  0  0
    0.8692   -4.5076    0.0000 C   0  0  0  0  0  0  0  0  0  0  0  0
   -0.0021   -4.0064    0.0000 C   0  0  0  0  0  0  0  0  0  0  0  0
   -0.0095   -3.0012    0.0000 C   0  0  0  0  0  0  0  0  0  0  0  0
    1.7328   -0.0038    0.0000 N   0  0  0  0  0  0  0  0  0  0  0  0
    0.8675    0.4975    0.0000 C   0  0  0  0  0  0  0  0  0  0  0  0
    0.0000    0.0000    0.0000 C   0  0  0  0  0  0  0  0  0  0  0  0
   -0.8675    0.4975    0.0000 C   0  0  0  0  0  0  0  0  0  0  0  0
   -0.8675    1.5027    0.0000 C   0  0  0  0  0  0  0  0  0  0  0  0
    0.0000    2.0104    0.0000 N   0  0  0  0  0  0  0  0  0  0  0  0
    0.8675    1.5027    0.0000 C   0  0  0  0  0  0  0  0  0  0  0  0
    2.5995    0.4950    0.0000 C   0  0  0  0  0  0  0  0  0  0  0  0
    3.4648   -0.0063    0.0000 O   0  0  0  0  0  0  0  0  0  0  0  0
    2.6010    1.4950    0.0000 C   0  0  0  0  0  0  0  0  0  0  0  0
  1  2  2  0  0  0  0
  2  3  1  0  0  0  0
  3  4  1  0  0  0  0
  4  9  2  0  0  0  0
  4  5  1  0  0  0  0
  5  6  2  0  0  0  0
  6  7  1  0  0  0  0
  7  8  2  0  0  0  0
  8  9  1  0  0  0  0
  2 10  1  0  0  0  0
 10 11  1  0  0  0  0
 11 16  2  0  0  0  0
 11 12  1  0  0  0  0
 12 13  2  0  0  0  0
 13 14  1  0  0  0  0
 14 15  2  0  0  0  0
 15 16  1  0  0  0  0
 10 17  1  0  0  0  0
 17 18  2  0  0  0  0
 17 19  1  0  0  0  0
M  END
$$$$
DAR-DIA-fc9-10
  -OEChem-03222016562D

 20 22  0     0  0  0  0  0  0999 V2000
    0.0000    0.0000    0.0000 C   0  0  0  0  0  0  0  0  0  0  0  0
   -0.6316    0.7845    0.0000 C   0  0  0  0  0  0  0  0  0  0  0  0
   -0.4166    1.7644    0.0000 C   0  0  0  0  0  0  0  0  0  0  0  0
    0.4868    2.2008    0.0000 N   0  0  0  0  0  0  0  0  0  0  0  0
    0.4824    3.2008    0.0000 C   0  0  0  0  0  0  0  0  0  0  0  0
    1.3500    3.7085    0.0000 C   0  0  0  0  0  0  0  0  0  0  0  0
    1.3501    4.7136    0.0000 N   0  0  0  0  0  0  0  0  0  0  0  0
    0.4737    5.2059    0.0000 C   0  0  0  0  0  0  0  0  0  0  0  0
   -0.3938    4.6983    0.0000 C   0  0  0  0  0  0  0  0  0  0  0  0
   -0.3851    3.6983    0.0000 C   0  0  0  0  0  0  0  0  0  0  0  0
    1.3964    1.7712    0.0000 C   0  0  0  0  0  0  0  0  0  0  0  0
    2.1744    2.3995    0.0000 O   0  0  0  0  0  0  0  0  0  0  0  0
    1.6250    0.7911    0.0000 N   0  0  0  0  0  0  0  0  0  0  0  0
    2.6009    0.5727    0.0000 C   0  0  0  0  0  0  0  0  0  0  0  0
    3.2793    1.3144    0.0000 C   0  0  0  0  0  0  0  0  0  0  0  0
    4.2552    1.0961    0.0000 C   0  0  0  0  0  0  0  0  0  0  0  0
    4.5595    0.1435    0.0000 C   0  0  0  0  0  0  0  0  0  0  0  0
    3.8811   -0.5982    0.0000 C   0  0  0  0  0  0  0  0  0  0  0  0
    2.8984   -0.3874    0.0000 C   0  0  0  0  0  0  0  0  0  0  0  0
    1.0000    0.0014    0.0000 C   0  0  0  0  0  0  0  0  0  0  0  0
  1 20  1  0  0  0  0
  1  2  1  0  0  0  0
  2  3  1  0  0  0  0
  3  4  1  0  0  0  0
  4  5  1  0  0  0  0
  5 10  1  0  0  0  0
  5  6  2  0  0  0  0
  6  7  1  0  0  0  0
  7  8  2  0  0  0  0
  8  9  1  0  0  0  0
  9 10  2  0  0  0  0
  4 11  1  0  0  0  0
 11 12  2  0  0  0  0
 11 13  1  0  0  0  0
 13 14  1  0  0  0  0
 14 19  1  0  0  0  0
 14 15  2  0  0  0  0
 15 16  1  0  0  0  0
 16 17  2  0  0  0  0
 17 18  1  0  0  0  0
 18 19  2  0  0  0  0
 13 20  1  0  0  0  0
M  END
$$$$
DAR-DIA-fc9-11
  -OEChem-03222016562D

 20 22  0     1  0  0  0  0  0999 V2000
    0.6314   -0.7843    0.0000 C   0  0  0  0  0  0  0  0  0  0  0  0
    1.6314   -0.7830    0.0000 N   0  0  3  0  0  0  0  0  0  0  0  0
    2.0676   -1.6829    0.0000 C   0  0  0  0  0  0  0  0  0  0  0  0
    3.0704   -1.7525    0.0000 C   0  0  0  0  0  0  0  0  0  0  0  0
    3.5066   -2.6523    0.0000 C   0  0  0  0  0  0  0  0  0  0  0  0
    2.9502   -3.4833    0.0000 C   0  0  0  0  0  0  0  0  0  0  0  0
    1.9474   -3.4137    0.0000 C   0  0  0  0  0  0  0  0  0  0  0  0
    1.5010   -2.5131    0.0000 C   0  0  0  0  0  0  0  0  0  0  0  0
    2.2562    0.0066    0.0000 C   0  0  0  0  0  0  0  0  0  0  0  0
    2.0276    0.9866    0.0000 C   0  0  0  0  0  0  0  0  0  0  0  0
    2.8056    1.6149    0.0000 O   0  0  0  0  0  0  0  0  0  0  0  0
    1.1181    1.4161    0.0000 N   0  0  0  0  0  0  0  0  0  0  0  0
    1.1137    2.4161    0.0000 C   0  0  0  0  0  0  0  0  0  0  0  0
    0.2462    2.9135    0.0000 C   0  0  0  0  0  0  0  0  0  0  0  0
    0.2374    3.9135    0.0000 C   0  0  0  0  0  0  0  0  0  0  0  0
    1.1050    4.4212    0.0000 C   0  0  0  0  0  0  0  0  0  0  0  0
    1.9813    3.9289    0.0000 N   0  0  0  0  0  0  0  0  0  0  0  0
    1.9813    2.9238    0.0000 C   0  0  0  0  0  0  0  0  0  0  0  0
    0.2149    0.9798    0.0000 C   0  0  0  0  0  0  0  0  0  0  0  0
    0.0000    0.0000    0.0000 C   0  0  0  0  0  0  0  0  0  0  0  0
  1 20  1  0  0  0  0
  1  2  1  0  0  0  0
  2  3  1  0  0  0  0
  3  8  1  0  0  0  0
  3  4  2  0  0  0  0
  4  5  1  0  0  0  0
  5  6  2  0  0  0  0
  6  7  1  0  0  0  0
  7  8  2  0  0  0  0
  2  9  1  0  0  0  0
  9 10  1  0  0  0  0
 10 11  2  0  0  0  0
 10 12  1  0  0  0  0
 12 13  1  0  0  0  0
 13 18  2  0  0  0  0
 13 14  1  0  0  0  0
 14 15  2  0  0  0  0
 15 16  1  0  0  0  0
 16 17  2  0  0  0  0
 17 18  1  0  0  0  0
 12 19  1  0  0  0  0
 19 20  1  0  0  0  0
M  END
$$$$
DAR-DIA-fc9-12
  -OEChem-03222016562D

 19 21  0     1  0  0  0  0  0999 V2000
    0.0000    0.0000    0.0000 C   0  0  0  0  0  0  0  0  0  0  0  0
   -0.8675    0.4975    0.0000 C   0  0  0  0  0  0  0  0  0  0  0  0
   -0.8675    1.5027    0.0000 C   0  0  0  0  0  0  0  0  0  0  0  0
    0.0000    2.0104    0.0000 N   0  0  0  0  0  0  0  0  0  0  0  0
    0.0000    3.0104    0.0000 C   0  0  0  0  0  0  0  0  0  0  0  0
   -0.8653    3.5117    0.0000 C   0  0  0  0  0  0  0  0  0  0  0  0
   -0.8697    4.5117    0.0000 C   0  0  0  0  0  0  0  0  0  0  0  0
    0.0001    5.0156    0.0000 C   0  0  0  0  0  0  0  0  0  0  0  0
    0.8743    4.5194    0.0000 N   0  0  0  0  0  0  0  0  0  0  0  0
    0.8698    3.5143    0.0000 C   0  0  0  0  0  0  0  0  0  0  0  0
    0.8675    1.5027    0.0000 C   0  0  0  0  0  0  0  0  0  0  0  0
    1.7350    2.0001    0.0000 O   0  0  0  0  0  0  0  0  0  0  0  0
    0.8675    0.4975    0.0000 C   0  0  3  0  0  0  0  0  0  0  0  0
    1.7328   -0.0038    0.0000 C   0  0  0  0  0  0  0  0  0  0  0  0
    2.6026    0.5001    0.0000 C   0  0  0  0  0  0  0  0  0  0  0  0
    3.4679   -0.0011    0.0000 C   0  0  0  0  0  0  0  0  0  0  0  0
    3.4723   -1.0011    0.0000 C   0  0  0  0  0  0  0  0  0  0  0  0
    2.6026   -1.5050    0.0000 C   0  0  0  0  0  0  0  0  0  0  0  0
    1.7284   -1.0089    0.0000 C   0  0  0  0  0  0  0  0  0  0  0  0
  1 13  1  0  0  0  0
  1  2  2  0  0  0  0
  2  3  1  0  0  0  0
  3  4  1  0  0  0  0
  4  5  1  0  0  0  0
  5 10  2  0  0  0  0
  5  6  1  0  0  0  0
  6  7  2  0  0  0  0
  7  8  1  0  0  0  0
  8  9  2  0  0  0  0
  9 10  1  0  0  0  0
  4 11  1  0  0  0  0
 11 12  2  0  0  0  0
 11 13  1  0  0  0  0
 13 14  1  0  0  0  0
 14 19  2  0  0  0  0
 14 15  1  0  0  0  0
 15 16  2  0  0  0  0
 16 17  1  0  0  0  0
 17 18  2  0  0  0  0
 18 19  1  0  0  0  0
M  END
$$$$
DAR-DIA-fc9-13
  -OEChem-03222016562D

 20 22  0     1  0  0  0  0  0999 V2000
    0.6314   -0.7843    0.0000 C   0  0  0  0  0  0  0  0  0  0  0  0
    0.0000    0.0000    0.0000 C   0  0  0  0  0  0  0  0  0  0  0  0
    0.2149    0.9798    0.0000 C   0  0  0  0  0  0  0  0  0  0  0  0
    1.1181    1.4161    0.0000 N   0  0  0  0  0  0  0  0  0  0  0  0
    1.1137    2.4161    0.0000 C   0  0  0  0  0  0  0  0  0  0  0  0
    1.9813    2.9238    0.0000 C   0  0  0  0  0  0  0  0  0  0  0  0
    1.9813    3.9289    0.0000 N   0  0  0  0  0  0  0  0  0  0  0  0
    1.1050    4.4212    0.0000 C   0  0  0  0  0  0  0  0  0  0  0  0
    0.2374    3.9135    0.0000 C   0  0  0  0  0  0  0  0  0  0  0  0
    0.2462    2.9135    0.0000 C   0  0  0  0  0  0  0  0  0  0  0  0
    2.0276    0.9866    0.0000 C   0  0  0  0  0  0  0  0  0  0  0  0
    2.8056    1.6149    0.0000 O   0  0  0  0  0  0  0  0  0  0  0  0
    2.2562    0.0066    0.0000 C   0  0  0  0  0  0  0  0  0  0  0  0
    1.6314   -0.7830    0.0000 N   0  0  3  0  0  0  0  0  0  0  0  0
    2.0676   -1.6829    0.0000 C   0  0  0  0  0  0  0  0  0  0  0  0
    3.0704   -1.7525    0.0000 C   0  0  0  0  0  0  0  0  0  0  0  0
    3.5066   -2.6523    0.0000 C   0  0  0  0  0  0  0  0  0  0  0  0
    2.9502   -3.4833    0.0000 C   0  0  0  0  0  0  0  0  0  0  0  0
    1.9474   -3.4137    0.0000 C   0  0  0  0  0  0  0  0  0  0  0  0
    1.5010   -2.5131    0.0000 C   0  0  0  0  0  0  0  0  0  0  0  0
  1 14  1  0  0  0  0
  1  2  1  0  0  0  0
  2  3  1  0  0  0  0
  3  4  1  0  0  0  0
  4  5  1  0  0  0  0
  5 10  2  0  0  0  0
  5  6  1  0  0  0  0
  6  7  2  0  0  0  0
  7  8  1  0  0  0  0
  8  9  2  0  0  0  0
  9 10  1  0  0  0  0
  4 11  1  0  0  0  0
 11 12  2  0  0  0  0
 11 13  1  0  0  0  0
 13 14  1  0  0  0  0
 14 15  1  0  0  0  0
 15 20  2  0  0  0  0
 15 16  1  0  0  0  0
 16 17  2  0  0  0  0
 17 18  1  0  0  0  0
 18 19  2  0  0  0  0
 19 20  1  0  0  0  0
M  END
$$$$
DAR-DIA-fc9-14
  -OEChem-03222016562D

 22 24  0     0  0  0  0  0  0999 V2000
    2.5966    0.4976    0.0000 O   0  0  0  0  0  0  0  0  0  0  0  0
    2.5995    1.4976    0.0000 C   0  0  0  0  0  0  0  0  0  0  0  0
    1.7350    2.0001    0.0000 N   0  0  0  0  0  0  0  0  0  0  0  0
    0.8675    1.5027    0.0000 C   0  0  0  0  0  0  0  0  0  0  0  0
    0.8675    0.4975    0.0000 C   0  0  0  0  0  0  0  0  0  0  0  0
    0.0000    0.0000    0.0000 C   0  0  0  0  0  0  0  0  0  0  0  0
   -0.8675    0.4975    0.0000 C   0  0  0  0  0  0  0  0  0  0  0  0
   -0.8675    1.5027    0.0000 C   0  0  0  0  0  0  0  0  0  0  0  0
    0.0000    2.0104    0.0000 N   0  0  0  0  0  0  0  0  0  0  0  0
    1.7379    3.0001    0.0000 C   0  0  0  0  0  0  0  0  0  0  0  0
    2.6092    3.5014    0.0000 C   0  0  0  0  0  0  0  0  0  0  0  0
    2.6167    4.5066    0.0000 N   0  0  0  0  0  0  0  0  0  0  0  0
    1.7440    5.0053    0.0000 C   0  0  0  0  0  0  0  0  0  0  0  0
    0.8727    4.5040    0.0000 C   0  0  0  0  0  0  0  0  0  0  0  0
    0.8741    3.5040    0.0000 C   0  0  0  0  0  0  0  0  0  0  0  0
    3.4670    1.9950    0.0000 N   0  0  0  0  0  0  0  0  0  0  0  0
    4.3316    1.4925    0.0000 C   0  0  0  0  0  0  0  0  0  0  0  0
    5.2021    1.9951    0.0000 C   0  0  0  0  0  0  0  0  0  0  0  0
    6.0667    1.4926    0.0000 C   0  0  0  0  0  0  0  0  0  0  0  0
    6.0696    0.4925    0.0000 C   0  0  0  0  0  0  0  0  0  0  0  0
    5.1991   -0.0101    0.0000 C   0  0  0  0  0  0  0  0  0  0  0  0
    4.3257    0.4874    0.0000 C   0  0  0  0  0  0  0  0  0  0  0  0
  1  2  2  0  0  0  0
  2  3  1  0  0  0  0
  3  4  1  0  0  0  0
  4  9  1  0  0  0  0
  4  5  2  0  0  0  0
  5  6  1  0  0  0  0
  6  7  2  0  0  0  0
  7  8  1  0  0  0  0
  8  9  2  0  0  0  0
  3 10  1  0  0  0  0
 10 15  2  0  0  0  0
 10 11  1  0  0  0  0
 11 12  2  0  0  0  0
 12 13  1  0  0  0  0
 13 14  2  0  0  0  0
 14 15  1  0  0  0  0
  2 16  1  0  0  0  0
 16 17  1  0  0  0  0
 17 22  2  0  0  0  0
 17 18  1  0  0  0  0
 18 19  2  0  0  0  0
 19 20  1  0  0  0  0
 20 21  2  0  0  0  0
 21 22  1  0  0  0  0
M  END
$$$$
AGN-NEW-fad-1
  -OEChem-03222016562D

 36 39  0     0  0  0  0  0  0999 V2000
    0.0015   -1.9975    0.0000 C   0  0  0  0  0  0  0  0  0  0  0  0
    0.8675   -1.4975    0.0000 C   0  0  0  0  0  0  0  0  0  0  0  0
    0.8675   -0.4975    0.0000 C   0  0  0  0  0  0  0  0  0  0  0  0
    0.0000    0.0000    0.0000 C   0  0  0  0  0  0  0  0  0  0  0  0
   -0.0000    1.0052    0.0000 C   0  0  0  0  0  0  0  0  0  0  0  0
    0.8675    1.5129    0.0000 N   0  0  0  0  0  0  0  0  0  0  0  0
    1.7350    1.0052    0.0000 C   0  0  0  0  0  0  0  0  0  0  0  0
    2.6025    1.5026    0.0000 N   0  0  0  0  0  0  0  0  0  0  0  0
    2.6054    2.5026    0.0000 C   0  0  0  0  0  0  0  0  0  0  0  0
    1.7409    3.0052    0.0000 N   0  0  0  0  0  0  0  0  0  0  0  0
    1.7439    4.0052    0.0000 C   0  0  0  0  0  0  0  0  0  0  0  0
    0.8800    4.5090    0.0000 C   0  0  0  0  0  0  0  0  0  0  0  0
    0.0132    4.0103    0.0000 C   0  0  0  0  0  0  0  0  0  0  0  0
   -0.8520    4.5116    0.0000 N   0  0  0  0  0  0  0  0  0  0  0  0
   -0.8476    5.5116    0.0000 C   0  0  0  0  0  0  0  0  0  0  0  0
   -1.7174    6.0155    0.0000 C   0  0  0  0  0  0  0  0  0  0  0  0
   -2.5916    5.5194    0.0000 O   0  0  0  0  0  0  0  0  0  0  0  0
   -2.5872    4.5143    0.0000 C   0  0  0  0  0  0  0  0  0  0  0  0
   -1.7174    4.0104    0.0000 C   0  0  0  0  0  0  0  0  0  0  0  0
    0.8786    5.5090    0.0000 C   0  0  0  0  0  0  0  0  0  0  0  0
    1.7499    6.0103    0.0000 C   0  0  0  0  0  0  0  0  0  0  0  0
    2.6226    5.5116    0.0000 N   0  0  0  0  0  0  0  0  0  0  0  0
    2.6151    4.5065    0.0000 C   0  0  0  0  0  0  0  0  0  0  0  0
    3.4789    4.0026    0.0000 C   0  0  0  0  0  0  0  0  0  0  0  0
    3.4729    3.0001    0.0000 O   0  0  0  0  0  0  0  0  0  0  0  0
    3.4670    1.0001    0.0000 C   0  0  0  0  0  0  0  0  0  0  0  0
    4.3345    1.4975    0.0000 C   0  0  0  0  0  0  0  0  0  0  0  0
    5.2020    0.9898    0.0000 N   0  0  0  0  0  0  0  0  0  0  0  0
    6.0695    1.4975    0.0000 C   0  0  0  0  0  0  0  0  0  0  0  0
    6.0695    2.5027    0.0000 C   0  0  0  0  0  0  0  0  0  0  0  0
    5.2020    3.0002    0.0000 C   0  0  0  0  0  0  0  0  0  0  0  0
    5.2020    4.0002    0.0000 C   0  0  0  0  0  0  0  0  0  0  0  0
    5.2020    5.0002    0.0000 C   0  0  0  0  0  0  0  0  0  0  0  0
    4.3345    2.5027    0.0000 N   0  0  0  0  0  0  0  0  0  0  0  0
    1.7350    0.0000    0.0000 N   0  0  0  0  0  0  0  0  0  0  0  0
    1.7335   -1.9975    0.0000 C   0  0  0  0  0  0  0  0  0  0  0  0
  1  2  1  0  0  0  0
  2  3  1  0  0  0  0
  3 35  2  0  0  0  0
  3  4  1  0  0  0  0
  4  5  2  0  0  0  0
  5  6  1  0  0  0  0
  6  7  2  0  0  0  0
  7  8  1  0  0  0  0
  8  9  1  0  0  0  0
  9 10  1  0  0  0  0
 10 11  1  0  0  0  0
 11 23  2  0  0  0  0
 11 12  1  0  0  0  0
 12 13  1  0  0  0  0
 13 14  1  0  0  0  0
 14 19  1  0  0  0  0
 14 15  1  0  0  0  0
 15 16  1  0  0  0  0
 16 17  1  0  0  0  0
 17 18  1  0  0  0  0
 18 19  1  0  0  0  0
 12 20  2  0  0  0  0
 20 21  1  0  0  0  0
 21 22  2  0  0  0  0
 22 23  1  0  0  0  0
 23 24  1  0  0  0  0
  9 25  2  0  0  0  0
  8 26  1  0  0  0  0
 26 27  1  0  0  0  0
 27 34  2  0  0  0  0
 27 28  1  0  0  0  0
 28 29  2  0  0  0  0
 29 30  1  0  0  0  0
 30 31  2  0  0  0  0
 31 32  1  0  0  0  0
 32 33  3  0  0  0  0
 31 34  1  0  0  0  0
  7 35  1  0  0  0  0
  2 36  1  0  0  0  0
M  END
$$$$
AGN-NEW-fad-2
  -OEChem-03222016562D

 36 39  0     0  0  0  0  0  0999 V2000
    0.0015   -1.9975    0.0000 C   0  0  0  0  0  0  0  0  0  0  0  0
    0.8675   -1.4975    0.0000 C   0  0  0  0  0  0  0  0  0  0  0  0
    0.8675   -0.4975    0.0000 C   0  0  0  0  0  0  0  0  0  0  0  0
    0.0000    0.0000    0.0000 C   0  0  0  0  0  0  0  0  0  0  0  0
   -0.0000    1.0052    0.0000 C   0  0  0  0  0  0  0  0  0  0  0  0
    0.8675    1.5129    0.0000 N   0  0  0  0  0  0  0  0  0  0  0  0
    1.7350    1.0052    0.0000 C   0  0  0  0  0  0  0  0  0  0  0  0
    2.6025    1.5026    0.0000 N   0  0  0  0  0  0  0  0  0  0  0  0
    2.6054    2.5026    0.0000 C   0  0  0  0  0  0  0  0  0  0  0  0
    1.7409    3.0052    0.0000 N   0  0  0  0  0  0  0  0  0  0  0  0
    1.7439    4.0052    0.0000 C   0  0  0  0  0  0  0  0  0  0  0  0
    0.8800    4.5090    0.0000 C   0  0  0  0  0  0  0  0  0  0  0  0
    0.0132    4.0103    0.0000 C   0  0  0  0  0  0  0  0  0  0  0  0
   -0.8520    4.5116    0.0000 N   0  0  0  0  0  0  0  0  0  0  0  0
   -0.8476    5.5116    0.0000 C   0  0  0  0  0  0  0  0  0  0  0  0
   -1.7174    6.0155    0.0000 C   0  0  0  0  0  0  0  0  0  0  0  0
   -2.5916    5.5194    0.0000 O   0  0  0  0  0  0  0  0  0  0  0  0
   -2.5872    4.5143    0.0000 C   0  0  0  0  0  0  0  0  0  0  0  0
   -1.7174    4.0104    0.0000 C   0  0  0  0  0  0  0  0  0  0  0  0
    0.8786    5.5090    0.0000 C   0  0  0  0  0  0  0  0  0  0  0  0
    1.7499    6.0103    0.0000 C   0  0  0  0  0  0  0  0  0  0  0  0
    2.6226    5.5116    0.0000 N   0  0  0  0  0  0  0  0  0  0  0  0
    2.6151    4.5065    0.0000 C   0  0  0  0  0  0  0  0  0  0  0  0
    3.4789    4.0026    0.0000 C   0  0  0  0  0  0  0  0  0  0  0  0
    3.4729    3.0001    0.0000 O   0  0  0  0  0  0  0  0  0  0  0  0
    3.4670    1.0001    0.0000 C   0  0  0  0  0  0  0  0  0  0  0  0
    4.3345    1.4975    0.0000 C   0  0  0  0  0  0  0  0  0  0  0  0
    5.2021    0.9898    0.0000 C   0  0  0  0  0  0  0  0  0  0  0  0
    6.0696    1.4872    0.0000 C   0  0  0  0  0  0  0  0  0  0  0  0
    6.0784    2.4872    0.0000 C   0  0  0  0  0  0  0  0  0  0  0  0
    5.2109    2.9949    0.0000 C   0  0  0  0  0  0  0  0  0  0  0  0
    5.2197    3.9949    0.0000 C   0  0  0  0  0  0  0  0  0  0  0  0
    5.2286    4.9949    0.0000 C   0  0  0  0  0  0  0  0  0  0  0  0
    4.3345    2.5027    0.0000 N   0  0  0  0  0  0  0  0  0  0  0  0
    1.7350    0.0000    0.0000 N   0  0  0  0  0  0  0  0  0  0  0  0
    1.7335   -1.9975    0.0000 C   0  0  0  0  0  0  0  0  0  0  0  0
  1  2  1  0  0  0  0
  2  3  1  0  0  0  0
  3 35  2  0  0  0  0
  3  4  1  0  0  0  0
  4  5  2  0  0  0  0
  5  6  1  0  0  0  0
  6  7  2  0  0  0  0
  7  8  1  0  0  0  0
  8  9  1  0  0  0  0
  9 10  1  0  0  0  0
 10 11  1  0  0  0  0
 11 23  2  0  0  0  0
 11 12  1  0  0  0  0
 12 13  1  0  0  0  0
 13 14  1  0  0  0  0
 14 19  1  0  0  0  0
 14 15  1  0  0  0  0
 15 16  1  0  0  0  0
 16 17  1  0  0  0  0
 17 18  1  0  0  0  0
 18 19  1  0  0  0  0
 12 20  2  0  0  0  0
 20 21  1  0  0  0  0
 21 22  2  0  0  0  0
 22 23  1  0  0  0  0
 23 24  1  0  0  0  0
  9 25  2  0  0  0  0
  8 26  1  0  0  0  0
 26 27  1  0  0  0  0
 27 34  2  0  0  0  0
 27 28  1  0  0  0  0
 28 29  2  0  0  0  0
 29 30  1  0  0  0  0
 30 31  2  0  0  0  0
 31 32  1  0  0  0  0
 32 33  3  0  0  0  0
 31 34  1  0  0  0  0
  7 35  1  0  0  0  0
  2 36  1  0  0  0  0
M  END
$$$$
ADA-UNI-f8e-1
  -OEChem-03222016562D

 24 25  0     1  0  0  0  0  0999 V2000
    3.4694   -3.0114    0.0000 C   0  0  0  0  0  0  0  0  0  0  0  0
    4.3333   -2.5076    0.0000 C   0  0  0  0  0  0  0  0  0  0  0  0
    4.3347   -1.5076    0.0000 C   0  0  0  0  0  0  0  0  0  0  0  0
    3.4634   -1.0063    0.0000 C   0  0  0  0  0  0  0  0  0  0  0  0
    3.4648   -0.0063    0.0000 C   0  0  3  0  0  0  0  0  0  0  0  0
    2.5995    0.4950    0.0000 C   0  0  0  0  0  0  0  0  0  0  0  0
    1.7328   -0.0038    0.0000 N   0  0  0  0  0  0  0  0  0  0  0  0
    0.8675    0.4975    0.0000 C   0  0  0  0  0  0  0  0  0  0  0  0
    0.0000    0.0000    0.0000 C   0  0  0  0  0  0  0  0  0  0  0  0
   -0.8675    0.4975    0.0000 C   0  0  0  0  0  0  0  0  0  0  0  0
   -0.8675    1.5027    0.0000 C   0  0  0  0  0  0  0  0  0  0  0  0
    0.0000    2.0104    0.0000 N   0  0  0  0  0  0  0  0  0  0  0  0
    0.8675    1.5027    0.0000 C   0  0  0  0  0  0  0  0  0  0  0  0
    2.6010    1.4950    0.0000 O   0  0  0  0  0  0  0  0  0  0  0  0
    4.3316    0.4925    0.0000 O   0  0  0  0  0  0  0  0  0  0  0  0
    4.3330    1.4925    0.0000 C   0  0  0  0  0  0  0  0  0  0  0  0
    5.1998    1.9912    0.0000 C   0  0  0  0  0  0  0  0  0  0  0  0
    5.2013    2.9912    0.0000 N   0  0  0  0  0  0  0  0  0  0  0  0
    6.0680    3.4900    0.0000 S   0  0  0  0  0  0  0  0  0  0  0  0
    6.9348    3.9887    0.0000 C   0  0  0  0  0  0  0  0  0  0  0  0
    5.5693    4.3567    0.0000 O   0  0  0  0  0  0  0  0  0  0  0  0
    6.5667    2.6232    0.0000 O   0  0  0  0  0  0  0  0  0  0  0  0
    2.5907   -1.5050    0.0000 C   0  0  0  0  0  0  0  0  0  0  0  0
    2.5982   -2.5101    0.0000 C   0  0  0  0  0  0  0  0  0  0  0  0
  1 24  1  0  0  0  0
  1  2  2  0  0  0  0
  2  3  1  0  0  0  0
  3  4  2  0  0  0  0
  4  5  1  0  0  0  0
  5  6  1  0  0  0  0
  6  7  1  0  0  0  0
  7  8  1  0  0  0  0
  8 13  1  0  0  0  0
  8  9  2  0  0  0  0
  9 10  1  0  0  0  0
 10 11  2  0  0  0  0
 11 12  1  0  0  0  0
 12 13  2  0  0  0  0
  6 14  2  0  0  0  0
  5 15  1  0  0  0  0
 15 16  1  0  0  0  0
 16 17  1  0  0  0  0
 17 18  1  0  0  0  0
 18 19  1  0  0  0  0
 19 20  1  0  0  0  0
 19 21  2  0  0  0  0
 19 22  2  0  0  0  0
  4 23  1  0  0  0  0
 23 24  2  0  0  0  0
M  END
$$$$
ADA-UNI-f8e-2
  -OEChem-03222016562D

 23 24  0     1  0  0  0  0  0999 V2000
    0.8646   -1.5025    0.0000 O   0  0  0  0  0  0  0  0  0  0  0  0
    1.7313   -1.0038    0.0000 C   0  0  0  0  0  0  0  0  0  0  0  0
    1.7328   -0.0038    0.0000 N   0  0  0  0  0  0  0  0  0  0  0  0
    0.8675    0.4975    0.0000 C   0  0  0  0  0  0  0  0  0  0  0  0
    0.8675    1.5027    0.0000 C   0  0  0  0  0  0  0  0  0  0  0  0
   -0.0000    2.0104    0.0000 N   0  0  0  0  0  0  0  0  0  0  0  0
   -0.8675    1.5027    0.0000 C   0  0  0  0  0  0  0  0  0  0  0  0
   -0.8675    0.4975    0.0000 C   0  0  0  0  0  0  0  0  0  0  0  0
    0.0000    0.0000    0.0000 C   0  0  0  0  0  0  0  0  0  0  0  0
    2.5966   -1.5050    0.0000 C   0  0  3  0  0  0  0  0  0  0  0  0
    3.4634   -1.0063    0.0000 C   0  0  0  0  0  0  0  0  0  0  0  0
    3.4619   -0.0011    0.0000 C   0  0  0  0  0  0  0  0  0  0  0  0
    4.3286    0.4977    0.0000 C   0  0  0  0  0  0  0  0  0  0  0  0
    5.1969    0.0015    0.0000 C   0  0  0  0  0  0  0  0  0  0  0  0
    5.1984   -1.0037    0.0000 C   0  0  0  0  0  0  0  0  0  0  0  0
    4.3317   -1.5127    0.0000 C   0  0  0  0  0  0  0  0  0  0  0  0
    2.5952   -2.5050    0.0000 C   0  0  0  0  0  0  0  0  0  0  0  0
    3.4605   -3.0063    0.0000 C   0  0  0  0  0  0  0  0  0  0  0  0
    3.4590   -4.0063    0.0000 N   0  0  0  0  0  0  0  0  0  0  0  0
    4.3243   -4.5075    0.0000 S   0  0  0  0  0  0  0  0  0  0  0  0
    4.8256   -3.6422    0.0000 O   0  0  0  0  0  0  0  0  0  0  0  0
    3.8231   -5.3728    0.0000 O   0  0  0  0  0  0  0  0  0  0  0  0
    5.1896   -5.0088    0.0000 C   0  0  0  0  0  0  0  0  0  0  0  0
  1  2  2  0  0  0  0
  2  3  1  0  0  0  0
  3  4  1  0  0  0  0
  4  9  2  0  0  0  0
  4  5  1  0  0  0  0
  5  6  2  0  0  0  0
  6  7  1  0  0  0  0
  7  8  2  0  0  0  0
  8  9  1  0  0  0  0
  2 10  1  0  0  0  0
 10 11  1  0  0  0  0
 11 16  2  0  0  0  0
 11 12  1  0  0  0  0
 12 13  2  0  0  0  0
 13 14  1  0  0  0  0
 14 15  2  0  0  0  0
 15 16  1  0  0  0  0
 10 17  1  0  0  0  0
 17 18  1  0  0  0  0
 18 19  1  0  0  0  0
 19 20  1  0  0  0  0
 20 21  2  0  0  0  0
 20 22  2  0  0  0  0
 20 23  1  0  0  0  0
M  END
$$$$
ADA-UNI-f8e-3
  -OEChem-03222016562D

 24 26  0     1  0  0  0  0  0999 V2000
    0.8646   -1.5025    0.0000 O   0  0  0  0  0  0  0  0  0  0  0  0
    1.7313   -1.0038    0.0000 C   0  0  0  0  0  0  0  0  0  0  0  0
    1.7328   -0.0038    0.0000 N   0  0  0  0  0  0  0  0  0  0  0  0
    0.8675    0.4975    0.0000 C   0  0  0  0  0  0  0  0  0  0  0  0
    0.8675    1.5027    0.0000 C   0  0  0  0  0  0  0  0  0  0  0  0
   -0.0000    2.0104    0.0000 N   0  0  0  0  0  0  0  0  0  0  0  0
   -0.8675    1.5027    0.0000 C   0  0  0  0  0  0  0  0  0  0  0  0
   -0.8675    0.4975    0.0000 C   0  0  0  0  0  0  0  0  0  0  0  0
    0.0000    0.0000    0.0000 C   0  0  0  0  0  0  0  0  0  0  0  0
    2.5966   -1.5050    0.0000 C   0  0  3  0  0  0  0  0  0  0  0  0
    2.2523   -2.4458    0.0000 C   0  0  3  0  0  0  0  0  0  0  0  0
    1.4858   -3.0881    0.0000 C   0  0  0  0  0  0  0  0  0  0  0  0
    1.6587   -4.0730    0.0000 N   0  0  0  0  0  0  0  0  0  0  0  0
    0.8922   -4.7152    0.0000 S   0  0  0  0  0  0  0  0  0  0  0  0
    1.5344   -5.4818    0.0000 O   0  0  0  0  0  0  0  0  0  0  0  0
    0.2500   -3.9487    0.0000 O   0  0  0  0  0  0  0  0  0  0  0  0
    0.1257   -5.3575    0.0000 C   0  0  0  0  0  0  0  0  0  0  0  0
    3.2389   -2.2715    0.0000 C   0  0  0  0  0  0  0  0  0  0  0  0
    3.2403   -0.7397    0.0000 C   0  0  0  0  0  0  0  0  0  0  0  0
    2.8947    0.2043    0.0000 C   0  0  0  0  0  0  0  0  0  0  0  0
    3.5383    0.9697    0.0000 C   0  0  0  0  0  0  0  0  0  0  0  0
    4.5240    0.8007    0.0000 C   0  0  0  0  0  0  0  0  0  0  0  0
    4.8695   -0.1432    0.0000 C   0  0  0  0  0  0  0  0  0  0  0  0
    4.2294   -0.9182    0.0000 C   0  0  0  0  0  0  0  0  0  0  0  0
  1  2  2  0  0  0  0
  2  3  1  0  0  0  0
  3  4  1  0  0  0  0
  4  9  2  0  0  0  0
  4  5  1  0  0  0  0
  5  6  2  0  0  0  0
  6  7  1  0  0  0  0
  7  8  2  0  0  0  0
  8  9  1  0  0  0  0
  2 10  1  0  0  0  0
 10 18  1  0  0  0  0
 10 11  1  0  0  0  0
 11 12  1  0  0  0  0
 12 13  1  0  0  0  0
 13 14  1  0  0  0  0
 14 15  2  0  0  0  0
 14 16  2  0  0  0  0
 14 17  1  0  0  0  0
 11 18  1  0  0  0  0
 10 19  1  0  0  0  0
 19 24  2  0  0  0  0
 19 20  1  0  0  0  0
 20 21  2  0  0  0  0
 21 22  1  0  0  0  0
 22 23  2  0  0  0  0
 23 24  1  0  0  0  0
M  END
$$$$
ADA-UNI-f8e-4
  -OEChem-03222016562D

 21 22  0     1  0  0  0  0  0999 V2000
    0.8646   -1.5025    0.0000 O   0  0  0  0  0  0  0  0  0  0  0  0
    1.7313   -1.0038    0.0000 C   0  0  0  0  0  0  0  0  0  0  0  0
    1.7328   -0.0038    0.0000 N   0  0  0  0  0  0  0  0  0  0  0  0
    0.8675    0.4975    0.0000 C   0  0  0  0  0  0  0  0  0  0  0  0
    0.8675    1.5027    0.0000 C   0  0  0  0  0  0  0  0  0  0  0  0
   -0.0000    2.0104    0.0000 N   0  0  0  0  0  0  0  0  0  0  0  0
   -0.8675    1.5027    0.0000 C   0  0  0  0  0  0  0  0  0  0  0  0
   -0.8675    0.4975    0.0000 C   0  0  0  0  0  0  0  0  0  0  0  0
    0.0000    0.0000    0.0000 C   0  0  0  0  0  0  0  0  0  0  0  0
    2.5966   -1.5050    0.0000 C   0  0  3  0  0  0  0  0  0  0  0  0
    3.4634   -1.0063    0.0000 C   0  0  0  0  0  0  0  0  0  0  0  0
    3.4619   -0.0011    0.0000 C   0  0  0  0  0  0  0  0  0  0  0  0
    4.3286    0.4977    0.0000 C   0  0  0  0  0  0  0  0  0  0  0  0
    5.1969    0.0015    0.0000 C   0  0  0  0  0  0  0  0  0  0  0  0
    5.1984   -1.0037    0.0000 C   0  0  0  0  0  0  0  0  0  0  0  0
    4.3317   -1.5127    0.0000 C   0  0  0  0  0  0  0  0  0  0  0  0
    2.5952   -2.5050    0.0000 O   0  0  0  0  0  0  0  0  0  0  0  0
    3.4605   -3.0063    0.0000 C   0  0  0  0  0  0  0  0  0  0  0  0
    3.4590   -4.0063    0.0000 C   0  0  0  0  0  0  0  0  0  0  0  0
    4.3243   -4.5075    0.0000 N   0  0  0  0  0  0  0  0  0  0  0  0
    4.3229   -5.5075    0.0000 C   0  0  0  0  0  0  0  0  0  0  0  0
  1  2  2  0  0  0  0
  2  3  1  0  0  0  0
  3  4  1  0  0  0  0
  4  9  2  0  0  0  0
  4  5  1  0  0  0  0
  5  6  2  0  0  0  0
  6  7  1  0  0  0  0
  7  8  2  0  0  0  0
  8  9  1  0  0  0  0
  2 10  1  0  0  0  0
 10 11  1  0  0  0  0
 11 16  2  0  0  0  0
 11 12  1  0  0  0  0
 12 13  2  0  0  0  0
 13 14  1  0  0  0  0
 14 15  2  0  0  0  0
 15 16  1  0  0  0  0
 10 17  1  0  0  0  0
 17 18  1  0  0  0  0
 18 19  1  0  0  0  0
 19 20  1  0  0  0  0
 20 21  1  0  0  0  0
M  END
$$$$
ADA-UNI-f8e-5
  -OEChem-03222016562D

 20 21  0     1  0  0  0  0  0999 V2000
    0.8646   -1.5025    0.0000 O   0  0  0  0  0  0  0  0  0  0  0  0
    1.7313   -1.0038    0.0000 C   0  0  0  0  0  0  0  0  0  0  0  0
    1.7328   -0.0038    0.0000 N   0  0  0  0  0  0  0  0  0  0  0  0
    0.8675    0.4975    0.0000 C   0  0  0  0  0  0  0  0  0  0  0  0
    0.8675    1.5027    0.0000 C   0  0  0  0  0  0  0  0  0  0  0  0
   -0.0000    2.0104    0.0000 N   0  0  0  0  0  0  0  0  0  0  0  0
   -0.8675    1.5027    0.0000 C   0  0  0  0  0  0  0  0  0  0  0  0
   -0.8675    0.4975    0.0000 C   0  0  0  0  0  0  0  0  0  0  0  0
    0.0000    0.0000    0.0000 C   0  0  0  0  0  0  0  0  0  0  0  0
    2.5966   -1.5050    0.0000 C   0  0  3  0  0  0  0  0  0  0  0  0
    3.4634   -1.0063    0.0000 C   0  0  0  0  0  0  0  0  0  0  0  0
    3.4619   -0.0011    0.0000 C   0  0  0  0  0  0  0  0  0  0  0  0
    4.3286    0.4977    0.0000 C   0  0  0  0  0  0  0  0  0  0  0  0
    5.1969    0.0015    0.0000 C   0  0  0  0  0  0  0  0  0  0  0  0
    5.1984   -1.0037    0.0000 C   0  0  0  0  0  0  0  0  0  0  0  0
    4.3317   -1.5127    0.0000 C   0  0  0  0  0  0  0  0  0  0  0  0
    2.5952   -2.5050    0.0000 C   0  0  0  0  0  0  0  0  0  0  0  0
    3.4605   -3.0063    0.0000 C   0  0  0  0  0  0  0  0  0  0  0  0
    3.4590   -4.0063    0.0000 N   0  0  0  0  0  0  0  0  0  0  0  0
    4.3243   -4.5075    0.0000 C   0  0  0  0  0  0  0  0  0  0  0  0
  1  2  2  0  0  0  0
  2  3  1  0  0  0  0
  3  4  1  0  0  0  0
  4  9  2  0  0  0  0
  4  5  1  0  0  0  0
  5  6  2  0  0  0  0
  6  7  1  0  0  0  0
  7  8  2  0  0  0  0
  8  9  1  0  0  0  0
  2 10  1  0  0  0  0
 10 11  1  0  0  0  0
 11 16  2  0  0  0  0
 11 12  1  0  0  0  0
 12 13  2  0  0  0  0
 13 14  1  0  0  0  0
 14 15  2  0  0  0  0
 15 16  1  0  0  0  0
 10 17  1  0  0  0  0
 17 18  1  0  0  0  0
 18 19  1  0  0  0  0
 19 20  1  0  0  0  0
M  END
$$$$
ADA-UNI-f8e-6
  -OEChem-03222016562D

 21 23  0     1  0  0  0  0  0999 V2000
    0.8646   -1.5025    0.0000 O   0  0  0  0  0  0  0  0  0  0  0  0
    1.7313   -1.0038    0.0000 C   0  0  0  0  0  0  0  0  0  0  0  0
    1.7328   -0.0038    0.0000 N   0  0  0  0  0  0  0  0  0  0  0  0
    0.8675    0.4975    0.0000 C   0  0  0  0  0  0  0  0  0  0  0  0
    0.8675    1.5027    0.0000 C   0  0  0  0  0  0  0  0  0  0  0  0
   -0.0000    2.0104    0.0000 N   0  0  0  0  0  0  0  0  0  0  0  0
   -0.8675    1.5027    0.0000 C   0  0  0  0  0  0  0  0  0  0  0  0
   -0.8675    0.4975    0.0000 C   0  0  0  0  0  0  0  0  0  0  0  0
    0.0000    0.0000    0.0000 C   0  0  0  0  0  0  0  0  0  0  0  0
    2.5966   -1.5050    0.0000 C   0  0  3  0  0  0  0  0  0  0  0  0
    2.2523   -2.4458    0.0000 C   0  0  3  0  0  0  0  0  0  0  0  0
    1.4858   -3.0881    0.0000 C   0  0  0  0  0  0  0  0  0  0  0  0
    1.6587   -4.0730    0.0000 N   0  0  0  0  0  0  0  0  0  0  0  0
    0.8922   -4.7152    0.0000 C   0  0  0  0  0  0  0  0  0  0  0  0
    3.2389   -2.2715    0.0000 C   0  0  0  0  0  0  0  0  0  0  0  0
    3.2403   -0.7397    0.0000 C   0  0  0  0  0  0  0  0  0  0  0  0
    2.8947    0.2043    0.0000 C   0  0  0  0  0  0  0  0  0  0  0  0
    3.5383    0.9697    0.0000 C   0  0  0  0  0  0  0  0  0  0  0  0
    4.5240    0.8007    0.0000 C   0  0  0  0  0  0  0  0  0  0  0  0
    4.8695   -0.1432    0.0000 C   0  0  0  0  0  0  0  0  0  0  0  0
    4.2294   -0.9182    0.0000 C   0  0  0  0  0  0  0  0  0  0  0  0
  1  2  2  0  0  0  0
  2  3  1  0  0  0  0
  3  4  1  0  0  0  0
  4  9  2  0  0  0  0
  4  5  1  0  0  0  0
  5  6  2  0  0  0  0
  6  7  1  0  0  0  0
  7  8  2  0  0  0  0
  8  9  1  0  0  0  0
  2 10  1  0  0  0  0
 10 15  1  0  0  0  0
 10 11  1  0  0  0  0
 11 12  1  0  0  0  0
 12 13  1  0  0  0  0
 13 14  1  0  0  0  0
 11 15  1  0  0  0  0
 10 16  1  0  0  0  0
 16 21  2  0  0  0  0
 16 17  1  0  0  0  0
 17 18  2  0  0  0  0
 18 19  1  0  0  0  0
 19 20  2  0  0  0  0
 20 21  1  0  0  0  0
M  END
$$$$
ADA-UNI-f8e-7
  -OEChem-03222016562D

 25 26  0     1  0  0  0  0  0999 V2000
    0.8646   -1.5025    0.0000 O   0  0  0  0  0  0  0  0  0  0  0  0
    1.7313   -1.0038    0.0000 C   0  0  0  0  0  0  0  0  0  0  0  0
    1.7328   -0.0038    0.0000 N   0  0  0  0  0  0  0  0  0  0  0  0
    0.8675    0.4975    0.0000 C   0  0  0  0  0  0  0  0  0  0  0  0
    0.8675    1.5027    0.0000 C   0  0  0  0  0  0  0  0  0  0  0  0
   -0.0000    2.0104    0.0000 N   0  0  0  0  0  0  0  0  0  0  0  0
   -0.8675    1.5027    0.0000 C   0  0  0  0  0  0  0  0  0  0  0  0
   -0.8675    0.4975    0.0000 C   0  0  0  0  0  0  0  0  0  0  0  0
    0.0000    0.0000    0.0000 C   0  0  0  0  0  0  0  0  0  0  0  0
    2.5966   -1.5050    0.0000 C   0  0  3  0  0  0  0  0  0  0  0  0
    3.4634   -1.0063    0.0000 C   0  0  0  0  0  0  0  0  0  0  0  0
    4.3317   -1.5127    0.0000 C   0  0  0  0  0  0  0  0  0  0  0  0
    5.1984   -1.0037    0.0000 C   0  0  0  0  0  0  0  0  0  0  0  0
    6.0666   -1.4998    0.0000 Cl  0  0  0  0  0  0  0  0  0  0  0  0
    5.1969    0.0015    0.0000 C   0  0  0  0  0  0  0  0  0  0  0  0
    4.3286    0.4977    0.0000 C   0  0  0  0  0  0  0  0  0  0  0  0
    3.4619   -0.0011    0.0000 C   0  0  0  0  0  0  0  0  0  0  0  0
    2.5952   -2.5050    0.0000 O   0  0  0  0  0  0  0  0  0  0  0  0
    3.4605   -3.0063    0.0000 C   0  0  0  0  0  0  0  0  0  0  0  0
    3.4590   -4.0063    0.0000 C   0  0  0  0  0  0  0  0  0  0  0  0
    4.3243   -4.5075    0.0000 N   0  0  0  0  0  0  0  0  0  0  0  0
    4.3229   -5.5075    0.0000 S   0  0  0  0  0  0  0  0  0  0  0  0
    5.3229   -5.5090    0.0000 O   0  0  0  0  0  0  0  0  0  0  0  0
    3.3229   -5.5061    0.0000 O   0  0  0  0  0  0  0  0  0  0  0  0
    4.3214   -6.5075    0.0000 C   0  0  0  0  0  0  0  0  0  0  0  0
  1  2  2  0  0  0  0
  2  3  1  0  0  0  0
  3  4  1  0  0  0  0
  4  9  2  0  0  0  0
  4  5  1  0  0  0  0
  5  6  2  0  0  0  0
  6  7  1  0  0  0  0
  7  8  2  0  0  0  0
  8  9  1  0  0  0  0
  2 10  1  0  0  0  0
 10 11  1  0  0  0  0
 11 17  2  0  0  0  0
 11 12  1  0  0  0  0
 12 13  2  0  0  0  0
 13 14  1  0  0  0  0
 13 15  1  0  0  0  0
 15 16  2  0  0  0  0
 16 17  1  0  0  0  0
 10 18  1  0  0  0  0
 18 19  1  0  0  0  0
 19 20  1  0  0  0  0
 20 21  1  0  0  0  0
 21 22  1  0  0  0  0
 22 23  2  0  0  0  0
 22 24  2  0  0  0  0
 22 25  1  0  0  0  0
M  END
$$$$
ADA-UNI-f8e-8
  -OEChem-03222016562D

 24 25  0     1  0  0  0  0  0999 V2000
    0.8646   -1.5025    0.0000 O   0  0  0  0  0  0  0  0  0  0  0  0
    1.7313   -1.0038    0.0000 C   0  0  0  0  0  0  0  0  0  0  0  0
    1.7328   -0.0038    0.0000 N   0  0  0  0  0  0  0  0  0  0  0  0
    0.8675    0.4975    0.0000 C   0  0  0  0  0  0  0  0  0  0  0  0
    0.8675    1.5027    0.0000 C   0  0  0  0  0  0  0  0  0  0  0  0
   -0.0000    2.0104    0.0000 N   0  0  0  0  0  0  0  0  0  0  0  0
   -0.8675    1.5027    0.0000 C   0  0  0  0  0  0  0  0  0  0  0  0
   -0.8675    0.4975    0.0000 C   0  0  0  0  0  0  0  0  0  0  0  0
    0.0000    0.0000    0.0000 C   0  0  0  0  0  0  0  0  0  0  0  0
    2.5966   -1.5050    0.0000 C   0  0  3  0  0  0  0  0  0  0  0  0
    3.4634   -1.0063    0.0000 C   0  0  0  0  0  0  0  0  0  0  0  0
    4.3317   -1.5127    0.0000 C   0  0  0  0  0  0  0  0  0  0  0  0
    5.1984   -1.0037    0.0000 C   0  0  0  0  0  0  0  0  0  0  0  0
    6.0666   -1.4998    0.0000 Cl  0  0  0  0  0  0  0  0  0  0  0  0
    5.1969    0.0015    0.0000 C   0  0  0  0  0  0  0  0  0  0  0  0
    4.3286    0.4977    0.0000 C   0  0  0  0  0  0  0  0  0  0  0  0
    3.4619   -0.0011    0.0000 C   0  0  0  0  0  0  0  0  0  0  0  0
    2.5952   -2.5050    0.0000 C   0  0  0  0  0  0  0  0  0  0  0  0
    3.4605   -3.0063    0.0000 C   0  0  0  0  0  0  0  0  0  0  0  0
    3.4590   -4.0063    0.0000 N   0  0  0  0  0  0  0  0  0  0  0  0
    4.3243   -4.5075    0.0000 S   0  0  0  0  0  0  0  0  0  0  0  0
    4.8256   -3.6422    0.0000 O   0  0  0  0  0  0  0  0  0  0  0  0
    3.8231   -5.3728    0.0000 O   0  0  0  0  0  0  0  0  0  0  0  0
    5.1896   -5.0088    0.0000 C   0  0  0  0  0  0  0  0  0  0  0  0
  1  2  2  0  0  0  0
  2  3  1  0  0  0  0
  3  4  1  0  0  0  0
  4  9  2  0  0  0  0
  4  5  1  0  0  0  0
  5  6  2  0  0  0  0
  6  7  1  0  0  0  0
  7  8  2  0  0  0  0
  8  9  1  0  0  0  0
  2 10  1  0  0  0  0
 10 11  1  0  0  0  0
 11 17  2  0  0  0  0
 11 12  1  0  0  0  0
 12 13  2  0  0  0  0
 13 14  1  0  0  0  0
 13 15  1  0  0  0  0
 15 16  2  0  0  0  0
 16 17  1  0  0  0  0
 10 18  1  0  0  0  0
 18 19  1  0  0  0  0
 19 20  1  0  0  0  0
 20 21  1  0  0  0  0
 21 22  2  0  0  0  0
 21 23  2  0  0  0  0
 21 24  1  0  0  0  0
M  END
$$$$
ADA-UNI-f8e-9
  -OEChem-03222016562D

 25 27  0     1  0  0  0  0  0999 V2000
    0.8646   -1.5025    0.0000 O   0  0  0  0  0  0  0  0  0  0  0  0
    1.7313   -1.0038    0.0000 C   0  0  0  0  0  0  0  0  0  0  0  0
    1.7328   -0.0038    0.0000 N   0  0  0  0  0  0  0  0  0  0  0  0
    0.8675    0.4975    0.0000 C   0  0  0  0  0  0  0  0  0  0  0  0
    0.8675    1.5027    0.0000 C   0  0  0  0  0  0  0  0  0  0  0  0
   -0.0000    2.0104    0.0000 N   0  0  0  0  0  0  0  0  0  0  0  0
   -0.8675    1.5027    0.0000 C   0  0  0  0  0  0  0  0  0  0  0  0
   -0.8675    0.4975    0.0000 C   0  0  0  0  0  0  0  0  0  0  0  0
    0.0000    0.0000    0.0000 C   0  0  0  0  0  0  0  0  0  0  0  0
    2.5966   -1.5050    0.0000 C   0  0  3  0  0  0  0  0  0  0  0  0
    2.2523   -2.4458    0.0000 C   0  0  3  0  0  0  0  0  0  0  0  0
    1.4858   -3.0881    0.0000 C   0  0  0  0  0  0  0  0  0  0  0  0
    1.6587   -4.0730    0.0000 N   0  0  0  0  0  0  0  0  0  0  0  0
    0.8922   -4.7152    0.0000 S   0  0  0  0  0  0  0  0  0  0  0  0
    1.5344   -5.4818    0.0000 O   0  0  0  0  0  0  0  0  0  0  0  0
    0.2500   -3.9487    0.0000 O   0  0  0  0  0  0  0  0  0  0  0  0
    0.1257   -5.3575    0.0000 C   0  0  0  0  0  0  0  0  0  0  0  0
    3.2389   -2.2715    0.0000 C   0  0  0  0  0  0  0  0  0  0  0  0
    3.2403   -0.7397    0.0000 C   0  0  0  0  0  0  0  0  0  0  0  0
    4.2294   -0.9182    0.0000 C   0  0  0  0  0  0  0  0  0  0  0  0
    4.8695   -0.1432    0.0000 C   0  0  0  0  0  0  0  0  0  0  0  0
    5.8552   -0.3121    0.0000 Cl  0  0  0  0  0  0  0  0  0  0  0  0
    4.5240    0.8007    0.0000 C   0  0  0  0  0  0  0  0  0  0  0  0
    3.5383    0.9697    0.0000 C   0  0  0  0  0  0  0  0  0  0  0  0
    2.8947    0.2043    0.0000 C   0  0  0  0  0  0  0  0  0  0  0  0
  1  2  2  0  0  0  0
  2  3  1  0  0  0  0
  3  4  1  0  0  0  0
  4  9  2  0  0  0  0
  4  5  1  0  0  0  0
  5  6  2  0  0  0  0
  6  7  1  0  0  0  0
  7  8  2  0  0  0  0
  8  9  1  0  0  0  0
  2 10  1  0  0  0  0
 10 18  1  0  0  0  0
 10 11  1  0  0  0  0
 11 12  1  0  0  0  0
 12 13  1  0  0  0  0
 13 14  1  0  0  0  0
 14 15  2  0  0  0  0
 14 16  2  0  0  0  0
 14 17  1  0  0  0  0
 11 18  1  0  0  0  0
 10 19  1  0  0  0  0
 19 25  2  0  0  0  0
 19 20  1  0  0  0  0
 20 21  2  0  0  0  0
 21 22  1  0  0  0  0
 21 23  1  0  0  0  0
 23 24  2  0  0  0  0
 24 25  1  0  0  0  0
M  END
$$$$
ADA-UNI-f8e-10
  -OEChem-03222016562D

 22 23  0     1  0  0  0  0  0999 V2000
    0.8646   -1.5025    0.0000 O   0  0  0  0  0  0  0  0  0  0  0  0
    1.7313   -1.0038    0.0000 C   0  0  0  0  0  0  0  0  0  0  0  0
    1.7328   -0.0038    0.0000 N   0  0  0  0  0  0  0  0  0  0  0  0
    0.8675    0.4975    0.0000 C   0  0  0  0  0  0  0  0  0  0  0  0
    0.8675    1.5027    0.0000 C   0  0  0  0  0  0  0  0  0  0  0  0
   -0.0000    2.0104    0.0000 N   0  0  0  0  0  0  0  0  0  0  0  0
   -0.8675    1.5027    0.0000 C   0  0  0  0  0  0  0  0  0  0  0  0
   -0.8675    0.4975    0.0000 C   0  0  0  0  0  0  0  0  0  0  0  0
    0.0000    0.0000    0.0000 C   0  0  0  0  0  0  0  0  0  0  0  0
    2.5966   -1.5050    0.0000 C   0  0  3  0  0  0  0  0  0  0  0  0
    3.4634   -1.0063    0.0000 C   0  0  0  0  0  0  0  0  0  0  0  0
    4.3317   -1.5127    0.0000 C   0  0  0  0  0  0  0  0  0  0  0  0
    5.1984   -1.0037    0.0000 C   0  0  0  0  0  0  0  0  0  0  0  0
    6.0666   -1.4998    0.0000 Cl  0  0  0  0  0  0  0  0  0  0  0  0
    5.1969    0.0015    0.0000 C   0  0  0  0  0  0  0  0  0  0  0  0
    4.3286    0.4977    0.0000 C   0  0  0  0  0  0  0  0  0  0  0  0
    3.4619   -0.0011    0.0000 C   0  0  0  0  0  0  0  0  0  0  0  0
    2.5952   -2.5050    0.0000 O   0  0  0  0  0  0  0  0  0  0  0  0
    3.4605   -3.0063    0.0000 C   0  0  0  0  0  0  0  0  0  0  0  0
    3.4590   -4.0063    0.0000 C   0  0  0  0  0  0  0  0  0  0  0  0
    4.3243   -4.5075    0.0000 N   0  0  0  0  0  0  0  0  0  0  0  0
    4.3229   -5.5075    0.0000 C   0  0  0  0  0  0  0  0  0  0  0  0
  1  2  2  0  0  0  0
  2  3  1  0  0  0  0
  3  4  1  0  0  0  0
  4  9  2  0  0  0  0
  4  5  1  0  0  0  0
  5  6  2  0  0  0  0
  6  7  1  0  0  0  0
  7  8  2  0  0  0  0
  8  9  1  0  0  0  0
  2 10  1  0  0  0  0
 10 11  1  0  0  0  0
 11 17  2  0  0  0  0
 11 12  1  0  0  0  0
 12 13  2  0  0  0  0
 13 14  1  0  0  0  0
 13 15  1  0  0  0  0
 15 16  2  0  0  0  0
 16 17  1  0  0  0  0
 10 18  1  0  0  0  0
 18 19  1  0  0  0  0
 19 20  1  0  0  0  0
 20 21  1  0  0  0  0
 21 22  1  0  0  0  0
M  END
$$$$
ADA-UNI-f8e-11
  -OEChem-03222016562D

 21 22  0     1  0  0  0  0  0999 V2000
    0.8646   -1.5025    0.0000 O   0  0  0  0  0  0  0  0  0  0  0  0
    1.7313   -1.0038    0.0000 C   0  0  0  0  0  0  0  0  0  0  0  0
    1.7328   -0.0038    0.0000 N   0  0  0  0  0  0  0  0  0  0  0  0
    0.8675    0.4975    0.0000 C   0  0  0  0  0  0  0  0  0  0  0  0
    0.8675    1.5027    0.0000 C   0  0  0  0  0  0  0  0  0  0  0  0
   -0.0000    2.0104    0.0000 N   0  0  0  0  0  0  0  0  0  0  0  0
   -0.8675    1.5027    0.0000 C   0  0  0  0  0  0  0  0  0  0  0  0
   -0.8675    0.4975    0.0000 C   0  0  0  0  0  0  0  0  0  0  0  0
    0.0000    0.0000    0.0000 C   0  0  0  0  0  0  0  0  0  0  0  0
    2.5966   -1.5050    0.0000 C   0  0  3  0  0  0  0  0  0  0  0  0
    3.4634   -1.0063    0.0000 C   0  0  0  0  0  0  0  0  0  0  0  0
    4.3317   -1.5127    0.0000 C   0  0  0  0  0  0  0  0  0  0  0  0
    5.1984   -1.0037    0.0000 C   0  0  0  0  0  0  0  0  0  0  0  0
    6.0666   -1.4998    0.0000 Cl  0  0  0  0  0  0  0  0  0  0  0  0
    5.1969    0.0015    0.0000 C   0  0  0  0  0  0  0  0  0  0  0  0
    4.3286    0.4977    0.0000 C   0  0  0  0  0  0  0  0  0  0  0  0
    3.4619   -0.0011    0.0000 C   0  0  0  0  0  0  0  0  0  0  0  0
    2.5952   -2.5050    0.0000 C   0  0  0  0  0  0  0  0  0  0  0  0
    3.4605   -3.0063    0.0000 C   0  0  0  0  0  0  0  0  0  0  0  0
    3.4590   -4.0063    0.0000 N   0  0  0  0  0  0  0  0  0  0  0  0
    4.3243   -4.5075    0.0000 C   0  0  0  0  0  0  0  0  0  0  0  0
  1  2  2  0  0  0  0
  2  3  1  0  0  0  0
  3  4  1  0  0  0  0
  4  9  2  0  0  0  0
  4  5  1  0  0  0  0
  5  6  2  0  0  0  0
  6  7  1  0  0  0  0
  7  8  2  0  0  0  0
  8  9  1  0  0  0  0
  2 10  1  0  0  0  0
 10 11  1  0  0  0  0
 11 17  2  0  0  0  0
 11 12  1  0  0  0  0
 12 13  2  0  0  0  0
 13 14  1  0  0  0  0
 13 15  1  0  0  0  0
 15 16  2  0  0  0  0
 16 17  1  0  0  0  0
 10 18  1  0  0  0  0
 18 19  1  0  0  0  0
 19 20  1  0  0  0  0
 20 21  1  0  0  0  0
M  END
$$$$
ADA-UNI-f8e-12
  -OEChem-03222016562D

 22 24  0     1  0  0  0  0  0999 V2000
    0.8646   -1.5025    0.0000 O   0  0  0  0  0  0  0  0  0  0  0  0
    1.7313   -1.0038    0.0000 C   0  0  0  0  0  0  0  0  0  0  0  0
    1.7328   -0.0038    0.0000 N   0  0  0  0  0  0  0  0  0  0  0  0
    0.8675    0.4975    0.0000 C   0  0  0  0  0  0  0  0  0  0  0  0
    0.8675    1.5027    0.0000 C   0  0  0  0  0  0  0  0  0  0  0  0
   -0.0000    2.0104    0.0000 N   0  0  0  0  0  0  0  0  0  0  0  0
   -0.8675    1.5027    0.0000 C   0  0  0  0  0  0  0  0  0  0  0  0
   -0.8675    0.4975    0.0000 C   0  0  0  0  0  0  0  0  0  0  0  0
    0.0000    0.0000    0.0000 C   0  0  0  0  0  0  0  0  0  0  0  0
    2.5966   -1.5050    0.0000 C   0  0  3  0  0  0  0  0  0  0  0  0
    2.2523   -2.4458    0.0000 C   0  0  3  0  0  0  0  0  0  0  0  0
    1.4858   -3.0881    0.0000 C   0  0  0  0  0  0  0  0  0  0  0  0
    1.6587   -4.0730    0.0000 N   0  0  0  0  0  0  0  0  0  0  0  0
    0.8922   -4.7152    0.0000 C   0  0  0  0  0  0  0  0  0  0  0  0
    3.2389   -2.2715    0.0000 C   0  0  0  0  0  0  0  0  0  0  0  0
    3.2403   -0.7397    0.0000 C   0  0  0  0  0  0  0  0  0  0  0  0
    4.2294   -0.9182    0.0000 C   0  0  0  0  0  0  0  0  0  0  0  0
    4.8695   -0.1432    0.0000 C   0  0  0  0  0  0  0  0  0  0  0  0
    5.8552   -0.3121    0.0000 Cl  0  0  0  0  0  0  0  0  0  0  0  0
    4.5240    0.8007    0.0000 C   0  0  0  0  0  0  0  0  0  0  0  0
    3.5383    0.9697    0.0000 C   0  0  0  0  0  0  0  0  0  0  0  0
    2.8947    0.2043    0.0000 C   0  0  0  0  0  0  0  0  0  0  0  0
  1  2  2  0  0  0  0
  2  3  1  0  0  0  0
  3  4  1  0  0  0  0
  4  9  2  0  0  0  0
  4  5  1  0  0  0  0
  5  6  2  0  0  0  0
  6  7  1  0  0  0  0
  7  8  2  0  0  0  0
  8  9  1  0  0  0  0
  2 10  1  0  0  0  0
 10 15  1  0  0  0  0
 10 11  1  0  0  0  0
 11 12  1  0  0  0  0
 12 13  1  0  0  0  0
 13 14  1  0  0  0  0
 11 15  1  0  0  0  0
 10 16  1  0  0  0  0
 16 22  2  0  0  0  0
 16 17  1  0  0  0  0
 17 18  2  0  0  0  0
 18 19  1  0  0  0  0
 18 20  1  0  0  0  0
 20 21  2  0  0  0  0
 21 22  1  0  0  0  0
M  END
$$$$
DUN-NEW-f8c-1
  -OEChem-03222016562D

 22 24  0     1  0  0  0  0  0999 V2000
   -1.2892   -1.1567    0.0000 O   0  0  0  0  0  0  0  0  0  0  0  0
   -0.9785   -0.2062    0.0000 C   0  0  0  0  0  0  0  0  0  0  0  0
   -1.6463    0.5381    0.0000 N   0  0  0  0  0  0  0  0  0  0  0  0
    0.0000    0.0000    0.0000 C   0  0  1  0  0  0  0  0  0  0  0  0
    0.1036   -0.9946    0.0000 H   0  0  0  0  0  0  0  0  0  0  0  0
    1.0015   -0.0000    0.0000 C   0  0  1  0  0  0  0  0  0  0  0  0
    0.8962   -0.9944    0.0000 H   0  0  0  0  0  0  0  0  0  0  0  0
    1.3133    0.9519    0.0000 C   0  0  0  0  0  0  0  0  0  0  0  0
    0.5008    1.5428    0.0000 N   0  0  3  0  0  0  0  0  0  0  0  0
    0.4993    2.5428    0.0000 C   0  0  0  0  0  0  0  0  0  0  0  0
   -0.3690    3.0390    0.0000 C   0  0  0  0  0  0  0  0  0  0  0  0
   -0.3705    4.0442    0.0000 C   0  0  0  0  0  0  0  0  0  0  0  0
    0.4962    4.5532    0.0000 O   0  0  0  0  0  0  0  0  0  0  0  0
    1.3645    4.0468    0.0000 C   0  0  0  0  0  0  0  0  0  0  0  0
    1.3660    3.0416    0.0000 C   0  0  0  0  0  0  0  0  0  0  0  0
   -0.3065    0.9519    0.0000 C   0  0  0  0  0  0  0  0  0  0  0  0
    1.9793   -0.2095    0.0000 C   0  0  0  0  0  0  0  0  0  0  0  0
    2.6509    0.5385    0.0000 C   0  0  0  0  0  0  0  0  0  0  0  0
    3.6288    0.3290    0.0000 C   0  0  0  0  0  0  0  0  0  0  0  0
    3.9418   -0.6207    0.0000 C   0  0  0  0  0  0  0  0  0  0  0  0
    3.2703   -1.3686    0.0000 C   0  0  0  0  0  0  0  0  0  0  0  0
    2.2856   -1.1668    0.0000 C   0  0  0  0  0  0  0  0  0  0  0  0
  1  2  2  0  0  0  0
  2  3  1  0  0  0  0
  2  4  1  0  0  0  0
  4  5  1  1  0  0  0
  4 16  1  0  0  0  0
  4  6  1  0  0  0  0
  6  7  1  6  0  0  0
  6  8  1  0  0  0  0
  8  9  1  0  0  0  0
  9 10  1  0  0  0  0
 10 15  1  0  0  0  0
 10 11  1  0  0  0  0
 11 12  1  0  0  0  0
 12 13  1  0  0  0  0
 13 14  1  0  0  0  0
 14 15  1  0  0  0  0
  9 16  1  0  0  0  0
  6 17  1  0  0  0  0
 17 22  2  0  0  0  0
 17 18  1  0  0  0  0
 18 19  2  0  0  0  0
 19 20  1  0  0  0  0
 20 21  2  0  0  0  0
 21 22  1  0  0  0  0
M  END
$$$$
DUN-NEW-f8c-2
  -OEChem-03222016562D

 25 27  0     1  0  0  0  0  0999 V2000
    1.7335    3.0129    0.0000 O   0  0  0  0  0  0  0  0  0  0  0  0
    0.8675    2.5129    0.0000 C   0  0  0  0  0  0  0  0  0  0  0  0
    0.8675    1.5129    0.0000 N   0  0  0  0  0  0  0  0  0  0  0  0
    0.0000    1.0052    0.0000 C   0  0  0  0  0  0  0  0  0  0  0  0
    0.0000    0.0000    0.0000 C   0  0  0  0  0  0  0  0  0  0  0  0
    0.8675   -0.4975    0.0000 N   0  0  0  0  0  0  0  0  0  0  0  0
    0.8675   -1.4975    0.0000 C   0  0  0  0  0  0  0  0  0  0  0  0
    1.7335   -1.9975    0.0000 C   0  0  0  0  0  0  0  0  0  0  0  0
    2.6003   -1.4987    0.0000 C   0  0  0  0  0  0  0  0  0  0  0  0
    3.4685   -1.9950    0.0000 C   0  0  0  0  0  0  0  0  0  0  0  0
    3.4700   -3.0002    0.0000 C   0  0  0  0  0  0  0  0  0  0  0  0
    2.6032   -3.5091    0.0000 C   0  0  0  0  0  0  0  0  0  0  0  0
    1.7350   -3.0027    0.0000 C   0  0  0  0  0  0  0  0  0  0  0  0
    0.8682   -3.5014    0.0000 N   0  0  3  0  0  0  0  0  0  0  0  0
   -0.0459   -3.0949    0.0000 C   0  0  0  0  0  0  0  0  0  0  0  0
   -0.7193   -3.8343    0.0000 C   0  0  0  0  0  0  0  0  0  0  0  0
   -0.2212   -4.7031    0.0000 C   0  0  0  0  0  0  0  0  0  0  0  0
    0.7597   -4.5002    0.0000 C   0  0  3  0  0  0  0  0  0  0  0  0
    1.4999   -5.1726    0.0000 C   0  0  0  0  0  0  0  0  0  0  0  0
    1.2876   -6.1498    0.0000 O   0  0  0  0  0  0  0  0  0  0  0  0
    2.4523   -4.8678    0.0000 N   0  0  0  0  0  0  0  0  0  0  0  0
    1.7350    0.0000    0.0000 C   0  0  0  0  0  0  0  0  0  0  0  0
    1.7350    1.0052    0.0000 C   0  0  0  0  0  0  0  0  0  0  0  0
    0.0015    3.0129    0.0000 C   0  0  0  0  0  0  0  0  0  0  0  0
    0.0015    4.0129    0.0000 Cl  0  0  0  0  0  0  0  0  0  0  0  0
  1  2  2  0  0  0  0
  2  3  1  0  0  0  0
  3 23  1  0  0  0  0
  3  4  1  0  0  0  0
  4  5  1  0  0  0  0
  5  6  1  0  0  0  0
  6  7  1  0  0  0  0
  7  8  1  0  0  0  0
  8 13  1  0  0  0  0
  8  9  2  0  0  0  0
  9 10  1  0  0  0  0
 10 11  2  0  0  0  0
 11 12  1  0  0  0  0
 12 13  2  0  0  0  0
 13 14  1  0  0  0  0
 14 18  1  0  0  0  0
 14 15  1  0  0  0  0
 15 16  1  0  0  0  0
 16 17  1  0  0  0  0
 17 18  1  0  0  0  0
 18 19  1  0  0  0  0
 19 20  2  0  0  0  0
 19 21  1  0  0  0  0
  6 22  1  0  0  0  0
 22 23  1  0  0  0  0
  2 24  1  0  0  0  0
 24 25  1  0  0  0  0
M  END
$$$$
DUN-NEW-f8c-3
  -OEChem-03222016562D

 24 26  0     1  0  0  0  0  0999 V2000
    1.7335    3.0129    0.0000 O   0  0  0  0  0  0  0  0  0  0  0  0
    0.8675    2.5129    0.0000 C   0  0  0  0  0  0  0  0  0  0  0  0
    0.8675    1.5129    0.0000 N   0  0  0  0  0  0  0  0  0  0  0  0
    0.0000    1.0052    0.0000 C   0  0  0  0  0  0  0  0  0  0  0  0
    0.0000    0.0000    0.0000 C   0  0  0  0  0  0  0  0  0  0  0  0
    0.8675   -0.4975    0.0000 N   0  0  0  0  0  0  0  0  0  0  0  0
    1.7350    0.0000    0.0000 C   0  0  0  0  0  0  0  0  0  0  0  0
    1.7350    1.0052    0.0000 C   0  0  0  0  0  0  0  0  0  0  0  0
    0.8675   -1.4975    0.0000 C   0  0  0  0  0  0  0  0  0  0  0  0
    1.7328   -1.9988    0.0000 C   0  0  0  0  0  0  0  0  0  0  0  0
    1.7372   -2.9988    0.0000 C   0  0  0  0  0  0  0  0  0  0  0  0
    0.8674   -3.5027    0.0000 C   0  0  0  0  0  0  0  0  0  0  0  0
   -0.0068   -3.0065    0.0000 C   0  0  0  0  0  0  0  0  0  0  0  0
   -0.0023   -2.0014    0.0000 C   0  0  0  0  0  0  0  0  0  0  0  0
   -0.8676   -1.5001    0.0000 N   0  0  3  0  0  0  0  0  0  0  0  0
   -0.9726   -0.5052    0.0000 C   0  0  0  0  0  0  0  0  0  0  0  0
   -1.9496   -0.2917    0.0000 C   0  0  0  0  0  0  0  0  0  0  0  0
   -2.4530   -1.1575    0.0000 C   0  0  0  0  0  0  0  0  0  0  0  0
   -1.7868   -1.9055    0.0000 C   0  0  3  0  0  0  0  0  0  0  0  0
   -1.9991   -2.8827    0.0000 C   0  0  0  0  0  0  0  0  0  0  0  0
   -2.9515   -3.1875    0.0000 O   0  0  0  0  0  0  0  0  0  0  0  0
   -1.2589   -3.5551    0.0000 N   0  0  0  0  0  0  0  0  0  0  0  0
    0.0015    3.0129    0.0000 C   0  0  0  0  0  0  0  0  0  0  0  0
    0.0015    4.0129    0.0000 Cl  0  0  0  0  0  0  0  0  0  0  0  0
  1  2  2  0  0  0  0
  2  3  1  0  0  0  0
  3  8  1  0  0  0  0
  3  4  1  0  0  0  0
  4  5  1  0  0  0  0
  5  6  1  0  0  0  0
  6  7  1  0  0  0  0
  7  8  1  0  0  0  0
  6  9  1  0  0  0  0
  9 14  1  0  0  0  0
  9 10  2  0  0  0  0
 10 11  1  0  0  0  0
 11 12  2  0  0  0  0
 12 13  1  0  0  0  0
 13 14  2  0  0  0  0
 14 15  1  0  0  0  0
 15 19  1  0  0  0  0
 15 16  1  0  0  0  0
 16 17  1  0  0  0  0
 17 18  1  0  0  0  0
 18 19  1  0  0  0  0
 19 20  1  0  0  0  0
 20 21  2  0  0  0  0
 20 22  1  0  0  0  0
  2 23  1  0  0  0  0
 23 24  1  0  0  0  0
M  END
$$$$
DUN-NEW-f8c-4
  -OEChem-03222016562D

 26 28  0     0  0  0  0  0  0999 V2000
    1.7340    5.0138    0.0000 C   0  0  0  0  0  0  0  0  0  0  0  0
    0.8680    4.5138    0.0000 S   0  0  0  0  0  0  0  0  0  0  0  0
    1.3680    3.6478    0.0000 O   0  0  0  0  0  0  0  0  0  0  0  0
    0.3680    5.3798    0.0000 O   0  0  0  0  0  0  0  0  0  0  0  0
    0.0020    4.0138    0.0000 N   0  0  0  0  0  0  0  0  0  0  0  0
    0.0020    3.0138    0.0000 C   0  0  0  0  0  0  0  0  0  0  0  0
    0.8680    2.5138    0.0000 C   0  0  0  0  0  0  0  0  0  0  0  0
    0.8680    1.5138    0.0000 C   0  0  0  0  0  0  0  0  0  0  0  0
    0.0000    1.0058    0.0000 C   0  0  0  0  0  0  0  0  0  0  0  0
    0.0000    0.0000    0.0000 C   0  0  0  0  0  0  0  0  0  0  0  0
    0.8680   -0.4978    0.0000 C   0  0  0  0  0  0  0  0  0  0  0  0
    1.7360   -0.0012    0.0000 C   0  0  0  0  0  0  0  0  0  0  0  0
    2.6938   -0.3125    0.0000 C   0  0  0  0  0  0  0  0  0  0  0  0
    3.2858    0.5023    0.0000 C   0  0  0  0  0  0  0  0  0  0  0  0
    2.6938    1.3169    0.0000 N   0  0  0  0  0  0  0  0  0  0  0  0
    1.7360    1.0058    0.0000 C   0  0  0  0  0  0  0  0  0  0  0  0
    3.0028    2.2680    0.0000 C   0  0  0  0  0  0  0  0  0  0  0  0
    3.9810    2.4759    0.0000 C   0  0  0  0  0  0  0  0  0  0  0  0
    4.6501    1.7327    0.0000 O   0  0  0  0  0  0  0  0  0  0  0  0
    4.2900    3.4269    0.0000 N   0  0  0  0  0  0  0  0  0  0  0  0
    5.2681    3.6349    0.0000 C   0  0  0  0  0  0  0  0  0  0  0  0
    5.9383    2.8927    0.0000 C   0  0  0  0  0  0  0  0  0  0  0  0
    6.9174    3.0964    0.0000 C   0  0  0  0  0  0  0  0  0  0  0  0
    7.2294    4.0519    0.0000 C   0  0  0  0  0  0  0  0  0  0  0  0
    6.5623    4.8038    0.0000 N   0  0  0  0  0  0  0  0  0  0  0  0
    5.5801    4.5904    0.0000 C   0  0  0  0  0  0  0  0  0  0  0  0
  1  2  1  0  0  0  0
  2  3  2  0  0  0  0
  2  4  2  0  0  0  0
  2  5  1  0  0  0  0
  5  6  1  0  0  0  0
  6  7  1  0  0  0  0
  7  8  1  0  0  0  0
  8 16  2  0  0  0  0
  8  9  1  0  0  0  0
  9 10  2  0  0  0  0
 10 11  1  0  0  0  0
 11 12  2  0  0  0  0
 12 16  1  0  0  0  0
 12 13  1  0  0  0  0
 13 14  2  0  0  0  0
 14 15  1  0  0  0  0
 15 16  1  0  0  0  0
 15 17  1  0  0  0  0
 17 18  1  0  0  0  0
 18 19  2  0  0  0  0
 18 20  1  0  0  0  0
 20 21  1  0  0  0  0
 21 26  2  0  0  0  0
 21 22  1  0  0  0  0
 22 23  2  0  0  0  0
 23 24  1  0  0  0  0
 24 25  2  0  0  0  0
 25 26  1  0  0  0  0
M  END
$$$$
DUN-NEW-f8c-5
  -OEChem-03222016562D

 32 34  0     0  0  0  0  0  0999 V2000
    5.5770   -3.5816    0.0000 C   0  0  0  0  0  0  0  0  0  0  0  0
    5.2680   -2.6306    0.0000 C   0  0  0  0  0  0  0  0  0  0  0  0
    5.9372   -1.8874    0.0000 O   0  0  0  0  0  0  0  0  0  0  0  0
    4.2899   -2.4226    0.0000 N   0  0  0  0  0  0  0  0  0  0  0  0
    3.9809   -1.4715    0.0000 C   0  0  0  0  0  0  0  0  0  0  0  0
    3.0028   -1.2636    0.0000 C   0  0  0  0  0  0  0  0  0  0  0  0
    2.6938   -0.3125    0.0000 C   0  0  0  0  0  0  0  0  0  0  0  0
    1.7360   -0.0012    0.0000 C   0  0  0  0  0  0  0  0  0  0  0  0
    1.7360    1.0058    0.0000 C   0  0  0  0  0  0  0  0  0  0  0  0
    0.8680    1.5138    0.0000 C   0  0  0  0  0  0  0  0  0  0  0  0
    0.0000    1.0058    0.0000 C   0  0  0  0  0  0  0  0  0  0  0  0
    0.0000    0.0000    0.0000 C   0  0  0  0  0  0  0  0  0  0  0  0
    0.8680   -0.4978    0.0000 C   0  0  0  0  0  0  0  0  0  0  0  0
    0.8680    2.5138    0.0000 C   0  0  0  0  0  0  0  0  0  0  0  0
    0.0020    3.0138    0.0000 C   0  0  0  0  0  0  0  0  0  0  0  0
   -0.8641    2.5138    0.0000 N   0  0  0  0  0  0  0  0  0  0  0  0
   -1.7301    3.0138    0.0000 S   0  0  0  0  0  0  0  0  0  0  0  0
   -1.2301    3.8798    0.0000 O   0  0  0  0  0  0  0  0  0  0  0  0
   -2.2301    2.1478    0.0000 O   0  0  0  0  0  0  0  0  0  0  0  0
   -2.5961    3.5138    0.0000 C   0  0  0  0  0  0  0  0  0  0  0  0
    2.6938    1.3169    0.0000 N   0  0  0  0  0  0  0  0  0  0  0  0
    3.0028    2.2680    0.0000 C   0  0  0  0  0  0  0  0  0  0  0  0
    3.9810    2.4759    0.0000 C   0  0  0  0  0  0  0  0  0  0  0  0
    4.6501    1.7327    0.0000 O   0  0  0  0  0  0  0  0  0  0  0  0
    4.2900    3.4269    0.0000 C   0  0  0  0  0  0  0  0  0  0  0  0
    5.2681    3.6349    0.0000 C   0  0  0  0  0  0  0  0  0  0  0  0
    5.9383    2.8927    0.0000 C   0  0  0  0  0  0  0  0  0  0  0  0
    6.9174    3.0964    0.0000 C   0  0  0  0  0  0  0  0  0  0  0  0
    7.2294    4.0519    0.0000 C   0  0  0  0  0  0  0  0  0  0  0  0
    6.5623    4.8038    0.0000 N   0  0  0  0  0  0  0  0  0  0  0  0
    5.5801    4.5904    0.0000 C   0  0  0  0  0  0  0  0  0  0  0  0
    3.2858    0.5023    0.0000 C   0  0  0  0  0  0  0  0  0  0  0  0
  1  2  1  0  0  0  0
  2  3  2  0  0  0  0
  2  4  1  0  0  0  0
  4  5  1  0  0  0  0
  5  6  1  0  0  0  0
  6  7  1  0  0  0  0
  7 32  2  0  0  0  0
  7  8  1  0  0  0  0
  8 13  2  0  0  0  0
  8  9  1  0  0  0  0
  9 10  2  0  0  0  0
 10 11  1  0  0  0  0
 11 12  2  0  0  0  0
 12 13  1  0  0  0  0
 10 14  1  0  0  0  0
 14 15  1  0  0  0  0
 15 16  1  0  0  0  0
 16 17  1  0  0  0  0
 17 18  2  0  0  0  0
 17 19  2  0  0  0  0
 17 20  1  0  0  0  0
  9 21  1  0  0  0  0
 21 22  1  0  0  0  0
 22 23  1  0  0  0  0
 23 24  2  0  0  0  0
 23 25  1  0  0  0  0
 25 26  1  0  0  0  0
 26 31  2  0  0  0  0
 26 27  1  0  0  0  0
 27 28  2  0  0  0  0
 28 29  1  0  0  0  0
 29 30  2  0  0  0  0
 30 31  1  0  0  0  0
 21 32  1  0  0  0  0
M  END
$$$$
DUN-NEW-f8c-6
  -OEChem-03222016562D

 28 31  0     0  0  0  0  0  0999 V2000
    5.5770   -3.5816    0.0000 C   0  0  0  0  0  0  0  0  0  0  0  0
    5.2680   -2.6306    0.0000 C   0  0  0  0  0  0  0  0  0  0  0  0
    5.9372   -1.8874    0.0000 O   0  0  0  0  0  0  0  0  0  0  0  0
    4.2899   -2.4226    0.0000 N   0  0  0  0  0  0  0  0  0  0  0  0
    3.9809   -1.4715    0.0000 C   0  0  0  0  0  0  0  0  0  0  0  0
    3.0028   -1.2636    0.0000 C   0  0  0  0  0  0  0  0  0  0  0  0
    2.6938   -0.3125    0.0000 C   0  0  0  0  0  0  0  0  0  0  0  0
    1.7360   -0.0012    0.0000 C   0  0  0  0  0  0  0  0  0  0  0  0
    1.7360    1.0058    0.0000 C   0  0  0  0  0  0  0  0  0  0  0  0
    0.8680    1.5138    0.0000 C   0  0  0  0  0  0  0  0  0  0  0  0
    0.0000    1.0058    0.0000 C   0  0  0  0  0  0  0  0  0  0  0  0
    0.0000    0.0000    0.0000 C   0  0  0  0  0  0  0  0  0  0  0  0
    0.8680   -0.4978    0.0000 C   0  0  0  0  0  0  0  0  0  0  0  0
    2.6938    1.3169    0.0000 N   0  0  0  0  0  0  0  0  0  0  0  0
    3.0028    2.2680    0.0000 C   0  0  0  0  0  0  0  0  0  0  0  0
    2.3337    3.0111    0.0000 C   0  0  0  0  0  0  0  0  0  0  0  0
    1.3555    2.8032    0.0000 O   0  0  0  0  0  0  0  0  0  0  0  0
    2.6427    3.9622    0.0000 N   0  0  0  0  0  0  0  0  0  0  0  0
    1.9735    4.7053    0.0000 C   0  0  0  0  0  0  0  0  0  0  0  0
    0.9782    4.6007    0.0000 C   0  0  0  0  0  0  0  0  0  0  0  0
    0.3804    3.7903    0.0000 C   0  0  0  0  0  0  0  0  0  0  0  0
   -0.6139    3.8973    0.0000 C   0  0  0  0  0  0  0  0  0  0  0  0
   -1.0177    4.8178    0.0000 C   0  0  0  0  0  0  0  0  0  0  0  0
   -0.4273    5.6313    0.0000 N   0  0  0  0  0  0  0  0  0  0  0  0
    0.5710    5.5149    0.0000 C   0  0  0  0  0  0  0  0  0  0  0  0
    1.3148    6.1846    0.0000 N   0  0  0  0  0  0  0  0  0  0  0  0
    2.1817    5.6844    0.0000 C   0  0  0  0  0  0  0  0  0  0  0  0
    3.2858    0.5023    0.0000 C   0  0  0  0  0  0  0  0  0  0  0  0
  1  2  1  0  0  0  0
  2  3  2  0  0  0  0
  2  4  1  0  0  0  0
  4  5  1  0  0  0  0
  5  6  1  0  0  0  0
  6  7  1  0  0  0  0
  7 28  2  0  0  0  0
  7  8  1  0  0  0  0
  8 13  2  0  0  0  0
  8  9  1  0  0  0  0
  9 10  2  0  0  0  0
 10 11  1  0  0  0  0
 11 12  2  0  0  0  0
 12 13  1  0  0  0  0
  9 14  1  0  0  0  0
 14 15  1  0  0  0  0
 15 16  1  0  0  0  0
 16 17  2  0  0  0  0
 16 18  1  0  0  0  0
 18 19  1  0  0  0  0
 19 27  2  0  0  0  0
 19 20  1  0  0  0  0
 20 25  2  0  0  0  0
 20 21  1  0  0  0  0
 21 22  2  0  0  0  0
 22 23  1  0  0  0  0
 23 24  2  0  0  0  0
 24 25  1  0  0  0  0
 25 26  1  0  0  0  0
 26 27  1  0  0  0  0
 14 28  1  0  0  0  0
M  END
$$$$
DUN-NEW-f8c-7
  -OEChem-03222016562D

 28 31  0     0  0  0  0  0  0999 V2000
    2.2825    5.6564    0.0000 C   0  0  0  0  0  0  0  0  0  0  0  0
    1.9735    4.7053    0.0000 C   0  0  0  0  0  0  0  0  0  0  0  0
    0.9954    4.4974    0.0000 O   0  0  0  0  0  0  0  0  0  0  0  0
    2.6427    3.9622    0.0000 N   0  0  0  0  0  0  0  0  0  0  0  0
    2.3337    3.0111    0.0000 C   0  0  0  0  0  0  0  0  0  0  0  0
    3.0028    2.2680    0.0000 C   0  0  0  0  0  0  0  0  0  0  0  0
    2.6938    1.3169    0.0000 N   0  0  0  0  0  0  0  0  0  0  0  0
    3.2858    0.5023    0.0000 C   0  0  0  0  0  0  0  0  0  0  0  0
    2.6938   -0.3125    0.0000 C   0  0  0  0  0  0  0  0  0  0  0  0
    3.0028   -1.2636    0.0000 C   0  0  0  0  0  0  0  0  0  0  0  0
    3.9809   -1.4715    0.0000 C   0  0  0  0  0  0  0  0  0  0  0  0
    4.6501   -0.7284    0.0000 O   0  0  0  0  0  0  0  0  0  0  0  0
    4.2899   -2.4226    0.0000 N   0  0  0  0  0  0  0  0  0  0  0  0
    5.2680   -2.6306    0.0000 C   0  0  0  0  0  0  0  0  0  0  0  0
    6.0118   -1.9609    0.0000 C   0  0  0  0  0  0  0  0  0  0  0  0
    6.0191   -0.9539    0.0000 C   0  0  0  0  0  0  0  0  0  0  0  0
    6.8865   -0.4561    0.0000 C   0  0  0  0  0  0  0  0  0  0  0  0
    7.7542   -0.9635    0.0000 C   0  0  0  0  0  0  0  0  0  0  0  0
    7.7547   -1.9686    0.0000 N   0  0  0  0  0  0  0  0  0  0  0  0
    6.8785   -2.4613    0.0000 C   0  0  0  0  0  0  0  0  0  0  0  0
    6.6704   -3.4402    0.0000 N   0  0  0  0  0  0  0  0  0  0  0  0
    5.6751   -3.5451    0.0000 C   0  0  0  0  0  0  0  0  0  0  0  0
    1.7360   -0.0012    0.0000 C   0  0  0  0  0  0  0  0  0  0  0  0
    1.7360    1.0058    0.0000 C   0  0  0  0  0  0  0  0  0  0  0  0
    0.8680    1.5138    0.0000 C   0  0  0  0  0  0  0  0  0  0  0  0
    0.0000    1.0058    0.0000 C   0  0  0  0  0  0  0  0  0  0  0  0
    0.0000    0.0000    0.0000 C   0  0  0  0  0  0  0  0  0  0  0  0
    0.8680   -0.4978    0.0000 C   0  0  0  0  0  0  0  0  0  0  0  0
  1  2  1  0  0  0  0
  2  3  2  0  0  0  0
  2  4  1  0  0  0  0
  4  5  1  0  0  0  0
  5  6  1  0  0  0  0
  6  7  1  0  0  0  0
  7 24  1  0  0  0  0
  7  8  1  0  0  0  0
  8  9  2  0  0  0  0
  9 10  1  0  0  0  0
 10 11  1  0  0  0  0
 11 12  2  0  0  0  0
 11 13  1  0  0  0  0
 13 14  1  0  0  0  0
 14 22  2  0  0  0  0
 14 15  1  0  0  0  0
 15 20  2  0  0  0  0
 15 16  1  0  0  0  0
 16 17  2  0  0  0  0
 17 18  1  0  0  0  0
 18 19  2  0  0  0  0
 19 20  1  0  0  0  0
 20 21  1  0  0  0  0
 21 22  1  0  0  0  0
  9 23  1  0  0  0  0
 23 28  2  0  0  0  0
 23 24  1  0  0  0  0
 24 25  2  0  0  0  0
 25 26  1  0  0  0  0
 26 27  2  0  0  0  0
 27 28  1  0  0  0  0
M  END
$$$$
DUN-NEW-f8c-8
  -OEChem-03222016562D

 25 27  0     0  0  0  0  0  0999 V2000
    5.5770   -3.5816    0.0000 C   0  0  0  0  0  0  0  0  0  0  0  0
    5.2680   -2.6306    0.0000 C   0  0  0  0  0  0  0  0  0  0  0  0
    5.9372   -1.8874    0.0000 O   0  0  0  0  0  0  0  0  0  0  0  0
    4.2899   -2.4226    0.0000 N   0  0  0  0  0  0  0  0  0  0  0  0
    3.9809   -1.4715    0.0000 C   0  0  0  0  0  0  0  0  0  0  0  0
    3.0028   -1.2636    0.0000 C   0  0  0  0  0  0  0  0  0  0  0  0
    2.6938   -0.3125    0.0000 C   0  0  0  0  0  0  0  0  0  0  0  0
    1.7360   -0.0012    0.0000 C   0  0  0  0  0  0  0  0  0  0  0  0
    1.7360    1.0058    0.0000 C   0  0  0  0  0  0  0  0  0  0  0  0
    0.8680    1.5138    0.0000 C   0  0  0  0  0  0  0  0  0  0  0  0
    0.0000    1.0058    0.0000 C   0  0  0  0  0  0  0  0  0  0  0  0
    0.0000    0.0000    0.0000 C   0  0  0  0  0  0  0  0  0  0  0  0
    0.8680   -0.4978    0.0000 C   0  0  0  0  0  0  0  0  0  0  0  0
    2.6938    1.3169    0.0000 N   0  0  0  0  0  0  0  0  0  0  0  0
    3.0028    2.2680    0.0000 C   0  0  0  0  0  0  0  0  0  0  0  0
    2.3337    3.0111    0.0000 C   0  0  0  0  0  0  0  0  0  0  0  0
    1.3555    2.8032    0.0000 O   0  0  0  0  0  0  0  0  0  0  0  0
    2.6427    3.9622    0.0000 N   0  0  0  0  0  0  0  0  0  0  0  0
    1.9735    4.7053    0.0000 C   0  0  0  0  0  0  0  0  0  0  0  0
    2.2828    5.6618    0.0000 C   0  0  0  0  0  0  0  0  0  0  0  0
    1.6135    6.4117    0.0000 N   0  0  0  0  0  0  0  0  0  0  0  0
    0.6319    6.1955    0.0000 C   0  0  0  0  0  0  0  0  0  0  0  0
    0.3227    5.2390    0.0000 C   0  0  0  0  0  0  0  0  0  0  0  0
    0.9951    4.4988    0.0000 C   0  0  0  0  0  0  0  0  0  0  0  0
    3.2858    0.5023    0.0000 C   0  0  0  0  0  0  0  0  0  0  0  0
  1  2  1  0  0  0  0
  2  3  2  0  0  0  0
  2  4  1  0  0  0  0
  4  5  1  0  0  0  0
  5  6  1  0  0  0  0
  6  7  1  0  0  0  0
  7 25  2  0  0  0  0
  7  8  1  0  0  0  0
  8 13  2  0  0  0  0
  8  9  1  0  0  0  0
  9 10  2  0  0  0  0
 10 11  1  0  0  0  0
 11 12  2  0  0  0  0
 12 13  1  0  0  0  0
  9 14  1  0  0  0  0
 14 15  1  0  0  0  0
 15 16  1  0  0  0  0
 16 17  2  0  0  0  0
 16 18  1  0  0  0  0
 18 19  1  0  0  0  0
 19 24  2  0  0  0  0
 19 20  1  0  0  0  0
 20 21  2  0  0  0  0
 21 22  1  0  0  0  0
 22 23  2  0  0  0  0
 23 24  1  0  0  0  0
 14 25  1  0  0  0  0
M  END
$$$$
DUN-NEW-f8c-9
  -OEChem-03222016562D

 25 27  0     0  0  0  0  0  0999 V2000
    2.2825    5.6564    0.0000 C   0  0  0  0  0  0  0  0  0  0  0  0
    1.9735    4.7053    0.0000 C   0  0  0  0  0  0  0  0  0  0  0  0
    0.9954    4.4974    0.0000 O   0  0  0  0  0  0  0  0  0  0  0  0
    2.6427    3.9622    0.0000 N   0  0  0  0  0  0  0  0  0  0  0  0
    2.3337    3.0111    0.0000 C   0  0  0  0  0  0  0  0  0  0  0  0
    3.0028    2.2680    0.0000 C   0  0  0  0  0  0  0  0  0  0  0  0
    2.6938    1.3169    0.0000 N   0  0  0  0  0  0  0  0  0  0  0  0
    3.2858    0.5023    0.0000 C   0  0  0  0  0  0  0  0  0  0  0  0
    2.6938   -0.3125    0.0000 C   0  0  0  0  0  0  0  0  0  0  0  0
    3.0028   -1.2636    0.0000 C   0  0  0  0  0  0  0  0  0  0  0  0
    3.9809   -1.4715    0.0000 C   0  0  0  0  0  0  0  0  0  0  0  0
    4.6501   -0.7284    0.0000 O   0  0  0  0  0  0  0  0  0  0  0  0
    4.2899   -2.4226    0.0000 N   0  0  0  0  0  0  0  0  0  0  0  0
    5.2680   -2.6306    0.0000 C   0  0  0  0  0  0  0  0  0  0  0  0
    5.5800   -3.5861    0.0000 C   0  0  0  0  0  0  0  0  0  0  0  0
    6.5622   -3.7995    0.0000 N   0  0  0  0  0  0  0  0  0  0  0  0
    7.2293   -3.0477    0.0000 C   0  0  0  0  0  0  0  0  0  0  0  0
    6.9173   -2.0921    0.0000 C   0  0  0  0  0  0  0  0  0  0  0  0
    5.9383   -1.8884    0.0000 C   0  0  0  0  0  0  0  0  0  0  0  0
    1.7360   -0.0012    0.0000 C   0  0  0  0  0  0  0  0  0  0  0  0
    1.7360    1.0058    0.0000 C   0  0  0  0  0  0  0  0  0  0  0  0
    0.8680    1.5138    0.0000 C   0  0  0  0  0  0  0  0  0  0  0  0
    0.0000    1.0058    0.0000 C   0  0  0  0  0  0  0  0  0  0  0  0
    0.0000    0.0000    0.0000 C   0  0  0  0  0  0  0  0  0  0  0  0
    0.8680   -0.4978    0.0000 C   0  0  0  0  0  0  0  0  0  0  0  0
  1  2  1  0  0  0  0
  2  3  2  0  0  0  0
  2  4  1  0  0  0  0
  4  5  1  0  0  0  0
  5  6  1  0  0  0  0
  6  7  1  0  0  0  0
  7 21  1  0  0  0  0
  7  8  1  0  0  0  0
  8  9  2  0  0  0  0
  9 10  1  0  0  0  0
 10 11  1  0  0  0  0
 11 12  2  0  0  0  0
 11 13  1  0  0  0  0
 13 14  1  0  0  0  0
 14 19  2  0  0  0  0
 14 15  1  0  0  0  0
 15 16  2  0  0  0  0
 16 17  1  0  0  0  0
 17 18  2  0  0  0  0
 18 19  1  0  0  0  0
  9 20  1  0  0  0  0
 20 25  2  0  0  0  0
 20 21  1  0  0  0  0
 21 22  2  0  0  0  0
 22 23  1  0  0  0  0
 23 24  2  0  0  0  0
 24 25  1  0  0  0  0
M  END
$$$$
DUN-NEW-f8c-10
  -OEChem-03222016562D

 22 23  0     0  0  0  0  0  0999 V2000
    5.5770   -3.5816    0.0000 C   0  0  0  0  0  0  0  0  0  0  0  0
    5.2680   -2.6306    0.0000 C   0  0  0  0  0  0  0  0  0  0  0  0
    5.9372   -1.8874    0.0000 O   0  0  0  0  0  0  0  0  0  0  0  0
    4.2899   -2.4226    0.0000 N   0  0  0  0  0  0  0  0  0  0  0  0
    3.9809   -1.4715    0.0000 C   0  0  0  0  0  0  0  0  0  0  0  0
    3.0028   -1.2636    0.0000 C   0  0  0  0  0  0  0  0  0  0  0  0
    2.6938   -0.3125    0.0000 C   0  0  0  0  0  0  0  0  0  0  0  0
    1.7360   -0.0012    0.0000 C   0  0  0  0  0  0  0  0  0  0  0  0
    1.7360    1.0058    0.0000 C   0  0  0  0  0  0  0  0  0  0  0  0
    0.8680    1.5138    0.0000 C   0  0  0  0  0  0  0  0  0  0  0  0
    0.0000    1.0058    0.0000 C   0  0  0  0  0  0  0  0  0  0  0  0
    0.0000    0.0000    0.0000 C   0  0  0  0  0  0  0  0  0  0  0  0
    0.8680   -0.4978    0.0000 C   0  0  0  0  0  0  0  0  0  0  0  0
    0.8680    2.5138    0.0000 C   0  0  0  0  0  0  0  0  0  0  0  0
    0.0020    3.0138    0.0000 C   0  0  0  0  0  0  0  0  0  0  0  0
    0.0020    4.0138    0.0000 N   0  0  0  0  0  0  0  0  0  0  0  0
   -0.8641    4.5138    0.0000 S   0  0  0  0  0  0  0  0  0  0  0  0
   -1.3641    3.6478    0.0000 O   0  0  0  0  0  0  0  0  0  0  0  0
   -0.3640    5.3798    0.0000 O   0  0  0  0  0  0  0  0  0  0  0  0
   -1.7301    5.0138    0.0000 C   0  0  0  0  0  0  0  0  0  0  0  0
    2.6938    1.3169    0.0000 N   0  0  0  0  0  0  0  0  0  0  0  0
    3.2858    0.5023    0.0000 C   0  0  0  0  0  0  0  0  0  0  0  0
  1  2  1  0  0  0  0
  2  3  2  0  0  0  0
  2  4  1  0  0  0  0
  4  5  1  0  0  0  0
  5  6  1  0  0  0  0
  6  7  1  0  0  0  0
  7 22  2  0  0  0  0
  7  8  1  0  0  0  0
  8 13  2  0  0  0  0
  8  9  1  0  0  0  0
  9 10  2  0  0  0  0
 10 11  1  0  0  0  0
 11 12  2  0  0  0  0
 12 13  1  0  0  0  0
 10 14  1  0  0  0  0
 14 15  1  0  0  0  0
 15 16  1  0  0  0  0
 16 17  1  0  0  0  0
 17 18  2  0  0  0  0
 17 19  2  0  0  0  0
 17 20  1  0  0  0  0
  9 21  1  0  0  0  0
 21 22  1  0  0  0  0
M  END
$$$$
DUN-NEW-f8c-11
  -OEChem-03222016562D

 23 25  0     0  0  0  0  0  0999 V2000
    5.5770   -3.5816    0.0000 C   0  0  0  0  0  0  0  0  0  0  0  0
    5.2680   -2.6306    0.0000 C   0  0  0  0  0  0  0  0  0  0  0  0
    5.9372   -1.8874    0.0000 O   0  0  0  0  0  0  0  0  0  0  0  0
    4.2899   -2.4226    0.0000 N   0  0  0  0  0  0  0  0  0  0  0  0
    3.9809   -1.4715    0.0000 C   0  0  0  0  0  0  0  0  0  0  0  0
    3.0028   -1.2636    0.0000 C   0  0  0  0  0  0  0  0  0  0  0  0
    2.6938   -0.3125    0.0000 C   0  0  0  0  0  0  0  0  0  0  0  0
    1.7360   -0.0012    0.0000 C   0  0  0  0  0  0  0  0  0  0  0  0
    1.7360    1.0058    0.0000 C   0  0  0  0  0  0  0  0  0  0  0  0
    0.8680    1.5138    0.0000 C   0  0  0  0  0  0  0  0  0  0  0  0
    0.0000    1.0058    0.0000 C   0  0  0  0  0  0  0  0  0  0  0  0
    0.0000    0.0000    0.0000 C   0  0  0  0  0  0  0  0  0  0  0  0
    0.8680   -0.4978    0.0000 C   0  0  0  0  0  0  0  0  0  0  0  0
    0.8680    2.5138    0.0000 C   0  0  0  0  0  0  0  0  0  0  0  0
    0.0020    3.0138    0.0000 N   0  0  0  0  0  0  0  0  0  0  0  0
   -0.0040    4.0189    0.0000 C   0  0  0  0  0  0  0  0  0  0  0  0
   -0.8745    4.5215    0.0000 C   0  0  0  0  0  0  0  0  0  0  0  0
   -1.7391    4.0190    0.0000 C   0  0  0  0  0  0  0  0  0  0  0  0
   -2.6051    4.5190    0.0000 O   0  0  0  0  0  0  0  0  0  0  0  0
   -1.7420    3.0190    0.0000 C   0  0  0  0  0  0  0  0  0  0  0  0
   -0.8715    2.5164    0.0000 C   0  0  0  0  0  0  0  0  0  0  0  0
    2.6938    1.3169    0.0000 N   0  0  0  0  0  0  0  0  0  0  0  0
    3.2858    0.5023    0.0000 C   0  0  0  0  0  0  0  0  0  0  0  0
  1  2  1  0  0  0  0
  2  3  2  0  0  0  0
  2  4  1  0  0  0  0
  4  5  1  0  0  0  0
  5  6  1  0  0  0  0
  6  7  1  0  0  0  0
  7 23  2  0  0  0  0
  7  8  1  0  0  0  0
  8 13  2  0  0  0  0
  8  9  1  0  0  0  0
  9 10  2  0  0  0  0
 10 11  1  0  0  0  0
 11 12  2  0  0  0  0
 12 13  1  0  0  0  0
 10 14  1  0  0  0  0
 14 15  1  0  0  0  0
 15 21  1  0  0  0  0
 15 16  1  0  0  0  0
 16 17  1  0  0  0  0
 17 18  1  0  0  0  0
 18 19  1  0  0  0  0
 18 20  1  0  0  0  0
 20 21  1  0  0  0  0
  9 22  1  0  0  0  0
 22 23  1  0  0  0  0
M  END
$$$$
DUN-NEW-f8c-12
  -OEChem-03222016562D

 17 18  0     0  0  0  0  0  0999 V2000
    5.5770   -3.5816    0.0000 C   0  0  0  0  0  0  0  0  0  0  0  0
    5.2680   -2.6306    0.0000 C   0  0  0  0  0  0  0  0  0  0  0  0
    5.9372   -1.8874    0.0000 O   0  0  0  0  0  0  0  0  0  0  0  0
    4.2899   -2.4226    0.0000 N   0  0  0  0  0  0  0  0  0  0  0  0
    3.9809   -1.4715    0.0000 C   0  0  0  0  0  0  0  0  0  0  0  0
    3.0028   -1.2636    0.0000 C   0  0  0  0  0  0  0  0  0  0  0  0
    2.6938   -0.3125    0.0000 C   0  0  0  0  0  0  0  0  0  0  0  0
    1.7360   -0.0012    0.0000 C   0  0  0  0  0  0  0  0  0  0  0  0
    1.7360    1.0058    0.0000 C   0  0  0  0  0  0  0  0  0  0  0  0
    0.8680    1.5138    0.0000 C   0  0  0  0  0  0  0  0  0  0  0  0
    0.0000    1.0058    0.0000 C   0  0  0  0  0  0  0  0  0  0  0  0
    0.0000    0.0000    0.0000 C   0  0  0  0  0  0  0  0  0  0  0  0
    0.8680   -0.4978    0.0000 C   0  0  0  0  0  0  0  0  0  0  0  0
   -0.8653   -0.5013    0.0000 C   0  0  0  0  0  0  0  0  0  0  0  0
   -1.7306   -1.0025    0.0000 N   0  0  0  0  0  0  0  0  0  0  0  0
    2.6938    1.3169    0.0000 N   0  0  0  0  0  0  0  0  0  0  0  0
    3.2858    0.5023    0.0000 C   0  0  0  0  0  0  0  0  0  0  0  0
  1  2  1  0  0  0  0
  2  3  2  0  0  0  0
  2  4  1  0  0  0  0
  4  5  1  0  0  0  0
  5  6  1  0  0  0  0
  6  7  1  0  0  0  0
  7 17  2  0  0  0  0
  7  8  1  0  0  0  0
  8 13  2  0  0  0  0
  8  9  1  0  0  0  0
  9 10  2  0  0  0  0
 10 11  1  0  0  0  0
 11 12  2  0  0  0  0
 12 13  1  0  0  0  0
 12 14  1  0  0  0  0
 14 15  3  0  0  0  0
  9 16  1  0  0  0  0
 16 17  1  0  0  0  0
M  END
$$$$
DUN-NEW-f8c-13
  -OEChem-03222016562D

 24 26  0     0  0  0  0  0  0999 V2000
    5.5770   -3.5816    0.0000 C   0  0  0  0  0  0  0  0  0  0  0  0
    5.2680   -2.6306    0.0000 C   0  0  0  0  0  0  0  0  0  0  0  0
    5.9372   -1.8874    0.0000 O   0  0  0  0  0  0  0  0  0  0  0  0
    4.2899   -2.4226    0.0000 N   0  0  0  0  0  0  0  0  0  0  0  0
    3.9809   -1.4715    0.0000 C   0  0  0  0  0  0  0  0  0  0  0  0
    3.0028   -1.2636    0.0000 C   0  0  0  0  0  0  0  0  0  0  0  0
    2.6938   -0.3125    0.0000 C   0  0  0  0  0  0  0  0  0  0  0  0
    1.7360   -0.0012    0.0000 C   0  0  0  0  0  0  0  0  0  0  0  0
    1.7360    1.0058    0.0000 C   0  0  0  0  0  0  0  0  0  0  0  0
    0.8680    1.5138    0.0000 C   0  0  0  0  0  0  0  0  0  0  0  0
    0.0000    1.0058    0.0000 C   0  0  0  0  0  0  0  0  0  0  0  0
    0.0000    0.0000    0.0000 C   0  0  0  0  0  0  0  0  0  0  0  0
    0.8680   -0.4978    0.0000 C   0  0  0  0  0  0  0  0  0  0  0  0
    2.6938    1.3169    0.0000 N   0  0  0  0  0  0  0  0  0  0  0  0
    3.0028    2.2680    0.0000 C   0  0  0  0  0  0  0  0  0  0  0  0
    2.3337    3.0111    0.0000 C   0  0  0  0  0  0  0  0  0  0  0  0
    1.3555    2.8032    0.0000 O   0  0  0  0  0  0  0  0  0  0  0  0
    2.6427    3.9622    0.0000 N   0  0  0  0  0  0  0  0  0  0  0  0
    1.9714    4.7034    0.0000 C   0  0  0  0  0  0  0  0  0  0  0  0
    2.2820    5.6594    0.0000 C   0  0  0  0  0  0  0  0  0  0  0  0
    3.2639    5.8742    0.0000 O   0  0  0  0  0  0  0  0  0  0  0  0
    3.9321    5.1233    0.0000 C   0  0  0  0  0  0  0  0  0  0  0  0
    3.6214    4.1672    0.0000 C   0  0  0  0  0  0  0  0  0  0  0  0
    3.2858    0.5023    0.0000 C   0  0  0  0  0  0  0  0  0  0  0  0
  1  2  1  0  0  0  0
  2  3  2  0  0  0  0
  2  4  1  0  0  0  0
  4  5  1  0  0  0  0
  5  6  1  0  0  0  0
  6  7  1  0  0  0  0
  7 24  2  0  0  0  0
  7  8  1  0  0  0  0
  8 13  2  0  0  0  0
  8  9  1  0  0  0  0
  9 10  2  0  0  0  0
 10 11  1  0  0  0  0
 11 12  2  0  0  0  0
 12 13  1  0  0  0  0
  9 14  1  0  0  0  0
 14 15  1  0  0  0  0
 15 16  1  0  0  0  0
 16 17  2  0  0  0  0
 16 18  1  0  0  0  0
 18 23  1  0  0  0  0
 18 19  1  0  0  0  0
 19 20  1  0  0  0  0
 20 21  1  0  0  0  0
 21 22  1  0  0  0  0
 22 23  1  0  0  0  0
 14 24  1  0  0  0  0
M  END
$$$$
DUN-NEW-f8c-14
  -OEChem-03222016562D

 21 22  0     1  0  0  0  0  0999 V2000
    5.2208    5.0049    0.0000 C   0  0  0  0  0  0  0  0  0  0  0  0
    4.3533    4.5074    0.0000 S   0  0  0  0  0  0  0  0  0  0  0  0
    4.8508    3.6400    0.0000 O   0  0  0  0  0  0  0  0  0  0  0  0
    3.8558    5.3749    0.0000 O   0  0  0  0  0  0  0  0  0  0  0  0
    3.4858    4.0100    0.0000 N   0  0  0  0  0  0  0  0  0  0  0  0
    3.4829    3.0100    0.0000 C   0  0  0  0  0  0  0  0  0  0  0  0
    2.6154    2.5125    0.0000 C   0  0  0  0  0  0  0  0  0  0  0  0
    2.6125    1.5125    0.0000 N   0  0  3  0  0  0  0  0  0  0  0  0
    1.7414    1.0089    0.0000 C   0  0  0  0  0  0  0  0  0  0  0  0
    0.8707    1.5185    0.0000 C   0  0  0  0  0  0  0  0  0  0  0  0
    0.0000    1.0089    0.0000 C   0  0  0  0  0  0  0  0  0  0  0  0
   -0.8675    1.5063    0.0000 S   0  0  0  0  0  0  0  0  0  0  0  0
   -1.3649    0.6388    0.0000 O   0  0  0  0  0  0  0  0  0  0  0  0
   -1.7350    2.0038    0.0000 N   0  0  0  0  0  0  0  0  0  0  0  0
   -0.3701    2.3738    0.0000 O   0  0  0  0  0  0  0  0  0  0  0  0
    0.0000    0.0000    0.0000 C   0  0  0  0  0  0  0  0  0  0  0  0
    0.8707   -0.4993    0.0000 C   0  0  0  0  0  0  0  0  0  0  0  0
    1.7371    0.0000    0.0000 C   0  0  0  0  0  0  0  0  0  0  0  0
    2.6039   -0.5053    0.0000 C   0  0  0  0  0  0  0  0  0  0  0  0
    3.4805   -0.0073    0.0000 C   0  0  0  0  0  0  0  0  0  0  0  0
    3.4848    1.0014    0.0000 C   0  0  0  0  0  0  0  0  0  0  0  0
  1  2  1  0  0  0  0
  2  3  2  0  0  0  0
  2  4  2  0  0  0  0
  2  5  1  0  0  0  0
  5  6  1  0  0  0  0
  6  7  1  0  0  0  0
  7  8  1  0  0  0  0
  8 21  1  0  0  0  0
  8  9  1  0  0  0  0
  9 18  2  0  0  0  0
  9 10  1  0  0  0  0
 10 11  2  0  0  0  0
 11 12  1  0  0  0  0
 12 13  2  0  0  0  0
 12 14  1  0  0  0  0
 12 15  2  0  0  0  0
 11 16  1  0  0  0  0
 16 17  2  0  0  0  0
 17 18  1  0  0  0  0
 18 19  1  0  0  0  0
 19 20  1  0  0  0  0
 20 21  1  0  0  0  0
M  END
$$$$
DUN-NEW-f8c-15
  -OEChem-03222016562D

 26 29  0     0  0  0  0  0  0999 V2000
    2.6001    2.5138    0.0000 O   0  0  0  0  0  0  0  0  0  0  0  0
    1.7340    3.0138    0.0000 C   0  0  0  0  0  0  0  0  0  0  0  0
    0.8680    2.5138    0.0000 N   0  0  0  0  0  0  0  0  0  0  0  0
    0.8680    1.5138    0.0000 C   0  0  0  0  0  0  0  0  0  0  0  0
    0.0000    1.0058    0.0000 C   0  0  0  0  0  0  0  0  0  0  0  0
    0.0000    0.0000    0.0000 C   0  0  0  0  0  0  0  0  0  0  0  0
    0.8680   -0.4978    0.0000 C   0  0  0  0  0  0  0  0  0  0  0  0
    1.7360   -0.0012    0.0000 C   0  0  0  0  0  0  0  0  0  0  0  0
    2.6938   -0.3125    0.0000 C   0  0  0  0  0  0  0  0  0  0  0  0
    3.2858    0.5023    0.0000 C   0  0  0  0  0  0  0  0  0  0  0  0
    2.6938    1.3169    0.0000 N   0  0  0  0  0  0  0  0  0  0  0  0
    1.7360    1.0058    0.0000 C   0  0  0  0  0  0  0  0  0  0  0  0
    0.0020    3.0138    0.0000 C   0  0  0  0  0  0  0  0  0  0  0  0
   -0.8671    2.5086    0.0000 C   0  0  0  0  0  0  0  0  0  0  0  0
   -1.7331    3.0086    0.0000 C   0  0  0  0  0  0  0  0  0  0  0  0
   -1.7390    4.0086    0.0000 C   0  0  0  0  0  0  0  0  0  0  0  0
   -2.6072    4.5048    0.0000 O   0  0  0  0  0  0  0  0  0  0  0  0
   -0.8700    4.5138    0.0000 C   0  0  0  0  0  0  0  0  0  0  0  0
    0.0049    4.0189    0.0000 C   0  0  0  0  0  0  0  0  0  0  0  0
    1.7340    4.0138    0.0000 C   0  0  0  0  0  0  0  0  0  0  0  0
    2.6001    4.5138    0.0000 C   0  0  0  0  0  0  0  0  0  0  0  0
    2.6015    5.5138    0.0000 C   0  0  0  0  0  0  0  0  0  0  0  0
    3.4654    6.0176    0.0000 C   0  0  0  0  0  0  0  0  0  0  0  0
    4.3366    5.5163    0.0000 C   0  0  0  0  0  0  0  0  0  0  0  0
    4.3440    4.5112    0.0000 N   0  0  0  0  0  0  0  0  0  0  0  0
    3.4713    4.0125    0.0000 C   0  0  0  0  0  0  0  0  0  0  0  0
  1  2  2  0  0  0  0
  2  3  1  0  0  0  0
  3  4  1  0  0  0  0
  4 12  1  0  0  0  0
  4  5  2  0  0  0  0
  5  6  1  0  0  0  0
  6  7  2  0  0  0  0
  7  8  1  0  0  0  0
  8 12  2  0  0  0  0
  8  9  1  0  0  0  0
  9 10  2  0  0  0  0
 10 11  1  0  0  0  0
 11 12  1  0  0  0  0
  3 13  1  0  0  0  0
 13 19  1  0  0  0  0
 13 14  1  0  0  0  0
 14 15  1  0  0  0  0
 15 16  1  0  0  0  0
 16 17  1  0  0  0  0
 16 18  1  0  0  0  0
 18 19  1  0  0  0  0
  2 20  1  0  0  0  0
 20 21  1  0  0  0  0
 21 26  2  0  0  0  0
 21 22  1  0  0  0  0
 22 23  2  0  0  0  0
 23 24  1  0  0  0  0
 24 25  2  0  0  0  0
 25 26  1  0  0  0  0
M  END
$$$$
DUN-NEW-f8c-16
  -OEChem-03222016562D

 26 29  0     0  0  0  0  0  0999 V2000
    2.6001    2.5138    0.0000 O   0  0  0  0  0  0  0  0  0  0  0  0
    1.7340    3.0138    0.0000 C   0  0  0  0  0  0  0  0  0  0  0  0
    0.8680    2.5138    0.0000 N   0  0  0  0  0  0  0  0  0  0  0  0
    0.8680    1.5138    0.0000 C   0  0  0  0  0  0  0  0  0  0  0  0
    0.0000    1.0058    0.0000 C   0  0  0  0  0  0  0  0  0  0  0  0
    0.0000    0.0000    0.0000 C   0  0  0  0  0  0  0  0  0  0  0  0
    0.8680   -0.4978    0.0000 C   0  0  0  0  0  0  0  0  0  0  0  0
    1.7360   -0.0012    0.0000 C   0  0  0  0  0  0  0  0  0  0  0  0
    2.6938   -0.3125    0.0000 C   0  0  0  0  0  0  0  0  0  0  0  0
    3.2858    0.5023    0.0000 C   0  0  0  0  0  0  0  0  0  0  0  0
    2.6938    1.3169    0.0000 N   0  0  0  0  0  0  0  0  0  0  0  0
    1.7360    1.0058    0.0000 C   0  0  0  0  0  0  0  0  0  0  0  0
    0.0020    3.0138    0.0000 C   0  0  0  0  0  0  0  0  0  0  0  0
   -0.8671    2.5086    0.0000 C   0  0  0  0  0  0  0  0  0  0  0  0
   -1.7331    3.0086    0.0000 C   0  0  0  0  0  0  0  0  0  0  0  0
   -1.7390    4.0086    0.0000 C   0  0  0  0  0  0  0  0  0  0  0  0
   -2.6072    4.5048    0.0000 O   0  0  0  0  0  0  0  0  0  0  0  0
   -0.8700    4.5138    0.0000 C   0  0  0  0  0  0  0  0  0  0  0  0
    0.0049    4.0189    0.0000 C   0  0  0  0  0  0  0  0  0  0  0  0
    1.7340    4.0138    0.0000 N   0  0  0  0  0  0  0  0  0  0  0  0
    2.6001    4.5138    0.0000 C   0  0  0  0  0  0  0  0  0  0  0  0
    2.6015    5.5138    0.0000 C   0  0  0  0  0  0  0  0  0  0  0  0
    3.4654    6.0176    0.0000 C   0  0  0  0  0  0  0  0  0  0  0  0
    4.3366    5.5163    0.0000 C   0  0  0  0  0  0  0  0  0  0  0  0
    4.3440    4.5112    0.0000 N   0  0  0  0  0  0  0  0  0  0  0  0
    3.4713    4.0125    0.0000 C   0  0  0  0  0  0  0  0  0  0  0  0
  1  2  2  0  0  0  0
  2  3  1  0  0  0  0
  3  4  1  0  0  0  0
  4 12  1  0  0  0  0
  4  5  2  0  0  0  0
  5  6  1  0  0  0  0
  6  7  2  0  0  0  0
  7  8  1  0  0  0  0
  8 12  2  0  0  0  0
  8  9  1  0  0  0  0
  9 10  2  0  0  0  0
 10 11  1  0  0  0  0
 11 12  1  0  0  0  0
  3 13  1  0  0  0  0
 13 19  1  0  0  0  0
 13 14  1  0  0  0  0
 14 15  1  0  0  0  0
 15 16  1  0  0  0  0
 16 17  1  0  0  0  0
 16 18  1  0  0  0  0
 18 19  1  0  0  0  0
  2 20  1  0  0  0  0
 20 21  1  0  0  0  0
 21 26  2  0  0  0  0
 21 22  1  0  0  0  0
 22 23  2  0  0  0  0
 23 24  1  0  0  0  0
 24 25  2  0  0  0  0
 25 26  1  0  0  0  0
M  END
$$$$
DUN-NEW-f8c-17
  -OEChem-03222016562D

 27 30  0     0  0  0  0  0  0999 V2000
    2.6001    3.2638    0.0000 O   0  0  0  0  0  0  0  0  0  0  0  0
    1.7340    3.7638    0.0000 C   0  0  0  0  0  0  0  0  0  0  0  0
    0.8680    3.2638    0.0000 N   0  0  0  0  0  0  0  0  0  0  0  0
    0.8680    1.5138    0.0000 C   0  0  0  0  0  0  0  0  0  0  0  0
    0.0000    1.0058    0.0000 C   0  0  0  0  0  0  0  0  0  0  0  0
    0.0000    0.0000    0.0000 C   0  0  0  0  0  0  0  0  0  0  0  0
    0.8680   -0.4978    0.0000 C   0  0  0  0  0  0  0  0  0  0  0  0
    1.7360   -0.0012    0.0000 C   0  0  0  0  0  0  0  0  0  0  0  0
    2.6938   -0.3125    0.0000 C   0  0  0  0  0  0  0  0  0  0  0  0
    3.2858    0.5023    0.0000 C   0  0  0  0  0  0  0  0  0  0  0  0
    2.6938    1.3169    0.0000 N   0  0  0  0  0  0  0  0  0  0  0  0
    1.7360    1.0058    0.0000 C   0  0  0  0  0  0  0  0  0  0  0  0
    3.0028    2.2680    0.0000 C   0  0  0  0  0  0  0  0  0  0  0  0
    0.0020    3.7638    0.0000 C   0  0  0  0  0  0  0  0  0  0  0  0
   -0.8671    3.2586    0.0000 C   0  0  0  0  0  0  0  0  0  0  0  0
   -1.7331    3.7586    0.0000 C   0  0  0  0  0  0  0  0  0  0  0  0
   -1.7390    4.7586    0.0000 C   0  0  0  0  0  0  0  0  0  0  0  0
   -2.6072    5.2548    0.0000 O   0  0  0  0  0  0  0  0  0  0  0  0
   -0.8700    5.2638    0.0000 C   0  0  0  0  0  0  0  0  0  0  0  0
    0.0049    4.7689    0.0000 C   0  0  0  0  0  0  0  0  0  0  0  0
    1.7340    4.7638    0.0000 N   0  0  0  0  0  0  0  0  0  0  0  0
    2.6001    5.2638    0.0000 C   0  0  0  0  0  0  0  0  0  0  0  0
    2.6015    6.2638    0.0000 C   0  0  0  0  0  0  0  0  0  0  0  0
    3.4654    6.7676    0.0000 C   0  0  0  0  0  0  0  0  0  0  0  0
    4.3366    6.2663    0.0000 C   0  0  0  0  0  0  0  0  0  0  0  0
    4.3440    5.2612    0.0000 N   0  0  0  0  0  0  0  0  0  0  0  0
    3.4713    4.7625    0.0000 C   0  0  0  0  0  0  0  0  0  0  0  0
  1  2  2  0  0  0  0
  2  3  1  0  0  0  0
  3  4  1  0  0  0  0
  4 12  1  0  0  0  0
  4  5  2  0  0  0  0
  5  6  1  0  0  0  0
  6  7  2  0  0  0  0
  7  8  1  0  0  0  0
  8 12  2  0  0  0  0
  8  9  1  0  0  0  0
  9 10  2  0  0  0  0
 10 11  1  0  0  0  0
 11 12  1  0  0  0  0
 11 13  1  0  0  0  0
  3 14  1  0  0  0  0
 14 20  1  0  0  0  0
 14 15  1  0  0  0  0
 15 16  1  0  0  0  0
 16 17  1  0  0  0  0
 17 18  1  0  0  0  0
 17 19  1  0  0  0  0
 19 20  1  0  0  0  0
  2 21  1  0  0  0  0
 21 22  1  0  0  0  0
 22 27  2  0  0  0  0
 22 23  1  0  0  0  0
 23 24  2  0  0  0  0
 24 25  1  0  0  0  0
 25 26  2  0  0  0  0
 26 27  1  0  0  0  0
M  END
$$$$
DUN-NEW-f8c-18
  -OEChem-03222016562D

 27 30  0     0  0  0  0  0  0999 V2000
    2.6001    3.2638    0.0000 O   0  0  0  0  0  0  0  0  0  0  0  0
    1.7340    3.7638    0.0000 C   0  0  0  0  0  0  0  0  0  0  0  0
    0.8680    3.2638    0.0000 N   0  0  0  0  0  0  0  0  0  0  0  0
    0.8680    1.5138    0.0000 C   0  0  0  0  0  0  0  0  0  0  0  0
    0.0000    1.0058    0.0000 C   0  0  0  0  0  0  0  0  0  0  0  0
    0.0000    0.0000    0.0000 C   0  0  0  0  0  0  0  0  0  0  0  0
    0.8680   -0.4978    0.0000 C   0  0  0  0  0  0  0  0  0  0  0  0
    1.7360   -0.0012    0.0000 C   0  0  0  0  0  0  0  0  0  0  0  0
    2.6938   -0.3125    0.0000 C   0  0  0  0  0  0  0  0  0  0  0  0
    3.2858    0.5023    0.0000 C   0  0  0  0  0  0  0  0  0  0  0  0
    2.6938    1.3169    0.0000 N   0  0  0  0  0  0  0  0  0  0  0  0
    1.7360    1.0058    0.0000 C   0  0  0  0  0  0  0  0  0  0  0  0
    3.0028    2.2680    0.0000 C   0  0  0  0  0  0  0  0  0  0  0  0
    0.0020    3.7638    0.0000 C   0  0  0  0  0  0  0  0  0  0  0  0
   -0.8671    3.2586    0.0000 C   0  0  0  0  0  0  0  0  0  0  0  0
   -1.7331    3.7586    0.0000 C   0  0  0  0  0  0  0  0  0  0  0  0
   -1.7390    4.7586    0.0000 C   0  0  0  0  0  0  0  0  0  0  0  0
   -2.6072    5.2548    0.0000 O   0  0  0  0  0  0  0  0  0  0  0  0
   -0.8700    5.2638    0.0000 C   0  0  0  0  0  0  0  0  0  0  0  0
    0.0049    4.7689    0.0000 C   0  0  0  0  0  0  0  0  0  0  0  0
    1.7340    4.7638    0.0000 C   0  0  0  0  0  0  0  0  0  0  0  0
    2.6001    5.2638    0.0000 C   0  0  0  0  0  0  0  0  0  0  0  0
    2.6015    6.2638    0.0000 C   0  0  0  0  0  0  0  0  0  0  0  0
    3.4654    6.7676    0.0000 C   0  0  0  0  0  0  0  0  0  0  0  0
    4.3366    6.2663    0.0000 C   0  0  0  0  0  0  0  0  0  0  0  0
    4.3440    5.2612    0.0000 N   0  0  0  0  0  0  0  0  0  0  0  0
    3.4713    4.7625    0.0000 C   0  0  0  0  0  0  0  0  0  0  0  0
  1  2  2  0  0  0  0
  2  3  1  0  0  0  0
  3  4  1  0  0  0  0
  4 12  1  0  0  0  0
  4  5  2  0  0  0  0
  5  6  1  0  0  0  0
  6  7  2  0  0  0  0
  7  8  1  0  0  0  0
  8 12  2  0  0  0  0
  8  9  1  0  0  0  0
  9 10  2  0  0  0  0
 10 11  1  0  0  0  0
 11 12  1  0  0  0  0
 11 13  1  0  0  0  0
  3 14  1  0  0  0  0
 14 20  1  0  0  0  0
 14 15  1  0  0  0  0
 15 16  1  0  0  0  0
 16 17  1  0  0  0  0
 17 18  1  0  0  0  0
 17 19  1  0  0  0  0
 19 20  1  0  0  0  0
  2 21  1  0  0  0  0
 21 22  1  0  0  0  0
 22 27  2  0  0  0  0
 22 23  1  0  0  0  0
 23 24  2  0  0  0  0
 24 25  1  0  0  0  0
 25 26  2  0  0  0  0
 26 27  1  0  0  0  0
M  END
$$$$
DUN-NEW-f8c-19
  -OEChem-03222016562D

 27 29  0     0  0  0  0  0  0999 V2000
    2.6001    6.5138    0.0000 C   0  0  0  0  0  0  0  0  0  0  0  0
    2.6001    5.5138    0.0000 S   0  0  0  0  0  0  0  0  0  0  0  0
    1.6001    5.5138    0.0000 O   0  0  0  0  0  0  0  0  0  0  0  0
    3.6001    5.5138    0.0000 O   0  0  0  0  0  0  0  0  0  0  0  0
    2.6001    4.5138    0.0000 N   0  0  0  0  0  0  0  0  0  0  0  0
    1.7340    4.0138    0.0000 C   0  0  0  0  0  0  0  0  0  0  0  0
    1.7340    3.0138    0.0000 C   0  0  0  0  0  0  0  0  0  0  0  0
    0.8680    2.5138    0.0000 N   0  0  0  0  0  0  0  0  0  0  0  0
    0.8680    1.5138    0.0000 C   0  0  0  0  0  0  0  0  0  0  0  0
    0.0000    1.0058    0.0000 C   0  0  0  0  0  0  0  0  0  0  0  0
    0.0000    0.0000    0.0000 C   0  0  0  0  0  0  0  0  0  0  0  0
    0.8680   -0.4978    0.0000 C   0  0  0  0  0  0  0  0  0  0  0  0
    1.7360   -0.0012    0.0000 C   0  0  0  0  0  0  0  0  0  0  0  0
    2.6938   -0.3125    0.0000 C   0  0  0  0  0  0  0  0  0  0  0  0
    3.2858    0.5023    0.0000 C   0  0  0  0  0  0  0  0  0  0  0  0
    2.6938    1.3169    0.0000 N   0  0  0  0  0  0  0  0  0  0  0  0
    3.0028    2.2680    0.0000 C   0  0  0  0  0  0  0  0  0  0  0  0
    1.7360    1.0058    0.0000 C   0  0  0  0  0  0  0  0  0  0  0  0
    0.0020    3.0138    0.0000 C   0  0  0  0  0  0  0  0  0  0  0  0
    0.0020    4.0138    0.0000 O   0  0  0  0  0  0  0  0  0  0  0  0
   -0.8641    2.5138    0.0000 C   0  0  0  0  0  0  0  0  0  0  0  0
   -1.7301    3.0138    0.0000 C   0  0  0  0  0  0  0  0  0  0  0  0
   -2.5969    2.5150    0.0000 C   0  0  0  0  0  0  0  0  0  0  0  0
   -3.4651    3.0113    0.0000 C   0  0  0  0  0  0  0  0  0  0  0  0
   -3.4665    4.0165    0.0000 C   0  0  0  0  0  0  0  0  0  0  0  0
   -2.5998    4.5254    0.0000 N   0  0  0  0  0  0  0  0  0  0  0  0
   -1.7315    4.0190    0.0000 C   0  0  0  0  0  0  0  0  0  0  0  0
  1  2  1  0  0  0  0
  2  3  2  0  0  0  0
  2  4  2  0  0  0  0
  2  5  1  0  0  0  0
  5  6  1  0  0  0  0
  6  7  1  0  0  0  0
  7  8  1  0  0  0  0
  8  9  1  0  0  0  0
  9 18  1  0  0  0  0
  9 10  2  0  0  0  0
 10 11  1  0  0  0  0
 11 12  2  0  0  0  0
 12 13  1  0  0  0  0
 13 18  2  0  0  0  0
 13 14  1  0  0  0  0
 14 15  2  0  0  0  0
 15 16  1  0  0  0  0
 16 17  1  0  0  0  0
 16 18  1  0  0  0  0
  8 19  1  0  0  0  0
 19 20  2  0  0  0  0
 19 21  1  0  0  0  0
 21 22  1  0  0  0  0
 22 27  2  0  0  0  0
 22 23  1  0  0  0  0
 23 24  2  0  0  0  0
 24 25  1  0  0  0  0
 25 26  2  0  0  0  0
 26 27  1  0  0  0  0
M  END
$$$$
DUN-NEW-f8c-20
  -OEChem-03222016562D

 26 28  0     0  0  0  0  0  0999 V2000
    5.1981    2.0138    0.0000 C   0  0  0  0  0  0  0  0  0  0  0  0
    4.3321    2.5138    0.0000 S   0  0  0  0  0  0  0  0  0  0  0  0
    3.8321    1.6478    0.0000 O   0  0  0  0  0  0  0  0  0  0  0  0
    4.8321    3.3798    0.0000 O   0  0  0  0  0  0  0  0  0  0  0  0
    3.4661    3.0138    0.0000 N   0  0  0  0  0  0  0  0  0  0  0  0
    2.6001    2.5138    0.0000 C   0  0  0  0  0  0  0  0  0  0  0  0
    1.7340    3.0138    0.0000 C   0  0  0  0  0  0  0  0  0  0  0  0
    0.8680    2.5138    0.0000 N   0  0  0  0  0  0  0  0  0  0  0  0
    0.8680    1.5138    0.0000 C   0  0  0  0  0  0  0  0  0  0  0  0
    0.0000    1.0058    0.0000 C   0  0  0  0  0  0  0  0  0  0  0  0
    0.0000    0.0000    0.0000 C   0  0  0  0  0  0  0  0  0  0  0  0
    0.8680   -0.4978    0.0000 C   0  0  0  0  0  0  0  0  0  0  0  0
    1.7360   -0.0012    0.0000 C   0  0  0  0  0  0  0  0  0  0  0  0
    2.6938   -0.3125    0.0000 C   0  0  0  0  0  0  0  0  0  0  0  0
    3.2858    0.5023    0.0000 C   0  0  0  0  0  0  0  0  0  0  0  0
    2.6938    1.3169    0.0000 N   0  0  0  0  0  0  0  0  0  0  0  0
    1.7360    1.0058    0.0000 C   0  0  0  0  0  0  0  0  0  0  0  0
    0.0020    3.0138    0.0000 C   0  0  0  0  0  0  0  0  0  0  0  0
    0.0020    4.0138    0.0000 O   0  0  0  0  0  0  0  0  0  0  0  0
   -0.8641    2.5138    0.0000 C   0  0  0  0  0  0  0  0  0  0  0  0
   -1.7301    3.0138    0.0000 C   0  0  0  0  0  0  0  0  0  0  0  0
   -2.5969    2.5150    0.0000 C   0  0  0  0  0  0  0  0  0  0  0  0
   -3.4651    3.0113    0.0000 C   0  0  0  0  0  0  0  0  0  0  0  0
   -3.4665    4.0165    0.0000 C   0  0  0  0  0  0  0  0  0  0  0  0
   -2.5998    4.5254    0.0000 N   0  0  0  0  0  0  0  0  0  0  0  0
   -1.7315    4.0190    0.0000 C   0  0  0  0  0  0  0  0  0  0  0  0
  1  2  1  0  0  0  0
  2  3  2  0  0  0  0
  2  4  2  0  0  0  0
  2  5  1  0  0  0  0
  5  6  1  0  0  0  0
  6  7  1  0  0  0  0
  7  8  1  0  0  0  0
  8  9  1  0  0  0  0
  9 17  1  0  0  0  0
  9 10  2  0  0  0  0
 10 11  1  0  0  0  0
 11 12  2  0  0  0  0
 12 13  1  0  0  0  0
 13 17  2  0  0  0  0
 13 14  1  0  0  0  0
 14 15  2  0  0  0  0
 15 16  1  0  0  0  0
 16 17  1  0  0  0  0
  8 18  1  0  0  0  0
 18 19  2  0  0  0  0
 18 20  1  0  0  0  0
 20 21  1  0  0  0  0
 21 26  2  0  0  0  0
 21 22  1  0  0  0  0
 22 23  2  0  0  0  0
 23 24  1  0  0  0  0
 24 25  2  0  0  0  0
 25 26  1  0  0  0  0
M  END
$$$$
DUN-NEW-f8c-21
  -OEChem-03222016562D

 21 22  0     0  0  0  0  0  0999 V2000
    5.5770   -3.5816    0.0000 C   0  0  0  0  0  0  0  0  0  0  0  0
    5.2680   -2.6306    0.0000 C   0  0  0  0  0  0  0  0  0  0  0  0
    5.9372   -1.8874    0.0000 O   0  0  0  0  0  0  0  0  0  0  0  0
    4.2899   -2.4226    0.0000 N   0  0  0  0  0  0  0  0  0  0  0  0
    3.9809   -1.4715    0.0000 C   0  0  0  0  0  0  0  0  0  0  0  0
    3.0028   -1.2636    0.0000 C   0  0  0  0  0  0  0  0  0  0  0  0
    2.6938   -0.3125    0.0000 C   0  0  0  0  0  0  0  0  0  0  0  0
    1.7360   -0.0012    0.0000 C   0  0  0  0  0  0  0  0  0  0  0  0
    1.7360    1.0058    0.0000 C   0  0  0  0  0  0  0  0  0  0  0  0
    0.8680    1.5138    0.0000 C   0  0  0  0  0  0  0  0  0  0  0  0
    0.0000    1.0058    0.0000 C   0  0  0  0  0  0  0  0  0  0  0  0
    0.0000    0.0000    0.0000 C   0  0  0  0  0  0  0  0  0  0  0  0
    0.8680   -0.4978    0.0000 C   0  0  0  0  0  0  0  0  0  0  0  0
    0.8680    2.5138    0.0000 C   0  0  0  0  0  0  0  0  0  0  0  0
    0.0020    3.0138    0.0000 N   0  0  0  0  0  0  0  0  0  0  0  0
    0.0020    4.0138    0.0000 C   0  0  0  0  0  0  0  0  0  0  0  0
    0.8680    4.5138    0.0000 O   0  0  0  0  0  0  0  0  0  0  0  0
   -0.8641    4.5138    0.0000 C   0  0  0  0  0  0  0  0  0  0  0  0
   -0.8640    5.5138    0.0000 Cl  0  0  0  0  0  0  0  0  0  0  0  0
    2.6938    1.3169    0.0000 N   0  0  0  0  0  0  0  0  0  0  0  0
    3.2858    0.5023    0.0000 C   0  0  0  0  0  0  0  0  0  0  0  0
  1  2  1  0  0  0  0
  2  3  2  0  0  0  0
  2  4  1  0  0  0  0
  4  5  1  0  0  0  0
  5  6  1  0  0  0  0
  6  7  1  0  0  0  0
  7 21  2  0  0  0  0
  7  8  1  0  0  0  0
  8 13  2  0  0  0  0
  8  9  1  0  0  0  0
  9 10  2  0  0  0  0
 10 11  1  0  0  0  0
 11 12  2  0  0  0  0
 12 13  1  0  0  0  0
 10 14  1  0  0  0  0
 14 15  1  0  0  0  0
 15 16  1  0  0  0  0
 16 17  2  0  0  0  0
 16 18  1  0  0  0  0
 18 19  1  0  0  0  0
  9 20  1  0  0  0  0
 20 21  1  0  0  0  0
M  END
$$$$
DUN-NEW-f8c-22
  -OEChem-03222016562D

 20 21  0     1  0  0  0  0  0999 V2000
   -1.7335   -3.0027    0.0000 O   0  0  0  0  0  0  0  0  0  0  0  0
   -0.8675   -2.5027    0.0000 C   0  0  0  0  0  0  0  0  0  0  0  0
   -0.8675   -1.5027    0.0000 N   0  0  0  0  0  0  0  0  0  0  0  0
    0.0000   -1.0052    0.0000 C   0  0  0  0  0  0  0  0  0  0  0  0
    0.0000    0.0000    0.0000 C   0  0  3  0  0  0  0  0  0  0  0  0
   -0.8675    0.5077    0.0000 N   0  0  3  0  0  0  0  0  0  0  0  0
   -0.8675    2.2577    0.0000 S   0  0  0  0  0  0  0  0  0  0  0  0
   -1.8675    2.2577    0.0000 O   0  0  0  0  0  0  0  0  0  0  0  0
   -0.8675    3.2577    0.0000 C   0  0  0  0  0  0  0  0  0  0  0  0
    0.1325    2.2577    0.0000 O   0  0  0  0  0  0  0  0  0  0  0  0
   -1.7350   -0.0000    0.0000 C   0  0  0  0  0  0  0  0  0  0  0  0
   -1.7350   -1.0052    0.0000 C   0  0  0  0  0  0  0  0  0  0  0  0
    0.8675    0.4974    0.0000 C   0  0  0  0  0  0  0  0  0  0  0  0
    0.8675    1.5026    0.0000 C   0  0  0  0  0  0  0  0  0  0  0  0
    1.7350    2.0001    0.0000 C   0  0  0  0  0  0  0  0  0  0  0  0
    2.6025    1.5026    0.0000 C   0  0  0  0  0  0  0  0  0  0  0  0
    2.6025    0.4974    0.0000 C   0  0  0  0  0  0  0  0  0  0  0  0
    1.7350   -0.0103    0.0000 C   0  0  0  0  0  0  0  0  0  0  0  0
   -0.0015   -3.0027    0.0000 C   0  0  0  0  0  0  0  0  0  0  0  0
   -0.0015   -4.0027    0.0000 Cl  0  0  0  0  0  0  0  0  0  0  0  0
  1  2  2  0  0  0  0
  2  3  1  0  0  0  0
  3 12  1  0  0  0  0
  3  4  1  0  0  0  0
  4  5  1  0  0  0  0
  5  6  1  0  0  0  0
  6  7  1  0  0  0  0
  7  8  2  0  0  0  0
  7  9  1  0  0  0  0
  7 10  2  0  0  0  0
  6 11  1  0  0  0  0
 11 12  1  0  0  0  0
  5 13  1  0  0  0  0
 13 18  2  0  0  0  0
 13 14  1  0  0  0  0
 14 15  2  0  0  0  0
 15 16  1  0  0  0  0
 16 17  2  0  0  0  0
 17 18  1  0  0  0  0
  2 19  1  0  0  0  0
 19 20  1  0  0  0  0
M  END
$$$$
DUN-NEW-f8c-23
  -OEChem-03222016562D

 26 28  0     0  0  0  0  0  0999 V2000
    4.2859   -1.2297    0.0000 O   0  0  0  0  0  0  0  0  0  0  0  0
    4.7859   -0.3636    0.0000 C   0  0  0  0  0  0  0  0  0  0  0  0
    4.2858    0.5024    0.0000 N   0  0  0  0  0  0  0  0  0  0  0  0
    3.2858    0.5023    0.0000 C   0  0  0  0  0  0  0  0  0  0  0  0
    2.6938   -0.3125    0.0000 N   0  0  0  0  0  0  0  0  0  0  0  0
    1.7360   -0.0012    0.0000 C   0  0  0  0  0  0  0  0  0  0  0  0
    0.8680   -0.4978    0.0000 C   0  0  0  0  0  0  0  0  0  0  0  0
    0.0000    0.0000    0.0000 C   0  0  0  0  0  0  0  0  0  0  0  0
    0.0000    1.0058    0.0000 C   0  0  0  0  0  0  0  0  0  0  0  0
    0.8680    1.5138    0.0000 C   0  0  0  0  0  0  0  0  0  0  0  0
    1.7360    1.0058    0.0000 C   0  0  0  0  0  0  0  0  0  0  0  0
    2.6938    1.3169    0.0000 S   0  0  0  0  0  0  0  0  0  0  0  0
    0.8675   -1.4978    0.0000 S   0  0  0  0  0  0  0  0  0  0  0  0
    1.8675   -1.4983    0.0000 O   0  0  0  0  0  0  0  0  0  0  0  0
   -0.1325   -1.4973    0.0000 O   0  0  0  0  0  0  0  0  0  0  0  0
    0.8670   -2.4978    0.0000 N   0  0  0  0  0  0  0  0  0  0  0  0
    1.7327   -2.9983    0.0000 C   0  0  0  0  0  0  0  0  0  0  0  0
    1.7322   -3.9983    0.0000 C   0  0  0  0  0  0  0  0  0  0  0  0
    2.5980   -4.4987    0.0000 C   0  0  0  0  0  0  0  0  0  0  0  0
    3.4673   -3.9940    0.0000 C   0  0  0  0  0  0  0  0  0  0  0  0
    4.3331   -4.4944    0.0000 C   0  0  0  0  0  0  0  0  0  0  0  0
    4.3384   -5.4944    0.0000 C   0  0  0  0  0  0  0  0  0  0  0  0
    3.4691   -5.9991    0.0000 C   0  0  0  0  0  0  0  0  0  0  0  0
    2.5945   -5.5038    0.0000 C   0  0  0  0  0  0  0  0  0  0  0  0
    5.7859   -0.3636    0.0000 C   0  0  0  0  0  0  0  0  0  0  0  0
    6.2859   -1.2296    0.0000 Cl  0  0  0  0  0  0  0  0  0  0  0  0
  1  2  2  0  0  0  0
  2  3  1  0  0  0  0
  3  4  1  0  0  0  0
  4 12  1  0  0  0  0
  4  5  2  0  0  0  0
  5  6  1  0  0  0  0
  6 11  2  0  0  0  0
  6  7  1  0  0  0  0
  7  8  2  0  0  0  0
  8  9  1  0  0  0  0
  9 10  2  0  0  0  0
 10 11  1  0  0  0  0
 11 12  1  0  0  0  0
  7 13  1  0  0  0  0
 13 14  2  0  0  0  0
 13 15  2  0  0  0  0
 13 16  1  0  0  0  0
 16 17  1  0  0  0  0
 17 18  1  0  0  0  0
 18 19  1  0  0  0  0
 19 24  2  0  0  0  0
 19 20  1  0  0  0  0
 20 21  2  0  0  0  0
 21 22  1  0  0  0  0
 22 23  2  0  0  0  0
 23 24  1  0  0  0  0
  2 25  1  0  0  0  0
 25 26  1  0  0  0  0
M  END
$$$$
DUN-NEW-f8c-24
  -OEChem-03222016562D

 26 28  0     0  0  0  0  0  0999 V2000
    5.5770   -3.5816    0.0000 C   0  0  0  0  0  0  0  0  0  0  0  0
    5.2680   -2.6306    0.0000 C   0  0  0  0  0  0  0  0  0  0  0  0
    5.9372   -1.8874    0.0000 O   0  0  0  0  0  0  0  0  0  0  0  0
    4.2899   -2.4226    0.0000 N   0  0  0  0  0  0  0  0  0  0  0  0
    3.9809   -1.4715    0.0000 C   0  0  0  0  0  0  0  0  0  0  0  0
    3.0028   -1.2636    0.0000 C   0  0  0  0  0  0  0  0  0  0  0  0
    2.6938   -0.3125    0.0000 C   0  0  0  0  0  0  0  0  0  0  0  0
    1.7360   -0.0012    0.0000 C   0  0  0  0  0  0  0  0  0  0  0  0
    1.7360    1.0058    0.0000 C   0  0  0  0  0  0  0  0  0  0  0  0
    0.8680    1.5138    0.0000 C   0  0  0  0  0  0  0  0  0  0  0  0
    0.0000    1.0058    0.0000 C   0  0  0  0  0  0  0  0  0  0  0  0
    0.0000    0.0000    0.0000 C   0  0  0  0  0  0  0  0  0  0  0  0
    0.8680   -0.4978    0.0000 C   0  0  0  0  0  0  0  0  0  0  0  0
    0.8680    2.5138    0.0000 C   0  0  0  0  0  0  0  0  0  0  0  0
    0.0020    3.0138    0.0000 N   0  0  0  0  0  0  0  0  0  0  0  0
   -0.0040    4.0189    0.0000 C   0  0  0  0  0  0  0  0  0  0  0  0
   -0.8745    4.5215    0.0000 C   0  0  0  0  0  0  0  0  0  0  0  0
   -1.7391    4.0190    0.0000 N   0  0  0  0  0  0  0  0  0  0  0  0
   -2.6051    4.5190    0.0000 C   0  0  0  0  0  0  0  0  0  0  0  0
   -2.6051    5.5190    0.0000 O   0  0  0  0  0  0  0  0  0  0  0  0
   -3.4711    4.0190    0.0000 C   0  0  0  0  0  0  0  0  0  0  0  0
   -4.3372    4.5190    0.0000 Cl  0  0  0  0  0  0  0  0  0  0  0  0
   -1.7420    3.0190    0.0000 C   0  0  0  0  0  0  0  0  0  0  0  0
   -0.8715    2.5164    0.0000 C   0  0  0  0  0  0  0  0  0  0  0  0
    2.6938    1.3169    0.0000 N   0  0  0  0  0  0  0  0  0  0  0  0
    3.2858    0.5023    0.0000 C   0  0  0  0  0  0  0  0  0  0  0  0
  1  2  1  0  0  0  0
  2  3  2  0  0  0  0
  2  4  1  0  0  0  0
  4  5  1  0  0  0  0
  5  6  1  0  0  0  0
  6  7  1  0  0  0  0
  7 26  2  0  0  0  0
  7  8  1  0  0  0  0
  8 13  2  0  0  0  0
  8  9  1  0  0  0  0
  9 10  2  0  0  0  0
 10 11  1  0  0  0  0
 11 12  2  0  0  0  0
 12 13  1  0  0  0  0
 10 14  1  0  0  0  0
 14 15  1  0  0  0  0
 15 24  1  0  0  0  0
 15 16  1  0  0  0  0
 16 17  1  0  0  0  0
 17 18  1  0  0  0  0
 18 19  1  0  0  0  0
 19 20  2  0  0  0  0
 19 21  1  0  0  0  0
 21 22  1  0  0  0  0
 18 23  1  0  0  0  0
 23 24  1  0  0  0  0
  9 25  1  0  0  0  0
 25 26  1  0  0  0  0
M  END
$$$$
DUN-NEW-f8c-25
  -OEChem-03222016562D

 24 25  0     1  0  0  0  0  0999 V2000
    0.8660    3.5104    0.0000 O   0  0  0  0  0  0  0  0  0  0  0  0
    0.0000    3.0104    0.0000 C   0  0  0  0  0  0  0  0  0  0  0  0
   -0.0000    2.0104    0.0000 N   0  0  0  0  0  0  0  0  0  0  0  0
   -0.8675    1.5027    0.0000 C   0  0  0  0  0  0  0  0  0  0  0  0
   -0.8675    0.4975    0.0000 C   0  0  0  0  0  0  0  0  0  0  0  0
    0.0000    0.0000    0.0000 C   0  0  0  0  0  0  0  0  0  0  0  0
    0.8675    0.4975    0.0000 C   0  0  0  0  0  0  0  0  0  0  0  0
    0.8675    1.5027    0.0000 C   0  0  0  0  0  0  0  0  0  0  0  0
    0.0000   -1.0000    0.0000 C   0  0  0  0  0  0  0  0  0  0  0  0
    0.8660   -1.5000    0.0000 N   0  0  3  0  0  0  0  0  0  0  0  0
    1.7321   -1.0000    0.0000 C   0  0  0  0  0  0  0  0  0  0  0  0
    1.7321    0.0000    0.0000 C   0  0  0  0  0  0  0  0  0  0  0  0
    2.5981    0.5000    0.0000 C   0  0  0  0  0  0  0  0  0  0  0  0
    2.5951    1.5052    0.0000 C   0  0  0  0  0  0  0  0  0  0  0  0
    3.4611    2.0053    0.0000 C   0  0  0  0  0  0  0  0  0  0  0  0
    4.3301    1.5103    0.0000 C   0  0  0  0  0  0  0  0  0  0  0  0
    4.3331    0.5051    0.0000 C   0  0  0  0  0  0  0  0  0  0  0  0
    3.4671   -0.0051    0.0000 C   0  0  0  0  0  0  0  0  0  0  0  0
    0.8660   -2.5000    0.0000 S   0  0  0  0  0  0  0  0  0  0  0  0
    1.8660   -2.5000    0.0000 O   0  0  0  0  0  0  0  0  0  0  0  0
    0.8660   -3.5000    0.0000 C   0  0  0  0  0  0  0  0  0  0  0  0
   -0.1340   -2.5000    0.0000 O   0  0  0  0  0  0  0  0  0  0  0  0
   -0.8660    3.5104    0.0000 C   0  0  0  0  0  0  0  0  0  0  0  0
   -0.8660    4.5104    0.0000 Cl  0  0  0  0  0  0  0  0  0  0  0  0
  1  2  2  0  0  0  0
  2  3  1  0  0  0  0
  3  8  1  0  0  0  0
  3  4  1  0  0  0  0
  4  5  1  0  0  0  0
  5  6  1  0  0  0  0
  6  7  1  0  0  0  0
  7  8  1  0  0  0  0
  6  9  1  0  0  0  0
  9 10  1  0  0  0  0
 10 11  1  0  0  0  0
 11 12  1  0  0  0  0
 12 13  1  0  0  0  0
 13 18  2  0  0  0  0
 13 14  1  0  0  0  0
 14 15  2  0  0  0  0
 15 16  1  0  0  0  0
 16 17  2  0  0  0  0
 17 18  1  0  0  0  0
 10 19  1  0  0  0  0
 19 20  2  0  0  0  0
 19 21  1  0  0  0  0
 19 22  2  0  0  0  0
  2 23  1  0  0  0  0
 23 24  1  0  0  0  0
M  END
$$$$
CHR-SOS-f73-1
  -OEChem-03222016562D

 21 23  0     0  0  0  0  0  0999 V2000
    2.6010    1.4950    0.0000 O   0  0  0  0  0  0  0  0  0  0  0  0
    2.5995    0.4950    0.0000 C   0  0  0  0  0  0  0  0  0  0  0  0
    3.4648   -0.0063    0.0000 C   0  0  0  0  0  0  0  0  0  0  0  0
    4.3316    0.4925    0.0000 C   0  0  0  0  0  0  0  0  0  0  0  0
    5.2843    0.8018    0.0000 C   0  0  0  0  0  0  0  0  0  0  0  0
    5.2867    1.8032    0.0000 C   0  0  0  0  0  0  0  0  0  0  0  0
    4.3356    2.1121    0.0000 C   0  0  0  0  0  0  0  0  0  0  0  0
    3.7429    1.3063    0.0000 C   0  0  0  0  0  0  0  0  0  0  0  0
    4.7376   -0.4214    0.0000 C   0  0  0  0  0  0  0  0  0  0  0  0
    5.7162   -0.6271    0.0000 C   0  0  0  0  0  0  0  0  0  0  0  0
    5.8206   -1.6231    0.0000 N   0  0  0  0  0  0  0  0  0  0  0  0
    4.9063   -2.0324    0.0000 C   0  0  0  0  0  0  0  0  0  0  0  0
    4.6994   -3.0108    0.0000 C   0  0  0  0  0  0  0  0  0  0  0  0
    4.2340   -1.2859    0.0000 S   0  0  0  0  0  0  0  0  0  0  0  0
    1.7328   -0.0038    0.0000 N   0  0  0  0  0  0  0  0  0  0  0  0
    0.8675    0.4975    0.0000 C   0  0  0  0  0  0  0  0  0  0  0  0
    0.0000    0.0000    0.0000 C   0  0  0  0  0  0  0  0  0  0  0  0
   -0.8675    0.4975    0.0000 C   0  0  0  0  0  0  0  0  0  0  0  0
   -0.8675    1.5027    0.0000 C   0  0  0  0  0  0  0  0  0  0  0  0
    0.0000    2.0104    0.0000 N   0  0  0  0  0  0  0  0  0  0  0  0
    0.8675    1.5027    0.0000 C   0  0  0  0  0  0  0  0  0  0  0  0
  1  2  2  0  0  0  0
  2  3  1  0  0  0  0
  3  4  1  0  0  0  0
  4  8  1  0  0  0  0
  4  5  1  0  0  0  0
  5  6  1  0  0  0  0
  6  7  1  0  0  0  0
  7  8  1  0  0  0  0
  4  9  1  0  0  0  0
  9 14  1  0  0  0  0
  9 10  2  0  0  0  0
 10 11  1  0  0  0  0
 11 12  2  0  0  0  0
 12 13  1  0  0  0  0
 12 14  1  0  0  0  0
  2 15  1  0  0  0  0
 15 16  1  0  0  0  0
 16 21  1  0  0  0  0
 16 17  2  0  0  0  0
 17 18  1  0  0  0  0
 18 19  2  0  0  0  0
 19 20  1  0  0  0  0
 20 21  2  0  0  0  0
M  END
$$$$
CHR-SOS-f73-2
  -OEChem-03222016562D

 21 23  0     0  0  0  0  0  0999 V2000
    2.5448   -1.8315    0.0000 O   0  0  0  0  0  0  0  0  0  0  0  0
    1.5504   -1.7262    0.0000 C   0  0  0  0  0  0  0  0  0  0  0  0
    1.1444   -0.8123    0.0000 C   0  0  0  0  0  0  0  0  0  0  0  0
    1.7328   -0.0038    0.0000 C   0  0  0  0  0  0  0  0  0  0  0  0
    2.1421    0.9104    0.0000 C   0  0  0  0  0  0  0  0  0  0  0  0
    3.1380    0.8060    0.0000 C   0  0  0  0  0  0  0  0  0  0  0  0
    3.3436   -0.1727    0.0000 C   0  0  0  0  0  0  0  0  0  0  0  0
    2.4791   -0.6760    0.0000 C   0  0  0  0  0  0  0  0  0  0  0  0
    0.8675    0.4975    0.0000 C   0  0  0  0  0  0  0  0  0  0  0  0
    0.8675    1.5027    0.0000 C   0  0  0  0  0  0  0  0  0  0  0  0
   -0.0000    2.0104    0.0000 N   0  0  0  0  0  0  0  0  0  0  0  0
   -0.8675    1.5027    0.0000 C   0  0  0  0  0  0  0  0  0  0  0  0
   -0.8675    0.4975    0.0000 C   0  0  0  0  0  0  0  0  0  0  0  0
    0.0000    0.0000    0.0000 C   0  0  0  0  0  0  0  0  0  0  0  0
    0.9619   -2.5347    0.0000 N   0  0  0  0  0  0  0  0  0  0  0  0
    1.3679   -3.4486    0.0000 C   0  0  0  0  0  0  0  0  0  0  0  0
    0.7806   -4.2580    0.0000 C   0  0  0  0  0  0  0  0  0  0  0  0
    1.1827   -5.1737    0.0000 C   0  0  0  0  0  0  0  0  0  0  0  0
    2.1821   -5.2810    0.0000 C   0  0  0  0  0  0  0  0  0  0  0  0
    2.7795   -4.4727    0.0000 N   0  0  0  0  0  0  0  0  0  0  0  0
    2.3674   -3.5559    0.0000 C   0  0  0  0  0  0  0  0  0  0  0  0
  1  2  2  0  0  0  0
  2  3  1  0  0  0  0
  3  4  1  0  0  0  0
  4  8  1  0  0  0  0
  4  5  1  0  0  0  0
  5  6  1  0  0  0  0
  6  7  1  0  0  0  0
  7  8  1  0  0  0  0
  4  9  1  0  0  0  0
  9 14  1  0  0  0  0
  9 10  2  0  0  0  0
 10 11  1  0  0  0  0
 11 12  2  0  0  0  0
 12 13  1  0  0  0  0
 13 14  2  0  0  0  0
  2 15  1  0  0  0  0
 15 16  1  0  0  0  0
 16 21  1  0  0  0  0
 16 17  2  0  0  0  0
 17 18  1  0  0  0  0
 18 19  2  0  0  0  0
 19 20  1  0  0  0  0
 20 21  2  0  0  0  0
M  END
$$$$
CHR-SOS-f73-3
  -OEChem-03222016562D

 21 23  0     0  0  0  0  0  0999 V2000
    2.6010    1.4950    0.0000 O   0  0  0  0  0  0  0  0  0  0  0  0
    2.5995    0.4950    0.0000 C   0  0  0  0  0  0  0  0  0  0  0  0
    3.4648   -0.0063    0.0000 C   0  0  0  0  0  0  0  0  0  0  0  0
    4.3316    0.4925    0.0000 C   0  0  0  0  0  0  0  0  0  0  0  0
    5.2843    0.8018    0.0000 C   0  0  0  0  0  0  0  0  0  0  0  0
    5.2867    1.8032    0.0000 C   0  0  0  0  0  0  0  0  0  0  0  0
    4.3356    2.1121    0.0000 C   0  0  0  0  0  0  0  0  0  0  0  0
    3.7429    1.3063    0.0000 C   0  0  0  0  0  0  0  0  0  0  0  0
    4.7376   -0.4214    0.0000 C   0  0  0  0  0  0  0  0  0  0  0  0
    4.1437   -1.2324    0.0000 C   0  0  0  0  0  0  0  0  0  0  0  0
    4.5497   -2.1463    0.0000 C   0  0  0  0  0  0  0  0  0  0  0  0
    5.5435   -2.2575    0.0000 C   0  0  0  0  0  0  0  0  0  0  0  0
    6.1374   -1.4465    0.0000 C   0  0  0  0  0  0  0  0  0  0  0  0
    5.7375   -0.5243    0.0000 C   0  0  0  0  0  0  0  0  0  0  0  0
    1.7328   -0.0038    0.0000 N   0  0  0  0  0  0  0  0  0  0  0  0
    0.8675    0.4975    0.0000 C   0  0  0  0  0  0  0  0  0  0  0  0
    0.0000    0.0000    0.0000 C   0  0  0  0  0  0  0  0  0  0  0  0
   -0.8675    0.4975    0.0000 C   0  0  0  0  0  0  0  0  0  0  0  0
   -0.8675    1.5027    0.0000 C   0  0  0  0  0  0  0  0  0  0  0  0
    0.0000    2.0104    0.0000 N   0  0  0  0  0  0  0  0  0  0  0  0
    0.8675    1.5027    0.0000 C   0  0  0  0  0  0  0  0  0  0  0  0
  1  2  2  0  0  0  0
  2  3  1  0  0  0  0
  3  4  1  0  0  0  0
  4  8  1  0  0  0  0
  4  5  1  0  0  0  0
  5  6  1  0  0  0  0
  6  7  1  0  0  0  0
  7  8  1  0  0  0  0
  4  9  1  0  0  0  0
  9 14  1  0  0  0  0
  9 10  2  0  0  0  0
 10 11  1  0  0  0  0
 11 12  2  0  0  0  0
 12 13  1  0  0  0  0
 13 14  2  0  0  0  0
  2 15  1  0  0  0  0
 15 16  1  0  0  0  0
 16 21  1  0  0  0  0
 16 17  2  0  0  0  0
 17 18  1  0  0  0  0
 18 19  2  0  0  0  0
 19 20  1  0  0  0  0
 20 21  2  0  0  0  0
M  END
$$$$
CHR-SOS-f73-4
  -OEChem-03222016562D

 22 24  0     0  0  0  0  0  0999 V2000
    2.6010    1.4950    0.0000 O   0  0  0  0  0  0  0  0  0  0  0  0
    2.5995    0.4950    0.0000 C   0  0  0  0  0  0  0  0  0  0  0  0
    3.4648   -0.0063    0.0000 C   0  0  0  0  0  0  0  0  0  0  0  0
    4.3316    0.4925    0.0000 C   0  0  0  0  0  0  0  0  0  0  0  0
    5.3225    0.6617    0.0000 C   0  0  0  0  0  0  0  0  0  0  0  0
    5.6668    1.6006    0.0000 C   0  0  0  0  0  0  0  0  0  0  0  0
    5.0304    2.3719    0.0000 C   0  0  0  0  0  0  0  0  0  0  0  0
    4.0395    2.2027    0.0000 C   0  0  0  0  0  0  0  0  0  0  0  0
    3.6851    1.2621    0.0000 C   0  0  0  0  0  0  0  0  0  0  0  0
    4.6704   -0.4484    0.0000 C   0  0  0  0  0  0  0  0  0  0  0  0
    5.6316   -0.7243    0.0000 C   0  0  0  0  0  0  0  0  0  0  0  0
    5.6636   -1.7253    0.0000 N   0  0  0  0  0  0  0  0  0  0  0  0
    4.7221   -2.0674    0.0000 C   0  0  0  0  0  0  0  0  0  0  0  0
    4.4450   -3.0282    0.0000 C   0  0  0  0  0  0  0  0  0  0  0  0
    4.1056   -1.2741    0.0000 S   0  0  0  0  0  0  0  0  0  0  0  0
    1.7328   -0.0038    0.0000 N   0  0  0  0  0  0  0  0  0  0  0  0
    0.8675    0.4975    0.0000 C   0  0  0  0  0  0  0  0  0  0  0  0
    0.0000    0.0000    0.0000 C   0  0  0  0  0  0  0  0  0  0  0  0
   -0.8675    0.4975    0.0000 C   0  0  0  0  0  0  0  0  0  0  0  0
   -0.8675    1.5027    0.0000 C   0  0  0  0  0  0  0  0  0  0  0  0
    0.0000    2.0104    0.0000 N   0  0  0  0  0  0  0  0  0  0  0  0
    0.8675    1.5027    0.0000 C   0  0  0  0  0  0  0  0  0  0  0  0
  1  2  2  0  0  0  0
  2  3  1  0  0  0  0
  3  4  1  0  0  0  0
  4  9  1  0  0  0  0
  4  5  1  0  0  0  0
  5  6  1  0  0  0  0
  6  7  1  0  0  0  0
  7  8  1  0  0  0  0
  8  9  1  0  0  0  0
  4 10  1  0  0  0  0
 10 15  1  0  0  0  0
 10 11  2  0  0  0  0
 11 12  1  0  0  0  0
 12 13  2  0  0  0  0
 13 14  1  0  0  0  0
 13 15  1  0  0  0  0
  2 16  1  0  0  0  0
 16 17  1  0  0  0  0
 17 22  1  0  0  0  0
 17 18  2  0  0  0  0
 18 19  1  0  0  0  0
 19 20  2  0  0  0  0
 20 21  1  0  0  0  0
 21 22  2  0  0  0  0
M  END
$$$$
CHR-SOS-f73-5
  -OEChem-03222016562D

 22 24  0     0  0  0  0  0  0999 V2000
    2.4104   -1.8855    0.0000 O   0  0  0  0  0  0  0  0  0  0  0  0
    1.4262   -1.7085    0.0000 C   0  0  0  0  0  0  0  0  0  0  0  0
    1.0874   -0.7676    0.0000 C   0  0  0  0  0  0  0  0  0  0  0  0
    1.7328   -0.0038    0.0000 C   0  0  0  0  0  0  0  0  0  0  0  0
    2.0761    0.9410    0.0000 C   0  0  0  0  0  0  0  0  0  0  0  0
    3.0614    1.1123    0.0000 C   0  0  0  0  0  0  0  0  0  0  0  0
    3.7068    0.3484    0.0000 C   0  0  0  0  0  0  0  0  0  0  0  0
    3.3635   -0.5963    0.0000 C   0  0  0  0  0  0  0  0  0  0  0  0
    2.3747   -0.7772    0.0000 C   0  0  0  0  0  0  0  0  0  0  0  0
    0.8675    0.4975    0.0000 C   0  0  0  0  0  0  0  0  0  0  0  0
    0.8675    1.5027    0.0000 C   0  0  0  0  0  0  0  0  0  0  0  0
   -0.0000    2.0104    0.0000 N   0  0  0  0  0  0  0  0  0  0  0  0
   -0.8675    1.5027    0.0000 C   0  0  0  0  0  0  0  0  0  0  0  0
   -0.8675    0.4975    0.0000 C   0  0  0  0  0  0  0  0  0  0  0  0
    0.0000    0.0000    0.0000 C   0  0  0  0  0  0  0  0  0  0  0  0
    0.7808   -2.4723    0.0000 N   0  0  0  0  0  0  0  0  0  0  0  0
    1.1196   -3.4132    0.0000 C   0  0  0  0  0  0  0  0  0  0  0  0
    0.4753   -4.1780    0.0000 C   0  0  0  0  0  0  0  0  0  0  0  0
    0.8100   -5.1203    0.0000 C   0  0  0  0  0  0  0  0  0  0  0  0
    1.7991   -5.2997    0.0000 C   0  0  0  0  0  0  0  0  0  0  0  0
    2.4534   -4.5367    0.0000 N   0  0  0  0  0  0  0  0  0  0  0  0
    2.1087   -3.5925    0.0000 C   0  0  0  0  0  0  0  0  0  0  0  0
  1  2  2  0  0  0  0
  2  3  1  0  0  0  0
  3  4  1  0  0  0  0
  4  9  1  0  0  0  0
  4  5  1  0  0  0  0
  5  6  1  0  0  0  0
  6  7  1  0  0  0  0
  7  8  1  0  0  0  0
  8  9  1  0  0  0  0
  4 10  1  0  0  0  0
 10 15  1  0  0  0  0
 10 11  2  0  0  0  0
 11 12  1  0  0  0  0
 12 13  2  0  0  0  0
 13 14  1  0  0  0  0
 14 15  2  0  0  0  0
  2 16  1  0  0  0  0
 16 17  1  0  0  0  0
 17 22  1  0  0  0  0
 17 18  2  0  0  0  0
 18 19  1  0  0  0  0
 19 20  2  0  0  0  0
 20 21  1  0  0  0  0
 21 22  2  0  0  0  0
M  END
$$$$
CHR-SOS-f73-6
  -OEChem-03222016562D

 22 24  0     0  0  0  0  0  0999 V2000
    2.6010    1.4950    0.0000 O   0  0  0  0  0  0  0  0  0  0  0  0
    2.5995    0.4950    0.0000 C   0  0  0  0  0  0  0  0  0  0  0  0
    3.4648   -0.0063    0.0000 C   0  0  0  0  0  0  0  0  0  0  0  0
    4.3316    0.4925    0.0000 C   0  0  0  0  0  0  0  0  0  0  0  0
    5.3225    0.6617    0.0000 C   0  0  0  0  0  0  0  0  0  0  0  0
    5.6668    1.6006    0.0000 C   0  0  0  0  0  0  0  0  0  0  0  0
    5.0304    2.3719    0.0000 C   0  0  0  0  0  0  0  0  0  0  0  0
    4.0395    2.2027    0.0000 C   0  0  0  0  0  0  0  0  0  0  0  0
    3.6851    1.2621    0.0000 C   0  0  0  0  0  0  0  0  0  0  0  0
    4.6704   -0.4484    0.0000 C   0  0  0  0  0  0  0  0  0  0  0  0
    4.0194   -1.2143    0.0000 C   0  0  0  0  0  0  0  0  0  0  0  0
    4.3582   -2.1552    0.0000 C   0  0  0  0  0  0  0  0  0  0  0  0
    5.3413   -2.3380    0.0000 C   0  0  0  0  0  0  0  0  0  0  0  0
    5.9924   -1.5721    0.0000 C   0  0  0  0  0  0  0  0  0  0  0  0
    5.6602   -0.6234    0.0000 C   0  0  0  0  0  0  0  0  0  0  0  0
    1.7328   -0.0038    0.0000 N   0  0  0  0  0  0  0  0  0  0  0  0
    0.8675    0.4975    0.0000 C   0  0  0  0  0  0  0  0  0  0  0  0
    0.0000    0.0000    0.0000 C   0  0  0  0  0  0  0  0  0  0  0  0
   -0.8675    0.4975    0.0000 C   0  0  0  0  0  0  0  0  0  0  0  0
   -0.8675    1.5027    0.0000 C   0  0  0  0  0  0  0  0  0  0  0  0
    0.0000    2.0104    0.0000 N   0  0  0  0  0  0  0  0  0  0  0  0
    0.8675    1.5027    0.0000 C   0  0  0  0  0  0  0  0  0  0  0  0
  1  2  2  0  0  0  0
  2  3  1  0  0  0  0
  3  4  1  0  0  0  0
  4  9  1  0  0  0  0
  4  5  1  0  0  0  0
  5  6  1  0  0  0  0
  6  7  1  0  0  0  0
  7  8  1  0  0  0  0
  8  9  1  0  0  0  0
  4 10  1  0  0  0  0
 10 15  1  0  0  0  0
 10 11  2  0  0  0  0
 11 12  1  0  0  0  0
 12 13  2  0  0  0  0
 13 14  1  0  0  0  0
 14 15  2  0  0  0  0
  2 16  1  0  0  0  0
 16 17  1  0  0  0  0
 17 22  1  0  0  0  0
 17 18  2  0  0  0  0
 18 19  1  0  0  0  0
 19 20  2  0  0  0  0
 20 21  1  0  0  0  0
 21 22  2  0  0  0  0
M  END
$$$$
NAU-LAT-ec9-1
  -OEChem-03222016562D

 22 24  0     0  0  0  0  0  0999 V2000
    4.3408   -0.5059    0.0000 O   0  0  0  0  0  0  0  0  0  0  0  0
    3.4761   -0.0036    0.0000 C   0  0  0  0  0  0  0  0  0  0  0  0
    3.4774    1.0034    0.0000 C   0  0  0  0  0  0  0  0  0  0  0  0
    4.3446    1.5014    0.0000 C   0  0  0  0  0  0  0  0  0  0  0  0
    4.3440    2.5066    0.0000 C   0  0  0  0  0  0  0  0  0  0  0  0
    5.2112    3.0046    0.0000 C   0  0  0  0  0  0  0  0  0  0  0  0
    6.0790    2.5076    0.0000 C   0  0  0  0  0  0  0  0  0  0  0  0
    6.0796    1.5024    0.0000 C   0  0  0  0  0  0  0  0  0  0  0  0
    5.2124    0.9942    0.0000 C   0  0  0  0  0  0  0  0  0  0  0  0
    2.6052    1.5109    0.0000 O   0  0  0  0  0  0  0  0  0  0  0  0
    1.7374    1.0057    0.0000 C   0  0  0  0  0  0  0  0  0  0  0  0
    0.8680    1.5138    0.0000 C   0  0  0  0  0  0  0  0  0  0  0  0
    0.0000    1.0057    0.0000 C   0  0  0  0  0  0  0  0  0  0  0  0
    0.0000    0.0000    0.0000 C   0  0  0  0  0  0  0  0  0  0  0  0
   -0.8653   -0.5013    0.0000 N   0  0  0  0  0  0  0  0  0  0  0  0
   -0.8639   -1.5013    0.0000 C   0  0  0  0  0  0  0  0  0  0  0  0
   -1.7292   -2.0025    0.0000 C   0  0  0  0  0  0  0  0  0  0  0  0
    0.0029   -2.0000    0.0000 O   0  0  0  0  0  0  0  0  0  0  0  0
    0.8680   -0.4978    0.0000 C   0  0  0  0  0  0  0  0  0  0  0  0
    1.7360   -0.0012    0.0000 C   0  0  0  0  0  0  0  0  0  0  0  0
    2.6026   -0.5032    0.0000 C   0  0  0  0  0  0  0  0  0  0  0  0
    2.5999   -1.5032    0.0000 O   0  0  0  0  0  0  0  0  0  0  0  0
  1  2  1  0  0  0  0
  2 21  1  0  0  0  0
  2  3  2  0  0  0  0
  3  4  1  0  0  0  0
  4  9  1  0  0  0  0
  4  5  2  0  0  0  0
  5  6  1  0  0  0  0
  6  7  2  0  0  0  0
  7  8  1  0  0  0  0
  8  9  2  0  0  0  0
  3 10  1  0  0  0  0
 10 11  1  0  0  0  0
 11 20  1  0  0  0  0
 11 12  2  0  0  0  0
 12 13  1  0  0  0  0
 13 14  2  0  0  0  0
 14 15  1  0  0  0  0
 15 16  1  0  0  0  0
 16 17  1  0  0  0  0
 16 18  2  0  0  0  0
 14 19  1  0  0  0  0
 19 20  2  0  0  0  0
 20 21  1  0  0  0  0
 21 22  2  0  0  0  0
M  END
$$$$
NAU-LAT-ec9-2
  -OEChem-03222016562D

 21 23  0     0  0  0  0  0  0999 V2000
    4.2858    0.5024    0.0000 O   0  0  0  0  0  0  0  0  0  0  0  0
    3.2858    0.5023    0.0000 C   0  0  0  0  0  0  0  0  0  0  0  0
    2.6938    1.3169    0.0000 N   0  0  0  0  0  0  0  0  0  0  0  0
    1.7360    1.0058    0.0000 C   0  0  0  0  0  0  0  0  0  0  0  0
    0.8680    1.5138    0.0000 C   0  0  0  0  0  0  0  0  0  0  0  0
    0.8680    2.5138    0.0000 C   0  0  0  0  0  0  0  0  0  0  0  0
   -0.1320    2.5138    0.0000 F   0  0  0  0  0  0  0  0  0  0  0  0
    1.8680    2.5138    0.0000 F   0  0  0  0  0  0  0  0  0  0  0  0
    0.8680    3.5138    0.0000 F   0  0  0  0  0  0  0  0  0  0  0  0
    0.0000    1.0058    0.0000 C   0  0  0  0  0  0  0  0  0  0  0  0
    0.0000    0.0000    0.0000 C   0  0  0  0  0  0  0  0  0  0  0  0
   -0.8653   -0.5013    0.0000 C   0  0  0  0  0  0  0  0  0  0  0  0
   -0.8610   -1.5013    0.0000 C   0  0  0  0  0  0  0  0  0  0  0  0
   -1.7308   -2.0051    0.0000 C   0  0  0  0  0  0  0  0  0  0  0  0
   -2.6049   -1.5090    0.0000 N   0  0  0  0  0  0  0  0  0  0  0  0
   -2.6004   -0.5038    0.0000 C   0  0  0  0  0  0  0  0  0  0  0  0
   -1.7306    0.0000    0.0000 C   0  0  0  0  0  0  0  0  0  0  0  0
    0.8680   -0.4978    0.0000 C   0  0  0  0  0  0  0  0  0  0  0  0
    1.7360   -0.0012    0.0000 C   0  0  0  0  0  0  0  0  0  0  0  0
    2.6938   -0.3125    0.0000 C   0  0  0  0  0  0  0  0  0  0  0  0
    3.0028   -1.2636    0.0000 O   0  0  0  0  0  0  0  0  0  0  0  0
  1  2  2  0  0  0  0
  2 20  1  0  0  0  0
  2  3  1  0  0  0  0
  3  4  1  0  0  0  0
  4 19  1  0  0  0  0
  4  5  2  0  0  0  0
  5  6  1  0  0  0  0
  6  7  1  0  0  0  0
  6  8  1  0  0  0  0
  6  9  1  0  0  0  0
  5 10  1  0  0  0  0
 10 11  2  0  0  0  0
 11 12  1  0  0  0  0
 12 17  1  0  0  0  0
 12 13  2  0  0  0  0
 13 14  1  0  0  0  0
 14 15  2  0  0  0  0
 15 16  1  0  0  0  0
 16 17  2  0  0  0  0
 11 18  1  0  0  0  0
 18 19  2  0  0  0  0
 19 20  1  0  0  0  0
 20 21  2  0  0  0  0
M  END
$$$$
NAU-LAT-ec9-3
  -OEChem-03222016562D

 26 29  0     0  0  0  0  0  0999 V2000
    0.8664   -3.4978    0.0000 O   0  0  0  0  0  0  0  0  0  0  0  0
    0.0007   -2.9973    0.0000 C   0  0  0  0  0  0  0  0  0  0  0  0
   -0.8656   -3.4969    0.0000 N   0  0  0  0  0  0  0  0  0  0  0  0
   -1.7388   -2.9990    0.0000 C   0  0  0  0  0  0  0  0  0  0  0  0
   -2.6096   -3.5012    0.0000 C   0  0  0  0  0  0  0  0  0  0  0  0
   -2.6072   -4.5012    0.0000 N   0  0  0  0  0  0  0  0  0  0  0  0
   -3.4735   -5.0007    0.0000 C   0  0  0  0  0  0  0  0  0  0  0  0
   -1.7429   -5.0042    0.0000 C   0  0  0  0  0  0  0  0  0  0  0  0
   -0.8721   -4.5020    0.0000 C   0  0  0  0  0  0  0  0  0  0  0  0
    0.0012   -1.9973    0.0000 C   0  0  0  0  0  0  0  0  0  0  0  0
    0.8675   -1.4978    0.0000 O   0  0  0  0  0  0  0  0  0  0  0  0
    0.8680   -0.4978    0.0000 C   0  0  0  0  0  0  0  0  0  0  0  0
    1.7360   -0.0012    0.0000 C   0  0  0  0  0  0  0  0  0  0  0  0
    1.7360    1.0058    0.0000 C   0  0  0  0  0  0  0  0  0  0  0  0
    2.6939    1.3169    0.0000 N   0  0  0  0  0  0  0  0  0  0  0  0
    3.0030    2.2679    0.0000 C   0  0  0  0  0  0  0  0  0  0  0  0
    2.3283    3.0130    0.0000 C   0  0  0  0  0  0  0  0  0  0  0  0
    2.6374    3.9641    0.0000 C   0  0  0  0  0  0  0  0  0  0  0  0
    3.6143    4.1776    0.0000 C   0  0  0  0  0  0  0  0  0  0  0  0
    4.2891    3.4325    0.0000 C   0  0  0  0  0  0  0  0  0  0  0  0
    3.9868    2.4739    0.0000 C   0  0  0  0  0  0  0  0  0  0  0  0
    3.2858    0.5021    0.0000 N   0  0  0  0  0  0  0  0  0  0  0  0
    2.6938   -0.3126    0.0000 C   0  0  0  0  0  0  0  0  0  0  0  0
    0.8680    1.5138    0.0000 C   0  0  0  0  0  0  0  0  0  0  0  0
    0.0000    1.0058    0.0000 C   0  0  0  0  0  0  0  0  0  0  0  0
    0.0000    0.0000    0.0000 C   0  0  0  0  0  0  0  0  0  0  0  0
  1  2  2  0  0  0  0
  2  3  1  0  0  0  0
  3  9  1  0  0  0  0
  3  4  1  0  0  0  0
  4  5  1  0  0  0  0
  5  6  1  0  0  0  0
  6  7  1  0  0  0  0
  6  8  1  0  0  0  0
  8  9  1  0  0  0  0
  2 10  1  0  0  0  0
 10 11  1  0  0  0  0
 11 12  1  0  0  0  0
 12 26  1  0  0  0  0
 12 13  2  0  0  0  0
 13 23  1  0  0  0  0
 13 14  1  0  0  0  0
 14 15  1  0  0  0  0
 15 16  1  0  0  0  0
 16 21  1  0  0  0  0
 16 17  2  0  0  0  0
 17 18  1  0  0  0  0
 18 19  2  0  0  0  0
 19 20  1  0  0  0  0
 20 21  2  0  0  0  0
 15 22  1  0  0  0  0
 22 23  2  0  0  0  0
 14 24  2  0  0  0  0
 24 25  1  0  0  0  0
 25 26  2  0  0  0  0
M  END
$$$$
NAU-LAT-ec9-4
  -OEChem-03222016562D

 28 31  0     0  0  0  0  0  0999 V2000
    4.2858    0.5024    0.0000 O   0  0  0  0  0  0  0  0  0  0  0  0
    3.2858    0.5023    0.0000 C   0  0  0  0  0  0  0  0  0  0  0  0
    2.6938    1.3169    0.0000 N   0  0  0  0  0  0  0  0  0  0  0  0
    3.0028    2.2680    0.0000 C   0  0  0  0  0  0  0  0  0  0  0  0
    2.3337    3.0111    0.0000 C   0  0  0  0  0  0  0  0  0  0  0  0
    2.6427    3.9622    0.0000 N   0  0  0  0  0  0  0  0  0  0  0  0
    3.5935    4.2731    0.0000 C   0  0  0  0  0  0  0  0  0  0  0  0
    4.4019    3.6845    0.0000 S   0  0  0  0  0  0  0  0  0  0  0  0
    4.9905    4.4928    0.0000 O   0  0  0  0  0  0  0  0  0  0  0  0
    5.2102    3.0958    0.0000 C   0  0  0  0  0  0  0  0  0  0  0  0
    6.1242    3.5015    0.0000 C   0  0  0  0  0  0  0  0  0  0  0  0
    6.2275    4.5014    0.0000 C   0  0  0  0  0  0  0  0  0  0  0  0
    7.1415    4.9072    0.0000 C   0  0  0  0  0  0  0  0  0  0  0  0
    7.9533    4.3232    0.0000 C   0  0  0  0  0  0  0  0  0  0  0  0
    7.8501    3.3233    0.0000 C   0  0  0  0  0  0  0  0  0  0  0  0
    6.9350    2.9074    0.0000 C   0  0  0  0  0  0  0  0  0  0  0  0
    3.8132    2.8761    0.0000 O   0  0  0  0  0  0  0  0  0  0  0  0
    3.5976    5.2731    0.0000 N   0  0  0  0  0  0  0  0  0  0  0  0
    2.6456    5.5840    0.0000 N   0  0  0  0  0  0  0  0  0  0  0  0
    2.0537    4.7760    0.0000 N   0  0  0  0  0  0  0  0  0  0  0  0
    1.7360    1.0058    0.0000 C   0  0  0  0  0  0  0  0  0  0  0  0
    0.8680    1.5138    0.0000 C   0  0  0  0  0  0  0  0  0  0  0  0
    0.0000    1.0058    0.0000 C   0  0  0  0  0  0  0  0  0  0  0  0
    0.0000    0.0000    0.0000 C   0  0  0  0  0  0  0  0  0  0  0  0
    0.8680   -0.4978    0.0000 C   0  0  0  0  0  0  0  0  0  0  0  0
    1.7360   -0.0012    0.0000 C   0  0  0  0  0  0  0  0  0  0  0  0
    2.6938   -0.3125    0.0000 C   0  0  0  0  0  0  0  0  0  0  0  0
    3.0028   -1.2636    0.0000 O   0  0  0  0  0  0  0  0  0  0  0  0
  1  2  2  0  0  0  0
  2 27  1  0  0  0  0
  2  3  1  0  0  0  0
  3  4  1  0  0  0  0
  4  5  1  0  0  0  0
  5  6  1  0  0  0  0
  6 20  1  0  0  0  0
  6  7  1  0  0  0  0
  7  8  1  0  0  0  0
  8  9  2  0  0  0  0
  8 10  1  0  0  0  0
 10 11  1  0  0  0  0
 11 16  1  0  0  0  0
 11 12  2  0  0  0  0
 12 13  1  0  0  0  0
 13 14  2  0  0  0  0
 14 15  1  0  0  0  0
 15 16  2  0  0  0  0
  8 17  2  0  0  0  0
  7 18  2  0  0  0  0
 18 19  1  0  0  0  0
 19 20  2  0  0  0  0
  3 21  1  0  0  0  0
 21 26  1  0  0  0  0
 21 22  2  0  0  0  0
 22 23  1  0  0  0  0
 23 24  2  0  0  0  0
 24 25  1  0  0  0  0
 25 26  2  0  0  0  0
 26 27  1  0  0  0  0
 27 28  2  0  0  0  0
M  END
$$$$
NAU-LAT-ec9-5
  -OEChem-03222016562D

 23 26  0     1  0  0  0  0  0999 V2000
    5.0358    0.5024    0.0000 O   0  0  0  0  0  0  0  0  0  0  0  0
    3.2858    0.5023    0.0000 C   0  0  0  0  0  0  0  0  0  0  0  0
    2.6938   -0.3125    0.0000 C   0  0  3  0  0  0  0  0  0  0  0  0
    3.5598   -0.8125    0.0000 C   0  0  0  0  0  0  0  0  0  0  0  0
    4.4289   -0.3074    0.0000 C   0  0  0  0  0  0  0  0  0  0  0  0
    5.2949   -0.8074    0.0000 C   0  0  0  0  0  0  0  0  0  0  0  0
    5.3007   -1.8074    0.0000 C   0  0  0  0  0  0  0  0  0  0  0  0
    4.4317   -2.3126    0.0000 C   0  0  0  0  0  0  0  0  0  0  0  0
    3.5568   -1.8177    0.0000 C   0  0  0  0  0  0  0  0  0  0  0  0
    1.9819   -1.9112    0.0000 C   0  0  0  0  0  0  0  0  0  0  0  0
    2.5685   -2.7211    0.0000 C   0  0  0  0  0  0  0  0  0  0  0  0
    2.1657   -3.6364    0.0000 C   0  0  0  0  0  0  0  0  0  0  0  0
    1.1661   -3.7429    0.0000 C   0  0  0  0  0  0  0  0  0  0  0  0
    0.5694   -2.9340    0.0000 C   0  0  0  0  0  0  0  0  0  0  0  0
    0.9824   -2.0176    0.0000 C   0  0  0  0  0  0  0  0  0  0  0  0
    0.3958   -1.2077    0.0000 O   0  0  0  0  0  0  0  0  0  0  0  0
    1.7360   -0.0012    0.0000 C   0  0  0  0  0  0  0  0  0  0  0  0
    0.8680   -0.4978    0.0000 C   0  0  0  0  0  0  0  0  0  0  0  0
    0.0000    0.0000    0.0000 C   0  0  0  0  0  0  0  0  0  0  0  0
    0.0000    1.0058    0.0000 C   0  0  0  0  0  0  0  0  0  0  0  0
    0.8680    1.5138    0.0000 C   0  0  0  0  0  0  0  0  0  0  0  0
    1.7360    1.0058    0.0000 C   0  0  0  0  0  0  0  0  0  0  0  0
    2.6938    1.3169    0.0000 N   0  0  0  0  0  0  0  0  0  0  0  0
  1  2  2  0  0  0  0
  2 23  1  0  0  0  0
  2  3  1  0  0  0  0
  3  4  1  0  0  0  0
  4  9  1  0  0  0  0
  4  5  2  0  0  0  0
  5  6  1  0  0  0  0
  6  7  2  0  0  0  0
  7  8  1  0  0  0  0
  8  9  2  0  0  0  0
  3 10  1  0  0  0  0
 10 15  1  0  0  0  0
 10 11  2  0  0  0  0
 11 12  1  0  0  0  0
 12 13  2  0  0  0  0
 13 14  1  0  0  0  0
 14 15  2  0  0  0  0
 15 16  1  0  0  0  0
  3 17  1  0  0  0  0
 17 22  1  0  0  0  0
 17 18  2  0  0  0  0
 18 19  1  0  0  0  0
 19 20  2  0  0  0  0
 20 21  1  0  0  0  0
 21 22  2  0  0  0  0
 22 23  1  0  0  0  0
M  END
$$$$
NAU-LAT-ec9-6
  -OEChem-03222016562D

 31 35  0     0  0  0  0  0  0999 V2000
   10.6381    3.9727    0.0000 O   0  0  0  0  0  0  0  0  0  0  0  0
    9.9743    3.2248    0.0000 C   0  0  0  0  0  0  0  0  0  0  0  0
   10.2901    2.2759    0.0000 O   0  0  0  0  0  0  0  0  0  0  0  0
    8.9947    3.4257    0.0000 C   0  0  0  0  0  0  0  0  0  0  0  0
    8.6775    4.3741    0.0000 C   0  0  0  0  0  0  0  0  0  0  0  0
    7.6987    4.5793    0.0000 C   0  0  0  0  0  0  0  0  0  0  0  0
    8.3263    2.6749    0.0000 C   0  0  0  0  0  0  0  0  0  0  0  0
    7.3408    2.8724    0.0000 C   0  0  0  0  0  0  0  0  0  0  0  0
    7.0304    3.8285    0.0000 C   0  0  0  0  0  0  0  0  0  0  0  0
    6.0517    4.0337    0.0000 C   0  0  0  0  0  0  0  0  0  0  0  0
    5.3846    3.2887    0.0000 N   0  0  0  0  0  0  0  0  0  0  0  0
    5.5942    2.3062    0.0000 N   0  0  0  0  0  0  0  0  0  0  0  0
    4.7263    1.8065    0.0000 N   0  0  0  0  0  0  0  0  0  0  0  0
    3.9812    2.4757    0.0000 C   0  0  0  0  0  0  0  0  0  0  0  0
    3.0030    2.2679    0.0000 C   0  0  0  0  0  0  0  0  0  0  0  0
    2.6939    1.3169    0.0000 N   0  0  0  0  0  0  0  0  0  0  0  0
    1.7360    1.0058    0.0000 C   0  0  0  0  0  0  0  0  0  0  0  0
    0.8680    1.5138    0.0000 C   0  0  0  0  0  0  0  0  0  0  0  0
    0.0000    1.0058    0.0000 C   0  0  0  0  0  0  0  0  0  0  0  0
    0.0000    0.0000    0.0000 C   0  0  0  0  0  0  0  0  0  0  0  0
    0.8680   -0.4978    0.0000 C   0  0  0  0  0  0  0  0  0  0  0  0
    1.7360   -0.0012    0.0000 C   0  0  0  0  0  0  0  0  0  0  0  0
    2.6938   -0.3126    0.0000 C   0  0  0  0  0  0  0  0  0  0  0  0
    3.0027   -1.2637    0.0000 C   0  0  0  0  0  0  0  0  0  0  0  0
    3.9865   -1.4699    0.0000 C   0  0  0  0  0  0  0  0  0  0  0  0
    4.2955   -2.4210    0.0000 C   0  0  0  0  0  0  0  0  0  0  0  0
    3.6306   -3.1680    0.0000 C   0  0  0  0  0  0  0  0  0  0  0  0
    2.6468   -2.9618    0.0000 C   0  0  0  0  0  0  0  0  0  0  0  0
    2.3278   -2.0086    0.0000 C   0  0  0  0  0  0  0  0  0  0  0  0
    3.2858    0.5021    0.0000 N   0  0  0  0  0  0  0  0  0  0  0  0
    4.3892    3.3886    0.0000 C   0  0  0  0  0  0  0  0  0  0  0  0
  1  2  2  0  0  0  0
  2  3  1  0  0  0  0
  2  4  1  0  0  0  0
  4  5  1  0  0  0  0
  5  6  2  0  0  0  0
  6  9  1  0  0  0  0
  4  7  2  0  0  0  0
  7  8  1  0  0  0  0
  8  9  2  0  0  0  0
  9 10  1  0  0  0  0
 10 11  1  0  0  0  0
 11 31  1  0  0  0  0
 11 12  1  0  0  0  0
 12 13  2  0  0  0  0
 13 14  1  0  0  0  0
 14 15  1  0  0  0  0
 15 16  1  0  0  0  0
 16 30  1  0  0  0  0
 16 17  1  0  0  0  0
 17 22  1  0  0  0  0
 17 18  2  0  0  0  0
 18 19  1  0  0  0  0
 19 20  2  0  0  0  0
 20 21  1  0  0  0  0
 21 22  2  0  0  0  0
 22 23  1  0  0  0  0
 23 24  1  0  0  0  0
 24 29  1  0  0  0  0
 24 25  2  0  0  0  0
 25 26  1  0  0  0  0
 26 27  2  0  0  0  0
 27 28  1  0  0  0  0
 28 29  2  0  0  0  0
 23 30  2  0  0  0  0
 14 31  2  0  0  0  0
M  END
$$$$
NAU-LAT-ec9-7
  -OEChem-03222016562D

 31 36  0     0  0  0  0  0  0999 V2000
   -2.0467   -2.4231    0.0000 O   0  0  0  0  0  0  0  0  0  0  0  0
   -2.2533   -1.4447    0.0000 C   0  0  0  0  0  0  0  0  0  0  0  0
   -1.5832   -0.7024    0.0000 N   0  0  0  0  0  0  0  0  0  0  0  0
   -0.5888   -0.8082    0.0000 C   0  0  0  0  0  0  0  0  0  0  0  0
    0.0000    0.0000    0.0000 C   0  0  0  0  0  0  0  0  0  0  0  0
   -0.3065    0.9518    0.0000 C   0  0  0  0  0  0  0  0  0  0  0  0
    0.5008    1.5426    0.0000 N   0  0  0  0  0  0  0  0  0  0  0  0
    0.4993    2.5426    0.0000 C   0  0  0  0  0  0  0  0  0  0  0  0
   -0.3675    3.0413    0.0000 C   0  0  0  0  0  0  0  0  0  0  0  0
   -1.2358    2.5348    0.0000 C   0  0  0  0  0  0  0  0  0  0  0  0
   -2.1026    3.0334    0.0000 C   0  0  0  0  0  0  0  0  0  0  0  0
   -2.1100    4.0334    0.0000 C   0  0  0  0  0  0  0  0  0  0  0  0
   -1.2417    4.5399    0.0000 C   0  0  0  0  0  0  0  0  0  0  0  0
   -0.3661    4.0464    0.0000 C   0  0  0  0  0  0  0  0  0  0  0  0
    1.3133    0.9518    0.0000 N   0  0  0  0  0  0  0  0  0  0  0  0
    1.0015    0.0000    0.0000 N   0  0  0  0  0  0  0  0  0  0  0  0
   -2.0821    0.1643    0.0000 C   0  0  0  0  0  0  0  0  0  0  0  0
   -1.7718    1.1149    0.0000 C   0  0  0  0  0  0  0  0  0  0  0  0
   -2.4400    1.8589    0.0000 C   0  0  0  0  0  0  0  0  0  0  0  0
   -3.4184    1.6523    0.0000 C   0  0  0  0  0  0  0  0  0  0  0  0
   -3.7287    0.7017    0.0000 C   0  0  0  0  0  0  0  0  0  0  0  0
   -3.0605   -0.0424    0.0000 C   0  0  0  0  0  0  0  0  0  0  0  0
   -3.1663   -1.0367    0.0000 C   0  0  0  0  0  0  0  0  0  0  0  0
   -4.0794   -0.6288    0.0000 O   0  0  0  0  0  0  0  0  0  0  0  0
   -4.7495   -1.3711    0.0000 C   0  0  0  0  0  0  0  0  0  0  0  0
   -5.7495   -1.3698    0.0000 C   0  0  0  0  0  0  0  0  0  0  0  0
   -6.2506   -2.2351    0.0000 C   0  0  0  0  0  0  0  0  0  0  0  0
   -5.7517   -3.1018    0.0000 C   0  0  0  0  0  0  0  0  0  0  0  0
   -4.7517   -3.1031    0.0000 C   0  0  0  0  0  0  0  0  0  0  0  0
   -4.2506   -2.2378    0.0000 C   0  0  0  0  0  0  0  0  0  0  0  0
   -3.2722   -2.0311    0.0000 O   0  0  0  0  0  0  0  0  0  0  0  0
  1  2  2  0  0  0  0
  2 23  1  0  0  0  0
  2  3  1  0  0  0  0
  3  4  1  0  0  0  0
  4  5  1  0  0  0  0
  5 16  1  0  0  0  0
  5  6  2  0  0  0  0
  6  7  1  0  0  0  0
  7  8  1  0  0  0  0
  8  9  1  0  0  0  0
  9 14  1  0  0  0  0
  9 10  2  0  0  0  0
 10 11  1  0  0  0  0
 11 12  2  0  0  0  0
 12 13  1  0  0  0  0
 13 14  2  0  0  0  0
  7 15  1  0  0  0  0
 15 16  2  0  0  0  0
  3 17  1  0  0  0  0
 17 22  1  0  0  0  0
 17 18  2  0  0  0  0
 18 19  1  0  0  0  0
 19 20  2  0  0  0  0
 20 21  1  0  0  0  0
 21 22  2  0  0  0  0
 22 23  1  0  0  0  0
 23 31  1  0  0  0  0
 23 24  1  0  0  0  0
 24 25  1  0  0  0  0
 25 26  1  0  0  0  0
 26 27  2  0  0  0  0
 27 28  1  0  0  0  0
 28 29  2  0  0  0  0
 29 30  1  0  0  0  0
 25 30  2  0  0  0  0
 30 31  1  0  0  0  0
M  END
$$$$
WAR-XCH-eb7-1
  -OEChem-03222016562D

 18 19  0     0  0  0  0  0  0999 V2000
    0.0024   -5.0166    0.0000 N   0  0  0  0  0  0  0  0  0  0  0  0
    0.8662   -4.5127    0.0000 C   0  0  0  0  0  0  0  0  0  0  0  0
    1.7299   -4.0089    0.0000 C   0  0  0  0  0  0  0  0  0  0  0  0
    2.6012   -4.5102    0.0000 C   0  0  0  0  0  0  0  0  0  0  0  0
    3.4651   -4.0063    0.0000 C   0  0  0  0  0  0  0  0  0  0  0  0
    3.4665   -3.0063    0.0000 C   0  0  0  0  0  0  0  0  0  0  0  0
    2.5952   -2.5050    0.0000 C   0  0  0  0  0  0  0  0  0  0  0  0
    2.5966   -1.5050    0.0000 N   0  0  0  0  0  0  0  0  0  0  0  0
    1.7313   -1.0038    0.0000 C   0  0  0  0  0  0  0  0  0  0  0  0
    0.8646   -1.5025    0.0000 O   0  0  0  0  0  0  0  0  0  0  0  0
    1.7328   -0.0038    0.0000 N   0  0  0  0  0  0  0  0  0  0  0  0
    0.8675    0.4975    0.0000 C   0  0  0  0  0  0  0  0  0  0  0  0
    0.0000    0.0000    0.0000 C   0  0  0  0  0  0  0  0  0  0  0  0
   -0.8675    0.4975    0.0000 C   0  0  0  0  0  0  0  0  0  0  0  0
   -0.8675    1.5027    0.0000 C   0  0  0  0  0  0  0  0  0  0  0  0
    0.0000    2.0104    0.0000 N   0  0  0  0  0  0  0  0  0  0  0  0
    0.8675    1.5027    0.0000 C   0  0  0  0  0  0  0  0  0  0  0  0
    1.7225   -3.0037    0.0000 C   0  0  0  0  0  0  0  0  0  0  0  0
  1  2  3  0  0  0  0
  2  3  1  0  0  0  0
  3 18  2  0  0  0  0
  3  4  1  0  0  0  0
  4  5  2  0  0  0  0
  5  6  1  0  0  0  0
  6  7  2  0  0  0  0
  7  8  1  0  0  0  0
  8  9  1  0  0  0  0
  9 10  2  0  0  0  0
  9 11  1  0  0  0  0
 11 12  1  0  0  0  0
 12 17  2  0  0  0  0
 12 13  1  0  0  0  0
 13 14  2  0  0  0  0
 14 15  1  0  0  0  0
 15 16  2  0  0  0  0
 16 17  1  0  0  0  0
  7 18  1  0  0  0  0
M  END
$$$$
WAR-XCH-eb7-2
  -OEChem-03222016562D

 19 20  0     0  0  0  0  0  0999 V2000
    0.0024   -5.0166    0.0000 N   0  0  0  0  0  0  0  0  0  0  0  0
    0.8662   -4.5127    0.0000 C   0  0  0  0  0  0  0  0  0  0  0  0
    1.7299   -4.0089    0.0000 C   0  0  0  0  0  0  0  0  0  0  0  0
    2.6012   -4.5102    0.0000 C   0  0  0  0  0  0  0  0  0  0  0  0
    3.4651   -4.0063    0.0000 C   0  0  0  0  0  0  0  0  0  0  0  0
    4.3318   -4.5050    0.0000 Cl  0  0  0  0  0  0  0  0  0  0  0  0
    3.4665   -3.0063    0.0000 C   0  0  0  0  0  0  0  0  0  0  0  0
    2.5952   -2.5050    0.0000 C   0  0  0  0  0  0  0  0  0  0  0  0
    2.5966   -1.5050    0.0000 N   0  0  0  0  0  0  0  0  0  0  0  0
    1.7313   -1.0038    0.0000 C   0  0  0  0  0  0  0  0  0  0  0  0
    0.8646   -1.5025    0.0000 O   0  0  0  0  0  0  0  0  0  0  0  0
    1.7328   -0.0038    0.0000 N   0  0  0  0  0  0  0  0  0  0  0  0
    0.8675    0.4975    0.0000 C   0  0  0  0  0  0  0  0  0  0  0  0
    0.0000    0.0000    0.0000 C   0  0  0  0  0  0  0  0  0  0  0  0
   -0.8675    0.4975    0.0000 C   0  0  0  0  0  0  0  0  0  0  0  0
   -0.8675    1.5027    0.0000 C   0  0  0  0  0  0  0  0  0  0  0  0
    0.0000    2.0104    0.0000 N   0  0  0  0  0  0  0  0  0  0  0  0
    0.8675    1.5027    0.0000 C   0  0  0  0  0  0  0  0  0  0  0  0
    1.7225   -3.0037    0.0000 C   0  0  0  0  0  0  0  0  0  0  0  0
  1  2  3  0  0  0  0
  2  3  1  0  0  0  0
  3 19  2  0  0  0  0
  3  4  1  0  0  0  0
  4  5  2  0  0  0  0
  5  6  1  0  0  0  0
  5  7  1  0  0  0  0
  7  8  2  0  0  0  0
  8  9  1  0  0  0  0
  9 10  1  0  0  0  0
 10 11  2  0  0  0  0
 10 12  1  0  0  0  0
 12 13  1  0  0  0  0
 13 18  2  0  0  0  0
 13 14  1  0  0  0  0
 14 15  2  0  0  0  0
 15 16  1  0  0  0  0
 16 17  2  0  0  0  0
 17 18  1  0  0  0  0
  8 19  1  0  0  0  0
M  END
$$$$
WAR-XCH-eb7-3
  -OEChem-03222016562D

 18 19  0     0  0  0  0  0  0999 V2000
    0.8646   -1.5025    0.0000 O   0  0  0  0  0  0  0  0  0  0  0  0
    1.7313   -1.0038    0.0000 C   0  0  0  0  0  0  0  0  0  0  0  0
    1.7328   -0.0038    0.0000 N   0  0  0  0  0  0  0  0  0  0  0  0
    0.8675    0.4975    0.0000 C   0  0  0  0  0  0  0  0  0  0  0  0
    0.0000    0.0000    0.0000 C   0  0  0  0  0  0  0  0  0  0  0  0
   -0.8675    0.4975    0.0000 C   0  0  0  0  0  0  0  0  0  0  0  0
   -0.8675    1.5027    0.0000 C   0  0  0  0  0  0  0  0  0  0  0  0
    0.0000    2.0104    0.0000 N   0  0  0  0  0  0  0  0  0  0  0  0
    0.8675    1.5027    0.0000 C   0  0  0  0  0  0  0  0  0  0  0  0
    2.5966   -1.5050    0.0000 N   0  0  0  0  0  0  0  0  0  0  0  0
    2.5952   -2.5050    0.0000 C   0  0  0  0  0  0  0  0  0  0  0  0
    1.7225   -3.0038    0.0000 C   0  0  0  0  0  0  0  0  0  0  0  0
    1.7210   -4.0038    0.0000 C   0  0  0  0  0  0  0  0  0  0  0  0
    0.8527   -4.5000    0.0000 Cl  0  0  0  0  0  0  0  0  0  0  0  0
    2.5833   -4.5101    0.0000 C   0  0  0  0  0  0  0  0  0  0  0  0
    3.4561   -4.0114    0.0000 C   0  0  0  0  0  0  0  0  0  0  0  0
    4.3184   -4.5177    0.0000 Cl  0  0  0  0  0  0  0  0  0  0  0  0
    3.4664   -3.0063    0.0000 C   0  0  0  0  0  0  0  0  0  0  0  0
  1  2  2  0  0  0  0
  2  3  1  0  0  0  0
  3  4  1  0  0  0  0
  4  9  2  0  0  0  0
  4  5  1  0  0  0  0
  5  6  2  0  0  0  0
  6  7  1  0  0  0  0
  7  8  2  0  0  0  0
  8  9  1  0  0  0  0
  2 10  1  0  0  0  0
 10 11  1  0  0  0  0
 11 18  2  0  0  0  0
 11 12  1  0  0  0  0
 12 13  2  0  0  0  0
 13 14  1  0  0  0  0
 13 15  1  0  0  0  0
 15 16  2  0  0  0  0
 16 17  1  0  0  0  0
 16 18  1  0  0  0  0
M  END
$$$$
WAR-XCH-eb7-4
  -OEChem-03222016562D

 18 19  0     0  0  0  0  0  0999 V2000
    0.8646   -1.5025    0.0000 O   0  0  0  0  0  0  0  0  0  0  0  0
    1.7313   -1.0038    0.0000 C   0  0  0  0  0  0  0  0  0  0  0  0
    1.7328   -0.0038    0.0000 N   0  0  0  0  0  0  0  0  0  0  0  0
    0.8675    0.4975    0.0000 C   0  0  0  0  0  0  0  0  0  0  0  0
    0.0000    0.0000    0.0000 C   0  0  0  0  0  0  0  0  0  0  0  0
   -0.8675    0.4975    0.0000 C   0  0  0  0  0  0  0  0  0  0  0  0
   -0.8675    1.5027    0.0000 C   0  0  0  0  0  0  0  0  0  0  0  0
    0.0000    2.0104    0.0000 N   0  0  0  0  0  0  0  0  0  0  0  0
    0.8675    1.5027    0.0000 C   0  0  0  0  0  0  0  0  0  0  0  0
    2.5966   -1.5050    0.0000 N   0  0  0  0  0  0  0  0  0  0  0  0
    2.5952   -2.5050    0.0000 C   0  0  0  0  0  0  0  0  0  0  0  0
    1.7225   -3.0038    0.0000 C   0  0  0  0  0  0  0  0  0  0  0  0
    1.7210   -4.0038    0.0000 C   0  0  0  0  0  0  0  0  0  0  0  0
    0.8527   -4.5000    0.0000 O   0  0  0  0  0  0  0  0  0  0  0  0
    2.5833   -4.5101    0.0000 C   0  0  0  0  0  0  0  0  0  0  0  0
    3.4561   -4.0114    0.0000 C   0  0  0  0  0  0  0  0  0  0  0  0
    4.3184   -4.5177    0.0000 Cl  0  0  0  0  0  0  0  0  0  0  0  0
    3.4664   -3.0063    0.0000 C   0  0  0  0  0  0  0  0  0  0  0  0
  1  2  2  0  0  0  0
  2  3  1  0  0  0  0
  3  4  1  0  0  0  0
  4  9  2  0  0  0  0
  4  5  1  0  0  0  0
  5  6  2  0  0  0  0
  6  7  1  0  0  0  0
  7  8  2  0  0  0  0
  8  9  1  0  0  0  0
  2 10  1  0  0  0  0
 10 11  1  0  0  0  0
 11 18  2  0  0  0  0
 11 12  1  0  0  0  0
 12 13  2  0  0  0  0
 13 14  1  0  0  0  0
 13 15  1  0  0  0  0
 15 16  2  0  0  0  0
 16 17  1  0  0  0  0
 16 18  1  0  0  0  0
M  END
$$$$
WAR-XCH-eb7-5
  -OEChem-03222016562D

 18 19  0     0  0  0  0  0  0999 V2000
    0.8662   -4.5127    0.0000 C   0  0  0  0  0  0  0  0  0  0  0  0
    1.7299   -4.0089    0.0000 C   0  0  0  0  0  0  0  0  0  0  0  0
    2.6012   -4.5102    0.0000 C   0  0  0  0  0  0  0  0  0  0  0  0
    3.4651   -4.0063    0.0000 C   0  0  0  0  0  0  0  0  0  0  0  0
    4.3318   -4.5050    0.0000 Cl  0  0  0  0  0  0  0  0  0  0  0  0
    3.4665   -3.0063    0.0000 C   0  0  0  0  0  0  0  0  0  0  0  0
    2.5952   -2.5050    0.0000 C   0  0  0  0  0  0  0  0  0  0  0  0
    2.5966   -1.5050    0.0000 N   0  0  0  0  0  0  0  0  0  0  0  0
    1.7313   -1.0038    0.0000 C   0  0  0  0  0  0  0  0  0  0  0  0
    0.8646   -1.5025    0.0000 O   0  0  0  0  0  0  0  0  0  0  0  0
    1.7328   -0.0038    0.0000 N   0  0  0  0  0  0  0  0  0  0  0  0
    0.8675    0.4975    0.0000 C   0  0  0  0  0  0  0  0  0  0  0  0
    0.0000    0.0000    0.0000 C   0  0  0  0  0  0  0  0  0  0  0  0
   -0.8675    0.4975    0.0000 C   0  0  0  0  0  0  0  0  0  0  0  0
   -0.8675    1.5027    0.0000 C   0  0  0  0  0  0  0  0  0  0  0  0
    0.0000    2.0104    0.0000 N   0  0  0  0  0  0  0  0  0  0  0  0
    0.8675    1.5027    0.0000 C   0  0  0  0  0  0  0  0  0  0  0  0
    1.7225   -3.0037    0.0000 C   0  0  0  0  0  0  0  0  0  0  0  0
  1  2  1  0  0  0  0
  2 18  2  0  0  0  0
  2  3  1  0  0  0  0
  3  4  2  0  0  0  0
  4  5  1  0  0  0  0
  4  6  1  0  0  0  0
  6  7  2  0  0  0  0
  7  8  1  0  0  0  0
  8  9  1  0  0  0  0
  9 10  2  0  0  0  0
  9 11  1  0  0  0  0
 11 12  1  0  0  0  0
 12 17  2  0  0  0  0
 12 13  1  0  0  0  0
 13 14  2  0  0  0  0
 14 15  1  0  0  0  0
 15 16  2  0  0  0  0
 16 17  1  0  0  0  0
  7 18  1  0  0  0  0
M  END
$$$$
WAR-XCH-eb7-6
  -OEChem-03222016562D

 17 18  0     0  0  0  0  0  0999 V2000
    0.8662   -4.5127    0.0000 C   0  0  0  0  0  0  0  0  0  0  0  0
    1.7299   -4.0089    0.0000 C   0  0  0  0  0  0  0  0  0  0  0  0
    2.6012   -4.5102    0.0000 C   0  0  0  0  0  0  0  0  0  0  0  0
    3.4651   -4.0063    0.0000 C   0  0  0  0  0  0  0  0  0  0  0  0
    3.4665   -3.0063    0.0000 C   0  0  0  0  0  0  0  0  0  0  0  0
    2.5952   -2.5050    0.0000 C   0  0  0  0  0  0  0  0  0  0  0  0
    2.5966   -1.5050    0.0000 N   0  0  0  0  0  0  0  0  0  0  0  0
    1.7313   -1.0038    0.0000 C   0  0  0  0  0  0  0  0  0  0  0  0
    0.8646   -1.5025    0.0000 O   0  0  0  0  0  0  0  0  0  0  0  0
    1.7328   -0.0038    0.0000 N   0  0  0  0  0  0  0  0  0  0  0  0
    0.8675    0.4975    0.0000 C   0  0  0  0  0  0  0  0  0  0  0  0
    0.0000    0.0000    0.0000 C   0  0  0  0  0  0  0  0  0  0  0  0
   -0.8675    0.4975    0.0000 C   0  0  0  0  0  0  0  0  0  0  0  0
   -0.8675    1.5027    0.0000 C   0  0  0  0  0  0  0  0  0  0  0  0
    0.0000    2.0104    0.0000 N   0  0  0  0  0  0  0  0  0  0  0  0
    0.8675    1.5027    0.0000 C   0  0  0  0  0  0  0  0  0  0  0  0
    1.7225   -3.0037    0.0000 C   0  0  0  0  0  0  0  0  0  0  0  0
  1  2  1  0  0  0  0
  2 17  2  0  0  0  0
  2  3  1  0  0  0  0
  3  4  2  0  0  0  0
  4  5  1  0  0  0  0
  5  6  2  0  0  0  0
  6  7  1  0  0  0  0
  7  8  1  0  0  0  0
  8  9  2  0  0  0  0
  8 10  1  0  0  0  0
 10 11  1  0  0  0  0
 11 16  2  0  0  0  0
 11 12  1  0  0  0  0
 12 13  2  0  0  0  0
 13 14  1  0  0  0  0
 14 15  2  0  0  0  0
 15 16  1  0  0  0  0
  6 17  1  0  0  0  0
M  END
$$$$
WAR-XCH-eb7-7
  -OEChem-03222016562D

 17 18  0     0  0  0  0  0  0999 V2000
    0.8646   -1.5025    0.0000 O   0  0  0  0  0  0  0  0  0  0  0  0
    1.7313   -1.0038    0.0000 C   0  0  0  0  0  0  0  0  0  0  0  0
    1.7328   -0.0038    0.0000 N   0  0  0  0  0  0  0  0  0  0  0  0
    0.8675    0.4975    0.0000 C   0  0  0  0  0  0  0  0  0  0  0  0
    0.0000    0.0000    0.0000 C   0  0  0  0  0  0  0  0  0  0  0  0
   -0.8675    0.4975    0.0000 C   0  0  0  0  0  0  0  0  0  0  0  0
   -0.8675    1.5027    0.0000 C   0  0  0  0  0  0  0  0  0  0  0  0
    0.0000    2.0104    0.0000 N   0  0  0  0  0  0  0  0  0  0  0  0
    0.8675    1.5027    0.0000 C   0  0  0  0  0  0  0  0  0  0  0  0
    2.5966   -1.5050    0.0000 N   0  0  0  0  0  0  0  0  0  0  0  0
    2.5952   -2.5050    0.0000 C   0  0  0  0  0  0  0  0  0  0  0  0
    1.7225   -3.0038    0.0000 C   0  0  0  0  0  0  0  0  0  0  0  0
    1.7210   -4.0038    0.0000 C   0  0  0  0  0  0  0  0  0  0  0  0
    2.5833   -4.5101    0.0000 C   0  0  0  0  0  0  0  0  0  0  0  0
    3.4561   -4.0114    0.0000 C   0  0  0  0  0  0  0  0  0  0  0  0
    4.3184   -4.5177    0.0000 Cl  0  0  0  0  0  0  0  0  0  0  0  0
    3.4664   -3.0063    0.0000 C   0  0  0  0  0  0  0  0  0  0  0  0
  1  2  2  0  0  0  0
  2  3  1  0  0  0  0
  3  4  1  0  0  0  0
  4  9  2  0  0  0  0
  4  5  1  0  0  0  0
  5  6  2  0  0  0  0
  6  7  1  0  0  0  0
  7  8  2  0  0  0  0
  8  9  1  0  0  0  0
  2 10  1  0  0  0  0
 10 11  1  0  0  0  0
 11 17  2  0  0  0  0
 11 12  1  0  0  0  0
 12 13  2  0  0  0  0
 13 14  1  0  0  0  0
 14 15  2  0  0  0  0
 15 16  1  0  0  0  0
 15 17  1  0  0  0  0
M  END
$$$$
CHR-SOS-e96-1
  -OEChem-03222016562D

 26 28  0     0  0  0  0  0  0999 V2000
    2.6010    1.4950    0.0000 O   0  0  0  0  0  0  0  0  0  0  0  0
    2.5995    0.4950    0.0000 C   0  0  0  0  0  0  0  0  0  0  0  0
    3.4648   -0.0063    0.0000 C   0  0  0  0  0  0  0  0  0  0  0  0
    4.3316    0.4925    0.0000 C   0  0  0  0  0  0  0  0  0  0  0  0
    5.3225    0.6617    0.0000 C   0  0  0  0  0  0  0  0  0  0  0  0
    5.6668    1.6006    0.0000 C   0  0  0  0  0  0  0  0  0  0  0  0
    5.0304    2.3719    0.0000 C   0  0  0  0  0  0  0  0  0  0  0  0
    4.0395    2.2027    0.0000 C   0  0  0  0  0  0  0  0  0  0  0  0
    3.6851    1.2621    0.0000 C   0  0  0  0  0  0  0  0  0  0  0  0
    4.6704   -0.4484    0.0000 C   0  0  0  0  0  0  0  0  0  0  0  0
    5.6603   -0.6234    0.0000 C   0  0  0  0  0  0  0  0  0  0  0  0
    5.9991   -1.5643    0.0000 C   0  0  0  0  0  0  0  0  0  0  0  0
    5.3582   -2.3319    0.0000 C   0  0  0  0  0  0  0  0  0  0  0  0
    4.3683   -2.1569    0.0000 C   0  0  0  0  0  0  0  0  0  0  0  0
    3.7274   -2.9245    0.0000 S   0  0  0  0  0  0  0  0  0  0  0  0
    2.9598   -2.2836    0.0000 O   0  0  0  0  0  0  0  0  0  0  0  0
    3.0866   -3.6922    0.0000 N   0  0  0  0  0  0  0  0  0  0  0  0
    4.4951   -3.5654    0.0000 O   0  0  0  0  0  0  0  0  0  0  0  0
    4.0194   -1.2142    0.0000 C   0  0  0  0  0  0  0  0  0  0  0  0
    1.7328   -0.0038    0.0000 N   0  0  0  0  0  0  0  0  0  0  0  0
    0.8675    0.4975    0.0000 C   0  0  0  0  0  0  0  0  0  0  0  0
    0.0000    0.0000    0.0000 C   0  0  0  0  0  0  0  0  0  0  0  0
   -0.8675    0.4975    0.0000 C   0  0  0  0  0  0  0  0  0  0  0  0
   -0.8675    1.5027    0.0000 C   0  0  0  0  0  0  0  0  0  0  0  0
    0.0000    2.0104    0.0000 N   0  0  0  0  0  0  0  0  0  0  0  0
    0.8675    1.5027    0.0000 C   0  0  0  0  0  0  0  0  0  0  0  0
  1  2  2  0  0  0  0
  2  3  1  0  0  0  0
  3  4  1  0  0  0  0
  4  9  1  0  0  0  0
  4  5  1  0  0  0  0
  5  6  1  0  0  0  0
  6  7  1  0  0  0  0
  7  8  1  0  0  0  0
  8  9  1  0  0  0  0
  4 10  1  0  0  0  0
 10 19  1  0  0  0  0
 10 11  2  0  0  0  0
 11 12  1  0  0  0  0
 12 13  2  0  0  0  0
 13 14  1  0  0  0  0
 14 15  1  0  0  0  0
 15 16  2  0  0  0  0
 15 17  1  0  0  0  0
 15 18  2  0  0  0  0
 14 19  2  0  0  0  0
  2 20  1  0  0  0  0
 20 21  1  0  0  0  0
 21 26  1  0  0  0  0
 21 22  2  0  0  0  0
 22 23  1  0  0  0  0
 23 24  2  0  0  0  0
 24 25  1  0  0  0  0
 25 26  2  0  0  0  0
M  END
$$$$
CHR-SOS-e96-2
  -OEChem-03222016562D

 25 27  0     0  0  0  0  0  0999 V2000
    2.6010    1.4950    0.0000 O   0  0  0  0  0  0  0  0  0  0  0  0
    2.5995    0.4950    0.0000 C   0  0  0  0  0  0  0  0  0  0  0  0
    3.4648   -0.0063    0.0000 C   0  0  0  0  0  0  0  0  0  0  0  0
    4.3316    0.4925    0.0000 C   0  0  0  0  0  0  0  0  0  0  0  0
    5.2843    0.8018    0.0000 C   0  0  0  0  0  0  0  0  0  0  0  0
    5.2867    1.8032    0.0000 C   0  0  0  0  0  0  0  0  0  0  0  0
    4.3356    2.1121    0.0000 C   0  0  0  0  0  0  0  0  0  0  0  0
    3.7429    1.3063    0.0000 C   0  0  0  0  0  0  0  0  0  0  0  0
    4.7376   -0.4214    0.0000 C   0  0  0  0  0  0  0  0  0  0  0  0
    5.7375   -0.5243    0.0000 C   0  0  0  0  0  0  0  0  0  0  0  0
    6.1436   -1.4382    0.0000 C   0  0  0  0  0  0  0  0  0  0  0  0
    5.5598   -2.2502    0.0000 C   0  0  0  0  0  0  0  0  0  0  0  0
    4.5599   -2.1473    0.0000 C   0  0  0  0  0  0  0  0  0  0  0  0
    3.9763   -2.9593    0.0000 S   0  0  0  0  0  0  0  0  0  0  0  0
    3.1643   -2.3756    0.0000 O   0  0  0  0  0  0  0  0  0  0  0  0
    3.3926   -3.7713    0.0000 N   0  0  0  0  0  0  0  0  0  0  0  0
    4.7883   -3.5429    0.0000 O   0  0  0  0  0  0  0  0  0  0  0  0
    4.1437   -1.2324    0.0000 C   0  0  0  0  0  0  0  0  0  0  0  0
    1.7328   -0.0038    0.0000 N   0  0  0  0  0  0  0  0  0  0  0  0
    0.8675    0.4975    0.0000 C   0  0  0  0  0  0  0  0  0  0  0  0
    0.0000    0.0000    0.0000 C   0  0  0  0  0  0  0  0  0  0  0  0
   -0.8675    0.4975    0.0000 C   0  0  0  0  0  0  0  0  0  0  0  0
   -0.8675    1.5027    0.0000 C   0  0  0  0  0  0  0  0  0  0  0  0
    0.0000    2.0104    0.0000 N   0  0  0  0  0  0  0  0  0  0  0  0
    0.8675    1.5027    0.0000 C   0  0  0  0  0  0  0  0  0  0  0  0
  1  2  2  0  0  0  0
  2  3  1  0  0  0  0
  3  4  1  0  0  0  0
  4  8  1  0  0  0  0
  4  5  1  0  0  0  0
  5  6  1  0  0  0  0
  6  7  1  0  0  0  0
  7  8  1  0  0  0  0
  4  9  1  0  0  0  0
  9 18  1  0  0  0  0
  9 10  2  0  0  0  0
 10 11  1  0  0  0  0
 11 12  2  0  0  0  0
 12 13  1  0  0  0  0
 13 14  1  0  0  0  0
 14 15  2  0  0  0  0
 14 16  1  0  0  0  0
 14 17  2  0  0  0  0
 13 18  2  0  0  0  0
  2 19  1  0  0  0  0
 19 20  1  0  0  0  0
 20 25  1  0  0  0  0
 20 21  2  0  0  0  0
 21 22  1  0  0  0  0
 22 23  2  0  0  0  0
 23 24  1  0  0  0  0
 24 25  2  0  0  0  0
M  END
$$$$
CHR-SOS-e96-3
  -OEChem-03222016562D

 24 26  0     0  0  0  0  0  0999 V2000
    2.6010    1.4950    0.0000 O   0  0  0  0  0  0  0  0  0  0  0  0
    2.5995    0.4950    0.0000 C   0  0  0  0  0  0  0  0  0  0  0  0
    3.4648   -0.0063    0.0000 C   0  0  0  0  0  0  0  0  0  0  0  0
    4.3316    0.4925    0.0000 C   0  0  0  0  0  0  0  0  0  0  0  0
    3.8329    1.3592    0.0000 C   0  0  0  0  0  0  0  0  0  0  0  0
    4.6996    1.8580    0.0000 C   0  0  0  0  0  0  0  0  0  0  0  0
    5.1983    0.9912    0.0000 C   0  0  0  0  0  0  0  0  0  0  0  0
    4.8303   -0.3743    0.0000 C   0  0  0  0  0  0  0  0  0  0  0  0
    5.8355   -0.3728    0.0000 C   0  0  0  0  0  0  0  0  0  0  0  0
    6.3343   -1.2395    0.0000 C   0  0  0  0  0  0  0  0  0  0  0  0
    5.8381   -2.1078    0.0000 C   0  0  0  0  0  0  0  0  0  0  0  0
    4.8329   -2.1093    0.0000 C   0  0  0  0  0  0  0  0  0  0  0  0
    4.3368   -2.9775    0.0000 S   0  0  0  0  0  0  0  0  0  0  0  0
    3.4686   -2.4814    0.0000 O   0  0  0  0  0  0  0  0  0  0  0  0
    3.8407   -3.8458    0.0000 N   0  0  0  0  0  0  0  0  0  0  0  0
    5.2050   -3.4737    0.0000 O   0  0  0  0  0  0  0  0  0  0  0  0
    4.3239   -1.2425    0.0000 C   0  0  0  0  0  0  0  0  0  0  0  0
    1.7328   -0.0038    0.0000 N   0  0  0  0  0  0  0  0  0  0  0  0
    0.8675    0.4975    0.0000 C   0  0  0  0  0  0  0  0  0  0  0  0
    0.0000    0.0000    0.0000 C   0  0  0  0  0  0  0  0  0  0  0  0
   -0.8675    0.4975    0.0000 C   0  0  0  0  0  0  0  0  0  0  0  0
   -0.8675    1.5027    0.0000 C   0  0  0  0  0  0  0  0  0  0  0  0
    0.0000    2.0104    0.0000 N   0  0  0  0  0  0  0  0  0  0  0  0
    0.8675    1.5027    0.0000 C   0  0  0  0  0  0  0  0  0  0  0  0
  1  2  2  0  0  0  0
  2  3  1  0  0  0  0
  3  4  1  0  0  0  0
  4  7  1  0  0  0  0
  4  5  1  0  0  0  0
  5  6  1  0  0  0  0
  6  7  1  0  0  0  0
  4  8  1  0  0  0  0
  8 17  1  0  0  0  0
  8  9  2  0  0  0  0
  9 10  1  0  0  0  0
 10 11  2  0  0  0  0
 11 12  1  0  0  0  0
 12 13  1  0  0  0  0
 13 14  2  0  0  0  0
 13 15  1  0  0  0  0
 13 16  2  0  0  0  0
 12 17  2  0  0  0  0
  2 18  1  0  0  0  0
 18 19  1  0  0  0  0
 19 24  1  0  0  0  0
 19 20  2  0  0  0  0
 20 21  1  0  0  0  0
 21 22  2  0  0  0  0
 22 23  1  0  0  0  0
 23 24  2  0  0  0  0
M  END
$$$$
CHR-SOS-e96-4
  -OEChem-03222016562D

 27 29  0     0  0  0  0  0  0999 V2000
    2.6010    1.4950    0.0000 O   0  0  0  0  0  0  0  0  0  0  0  0
    2.5995    0.4950    0.0000 C   0  0  0  0  0  0  0  0  0  0  0  0
    3.4648   -0.0063    0.0000 C   0  0  0  0  0  0  0  0  0  0  0  0
    4.3316    0.4925    0.0000 C   0  0  0  0  0  0  0  0  0  0  0  0
    5.3225    0.6617    0.0000 C   0  0  0  0  0  0  0  0  0  0  0  0
    5.6668    1.6006    0.0000 C   0  0  0  0  0  0  0  0  0  0  0  0
    5.0304    2.3719    0.0000 C   0  0  0  0  0  0  0  0  0  0  0  0
    4.0395    2.2027    0.0000 C   0  0  0  0  0  0  0  0  0  0  0  0
    3.6851    1.2621    0.0000 C   0  0  0  0  0  0  0  0  0  0  0  0
    4.6704   -0.4484    0.0000 C   0  0  0  0  0  0  0  0  0  0  0  0
    5.6603   -0.6234    0.0000 C   0  0  0  0  0  0  0  0  0  0  0  0
    5.9991   -1.5643    0.0000 C   0  0  0  0  0  0  0  0  0  0  0  0
    5.3582   -2.3319    0.0000 C   0  0  0  0  0  0  0  0  0  0  0  0
    4.3683   -2.1569    0.0000 C   0  0  0  0  0  0  0  0  0  0  0  0
    3.7274   -2.9245    0.0000 S   0  0  0  0  0  0  0  0  0  0  0  0
    2.9598   -2.2836    0.0000 O   0  0  0  0  0  0  0  0  0  0  0  0
    3.0866   -3.6922    0.0000 N   0  0  0  0  0  0  0  0  0  0  0  0
    4.4951   -3.5654    0.0000 O   0  0  0  0  0  0  0  0  0  0  0  0
    4.0194   -1.2142    0.0000 C   0  0  0  0  0  0  0  0  0  0  0  0
    1.7328   -0.0038    0.0000 N   0  0  0  0  0  0  0  0  0  0  0  0
    0.8675    0.4975    0.0000 C   0  0  0  0  0  0  0  0  0  0  0  0
    0.0000    0.0000    0.0000 C   0  0  0  0  0  0  0  0  0  0  0  0
   -0.0000   -1.0000    0.0000 C   0  0  0  0  0  0  0  0  0  0  0  0
   -0.8675    0.4975    0.0000 C   0  0  0  0  0  0  0  0  0  0  0  0
   -0.8675    1.5027    0.0000 C   0  0  0  0  0  0  0  0  0  0  0  0
    0.0000    2.0104    0.0000 N   0  0  0  0  0  0  0  0  0  0  0  0
    0.8675    1.5027    0.0000 C   0  0  0  0  0  0  0  0  0  0  0  0
  1  2  2  0  0  0  0
  2  3  1  0  0  0  0
  3  4  1  0  0  0  0
  4  9  1  0  0  0  0
  4  5  1  0  0  0  0
  5  6  1  0  0  0  0
  6  7  1  0  0  0  0
  7  8  1  0  0  0  0
  8  9  1  0  0  0  0
  4 10  1  0  0  0  0
 10 19  1  0  0  0  0
 10 11  2  0  0  0  0
 11 12  1  0  0  0  0
 12 13  2  0  0  0  0
 13 14  1  0  0  0  0
 14 15  1  0  0  0  0
 15 16  2  0  0  0  0
 15 17  1  0  0  0  0
 15 18  2  0  0  0  0
 14 19  2  0  0  0  0
  2 20  1  0  0  0  0
 20 21  1  0  0  0  0
 21 27  1  0  0  0  0
 21 22  2  0  0  0  0
 22 23  1  0  0  0  0
 22 24  1  0  0  0  0
 24 25  2  0  0  0  0
 25 26  1  0  0  0  0
 26 27  2  0  0  0  0
M  END
$$$$
CHR-SOS-e96-5
  -OEChem-03222016562D

 26 28  0     0  0  0  0  0  0999 V2000
    2.6010    1.4950    0.0000 O   0  0  0  0  0  0  0  0  0  0  0  0
    2.5995    0.4950    0.0000 C   0  0  0  0  0  0  0  0  0  0  0  0
    3.4648   -0.0063    0.0000 C   0  0  0  0  0  0  0  0  0  0  0  0
    4.3316    0.4925    0.0000 C   0  0  0  0  0  0  0  0  0  0  0  0
    5.2843    0.8018    0.0000 C   0  0  0  0  0  0  0  0  0  0  0  0
    5.2867    1.8032    0.0000 C   0  0  0  0  0  0  0  0  0  0  0  0
    4.3356    2.1121    0.0000 C   0  0  0  0  0  0  0  0  0  0  0  0
    3.7429    1.3063    0.0000 C   0  0  0  0  0  0  0  0  0  0  0  0
    4.7376   -0.4214    0.0000 C   0  0  0  0  0  0  0  0  0  0  0  0
    5.7375   -0.5243    0.0000 C   0  0  0  0  0  0  0  0  0  0  0  0
    6.1436   -1.4382    0.0000 C   0  0  0  0  0  0  0  0  0  0  0  0
    5.5598   -2.2502    0.0000 C   0  0  0  0  0  0  0  0  0  0  0  0
    4.5599   -2.1473    0.0000 C   0  0  0  0  0  0  0  0  0  0  0  0
    3.9763   -2.9593    0.0000 S   0  0  0  0  0  0  0  0  0  0  0  0
    3.1643   -2.3756    0.0000 O   0  0  0  0  0  0  0  0  0  0  0  0
    3.3926   -3.7713    0.0000 N   0  0  0  0  0  0  0  0  0  0  0  0
    4.7883   -3.5429    0.0000 O   0  0  0  0  0  0  0  0  0  0  0  0
    4.1437   -1.2324    0.0000 C   0  0  0  0  0  0  0  0  0  0  0  0
    1.7328   -0.0038    0.0000 N   0  0  0  0  0  0  0  0  0  0  0  0
    0.8675    0.4975    0.0000 C   0  0  0  0  0  0  0  0  0  0  0  0
    0.0000    0.0000    0.0000 C   0  0  0  0  0  0  0  0  0  0  0  0
   -0.0000   -1.0000    0.0000 C   0  0  0  0  0  0  0  0  0  0  0  0
   -0.8675    0.4975    0.0000 C   0  0  0  0  0  0  0  0  0  0  0  0
   -0.8675    1.5027    0.0000 C   0  0  0  0  0  0  0  0  0  0  0  0
    0.0000    2.0104    0.0000 N   0  0  0  0  0  0  0  0  0  0  0  0
    0.8675    1.5027    0.0000 C   0  0  0  0  0  0  0  0  0  0  0  0
  1  2  2  0  0  0  0
  2  3  1  0  0  0  0
  3  4  1  0  0  0  0
  4  8  1  0  0  0  0
  4  5  1  0  0  0  0
  5  6  1  0  0  0  0
  6  7  1  0  0  0  0
  7  8  1  0  0  0  0
  4  9  1  0  0  0  0
  9 18  1  0  0  0  0
  9 10  2  0  0  0  0
 10 11  1  0  0  0  0
 11 12  2  0  0  0  0
 12 13  1  0  0  0  0
 13 14  1  0  0  0  0
 14 15  2  0  0  0  0
 14 16  1  0  0  0  0
 14 17  2  0  0  0  0
 13 18  2  0  0  0  0
  2 19  1  0  0  0  0
 19 20  1  0  0  0  0
 20 26  1  0  0  0  0
 20 21  2  0  0  0  0
 21 22  1  0  0  0  0
 21 23  1  0  0  0  0
 23 24  2  0  0  0  0
 24 25  1  0  0  0  0
 25 26  2  0  0  0  0
M  END
$$$$
CHR-SOS-e96-6
  -OEChem-03222016562D

 25 27  0     0  0  0  0  0  0999 V2000
    2.6010    1.4950    0.0000 O   0  0  0  0  0  0  0  0  0  0  0  0
    2.5995    0.4950    0.0000 C   0  0  0  0  0  0  0  0  0  0  0  0
    3.4648   -0.0063    0.0000 C   0  0  0  0  0  0  0  0  0  0  0  0
    4.3316    0.4925    0.0000 C   0  0  0  0  0  0  0  0  0  0  0  0
    3.8329    1.3592    0.0000 C   0  0  0  0  0  0  0  0  0  0  0  0
    4.6996    1.8580    0.0000 C   0  0  0  0  0  0  0  0  0  0  0  0
    5.1983    0.9912    0.0000 C   0  0  0  0  0  0  0  0  0  0  0  0
    4.8303   -0.3743    0.0000 C   0  0  0  0  0  0  0  0  0  0  0  0
    5.8355   -0.3728    0.0000 C   0  0  0  0  0  0  0  0  0  0  0  0
    6.3343   -1.2395    0.0000 C   0  0  0  0  0  0  0  0  0  0  0  0
    5.8381   -2.1078    0.0000 C   0  0  0  0  0  0  0  0  0  0  0  0
    4.8329   -2.1093    0.0000 C   0  0  0  0  0  0  0  0  0  0  0  0
    4.3368   -2.9775    0.0000 S   0  0  0  0  0  0  0  0  0  0  0  0
    3.4686   -2.4814    0.0000 O   0  0  0  0  0  0  0  0  0  0  0  0
    3.8407   -3.8458    0.0000 N   0  0  0  0  0  0  0  0  0  0  0  0
    5.2050   -3.4737    0.0000 O   0  0  0  0  0  0  0  0  0  0  0  0
    4.3239   -1.2425    0.0000 C   0  0  0  0  0  0  0  0  0  0  0  0
    1.7328   -0.0038    0.0000 N   0  0  0  0  0  0  0  0  0  0  0  0
    0.8675    0.4975    0.0000 C   0  0  0  0  0  0  0  0  0  0  0  0
    0.0000    0.0000    0.0000 C   0  0  0  0  0  0  0  0  0  0  0  0
   -0.0000   -1.0000    0.0000 C   0  0  0  0  0  0  0  0  0  0  0  0
   -0.8675    0.4975    0.0000 C   0  0  0  0  0  0  0  0  0  0  0  0
   -0.8675    1.5027    0.0000 C   0  0  0  0  0  0  0  0  0  0  0  0
    0.0000    2.0104    0.0000 N   0  0  0  0  0  0  0  0  0  0  0  0
    0.8675    1.5027    0.0000 C   0  0  0  0  0  0  0  0  0  0  0  0
  1  2  2  0  0  0  0
  2  3  1  0  0  0  0
  3  4  1  0  0  0  0
  4  7  1  0  0  0  0
  4  5  1  0  0  0  0
  5  6  1  0  0  0  0
  6  7  1  0  0  0  0
  4  8  1  0  0  0  0
  8 17  1  0  0  0  0
  8  9  2  0  0  0  0
  9 10  1  0  0  0  0
 10 11  2  0  0  0  0
 11 12  1  0  0  0  0
 12 13  1  0  0  0  0
 13 14  2  0  0  0  0
 13 15  1  0  0  0  0
 13 16  2  0  0  0  0
 12 17  2  0  0  0  0
  2 18  1  0  0  0  0
 18 19  1  0  0  0  0
 19 25  1  0  0  0  0
 19 20  2  0  0  0  0
 20 21  1  0  0  0  0
 20 22  1  0  0  0  0
 22 23  2  0  0  0  0
 23 24  1  0  0  0  0
 24 25  2  0  0  0  0
M  END
$$$$
ELE-IMP-dfb-1
  -OEChem-03222016562D

 23 24  0     0  0  0  0  0  0999 V2000
    5.5770   -3.5816    0.0000 C   0  0  0  0  0  0  0  0  0  0  0  0
    5.2680   -2.6306    0.0000 C   0  0  0  0  0  0  0  0  0  0  0  0
    4.2899   -2.4226    0.0000 N   0  0  0  0  0  0  0  0  0  0  0  0
    3.9809   -1.4715    0.0000 C   0  0  0  0  0  0  0  0  0  0  0  0
    3.0028   -1.2636    0.0000 C   0  0  0  0  0  0  0  0  0  0  0  0
    2.6938   -0.3125    0.0000 C   0  0  0  0  0  0  0  0  0  0  0  0
    3.2858    0.5023    0.0000 C   0  0  0  0  0  0  0  0  0  0  0  0
    2.6938    1.3169    0.0000 N   0  0  0  0  0  0  0  0  0  0  0  0
    1.7360    1.0058    0.0000 C   0  0  0  0  0  0  0  0  0  0  0  0
    1.7360   -0.0012    0.0000 C   0  0  0  0  0  0  0  0  0  0  0  0
    0.8680   -0.4978    0.0000 C   0  0  0  0  0  0  0  0  0  0  0  0
    0.0000    0.0000    0.0000 C   0  0  0  0  0  0  0  0  0  0  0  0
   -0.8653   -0.5013    0.0000 F   0  0  0  0  0  0  0  0  0  0  0  0
   -0.0000    1.0058    0.0000 C   0  0  0  0  0  0  0  0  0  0  0  0
    0.8680    1.5138    0.0000 C   0  0  0  0  0  0  0  0  0  0  0  0
    0.8680    2.5138    0.0000 C   0  0  0  0  0  0  0  0  0  0  0  0
    0.0020    3.0138    0.0000 C   0  0  0  0  0  0  0  0  0  0  0  0
    0.0020    4.0138    0.0000 N   0  0  0  0  0  0  0  0  0  0  0  0
   -0.8641    4.5138    0.0000 S   0  0  0  0  0  0  0  0  0  0  0  0
   -1.7301    5.0138    0.0000 C   0  0  0  0  0  0  0  0  0  0  0  0
   -1.3641    3.6478    0.0000 O   0  0  0  0  0  0  0  0  0  0  0  0
   -0.3641    5.3798    0.0000 O   0  0  0  0  0  0  0  0  0  0  0  0
    5.9372   -1.8874    0.0000 O   0  0  0  0  0  0  0  0  0  0  0  0
  1  2  1  0  0  0  0
  2  3  1  0  0  0  0
  3  4  1  0  0  0  0
  4  5  1  0  0  0  0
  5  6  1  0  0  0  0
  6 10  1  0  0  0  0
  6  7  2  0  0  0  0
  7  8  1  0  0  0  0
  8  9  1  0  0  0  0
  9 15  2  0  0  0  0
  9 10  1  0  0  0  0
 10 11  2  0  0  0  0
 11 12  1  0  0  0  0
 12 13  1  0  0  0  0
 12 14  2  0  0  0  0
 14 15  1  0  0  0  0
 15 16  1  0  0  0  0
 16 17  1  0  0  0  0
 17 18  1  0  0  0  0
 18 19  1  0  0  0  0
 19 20  1  0  0  0  0
 19 21  2  0  0  0  0
 19 22  2  0  0  0  0
  2 23  2  0  0  0  0
M  END
$$$$
ELE-IMP-dfb-2
  -OEChem-03222016562D

 22 23  0     0  0  0  0  0  0999 V2000
    5.5770   -3.5816    0.0000 C   0  0  0  0  0  0  0  0  0  0  0  0
    5.2680   -2.6306    0.0000 C   0  0  0  0  0  0  0  0  0  0  0  0
    5.9372   -1.8874    0.0000 O   0  0  0  0  0  0  0  0  0  0  0  0
    4.2899   -2.4226    0.0000 N   0  0  0  0  0  0  0  0  0  0  0  0
    3.9809   -1.4715    0.0000 C   0  0  0  0  0  0  0  0  0  0  0  0
    3.0028   -1.2636    0.0000 C   0  0  0  0  0  0  0  0  0  0  0  0
    2.6938   -0.3125    0.0000 C   0  0  0  0  0  0  0  0  0  0  0  0
    1.7360   -0.0012    0.0000 C   0  0  0  0  0  0  0  0  0  0  0  0
    0.8680   -0.4978    0.0000 C   0  0  0  0  0  0  0  0  0  0  0  0
    0.0000    0.0000    0.0000 C   0  0  0  0  0  0  0  0  0  0  0  0
    0.0000    1.0058    0.0000 C   0  0  0  0  0  0  0  0  0  0  0  0
    0.8680    1.5138    0.0000 C   0  0  0  0  0  0  0  0  0  0  0  0
    1.7360    1.0058    0.0000 C   0  0  0  0  0  0  0  0  0  0  0  0
    2.6938    1.3169    0.0000 N   0  0  0  0  0  0  0  0  0  0  0  0
    3.2858    0.5023    0.0000 C   0  0  0  0  0  0  0  0  0  0  0  0
    0.8680    2.5138    0.0000 C   0  0  0  0  0  0  0  0  0  0  0  0
    0.0020    3.0138    0.0000 C   0  0  0  0  0  0  0  0  0  0  0  0
    0.0020    4.0138    0.0000 N   0  0  0  0  0  0  0  0  0  0  0  0
   -0.8640    4.5138    0.0000 S   0  0  0  0  0  0  0  0  0  0  0  0
   -1.3640    3.6478    0.0000 O   0  0  0  0  0  0  0  0  0  0  0  0
   -0.3640    5.3798    0.0000 O   0  0  0  0  0  0  0  0  0  0  0  0
   -1.7301    5.0138    0.0000 C   0  0  0  0  0  0  0  0  0  0  0  0
  1  2  1  0  0  0  0
  2  3  2  0  0  0  0
  2  4  1  0  0  0  0
  4  5  1  0  0  0  0
  5  6  1  0  0  0  0
  6  7  1  0  0  0  0
  7 15  2  0  0  0  0
  7  8  1  0  0  0  0
  8 13  2  0  0  0  0
  8  9  1  0  0  0  0
  9 10  2  0  0  0  0
 10 11  1  0  0  0  0
 11 12  2  0  0  0  0
 12 13  1  0  0  0  0
 13 14  1  0  0  0  0
 14 15  1  0  0  0  0
 12 16  1  0  0  0  0
 16 17  1  0  0  0  0
 17 18  1  0  0  0  0
 18 19  1  0  0  0  0
 19 20  2  0  0  0  0
 19 21  2  0  0  0  0
 19 22  1  0  0  0  0
M  END
$$$$
ELE-IMP-dfb-3
  -OEChem-03222016562D

 23 25  0     0  0  0  0  0  0999 V2000
    6.2682    0.4288    0.0000 C   0  0  0  0  0  0  0  0  0  0  0  0
    5.5979    1.1709    0.0000 C   0  0  0  0  0  0  0  0  0  0  0  0
    5.9055    2.1225    0.0000 O   0  0  0  0  0  0  0  0  0  0  0  0
    4.6201    0.9615    0.0000 N   0  0  0  0  0  0  0  0  0  0  0  0
    4.3095    0.0013    0.0000 C   0  0  0  0  0  0  0  0  0  0  0  0
    3.3258   -0.2052    0.0000 C   0  0  0  0  0  0  0  0  0  0  0  0
    2.6563    0.5419    0.0000 C   0  0  0  0  0  0  0  0  0  0  0  0
    1.6513    0.5386    0.0000 C   0  0  0  0  0  0  0  0  0  0  0  0
    0.9816   -0.2059    0.0000 C   0  0  0  0  0  0  0  0  0  0  0  0
    0.0000    0.0000    0.0000 C   0  0  0  0  0  0  0  0  0  0  0  0
   -0.3143    0.9606    0.0000 C   0  0  0  0  0  0  0  0  0  0  0  0
    0.3605    1.7075    0.0000 C   0  0  0  0  0  0  0  0  0  0  0  0
    1.3429    1.4971    0.0000 C   0  0  0  0  0  0  0  0  0  0  0  0
    2.1552    2.0893    0.0000 N   0  0  0  0  0  0  0  0  0  0  0  0
    2.9705    1.4970    0.0000 C   0  0  0  0  0  0  0  0  0  0  0  0
    3.9487    1.7045    0.0000 C   0  0  0  0  0  0  0  0  0  0  0  0
    0.0530    2.6591    0.0000 C   0  0  0  0  0  0  0  0  0  0  0  0
   -0.9248    2.8685    0.0000 C   0  0  0  0  0  0  0  0  0  0  0  0
   -1.2323    3.8201    0.0000 N   0  0  0  0  0  0  0  0  0  0  0  0
   -2.2101    4.0296    0.0000 S   0  0  0  0  0  0  0  0  0  0  0  0
   -2.4196    3.0518    0.0000 O   0  0  0  0  0  0  0  0  0  0  0  0
   -2.0006    5.0074    0.0000 O   0  0  0  0  0  0  0  0  0  0  0  0
   -3.1879    4.2391    0.0000 C   0  0  0  0  0  0  0  0  0  0  0  0
  1  2  1  0  0  0  0
  2  3  2  0  0  0  0
  2  4  1  0  0  0  0
  4 16  1  0  0  0  0
  4  5  1  0  0  0  0
  5  6  1  0  0  0  0
  6  7  1  0  0  0  0
  7 15  2  0  0  0  0
  7  8  1  0  0  0  0
  8 13  2  0  0  0  0
  8  9  1  0  0  0  0
  9 10  2  0  0  0  0
 10 11  1  0  0  0  0
 11 12  2  0  0  0  0
 12 13  1  0  0  0  0
 13 14  1  0  0  0  0
 14 15  1  0  0  0  0
 15 16  1  0  0  0  0
 12 17  1  0  0  0  0
 17 18  1  0  0  0  0
 18 19  1  0  0  0  0
 19 20  1  0  0  0  0
 20 21  2  0  0  0  0
 20 22  2  0  0  0  0
 20 23  1  0  0  0  0
M  END
$$$$
ELE-IMP-dfb-4
  -OEChem-03222016562D

 24 26  0     1  0  0  0  0  0999 V2000
    6.5758    1.3803    0.0000 C   0  0  0  0  0  0  0  0  0  0  0  0
    5.5979    1.1709    0.0000 S   0  0  0  0  0  0  0  0  0  0  0  0
    5.8073    0.1931    0.0000 O   0  0  0  0  0  0  0  0  0  0  0  0
    5.3885    2.1487    0.0000 O   0  0  0  0  0  0  0  0  0  0  0  0
    4.6201    0.9615    0.0000 N   0  0  3  0  0  0  0  0  0  0  0  0
    4.3095    0.0013    0.0000 C   0  0  0  0  0  0  0  0  0  0  0  0
    3.3258   -0.2052    0.0000 C   0  0  0  0  0  0  0  0  0  0  0  0
    2.6563    0.5419    0.0000 C   0  0  0  0  0  0  0  0  0  0  0  0
    1.6513    0.5386    0.0000 C   0  0  0  0  0  0  0  0  0  0  0  0
    0.9816   -0.2059    0.0000 C   0  0  0  0  0  0  0  0  0  0  0  0
    0.0000    0.0000    0.0000 C   0  0  0  0  0  0  0  0  0  0  0  0
   -0.3143    0.9606    0.0000 C   0  0  0  0  0  0  0  0  0  0  0  0
    0.3605    1.7075    0.0000 C   0  0  0  0  0  0  0  0  0  0  0  0
    1.3429    1.4971    0.0000 C   0  0  0  0  0  0  0  0  0  0  0  0
    2.1552    2.0893    0.0000 N   0  0  0  0  0  0  0  0  0  0  0  0
    2.9705    1.4970    0.0000 C   0  0  0  0  0  0  0  0  0  0  0  0
    3.9487    1.7045    0.0000 C   0  0  0  0  0  0  0  0  0  0  0  0
    0.0530    2.6591    0.0000 C   0  0  0  0  0  0  0  0  0  0  0  0
   -0.9248    2.8685    0.0000 C   0  0  0  0  0  0  0  0  0  0  0  0
   -1.2323    3.8201    0.0000 N   0  0  0  0  0  0  0  0  0  0  0  0
   -2.2101    4.0296    0.0000 S   0  0  0  0  0  0  0  0  0  0  0  0
   -2.4196    3.0518    0.0000 O   0  0  0  0  0  0  0  0  0  0  0  0
   -2.0006    5.0074    0.0000 O   0  0  0  0  0  0  0  0  0  0  0  0
   -3.1879    4.2391    0.0000 C   0  0  0  0  0  0  0  0  0  0  0  0
  1  2  1  0  0  0  0
  2  3  2  0  0  0  0
  2  4  2  0  0  0  0
  2  5  1  0  0  0  0
  5 17  1  0  0  0  0
  5  6  1  0  0  0  0
  6  7  1  0  0  0  0
  7  8  1  0  0  0  0
  8 16  2  0  0  0  0
  8  9  1  0  0  0  0
  9 14  2  0  0  0  0
  9 10  1  0  0  0  0
 10 11  2  0  0  0  0
 11 12  1  0  0  0  0
 12 13  2  0  0  0  0
 13 14  1  0  0  0  0
 14 15  1  0  0  0  0
 15 16  1  0  0  0  0
 16 17  1  0  0  0  0
 13 18  1  0  0  0  0
 18 19  1  0  0  0  0
 19 20  1  0  0  0  0
 20 21  1  0  0  0  0
 21 22  2  0  0  0  0
 21 23  2  0  0  0  0
 21 24  1  0  0  0  0
M  END
$$$$
ELE-IMP-dfb-5
  -OEChem-03222016562D

 23 24  0     0  0  0  0  0  0999 V2000
    1.3042   -4.4440    0.0000 C   0  0  0  0  0  0  0  0  0  0  0  0
    1.9734   -3.7009    0.0000 S   0  0  0  0  0  0  0  0  0  0  0  0
    1.2303   -3.0317    0.0000 O   0  0  0  0  0  0  0  0  0  0  0  0
    2.7165   -4.3700    0.0000 O   0  0  0  0  0  0  0  0  0  0  0  0
    2.6426   -2.9578    0.0000 N   0  0  0  0  0  0  0  0  0  0  0  0
    2.3336   -2.0067    0.0000 C   0  0  0  0  0  0  0  0  0  0  0  0
    3.0028   -1.2636    0.0000 C   0  0  0  0  0  0  0  0  0  0  0  0
    2.6938   -0.3125    0.0000 C   0  0  0  0  0  0  0  0  0  0  0  0
    1.7360   -0.0012    0.0000 C   0  0  0  0  0  0  0  0  0  0  0  0
    0.8680   -0.4978    0.0000 C   0  0  0  0  0  0  0  0  0  0  0  0
    0.0000    0.0000    0.0000 C   0  0  0  0  0  0  0  0  0  0  0  0
    0.0000    1.0058    0.0000 C   0  0  0  0  0  0  0  0  0  0  0  0
    0.8680    1.5138    0.0000 C   0  0  0  0  0  0  0  0  0  0  0  0
    1.7360    1.0058    0.0000 C   0  0  0  0  0  0  0  0  0  0  0  0
    2.6938    1.3169    0.0000 N   0  0  0  0  0  0  0  0  0  0  0  0
    3.2858    0.5023    0.0000 C   0  0  0  0  0  0  0  0  0  0  0  0
    0.8680    2.5138    0.0000 C   0  0  0  0  0  0  0  0  0  0  0  0
    0.0020    3.0138    0.0000 C   0  0  0  0  0  0  0  0  0  0  0  0
    0.0020    4.0138    0.0000 N   0  0  0  0  0  0  0  0  0  0  0  0
   -0.8640    4.5138    0.0000 S   0  0  0  0  0  0  0  0  0  0  0  0
   -1.3640    3.6478    0.0000 O   0  0  0  0  0  0  0  0  0  0  0  0
   -0.3640    5.3798    0.0000 O   0  0  0  0  0  0  0  0  0  0  0  0
   -1.7301    5.0138    0.0000 C   0  0  0  0  0  0  0  0  0  0  0  0
  1  2  1  0  0  0  0
  2  3  2  0  0  0  0
  2  4  2  0  0  0  0
  2  5  1  0  0  0  0
  5  6  1  0  0  0  0
  6  7  1  0  0  0  0
  7  8  1  0  0  0  0
  8 16  2  0  0  0  0
  8  9  1  0  0  0  0
  9 14  2  0  0  0  0
  9 10  1  0  0  0  0
 10 11  2  0  0  0  0
 11 12  1  0  0  0  0
 12 13  2  0  0  0  0
 13 14  1  0  0  0  0
 14 15  1  0  0  0  0
 15 16  1  0  0  0  0
 13 17  1  0  0  0  0
 17 18  1  0  0  0  0
 18 19  1  0  0  0  0
 19 20  1  0  0  0  0
 20 21  2  0  0  0  0
 20 22  2  0  0  0  0
 20 23  1  0  0  0  0
M  END
$$$$
ELE-IMP-dfb-6
  -OEChem-03222016562D

 14 15  0     0  0  0  0  0  0999 V2000
    4.2857    1.5024    0.0000 O   0  0  0  0  0  0  0  0  0  0  0  0
    4.2858    0.5024    0.0000 S   0  0  0  0  0  0  0  0  0  0  0  0
    4.2859   -0.4976    0.0000 O   0  0  0  0  0  0  0  0  0  0  0  0
    5.2858    0.5024    0.0000 N   0  0  0  0  0  0  0  0  0  0  0  0
    3.2858    0.5023    0.0000 C   0  0  0  0  0  0  0  0  0  0  0  0
    2.6938   -0.3125    0.0000 C   0  0  0  0  0  0  0  0  0  0  0  0
    1.7360   -0.0012    0.0000 C   0  0  0  0  0  0  0  0  0  0  0  0
    0.8680   -0.4978    0.0000 C   0  0  0  0  0  0  0  0  0  0  0  0
    0.0000    0.0000    0.0000 C   0  0  0  0  0  0  0  0  0  0  0  0
   -0.8653   -0.5013    0.0000 F   0  0  0  0  0  0  0  0  0  0  0  0
    0.0000    1.0058    0.0000 C   0  0  0  0  0  0  0  0  0  0  0  0
    0.8680    1.5138    0.0000 C   0  0  0  0  0  0  0  0  0  0  0  0
    1.7360    1.0058    0.0000 C   0  0  0  0  0  0  0  0  0  0  0  0
    2.6938    1.3169    0.0000 N   0  0  0  0  0  0  0  0  0  0  0  0
  1  2  2  0  0  0  0
  2  3  2  0  0  0  0
  2  4  1  0  0  0  0
  2  5  1  0  0  0  0
  5 14  1  0  0  0  0
  5  6  2  0  0  0  0
  6  7  1  0  0  0  0
  7 13  2  0  0  0  0
  7  8  1  0  0  0  0
  8  9  2  0  0  0  0
  9 10  1  0  0  0  0
  9 11  1  0  0  0  0
 11 12  2  0  0  0  0
 12 13  1  0  0  0  0
 13 14  1  0  0  0  0
M  END
$$$$
ANT-STE-dbb-1
  -OEChem-03222016562D

 24 26  0     0  0  0  0  0  0999 V2000
    1.7335    3.0129    0.0000 O   0  0  0  0  0  0  0  0  0  0  0  0
    0.8675    2.5129    0.0000 C   0  0  0  0  0  0  0  0  0  0  0  0
    0.8675    1.5129    0.0000 N   0  0  0  0  0  0  0  0  0  0  0  0
    0.0000    1.0052    0.0000 C   0  0  0  0  0  0  0  0  0  0  0  0
    0.0000    0.0000    0.0000 C   0  0  0  0  0  0  0  0  0  0  0  0
    0.8675   -0.4975    0.0000 N   0  0  0  0  0  0  0  0  0  0  0  0
    1.7350    0.0000    0.0000 C   0  0  0  0  0  0  0  0  0  0  0  0
    1.7350    1.0052    0.0000 C   0  0  0  0  0  0  0  0  0  0  0  0
    0.8675   -1.4975    0.0000 C   0  0  0  0  0  0  0  0  0  0  0  0
    1.7335   -1.9975    0.0000 C   0  0  0  0  0  0  0  0  0  0  0  0
    1.8395   -2.9934    0.0000 N   0  0  0  0  0  0  0  0  0  0  0  0
    2.8190   -3.2027    0.0000 N   0  0  0  0  0  0  0  0  0  0  0  0
    3.3205   -2.3322    0.0000 N   0  0  0  0  0  0  0  0  0  0  0  0
    4.3147   -2.2249    0.0000 C   0  0  0  0  0  0  0  0  0  0  0  0
    4.7182   -1.3042    0.0000 C   0  0  0  0  0  0  0  0  0  0  0  0
    5.7125   -1.1968    0.0000 C   0  0  0  0  0  0  0  0  0  0  0  0
    6.3073   -2.0007    0.0000 C   0  0  0  0  0  0  0  0  0  0  0  0
    7.3010   -1.8890    0.0000 O   0  0  0  0  0  0  0  0  0  0  0  0
    7.7011   -0.9725    0.0000 C   0  0  0  0  0  0  0  0  0  0  0  0
    5.9037   -2.9214    0.0000 C   0  0  0  0  0  0  0  0  0  0  0  0
    4.9054   -3.0381    0.0000 C   0  0  0  0  0  0  0  0  0  0  0  0
    2.6475   -1.5920    0.0000 C   0  0  0  0  0  0  0  0  0  0  0  0
    0.0015    3.0129    0.0000 C   0  0  0  0  0  0  0  0  0  0  0  0
    0.0015    4.0129    0.0000 Cl  0  0  0  0  0  0  0  0  0  0  0  0
  1  2  2  0  0  0  0
  2  3  1  0  0  0  0
  3  8  1  0  0  0  0
  3  4  1  0  0  0  0
  4  5  1  0  0  0  0
  5  6  1  0  0  0  0
  6  7  1  0  0  0  0
  7  8  1  0  0  0  0
  6  9  1  0  0  0  0
  9 10  1  0  0  0  0
 10 22  2  0  0  0  0
 10 11  1  0  0  0  0
 11 12  2  0  0  0  0
 12 13  1  0  0  0  0
 13 14  1  0  0  0  0
 14 21  2  0  0  0  0
 14 15  1  0  0  0  0
 15 16  2  0  0  0  0
 16 17  1  0  0  0  0
 17 18  1  0  0  0  0
 18 19  1  0  0  0  0
 17 20  2  0  0  0  0
 20 21  1  0  0  0  0
 13 22  1  0  0  0  0
  2 23  1  0  0  0  0
 23 24  1  0  0  0  0
M  END
$$$$
ANT-STE-dbb-2
  -OEChem-03222016562D

 24 26  0     0  0  0  0  0  0999 V2000
    1.7335    3.0129    0.0000 O   0  0  0  0  0  0  0  0  0  0  0  0
    0.8675    2.5129    0.0000 C   0  0  0  0  0  0  0  0  0  0  0  0
    0.8675    1.5129    0.0000 N   0  0  0  0  0  0  0  0  0  0  0  0
    0.0000    1.0052    0.0000 C   0  0  0  0  0  0  0  0  0  0  0  0
    0.0000    0.0000    0.0000 C   0  0  0  0  0  0  0  0  0  0  0  0
    0.8675   -0.4975    0.0000 N   0  0  0  0  0  0  0  0  0  0  0  0
    1.7350    0.0000    0.0000 C   0  0  0  0  0  0  0  0  0  0  0  0
    1.7350    1.0052    0.0000 C   0  0  0  0  0  0  0  0  0  0  0  0
    0.8675   -1.4975    0.0000 C   0  0  0  0  0  0  0  0  0  0  0  0
    1.7335   -1.9975    0.0000 C   0  0  0  0  0  0  0  0  0  0  0  0
    1.8395   -2.9934    0.0000 N   0  0  0  0  0  0  0  0  0  0  0  0
    2.8190   -3.2027    0.0000 N   0  0  0  0  0  0  0  0  0  0  0  0
    3.3205   -2.3322    0.0000 N   0  0  0  0  0  0  0  0  0  0  0  0
    4.3147   -2.2249    0.0000 C   0  0  0  0  0  0  0  0  0  0  0  0
    4.9054   -3.0382    0.0000 C   0  0  0  0  0  0  0  0  0  0  0  0
    5.8997   -2.9309    0.0000 C   0  0  0  0  0  0  0  0  0  0  0  0
    6.3092   -2.0185    0.0000 C   0  0  0  0  0  0  0  0  0  0  0  0
    5.7184   -1.2052    0.0000 C   0  0  0  0  0  0  0  0  0  0  0  0
    6.1280   -0.2929    0.0000 O   0  0  0  0  0  0  0  0  0  0  0  0
    5.5427    0.5179    0.0000 C   0  0  0  0  0  0  0  0  0  0  0  0
    4.7182   -1.3043    0.0000 C   0  0  0  0  0  0  0  0  0  0  0  0
    2.6475   -1.5920    0.0000 C   0  0  0  0  0  0  0  0  0  0  0  0
    0.0015    3.0129    0.0000 C   0  0  0  0  0  0  0  0  0  0  0  0
    0.0015    4.0129    0.0000 Cl  0  0  0  0  0  0  0  0  0  0  0  0
  1  2  2  0  0  0  0
  2  3  1  0  0  0  0
  3  8  1  0  0  0  0
  3  4  1  0  0  0  0
  4  5  1  0  0  0  0
  5  6  1  0  0  0  0
  6  7  1  0  0  0  0
  7  8  1  0  0  0  0
  6  9  1  0  0  0  0
  9 10  1  0  0  0  0
 10 22  2  0  0  0  0
 10 11  1  0  0  0  0
 11 12  2  0  0  0  0
 12 13  1  0  0  0  0
 13 14  1  0  0  0  0
 14 21  2  0  0  0  0
 14 15  1  0  0  0  0
 15 16  2  0  0  0  0
 16 17  1  0  0  0  0
 17 18  2  0  0  0  0
 18 19  1  0  0  0  0
 19 20  1  0  0  0  0
 18 21  1  0  0  0  0
 13 22  1  0  0  0  0
  2 23  1  0  0  0  0
 23 24  1  0  0  0  0
M  END
$$$$
ANT-STE-dbb-3
  -OEChem-03222016562D

 24 26  0     0  0  0  0  0  0999 V2000
    1.7335    3.0129    0.0000 O   0  0  0  0  0  0  0  0  0  0  0  0
    0.8675    2.5129    0.0000 C   0  0  0  0  0  0  0  0  0  0  0  0
    0.8675    1.5129    0.0000 N   0  0  0  0  0  0  0  0  0  0  0  0
    0.0000    1.0052    0.0000 C   0  0  0  0  0  0  0  0  0  0  0  0
    0.0000    0.0000    0.0000 C   0  0  0  0  0  0  0  0  0  0  0  0
    0.8675   -0.4975    0.0000 N   0  0  0  0  0  0  0  0  0  0  0  0
    1.7350    0.0000    0.0000 C   0  0  0  0  0  0  0  0  0  0  0  0
    1.7350    1.0052    0.0000 C   0  0  0  0  0  0  0  0  0  0  0  0
    0.8675   -1.4975    0.0000 C   0  0  0  0  0  0  0  0  0  0  0  0
    1.7335   -1.9975    0.0000 C   0  0  0  0  0  0  0  0  0  0  0  0
    1.8395   -2.9934    0.0000 N   0  0  0  0  0  0  0  0  0  0  0  0
    2.8190   -3.2027    0.0000 N   0  0  0  0  0  0  0  0  0  0  0  0
    3.3205   -2.3322    0.0000 N   0  0  0  0  0  0  0  0  0  0  0  0
    4.3147   -2.2249    0.0000 C   0  0  0  0  0  0  0  0  0  0  0  0
    4.7202   -1.3107    0.0000 C   0  0  0  0  0  0  0  0  0  0  0  0
    5.7139   -1.1991    0.0000 C   0  0  0  0  0  0  0  0  0  0  0  0
    6.3083   -2.0097    0.0000 C   0  0  0  0  0  0  0  0  0  0  0  0
    5.9088   -2.9321    0.0000 C   0  0  0  0  0  0  0  0  0  0  0  0
    4.9090   -3.0356    0.0000 C   0  0  0  0  0  0  0  0  0  0  0  0
    4.5035   -3.9496    0.0000 O   0  0  0  0  0  0  0  0  0  0  0  0
    5.0924   -4.7579    0.0000 C   0  0  0  0  0  0  0  0  0  0  0  0
    2.6475   -1.5920    0.0000 C   0  0  0  0  0  0  0  0  0  0  0  0
    0.0015    3.0129    0.0000 C   0  0  0  0  0  0  0  0  0  0  0  0
    0.0015    4.0129    0.0000 Cl  0  0  0  0  0  0  0  0  0  0  0  0
  1  2  2  0  0  0  0
  2  3  1  0  0  0  0
  3  8  1  0  0  0  0
  3  4  1  0  0  0  0
  4  5  1  0  0  0  0
  5  6  1  0  0  0  0
  6  7  1  0  0  0  0
  7  8  1  0  0  0  0
  6  9  1  0  0  0  0
  9 10  1  0  0  0  0
 10 22  2  0  0  0  0
 10 11  1  0  0  0  0
 11 12  2  0  0  0  0
 12 13  1  0  0  0  0
 13 14  1  0  0  0  0
 14 19  2  0  0  0  0
 14 15  1  0  0  0  0
 15 16  2  0  0  0  0
 16 17  1  0  0  0  0
 17 18  2  0  0  0  0
 18 19  1  0  0  0  0
 19 20  1  0  0  0  0
 20 21  1  0  0  0  0
 13 22  1  0  0  0  0
  2 23  1  0  0  0  0
 23 24  1  0  0  0  0
M  END
$$$$
DUN-NEW-d83-1
  -OEChem-03222016562D

 23 25  0     1  0  0  0  0  0999 V2000
   -0.0667   -3.6979    0.0000 O   0  0  0  0  0  0  0  0  0  0  0  0
    0.2468   -2.7483    0.0000 C   0  0  0  0  0  0  0  0  0  0  0  0
   -0.4188   -2.0020    0.0000 N   0  0  0  0  0  0  0  0  0  0  0  0
    1.2260   -2.5451    0.0000 C   0  0  1  0  0  0  0  0  0  0  0  0
    1.3266   -3.5400    0.0000 H   0  0  0  0  0  0  0  0  0  0  0  0
    2.2275   -2.5480    0.0000 C   0  0  1  0  0  0  0  0  0  0  0  0
    2.1192   -3.5422    0.0000 H   0  0  0  0  0  0  0  0  0  0  0  0
    2.5421   -1.5971    0.0000 C   0  0  0  0  0  0  0  0  0  0  0  0
    1.7313   -1.0038    0.0000 N   0  0  3  0  0  0  0  0  0  0  0  0
    1.7328   -0.0038    0.0000 C   0  0  0  0  0  0  0  0  0  0  0  0
    0.8675    0.4975    0.0000 C   0  0  0  0  0  0  0  0  0  0  0  0
    0.8675    1.5027    0.0000 C   0  0  0  0  0  0  0  0  0  0  0  0
   -0.0000    2.0104    0.0000 N   0  0  0  0  0  0  0  0  0  0  0  0
   -0.8675    1.5027    0.0000 C   0  0  0  0  0  0  0  0  0  0  0  0
   -0.8675    0.4975    0.0000 C   0  0  0  0  0  0  0  0  0  0  0  0
    0.0000    0.0000    0.0000 C   0  0  0  0  0  0  0  0  0  0  0  0
    0.9223   -1.5922    0.0000 C   0  0  0  0  0  0  0  0  0  0  0  0
    3.2046   -2.7604    0.0000 C   0  0  0  0  0  0  0  0  0  0  0  0
    3.8785   -2.0145    0.0000 C   0  0  0  0  0  0  0  0  0  0  0  0
    4.8557   -2.2268    0.0000 C   0  0  0  0  0  0  0  0  0  0  0  0
    5.1659   -3.1775    0.0000 C   0  0  0  0  0  0  0  0  0  0  0  0
    4.4921   -3.9234    0.0000 C   0  0  0  0  0  0  0  0  0  0  0  0
    3.5081   -3.7187    0.0000 C   0  0  0  0  0  0  0  0  0  0  0  0
  1  2  2  0  0  0  0
  2  3  1  0  0  0  0
  2  4  1  0  0  0  0
  4  5  1  1  0  0  0
  4 17  1  0  0  0  0
  4  6  1  0  0  0  0
  6  7  1  6  0  0  0
  6  8  1  0  0  0  0
  8  9  1  0  0  0  0
  9 10  1  0  0  0  0
 10 11  1  0  0  0  0
 11 16  2  0  0  0  0
 11 12  1  0  0  0  0
 12 13  2  0  0  0  0
 13 14  1  0  0  0  0
 14 15  2  0  0  0  0
 15 16  1  0  0  0  0
  9 17  1  0  0  0  0
  6 18  1  0  0  0  0
 18 23  2  0  0  0  0
 18 19  1  0  0  0  0
 19 20  2  0  0  0  0
 20 21  1  0  0  0  0
 21 22  2  0  0  0  0
 22 23  1  0  0  0  0
M  END
$$$$
AGN-NEW-cce-1
  -OEChem-03222016562D

 23 24  0     0  0  0  0  0  0999 V2000
    4.3184   -4.5177    0.0000 C   0  0  0  0  0  0  0  0  0  0  0  0
    3.4561   -4.0114    0.0000 C   0  0  0  0  0  0  0  0  0  0  0  0
    3.4664   -3.0063    0.0000 C   0  0  0  0  0  0  0  0  0  0  0  0
    4.3346   -2.5101    0.0000 N   0  0  0  0  0  0  0  0  0  0  0  0
    4.3390   -1.5101    0.0000 C   0  0  0  0  0  0  0  0  0  0  0  0
    5.2073   -1.0139    0.0000 C   0  0  0  0  0  0  0  0  0  0  0  0
    5.2117   -0.0139    0.0000 C   0  0  0  0  0  0  0  0  0  0  0  0
    3.4752   -1.0063    0.0000 O   0  0  0  0  0  0  0  0  0  0  0  0
    2.5952   -2.5050    0.0000 C   0  0  0  0  0  0  0  0  0  0  0  0
    2.5966   -1.5050    0.0000 C   0  0  0  0  0  0  0  0  0  0  0  0
    1.7313   -1.0038    0.0000 C   0  0  0  0  0  0  0  0  0  0  0  0
    1.7328   -0.0038    0.0000 N   0  0  0  0  0  0  0  0  0  0  0  0
    0.8675    0.4975    0.0000 C   0  0  0  0  0  0  0  0  0  0  0  0
    0.8675    1.5027    0.0000 C   0  0  0  0  0  0  0  0  0  0  0  0
    1.7350    2.0001    0.0000 Cl  0  0  0  0  0  0  0  0  0  0  0  0
   -0.0000    2.0104    0.0000 N   0  0  0  0  0  0  0  0  0  0  0  0
   -0.8675    1.5027    0.0000 C   0  0  0  0  0  0  0  0  0  0  0  0
   -0.8675    0.4975    0.0000 C   0  0  0  0  0  0  0  0  0  0  0  0
    0.0000    0.0000    0.0000 C   0  0  0  0  0  0  0  0  0  0  0  0
    0.8646   -1.5025    0.0000 O   0  0  0  0  0  0  0  0  0  0  0  0
    1.7225   -3.0038    0.0000 C   0  0  0  0  0  0  0  0  0  0  0  0
    1.7210   -4.0038    0.0000 C   0  0  0  0  0  0  0  0  0  0  0  0
    2.5833   -4.5101    0.0000 C   0  0  0  0  0  0  0  0  0  0  0  0
  1  2  1  0  0  0  0
  2 23  2  0  0  0  0
  2  3  1  0  0  0  0
  3  4  1  0  0  0  0
  4  5  1  0  0  0  0
  5  6  1  0  0  0  0
  6  7  2  0  0  0  0
  5  8  2  0  0  0  0
  3  9  2  0  0  0  0
  9 10  1  0  0  0  0
 10 11  1  0  0  0  0
 11 12  1  0  0  0  0
 12 13  1  0  0  0  0
 13 19  2  0  0  0  0
 13 14  1  0  0  0  0
 14 15  1  0  0  0  0
 14 16  2  0  0  0  0
 16 17  1  0  0  0  0
 17 18  2  0  0  0  0
 18 19  1  0  0  0  0
 11 20  2  0  0  0  0
  9 21  1  0  0  0  0
 21 22  2  0  0  0  0
 22 23  1  0  0  0  0
M  END
$$$$
AGN-NEW-cce-2
  -OEChem-03222016562D

 23 24  0     0  0  0  0  0  0999 V2000
    0.8662   -4.5127    0.0000 Cl  0  0  0  0  0  0  0  0  0  0  0  0
    1.7299   -4.0089    0.0000 C   0  0  0  0  0  0  0  0  0  0  0  0
    2.6012   -4.5102    0.0000 C   0  0  0  0  0  0  0  0  0  0  0  0
    3.4651   -4.0063    0.0000 C   0  0  0  0  0  0  0  0  0  0  0  0
    3.4665   -3.0063    0.0000 C   0  0  0  0  0  0  0  0  0  0  0  0
    2.5952   -2.5050    0.0000 C   0  0  0  0  0  0  0  0  0  0  0  0
    2.5966   -1.5050    0.0000 C   0  0  0  0  0  0  0  0  0  0  0  0
    1.7313   -1.0038    0.0000 C   0  0  0  0  0  0  0  0  0  0  0  0
    0.8646   -1.5025    0.0000 O   0  0  0  0  0  0  0  0  0  0  0  0
    1.7328   -0.0038    0.0000 N   0  0  0  0  0  0  0  0  0  0  0  0
    0.8675    0.4975    0.0000 C   0  0  0  0  0  0  0  0  0  0  0  0
    0.0000    0.0000    0.0000 C   0  0  0  0  0  0  0  0  0  0  0  0
   -0.8675    0.4975    0.0000 C   0  0  0  0  0  0  0  0  0  0  0  0
   -0.8675    1.5027    0.0000 C   0  0  0  0  0  0  0  0  0  0  0  0
    0.0000    2.0104    0.0000 N   0  0  0  0  0  0  0  0  0  0  0  0
    0.8675    1.5027    0.0000 C   0  0  0  0  0  0  0  0  0  0  0  0
    1.7350    2.0001    0.0000 C   0  0  0  0  0  0  0  0  0  0  0  0
    1.7225   -3.0037    0.0000 C   0  0  0  0  0  0  0  0  0  0  0  0
    0.8557   -2.5050    0.0000 N   0  0  0  0  0  0  0  0  0  0  0  0
   -0.0095   -3.0063    0.0000 C   0  0  0  0  0  0  0  0  0  0  0  0
   -0.0080   -4.0063    0.0000 O   0  0  0  0  0  0  0  0  0  0  0  0
   -0.8763   -2.5076    0.0000 C   0  0  0  0  0  0  0  0  0  0  0  0
   -1.7416   -3.0089    0.0000 C   0  0  0  0  0  0  0  0  0  0  0  0
  1  2  1  0  0  0  0
  2 18  2  0  0  0  0
  2  3  1  0  0  0  0
  3  4  2  0  0  0  0
  4  5  1  0  0  0  0
  5  6  2  0  0  0  0
  6  7  1  0  0  0  0
  7  8  1  0  0  0  0
  8  9  2  0  0  0  0
  8 10  1  0  0  0  0
 10 11  1  0  0  0  0
 11 16  2  0  0  0  0
 11 12  1  0  0  0  0
 12 13  2  0  0  0  0
 13 14  1  0  0  0  0
 14 15  2  0  0  0  0
 15 16  1  0  0  0  0
 16 17  1  0  0  0  0
  6 18  1  0  0  0  0
 18 19  1  0  0  0  0
 19 20  1  0  0  0  0
 20 21  2  0  0  0  0
 20 22  1  0  0  0  0
 22 23  2  0  0  0  0
M  END
$$$$
AGN-NEW-cce-3
  -OEChem-03222016562D

 24 25  0     0  0  0  0  0  0999 V2000
    0.8662   -4.5127    0.0000 C   0  0  0  0  0  0  0  0  0  0  0  0
    1.7299   -4.0089    0.0000 C   0  0  0  0  0  0  0  0  0  0  0  0
    2.6012   -4.5102    0.0000 C   0  0  0  0  0  0  0  0  0  0  0  0
    3.4651   -4.0063    0.0000 C   0  0  0  0  0  0  0  0  0  0  0  0
    3.4665   -3.0063    0.0000 C   0  0  0  0  0  0  0  0  0  0  0  0
    4.3325   -2.5063    0.0000 C   0  0  0  0  0  0  0  0  0  0  0  0
    2.5952   -2.5050    0.0000 C   0  0  0  0  0  0  0  0  0  0  0  0
    2.5966   -1.5050    0.0000 C   0  0  0  0  0  0  0  0  0  0  0  0
    1.7313   -1.0038    0.0000 C   0  0  0  0  0  0  0  0  0  0  0  0
    0.8646   -1.5025    0.0000 O   0  0  0  0  0  0  0  0  0  0  0  0
    1.7328   -0.0038    0.0000 N   0  0  0  0  0  0  0  0  0  0  0  0
    0.8675    0.4975    0.0000 C   0  0  0  0  0  0  0  0  0  0  0  0
    0.0000    0.0000    0.0000 C   0  0  0  0  0  0  0  0  0  0  0  0
   -0.8675    0.4975    0.0000 C   0  0  0  0  0  0  0  0  0  0  0  0
   -0.8675    1.5027    0.0000 C   0  0  0  0  0  0  0  0  0  0  0  0
    0.0000    2.0104    0.0000 N   0  0  0  0  0  0  0  0  0  0  0  0
    0.8675    1.5027    0.0000 C   0  0  0  0  0  0  0  0  0  0  0  0
    1.7350    2.0001    0.0000 Cl  0  0  0  0  0  0  0  0  0  0  0  0
    1.7225   -3.0037    0.0000 C   0  0  0  0  0  0  0  0  0  0  0  0
    0.8557   -2.5050    0.0000 N   0  0  0  0  0  0  0  0  0  0  0  0
   -0.0095   -3.0063    0.0000 C   0  0  0  0  0  0  0  0  0  0  0  0
   -0.0080   -4.0063    0.0000 O   0  0  0  0  0  0  0  0  0  0  0  0
   -0.8763   -2.5076    0.0000 C   0  0  0  0  0  0  0  0  0  0  0  0
   -1.7416   -3.0089    0.0000 C   0  0  0  0  0  0  0  0  0  0  0  0
  1  2  1  0  0  0  0
  2 19  2  0  0  0  0
  2  3  1  0  0  0  0
  3  4  2  0  0  0  0
  4  5  1  0  0  0  0
  5  6  1  0  0  0  0
  5  7  2  0  0  0  0
  7  8  1  0  0  0  0
  8  9  1  0  0  0  0
  9 10  2  0  0  0  0
  9 11  1  0  0  0  0
 11 12  1  0  0  0  0
 12 17  2  0  0  0  0
 12 13  1  0  0  0  0
 13 14  2  0  0  0  0
 14 15  1  0  0  0  0
 15 16  2  0  0  0  0
 16 17  1  0  0  0  0
 17 18  1  0  0  0  0
  7 19  1  0  0  0  0
 19 20  1  0  0  0  0
 20 21  1  0  0  0  0
 21 22  2  0  0  0  0
 21 23  1  0  0  0  0
 23 24  2  0  0  0  0
M  END
$$$$
SAL-INS-cba-1
  -OEChem-03222016562D

 32 36  0     0  0  0  0  0  0999 V2000
   -3.0971   -1.6618    0.0000 N   0  0  0  0  0  0  0  0  0  0  0  0
   -4.0486   -1.3493    0.0000 C   0  0  0  0  0  0  0  0  0  0  0  0
   -4.0429   -0.3493    0.0000 C   0  0  0  0  0  0  0  0  0  0  0  0
   -3.0915   -0.0398    0.0000 N   0  0  0  0  0  0  0  0  0  0  0  0
   -2.5039   -0.8547    0.0000 C   0  0  0  0  0  0  0  0  0  0  0  0
   -1.5039   -0.8592    0.0000 C   0  0  0  0  0  0  0  0  0  0  0  0
   -1.0000    0.0045    0.0000 C   0  0  0  0  0  0  0  0  0  0  0  0
    0.0000    0.0000    0.0000 C   0  0  0  0  0  0  0  0  0  0  0  0
    0.5842   -0.8118    0.0000 N   0  0  0  0  0  0  0  0  0  0  0  0
    1.5367   -0.5071    0.0000 C   0  0  0  0  0  0  0  0  0  0  0  0
    1.5413    0.4930    0.0000 C   0  0  0  0  0  0  0  0  0  0  0  0
    2.4944    0.7970    0.0000 S   0  0  0  0  0  0  0  0  0  0  0  0
    3.0782   -0.0149    0.0000 C   0  0  0  0  0  0  0  0  0  0  0  0
    2.4863   -0.8210    0.0000 C   0  0  0  0  0  0  0  0  0  0  0  0
    2.7905   -1.7736    0.0000 C   0  0  0  0  0  0  0  0  0  0  0  0
    3.7676   -1.9865    0.0000 C   0  0  0  0  0  0  0  0  0  0  0  0
    4.4418   -1.2409    0.0000 C   0  0  0  0  0  0  0  0  0  0  0  0
    5.4189   -1.4537    0.0000 C   0  0  0  0  0  0  0  0  0  0  0  0
    5.7287   -2.4046    0.0000 C   0  0  0  0  0  0  0  0  0  0  0  0
    6.7067   -2.6131    0.0000 O   0  0  0  0  0  0  0  0  0  0  0  0
    5.0545   -3.1501    0.0000 C   0  0  0  0  0  0  0  0  0  0  0  0
    4.0705   -2.9449    0.0000 C   0  0  0  0  0  0  0  0  0  0  0  0
    4.0782   -0.0199    0.0000 N   0  0  0  0  0  0  0  0  0  0  0  0
    4.5825    0.8436    0.0000 C   0  0  0  0  0  0  0  0  0  0  0  0
    5.5825    0.8387    0.0000 N   0  0  0  0  0  0  0  0  0  0  0  0
    6.0868    1.7022    0.0000 C   0  0  0  0  0  0  0  0  0  0  0  0
    5.6816    2.6169    0.0000 N   0  0  0  0  0  0  0  0  0  0  0  0
    6.4321    3.2847    0.0000 C   0  0  0  0  0  0  0  0  0  0  0  0
    7.2957    2.7772    0.0000 N   0  0  0  0  0  0  0  0  0  0  0  0
    7.0822    1.7987    0.0000 C   0  0  0  0  0  0  0  0  0  0  0  0
    4.0868    1.7121    0.0000 O   0  0  0  0  0  0  0  0  0  0  0  0
    0.5915    0.8064    0.0000 C   0  0  0  0  0  0  0  0  0  0  0  0
  1  5  1  0  0  0  0
  1  2  1  0  0  0  0
  2  3  2  0  0  0  0
  3  4  1  0  0  0  0
  4  5  2  0  0  0  0
  5  6  1  0  0  0  0
  6  7  1  0  0  0  0
  7  8  1  0  0  0  0
  8 32  2  0  0  0  0
  8  9  1  0  0  0  0
  9 10  1  0  0  0  0
 10 14  1  0  0  0  0
 10 11  2  0  0  0  0
 11 12  1  0  0  0  0
 12 13  1  0  0  0  0
 13 14  2  0  0  0  0
 14 15  1  0  0  0  0
 15 16  1  0  0  0  0
 16 22  1  0  0  0  0
 16 17  1  0  0  0  0
 17 18  1  0  0  0  0
 18 19  1  0  0  0  0
 19 20  1  0  0  0  0
 19 21  1  0  0  0  0
 21 22  1  0  0  0  0
 13 23  1  0  0  0  0
 23 24  1  0  0  0  0
 24 25  1  0  0  0  0
 25 26  1  0  0  0  0
 26 30  2  0  0  0  0
 26 27  1  0  0  0  0
 27 28  1  0  0  0  0
 28 29  2  0  0  0  0
 29 30  1  0  0  0  0
 24 31  2  0  0  0  0
 11 32  1  0  0  0  0
M  END
$$$$
SAL-INS-cba-2
  -OEChem-03222016562D

 24 27  0     0  0  0  0  0  0999 V2000
   -1.9460    3.2384    0.0000 N   0  0  0  0  0  0  0  0  0  0  0  0
   -1.9429    4.2399    0.0000 C   0  0  0  0  0  0  0  0  0  0  0  0
   -0.9900    4.5435    0.0000 C   0  0  0  0  0  0  0  0  0  0  0  0
   -0.4016    3.7343    0.0000 N   0  0  0  0  0  0  0  0  0  0  0  0
   -0.9951    2.9237    0.0000 C   0  0  0  0  0  0  0  0  0  0  0  0
   -0.6904    1.9712    0.0000 C   0  0  0  0  0  0  0  0  0  0  0  0
    0.2868    1.7589    0.0000 C   0  0  0  0  0  0  0  0  0  0  0  0
    0.5915    0.8064    0.0000 C   0  0  0  0  0  0  0  0  0  0  0  0
    1.5413    0.4930    0.0000 C   0  0  0  0  0  0  0  0  0  0  0  0
    1.5367   -0.5071    0.0000 C   0  0  0  0  0  0  0  0  0  0  0  0
    2.4863   -0.8210    0.0000 C   0  0  0  0  0  0  0  0  0  0  0  0
    3.0782   -0.0149    0.0000 C   0  0  0  0  0  0  0  0  0  0  0  0
    2.4944    0.7970    0.0000 S   0  0  0  0  0  0  0  0  0  0  0  0
    4.0782   -0.0199    0.0000 N   0  0  0  0  0  0  0  0  0  0  0  0
    4.5825    0.8436    0.0000 C   0  0  0  0  0  0  0  0  0  0  0  0
    5.5825    0.8387    0.0000 N   0  0  0  0  0  0  0  0  0  0  0  0
    6.0868    1.7022    0.0000 C   0  0  0  0  0  0  0  0  0  0  0  0
    7.0822    1.7987    0.0000 C   0  0  0  0  0  0  0  0  0  0  0  0
    7.2957    2.7772    0.0000 N   0  0  0  0  0  0  0  0  0  0  0  0
    6.4321    3.2847    0.0000 C   0  0  0  0  0  0  0  0  0  0  0  0
    5.6816    2.6169    0.0000 N   0  0  0  0  0  0  0  0  0  0  0  0
    4.0868    1.7121    0.0000 O   0  0  0  0  0  0  0  0  0  0  0  0
    0.5842   -0.8118    0.0000 N   0  0  0  0  0  0  0  0  0  0  0  0
    0.0000    0.0000    0.0000 C   0  0  0  0  0  0  0  0  0  0  0  0
  1  5  1  0  0  0  0
  1  2  1  0  0  0  0
  2  3  2  0  0  0  0
  3  4  1  0  0  0  0
  4  5  2  0  0  0  0
  5  6  1  0  0  0  0
  6  7  1  0  0  0  0
  7  8  1  0  0  0  0
  8 24  2  0  0  0  0
  8  9  1  0  0  0  0
  9 13  1  0  0  0  0
  9 10  2  0  0  0  0
 10 11  1  0  0  0  0
 11 12  2  0  0  0  0
 12 13  1  0  0  0  0
 12 14  1  0  0  0  0
 14 15  1  0  0  0  0
 15 16  1  0  0  0  0
 16 17  1  0  0  0  0
 17 21  1  0  0  0  0
 17 18  2  0  0  0  0
 18 19  1  0  0  0  0
 19 20  1  0  0  0  0
 20 21  2  0  0  0  0
 15 22  2  0  0  0  0
 10 23  1  0  0  0  0
 23 24  1  0  0  0  0
M  END
$$$$
SAL-INS-cba-3
  -OEChem-03222016562D

 25 28  0     0  0  0  0  0  0999 V2000
    0.5842   -0.8118    0.0000 N   0  0  0  0  0  0  0  0  0  0  0  0
    1.5367   -0.5071    0.0000 C   0  0  0  0  0  0  0  0  0  0  0  0
    1.5413    0.4930    0.0000 C   0  0  0  0  0  0  0  0  0  0  0  0
    2.4944    0.7970    0.0000 S   0  0  0  0  0  0  0  0  0  0  0  0
    3.0782   -0.0149    0.0000 C   0  0  0  0  0  0  0  0  0  0  0  0
    2.4863   -0.8210    0.0000 C   0  0  0  0  0  0  0  0  0  0  0  0
    2.7905   -1.7736    0.0000 C   0  0  0  0  0  0  0  0  0  0  0  0
    3.7676   -1.9865    0.0000 C   0  0  0  0  0  0  0  0  0  0  0  0
    4.4418   -1.2409    0.0000 C   0  0  0  0  0  0  0  0  0  0  0  0
    5.4189   -1.4537    0.0000 C   0  0  0  0  0  0  0  0  0  0  0  0
    5.7287   -2.4046    0.0000 C   0  0  0  0  0  0  0  0  0  0  0  0
    6.7067   -2.6131    0.0000 O   0  0  0  0  0  0  0  0  0  0  0  0
    5.0545   -3.1501    0.0000 C   0  0  0  0  0  0  0  0  0  0  0  0
    4.0705   -2.9449    0.0000 C   0  0  0  0  0  0  0  0  0  0  0  0
    4.0782   -0.0199    0.0000 N   0  0  0  0  0  0  0  0  0  0  0  0
    4.5825    0.8436    0.0000 C   0  0  0  0  0  0  0  0  0  0  0  0
    5.5825    0.8387    0.0000 N   0  0  0  0  0  0  0  0  0  0  0  0
    6.0868    1.7022    0.0000 C   0  0  0  0  0  0  0  0  0  0  0  0
    7.0822    1.7987    0.0000 C   0  0  0  0  0  0  0  0  0  0  0  0
    7.2957    2.7772    0.0000 N   0  0  0  0  0  0  0  0  0  0  0  0
    6.4321    3.2847    0.0000 C   0  0  0  0  0  0  0  0  0  0  0  0
    5.6816    2.6169    0.0000 N   0  0  0  0  0  0  0  0  0  0  0  0
    4.0868    1.7121    0.0000 O   0  0  0  0  0  0  0  0  0  0  0  0
    0.5915    0.8064    0.0000 C   0  0  0  0  0  0  0  0  0  0  0  0
    0.0000    0.0000    0.0000 C   0  0  0  0  0  0  0  0  0  0  0  0
  1 25  1  0  0  0  0
  1  2  1  0  0  0  0
  2  6  1  0  0  0  0
  2  3  2  0  0  0  0
  3  4  1  0  0  0  0
  4  5  1  0  0  0  0
  5  6  2  0  0  0  0
  6  7  1  0  0  0  0
  7  8  1  0  0  0  0
  8 14  1  0  0  0  0
  8  9  1  0  0  0  0
  9 10  1  0  0  0  0
 10 11  1  0  0  0  0
 11 12  1  0  0  0  0
 11 13  1  0  0  0  0
 13 14  1  0  0  0  0
  5 15  1  0  0  0  0
 15 16  1  0  0  0  0
 16 17  1  0  0  0  0
 17 18  1  0  0  0  0
 18 22  1  0  0  0  0
 18 19  2  0  0  0  0
 19 20  1  0  0  0  0
 20 21  1  0  0  0  0
 21 22  2  0  0  0  0
 16 23  2  0  0  0  0
  3 24  1  0  0  0  0
 24 25  2  0  0  0  0
M  END
$$$$
SAL-INS-cba-4
  -OEChem-03222016562D

 32 36  0     0  0  0  0  0  0999 V2000
   -3.0915   -0.0398    0.0000 N   0  0  0  0  0  0  0  0  0  0  0  0
   -2.5039   -0.8547    0.0000 C   0  0  0  0  0  0  0  0  0  0  0  0
   -1.5039   -0.8592    0.0000 C   0  0  0  0  0  0  0  0  0  0  0  0
   -1.0000    0.0045    0.0000 C   0  0  0  0  0  0  0  0  0  0  0  0
    0.0000    0.0000    0.0000 C   0  0  0  0  0  0  0  0  0  0  0  0
    0.5915    0.8064    0.0000 C   0  0  0  0  0  0  0  0  0  0  0  0
    1.5413    0.4930    0.0000 C   0  0  0  0  0  0  0  0  0  0  0  0
    2.4944    0.7970    0.0000 S   0  0  0  0  0  0  0  0  0  0  0  0
    3.0782   -0.0149    0.0000 C   0  0  0  0  0  0  0  0  0  0  0  0
    4.0782   -0.0199    0.0000 N   0  0  0  0  0  0  0  0  0  0  0  0
    4.5825    0.8436    0.0000 C   0  0  0  0  0  0  0  0  0  0  0  0
    4.0868    1.7121    0.0000 O   0  0  0  0  0  0  0  0  0  0  0  0
    5.5825    0.8387    0.0000 C   0  0  0  0  0  0  0  0  0  0  0  0
    6.0868    1.7022    0.0000 C   0  0  0  0  0  0  0  0  0  0  0  0
    7.0822    1.7987    0.0000 C   0  0  0  0  0  0  0  0  0  0  0  0
    7.2957    2.7772    0.0000 N   0  0  0  0  0  0  0  0  0  0  0  0
    6.4321    3.2847    0.0000 C   0  0  0  0  0  0  0  0  0  0  0  0
    5.6816    2.6169    0.0000 N   0  0  0  0  0  0  0  0  0  0  0  0
    2.4863   -0.8210    0.0000 C   0  0  0  0  0  0  0  0  0  0  0  0
    1.5367   -0.5071    0.0000 C   0  0  0  0  0  0  0  0  0  0  0  0
    0.5842   -0.8118    0.0000 N   0  0  0  0  0  0  0  0  0  0  0  0
    2.7905   -1.7736    0.0000 C   0  0  0  0  0  0  0  0  0  0  0  0
    3.7676   -1.9865    0.0000 C   0  0  0  0  0  0  0  0  0  0  0  0
    4.4418   -1.2409    0.0000 C   0  0  0  0  0  0  0  0  0  0  0  0
    5.4189   -1.4537    0.0000 C   0  0  0  0  0  0  0  0  0  0  0  0
    5.7287   -2.4046    0.0000 C   0  0  0  0  0  0  0  0  0  0  0  0
    6.7067   -2.6131    0.0000 O   0  0  0  0  0  0  0  0  0  0  0  0
    5.0545   -3.1501    0.0000 C   0  0  0  0  0  0  0  0  0  0  0  0
    4.0705   -2.9449    0.0000 C   0  0  0  0  0  0  0  0  0  0  0  0
   -3.0971   -1.6618    0.0000 N   0  0  0  0  0  0  0  0  0  0  0  0
   -4.0486   -1.3493    0.0000 C   0  0  0  0  0  0  0  0  0  0  0  0
   -4.0429   -0.3493    0.0000 C   0  0  0  0  0  0  0  0  0  0  0  0
  1 32  1  0  0  0  0
  1  2  1  0  0  0  0
  2  3  1  0  0  0  0
  3  4  1  0  0  0  0
  4  5  1  0  0  0  0
  5 21  1  0  0  0  0
  5  6  2  0  0  0  0
  6  7  1  0  0  0  0
  7 20  2  0  0  0  0
  7  8  1  0  0  0  0
  8  9  1  0  0  0  0
  9 10  1  0  0  0  0
 10 11  1  0  0  0  0
 11 12  2  0  0  0  0
 11 13  1  0  0  0  0
 13 14  1  0  0  0  0
 14 18  1  0  0  0  0
 14 15  2  0  0  0  0
 15 16  1  0  0  0  0
 16 17  2  0  0  0  0
 17 18  1  0  0  0  0
  9 19  2  0  0  0  0
 19 20  1  0  0  0  0
 20 21  1  0  0  0  0
 19 22  1  0  0  0  0
 22 23  1  0  0  0  0
 23 29  1  0  0  0  0
 23 24  1  0  0  0  0
 24 25  1  0  0  0  0
 25 26  1  0  0  0  0
 26 27  1  0  0  0  0
 26 28  1  0  0  0  0
 28 29  1  0  0  0  0
  2 30  2  0  0  0  0
 30 31  1  0  0  0  0
 31 32  2  0  0  0  0
M  END
$$$$
SAL-INS-cba-5
  -OEChem-03222016562D

 32 36  0     0  0  0  0  0  0999 V2000
   -3.0915   -0.0398    0.0000 N   0  0  0  0  0  0  0  0  0  0  0  0
   -2.5039   -0.8547    0.0000 C   0  0  0  0  0  0  0  0  0  0  0  0
   -1.5039   -0.8592    0.0000 C   0  0  0  0  0  0  0  0  0  0  0  0
   -1.0000    0.0045    0.0000 C   0  0  0  0  0  0  0  0  0  0  0  0
    0.0000    0.0000    0.0000 C   0  0  0  0  0  0  0  0  0  0  0  0
    0.5915    0.8064    0.0000 C   0  0  0  0  0  0  0  0  0  0  0  0
    1.5413    0.4930    0.0000 C   0  0  0  0  0  0  0  0  0  0  0  0
    2.4944    0.7970    0.0000 S   0  0  0  0  0  0  0  0  0  0  0  0
    3.0782   -0.0149    0.0000 C   0  0  0  0  0  0  0  0  0  0  0  0
    4.0782   -0.0199    0.0000 C   0  0  0  0  0  0  0  0  0  0  0  0
    4.5825    0.8436    0.0000 C   0  0  0  0  0  0  0  0  0  0  0  0
    4.0868    1.7121    0.0000 O   0  0  0  0  0  0  0  0  0  0  0  0
    5.5825    0.8387    0.0000 N   0  0  0  0  0  0  0  0  0  0  0  0
    6.0868    1.7022    0.0000 C   0  0  0  0  0  0  0  0  0  0  0  0
    7.0822    1.7987    0.0000 C   0  0  0  0  0  0  0  0  0  0  0  0
    7.2957    2.7772    0.0000 N   0  0  0  0  0  0  0  0  0  0  0  0
    6.4321    3.2847    0.0000 C   0  0  0  0  0  0  0  0  0  0  0  0
    5.6816    2.6169    0.0000 N   0  0  0  0  0  0  0  0  0  0  0  0
    2.4863   -0.8210    0.0000 C   0  0  0  0  0  0  0  0  0  0  0  0
    1.5367   -0.5071    0.0000 C   0  0  0  0  0  0  0  0  0  0  0  0
    0.5842   -0.8118    0.0000 N   0  0  0  0  0  0  0  0  0  0  0  0
    2.7905   -1.7736    0.0000 C   0  0  0  0  0  0  0  0  0  0  0  0
    3.7676   -1.9865    0.0000 C   0  0  0  0  0  0  0  0  0  0  0  0
    4.4418   -1.2409    0.0000 C   0  0  0  0  0  0  0  0  0  0  0  0
    5.4189   -1.4537    0.0000 C   0  0  0  0  0  0  0  0  0  0  0  0
    5.7287   -2.4046    0.0000 C   0  0  0  0  0  0  0  0  0  0  0  0
    6.7067   -2.6131    0.0000 O   0  0  0  0  0  0  0  0  0  0  0  0
    5.0545   -3.1501    0.0000 C   0  0  0  0  0  0  0  0  0  0  0  0
    4.0705   -2.9449    0.0000 C   0  0  0  0  0  0  0  0  0  0  0  0
   -3.0971   -1.6618    0.0000 N   0  0  0  0  0  0  0  0  0  0  0  0
   -4.0486   -1.3493    0.0000 C   0  0  0  0  0  0  0  0  0  0  0  0
   -4.0429   -0.3493    0.0000 C   0  0  0  0  0  0  0  0  0  0  0  0
  1 32  1  0  0  0  0
  1  2  1  0  0  0  0
  2  3  1  0  0  0  0
  3  4  1  0  0  0  0
  4  5  1  0  0  0  0
  5 21  1  0  0  0  0
  5  6  2  0  0  0  0
  6  7  1  0  0  0  0
  7 20  2  0  0  0  0
  7  8  1  0  0  0  0
  8  9  1  0  0  0  0
  9 10  1  0  0  0  0
 10 11  1  0  0  0  0
 11 12  2  0  0  0  0
 11 13  1  0  0  0  0
 13 14  1  0  0  0  0
 14 18  1  0  0  0  0
 14 15  2  0  0  0  0
 15 16  1  0  0  0  0
 16 17  2  0  0  0  0
 17 18  1  0  0  0  0
  9 19  2  0  0  0  0
 19 20  1  0  0  0  0
 20 21  1  0  0  0  0
 19 22  1  0  0  0  0
 22 23  1  0  0  0  0
 23 29  1  0  0  0  0
 23 24  1  0  0  0  0
 24 25  1  0  0  0  0
 25 26  1  0  0  0  0
 26 27  1  0  0  0  0
 26 28  1  0  0  0  0
 28 29  1  0  0  0  0
  2 30  2  0  0  0  0
 30 31  1  0  0  0  0
 31 32  2  0  0  0  0
M  END
$$$$
SAL-INS-cba-6
  -OEChem-03222016562D

 24 27  0     0  0  0  0  0  0999 V2000
   -0.4016    3.7343    0.0000 N   0  0  0  0  0  0  0  0  0  0  0  0
   -0.9951    2.9237    0.0000 C   0  0  0  0  0  0  0  0  0  0  0  0
   -0.6904    1.9712    0.0000 C   0  0  0  0  0  0  0  0  0  0  0  0
    0.2868    1.7589    0.0000 C   0  0  0  0  0  0  0  0  0  0  0  0
    0.5915    0.8064    0.0000 C   0  0  0  0  0  0  0  0  0  0  0  0
    0.0000    0.0000    0.0000 C   0  0  0  0  0  0  0  0  0  0  0  0
    0.5842   -0.8118    0.0000 N   0  0  0  0  0  0  0  0  0  0  0  0
    1.5367   -0.5071    0.0000 C   0  0  0  0  0  0  0  0  0  0  0  0
    2.4863   -0.8210    0.0000 C   0  0  0  0  0  0  0  0  0  0  0  0
    3.0782   -0.0149    0.0000 C   0  0  0  0  0  0  0  0  0  0  0  0
    4.0782   -0.0199    0.0000 C   0  0  0  0  0  0  0  0  0  0  0  0
    4.5825    0.8436    0.0000 C   0  0  0  0  0  0  0  0  0  0  0  0
    4.0868    1.7121    0.0000 O   0  0  0  0  0  0  0  0  0  0  0  0
    5.5825    0.8387    0.0000 N   0  0  0  0  0  0  0  0  0  0  0  0
    6.0868    1.7022    0.0000 C   0  0  0  0  0  0  0  0  0  0  0  0
    5.6816    2.6169    0.0000 N   0  0  0  0  0  0  0  0  0  0  0  0
    6.4321    3.2847    0.0000 C   0  0  0  0  0  0  0  0  0  0  0  0
    7.2957    2.7772    0.0000 N   0  0  0  0  0  0  0  0  0  0  0  0
    7.0822    1.7987    0.0000 C   0  0  0  0  0  0  0  0  0  0  0  0
    2.4944    0.7970    0.0000 S   0  0  0  0  0  0  0  0  0  0  0  0
    1.5413    0.4930    0.0000 C   0  0  0  0  0  0  0  0  0  0  0  0
   -1.9460    3.2384    0.0000 N   0  0  0  0  0  0  0  0  0  0  0  0
   -1.9429    4.2399    0.0000 C   0  0  0  0  0  0  0  0  0  0  0  0
   -0.9900    4.5435    0.0000 C   0  0  0  0  0  0  0  0  0  0  0  0
  1 24  1  0  0  0  0
  1  2  1  0  0  0  0
  2  3  1  0  0  0  0
  3  4  1  0  0  0  0
  4  5  1  0  0  0  0
  5 21  1  0  0  0  0
  5  6  2  0  0  0  0
  6  7  1  0  0  0  0
  7  8  1  0  0  0  0
  8 21  2  0  0  0  0
  8  9  1  0  0  0  0
  9 10  2  0  0  0  0
 10 11  1  0  0  0  0
 11 12  1  0  0  0  0
 12 13  2  0  0  0  0
 12 14  1  0  0  0  0
 14 15  1  0  0  0  0
 15 19  2  0  0  0  0
 15 16  1  0  0  0  0
 16 17  2  0  0  0  0
 17 18  1  0  0  0  0
 18 19  1  0  0  0  0
 10 20  1  0  0  0  0
 20 21  1  0  0  0  0
  2 22  2  0  0  0  0
 22 23  1  0  0  0  0
 23 24  2  0  0  0  0
M  END
$$$$
SAL-INS-cba-7
  -OEChem-03222016562D

 24 27  0     0  0  0  0  0  0999 V2000
   -0.4016    3.7343    0.0000 N   0  0  0  0  0  0  0  0  0  0  0  0
   -0.9951    2.9237    0.0000 C   0  0  0  0  0  0  0  0  0  0  0  0
   -0.6904    1.9712    0.0000 C   0  0  0  0  0  0  0  0  0  0  0  0
    0.2868    1.7589    0.0000 C   0  0  0  0  0  0  0  0  0  0  0  0
    0.5915    0.8064    0.0000 C   0  0  0  0  0  0  0  0  0  0  0  0
    0.0000    0.0000    0.0000 C   0  0  0  0  0  0  0  0  0  0  0  0
    0.5842   -0.8118    0.0000 N   0  0  0  0  0  0  0  0  0  0  0  0
    1.5367   -0.5071    0.0000 C   0  0  0  0  0  0  0  0  0  0  0  0
    2.4863   -0.8210    0.0000 C   0  0  0  0  0  0  0  0  0  0  0  0
    3.0782   -0.0149    0.0000 C   0  0  0  0  0  0  0  0  0  0  0  0
    4.0782   -0.0199    0.0000 N   0  0  0  0  0  0  0  0  0  0  0  0
    4.5825    0.8436    0.0000 C   0  0  0  0  0  0  0  0  0  0  0  0
    4.0868    1.7121    0.0000 O   0  0  0  0  0  0  0  0  0  0  0  0
    5.5825    0.8387    0.0000 C   0  0  0  0  0  0  0  0  0  0  0  0
    6.0868    1.7022    0.0000 C   0  0  0  0  0  0  0  0  0  0  0  0
    5.6816    2.6169    0.0000 N   0  0  0  0  0  0  0  0  0  0  0  0
    6.4321    3.2847    0.0000 C   0  0  0  0  0  0  0  0  0  0  0  0
    7.2957    2.7772    0.0000 N   0  0  0  0  0  0  0  0  0  0  0  0
    7.0822    1.7987    0.0000 C   0  0  0  0  0  0  0  0  0  0  0  0
    2.4944    0.7970    0.0000 S   0  0  0  0  0  0  0  0  0  0  0  0
    1.5413    0.4930    0.0000 C   0  0  0  0  0  0  0  0  0  0  0  0
   -1.9460    3.2384    0.0000 N   0  0  0  0  0  0  0  0  0  0  0  0
   -1.9429    4.2399    0.0000 C   0  0  0  0  0  0  0  0  0  0  0  0
   -0.9900    4.5435    0.0000 C   0  0  0  0  0  0  0  0  0  0  0  0
  1 24  1  0  0  0  0
  1  2  1  0  0  0  0
  2  3  1  0  0  0  0
  3  4  1  0  0  0  0
  4  5  1  0  0  0  0
  5 21  1  0  0  0  0
  5  6  2  0  0  0  0
  6  7  1  0  0  0  0
  7  8  1  0  0  0  0
  8 21  2  0  0  0  0
  8  9  1  0  0  0  0
  9 10  2  0  0  0  0
 10 11  1  0  0  0  0
 11 12  1  0  0  0  0
 12 13  2  0  0  0  0
 12 14  1  0  0  0  0
 14 15  1  0  0  0  0
 15 19  2  0  0  0  0
 15 16  1  0  0  0  0
 16 17  2  0  0  0  0
 17 18  1  0  0  0  0
 18 19  1  0  0  0  0
 10 20  1  0  0  0  0
 20 21  1  0  0  0  0
  2 22  2  0  0  0  0
 22 23  1  0  0  0  0
 23 24  2  0  0  0  0
M  END
$$$$
SAL-INS-cba-8
  -OEChem-03222016562D

 25 28  0     0  0  0  0  0  0999 V2000
    0.5842   -0.8118    0.0000 N   0  0  0  0  0  0  0  0  0  0  0  0
    0.0000    0.0000    0.0000 C   0  0  0  0  0  0  0  0  0  0  0  0
    0.5915    0.8064    0.0000 C   0  0  0  0  0  0  0  0  0  0  0  0
    1.5413    0.4930    0.0000 C   0  0  0  0  0  0  0  0  0  0  0  0
    2.4944    0.7970    0.0000 S   0  0  0  0  0  0  0  0  0  0  0  0
    3.0782   -0.0149    0.0000 C   0  0  0  0  0  0  0  0  0  0  0  0
    4.0782   -0.0199    0.0000 N   0  0  0  0  0  0  0  0  0  0  0  0
    4.5825    0.8436    0.0000 C   0  0  0  0  0  0  0  0  0  0  0  0
    4.0868    1.7121    0.0000 O   0  0  0  0  0  0  0  0  0  0  0  0
    5.5825    0.8387    0.0000 C   0  0  0  0  0  0  0  0  0  0  0  0
    6.0868    1.7022    0.0000 C   0  0  0  0  0  0  0  0  0  0  0  0
    5.6816    2.6169    0.0000 N   0  0  0  0  0  0  0  0  0  0  0  0
    6.4321    3.2847    0.0000 C   0  0  0  0  0  0  0  0  0  0  0  0
    7.2957    2.7772    0.0000 N   0  0  0  0  0  0  0  0  0  0  0  0
    7.0822    1.7987    0.0000 C   0  0  0  0  0  0  0  0  0  0  0  0
    2.4863   -0.8210    0.0000 C   0  0  0  0  0  0  0  0  0  0  0  0
    1.5367   -0.5071    0.0000 C   0  0  0  0  0  0  0  0  0  0  0  0
    2.7905   -1.7736    0.0000 C   0  0  0  0  0  0  0  0  0  0  0  0
    3.7676   -1.9865    0.0000 C   0  0  0  0  0  0  0  0  0  0  0  0
    4.4418   -1.2409    0.0000 C   0  0  0  0  0  0  0  0  0  0  0  0
    5.4189   -1.4537    0.0000 C   0  0  0  0  0  0  0  0  0  0  0  0
    5.7287   -2.4046    0.0000 C   0  0  0  0  0  0  0  0  0  0  0  0
    6.7067   -2.6131    0.0000 O   0  0  0  0  0  0  0  0  0  0  0  0
    5.0545   -3.1501    0.0000 C   0  0  0  0  0  0  0  0  0  0  0  0
    4.0705   -2.9449    0.0000 C   0  0  0  0  0  0  0  0  0  0  0  0
  1 17  1  0  0  0  0
  1  2  1  0  0  0  0
  2  3  2  0  0  0  0
  3  4  1  0  0  0  0
  4 17  2  0  0  0  0
  4  5  1  0  0  0  0
  5  6  1  0  0  0  0
  6  7  1  0  0  0  0
  7  8  1  0  0  0  0
  8  9  2  0  0  0  0
  8 10  1  0  0  0  0
 10 11  1  0  0  0  0
 11 15  2  0  0  0  0
 11 12  1  0  0  0  0
 12 13  2  0  0  0  0
 13 14  1  0  0  0  0
 14 15  1  0  0  0  0
  6 16  2  0  0  0  0
 16 17  1  0  0  0  0
 16 18  1  0  0  0  0
 18 19  1  0  0  0  0
 19 25  1  0  0  0  0
 19 20  1  0  0  0  0
 20 21  1  0  0  0  0
 21 22  1  0  0  0  0
 22 23  1  0  0  0  0
 22 24  1  0  0  0  0
 24 25  1  0  0  0  0
M  END
$$$$
SAL-INS-cba-9
  -OEChem-03222016562D

 25 28  0     0  0  0  0  0  0999 V2000
    0.5842   -0.8118    0.0000 N   0  0  0  0  0  0  0  0  0  0  0  0
    0.0000    0.0000    0.0000 C   0  0  0  0  0  0  0  0  0  0  0  0
    0.5915    0.8064    0.0000 C   0  0  0  0  0  0  0  0  0  0  0  0
    1.5413    0.4930    0.0000 C   0  0  0  0  0  0  0  0  0  0  0  0
    2.4944    0.7970    0.0000 S   0  0  0  0  0  0  0  0  0  0  0  0
    3.0782   -0.0149    0.0000 C   0  0  0  0  0  0  0  0  0  0  0  0
    4.0782   -0.0199    0.0000 C   0  0  0  0  0  0  0  0  0  0  0  0
    4.5825    0.8436    0.0000 C   0  0  0  0  0  0  0  0  0  0  0  0
    4.0868    1.7121    0.0000 O   0  0  0  0  0  0  0  0  0  0  0  0
    5.5825    0.8387    0.0000 N   0  0  0  0  0  0  0  0  0  0  0  0
    6.0868    1.7022    0.0000 C   0  0  0  0  0  0  0  0  0  0  0  0
    5.6816    2.6169    0.0000 N   0  0  0  0  0  0  0  0  0  0  0  0
    6.4321    3.2847    0.0000 C   0  0  0  0  0  0  0  0  0  0  0  0
    7.2957    2.7772    0.0000 N   0  0  0  0  0  0  0  0  0  0  0  0
    7.0822    1.7987    0.0000 C   0  0  0  0  0  0  0  0  0  0  0  0
    2.4863   -0.8210    0.0000 C   0  0  0  0  0  0  0  0  0  0  0  0
    1.5367   -0.5071    0.0000 C   0  0  0  0  0  0  0  0  0  0  0  0
    2.7905   -1.7736    0.0000 C   0  0  0  0  0  0  0  0  0  0  0  0
    3.7676   -1.9865    0.0000 C   0  0  0  0  0  0  0  0  0  0  0  0
    4.4418   -1.2409    0.0000 C   0  0  0  0  0  0  0  0  0  0  0  0
    5.4189   -1.4537    0.0000 C   0  0  0  0  0  0  0  0  0  0  0  0
    5.7287   -2.4046    0.0000 C   0  0  0  0  0  0  0  0  0  0  0  0
    6.7067   -2.6131    0.0000 O   0  0  0  0  0  0  0  0  0  0  0  0
    5.0545   -3.1501    0.0000 C   0  0  0  0  0  0  0  0  0  0  0  0
    4.0705   -2.9449    0.0000 C   0  0  0  0  0  0  0  0  0  0  0  0
  1 17  1  0  0  0  0
  1  2  1  0  0  0  0
  2  3  2  0  0  0  0
  3  4  1  0  0  0  0
  4 17  2  0  0  0  0
  4  5  1  0  0  0  0
  5  6  1  0  0  0  0
  6  7  1  0  0  0  0
  7  8  1  0  0  0  0
  8  9  2  0  0  0  0
  8 10  1  0  0  0  0
 10 11  1  0  0  0  0
 11 15  2  0  0  0  0
 11 12  1  0  0  0  0
 12 13  2  0  0  0  0
 13 14  1  0  0  0  0
 14 15  1  0  0  0  0
  6 16  2  0  0  0  0
 16 17  1  0  0  0  0
 16 18  1  0  0  0  0
 18 19  1  0  0  0  0
 19 25  1  0  0  0  0
 19 20  1  0  0  0  0
 20 21  1  0  0  0  0
 21 22  1  0  0  0  0
 22 23  1  0  0  0  0
 22 24  1  0  0  0  0
 24 25  1  0  0  0  0
M  END
$$$$
AGN-NEW-c7b-1
  -OEChem-03222016562D

 19 20  0     0  0  0  0  0  0999 V2000
    1.7225   -3.0038    0.0000 C   0  0  0  0  0  0  0  0  0  0  0  0
    1.7210   -4.0038    0.0000 C   0  0  0  0  0  0  0  0  0  0  0  0
    2.5833   -4.5101    0.0000 C   0  0  0  0  0  0  0  0  0  0  0  0
    3.4561   -4.0114    0.0000 C   0  0  0  0  0  0  0  0  0  0  0  0
    4.3184   -4.5177    0.0000 Cl  0  0  0  0  0  0  0  0  0  0  0  0
    3.4664   -3.0063    0.0000 C   0  0  0  0  0  0  0  0  0  0  0  0
    2.5952   -2.5050    0.0000 C   0  0  0  0  0  0  0  0  0  0  0  0
    2.5966   -1.5050    0.0000 C   0  0  0  0  0  0  0  0  0  0  0  0
    1.7313   -1.0038    0.0000 C   0  0  0  0  0  0  0  0  0  0  0  0
    0.8646   -1.5025    0.0000 O   0  0  0  0  0  0  0  0  0  0  0  0
    1.7328   -0.0038    0.0000 N   0  0  0  0  0  0  0  0  0  0  0  0
    0.8675    0.4975    0.0000 C   0  0  0  0  0  0  0  0  0  0  0  0
    0.0000    0.0000    0.0000 C   0  0  0  0  0  0  0  0  0  0  0  0
   -0.8675    0.4975    0.0000 C   0  0  0  0  0  0  0  0  0  0  0  0
   -0.8675    1.5027    0.0000 C   0  0  0  0  0  0  0  0  0  0  0  0
    0.0000    2.0104    0.0000 N   0  0  0  0  0  0  0  0  0  0  0  0
    0.8675    1.5027    0.0000 C   0  0  0  0  0  0  0  0  0  0  0  0
    1.7350    2.0001    0.0000 C   0  0  0  0  0  0  0  0  0  0  0  0
    1.7379    3.0001    0.0000 C   0  0  0  0  0  0  0  0  0  0  0  0
  1  7  1  0  0  0  0
  1  2  2  0  0  0  0
  2  3  1  0  0  0  0
  3  4  2  0  0  0  0
  4  5  1  0  0  0  0
  4  6  1  0  0  0  0
  6  7  2  0  0  0  0
  7  8  1  0  0  0  0
  8  9  1  0  0  0  0
  9 10  2  0  0  0  0
  9 11  1  0  0  0  0
 11 12  1  0  0  0  0
 12 17  1  0  0  0  0
 12 13  2  0  0  0  0
 13 14  1  0  0  0  0
 14 15  2  0  0  0  0
 15 16  1  0  0  0  0
 16 17  2  0  0  0  0
 17 18  1  0  0  0  0
 18 19  2  0  0  0  0
M  END
$$$$
AGN-NEW-c7b-2
  -OEChem-03222016562D

 19 20  0     0  0  0  0  0  0999 V2000
    3.4665   -3.0063    0.0000 C   0  0  0  0  0  0  0  0  0  0  0  0
    2.5952   -2.5050    0.0000 C   0  0  0  0  0  0  0  0  0  0  0  0
    2.5966   -1.5050    0.0000 C   0  0  0  0  0  0  0  0  0  0  0  0
    1.7313   -1.0038    0.0000 C   0  0  0  0  0  0  0  0  0  0  0  0
    1.7328   -0.0038    0.0000 N   0  0  0  0  0  0  0  0  0  0  0  0
    0.8675    0.4975    0.0000 C   0  0  0  0  0  0  0  0  0  0  0  0
    0.8675    1.5027    0.0000 C   0  0  0  0  0  0  0  0  0  0  0  0
    1.7350    2.0001    0.0000 C   0  0  0  0  0  0  0  0  0  0  0  0
    1.7379    3.0001    0.0000 C   0  0  0  0  0  0  0  0  0  0  0  0
   -0.0000    2.0104    0.0000 N   0  0  0  0  0  0  0  0  0  0  0  0
   -0.8675    1.5027    0.0000 C   0  0  0  0  0  0  0  0  0  0  0  0
   -0.8675    0.4975    0.0000 C   0  0  0  0  0  0  0  0  0  0  0  0
    0.0000    0.0000    0.0000 C   0  0  0  0  0  0  0  0  0  0  0  0
    0.8646   -1.5025    0.0000 O   0  0  0  0  0  0  0  0  0  0  0  0
    1.7225   -3.0037    0.0000 C   0  0  0  0  0  0  0  0  0  0  0  0
    1.7300   -4.0089    0.0000 C   0  0  0  0  0  0  0  0  0  0  0  0
    0.8662   -4.5127    0.0000 C   0  0  0  0  0  0  0  0  0  0  0  0
    2.6012   -4.5102    0.0000 C   0  0  0  0  0  0  0  0  0  0  0  0
    3.4651   -4.0063    0.0000 C   0  0  0  0  0  0  0  0  0  0  0  0
  1 19  2  0  0  0  0
  1  2  1  0  0  0  0
  2  3  1  0  0  0  0
  3  4  1  0  0  0  0
  4  5  1  0  0  0  0
  5  6  1  0  0  0  0
  6 13  2  0  0  0  0
  6  7  1  0  0  0  0
  7  8  1  0  0  0  0
  8  9  2  0  0  0  0
  7 10  2  0  0  0  0
 10 11  1  0  0  0  0
 11 12  2  0  0  0  0
 12 13  1  0  0  0  0
  4 14  2  0  0  0  0
  2 15  2  0  0  0  0
 15 16  1  0  0  0  0
 16 17  1  0  0  0  0
 16 18  2  0  0  0  0
 18 19  1  0  0  0  0
M  END
$$$$
AGN-NEW-c7b-3
  -OEChem-03222016562D

 19 20  0     0  0  0  0  0  0999 V2000
    1.7225   -3.0038    0.0000 C   0  0  0  0  0  0  0  0  0  0  0  0
    1.7210   -4.0038    0.0000 C   0  0  0  0  0  0  0  0  0  0  0  0
    2.5833   -4.5101    0.0000 C   0  0  0  0  0  0  0  0  0  0  0  0
    3.4561   -4.0114    0.0000 C   0  0  0  0  0  0  0  0  0  0  0  0
    4.3184   -4.5177    0.0000 C   0  0  0  0  0  0  0  0  0  0  0  0
    3.4664   -3.0063    0.0000 C   0  0  0  0  0  0  0  0  0  0  0  0
    2.5952   -2.5050    0.0000 C   0  0  0  0  0  0  0  0  0  0  0  0
    2.5966   -1.5050    0.0000 C   0  0  0  0  0  0  0  0  0  0  0  0
    1.7313   -1.0038    0.0000 C   0  0  0  0  0  0  0  0  0  0  0  0
    0.8646   -1.5025    0.0000 O   0  0  0  0  0  0  0  0  0  0  0  0
    1.7328   -0.0038    0.0000 N   0  0  0  0  0  0  0  0  0  0  0  0
    0.8675    0.4975    0.0000 C   0  0  0  0  0  0  0  0  0  0  0  0
    0.0000    0.0000    0.0000 C   0  0  0  0  0  0  0  0  0  0  0  0
   -0.8675    0.4975    0.0000 C   0  0  0  0  0  0  0  0  0  0  0  0
   -0.8675    1.5027    0.0000 C   0  0  0  0  0  0  0  0  0  0  0  0
    0.0000    2.0104    0.0000 N   0  0  0  0  0  0  0  0  0  0  0  0
    0.8675    1.5027    0.0000 C   0  0  0  0  0  0  0  0  0  0  0  0
    1.7350    2.0001    0.0000 C   0  0  0  0  0  0  0  0  0  0  0  0
    2.6025    2.4976    0.0000 N   0  0  0  0  0  0  0  0  0  0  0  0
  1  7  2  0  0  0  0
  1  2  1  0  0  0  0
  2  3  2  0  0  0  0
  3  4  1  0  0  0  0
  4  5  1  0  0  0  0
  4  6  2  0  0  0  0
  6  7  1  0  0  0  0
  7  8  1  0  0  0  0
  8  9  1  0  0  0  0
  9 10  2  0  0  0  0
  9 11  1  0  0  0  0
 11 12  1  0  0  0  0
 12 17  2  0  0  0  0
 12 13  1  0  0  0  0
 13 14  2  0  0  0  0
 14 15  1  0  0  0  0
 15 16  2  0  0  0  0
 16 17  1  0  0  0  0
 17 18  1  0  0  0  0
 18 19  3  0  0  0  0
M  END
$$$$
AGN-NEW-c7b-4
  -OEChem-03222016562D

 19 20  0     0  0  0  0  0  0999 V2000
    3.4665   -3.0063    0.0000 C   0  0  0  0  0  0  0  0  0  0  0  0
    2.5952   -2.5050    0.0000 C   0  0  0  0  0  0  0  0  0  0  0  0
    2.5966   -1.5050    0.0000 C   0  0  0  0  0  0  0  0  0  0  0  0
    1.7313   -1.0038    0.0000 C   0  0  0  0  0  0  0  0  0  0  0  0
    1.7328   -0.0038    0.0000 N   0  0  0  0  0  0  0  0  0  0  0  0
    0.8675    0.4975    0.0000 C   0  0  0  0  0  0  0  0  0  0  0  0
    0.8675    1.5027    0.0000 C   0  0  0  0  0  0  0  0  0  0  0  0
    1.7350    2.0001    0.0000 C   0  0  0  0  0  0  0  0  0  0  0  0
    2.6025    2.4976    0.0000 N   0  0  0  0  0  0  0  0  0  0  0  0
   -0.0000    2.0104    0.0000 N   0  0  0  0  0  0  0  0  0  0  0  0
   -0.8675    1.5027    0.0000 C   0  0  0  0  0  0  0  0  0  0  0  0
   -0.8675    0.4975    0.0000 C   0  0  0  0  0  0  0  0  0  0  0  0
    0.0000    0.0000    0.0000 C   0  0  0  0  0  0  0  0  0  0  0  0
    0.8646   -1.5025    0.0000 O   0  0  0  0  0  0  0  0  0  0  0  0
    1.7225   -3.0037    0.0000 C   0  0  0  0  0  0  0  0  0  0  0  0
    1.7300   -4.0089    0.0000 C   0  0  0  0  0  0  0  0  0  0  0  0
    0.8662   -4.5127    0.0000 Cl  0  0  0  0  0  0  0  0  0  0  0  0
    2.6012   -4.5102    0.0000 C   0  0  0  0  0  0  0  0  0  0  0  0
    3.4651   -4.0063    0.0000 C   0  0  0  0  0  0  0  0  0  0  0  0
  1 19  2  0  0  0  0
  1  2  1  0  0  0  0
  2  3  1  0  0  0  0
  3  4  1  0  0  0  0
  4  5  1  0  0  0  0
  5  6  1  0  0  0  0
  6 13  2  0  0  0  0
  6  7  1  0  0  0  0
  7  8  1  0  0  0  0
  8  9  3  0  0  0  0
  7 10  2  0  0  0  0
 10 11  1  0  0  0  0
 11 12  2  0  0  0  0
 12 13  1  0  0  0  0
  4 14  2  0  0  0  0
  2 15  2  0  0  0  0
 15 16  1  0  0  0  0
 16 17  1  0  0  0  0
 16 18  2  0  0  0  0
 18 19  1  0  0  0  0
M  END
$$$$
AGN-NEW-c7b-5
  -OEChem-03222016562D

 19 20  0     0  0  0  0  0  0999 V2000
    1.7225   -3.0038    0.0000 C   0  0  0  0  0  0  0  0  0  0  0  0
    1.7210   -4.0038    0.0000 C   0  0  0  0  0  0  0  0  0  0  0  0
    2.5833   -4.5101    0.0000 C   0  0  0  0  0  0  0  0  0  0  0  0
    3.4561   -4.0114    0.0000 C   0  0  0  0  0  0  0  0  0  0  0  0
    4.3184   -4.5177    0.0000 Cl  0  0  0  0  0  0  0  0  0  0  0  0
    3.4664   -3.0063    0.0000 C   0  0  0  0  0  0  0  0  0  0  0  0
    2.5952   -2.5050    0.0000 C   0  0  0  0  0  0  0  0  0  0  0  0
    2.5966   -1.5050    0.0000 C   0  0  0  0  0  0  0  0  0  0  0  0
    1.7313   -1.0038    0.0000 C   0  0  0  0  0  0  0  0  0  0  0  0
    0.8646   -1.5025    0.0000 O   0  0  0  0  0  0  0  0  0  0  0  0
    1.7328   -0.0038    0.0000 N   0  0  0  0  0  0  0  0  0  0  0  0
    0.8675    0.4975    0.0000 C   0  0  0  0  0  0  0  0  0  0  0  0
    0.0000    0.0000    0.0000 C   0  0  0  0  0  0  0  0  0  0  0  0
   -0.8675    0.4975    0.0000 C   0  0  0  0  0  0  0  0  0  0  0  0
   -0.8675    1.5027    0.0000 C   0  0  0  0  0  0  0  0  0  0  0  0
    0.0000    2.0104    0.0000 N   0  0  0  0  0  0  0  0  0  0  0  0
    0.8675    1.5027    0.0000 C   0  0  0  0  0  0  0  0  0  0  0  0
    1.7350    2.0001    0.0000 C   0  0  0  0  0  0  0  0  0  0  0  0
    2.6025    2.4976    0.0000 C   0  0  0  0  0  0  0  0  0  0  0  0
  1  7  2  0  0  0  0
  1  2  1  0  0  0  0
  2  3  2  0  0  0  0
  3  4  1  0  0  0  0
  4  5  1  0  0  0  0
  4  6  2  0  0  0  0
  6  7  1  0  0  0  0
  7  8  1  0  0  0  0
  8  9  1  0  0  0  0
  9 10  2  0  0  0  0
  9 11  1  0  0  0  0
 11 12  1  0  0  0  0
 12 17  2  0  0  0  0
 12 13  1  0  0  0  0
 13 14  2  0  0  0  0
 14 15  1  0  0  0  0
 15 16  2  0  0  0  0
 16 17  1  0  0  0  0
 17 18  1  0  0  0  0
 18 19  3  0  0  0  0
M  END
$$$$
AGN-NEW-c7b-6
  -OEChem-03222016562D

 19 20  0     0  0  0  0  0  0999 V2000
    3.4665   -3.0063    0.0000 C   0  0  0  0  0  0  0  0  0  0  0  0
    2.5952   -2.5050    0.0000 C   0  0  0  0  0  0  0  0  0  0  0  0
    2.5966   -1.5050    0.0000 C   0  0  0  0  0  0  0  0  0  0  0  0
    1.7313   -1.0038    0.0000 C   0  0  0  0  0  0  0  0  0  0  0  0
    1.7328   -0.0038    0.0000 N   0  0  0  0  0  0  0  0  0  0  0  0
    0.8675    0.4975    0.0000 C   0  0  0  0  0  0  0  0  0  0  0  0
    0.8675    1.5027    0.0000 C   0  0  0  0  0  0  0  0  0  0  0  0
    1.7350    2.0001    0.0000 C   0  0  0  0  0  0  0  0  0  0  0  0
    2.6025    2.4976    0.0000 C   0  0  0  0  0  0  0  0  0  0  0  0
   -0.0000    2.0104    0.0000 N   0  0  0  0  0  0  0  0  0  0  0  0
   -0.8675    1.5027    0.0000 C   0  0  0  0  0  0  0  0  0  0  0  0
   -0.8675    0.4975    0.0000 C   0  0  0  0  0  0  0  0  0  0  0  0
    0.0000    0.0000    0.0000 C   0  0  0  0  0  0  0  0  0  0  0  0
    0.8646   -1.5025    0.0000 O   0  0  0  0  0  0  0  0  0  0  0  0
    1.7225   -3.0037    0.0000 C   0  0  0  0  0  0  0  0  0  0  0  0
    1.7300   -4.0089    0.0000 C   0  0  0  0  0  0  0  0  0  0  0  0
    0.8662   -4.5127    0.0000 C   0  0  0  0  0  0  0  0  0  0  0  0
    2.6012   -4.5102    0.0000 C   0  0  0  0  0  0  0  0  0  0  0  0
    3.4651   -4.0063    0.0000 C   0  0  0  0  0  0  0  0  0  0  0  0
  1 19  2  0  0  0  0
  1  2  1  0  0  0  0
  2  3  1  0  0  0  0
  3  4  1  0  0  0  0
  4  5  1  0  0  0  0
  5  6  1  0  0  0  0
  6 13  2  0  0  0  0
  6  7  1  0  0  0  0
  7  8  1  0  0  0  0
  8  9  3  0  0  0  0
  7 10  2  0  0  0  0
 10 11  1  0  0  0  0
 11 12  2  0  0  0  0
 12 13  1  0  0  0  0
  4 14  2  0  0  0  0
  2 15  2  0  0  0  0
 15 16  1  0  0  0  0
 16 17  1  0  0  0  0
 16 18  2  0  0  0  0
 18 19  1  0  0  0  0
M  END
$$$$
PAU-WEI-c6d-1
  -OEChem-03222016562D

 28 30  0     1  0  0  0  0  0999 V2000
   -0.2991   -1.7060    0.0000 O   0  0  0  0  0  0  0  0  0  0  0  0
   -0.6420   -0.7667    0.0000 C   0  0  0  0  0  0  0  0  0  0  0  0
    0.0000    0.0000    0.0000 C   0  0  2  0  0  0  0  0  0  0  0  0
    1.1236   -1.3417    0.0000 H   0  0  0  0  0  0  0  0  0  0  0  0
    0.8675    0.4975    0.0000 C   0  0  1  0  0  0  0  0  0  0  0  0
    1.2077   -0.4429    0.0000 H   0  0  0  0  0  0  0  0  0  0  0  0
    1.8525    0.6702    0.0000 C   0  0  0  0  0  0  0  0  0  0  0  0
    2.1954    1.6096    0.0000 C   0  0  0  0  0  0  0  0  0  0  0  0
    3.1804    1.7823    0.0000 C   0  0  0  0  0  0  0  0  0  0  0  0
    3.5223    2.7275    0.0000 C   0  0  0  0  0  0  0  0  0  0  0  0
    4.5073    2.9003    0.0000 C   0  0  0  0  0  0  0  0  0  0  0  0
    5.1538    2.1373    0.0000 C   0  0  0  0  0  0  0  0  0  0  0  0
    4.8119    1.1921    0.0000 C   0  0  0  0  0  0  0  0  0  0  0  0
    3.8235    1.0097    0.0000 C   0  0  0  0  0  0  0  0  0  0  0  0
    0.8675    1.5027    0.0000 C   0  0  0  0  0  0  0  0  0  0  0  0
   -0.0000    2.0104    0.0000 N   0  0  0  0  0  0  0  0  0  0  0  0
    0.0000    3.0104    0.0000 C   0  0  0  0  0  0  0  0  0  0  0  0
    0.8660    3.5104    0.0000 O   0  0  0  0  0  0  0  0  0  0  0  0
   -0.8660    3.5104    0.0000 C   0  0  0  0  0  0  0  0  0  0  0  0
   -0.8660    4.5104    0.0000 Cl  0  0  0  0  0  0  0  0  0  0  0  0
   -0.8675    1.5027    0.0000 C   0  0  0  0  0  0  0  0  0  0  0  0
   -0.8675    0.4975    0.0000 C   0  0  0  0  0  0  0  0  0  0  0  0
   -1.6270   -0.5940    0.0000 N   0  0  0  0  0  0  0  0  0  0  0  0
   -2.2769   -1.3608    0.0000 C   0  0  0  0  0  0  0  0  0  0  0  0
   -3.2670   -1.1872    0.0000 C   0  0  0  0  0  0  0  0  0  0  0  0
   -3.6072   -0.2468    0.0000 C   0  0  0  0  0  0  0  0  0  0  0  0
   -2.9674    0.5218    0.0000 C   0  0  0  0  0  0  0  0  0  0  0  0
   -1.9773    0.3482    0.0000 C   0  0  0  0  0  0  0  0  0  0  0  0
  1  2  2  0  0  0  0
  2  3  1  0  0  0  0
  3  4  1  6  0  0  0
  3 22  1  0  0  0  0
  3  5  1  0  0  0  0
  5  6  1  1  0  0  0
  5  7  1  0  0  0  0
  7  8  1  0  0  0  0
  8  9  1  0  0  0  0
  9 14  2  0  0  0  0
  9 10  1  0  0  0  0
 10 11  2  0  0  0  0
 11 12  1  0  0  0  0
 12 13  2  0  0  0  0
 13 14  1  0  0  0  0
  5 15  1  0  0  0  0
 15 16  1  0  0  0  0
 16 17  1  0  0  0  0
 17 18  2  0  0  0  0
 17 19  1  0  0  0  0
 19 20  1  0  0  0  0
 16 21  1  0  0  0  0
 21 22  1  0  0  0  0
  2 23  1  0  0  0  0
 23 28  1  0  0  0  0
 23 24  1  0  0  0  0
 24 25  1  0  0  0  0
 25 26  1  0  0  0  0
 26 27  1  0  0  0  0
 27 28  1  0  0  0  0
M  END
$$$$
AGN-NEW-c19-1
  -OEChem-03222016562D

 36 39  0     0  0  0  0  0  0999 V2000
    0.0015   -1.9975    0.0000 C   0  0  0  0  0  0  0  0  0  0  0  0
    0.8675   -1.4975    0.0000 N   0  0  0  0  0  0  0  0  0  0  0  0
    0.8675   -0.4975    0.0000 C   0  0  0  0  0  0  0  0  0  0  0  0
    1.7350    0.0000    0.0000 N   0  0  0  0  0  0  0  0  0  0  0  0
    1.7350    1.0052    0.0000 C   0  0  0  0  0  0  0  0  0  0  0  0
    2.6025    1.5026    0.0000 N   0  0  0  0  0  0  0  0  0  0  0  0
    2.6054    2.5026    0.0000 C   0  0  0  0  0  0  0  0  0  0  0  0
    1.7409    3.0052    0.0000 N   0  0  0  0  0  0  0  0  0  0  0  0
    1.7439    4.0052    0.0000 C   0  0  0  0  0  0  0  0  0  0  0  0
    2.6151    4.5065    0.0000 C   0  0  0  0  0  0  0  0  0  0  0  0
    3.4789    4.0026    0.0000 C   0  0  0  0  0  0  0  0  0  0  0  0
    2.6226    5.5116    0.0000 N   0  0  0  0  0  0  0  0  0  0  0  0
    1.7499    6.0103    0.0000 C   0  0  0  0  0  0  0  0  0  0  0  0
    0.8786    5.5090    0.0000 C   0  0  0  0  0  0  0  0  0  0  0  0
    0.8800    4.5090    0.0000 C   0  0  0  0  0  0  0  0  0  0  0  0
    0.0132    4.0103    0.0000 C   0  0  0  0  0  0  0  0  0  0  0  0
   -0.8520    4.5116    0.0000 N   0  0  0  0  0  0  0  0  0  0  0  0
   -0.8476    5.5116    0.0000 C   0  0  0  0  0  0  0  0  0  0  0  0
   -1.7174    6.0155    0.0000 C   0  0  0  0  0  0  0  0  0  0  0  0
   -2.5916    5.5194    0.0000 O   0  0  0  0  0  0  0  0  0  0  0  0
   -2.5872    4.5143    0.0000 C   0  0  0  0  0  0  0  0  0  0  0  0
   -1.7174    4.0104    0.0000 C   0  0  0  0  0  0  0  0  0  0  0  0
    3.4729    3.0001    0.0000 O   0  0  0  0  0  0  0  0  0  0  0  0
    3.4670    1.0001    0.0000 C   0  0  0  0  0  0  0  0  0  0  0  0
    4.3345    1.4975    0.0000 C   0  0  0  0  0  0  0  0  0  0  0  0
    4.3345    2.5027    0.0000 N   0  0  0  0  0  0  0  0  0  0  0  0
    5.2020    3.0002    0.0000 C   0  0  0  0  0  0  0  0  0  0  0  0
    5.2020    4.0002    0.0000 C   0  0  0  0  0  0  0  0  0  0  0  0
    5.2020    5.0002    0.0000 C   0  0  0  0  0  0  0  0  0  0  0  0
    6.0695    2.5027    0.0000 C   0  0  0  0  0  0  0  0  0  0  0  0
    6.0695    1.4975    0.0000 C   0  0  0  0  0  0  0  0  0  0  0  0
    5.2020    0.9898    0.0000 N   0  0  0  0  0  0  0  0  0  0  0  0
    0.8675    1.5129    0.0000 N   0  0  0  0  0  0  0  0  0  0  0  0
    0.0000    1.0052    0.0000 C   0  0  0  0  0  0  0  0  0  0  0  0
    0.0000    0.0000    0.0000 C   0  0  0  0  0  0  0  0  0  0  0  0
    1.7335   -1.9975    0.0000 C   0  0  0  0  0  0  0  0  0  0  0  0
  1  2  1  0  0  0  0
  2  3  1  0  0  0  0
  3 35  2  0  0  0  0
  3  4  1  0  0  0  0
  4  5  2  0  0  0  0
  5  6  1  0  0  0  0
  6  7  1  0  0  0  0
  7  8  1  0  0  0  0
  8  9  1  0  0  0  0
  9 15  1  0  0  0  0
  9 10  2  0  0  0  0
 10 11  1  0  0  0  0
 10 12  1  0  0  0  0
 12 13  2  0  0  0  0
 13 14  1  0  0  0  0
 14 15  2  0  0  0  0
 15 16  1  0  0  0  0
 16 17  1  0  0  0  0
 17 22  1  0  0  0  0
 17 18  1  0  0  0  0
 18 19  1  0  0  0  0
 19 20  1  0  0  0  0
 20 21  1  0  0  0  0
 21 22  1  0  0  0  0
  7 23  2  0  0  0  0
  6 24  1  0  0  0  0
 24 25  1  0  0  0  0
 25 32  2  0  0  0  0
 25 26  1  0  0  0  0
 26 27  2  0  0  0  0
 27 28  1  0  0  0  0
 28 29  3  0  0  0  0
 27 30  1  0  0  0  0
 30 31  2  0  0  0  0
 31 32  1  0  0  0  0
  5 33  1  0  0  0  0
 33 34  2  0  0  0  0
 34 35  1  0  0  0  0
  2 36  1  0  0  0  0
M  END
$$$$
AGN-NEW-c19-2
  -OEChem-03222016562D

 36 39  0     0  0  0  0  0  0999 V2000
   -0.8660   -1.5000    0.0000 C   0  0  0  0  0  0  0  0  0  0  0  0
    0.0000   -1.0000    0.0000 N   0  0  0  0  0  0  0  0  0  0  0  0
    0.0000    0.0000    0.0000 C   0  0  0  0  0  0  0  0  0  0  0  0
    0.8675    0.4975    0.0000 C   0  0  0  0  0  0  0  0  0  0  0  0
    0.8675    1.5027    0.0000 C   0  0  0  0  0  0  0  0  0  0  0  0
    1.7350    2.0001    0.0000 N   0  0  0  0  0  0  0  0  0  0  0  0
    1.7379    3.0001    0.0000 C   0  0  0  0  0  0  0  0  0  0  0  0
    0.8734    3.5027    0.0000 N   0  0  0  0  0  0  0  0  0  0  0  0
    0.8764    4.5027    0.0000 C   0  0  0  0  0  0  0  0  0  0  0  0
    1.7476    5.0040    0.0000 C   0  0  0  0  0  0  0  0  0  0  0  0
    2.6114    4.5001    0.0000 C   0  0  0  0  0  0  0  0  0  0  0  0
    1.7551    6.0091    0.0000 N   0  0  0  0  0  0  0  0  0  0  0  0
    0.8824    6.5078    0.0000 C   0  0  0  0  0  0  0  0  0  0  0  0
    0.0111    6.0065    0.0000 C   0  0  0  0  0  0  0  0  0  0  0  0
    0.0125    5.0065    0.0000 C   0  0  0  0  0  0  0  0  0  0  0  0
   -0.8543    4.5078    0.0000 C   0  0  0  0  0  0  0  0  0  0  0  0
   -1.7195    5.0091    0.0000 N   0  0  0  0  0  0  0  0  0  0  0  0
   -1.7151    6.0091    0.0000 C   0  0  0  0  0  0  0  0  0  0  0  0
   -2.5849    6.5130    0.0000 C   0  0  0  0  0  0  0  0  0  0  0  0
   -3.4591    6.0169    0.0000 O   0  0  0  0  0  0  0  0  0  0  0  0
   -3.4547    5.0118    0.0000 C   0  0  0  0  0  0  0  0  0  0  0  0
   -2.5849    4.5079    0.0000 C   0  0  0  0  0  0  0  0  0  0  0  0
    2.6054    3.4976    0.0000 O   0  0  0  0  0  0  0  0  0  0  0  0
    2.5995    1.4976    0.0000 C   0  0  0  0  0  0  0  0  0  0  0  0
    3.4670    1.9950    0.0000 C   0  0  0  0  0  0  0  0  0  0  0  0
    4.3345    1.4873    0.0000 N   0  0  0  0  0  0  0  0  0  0  0  0
    5.2020    1.9950    0.0000 C   0  0  0  0  0  0  0  0  0  0  0  0
    6.0695    1.4976    0.0000 C   0  0  0  0  0  0  0  0  0  0  0  0
    6.9370    1.0001    0.0000 C   0  0  0  0  0  0  0  0  0  0  0  0
    5.2020    3.0002    0.0000 C   0  0  0  0  0  0  0  0  0  0  0  0
    4.3345    3.4977    0.0000 C   0  0  0  0  0  0  0  0  0  0  0  0
    3.4670    3.0002    0.0000 C   0  0  0  0  0  0  0  0  0  0  0  0
   -0.0000    2.0104    0.0000 N   0  0  0  0  0  0  0  0  0  0  0  0
   -0.8675    1.5027    0.0000 C   0  0  0  0  0  0  0  0  0  0  0  0
   -0.8675    0.4975    0.0000 C   0  0  0  0  0  0  0  0  0  0  0  0
    0.8660   -1.5000    0.0000 C   0  0  0  0  0  0  0  0  0  0  0  0
  1  2  1  0  0  0  0
  2  3  1  0  0  0  0
  3 35  2  0  0  0  0
  3  4  1  0  0  0  0
  4  5  2  0  0  0  0
  5  6  1  0  0  0  0
  6  7  1  0  0  0  0
  7  8  1  0  0  0  0
  8  9  1  0  0  0  0
  9 15  1  0  0  0  0
  9 10  2  0  0  0  0
 10 11  1  0  0  0  0
 10 12  1  0  0  0  0
 12 13  2  0  0  0  0
 13 14  1  0  0  0  0
 14 15  2  0  0  0  0
 15 16  1  0  0  0  0
 16 17  1  0  0  0  0
 17 22  1  0  0  0  0
 17 18  1  0  0  0  0
 18 19  1  0  0  0  0
 19 20  1  0  0  0  0
 20 21  1  0  0  0  0
 21 22  1  0  0  0  0
  7 23  2  0  0  0  0
  6 24  1  0  0  0  0
 24 25  1  0  0  0  0
 25 32  2  0  0  0  0
 25 26  1  0  0  0  0
 26 27  2  0  0  0  0
 27 28  1  0  0  0  0
 28 29  3  0  0  0  0
 27 30  1  0  0  0  0
 30 31  2  0  0  0  0
 31 32  1  0  0  0  0
  5 33  1  0  0  0  0
 33 34  2  0  0  0  0
 34 35  1  0  0  0  0
  2 36  1  0  0  0  0
M  END
$$$$
PAU-WEI-b9b-1
  -OEChem-03222016562D

 26 28  0     1  0  0  0  0  0999 V2000
    1.7335    3.0129    0.0000 O   0  0  0  0  0  0  0  0  0  0  0  0
    0.8675    2.5129    0.0000 C   0  0  0  0  0  0  0  0  0  0  0  0
    0.8675    1.5129    0.0000 N   0  0  0  0  0  0  0  0  0  0  0  0
    0.0000    1.0052    0.0000 C   0  0  0  0  0  0  0  0  0  0  0  0
    0.0000    0.0000    0.0000 C   0  0  0  0  0  0  0  0  0  0  0  0
    0.8675   -0.4975    0.0000 N   0  0  0  0  0  0  0  0  0  0  0  0
    0.8675   -1.4975    0.0000 C   0  0  3  0  0  0  0  0  0  0  0  0
    1.7335   -1.9975    0.0000 C   0  0  0  0  0  0  0  0  0  0  0  0
    1.7306   -3.0026    0.0000 C   0  0  0  0  0  0  0  0  0  0  0  0
    2.6055   -3.4975    0.0000 C   0  0  0  0  0  0  0  0  0  0  0  0
    2.6114   -4.4975    0.0000 Cl  0  0  0  0  0  0  0  0  0  0  0  0
    3.4745   -2.9923    0.0000 C   0  0  0  0  0  0  0  0  0  0  0  0
    3.4686   -1.9923    0.0000 C   0  0  0  0  0  0  0  0  0  0  0  0
    2.6026   -1.4923    0.0000 C   0  0  0  0  0  0  0  0  0  0  0  0
    0.0015   -1.9975    0.0000 C   0  0  0  0  0  0  0  0  0  0  0  0
    0.0015   -2.9975    0.0000 C   0  0  0  0  0  0  0  0  0  0  0  0
   -0.8645   -3.4975    0.0000 C   0  0  0  0  0  0  0  0  0  0  0  0
   -0.8616   -4.5027    0.0000 C   0  0  0  0  0  0  0  0  0  0  0  0
   -1.7276   -5.0028    0.0000 C   0  0  0  0  0  0  0  0  0  0  0  0
   -2.5966   -4.5078    0.0000 C   0  0  0  0  0  0  0  0  0  0  0  0
   -2.5995   -3.5026    0.0000 C   0  0  0  0  0  0  0  0  0  0  0  0
   -1.7335   -2.9924    0.0000 C   0  0  0  0  0  0  0  0  0  0  0  0
    1.7350    0.0000    0.0000 C   0  0  0  0  0  0  0  0  0  0  0  0
    1.7350    1.0052    0.0000 C   0  0  0  0  0  0  0  0  0  0  0  0
    0.0015    3.0129    0.0000 C   0  0  0  0  0  0  0  0  0  0  0  0
    0.0015    4.0129    0.0000 Cl  0  0  0  0  0  0  0  0  0  0  0  0
  1  2  2  0  0  0  0
  2  3  1  0  0  0  0
  3 24  1  0  0  0  0
  3  4  1  0  0  0  0
  4  5  1  0  0  0  0
  5  6  1  0  0  0  0
  6  7  1  0  0  0  0
  7  8  1  0  0  0  0
  8 14  2  0  0  0  0
  8  9  1  0  0  0  0
  9 10  2  0  0  0  0
 10 11  1  0  0  0  0
 10 12  1  0  0  0  0
 12 13  2  0  0  0  0
 13 14  1  0  0  0  0
  7 15  1  0  0  0  0
 15 16  1  0  0  0  0
 16 17  1  0  0  0  0
 17 22  2  0  0  0  0
 17 18  1  0  0  0  0
 18 19  2  0  0  0  0
 19 20  1  0  0  0  0
 20 21  2  0  0  0  0
 21 22  1  0  0  0  0
  6 23  1  0  0  0  0
 23 24  1  0  0  0  0
  2 25  1  0  0  0  0
 25 26  1  0  0  0  0
M  END
$$$$
PAU-WEI-b9b-2
  -OEChem-03222016562D

 30 32  0     1  0  0  0  0  0999 V2000
    1.7335    3.0129    0.0000 O   0  0  0  0  0  0  0  0  0  0  0  0
    0.8675    2.5129    0.0000 C   0  0  0  0  0  0  0  0  0  0  0  0
    0.8675    1.5129    0.0000 N   0  0  0  0  0  0  0  0  0  0  0  0
    0.0000    1.0052    0.0000 C   0  0  0  0  0  0  0  0  0  0  0  0
    0.0000    0.0000    0.0000 C   0  0  0  0  0  0  0  0  0  0  0  0
    0.8675   -0.4975    0.0000 N   0  0  0  0  0  0  0  0  0  0  0  0
    0.8675   -1.4975    0.0000 C   0  0  3  0  0  0  0  0  0  0  0  0
    1.7335   -1.9975    0.0000 C   0  0  0  0  0  0  0  0  0  0  0  0
    1.7306   -3.0026    0.0000 C   0  0  0  0  0  0  0  0  0  0  0  0
    2.6055   -3.4975    0.0000 C   0  0  0  0  0  0  0  0  0  0  0  0
    2.6114   -4.4975    0.0000 Cl  0  0  0  0  0  0  0  0  0  0  0  0
    3.4745   -2.9923    0.0000 C   0  0  0  0  0  0  0  0  0  0  0  0
    3.4686   -1.9923    0.0000 C   0  0  0  0  0  0  0  0  0  0  0  0
    2.6026   -1.4923    0.0000 C   0  0  0  0  0  0  0  0  0  0  0  0
    0.0015   -1.9975    0.0000 C   0  0  0  0  0  0  0  0  0  0  0  0
    0.0015   -2.9975    0.0000 C   0  0  0  0  0  0  0  0  0  0  0  0
   -0.8645   -3.4975    0.0000 C   0  0  0  0  0  0  0  0  0  0  0  0
   -0.8616   -4.5027    0.0000 C   0  0  0  0  0  0  0  0  0  0  0  0
   -1.7276   -5.0028    0.0000 C   0  0  0  0  0  0  0  0  0  0  0  0
   -2.5966   -4.5078    0.0000 C   0  0  0  0  0  0  0  0  0  0  0  0
   -3.4604   -5.0116    0.0000 C   0  0  0  0  0  0  0  0  0  0  0  0
   -2.9566   -5.8754    0.0000 F   0  0  0  0  0  0  0  0  0  0  0  0
   -3.9642   -4.1478    0.0000 F   0  0  0  0  0  0  0  0  0  0  0  0
   -4.3242   -5.5154    0.0000 F   0  0  0  0  0  0  0  0  0  0  0  0
   -2.5995   -3.5026    0.0000 C   0  0  0  0  0  0  0  0  0  0  0  0
   -1.7335   -2.9924    0.0000 C   0  0  0  0  0  0  0  0  0  0  0  0
    1.7350    0.0000    0.0000 C   0  0  0  0  0  0  0  0  0  0  0  0
    1.7350    1.0052    0.0000 C   0  0  0  0  0  0  0  0  0  0  0  0
    0.0015    3.0129    0.0000 C   0  0  0  0  0  0  0  0  0  0  0  0
    0.0015    4.0129    0.0000 Cl  0  0  0  0  0  0  0  0  0  0  0  0
  1  2  2  0  0  0  0
  2  3  1  0  0  0  0
  3 28  1  0  0  0  0
  3  4  1  0  0  0  0
  4  5  1  0  0  0  0
  5  6  1  0  0  0  0
  6  7  1  0  0  0  0
  7  8  1  0  0  0  0
  8 14  2  0  0  0  0
  8  9  1  0  0  0  0
  9 10  2  0  0  0  0
 10 11  1  0  0  0  0
 10 12  1  0  0  0  0
 12 13  2  0  0  0  0
 13 14  1  0  0  0  0
  7 15  1  0  0  0  0
 15 16  1  0  0  0  0
 16 17  1  0  0  0  0
 17 26  2  0  0  0  0
 17 18  1  0  0  0  0
 18 19  2  0  0  0  0
 19 20  1  0  0  0  0
 20 21  1  0  0  0  0
 21 22  1  0  0  0  0
 21 23  1  0  0  0  0
 21 24  1  0  0  0  0
 20 25  2  0  0  0  0
 25 26  1  0  0  0  0
  6 27  1  0  0  0  0
 27 28  1  0  0  0  0
  2 29  1  0  0  0  0
 29 30  1  0  0  0  0
M  END
$$$$
PAU-WEI-b9b-3
  -OEChem-03222016562D

 27 29  0     1  0  0  0  0  0999 V2000
    1.7335    3.0129    0.0000 O   0  0  0  0  0  0  0  0  0  0  0  0
    0.8675    2.5129    0.0000 C   0  0  0  0  0  0  0  0  0  0  0  0
    0.8675    1.5129    0.0000 N   0  0  0  0  0  0  0  0  0  0  0  0
    0.0000    1.0052    0.0000 C   0  0  0  0  0  0  0  0  0  0  0  0
    0.0000    0.0000    0.0000 C   0  0  0  0  0  0  0  0  0  0  0  0
    0.8675   -0.4975    0.0000 N   0  0  0  0  0  0  0  0  0  0  0  0
    0.8675   -1.4975    0.0000 C   0  0  3  0  0  0  0  0  0  0  0  0
    1.7335   -1.9975    0.0000 C   0  0  0  0  0  0  0  0  0  0  0  0
    1.7306   -3.0026    0.0000 C   0  0  0  0  0  0  0  0  0  0  0  0
    2.6055   -3.4975    0.0000 C   0  0  0  0  0  0  0  0  0  0  0  0
    2.6114   -4.4975    0.0000 Cl  0  0  0  0  0  0  0  0  0  0  0  0
    3.4745   -2.9923    0.0000 C   0  0  0  0  0  0  0  0  0  0  0  0
    3.4686   -1.9923    0.0000 C   0  0  0  0  0  0  0  0  0  0  0  0
    2.6026   -1.4923    0.0000 C   0  0  0  0  0  0  0  0  0  0  0  0
    0.0015   -1.9975    0.0000 C   0  0  0  0  0  0  0  0  0  0  0  0
    0.0015   -2.9975    0.0000 C   0  0  0  0  0  0  0  0  0  0  0  0
   -0.8645   -3.4975    0.0000 C   0  0  0  0  0  0  0  0  0  0  0  0
   -0.8616   -4.5027    0.0000 C   0  0  0  0  0  0  0  0  0  0  0  0
   -1.7276   -5.0028    0.0000 C   0  0  0  0  0  0  0  0  0  0  0  0
   -2.5966   -4.5078    0.0000 C   0  0  0  0  0  0  0  0  0  0  0  0
   -3.4604   -5.0116    0.0000 C   0  0  0  0  0  0  0  0  0  0  0  0
   -2.5995   -3.5026    0.0000 C   0  0  0  0  0  0  0  0  0  0  0  0
   -1.7335   -2.9924    0.0000 C   0  0  0  0  0  0  0  0  0  0  0  0
    1.7350    0.0000    0.0000 C   0  0  0  0  0  0  0  0  0  0  0  0
    1.7350    1.0052    0.0000 C   0  0  0  0  0  0  0  0  0  0  0  0
    0.0015    3.0129    0.0000 C   0  0  0  0  0  0  0  0  0  0  0  0
    0.0015    4.0129    0.0000 Cl  0  0  0  0  0  0  0  0  0  0  0  0
  1  2  2  0  0  0  0
  2  3  1  0  0  0  0
  3 25  1  0  0  0  0
  3  4  1  0  0  0  0
  4  5  1  0  0  0  0
  5  6  1  0  0  0  0
  6  7  1  0  0  0  0
  7  8  1  0  0  0  0
  8 14  2  0  0  0  0
  8  9  1  0  0  0  0
  9 10  2  0  0  0  0
 10 11  1  0  0  0  0
 10 12  1  0  0  0  0
 12 13  2  0  0  0  0
 13 14  1  0  0  0  0
  7 15  1  0  0  0  0
 15 16  1  0  0  0  0
 16 17  1  0  0  0  0
 17 23  2  0  0  0  0
 17 18  1  0  0  0  0
 18 19  2  0  0  0  0
 19 20  1  0  0  0  0
 20 21  1  0  0  0  0
 20 22  2  0  0  0  0
 22 23  1  0  0  0  0
  6 24  1  0  0  0  0
 24 25  1  0  0  0  0
  2 26  1  0  0  0  0
 26 27  1  0  0  0  0
M  END
$$$$
PAU-WEI-b9b-4
  -OEChem-03222016562D

 27 29  0     1  0  0  0  0  0999 V2000
    1.7335    3.0129    0.0000 O   0  0  0  0  0  0  0  0  0  0  0  0
    0.8675    2.5129    0.0000 C   0  0  0  0  0  0  0  0  0  0  0  0
    0.8675    1.5129    0.0000 N   0  0  0  0  0  0  0  0  0  0  0  0
    0.0000    1.0052    0.0000 C   0  0  0  0  0  0  0  0  0  0  0  0
    0.0000    0.0000    0.0000 C   0  0  0  0  0  0  0  0  0  0  0  0
    0.8675   -0.4975    0.0000 N   0  0  0  0  0  0  0  0  0  0  0  0
    0.8675   -1.4975    0.0000 C   0  0  3  0  0  0  0  0  0  0  0  0
    1.7335   -1.9975    0.0000 C   0  0  0  0  0  0  0  0  0  0  0  0
    1.7306   -3.0026    0.0000 C   0  0  0  0  0  0  0  0  0  0  0  0
    2.6055   -3.4975    0.0000 C   0  0  0  0  0  0  0  0  0  0  0  0
    2.6114   -4.4975    0.0000 C   0  0  0  0  0  0  0  0  0  0  0  0
    2.6173   -5.4975    0.0000 N   0  0  0  0  0  0  0  0  0  0  0  0
    3.4745   -2.9923    0.0000 C   0  0  0  0  0  0  0  0  0  0  0  0
    3.4686   -1.9923    0.0000 C   0  0  0  0  0  0  0  0  0  0  0  0
    2.6026   -1.4923    0.0000 C   0  0  0  0  0  0  0  0  0  0  0  0
    0.0015   -1.9975    0.0000 C   0  0  0  0  0  0  0  0  0  0  0  0
    0.0015   -2.9975    0.0000 C   0  0  0  0  0  0  0  0  0  0  0  0
   -0.8645   -3.4975    0.0000 C   0  0  0  0  0  0  0  0  0  0  0  0
   -0.8616   -4.5027    0.0000 C   0  0  0  0  0  0  0  0  0  0  0  0
   -1.7276   -5.0028    0.0000 C   0  0  0  0  0  0  0  0  0  0  0  0
   -2.5966   -4.5078    0.0000 C   0  0  0  0  0  0  0  0  0  0  0  0
   -2.5995   -3.5026    0.0000 C   0  0  0  0  0  0  0  0  0  0  0  0
   -1.7335   -2.9924    0.0000 C   0  0  0  0  0  0  0  0  0  0  0  0
    1.7350    0.0000    0.0000 C   0  0  0  0  0  0  0  0  0  0  0  0
    1.7350    1.0052    0.0000 C   0  0  0  0  0  0  0  0  0  0  0  0
    0.0015    3.0129    0.0000 C   0  0  0  0  0  0  0  0  0  0  0  0
    0.0015    4.0129    0.0000 Cl  0  0  0  0  0  0  0  0  0  0  0  0
  1  2  2  0  0  0  0
  2  3  1  0  0  0  0
  3 25  1  0  0  0  0
  3  4  1  0  0  0  0
  4  5  1  0  0  0  0
  5  6  1  0  0  0  0
  6  7  1  0  0  0  0
  7  8  1  0  0  0  0
  8 15  2  0  0  0  0
  8  9  1  0  0  0  0
  9 10  2  0  0  0  0
 10 11  1  0  0  0  0
 11 12  3  0  0  0  0
 10 13  1  0  0  0  0
 13 14  2  0  0  0  0
 14 15  1  0  0  0  0
  7 16  1  0  0  0  0
 16 17  1  0  0  0  0
 17 18  1  0  0  0  0
 18 23  2  0  0  0  0
 18 19  1  0  0  0  0
 19 20  2  0  0  0  0
 20 21  1  0  0  0  0
 21 22  2  0  0  0  0
 22 23  1  0  0  0  0
  6 24  1  0  0  0  0
 24 25  1  0  0  0  0
  2 26  1  0  0  0  0
 26 27  1  0  0  0  0
M  END
$$$$
PAU-WEI-b9b-5
  -OEChem-03222016562D

 31 33  0     1  0  0  0  0  0999 V2000
    1.7335    3.0129    0.0000 O   0  0  0  0  0  0  0  0  0  0  0  0
    0.8675    2.5129    0.0000 C   0  0  0  0  0  0  0  0  0  0  0  0
    0.8675    1.5129    0.0000 N   0  0  0  0  0  0  0  0  0  0  0  0
    0.0000    1.0052    0.0000 C   0  0  0  0  0  0  0  0  0  0  0  0
    0.0000    0.0000    0.0000 C   0  0  0  0  0  0  0  0  0  0  0  0
    0.8675   -0.4975    0.0000 N   0  0  0  0  0  0  0  0  0  0  0  0
    0.8675   -1.4975    0.0000 C   0  0  3  0  0  0  0  0  0  0  0  0
    1.7335   -1.9975    0.0000 C   0  0  0  0  0  0  0  0  0  0  0  0
    1.7306   -3.0026    0.0000 C   0  0  0  0  0  0  0  0  0  0  0  0
    2.6055   -3.4975    0.0000 C   0  0  0  0  0  0  0  0  0  0  0  0
    2.6114   -4.4975    0.0000 C   0  0  0  0  0  0  0  0  0  0  0  0
    2.6173   -5.4975    0.0000 N   0  0  0  0  0  0  0  0  0  0  0  0
    3.4745   -2.9923    0.0000 C   0  0  0  0  0  0  0  0  0  0  0  0
    3.4686   -1.9923    0.0000 C   0  0  0  0  0  0  0  0  0  0  0  0
    2.6026   -1.4923    0.0000 C   0  0  0  0  0  0  0  0  0  0  0  0
    0.0015   -1.9975    0.0000 C   0  0  0  0  0  0  0  0  0  0  0  0
    0.0015   -2.9975    0.0000 C   0  0  0  0  0  0  0  0  0  0  0  0
   -0.8645   -3.4975    0.0000 C   0  0  0  0  0  0  0  0  0  0  0  0
   -0.8616   -4.5027    0.0000 C   0  0  0  0  0  0  0  0  0  0  0  0
   -1.7276   -5.0028    0.0000 C   0  0  0  0  0  0  0  0  0  0  0  0
   -2.5966   -4.5078    0.0000 C   0  0  0  0  0  0  0  0  0  0  0  0
   -3.4604   -5.0116    0.0000 C   0  0  0  0  0  0  0  0  0  0  0  0
   -2.9566   -5.8754    0.0000 F   0  0  0  0  0  0  0  0  0  0  0  0
   -3.9642   -4.1478    0.0000 F   0  0  0  0  0  0  0  0  0  0  0  0
   -4.3242   -5.5154    0.0000 F   0  0  0  0  0  0  0  0  0  0  0  0
   -2.5995   -3.5026    0.0000 C   0  0  0  0  0  0  0  0  0  0  0  0
   -1.7335   -2.9924    0.0000 C   0  0  0  0  0  0  0  0  0  0  0  0
    1.7350    0.0000    0.0000 C   0  0  0  0  0  0  0  0  0  0  0  0
    1.7350    1.0052    0.0000 C   0  0  0  0  0  0  0  0  0  0  0  0
    0.0015    3.0129    0.0000 C   0  0  0  0  0  0  0  0  0  0  0  0
    0.0015    4.0129    0.0000 Cl  0  0  0  0  0  0  0  0  0  0  0  0
  1  2  2  0  0  0  0
  2  3  1  0  0  0  0
  3 29  1  0  0  0  0
  3  4  1  0  0  0  0
  4  5  1  0  0  0  0
  5  6  1  0  0  0  0
  6  7  1  0  0  0  0
  7  8  1  0  0  0  0
  8 15  2  0  0  0  0
  8  9  1  0  0  0  0
  9 10  2  0  0  0  0
 10 11  1  0  0  0  0
 11 12  3  0  0  0  0
 10 13  1  0  0  0  0
 13 14  2  0  0  0  0
 14 15  1  0  0  0  0
  7 16  1  0  0  0  0
 16 17  1  0  0  0  0
 17 18  1  0  0  0  0
 18 27  2  0  0  0  0
 18 19  1  0  0  0  0
 19 20  2  0  0  0  0
 20 21  1  0  0  0  0
 21 22  1  0  0  0  0
 22 23  1  0  0  0  0
 22 24  1  0  0  0  0
 22 25  1  0  0  0  0
 21 26  2  0  0  0  0
 26 27  1  0  0  0  0
  6 28  1  0  0  0  0
 28 29  1  0  0  0  0
  2 30  1  0  0  0  0
 30 31  1  0  0  0  0
M  END
$$$$
PAU-WEI-b9b-6
  -OEChem-03222016562D

 28 30  0     1  0  0  0  0  0999 V2000
    1.7335    3.0129    0.0000 O   0  0  0  0  0  0  0  0  0  0  0  0
    0.8675    2.5129    0.0000 C   0  0  0  0  0  0  0  0  0  0  0  0
    0.8675    1.5129    0.0000 N   0  0  0  0  0  0  0  0  0  0  0  0
    0.0000    1.0052    0.0000 C   0  0  0  0  0  0  0  0  0  0  0  0
    0.0000    0.0000    0.0000 C   0  0  0  0  0  0  0  0  0  0  0  0
    0.8675   -0.4975    0.0000 N   0  0  0  0  0  0  0  0  0  0  0  0
    0.8675   -1.4975    0.0000 C   0  0  3  0  0  0  0  0  0  0  0  0
    1.7335   -1.9975    0.0000 C   0  0  0  0  0  0  0  0  0  0  0  0
    1.7306   -3.0026    0.0000 C   0  0  0  0  0  0  0  0  0  0  0  0
    2.6055   -3.4975    0.0000 C   0  0  0  0  0  0  0  0  0  0  0  0
    2.6114   -4.4975    0.0000 C   0  0  0  0  0  0  0  0  0  0  0  0
    2.6173   -5.4975    0.0000 N   0  0  0  0  0  0  0  0  0  0  0  0
    3.4745   -2.9923    0.0000 C   0  0  0  0  0  0  0  0  0  0  0  0
    3.4686   -1.9923    0.0000 C   0  0  0  0  0  0  0  0  0  0  0  0
    2.6026   -1.4923    0.0000 C   0  0  0  0  0  0  0  0  0  0  0  0
    0.0015   -1.9975    0.0000 C   0  0  0  0  0  0  0  0  0  0  0  0
    0.0015   -2.9975    0.0000 C   0  0  0  0  0  0  0  0  0  0  0  0
   -0.8645   -3.4975    0.0000 C   0  0  0  0  0  0  0  0  0  0  0  0
   -0.8616   -4.5027    0.0000 C   0  0  0  0  0  0  0  0  0  0  0  0
   -1.7276   -5.0028    0.0000 C   0  0  0  0  0  0  0  0  0  0  0  0
   -2.5966   -4.5078    0.0000 C   0  0  0  0  0  0  0  0  0  0  0  0
   -3.4604   -5.0116    0.0000 C   0  0  0  0  0  0  0  0  0  0  0  0
   -2.5995   -3.5026    0.0000 C   0  0  0  0  0  0  0  0  0  0  0  0
   -1.7335   -2.9924    0.0000 C   0  0  0  0  0  0  0  0  0  0  0  0
    1.7350    0.0000    0.0000 C   0  0  0  0  0  0  0  0  0  0  0  0
    1.7350    1.0052    0.0000 C   0  0  0  0  0  0  0  0  0  0  0  0
    0.0015    3.0129    0.0000 C   0  0  0  0  0  0  0  0  0  0  0  0
    0.0015    4.0129    0.0000 Cl  0  0  0  0  0  0  0  0  0  0  0  0
  1  2  2  0  0  0  0
  2  3  1  0  0  0  0
  3 26  1  0  0  0  0
  3  4  1  0  0  0  0
  4  5  1  0  0  0  0
  5  6  1  0  0  0  0
  6  7  1  0  0  0  0
  7  8  1  0  0  0  0
  8 15  2  0  0  0  0
  8  9  1  0  0  0  0
  9 10  2  0  0  0  0
 10 11  1  0  0  0  0
 11 12  3  0  0  0  0
 10 13  1  0  0  0  0
 13 14  2  0  0  0  0
 14 15  1  0  0  0  0
  7 16  1  0  0  0  0
 16 17  1  0  0  0  0
 17 18  1  0  0  0  0
 18 24  2  0  0  0  0
 18 19  1  0  0  0  0
 19 20  2  0  0  0  0
 20 21  1  0  0  0  0
 21 22  1  0  0  0  0
 21 23  2  0  0  0  0
 23 24  1  0  0  0  0
  6 25  1  0  0  0  0
 25 26  1  0  0  0  0
  2 27  1  0  0  0  0
 27 28  1  0  0  0  0
M  END
$$$$
PAU-WEI-b9b-7
  -OEChem-03222016562D

 34 37  0     1  0  0  0  0  0999 V2000
    5.2071    4.0190    0.0000 O   0  0  0  0  0  0  0  0  0  0  0  0
    4.3411    4.5190    0.0000 C   0  0  0  0  0  0  0  0  0  0  0  0
    3.4751    4.0190    0.0000 N   0  0  0  0  0  0  0  0  0  0  0  0
    2.6017    4.5164    0.0000 C   0  0  0  0  0  0  0  0  0  0  0  0
    1.7311    4.0138    0.0000 C   0  0  0  0  0  0  0  0  0  0  0  0
    1.7340    3.0138    0.0000 N   0  0  0  0  0  0  0  0  0  0  0  0
    0.8680    2.5138    0.0000 C   0  0  3  0  0  0  0  0  0  0  0  0
    0.8680    1.5138    0.0000 C   0  0  0  0  0  0  0  0  0  0  0  0
    0.0000    1.0058    0.0000 C   0  0  0  0  0  0  0  0  0  0  0  0
    0.0000    0.0000    0.0000 C   0  0  0  0  0  0  0  0  0  0  0  0
    0.8680   -0.4978    0.0000 C   0  0  0  0  0  0  0  0  0  0  0  0
    1.7360   -0.0012    0.0000 C   0  0  0  0  0  0  0  0  0  0  0  0
    2.6938   -0.3125    0.0000 C   0  0  0  0  0  0  0  0  0  0  0  0
    3.0028   -1.2636    0.0000 C   0  0  0  0  0  0  0  0  0  0  0  0
    3.9809   -1.4715    0.0000 C   0  0  0  0  0  0  0  0  0  0  0  0
    4.2899   -2.4226    0.0000 N   0  0  0  0  0  0  0  0  0  0  0  0
    5.2680   -2.6306    0.0000 C   0  0  0  0  0  0  0  0  0  0  0  0
    5.9372   -1.8874    0.0000 O   0  0  0  0  0  0  0  0  0  0  0  0
    5.5770   -3.5816    0.0000 C   0  0  0  0  0  0  0  0  0  0  0  0
    3.2858    0.5023    0.0000 C   0  0  0  0  0  0  0  0  0  0  0  0
    2.6938    1.3169    0.0000 N   0  0  0  0  0  0  0  0  0  0  0  0
    1.7360    1.0058    0.0000 C   0  0  0  0  0  0  0  0  0  0  0  0
    0.0020    3.0138    0.0000 C   0  0  0  0  0  0  0  0  0  0  0  0
   -0.8641    2.5138    0.0000 C   0  0  0  0  0  0  0  0  0  0  0  0
   -1.7301    3.0138    0.0000 C   0  0  0  0  0  0  0  0  0  0  0  0
   -2.5991    2.5086    0.0000 C   0  0  0  0  0  0  0  0  0  0  0  0
   -3.4652    3.0086    0.0000 C   0  0  0  0  0  0  0  0  0  0  0  0
   -3.4710    4.0086    0.0000 C   0  0  0  0  0  0  0  0  0  0  0  0
   -2.6020    4.5138    0.0000 C   0  0  0  0  0  0  0  0  0  0  0  0
   -1.7271    4.0189    0.0000 C   0  0  0  0  0  0  0  0  0  0  0  0
    2.5986    2.5113    0.0000 C   0  0  0  0  0  0  0  0  0  0  0  0
    3.4692    3.0139    0.0000 C   0  0  0  0  0  0  0  0  0  0  0  0
    4.3411    5.5190    0.0000 C   0  0  0  0  0  0  0  0  0  0  0  0
    5.2071    6.0190    0.0000 Cl  0  0  0  0  0  0  0  0  0  0  0  0
  1  2  2  0  0  0  0
  2  3  1  0  0  0  0
  3 32  1  0  0  0  0
  3  4  1  0  0  0  0
  4  5  1  0  0  0  0
  5  6  1  0  0  0  0
  6  7  1  0  0  0  0
  7  8  1  0  0  0  0
  8 22  2  0  0  0  0
  8  9  1  0  0  0  0
  9 10  2  0  0  0  0
 10 11  1  0  0  0  0
 11 12  2  0  0  0  0
 12 22  1  0  0  0  0
 12 13  1  0  0  0  0
 13 14  1  0  0  0  0
 14 15  1  0  0  0  0
 15 16  1  0  0  0  0
 16 17  1  0  0  0  0
 17 18  2  0  0  0  0
 17 19  1  0  0  0  0
 13 20  2  0  0  0  0
 20 21  1  0  0  0  0
 21 22  1  0  0  0  0
  7 23  1  0  0  0  0
 23 24  1  0  0  0  0
 24 25  1  0  0  0  0
 25 30  2  0  0  0  0
 25 26  1  0  0  0  0
 26 27  2  0  0  0  0
 27 28  1  0  0  0  0
 28 29  2  0  0  0  0
 29 30  1  0  0  0  0
  6 31  1  0  0  0  0
 31 32  1  0  0  0  0
  2 33  1  0  0  0  0
 33 34  1  0  0  0  0
M  END
$$$$
PAU-WEI-b9b-8
  -OEChem-03222016562D

 35 38  0     1  0  0  0  0  0999 V2000
   -4.3305    4.5201    0.0000 C   0  0  0  0  0  0  0  0  0  0  0  0
   -3.4667    4.0163    0.0000 C   0  0  0  0  0  0  0  0  0  0  0  0
   -2.5954    4.5176    0.0000 C   0  0  0  0  0  0  0  0  0  0  0  0
   -1.7315    4.0138    0.0000 C   0  0  0  0  0  0  0  0  0  0  0  0
   -1.7301    3.0138    0.0000 C   0  0  0  0  0  0  0  0  0  0  0  0
   -2.6013    2.5125    0.0000 C   0  0  0  0  0  0  0  0  0  0  0  0
   -3.4740    3.0112    0.0000 C   0  0  0  0  0  0  0  0  0  0  0  0
   -0.8641    2.5138    0.0000 C   0  0  0  0  0  0  0  0  0  0  0  0
    0.0020    3.0138    0.0000 C   0  0  0  0  0  0  0  0  0  0  0  0
    0.8680    2.5138    0.0000 C   0  0  3  0  0  0  0  0  0  0  0  0
    1.7340    3.0138    0.0000 N   0  0  0  0  0  0  0  0  0  0  0  0
    2.6075    2.5164    0.0000 C   0  0  0  0  0  0  0  0  0  0  0  0
    3.4780    3.0190    0.0000 C   0  0  0  0  0  0  0  0  0  0  0  0
    3.4751    4.0190    0.0000 N   0  0  0  0  0  0  0  0  0  0  0  0
    4.3411    4.5190    0.0000 C   0  0  0  0  0  0  0  0  0  0  0  0
    5.2071    4.0190    0.0000 O   0  0  0  0  0  0  0  0  0  0  0  0
    4.3411    5.5190    0.0000 C   0  0  0  0  0  0  0  0  0  0  0  0
    5.2071    6.0190    0.0000 Cl  0  0  0  0  0  0  0  0  0  0  0  0
    2.6105    4.5215    0.0000 C   0  0  0  0  0  0  0  0  0  0  0  0
    1.7400    4.0189    0.0000 C   0  0  0  0  0  0  0  0  0  0  0  0
    0.8680    1.5138    0.0000 C   0  0  0  0  0  0  0  0  0  0  0  0
    0.0000    1.0058    0.0000 C   0  0  0  0  0  0  0  0  0  0  0  0
    0.0000    0.0000    0.0000 C   0  0  0  0  0  0  0  0  0  0  0  0
    0.8680   -0.4978    0.0000 C   0  0  0  0  0  0  0  0  0  0  0  0
    1.7360   -0.0012    0.0000 C   0  0  0  0  0  0  0  0  0  0  0  0
    2.6938   -0.3125    0.0000 C   0  0  0  0  0  0  0  0  0  0  0  0
    3.0028   -1.2636    0.0000 C   0  0  0  0  0  0  0  0  0  0  0  0
    3.9809   -1.4715    0.0000 C   0  0  0  0  0  0  0  0  0  0  0  0
    4.2899   -2.4226    0.0000 N   0  0  0  0  0  0  0  0  0  0  0  0
    5.2680   -2.6306    0.0000 C   0  0  0  0  0  0  0  0  0  0  0  0
    5.9372   -1.8874    0.0000 O   0  0  0  0  0  0  0  0  0  0  0  0
    5.5770   -3.5816    0.0000 C   0  0  0  0  0  0  0  0  0  0  0  0
    3.2858    0.5023    0.0000 C   0  0  0  0  0  0  0  0  0  0  0  0
    2.6938    1.3169    0.0000 N   0  0  0  0  0  0  0  0  0  0  0  0
    1.7360    1.0058    0.0000 C   0  0  0  0  0  0  0  0  0  0  0  0
  1  2  1  0  0  0  0
  2  7  2  0  0  0  0
  2  3  1  0  0  0  0
  3  4  2  0  0  0  0
  4  5  1  0  0  0  0
  5  6  2  0  0  0  0
  6  7  1  0  0  0  0
  5  8  1  0  0  0  0
  8  9  1  0  0  0  0
  9 10  1  0  0  0  0
 10 11  1  0  0  0  0
 11 20  1  0  0  0  0
 11 12  1  0  0  0  0
 12 13  1  0  0  0  0
 13 14  1  0  0  0  0
 14 15  1  0  0  0  0
 15 16  2  0  0  0  0
 15 17  1  0  0  0  0
 17 18  1  0  0  0  0
 14 19  1  0  0  0  0
 19 20  1  0  0  0  0
 10 21  1  0  0  0  0
 21 35  2  0  0  0  0
 21 22  1  0  0  0  0
 22 23  2  0  0  0  0
 23 24  1  0  0  0  0
 24 25  2  0  0  0  0
 25 35  1  0  0  0  0
 25 26  1  0  0  0  0
 26 27  1  0  0  0  0
 27 28  1  0  0  0  0
 28 29  1  0  0  0  0
 29 30  1  0  0  0  0
 30 31  2  0  0  0  0
 30 32  1  0  0  0  0
 26 33  2  0  0  0  0
 33 34  1  0  0  0  0
 34 35  1  0  0  0  0
M  END
$$$$
PAU-WEI-b9b-9
  -OEChem-03222016562D

 38 41  0     1  0  0  0  0  0999 V2000
    5.2071    4.0190    0.0000 O   0  0  0  0  0  0  0  0  0  0  0  0
    4.3411    4.5190    0.0000 C   0  0  0  0  0  0  0  0  0  0  0  0
    3.4751    4.0190    0.0000 N   0  0  0  0  0  0  0  0  0  0  0  0
    2.6017    4.5164    0.0000 C   0  0  0  0  0  0  0  0  0  0  0  0
    1.7311    4.0138    0.0000 C   0  0  0  0  0  0  0  0  0  0  0  0
    1.7340    3.0138    0.0000 N   0  0  0  0  0  0  0  0  0  0  0  0
    0.8680    2.5138    0.0000 C   0  0  3  0  0  0  0  0  0  0  0  0
    0.8680    1.5138    0.0000 C   0  0  0  0  0  0  0  0  0  0  0  0
    0.0000    1.0058    0.0000 C   0  0  0  0  0  0  0  0  0  0  0  0
    0.0000    0.0000    0.0000 C   0  0  0  0  0  0  0  0  0  0  0  0
    0.8680   -0.4978    0.0000 C   0  0  0  0  0  0  0  0  0  0  0  0
    1.7360   -0.0012    0.0000 C   0  0  0  0  0  0  0  0  0  0  0  0
    2.6938   -0.3125    0.0000 C   0  0  0  0  0  0  0  0  0  0  0  0
    3.0028   -1.2636    0.0000 C   0  0  0  0  0  0  0  0  0  0  0  0
    3.9809   -1.4715    0.0000 C   0  0  0  0  0  0  0  0  0  0  0  0
    4.2899   -2.4226    0.0000 N   0  0  0  0  0  0  0  0  0  0  0  0
    5.2680   -2.6306    0.0000 C   0  0  0  0  0  0  0  0  0  0  0  0
    5.9372   -1.8874    0.0000 O   0  0  0  0  0  0  0  0  0  0  0  0
    5.5770   -3.5816    0.0000 C   0  0  0  0  0  0  0  0  0  0  0  0
    3.2858    0.5023    0.0000 C   0  0  0  0  0  0  0  0  0  0  0  0
    2.6938    1.3169    0.0000 N   0  0  0  0  0  0  0  0  0  0  0  0
    1.7360    1.0058    0.0000 C   0  0  0  0  0  0  0  0  0  0  0  0
    0.0020    3.0138    0.0000 C   0  0  0  0  0  0  0  0  0  0  0  0
   -0.8641    2.5138    0.0000 C   0  0  0  0  0  0  0  0  0  0  0  0
   -1.7301    3.0138    0.0000 C   0  0  0  0  0  0  0  0  0  0  0  0
   -2.5991    2.5086    0.0000 C   0  0  0  0  0  0  0  0  0  0  0  0
   -3.4652    3.0086    0.0000 C   0  0  0  0  0  0  0  0  0  0  0  0
   -3.4710    4.0086    0.0000 C   0  0  0  0  0  0  0  0  0  0  0  0
   -4.3393    4.5048    0.0000 C   0  0  0  0  0  0  0  0  0  0  0  0
   -4.8354    3.6366    0.0000 F   0  0  0  0  0  0  0  0  0  0  0  0
   -3.8431    5.3730    0.0000 F   0  0  0  0  0  0  0  0  0  0  0  0
   -5.2075    5.0010    0.0000 F   0  0  0  0  0  0  0  0  0  0  0  0
   -2.6020    4.5138    0.0000 C   0  0  0  0  0  0  0  0  0  0  0  0
   -1.7271    4.0189    0.0000 C   0  0  0  0  0  0  0  0  0  0  0  0
    2.5986    2.5113    0.0000 C   0  0  0  0  0  0  0  0  0  0  0  0
    3.4692    3.0139    0.0000 C   0  0  0  0  0  0  0  0  0  0  0  0
    4.3411    5.5190    0.0000 C   0  0  0  0  0  0  0  0  0  0  0  0
    5.2071    6.0190    0.0000 Cl  0  0  0  0  0  0  0  0  0  0  0  0
  1  2  2  0  0  0  0
  2  3  1  0  0  0  0
  3 36  1  0  0  0  0
  3  4  1  0  0  0  0
  4  5  1  0  0  0  0
  5  6  1  0  0  0  0
  6  7  1  0  0  0  0
  7  8  1  0  0  0  0
  8 22  2  0  0  0  0
  8  9  1  0  0  0  0
  9 10  2  0  0  0  0
 10 11  1  0  0  0  0
 11 12  2  0  0  0  0
 12 22  1  0  0  0  0
 12 13  1  0  0  0  0
 13 14  1  0  0  0  0
 14 15  1  0  0  0  0
 15 16  1  0  0  0  0
 16 17  1  0  0  0  0
 17 18  2  0  0  0  0
 17 19  1  0  0  0  0
 13 20  2  0  0  0  0
 20 21  1  0  0  0  0
 21 22  1  0  0  0  0
  7 23  1  0  0  0  0
 23 24  1  0  0  0  0
 24 25  1  0  0  0  0
 25 34  2  0  0  0  0
 25 26  1  0  0  0  0
 26 27  2  0  0  0  0
 27 28  1  0  0  0  0
 28 29  1  0  0  0  0
 29 30  1  0  0  0  0
 29 31  1  0  0  0  0
 29 32  1  0  0  0  0
 28 33  2  0  0  0  0
 33 34  1  0  0  0  0
  6 35  1  0  0  0  0
 35 36  1  0  0  0  0
  2 37  1  0  0  0  0
 37 38  1  0  0  0  0
M  END
$$$$
ANT-DIA-b7f-1
  -OEChem-03222016562D

 13 13  0     0  0  0  0  0  0999 V2000
    0.0000    0.0000    0.0000 C   0  0  0  0  0  0  0  0  0  0  0  0
   -0.8675    0.4975    0.0000 C   0  0  0  0  0  0  0  0  0  0  0  0
   -0.8675    1.5027    0.0000 C   0  0  0  0  0  0  0  0  0  0  0  0
    0.0000    2.0104    0.0000 N   0  0  0  0  0  0  0  0  0  0  0  0
    0.8675    1.5027    0.0000 C   0  0  0  0  0  0  0  0  0  0  0  0
    0.8675    0.4975    0.0000 C   0  0  0  0  0  0  0  0  0  0  0  0
    1.7328   -0.0038    0.0000 C   0  0  0  0  0  0  0  0  0  0  0  0
    2.5995    0.4950    0.0000 C   0  0  0  0  0  0  0  0  0  0  0  0
    3.4648   -0.0063    0.0000 N   0  0  0  0  0  0  0  0  0  0  0  0
    4.3316    0.4925    0.0000 S   0  0  0  0  0  0  0  0  0  0  0  0
    5.1983    0.9912    0.0000 C   0  0  0  0  0  0  0  0  0  0  0  0
    3.8329    1.3592    0.0000 O   0  0  0  0  0  0  0  0  0  0  0  0
    4.8303   -0.3743    0.0000 O   0  0  0  0  0  0  0  0  0  0  0  0
  1  6  1  0  0  0  0
  1  2  2  0  0  0  0
  2  3  1  0  0  0  0
  3  4  2  0  0  0  0
  4  5  1  0  0  0  0
  5  6  2  0  0  0  0
  6  7  1  0  0  0  0
  7  8  1  0  0  0  0
  8  9  1  0  0  0  0
  9 10  1  0  0  0  0
 10 11  1  0  0  0  0
 10 12  2  0  0  0  0
 10 13  2  0  0  0  0
M  END
$$$$
ANT-DIA-b7f-2
  -OEChem-03222016562D

 14 14  0     0  0  0  0  0  0999 V2000
    0.8675    1.5129    0.0000 C   0  0  0  0  0  0  0  0  0  0  0  0
    0.0000    1.0052    0.0000 C   0  0  0  0  0  0  0  0  0  0  0  0
   -0.8675    1.5026    0.0000 C   0  0  0  0  0  0  0  0  0  0  0  0
   -1.7320    1.0001    0.0000 C   0  0  0  0  0  0  0  0  0  0  0  0
   -2.5995    1.4975    0.0000 N   0  0  0  0  0  0  0  0  0  0  0  0
   -3.4641    0.9950    0.0000 S   0  0  0  0  0  0  0  0  0  0  0  0
   -2.9615    0.1304    0.0000 O   0  0  0  0  0  0  0  0  0  0  0  0
   -3.9666    1.8595    0.0000 O   0  0  0  0  0  0  0  0  0  0  0  0
   -4.3286    0.4924    0.0000 C   0  0  0  0  0  0  0  0  0  0  0  0
    0.0000    0.0000    0.0000 C   0  0  0  0  0  0  0  0  0  0  0  0
    0.8675   -0.4975    0.0000 C   0  0  0  0  0  0  0  0  0  0  0  0
    1.7350    0.0000    0.0000 C   0  0  0  0  0  0  0  0  0  0  0  0
    1.7350    1.0052    0.0000 C   0  0  0  0  0  0  0  0  0  0  0  0
    2.6025    1.5026    0.0000 O   0  0  0  0  0  0  0  0  0  0  0  0
  1 13  2  0  0  0  0
  1  2  1  0  0  0  0
  2  3  1  0  0  0  0
  3  4  1  0  0  0  0
  4  5  1  0  0  0  0
  5  6  1  0  0  0  0
  6  7  2  0  0  0  0
  6  8  2  0  0  0  0
  6  9  1  0  0  0  0
  2 10  2  0  0  0  0
 10 11  1  0  0  0  0
 11 12  2  0  0  0  0
 12 13  1  0  0  0  0
 13 14  1  0  0  0  0
M  END
$$$$
ANT-DIA-b7f-3
  -OEChem-03222016562D

 14 14  0     0  0  0  0  0  0999 V2000
    1.7350    0.0000    0.0000 C   0  0  0  0  0  0  0  0  0  0  0  0
    2.6003   -0.5013    0.0000 O   0  0  0  0  0  0  0  0  0  0  0  0
    0.8675   -0.4975    0.0000 C   0  0  0  0  0  0  0  0  0  0  0  0
    0.0000    0.0000    0.0000 C   0  0  0  0  0  0  0  0  0  0  0  0
   -0.0000    1.0052    0.0000 C   0  0  0  0  0  0  0  0  0  0  0  0
    0.8675    1.5129    0.0000 C   0  0  0  0  0  0  0  0  0  0  0  0
    1.7350    1.0052    0.0000 C   0  0  0  0  0  0  0  0  0  0  0  0
    2.6025    1.5026    0.0000 C   0  0  0  0  0  0  0  0  0  0  0  0
    2.6054    2.5026    0.0000 C   0  0  0  0  0  0  0  0  0  0  0  0
    3.4729    3.0001    0.0000 N   0  0  0  0  0  0  0  0  0  0  0  0
    3.4759    4.0001    0.0000 S   0  0  0  0  0  0  0  0  0  0  0  0
    3.4788    5.0001    0.0000 C   0  0  0  0  0  0  0  0  0  0  0  0
    2.4759    4.0030    0.0000 O   0  0  0  0  0  0  0  0  0  0  0  0
    4.4759    3.9971    0.0000 O   0  0  0  0  0  0  0  0  0  0  0  0
  1  2  1  0  0  0  0
  1  7  2  0  0  0  0
  1  3  1  0  0  0  0
  3  4  2  0  0  0  0
  4  5  1  0  0  0  0
  5  6  2  0  0  0  0
  6  7  1  0  0  0  0
  7  8  1  0  0  0  0
  8  9  1  0  0  0  0
  9 10  1  0  0  0  0
 10 11  1  0  0  0  0
 11 12  1  0  0  0  0
 11 13  2  0  0  0  0
 11 14  2  0  0  0  0
M  END
$$$$
ANT-DIA-b7f-4
  -OEChem-03222016562D

 12 12  0     0  0  0  0  0  0999 V2000
   -0.8675    1.5129    0.0000 C   0  0  0  0  0  0  0  0  0  0  0  0
    0.0000    1.0052    0.0000 C   0  0  0  0  0  0  0  0  0  0  0  0
    0.8675    1.5026    0.0000 C   0  0  0  0  0  0  0  0  0  0  0  0
    0.8704    2.5026    0.0000 C   0  0  0  0  0  0  0  0  0  0  0  0
    1.7379    3.0001    0.0000 N   0  0  0  0  0  0  0  0  0  0  0  0
    1.7409    4.0001    0.0000 C   0  0  0  0  0  0  0  0  0  0  0  0
    0.8763    4.5026    0.0000 O   0  0  0  0  0  0  0  0  0  0  0  0
    2.6084    4.4975    0.0000 C   0  0  0  0  0  0  0  0  0  0  0  0
    0.0000    0.0000    0.0000 C   0  0  0  0  0  0  0  0  0  0  0  0
   -0.8675   -0.4975    0.0000 C   0  0  0  0  0  0  0  0  0  0  0  0
   -1.7350    0.0000    0.0000 C   0  0  0  0  0  0  0  0  0  0  0  0
   -1.7350    1.0052    0.0000 C   0  0  0  0  0  0  0  0  0  0  0  0
  1 12  2  0  0  0  0
  1  2  1  0  0  0  0
  2  3  1  0  0  0  0
  3  4  1  0  0  0  0
  4  5  1  0  0  0  0
  5  6  1  0  0  0  0
  6  7  2  0  0  0  0
  6  8  1  0  0  0  0
  2  9  2  0  0  0  0
  9 10  1  0  0  0  0
 10 11  2  0  0  0  0
 11 12  1  0  0  0  0
M  END
$$$$
ANT-DIA-b7f-5
  -OEChem-03222016562D

 12 12  0     0  0  0  0  0  0999 V2000
    0.0000    0.0000    0.0000 C   0  0  0  0  0  0  0  0  0  0  0  0
    1.0015   -0.0000    0.0000 N   0  0  0  0  0  0  0  0  0  0  0  0
    1.3133    0.9519    0.0000 C   0  0  0  0  0  0  0  0  0  0  0  0
    0.5008    1.5428    0.0000 S   0  0  0  0  0  0  0  0  0  0  0  0
   -0.3065    0.9519    0.0000 C   0  0  0  0  0  0  0  0  0  0  0  0
   -0.5889   -0.8082    0.0000 C   0  0  0  0  0  0  0  0  0  0  0  0
   -0.1833   -1.7223    0.0000 C   0  0  0  0  0  0  0  0  0  0  0  0
   -0.7722   -2.5306    0.0000 N   0  0  0  0  0  0  0  0  0  0  0  0
   -0.3667   -3.4446    0.0000 S   0  0  0  0  0  0  0  0  0  0  0  0
    0.5474   -3.0391    0.0000 O   0  0  0  0  0  0  0  0  0  0  0  0
    0.0389   -4.3587    0.0000 C   0  0  0  0  0  0  0  0  0  0  0  0
   -1.2808   -3.8502    0.0000 O   0  0  0  0  0  0  0  0  0  0  0  0
  1  5  2  0  0  0  0
  1  2  1  0  0  0  0
  2  3  2  0  0  0  0
  3  4  1  0  0  0  0
  4  5  1  0  0  0  0
  1  6  1  0  0  0  0
  6  7  1  0  0  0  0
  7  8  1  0  0  0  0
  8  9  1  0  0  0  0
  9 10  2  0  0  0  0
  9 11  1  0  0  0  0
  9 12  2  0  0  0  0
M  END
$$$$
ANT-DIA-b7f-6
  -OEChem-03222016562D

 17 18  0     0  0  0  0  0  0999 V2000
   -0.7409    4.0036    0.0000 O   0  0  0  0  0  0  0  0  0  0  0  0
   -1.7409    4.0007    0.0000 S   0  0  0  0  0  0  0  0  0  0  0  0
   -1.7380    3.0007    0.0000 N   0  0  0  0  0  0  0  0  0  0  0  0
   -0.8705    2.5032    0.0000 C   0  0  0  0  0  0  0  0  0  0  0  0
   -0.8675    1.5032    0.0000 C   0  0  0  0  0  0  0  0  0  0  0  0
    0.0000    1.0058    0.0000 C   0  0  0  0  0  0  0  0  0  0  0  0
    0.0000    0.0000    0.0000 C   0  0  0  0  0  0  0  0  0  0  0  0
    0.8680   -0.4978    0.0000 C   0  0  0  0  0  0  0  0  0  0  0  0
    1.7360   -0.0012    0.0000 C   0  0  0  0  0  0  0  0  0  0  0  0
    2.6938   -0.3125    0.0000 N   0  0  0  0  0  0  0  0  0  0  0  0
    3.2858    0.5023    0.0000 C   0  0  0  0  0  0  0  0  0  0  0  0
    4.2858    0.5024    0.0000 N   0  0  0  0  0  0  0  0  0  0  0  0
    2.6938    1.3169    0.0000 S   0  0  0  0  0  0  0  0  0  0  0  0
    1.7360    1.0058    0.0000 C   0  0  0  0  0  0  0  0  0  0  0  0
    0.8680    1.5138    0.0000 C   0  0  0  0  0  0  0  0  0  0  0  0
   -2.7409    3.9977    0.0000 O   0  0  0  0  0  0  0  0  0  0  0  0
   -1.7439    5.0007    0.0000 C   0  0  0  0  0  0  0  0  0  0  0  0
  1  2  2  0  0  0  0
  2  3  1  0  0  0  0
  3  4  1  0  0  0  0
  4  5  1  0  0  0  0
  5  6  1  0  0  0  0
  6 15  1  0  0  0  0
  6  7  2  0  0  0  0
  7  8  1  0  0  0  0
  8  9  2  0  0  0  0
  9 14  1  0  0  0  0
  9 10  1  0  0  0  0
 10 11  2  0  0  0  0
 11 12  1  0  0  0  0
 11 13  1  0  0  0  0
 13 14  1  0  0  0  0
 14 15  2  0  0  0  0
  2 16  2  0  0  0  0
  2 17  1  0  0  0  0
M  END
$$$$
ANT-DIA-b7f-7
  -OEChem-03222016562D

 16 17  0     0  0  0  0  0  0999 V2000
   -2.7409    3.9977    0.0000 O   0  0  0  0  0  0  0  0  0  0  0  0
   -1.7409    4.0007    0.0000 S   0  0  0  0  0  0  0  0  0  0  0  0
   -1.7439    5.0007    0.0000 C   0  0  0  0  0  0  0  0  0  0  0  0
   -0.7409    4.0036    0.0000 O   0  0  0  0  0  0  0  0  0  0  0  0
   -1.7380    3.0007    0.0000 N   0  0  0  0  0  0  0  0  0  0  0  0
   -0.8705    2.5032    0.0000 C   0  0  0  0  0  0  0  0  0  0  0  0
   -0.8675    1.5032    0.0000 C   0  0  0  0  0  0  0  0  0  0  0  0
   -0.0000    1.0058    0.0000 C   0  0  0  0  0  0  0  0  0  0  0  0
    0.8680    1.5138    0.0000 C   0  0  0  0  0  0  0  0  0  0  0  0
    1.7360    1.0058    0.0000 C   0  0  0  0  0  0  0  0  0  0  0  0
    1.7360   -0.0012    0.0000 C   0  0  0  0  0  0  0  0  0  0  0  0
    2.6938   -0.3125    0.0000 N   0  0  0  0  0  0  0  0  0  0  0  0
    3.2858    0.5023    0.0000 C   0  0  0  0  0  0  0  0  0  0  0  0
    2.6938    1.3169    0.0000 S   0  0  0  0  0  0  0  0  0  0  0  0
    0.8680   -0.4978    0.0000 C   0  0  0  0  0  0  0  0  0  0  0  0
    0.0000    0.0000    0.0000 C   0  0  0  0  0  0  0  0  0  0  0  0
  1  2  2  0  0  0  0
  2  3  1  0  0  0  0
  2  4  2  0  0  0  0
  2  5  1  0  0  0  0
  5  6  1  0  0  0  0
  6  7  1  0  0  0  0
  7  8  1  0  0  0  0
  8 16  2  0  0  0  0
  8  9  1  0  0  0  0
  9 10  2  0  0  0  0
 10 14  1  0  0  0  0
 10 11  1  0  0  0  0
 11 12  1  0  0  0  0
 12 13  2  0  0  0  0
 13 14  1  0  0  0  0
 11 15  2  0  0  0  0
 15 16  1  0  0  0  0
M  END
$$$$
ANT-DIA-b7f-8
  -OEChem-03222016562D

 18 18  0     0  0  0  0  0  0999 V2000
   -1.7350   -0.0000    0.0000 C   0  0  0  0  0  0  0  0  0  0  0  0
   -2.6003   -0.5013    0.0000 N   0  0  0  0  0  0  0  0  0  0  0  0
   -2.5988   -1.5013    0.0000 C   0  0  0  0  0  0  0  0  0  0  0  0
   -3.4641   -2.0025    0.0000 C   0  0  0  0  0  0  0  0  0  0  0  0
   -0.8675   -0.4975    0.0000 C   0  0  0  0  0  0  0  0  0  0  0  0
    0.0000    0.0000    0.0000 C   0  0  0  0  0  0  0  0  0  0  0  0
   -0.0000    1.0052    0.0000 C   0  0  0  0  0  0  0  0  0  0  0  0
    0.8675    1.5026    0.0000 C   0  0  0  0  0  0  0  0  0  0  0  0
    1.7350    2.0001    0.0000 N   0  0  0  0  0  0  0  0  0  0  0  0
   -0.8675    1.5129    0.0000 C   0  0  0  0  0  0  0  0  0  0  0  0
   -1.7350    1.0052    0.0000 C   0  0  0  0  0  0  0  0  0  0  0  0
   -2.6025    1.5026    0.0000 C   0  0  0  0  0  0  0  0  0  0  0  0
   -3.4670    1.0001    0.0000 C   0  0  0  0  0  0  0  0  0  0  0  0
   -4.3345    1.4975    0.0000 N   0  0  0  0  0  0  0  0  0  0  0  0
   -5.1991    0.9950    0.0000 S   0  0  0  0  0  0  0  0  0  0  0  0
   -6.0636    0.4924    0.0000 C   0  0  0  0  0  0  0  0  0  0  0  0
   -4.6965    0.1304    0.0000 O   0  0  0  0  0  0  0  0  0  0  0  0
   -5.7016    1.8595    0.0000 O   0  0  0  0  0  0  0  0  0  0  0  0
  1  2  1  0  0  0  0
  2  3  1  0  0  0  0
  3  4  1  0  0  0  0
  1 11  1  0  0  0  0
  1  5  2  0  0  0  0
  5  6  1  0  0  0  0
  6  7  2  0  0  0  0
  7  8  1  0  0  0  0
  8  9  3  0  0  0  0
  7 10  1  0  0  0  0
 10 11  2  0  0  0  0
 11 12  1  0  0  0  0
 12 13  1  0  0  0  0
 13 14  1  0  0  0  0
 14 15  1  0  0  0  0
 15 16  1  0  0  0  0
 15 17  2  0  0  0  0
 15 18  2  0  0  0  0
M  END
$$$$
ANT-DIA-b7f-9
  -OEChem-03222016562D

 24 25  0     0  0  0  0  0  0999 V2000
    1.7335   -2.9975    0.0000 C   0  0  0  0  0  0  0  0  0  0  0  0
    0.8637   -3.5014    0.0000 C   0  0  0  0  0  0  0  0  0  0  0  0
   -0.0015   -3.0001    0.0000 C   0  0  0  0  0  0  0  0  0  0  0  0
   -0.8683   -3.4988    0.0000 C   0  0  0  0  0  0  0  0  0  0  0  0
   -1.7336   -2.9975    0.0000 N   0  0  0  0  0  0  0  0  0  0  0  0
   -2.6004   -3.4962    0.0000 S   0  0  0  0  0  0  0  0  0  0  0  0
   -2.1017   -4.3629    0.0000 O   0  0  0  0  0  0  0  0  0  0  0  0
   -3.0991   -2.6294    0.0000 O   0  0  0  0  0  0  0  0  0  0  0  0
   -3.4671   -3.9949    0.0000 C   0  0  0  0  0  0  0  0  0  0  0  0
    0.8593   -4.5065    0.0000 C   0  0  0  0  0  0  0  0  0  0  0  0
    1.7334   -5.0027    0.0000 C   0  0  0  0  0  0  0  0  0  0  0  0
    1.7378   -6.0026    0.0000 C   0  0  0  0  0  0  0  0  0  0  0  0
    1.7422   -7.0026    0.0000 N   0  0  0  0  0  0  0  0  0  0  0  0
    2.6032   -4.4988    0.0000 C   0  0  0  0  0  0  0  0  0  0  0  0
    2.5989   -3.4988    0.0000 C   0  0  0  0  0  0  0  0  0  0  0  0
    1.7335   -1.9975    0.0000 N   0  0  0  0  0  0  0  0  0  0  0  0
    0.8675   -1.4975    0.0000 C   0  0  0  0  0  0  0  0  0  0  0  0
    0.0015   -1.9975    0.0000 O   0  0  0  0  0  0  0  0  0  0  0  0
    0.8675   -0.4975    0.0000 N   0  0  0  0  0  0  0  0  0  0  0  0
    0.0000    0.0000    0.0000 C   0  0  0  0  0  0  0  0  0  0  0  0
   -0.0000    1.0052    0.0000 C   0  0  0  0  0  0  0  0  0  0  0  0
    0.8675    1.5129    0.0000 O   0  0  0  0  0  0  0  0  0  0  0  0
    1.7350    1.0052    0.0000 C   0  0  0  0  0  0  0  0  0  0  0  0
    1.7350    0.0000    0.0000 C   0  0  0  0  0  0  0  0  0  0  0  0
  1 15  2  0  0  0  0
  1  2  1  0  0  0  0
  2  3  1  0  0  0  0
  3  4  1  0  0  0  0
  4  5  1  0  0  0  0
  5  6  1  0  0  0  0
  6  7  2  0  0  0  0
  6  8  2  0  0  0  0
  6  9  1  0  0  0  0
  2 10  2  0  0  0  0
 10 11  1  0  0  0  0
 11 12  1  0  0  0  0
 12 13  3  0  0  0  0
 11 14  2  0  0  0  0
 14 15  1  0  0  0  0
  1 16  1  0  0  0  0
 16 17  1  0  0  0  0
 17 18  2  0  0  0  0
 17 19  1  0  0  0  0
 19 24  1  0  0  0  0
 19 20  1  0  0  0  0
 20 21  1  0  0  0  0
 21 22  1  0  0  0  0
 22 23  1  0  0  0  0
 23 24  1  0  0  0  0
M  END
$$$$
CHR-SOS-b30-1
  -OEChem-03222016562D

 24 26  0     0  0  0  0  0  0999 V2000
   -0.4211   -5.0271    0.0000 O   0  0  0  0  0  0  0  0  0  0  0  0
   -0.7613   -4.0867    0.0000 C   0  0  0  0  0  0  0  0  0  0  0  0
   -0.1170   -3.3219    0.0000 C   0  0  0  0  0  0  0  0  0  0  0  0
    0.8675   -3.4975    0.0000 C   0  0  0  0  0  0  0  0  0  0  0  0
    0.8675   -2.4975    0.0000 C   0  0  0  0  0  0  0  0  0  0  0  0
    0.8675   -1.4975    0.0000 C   0  0  0  0  0  0  0  0  0  0  0  0
    0.8675   -0.4975    0.0000 C   0  0  0  0  0  0  0  0  0  0  0  0
    1.7350    0.0000    0.0000 N   0  0  0  0  0  0  0  0  0  0  0  0
    1.7350    1.0052    0.0000 C   0  0  0  0  0  0  0  0  0  0  0  0
    0.8675    1.5129    0.0000 N   0  0  0  0  0  0  0  0  0  0  0  0
    0.0000    1.0052    0.0000 C   0  0  0  0  0  0  0  0  0  0  0  0
    0.0000    0.0000    0.0000 C   0  0  0  0  0  0  0  0  0  0  0  0
    1.8571   -3.3210    0.0000 C   0  0  0  0  0  0  0  0  0  0  0  0
    2.4992   -4.0877    0.0000 C   0  0  0  0  0  0  0  0  0  0  0  0
    2.1617   -5.0290    0.0000 C   0  0  0  0  0  0  0  0  0  0  0  0
    1.1721   -5.2055    0.0000 C   0  0  0  0  0  0  0  0  0  0  0  0
    0.5200   -4.4407    0.0000 C   0  0  0  0  0  0  0  0  0  0  0  0
   -1.7457   -3.9111    0.0000 N   0  0  0  0  0  0  0  0  0  0  0  0
   -2.3900   -4.6759    0.0000 C   0  0  0  0  0  0  0  0  0  0  0  0
   -3.3748   -4.5017    0.0000 C   0  0  0  0  0  0  0  0  0  0  0  0
   -4.0224   -5.2637    0.0000 C   0  0  0  0  0  0  0  0  0  0  0  0
   -3.6818   -6.2095    0.0000 C   0  0  0  0  0  0  0  0  0  0  0  0
   -2.6936   -6.3932    0.0000 N   0  0  0  0  0  0  0  0  0  0  0  0
   -2.0494   -5.6216    0.0000 C   0  0  0  0  0  0  0  0  0  0  0  0
  1  2  2  0  0  0  0
  2  3  1  0  0  0  0
  3  4  1  0  0  0  0
  4 17  1  0  0  0  0
  4  5  1  0  0  0  0
  5  6  3  0  0  0  0
  6  7  1  0  0  0  0
  7 12  1  0  0  0  0
  7  8  2  0  0  0  0
  8  9  1  0  0  0  0
  9 10  2  0  0  0  0
 10 11  1  0  0  0  0
 11 12  2  0  0  0  0
  4 13  1  0  0  0  0
 13 14  1  0  0  0  0
 14 15  1  0  0  0  0
 15 16  1  0  0  0  0
 16 17  1  0  0  0  0
  2 18  1  0  0  0  0
 18 19  1  0  0  0  0
 19 24  1  0  0  0  0
 19 20  2  0  0  0  0
 20 21  1  0  0  0  0
 21 22  2  0  0  0  0
 22 23  1  0  0  0  0
 23 24  2  0  0  0  0
M  END
$$$$
CHR-SOS-b30-2
  -OEChem-03222016562D

 24 26  0     0  0  0  0  0  0999 V2000
    4.1410   -2.8880    0.0000 O   0  0  0  0  0  0  0  0  0  0  0  0
    3.1568   -2.7110    0.0000 C   0  0  0  0  0  0  0  0  0  0  0  0
    2.8180   -1.7701    0.0000 C   0  0  0  0  0  0  0  0  0  0  0  0
    3.4634   -1.0063    0.0000 C   0  0  0  0  0  0  0  0  0  0  0  0
    2.5981   -0.5050    0.0000 C   0  0  0  0  0  0  0  0  0  0  0  0
    1.7328   -0.0038    0.0000 C   0  0  0  0  0  0  0  0  0  0  0  0
    0.8675    0.4975    0.0000 C   0  0  0  0  0  0  0  0  0  0  0  0
    0.0000    0.0000    0.0000 C   0  0  0  0  0  0  0  0  0  0  0  0
   -0.8675    0.4975    0.0000 C   0  0  0  0  0  0  0  0  0  0  0  0
   -0.8675    1.5027    0.0000 C   0  0  0  0  0  0  0  0  0  0  0  0
    0.0000    2.0104    0.0000 N   0  0  0  0  0  0  0  0  0  0  0  0
    0.8675    1.5027    0.0000 N   0  0  0  0  0  0  0  0  0  0  0  0
    3.8067   -0.0615    0.0000 C   0  0  0  0  0  0  0  0  0  0  0  0
    4.7920    0.1098    0.0000 C   0  0  0  0  0  0  0  0  0  0  0  0
    5.4374   -0.6541    0.0000 C   0  0  0  0  0  0  0  0  0  0  0  0
    5.0941   -1.5988    0.0000 C   0  0  0  0  0  0  0  0  0  0  0  0
    4.1053   -1.7797    0.0000 C   0  0  0  0  0  0  0  0  0  0  0  0
    2.5114   -3.4748    0.0000 N   0  0  0  0  0  0  0  0  0  0  0  0
    2.8502   -4.4157    0.0000 C   0  0  0  0  0  0  0  0  0  0  0  0
    2.2059   -5.1805    0.0000 C   0  0  0  0  0  0  0  0  0  0  0  0
    2.5406   -6.1228    0.0000 C   0  0  0  0  0  0  0  0  0  0  0  0
    3.5297   -6.3022    0.0000 C   0  0  0  0  0  0  0  0  0  0  0  0
    4.1840   -5.5392    0.0000 N   0  0  0  0  0  0  0  0  0  0  0  0
    3.8393   -4.5950    0.0000 C   0  0  0  0  0  0  0  0  0  0  0  0
  1  2  2  0  0  0  0
  2  3  1  0  0  0  0
  3  4  1  0  0  0  0
  4 17  1  0  0  0  0
  4  5  1  0  0  0  0
  5  6  3  0  0  0  0
  6  7  1  0  0  0  0
  7 12  1  0  0  0  0
  7  8  2  0  0  0  0
  8  9  1  0  0  0  0
  9 10  2  0  0  0  0
 10 11  1  0  0  0  0
 11 12  2  0  0  0  0
  4 13  1  0  0  0  0
 13 14  1  0  0  0  0
 14 15  1  0  0  0  0
 15 16  1  0  0  0  0
 16 17  1  0  0  0  0
  2 18  1  0  0  0  0
 18 19  1  0  0  0  0
 19 24  1  0  0  0  0
 19 20  2  0  0  0  0
 20 21  1  0  0  0  0
 21 22  2  0  0  0  0
 22 23  1  0  0  0  0
 23 24  2  0  0  0  0
M  END
$$$$
CHR-SOS-b30-3
  -OEChem-03222016562D

 24 26  0     0  0  0  0  0  0999 V2000
   -1.2886   -4.5296    0.0000 O   0  0  0  0  0  0  0  0  0  0  0  0
   -1.6288   -3.5892    0.0000 C   0  0  0  0  0  0  0  0  0  0  0  0
   -0.9845   -2.8244    0.0000 C   0  0  0  0  0  0  0  0  0  0  0  0
    0.0000   -3.0000    0.0000 C   0  0  0  0  0  0  0  0  0  0  0  0
    0.0000   -2.0000    0.0000 C   0  0  0  0  0  0  0  0  0  0  0  0
   -0.0000   -1.0000    0.0000 C   0  0  0  0  0  0  0  0  0  0  0  0
    0.0000    0.0000    0.0000 C   0  0  0  0  0  0  0  0  0  0  0  0
   -0.8675    0.4975    0.0000 C   0  0  0  0  0  0  0  0  0  0  0  0
   -0.8675    1.5027    0.0000 C   0  0  0  0  0  0  0  0  0  0  0  0
    0.0000    2.0104    0.0000 N   0  0  0  0  0  0  0  0  0  0  0  0
    0.8675    1.5027    0.0000 N   0  0  0  0  0  0  0  0  0  0  0  0
    0.8675    0.4975    0.0000 C   0  0  0  0  0  0  0  0  0  0  0  0
    0.9896   -2.8235    0.0000 C   0  0  0  0  0  0  0  0  0  0  0  0
    1.6317   -3.5902    0.0000 C   0  0  0  0  0  0  0  0  0  0  0  0
    1.2942   -4.5315    0.0000 C   0  0  0  0  0  0  0  0  0  0  0  0
    0.3046   -4.7080    0.0000 C   0  0  0  0  0  0  0  0  0  0  0  0
   -0.3475   -3.9432    0.0000 C   0  0  0  0  0  0  0  0  0  0  0  0
   -2.6132   -3.4136    0.0000 N   0  0  0  0  0  0  0  0  0  0  0  0
   -3.2575   -4.1784    0.0000 C   0  0  0  0  0  0  0  0  0  0  0  0
   -4.2423   -4.0042    0.0000 C   0  0  0  0  0  0  0  0  0  0  0  0
   -4.8899   -4.7662    0.0000 C   0  0  0  0  0  0  0  0  0  0  0  0
   -4.5493   -5.7120    0.0000 C   0  0  0  0  0  0  0  0  0  0  0  0
   -3.5611   -5.8957    0.0000 N   0  0  0  0  0  0  0  0  0  0  0  0
   -2.9169   -5.1241    0.0000 C   0  0  0  0  0  0  0  0  0  0  0  0
  1  2  2  0  0  0  0
  2  3  1  0  0  0  0
  3  4  1  0  0  0  0
  4 17  1  0  0  0  0
  4  5  1  0  0  0  0
  5  6  3  0  0  0  0
  6  7  1  0  0  0  0
  7 12  1  0  0  0  0
  7  8  2  0  0  0  0
  8  9  1  0  0  0  0
  9 10  2  0  0  0  0
 10 11  1  0  0  0  0
 11 12  2  0  0  0  0
  4 13  1  0  0  0  0
 13 14  1  0  0  0  0
 14 15  1  0  0  0  0
 15 16  1  0  0  0  0
 16 17  1  0  0  0  0
  2 18  1  0  0  0  0
 18 19  1  0  0  0  0
 19 24  1  0  0  0  0
 19 20  2  0  0  0  0
 20 21  1  0  0  0  0
 21 22  2  0  0  0  0
 22 23  1  0  0  0  0
 23 24  2  0  0  0  0
M  END
$$$$
CHR-SOS-b30-4
  -OEChem-03222016562D

 24 26  0     0  0  0  0  0  0999 V2000
    2.6010    1.4950    0.0000 O   0  0  0  0  0  0  0  0  0  0  0  0
    2.5995    0.4950    0.0000 C   0  0  0  0  0  0  0  0  0  0  0  0
    3.4648   -0.0063    0.0000 C   0  0  0  0  0  0  0  0  0  0  0  0
    4.3316    0.4925    0.0000 C   0  0  0  0  0  0  0  0  0  0  0  0
    4.6704   -0.4484    0.0000 C   0  0  0  0  0  0  0  0  0  0  0  0
    5.0092   -1.3892    0.0000 C   0  0  0  0  0  0  0  0  0  0  0  0
    5.3480   -2.3301    0.0000 C   0  0  0  0  0  0  0  0  0  0  0  0
    4.7871   -3.1580    0.0000 C   0  0  0  0  0  0  0  0  0  0  0  0
    5.3965   -3.9514    0.0000 N   0  0  0  0  0  0  0  0  0  0  0  0
    5.1148   -4.9109    0.0000 C   0  0  0  0  0  0  0  0  0  0  0  0
    6.3420   -3.6118    0.0000 C   0  0  0  0  0  0  0  0  0  0  0  0
    6.3094   -2.6107    0.0000 N   0  0  0  0  0  0  0  0  0  0  0  0
    5.3225    0.6617    0.0000 C   0  0  0  0  0  0  0  0  0  0  0  0
    5.6668    1.6006    0.0000 C   0  0  0  0  0  0  0  0  0  0  0  0
    5.0304    2.3719    0.0000 C   0  0  0  0  0  0  0  0  0  0  0  0
    4.0395    2.2027    0.0000 C   0  0  0  0  0  0  0  0  0  0  0  0
    3.6851    1.2621    0.0000 C   0  0  0  0  0  0  0  0  0  0  0  0
    1.7328   -0.0038    0.0000 N   0  0  0  0  0  0  0  0  0  0  0  0
    0.8675    0.4975    0.0000 C   0  0  0  0  0  0  0  0  0  0  0  0
    0.0000    0.0000    0.0000 C   0  0  0  0  0  0  0  0  0  0  0  0
   -0.8675    0.4975    0.0000 C   0  0  0  0  0  0  0  0  0  0  0  0
   -0.8675    1.5027    0.0000 C   0  0  0  0  0  0  0  0  0  0  0  0
    0.0000    2.0104    0.0000 N   0  0  0  0  0  0  0  0  0  0  0  0
    0.8675    1.5027    0.0000 C   0  0  0  0  0  0  0  0  0  0  0  0
  1  2  2  0  0  0  0
  2  3  1  0  0  0  0
  3  4  1  0  0  0  0
  4 17  1  0  0  0  0
  4  5  1  0  0  0  0
  5  6  3  0  0  0  0
  6  7  1  0  0  0  0
  7 12  1  0  0  0  0
  7  8  2  0  0  0  0
  8  9  1  0  0  0  0
  9 10  1  0  0  0  0
  9 11  1  0  0  0  0
 11 12  2  0  0  0  0
  4 13  1  0  0  0  0
 13 14  1  0  0  0  0
 14 15  1  0  0  0  0
 15 16  1  0  0  0  0
 16 17  1  0  0  0  0
  2 18  1  0  0  0  0
 18 19  1  0  0  0  0
 19 24  1  0  0  0  0
 19 20  2  0  0  0  0
 20 21  1  0  0  0  0
 21 22  2  0  0  0  0
 22 23  1  0  0  0  0
 23 24  2  0  0  0  0
M  END
$$$$
CHR-SOS-b30-5
  -OEChem-03222016562D

 24 26  0     0  0  0  0  0  0999 V2000
   -1.2886   -4.5296    0.0000 O   0  0  0  0  0  0  0  0  0  0  0  0
   -1.6288   -3.5892    0.0000 C   0  0  0  0  0  0  0  0  0  0  0  0
   -0.9845   -2.8244    0.0000 C   0  0  0  0  0  0  0  0  0  0  0  0
    0.0000   -3.0000    0.0000 C   0  0  0  0  0  0  0  0  0  0  0  0
    0.0000   -2.0000    0.0000 C   0  0  0  0  0  0  0  0  0  0  0  0
   -0.0000   -1.0000    0.0000 C   0  0  0  0  0  0  0  0  0  0  0  0
    0.0000    0.0000    0.0000 C   0  0  0  0  0  0  0  0  0  0  0  0
   -0.8675    0.4975    0.0000 C   0  0  0  0  0  0  0  0  0  0  0  0
   -0.8675    1.5027    0.0000 C   0  0  0  0  0  0  0  0  0  0  0  0
    0.0000    2.0104    0.0000 N   0  0  0  0  0  0  0  0  0  0  0  0
    0.8675    1.5027    0.0000 C   0  0  0  0  0  0  0  0  0  0  0  0
    0.8675    0.4975    0.0000 C   0  0  0  0  0  0  0  0  0  0  0  0
    0.9896   -2.8235    0.0000 C   0  0  0  0  0  0  0  0  0  0  0  0
    1.6317   -3.5902    0.0000 C   0  0  0  0  0  0  0  0  0  0  0  0
    1.2942   -4.5315    0.0000 C   0  0  0  0  0  0  0  0  0  0  0  0
    0.3046   -4.7080    0.0000 C   0  0  0  0  0  0  0  0  0  0  0  0
   -0.3475   -3.9432    0.0000 C   0  0  0  0  0  0  0  0  0  0  0  0
   -2.6132   -3.4136    0.0000 N   0  0  0  0  0  0  0  0  0  0  0  0
   -3.2575   -4.1784    0.0000 C   0  0  0  0  0  0  0  0  0  0  0  0
   -4.2423   -4.0042    0.0000 C   0  0  0  0  0  0  0  0  0  0  0  0
   -4.8899   -4.7662    0.0000 C   0  0  0  0  0  0  0  0  0  0  0  0
   -4.5493   -5.7120    0.0000 C   0  0  0  0  0  0  0  0  0  0  0  0
   -3.5611   -5.8957    0.0000 N   0  0  0  0  0  0  0  0  0  0  0  0
   -2.9169   -5.1241    0.0000 C   0  0  0  0  0  0  0  0  0  0  0  0
  1  2  2  0  0  0  0
  2  3  1  0  0  0  0
  3  4  1  0  0  0  0
  4 17  1  0  0  0  0
  4  5  1  0  0  0  0
  5  6  3  0  0  0  0
  6  7  1  0  0  0  0
  7 12  1  0  0  0  0
  7  8  2  0  0  0  0
  8  9  1  0  0  0  0
  9 10  2  0  0  0  0
 10 11  1  0  0  0  0
 11 12  2  0  0  0  0
  4 13  1  0  0  0  0
 13 14  1  0  0  0  0
 14 15  1  0  0  0  0
 15 16  1  0  0  0  0
 16 17  1  0  0  0  0
  2 18  1  0  0  0  0
 18 19  1  0  0  0  0
 19 24  1  0  0  0  0
 19 20  2  0  0  0  0
 20 21  1  0  0  0  0
 21 22  2  0  0  0  0
 22 23  1  0  0  0  0
 23 24  2  0  0  0  0
M  END
$$$$
CHR-SOS-b30-6
  -OEChem-03222016562D

 24 26  0     0  0  0  0  0  0999 V2000
    4.1410   -2.8880    0.0000 O   0  0  0  0  0  0  0  0  0  0  0  0
    3.1568   -2.7110    0.0000 C   0  0  0  0  0  0  0  0  0  0  0  0
    2.8180   -1.7701    0.0000 C   0  0  0  0  0  0  0  0  0  0  0  0
    3.4634   -1.0063    0.0000 C   0  0  0  0  0  0  0  0  0  0  0  0
    2.5981   -0.5050    0.0000 C   0  0  0  0  0  0  0  0  0  0  0  0
    1.7328   -0.0038    0.0000 C   0  0  0  0  0  0  0  0  0  0  0  0
    0.8675    0.4975    0.0000 C   0  0  0  0  0  0  0  0  0  0  0  0
    0.0000    0.0000    0.0000 C   0  0  0  0  0  0  0  0  0  0  0  0
   -0.8675    0.4975    0.0000 C   0  0  0  0  0  0  0  0  0  0  0  0
   -0.8675    1.5027    0.0000 C   0  0  0  0  0  0  0  0  0  0  0  0
    0.0000    2.0104    0.0000 N   0  0  0  0  0  0  0  0  0  0  0  0
    0.8675    1.5027    0.0000 C   0  0  0  0  0  0  0  0  0  0  0  0
    3.8067   -0.0615    0.0000 C   0  0  0  0  0  0  0  0  0  0  0  0
    4.7920    0.1098    0.0000 C   0  0  0  0  0  0  0  0  0  0  0  0
    5.4374   -0.6541    0.0000 C   0  0  0  0  0  0  0  0  0  0  0  0
    5.0941   -1.5988    0.0000 C   0  0  0  0  0  0  0  0  0  0  0  0
    4.1053   -1.7797    0.0000 C   0  0  0  0  0  0  0  0  0  0  0  0
    2.5114   -3.4748    0.0000 N   0  0  0  0  0  0  0  0  0  0  0  0
    2.8502   -4.4157    0.0000 C   0  0  0  0  0  0  0  0  0  0  0  0
    2.2059   -5.1805    0.0000 C   0  0  0  0  0  0  0  0  0  0  0  0
    2.5406   -6.1228    0.0000 C   0  0  0  0  0  0  0  0  0  0  0  0
    3.5297   -6.3022    0.0000 C   0  0  0  0  0  0  0  0  0  0  0  0
    4.1840   -5.5392    0.0000 N   0  0  0  0  0  0  0  0  0  0  0  0
    3.8393   -4.5950    0.0000 C   0  0  0  0  0  0  0  0  0  0  0  0
  1  2  2  0  0  0  0
  2  3  1  0  0  0  0
  3  4  1  0  0  0  0
  4 17  1  0  0  0  0
  4  5  1  0  0  0  0
  5  6  3  0  0  0  0
  6  7  1  0  0  0  0
  7 12  1  0  0  0  0
  7  8  2  0  0  0  0
  8  9  1  0  0  0  0
  9 10  2  0  0  0  0
 10 11  1  0  0  0  0
 11 12  2  0  0  0  0
  4 13  1  0  0  0  0
 13 14  1  0  0  0  0
 14 15  1  0  0  0  0
 15 16  1  0  0  0  0
 16 17  1  0  0  0  0
  2 18  1  0  0  0  0
 18 19  1  0  0  0  0
 19 24  1  0  0  0  0
 19 20  2  0  0  0  0
 20 21  1  0  0  0  0
 21 22  2  0  0  0  0
 22 23  1  0  0  0  0
 23 24  2  0  0  0  0
M  END
$$$$
CHR-SOS-b30-7
  -OEChem-03222016562D

 24 26  0     0  0  0  0  0  0999 V2000
    5.4379    2.6381    0.0000 O   0  0  0  0  0  0  0  0  0  0  0  0
    4.7913    1.8752    0.0000 C   0  0  0  0  0  0  0  0  0  0  0  0
    3.8074    2.0537    0.0000 C   0  0  0  0  0  0  0  0  0  0  0  0
    3.4700    2.9950    0.0000 C   0  0  0  0  0  0  0  0  0  0  0  0
    2.6025    2.4976    0.0000 C   0  0  0  0  0  0  0  0  0  0  0  0
    1.7350    2.0001    0.0000 C   0  0  0  0  0  0  0  0  0  0  0  0
    0.8675    1.5027    0.0000 C   0  0  0  0  0  0  0  0  0  0  0  0
    0.8675    0.4975    0.0000 C   0  0  0  0  0  0  0  0  0  0  0  0
    0.0000    0.0000    0.0000 C   0  0  0  0  0  0  0  0  0  0  0  0
   -0.8675    0.4975    0.0000 C   0  0  0  0  0  0  0  0  0  0  0  0
   -0.8675    1.5027    0.0000 C   0  0  0  0  0  0  0  0  0  0  0  0
    0.0000    2.0104    0.0000 N   0  0  0  0  0  0  0  0  0  0  0  0
    2.8246    3.7657    0.0000 C   0  0  0  0  0  0  0  0  0  0  0  0
    3.1703    4.7041    0.0000 C   0  0  0  0  0  0  0  0  0  0  0  0
    4.1548    4.8796    0.0000 C   0  0  0  0  0  0  0  0  0  0  0  0
    4.8002    4.1090    0.0000 C   0  0  0  0  0  0  0  0  0  0  0  0
    4.4610    3.1628    0.0000 C   0  0  0  0  0  0  0  0  0  0  0  0
    5.1287    0.9338    0.0000 N   0  0  0  0  0  0  0  0  0  0  0  0
    6.1127    0.7553    0.0000 C   0  0  0  0  0  0  0  0  0  0  0  0
    6.4514   -0.1856    0.0000 C   0  0  0  0  0  0  0  0  0  0  0  0
    7.4346   -0.3684    0.0000 C   0  0  0  0  0  0  0  0  0  0  0  0
    8.0856    0.3975    0.0000 C   0  0  0  0  0  0  0  0  0  0  0  0
    7.7535    1.3462    0.0000 N   0  0  0  0  0  0  0  0  0  0  0  0
    6.7637    1.5212    0.0000 C   0  0  0  0  0  0  0  0  0  0  0  0
  1  2  2  0  0  0  0
  2  3  1  0  0  0  0
  3  4  1  0  0  0  0
  4 17  1  0  0  0  0
  4  5  1  0  0  0  0
  5  6  3  0  0  0  0
  6  7  1  0  0  0  0
  7 12  1  0  0  0  0
  7  8  2  0  0  0  0
  8  9  1  0  0  0  0
  9 10  2  0  0  0  0
 10 11  1  0  0  0  0
 11 12  2  0  0  0  0
  4 13  1  0  0  0  0
 13 14  1  0  0  0  0
 14 15  1  0  0  0  0
 15 16  1  0  0  0  0
 16 17  1  0  0  0  0
  2 18  1  0  0  0  0
 18 19  1  0  0  0  0
 19 24  1  0  0  0  0
 19 20  2  0  0  0  0
 20 21  1  0  0  0  0
 21 22  2  0  0  0  0
 22 23  1  0  0  0  0
 23 24  2  0  0  0  0
M  END
$$$$
ROB-UNI-b2e-1
  -OEChem-03222016562D

 23 24  0     0  0  0  0  0  0999 V2000
   -0.8653   -0.5013    0.0000 Cl  0  0  0  0  0  0  0  0  0  0  0  0
    0.0000    0.0000    0.0000 C   0  0  0  0  0  0  0  0  0  0  0  0
    0.8680   -0.4978    0.0000 C   0  0  0  0  0  0  0  0  0  0  0  0
    1.7360   -0.0012    0.0000 C   0  0  0  0  0  0  0  0  0  0  0  0
    1.7360    1.0058    0.0000 C   0  0  0  0  0  0  0  0  0  0  0  0
    2.6938    1.3169    0.0000 N   0  0  0  0  0  0  0  0  0  0  0  0
    3.2858    0.5023    0.0000 C   0  0  0  0  0  0  0  0  0  0  0  0
    2.6938   -0.3125    0.0000 C   0  0  0  0  0  0  0  0  0  0  0  0
    3.0028   -1.2636    0.0000 C   0  0  0  0  0  0  0  0  0  0  0  0
    3.9809   -1.4715    0.0000 C   0  0  0  0  0  0  0  0  0  0  0  0
    4.2899   -2.4226    0.0000 N   0  0  0  0  0  0  0  0  0  0  0  0
    5.2680   -2.6306    0.0000 C   0  0  0  0  0  0  0  0  0  0  0  0
    5.5770   -3.5816    0.0000 C   0  0  0  0  0  0  0  0  0  0  0  0
    5.9372   -1.8874    0.0000 O   0  0  0  0  0  0  0  0  0  0  0  0
    0.8680    1.5138    0.0000 C   0  0  0  0  0  0  0  0  0  0  0  0
    0.8680    2.5138    0.0000 C   0  0  0  0  0  0  0  0  0  0  0  0
    0.0020    3.0138    0.0000 C   0  0  0  0  0  0  0  0  0  0  0  0
    0.0020    4.0138    0.0000 N   0  0  0  0  0  0  0  0  0  0  0  0
   -0.8641    4.5138    0.0000 S   0  0  0  0  0  0  0  0  0  0  0  0
   -1.7301    5.0138    0.0000 C   0  0  0  0  0  0  0  0  0  0  0  0
   -1.3641    3.6478    0.0000 O   0  0  0  0  0  0  0  0  0  0  0  0
   -0.3640    5.3798    0.0000 O   0  0  0  0  0  0  0  0  0  0  0  0
    0.0000    1.0058    0.0000 C   0  0  0  0  0  0  0  0  0  0  0  0
  1  2  1  0  0  0  0
  2 23  2  0  0  0  0
  2  3  1  0  0  0  0
  3  4  2  0  0  0  0
  4  8  1  0  0  0  0
  4  5  1  0  0  0  0
  5  6  1  0  0  0  0
  6  7  1  0  0  0  0
  7  8  2  0  0  0  0
  8  9  1  0  0  0  0
  9 10  1  0  0  0  0
 10 11  1  0  0  0  0
 11 12  1  0  0  0  0
 12 13  1  0  0  0  0
 12 14  2  0  0  0  0
  5 15  2  0  0  0  0
 15 16  1  0  0  0  0
 16 17  1  0  0  0  0
 17 18  1  0  0  0  0
 18 19  1  0  0  0  0
 19 20  1  0  0  0  0
 19 21  2  0  0  0  0
 19 22  2  0  0  0  0
 15 23  1  0  0  0  0
M  END
$$$$
ROB-UNI-b2e-2
  -OEChem-03222016562D

 24 25  0     0  0  0  0  0  0999 V2000
   -0.8653   -0.5013    0.0000 Cl  0  0  0  0  0  0  0  0  0  0  0  0
    0.0000    0.0000    0.0000 C   0  0  0  0  0  0  0  0  0  0  0  0
    0.0000    1.0058    0.0000 C   0  0  0  0  0  0  0  0  0  0  0  0
    0.8680    1.5138    0.0000 C   0  0  0  0  0  0  0  0  0  0  0  0
    0.8680    2.5138    0.0000 C   0  0  0  0  0  0  0  0  0  0  0  0
    0.0020    3.0138    0.0000 C   0  0  0  0  0  0  0  0  0  0  0  0
    0.0020    4.0138    0.0000 N   0  0  0  0  0  0  0  0  0  0  0  0
   -0.8640    4.5138    0.0000 S   0  0  0  0  0  0  0  0  0  0  0  0
   -1.3640    3.6478    0.0000 O   0  0  0  0  0  0  0  0  0  0  0  0
   -0.3640    5.3798    0.0000 O   0  0  0  0  0  0  0  0  0  0  0  0
   -1.7301    5.0138    0.0000 C   0  0  0  0  0  0  0  0  0  0  0  0
    1.7360    1.0058    0.0000 C   0  0  0  0  0  0  0  0  0  0  0  0
    2.6938    1.3169    0.0000 N   0  0  0  0  0  0  0  0  0  0  0  0
    3.2858    0.5023    0.0000 C   0  0  0  0  0  0  0  0  0  0  0  0
    2.6938   -0.3125    0.0000 C   0  0  0  0  0  0  0  0  0  0  0  0
    1.7360   -0.0012    0.0000 C   0  0  0  0  0  0  0  0  0  0  0  0
    0.8680   -0.4978    0.0000 C   0  0  0  0  0  0  0  0  0  0  0  0
    3.0028   -1.2636    0.0000 C   0  0  0  0  0  0  0  0  0  0  0  0
    3.9809   -1.4715    0.0000 C   0  0  0  0  0  0  0  0  0  0  0  0
    4.2899   -2.4226    0.0000 N   0  0  0  0  0  0  0  0  0  0  0  0
    5.2680   -2.6306    0.0000 S   0  0  0  0  0  0  0  0  0  0  0  0
    5.4760   -1.6524    0.0000 O   0  0  0  0  0  0  0  0  0  0  0  0
    5.0601   -3.6087    0.0000 O   0  0  0  0  0  0  0  0  0  0  0  0
    6.2462   -2.8385    0.0000 C   0  0  0  0  0  0  0  0  0  0  0  0
  1  2  1  0  0  0  0
  2 17  2  0  0  0  0
  2  3  1  0  0  0  0
  3  4  2  0  0  0  0
  4  5  1  0  0  0  0
  5  6  1  0  0  0  0
  6  7  1  0  0  0  0
  7  8  1  0  0  0  0
  8  9  2  0  0  0  0
  8 10  2  0  0  0  0
  8 11  1  0  0  0  0
  4 12  1  0  0  0  0
 12 16  2  0  0  0  0
 12 13  1  0  0  0  0
 13 14  1  0  0  0  0
 14 15  2  0  0  0  0
 15 16  1  0  0  0  0
 16 17  1  0  0  0  0
 15 18  1  0  0  0  0
 18 19  1  0  0  0  0
 19 20  1  0  0  0  0
 20 21  1  0  0  0  0
 21 22  2  0  0  0  0
 21 23  2  0  0  0  0
 21 24  1  0  0  0  0
M  END
$$$$
ROB-UNI-b2e-3
  -OEChem-03222016562D

 27 28  0     0  0  0  0  0  0999 V2000
   -1.7301    5.0138    0.0000 C   0  0  0  0  0  0  0  0  0  0  0  0
   -0.8640    4.5138    0.0000 S   0  0  0  0  0  0  0  0  0  0  0  0
   -1.3640    3.6478    0.0000 O   0  0  0  0  0  0  0  0  0  0  0  0
   -0.3640    5.3798    0.0000 O   0  0  0  0  0  0  0  0  0  0  0  0
    0.0020    4.0138    0.0000 N   0  0  0  0  0  0  0  0  0  0  0  0
    0.0020    3.0138    0.0000 C   0  0  0  0  0  0  0  0  0  0  0  0
    0.8680    2.5138    0.0000 C   0  0  0  0  0  0  0  0  0  0  0  0
    0.8680    1.5138    0.0000 C   0  0  0  0  0  0  0  0  0  0  0  0
    1.7360    1.0058    0.0000 C   0  0  0  0  0  0  0  0  0  0  0  0
    2.6938    1.3169    0.0000 N   0  0  0  0  0  0  0  0  0  0  0  0
    3.2858    0.5023    0.0000 C   0  0  0  0  0  0  0  0  0  0  0  0
    2.6938   -0.3125    0.0000 C   0  0  0  0  0  0  0  0  0  0  0  0
    1.7360   -0.0012    0.0000 C   0  0  0  0  0  0  0  0  0  0  0  0
    0.8680   -0.4978    0.0000 C   0  0  0  0  0  0  0  0  0  0  0  0
    0.0000    0.0000    0.0000 C   0  0  0  0  0  0  0  0  0  0  0  0
   -0.8653   -0.5013    0.0000 C   0  0  0  0  0  0  0  0  0  0  0  0
   -1.7306   -1.0025    0.0000 N   0  0  0  0  0  0  0  0  0  0  0  0
    0.0000    1.0058    0.0000 C   0  0  0  0  0  0  0  0  0  0  0  0
    3.0028   -1.2636    0.0000 C   0  0  0  0  0  0  0  0  0  0  0  0
    3.9809   -1.4715    0.0000 C   0  0  0  0  0  0  0  0  0  0  0  0
    4.2899   -2.4226    0.0000 N   0  0  0  0  0  0  0  0  0  0  0  0
    5.2680   -2.6306    0.0000 S   0  0  0  0  0  0  0  0  0  0  0  0
    5.4760   -1.6524    0.0000 O   0  0  0  0  0  0  0  0  0  0  0  0
    5.0601   -3.6087    0.0000 O   0  0  0  0  0  0  0  0  0  0  0  0
    6.2462   -2.8385    0.0000 C   0  0  0  0  0  0  0  0  0  0  0  0
    3.0028    2.2680    0.0000 C   0  0  0  0  0  0  0  0  0  0  0  0
    2.3337    3.0111    0.0000 C   0  0  0  0  0  0  0  0  0  0  0  0
  1  2  1  0  0  0  0
  2  3  2  0  0  0  0
  2  4  2  0  0  0  0
  2  5  1  0  0  0  0
  5  6  1  0  0  0  0
  6  7  1  0  0  0  0
  7  8  1  0  0  0  0
  8 18  2  0  0  0  0
  8  9  1  0  0  0  0
  9 13  2  0  0  0  0
  9 10  1  0  0  0  0
 10 11  1  0  0  0  0
 11 12  2  0  0  0  0
 12 13  1  0  0  0  0
 13 14  1  0  0  0  0
 14 15  2  0  0  0  0
 15 16  1  0  0  0  0
 16 17  3  0  0  0  0
 15 18  1  0  0  0  0
 12 19  1  0  0  0  0
 19 20  1  0  0  0  0
 20 21  1  0  0  0  0
 21 22  1  0  0  0  0
 22 23  2  0  0  0  0
 22 24  2  0  0  0  0
 22 25  1  0  0  0  0
 10 26  1  0  0  0  0
 26 27  1  0  0  0  0
M  END
$$$$
ROB-UNI-b2e-4
  -OEChem-03222016562D

 18 18  0     0  0  0  0  0  0999 V2000
   -2.6025    2.4976    0.0000 N   0  0  0  0  0  0  0  0  0  0  0  0
   -1.7350    2.0001    0.0000 C   0  0  0  0  0  0  0  0  0  0  0  0
   -0.8675    1.5027    0.0000 C   0  0  0  0  0  0  0  0  0  0  0  0
   -0.8675    0.4975    0.0000 C   0  0  0  0  0  0  0  0  0  0  0  0
    0.0000    0.0000    0.0000 C   0  0  0  0  0  0  0  0  0  0  0  0
    0.8675    0.4975    0.0000 C   0  0  0  0  0  0  0  0  0  0  0  0
    1.7328   -0.0038    0.0000 N   0  0  0  0  0  0  0  0  0  0  0  0
    2.5995    0.4950    0.0000 C   0  0  0  0  0  0  0  0  0  0  0  0
    3.4648   -0.0063    0.0000 C   0  0  0  0  0  0  0  0  0  0  0  0
    0.8675    1.5027    0.0000 C   0  0  0  0  0  0  0  0  0  0  0  0
    1.7350    2.0001    0.0000 C   0  0  0  0  0  0  0  0  0  0  0  0
    1.7379    3.0001    0.0000 C   0  0  0  0  0  0  0  0  0  0  0  0
    2.6054    3.4976    0.0000 N   0  0  0  0  0  0  0  0  0  0  0  0
    2.6084    4.4976    0.0000 S   0  0  0  0  0  0  0  0  0  0  0  0
    1.6084    4.5005    0.0000 O   0  0  0  0  0  0  0  0  0  0  0  0
    3.6084    4.4946    0.0000 O   0  0  0  0  0  0  0  0  0  0  0  0
    2.6113    5.4976    0.0000 C   0  0  0  0  0  0  0  0  0  0  0  0
   -0.0000    2.0104    0.0000 C   0  0  0  0  0  0  0  0  0  0  0  0
  1  2  3  0  0  0  0
  2  3  1  0  0  0  0
  3 18  2  0  0  0  0
  3  4  1  0  0  0  0
  4  5  2  0  0  0  0
  5  6  1  0  0  0  0
  6  7  1  0  0  0  0
  7  8  1  0  0  0  0
  8  9  1  0  0  0  0
  6 10  2  0  0  0  0
 10 11  1  0  0  0  0
 11 12  1  0  0  0  0
 12 13  1  0  0  0  0
 13 14  1  0  0  0  0
 14 15  2  0  0  0  0
 14 16  2  0  0  0  0
 14 17  1  0  0  0  0
 10 18  1  0  0  0  0
M  END
$$$$
ROB-UNI-b2e-5
  -OEChem-03222016562D

 26 27  0     0  0  0  0  0  0999 V2000
   -1.7301    5.0138    0.0000 C   0  0  0  0  0  0  0  0  0  0  0  0
   -0.8640    4.5138    0.0000 S   0  0  0  0  0  0  0  0  0  0  0  0
   -1.3640    3.6478    0.0000 O   0  0  0  0  0  0  0  0  0  0  0  0
   -0.3640    5.3798    0.0000 O   0  0  0  0  0  0  0  0  0  0  0  0
    0.0020    4.0138    0.0000 N   0  0  0  0  0  0  0  0  0  0  0  0
    0.0020    3.0138    0.0000 C   0  0  0  0  0  0  0  0  0  0  0  0
    0.8680    2.5138    0.0000 C   0  0  0  0  0  0  0  0  0  0  0  0
    0.8680    1.5138    0.0000 C   0  0  0  0  0  0  0  0  0  0  0  0
    1.7360    1.0058    0.0000 C   0  0  0  0  0  0  0  0  0  0  0  0
    2.6938    1.3169    0.0000 N   0  0  0  0  0  0  0  0  0  0  0  0
    3.2858    0.5023    0.0000 C   0  0  0  0  0  0  0  0  0  0  0  0
    2.6938   -0.3125    0.0000 C   0  0  0  0  0  0  0  0  0  0  0  0
    1.7360   -0.0012    0.0000 C   0  0  0  0  0  0  0  0  0  0  0  0
    0.8680   -0.4978    0.0000 C   0  0  0  0  0  0  0  0  0  0  0  0
    0.0000    0.0000    0.0000 C   0  0  0  0  0  0  0  0  0  0  0  0
   -0.8653   -0.5013    0.0000 C   0  0  0  0  0  0  0  0  0  0  0  0
   -1.7306   -1.0025    0.0000 N   0  0  0  0  0  0  0  0  0  0  0  0
    0.0000    1.0058    0.0000 C   0  0  0  0  0  0  0  0  0  0  0  0
    3.0028   -1.2636    0.0000 C   0  0  0  0  0  0  0  0  0  0  0  0
    3.9809   -1.4715    0.0000 C   0  0  0  0  0  0  0  0  0  0  0  0
    4.2899   -2.4226    0.0000 N   0  0  0  0  0  0  0  0  0  0  0  0
    5.2680   -2.6306    0.0000 C   0  0  0  0  0  0  0  0  0  0  0  0
    5.9372   -1.8874    0.0000 O   0  0  0  0  0  0  0  0  0  0  0  0
    5.5770   -3.5816    0.0000 C   0  0  0  0  0  0  0  0  0  0  0  0
    3.0028    2.2680    0.0000 C   0  0  0  0  0  0  0  0  0  0  0  0
    2.3337    3.0111    0.0000 C   0  0  0  0  0  0  0  0  0  0  0  0
  1  2  1  0  0  0  0
  2  3  2  0  0  0  0
  2  4  2  0  0  0  0
  2  5  1  0  0  0  0
  5  6  1  0  0  0  0
  6  7  1  0  0  0  0
  7  8  1  0  0  0  0
  8 18  2  0  0  0  0
  8  9  1  0  0  0  0
  9 13  2  0  0  0  0
  9 10  1  0  0  0  0
 10 11  1  0  0  0  0
 11 12  2  0  0  0  0
 12 13  1  0  0  0  0
 13 14  1  0  0  0  0
 14 15  2  0  0  0  0
 15 16  1  0  0  0  0
 16 17  3  0  0  0  0
 15 18  1  0  0  0  0
 12 19  1  0  0  0  0
 19 20  1  0  0  0  0
 20 21  1  0  0  0  0
 21 22  1  0  0  0  0
 22 23  2  0  0  0  0
 22 24  1  0  0  0  0
 10 25  1  0  0  0  0
 25 26  1  0  0  0  0
M  END
$$$$
ROB-UNI-b2e-6
  -OEChem-03222016562D

 22 23  0     1  0  0  0  0  0999 V2000
   -0.8653   -0.5013    0.0000 Cl  0  0  0  0  0  0  0  0  0  0  0  0
    0.0000    0.0000    0.0000 C   0  0  0  0  0  0  0  0  0  0  0  0
    0.0000    1.0058    0.0000 C   0  0  0  0  0  0  0  0  0  0  0  0
    0.8680    1.5138    0.0000 C   0  0  0  0  0  0  0  0  0  0  0  0
    0.8680    2.5138    0.0000 C   0  0  3  0  0  0  0  0  0  0  0  0
    0.0020    3.0138    0.0000 N   0  0  0  0  0  0  0  0  0  0  0  0
    0.0020    4.0138    0.0000 C   0  0  0  0  0  0  0  0  0  0  0  0
    0.8680    4.5138    0.0000 O   0  0  0  0  0  0  0  0  0  0  0  0
   -0.8640    4.5138    0.0000 C   0  0  0  0  0  0  0  0  0  0  0  0
    1.7340    3.0138    0.0000 C   0  0  0  0  0  0  0  0  0  0  0  0
    1.7360    1.0058    0.0000 C   0  0  0  0  0  0  0  0  0  0  0  0
    2.6938    1.3169    0.0000 N   0  0  0  0  0  0  0  0  0  0  0  0
    3.2858    0.5023    0.0000 C   0  0  0  0  0  0  0  0  0  0  0  0
    2.6938   -0.3125    0.0000 C   0  0  0  0  0  0  0  0  0  0  0  0
    1.7360   -0.0012    0.0000 C   0  0  0  0  0  0  0  0  0  0  0  0
    0.8680   -0.4978    0.0000 C   0  0  0  0  0  0  0  0  0  0  0  0
    3.0028   -1.2636    0.0000 C   0  0  0  0  0  0  0  0  0  0  0  0
    3.9809   -1.4715    0.0000 C   0  0  0  0  0  0  0  0  0  0  0  0
    4.2899   -2.4226    0.0000 N   0  0  0  0  0  0  0  0  0  0  0  0
    5.2680   -2.6306    0.0000 C   0  0  0  0  0  0  0  0  0  0  0  0
    5.9372   -1.8874    0.0000 O   0  0  0  0  0  0  0  0  0  0  0  0
    5.5770   -3.5816    0.0000 C   0  0  0  0  0  0  0  0  0  0  0  0
  1  2  1  0  0  0  0
  2 16  2  0  0  0  0
  2  3  1  0  0  0  0
  3  4  2  0  0  0  0
  4  5  1  0  0  0  0
  5  6  1  0  0  0  0
  6  7  1  0  0  0  0
  7  8  2  0  0  0  0
  7  9  1  0  0  0  0
  5 10  1  0  0  0  0
  4 11  1  0  0  0  0
 11 15  2  0  0  0  0
 11 12  1  0  0  0  0
 12 13  1  0  0  0  0
 13 14  2  0  0  0  0
 14 15  1  0  0  0  0
 15 16  1  0  0  0  0
 14 17  1  0  0  0  0
 17 18  1  0  0  0  0
 18 19  1  0  0  0  0
 19 20  1  0  0  0  0
 20 21  2  0  0  0  0
 20 22  1  0  0  0  0
M  END
$$$$
ROB-UNI-b2e-7
  -OEChem-03222016562D

 23 24  0     1  0  0  0  0  0999 V2000
   -1.7306   -1.0025    0.0000 N   0  0  0  0  0  0  0  0  0  0  0  0
   -0.8653   -0.5013    0.0000 C   0  0  0  0  0  0  0  0  0  0  0  0
    0.0000    0.0000    0.0000 C   0  0  0  0  0  0  0  0  0  0  0  0
    0.0000    1.0058    0.0000 C   0  0  0  0  0  0  0  0  0  0  0  0
    0.8680    1.5138    0.0000 C   0  0  0  0  0  0  0  0  0  0  0  0
    0.8680    2.5138    0.0000 C   0  0  3  0  0  0  0  0  0  0  0  0
    0.0020    3.0138    0.0000 N   0  0  0  0  0  0  0  0  0  0  0  0
    0.0020    4.0138    0.0000 C   0  0  0  0  0  0  0  0  0  0  0  0
    0.8680    4.5138    0.0000 O   0  0  0  0  0  0  0  0  0  0  0  0
   -0.8640    4.5138    0.0000 C   0  0  0  0  0  0  0  0  0  0  0  0
    1.7340    3.0138    0.0000 C   0  0  0  0  0  0  0  0  0  0  0  0
    1.7360    1.0058    0.0000 C   0  0  0  0  0  0  0  0  0  0  0  0
    2.6938    1.3169    0.0000 N   0  0  0  0  0  0  0  0  0  0  0  0
    3.2858    0.5023    0.0000 C   0  0  0  0  0  0  0  0  0  0  0  0
    2.6938   -0.3125    0.0000 C   0  0  0  0  0  0  0  0  0  0  0  0
    1.7360   -0.0012    0.0000 C   0  0  0  0  0  0  0  0  0  0  0  0
    0.8680   -0.4978    0.0000 C   0  0  0  0  0  0  0  0  0  0  0  0
    3.0028   -1.2636    0.0000 C   0  0  0  0  0  0  0  0  0  0  0  0
    3.9809   -1.4715    0.0000 C   0  0  0  0  0  0  0  0  0  0  0  0
    4.2899   -2.4226    0.0000 N   0  0  0  0  0  0  0  0  0  0  0  0
    5.2680   -2.6306    0.0000 C   0  0  0  0  0  0  0  0  0  0  0  0
    5.9372   -1.8874    0.0000 O   0  0  0  0  0  0  0  0  0  0  0  0
    5.5770   -3.5816    0.0000 C   0  0  0  0  0  0  0  0  0  0  0  0
  1  2  3  0  0  0  0
  2  3  1  0  0  0  0
  3 17  2  0  0  0  0
  3  4  1  0  0  0  0
  4  5  2  0  0  0  0
  5  6  1  0  0  0  0
  6  7  1  0  0  0  0
  7  8  1  0  0  0  0
  8  9  2  0  0  0  0
  8 10  1  0  0  0  0
  6 11  1  0  0  0  0
  5 12  1  0  0  0  0
 12 16  2  0  0  0  0
 12 13  1  0  0  0  0
 13 14  1  0  0  0  0
 14 15  2  0  0  0  0
 15 16  1  0  0  0  0
 16 17  1  0  0  0  0
 15 18  1  0  0  0  0
 18 19  1  0  0  0  0
 19 20  1  0  0  0  0
 20 21  1  0  0  0  0
 21 22  2  0  0  0  0
 21 23  1  0  0  0  0
M  END
$$$$
ROB-UNI-b2e-8
  -OEChem-03222016562D

 25 26  0     1  0  0  0  0  0999 V2000
   -1.7306   -1.0025    0.0000 N   0  0  0  0  0  0  0  0  0  0  0  0
   -0.8653   -0.5013    0.0000 C   0  0  0  0  0  0  0  0  0  0  0  0
    0.0000    0.0000    0.0000 C   0  0  0  0  0  0  0  0  0  0  0  0
    0.0000    1.0058    0.0000 C   0  0  0  0  0  0  0  0  0  0  0  0
    0.8680    1.5138    0.0000 C   0  0  0  0  0  0  0  0  0  0  0  0
    0.8680    2.5138    0.0000 C   0  0  3  0  0  0  0  0  0  0  0  0
    0.0020    3.0138    0.0000 N   0  0  0  0  0  0  0  0  0  0  0  0
    0.0020    4.0138    0.0000 C   0  0  0  0  0  0  0  0  0  0  0  0
    0.8680    4.5138    0.0000 O   0  0  0  0  0  0  0  0  0  0  0  0
   -0.8640    4.5138    0.0000 C   0  0  0  0  0  0  0  0  0  0  0  0
    1.7340    3.0138    0.0000 C   0  0  0  0  0  0  0  0  0  0  0  0
    1.7360    1.0058    0.0000 C   0  0  0  0  0  0  0  0  0  0  0  0
    2.6938    1.3169    0.0000 N   0  0  0  0  0  0  0  0  0  0  0  0
    3.2858    0.5023    0.0000 C   0  0  0  0  0  0  0  0  0  0  0  0
    2.6938   -0.3125    0.0000 C   0  0  0  0  0  0  0  0  0  0  0  0
    1.7360   -0.0012    0.0000 C   0  0  0  0  0  0  0  0  0  0  0  0
    0.8680   -0.4978    0.0000 C   0  0  0  0  0  0  0  0  0  0  0  0
    3.0028   -1.2636    0.0000 C   0  0  0  0  0  0  0  0  0  0  0  0
    3.9809   -1.4715    0.0000 C   0  0  0  0  0  0  0  0  0  0  0  0
    4.2899   -2.4226    0.0000 N   0  0  0  0  0  0  0  0  0  0  0  0
    5.2680   -2.6306    0.0000 C   0  0  0  0  0  0  0  0  0  0  0  0
    5.9372   -1.8874    0.0000 O   0  0  0  0  0  0  0  0  0  0  0  0
    5.5770   -3.5816    0.0000 C   0  0  0  0  0  0  0  0  0  0  0  0
    3.0028    2.2680    0.0000 C   0  0  0  0  0  0  0  0  0  0  0  0
    3.9810    2.4759    0.0000 C   0  0  0  0  0  0  0  0  0  0  0  0
  1  2  3  0  0  0  0
  2  3  1  0  0  0  0
  3 17  2  0  0  0  0
  3  4  1  0  0  0  0
  4  5  2  0  0  0  0
  5  6  1  0  0  0  0
  6  7  1  0  0  0  0
  7  8  1  0  0  0  0
  8  9  2  0  0  0  0
  8 10  1  0  0  0  0
  6 11  1  0  0  0  0
  5 12  1  0  0  0  0
 12 16  2  0  0  0  0
 12 13  1  0  0  0  0
 13 14  1  0  0  0  0
 14 15  2  0  0  0  0
 15 16  1  0  0  0  0
 16 17  1  0  0  0  0
 15 18  1  0  0  0  0
 18 19  1  0  0  0  0
 19 20  1  0  0  0  0
 20 21  1  0  0  0  0
 21 22  2  0  0  0  0
 21 23  1  0  0  0  0
 13 24  1  0  0  0  0
 24 25  1  0  0  0  0
M  END
$$$$
ROB-UNI-b2e-9
  -OEChem-03222016562D

 24 25  0     0  0  0  0  0  0999 V2000
   -0.8653   -0.5013    0.0000 Cl  0  0  0  0  0  0  0  0  0  0  0  0
    0.0000    0.0000    0.0000 C   0  0  0  0  0  0  0  0  0  0  0  0
    0.0000    1.0089    0.0000 C   0  0  0  0  0  0  0  0  0  0  0  0
    0.8707    1.5185    0.0000 C   0  0  0  0  0  0  0  0  0  0  0  0
    0.8707    2.5185    0.0000 C   0  0  0  0  0  0  0  0  0  0  0  0
    0.0047    3.0185    0.0000 C   0  0  0  0  0  0  0  0  0  0  0  0
    0.0047    4.0185    0.0000 N   0  0  0  0  0  0  0  0  0  0  0  0
   -0.8614    4.5185    0.0000 S   0  0  0  0  0  0  0  0  0  0  0  0
   -1.3614    3.6525    0.0000 O   0  0  0  0  0  0  0  0  0  0  0  0
   -0.3614    5.3845    0.0000 O   0  0  0  0  0  0  0  0  0  0  0  0
   -1.7274    5.0185    0.0000 C   0  0  0  0  0  0  0  0  0  0  0  0
    1.7414    1.0089    0.0000 C   0  0  0  0  0  0  0  0  0  0  0  0
    2.6125    1.5125    0.0000 N   0  0  0  0  0  0  0  0  0  0  0  0
    3.4848    1.0014    0.0000 C   0  0  0  0  0  0  0  0  0  0  0  0
    3.4805   -0.0073    0.0000 C   0  0  0  0  0  0  0  0  0  0  0  0
    2.6039   -0.5053    0.0000 C   0  0  0  0  0  0  0  0  0  0  0  0
    2.5983   -1.5053    0.0000 C   0  0  0  0  0  0  0  0  0  0  0  0
    3.4615   -2.0101    0.0000 C   0  0  0  0  0  0  0  0  0  0  0  0
    3.4560   -3.0101    0.0000 N   0  0  0  0  0  0  0  0  0  0  0  0
    4.3192   -3.5149    0.0000 C   0  0  0  0  0  0  0  0  0  0  0  0
    5.1880   -3.0197    0.0000 O   0  0  0  0  0  0  0  0  0  0  0  0
    4.3136   -4.5149    0.0000 C   0  0  0  0  0  0  0  0  0  0  0  0
    1.7371   -0.0000    0.0000 C   0  0  0  0  0  0  0  0  0  0  0  0
    0.8707   -0.4993    0.0000 C   0  0  0  0  0  0  0  0  0  0  0  0
  1  2  1  0  0  0  0
  2 24  2  0  0  0  0
  2  3  1  0  0  0  0
  3  4  2  0  0  0  0
  4  5  1  0  0  0  0
  5  6  1  0  0  0  0
  6  7  1  0  0  0  0
  7  8  1  0  0  0  0
  8  9  2  0  0  0  0
  8 10  2  0  0  0  0
  8 11  1  0  0  0  0
  4 12  1  0  0  0  0
 12 23  1  0  0  0  0
 12 13  2  0  0  0  0
 13 14  1  0  0  0  0
 14 15  2  0  0  0  0
 15 16  1  0  0  0  0
 16 17  1  0  0  0  0
 17 18  1  0  0  0  0
 18 19  1  0  0  0  0
 19 20  1  0  0  0  0
 20 21  2  0  0  0  0
 20 22  1  0  0  0  0
 16 23  2  0  0  0  0
 23 24  1  0  0  0  0
M  END
$$$$
ROB-UNI-b2e-10
  -OEChem-03222016562D

 25 26  0     0  0  0  0  0  0999 V2000
    3.4688    5.0185    0.0000 C   0  0  0  0  0  0  0  0  0  0  0  0
    2.6028    4.5185    0.0000 S   0  0  0  0  0  0  0  0  0  0  0  0
    3.1028    3.6525    0.0000 O   0  0  0  0  0  0  0  0  0  0  0  0
    2.1028    5.3845    0.0000 O   0  0  0  0  0  0  0  0  0  0  0  0
    1.7367    4.0185    0.0000 N   0  0  0  0  0  0  0  0  0  0  0  0
    1.7367    3.0185    0.0000 C   0  0  0  0  0  0  0  0  0  0  0  0
    0.8707    2.5185    0.0000 C   0  0  0  0  0  0  0  0  0  0  0  0
    0.8707    1.5185    0.0000 C   0  0  0  0  0  0  0  0  0  0  0  0
    1.7414    1.0089    0.0000 C   0  0  0  0  0  0  0  0  0  0  0  0
    2.6125    1.5125    0.0000 N   0  0  0  0  0  0  0  0  0  0  0  0
    3.4848    1.0014    0.0000 C   0  0  0  0  0  0  0  0  0  0  0  0
    3.4805   -0.0073    0.0000 C   0  0  0  0  0  0  0  0  0  0  0  0
    2.6039   -0.5053    0.0000 C   0  0  0  0  0  0  0  0  0  0  0  0
    1.7371   -0.0000    0.0000 C   0  0  0  0  0  0  0  0  0  0  0  0
    0.8707   -0.4993    0.0000 C   0  0  0  0  0  0  0  0  0  0  0  0
    0.0000    0.0000    0.0000 C   0  0  0  0  0  0  0  0  0  0  0  0
   -0.8653   -0.5013    0.0000 C   0  0  0  0  0  0  0  0  0  0  0  0
   -1.7306   -1.0025    0.0000 N   0  0  0  0  0  0  0  0  0  0  0  0
    0.0000    1.0089    0.0000 C   0  0  0  0  0  0  0  0  0  0  0  0
    2.5983   -1.5053    0.0000 C   0  0  0  0  0  0  0  0  0  0  0  0
    3.4615   -2.0101    0.0000 C   0  0  0  0  0  0  0  0  0  0  0  0
    3.4560   -3.0101    0.0000 N   0  0  0  0  0  0  0  0  0  0  0  0
    4.3192   -3.5149    0.0000 C   0  0  0  0  0  0  0  0  0  0  0  0
    5.1880   -3.0197    0.0000 O   0  0  0  0  0  0  0  0  0  0  0  0
    4.3136   -4.5149    0.0000 C   0  0  0  0  0  0  0  0  0  0  0  0
  1  2  1  0  0  0  0
  2  3  2  0  0  0  0
  2  4  2  0  0  0  0
  2  5  1  0  0  0  0
  5  6  1  0  0  0  0
  6  7  1  0  0  0  0
  7  8  1  0  0  0  0
  8 19  2  0  0  0  0
  8  9  1  0  0  0  0
  9 14  2  0  0  0  0
  9 10  1  0  0  0  0
 10 11  2  0  0  0  0
 11 12  1  0  0  0  0
 12 13  2  0  0  0  0
 13 14  1  0  0  0  0
 14 15  1  0  0  0  0
 15 16  2  0  0  0  0
 16 17  1  0  0  0  0
 17 18  3  0  0  0  0
 16 19  1  0  0  0  0
 13 20  1  0  0  0  0
 20 21  1  0  0  0  0
 21 22  1  0  0  0  0
 22 23  1  0  0  0  0
 23 24  2  0  0  0  0
 23 25  1  0  0  0  0
M  END
$$$$
ROB-UNI-b2e-11
  -OEChem-03222016562D

 25 27  0     0  0  0  0  0  0999 V2000
   -0.8653   -0.5013    0.0000 Cl  0  0  0  0  0  0  0  0  0  0  0  0
    0.0000    0.0000    0.0000 C   0  0  0  0  0  0  0  0  0  0  0  0
    0.0000    1.0058    0.0000 C   0  0  0  0  0  0  0  0  0  0  0  0
    0.8680    1.5138    0.0000 C   0  0  0  0  0  0  0  0  0  0  0  0
    1.7360    1.0058    0.0000 C   0  0  0  0  0  0  0  0  0  0  0  0
    2.6938    1.3169    0.0000 N   0  0  0  0  0  0  0  0  0  0  0  0
    3.2858    0.5023    0.0000 C   0  0  0  0  0  0  0  0  0  0  0  0
    2.6938   -0.3125    0.0000 C   0  0  0  0  0  0  0  0  0  0  0  0
    1.7360   -0.0012    0.0000 C   0  0  0  0  0  0  0  0  0  0  0  0
    0.8680   -0.4978    0.0000 C   0  0  0  0  0  0  0  0  0  0  0  0
    3.0028   -1.2636    0.0000 C   0  0  0  0  0  0  0  0  0  0  0  0
    3.9809   -1.4715    0.0000 C   0  0  0  0  0  0  0  0  0  0  0  0
    4.2899   -2.4226    0.0000 N   0  0  0  0  0  0  0  0  0  0  0  0
    5.2680   -2.6306    0.0000 C   0  0  0  0  0  0  0  0  0  0  0  0
    5.9372   -1.8874    0.0000 O   0  0  0  0  0  0  0  0  0  0  0  0
    5.5770   -3.5816    0.0000 C   0  0  0  0  0  0  0  0  0  0  0  0
    3.0028    2.2680    0.0000 C   0  0  0  0  0  0  0  0  0  0  0  0
    2.3337    3.0111    0.0000 C   0  0  0  0  0  0  0  0  0  0  0  0
    1.3555    2.8032    0.0000 O   0  0  0  0  0  0  0  0  0  0  0  0
    2.6427    3.9622    0.0000 N   0  0  0  0  0  0  0  0  0  0  0  0
    1.9714    4.7034    0.0000 C   0  0  0  0  0  0  0  0  0  0  0  0
    2.2820    5.6594    0.0000 C   0  0  0  0  0  0  0  0  0  0  0  0
    3.2639    5.8742    0.0000 O   0  0  0  0  0  0  0  0  0  0  0  0
    3.9321    5.1233    0.0000 C   0  0  0  0  0  0  0  0  0  0  0  0
    3.6214    4.1672    0.0000 C   0  0  0  0  0  0  0  0  0  0  0  0
  1  2  1  0  0  0  0
  2 10  2  0  0  0  0
  2  3  1  0  0  0  0
  3  4  2  0  0  0  0
  4  5  1  0  0  0  0
  5  9  2  0  0  0  0
  5  6  1  0  0  0  0
  6  7  1  0  0  0  0
  7  8  2  0  0  0  0
  8  9  1  0  0  0  0
  9 10  1  0  0  0  0
  8 11  1  0  0  0  0
 11 12  1  0  0  0  0
 12 13  1  0  0  0  0
 13 14  1  0  0  0  0
 14 15  2  0  0  0  0
 14 16  1  0  0  0  0
  6 17  1  0  0  0  0
 17 18  1  0  0  0  0
 18 19  2  0  0  0  0
 18 20  1  0  0  0  0
 20 25  1  0  0  0  0
 20 21  1  0  0  0  0
 21 22  1  0  0  0  0
 22 23  1  0  0  0  0
 23 24  1  0  0  0  0
 24 25  1  0  0  0  0
M  END
$$$$
ROB-UNI-b2e-12
  -OEChem-03222016562D

 26 28  0     0  0  0  0  0  0999 V2000
    5.5770   -3.5816    0.0000 C   0  0  0  0  0  0  0  0  0  0  0  0
    5.2680   -2.6306    0.0000 C   0  0  0  0  0  0  0  0  0  0  0  0
    5.9372   -1.8874    0.0000 O   0  0  0  0  0  0  0  0  0  0  0  0
    4.2899   -2.4226    0.0000 N   0  0  0  0  0  0  0  0  0  0  0  0
    3.9809   -1.4715    0.0000 C   0  0  0  0  0  0  0  0  0  0  0  0
    3.0028   -1.2636    0.0000 C   0  0  0  0  0  0  0  0  0  0  0  0
    2.6938   -0.3125    0.0000 C   0  0  0  0  0  0  0  0  0  0  0  0
    1.7360   -0.0012    0.0000 C   0  0  0  0  0  0  0  0  0  0  0  0
    0.8680   -0.4978    0.0000 C   0  0  0  0  0  0  0  0  0  0  0  0
    0.0000    0.0000    0.0000 C   0  0  0  0  0  0  0  0  0  0  0  0
    0.0000    1.0058    0.0000 C   0  0  0  0  0  0  0  0  0  0  0  0
    0.8680    1.5138    0.0000 C   0  0  0  0  0  0  0  0  0  0  0  0
    1.7360    1.0058    0.0000 C   0  0  0  0  0  0  0  0  0  0  0  0
    2.6938    1.3169    0.0000 N   0  0  0  0  0  0  0  0  0  0  0  0
    3.0028    2.2680    0.0000 C   0  0  0  0  0  0  0  0  0  0  0  0
    2.3337    3.0111    0.0000 C   0  0  0  0  0  0  0  0  0  0  0  0
    1.3555    2.8032    0.0000 O   0  0  0  0  0  0  0  0  0  0  0  0
    2.6427    3.9622    0.0000 N   0  0  0  0  0  0  0  0  0  0  0  0
    1.9714    4.7034    0.0000 C   0  0  0  0  0  0  0  0  0  0  0  0
    2.2820    5.6594    0.0000 C   0  0  0  0  0  0  0  0  0  0  0  0
    3.2639    5.8742    0.0000 O   0  0  0  0  0  0  0  0  0  0  0  0
    3.9321    5.1233    0.0000 C   0  0  0  0  0  0  0  0  0  0  0  0
    3.6214    4.1672    0.0000 C   0  0  0  0  0  0  0  0  0  0  0  0
    3.2858    0.5023    0.0000 C   0  0  0  0  0  0  0  0  0  0  0  0
   -0.8653   -0.5013    0.0000 C   0  0  0  0  0  0  0  0  0  0  0  0
   -1.7306   -1.0025    0.0000 N   0  0  0  0  0  0  0  0  0  0  0  0
  1  2  1  0  0  0  0
  2  3  2  0  0  0  0
  2  4  1  0  0  0  0
  4  5  1  0  0  0  0
  5  6  1  0  0  0  0
  6  7  1  0  0  0  0
  7 24  2  0  0  0  0
  7  8  1  0  0  0  0
  8 13  2  0  0  0  0
  8  9  1  0  0  0  0
  9 10  2  0  0  0  0
 10 11  1  0  0  0  0
 11 12  2  0  0  0  0
 12 13  1  0  0  0  0
 13 14  1  0  0  0  0
 14 15  1  0  0  0  0
 15 16  1  0  0  0  0
 16 17  2  0  0  0  0
 16 18  1  0  0  0  0
 18 23  1  0  0  0  0
 18 19  1  0  0  0  0
 19 20  1  0  0  0  0
 20 21  1  0  0  0  0
 21 22  1  0  0  0  0
 22 23  1  0  0  0  0
 14 24  1  0  0  0  0
 10 25  1  0  0  0  0
 25 26  3  0  0  0  0
M  END
$$$$
PAT-UNK-b2d-1
  -OEChem-03222016562D

 18 19  0     0  0  0  0  0  0999 V2000
    3.4745    4.0077    0.0000 C   0  0  0  0  0  0  0  0  0  0  0  0
    2.6055    4.5129    0.0000 C   0  0  0  0  0  0  0  0  0  0  0  0
    2.6114    5.5129    0.0000 C   0  0  0  0  0  0  0  0  0  0  0  0
    2.6173    6.5129    0.0000 N   0  0  0  0  0  0  0  0  0  0  0  0
    1.7306    4.0180    0.0000 C   0  0  0  0  0  0  0  0  0  0  0  0
    1.7335    3.0129    0.0000 C   0  0  0  0  0  0  0  0  0  0  0  0
    0.8675    2.5129    0.0000 C   0  0  0  0  0  0  0  0  0  0  0  0
    0.8675    1.5129    0.0000 N   0  0  0  0  0  0  0  0  0  0  0  0
    0.0000    1.0052    0.0000 C   0  0  0  0  0  0  0  0  0  0  0  0
    0.0000    0.0000    0.0000 C   0  0  0  0  0  0  0  0  0  0  0  0
    0.8675   -0.4975    0.0000 N   0  0  0  0  0  0  0  0  0  0  0  0
    0.8675   -1.4975    0.0000 C   0  0  0  0  0  0  0  0  0  0  0  0
    0.0015   -1.9975    0.0000 O   0  0  0  0  0  0  0  0  0  0  0  0
    1.7335   -1.9975    0.0000 C   0  0  0  0  0  0  0  0  0  0  0  0
    1.7350    0.0000    0.0000 C   0  0  0  0  0  0  0  0  0  0  0  0
    1.7350    1.0052    0.0000 C   0  0  0  0  0  0  0  0  0  0  0  0
    2.6026    2.5077    0.0000 C   0  0  0  0  0  0  0  0  0  0  0  0
    3.4686    3.0077    0.0000 C   0  0  0  0  0  0  0  0  0  0  0  0
  1 18  1  0  0  0  0
  1  2  2  0  0  0  0
  2  3  1  0  0  0  0
  3  4  3  0  0  0  0
  2  5  1  0  0  0  0
  5  6  2  0  0  0  0
  6  7  1  0  0  0  0
  7  8  1  0  0  0  0
  8 16  1  0  0  0  0
  8  9  1  0  0  0  0
  9 10  1  0  0  0  0
 10 11  1  0  0  0  0
 11 12  1  0  0  0  0
 12 13  2  0  0  0  0
 12 14  1  0  0  0  0
 11 15  1  0  0  0  0
 15 16  1  0  0  0  0
  6 17  1  0  0  0  0
 17 18  2  0  0  0  0
M  END
$$$$
PAT-UNK-b2d-2
  -OEChem-03222016562D

 19 20  0     0  0  0  0  0  0999 V2000
    0.0000    1.0052    0.0000 C   0  0  0  0  0  0  0  0  0  0  0  0
    0.0000    0.0000    0.0000 C   0  0  0  0  0  0  0  0  0  0  0  0
    0.8675   -0.4975    0.0000 N   0  0  0  0  0  0  0  0  0  0  0  0
    0.8675   -1.4975    0.0000 C   0  0  0  0  0  0  0  0  0  0  0  0
    0.0015   -1.9975    0.0000 O   0  0  0  0  0  0  0  0  0  0  0  0
    1.7335   -1.9975    0.0000 C   0  0  0  0  0  0  0  0  0  0  0  0
    1.7350    0.0000    0.0000 C   0  0  0  0  0  0  0  0  0  0  0  0
    1.7350    1.0052    0.0000 C   0  0  0  0  0  0  0  0  0  0  0  0
    0.8675    1.5129    0.0000 N   0  0  0  0  0  0  0  0  0  0  0  0
    0.8675    2.5129    0.0000 C   0  0  0  0  0  0  0  0  0  0  0  0
    0.0015    3.0129    0.0000 C   0  0  0  0  0  0  0  0  0  0  0  0
    0.0044    4.0181    0.0000 C   0  0  0  0  0  0  0  0  0  0  0  0
   -0.8616    4.5182    0.0000 C   0  0  0  0  0  0  0  0  0  0  0  0
   -1.7306    4.0232    0.0000 C   0  0  0  0  0  0  0  0  0  0  0  0
   -1.7335    3.0180    0.0000 C   0  0  0  0  0  0  0  0  0  0  0  0
   -2.6025    2.5231    0.0000 C   0  0  0  0  0  0  0  0  0  0  0  0
   -3.4714    2.0283    0.0000 C   0  0  0  0  0  0  0  0  0  0  0  0
   -4.3404    1.5334    0.0000 C   0  0  0  0  0  0  0  0  0  0  0  0
   -0.8675    2.5078    0.0000 C   0  0  0  0  0  0  0  0  0  0  0  0
  1  9  1  0  0  0  0
  1  2  1  0  0  0  0
  2  3  1  0  0  0  0
  3  4  1  0  0  0  0
  4  5  2  0  0  0  0
  4  6  1  0  0  0  0
  3  7  1  0  0  0  0
  7  8  1  0  0  0  0
  8  9  1  0  0  0  0
  9 10  1  0  0  0  0
 10 11  1  0  0  0  0
 11 19  1  0  0  0  0
 11 12  2  0  0  0  0
 12 13  1  0  0  0  0
 13 14  2  0  0  0  0
 14 15  1  0  0  0  0
 15 16  1  0  0  0  0
 16 17  3  0  0  0  0
 17 18  1  0  0  0  0
 15 19  2  0  0  0  0
M  END
$$$$
PAT-UNK-b2d-3
  -OEChem-03222016562D

 22 24  0     0  0  0  0  0  0999 V2000
   -0.8720    3.5104    0.0000 C   0  0  0  0  0  0  0  0  0  0  0  0
    0.0000    3.0104    0.0000 C   0  0  0  0  0  0  0  0  0  0  0  0
   -0.0000    2.0104    0.0000 N   0  0  0  0  0  0  0  0  0  0  0  0
   -0.8675    1.5027    0.0000 C   0  0  0  0  0  0  0  0  0  0  0  0
   -0.8675    0.4975    0.0000 C   0  0  0  0  0  0  0  0  0  0  0  0
    0.0000    0.0000    0.0000 C   0  0  0  0  0  0  0  0  0  0  0  0
    0.8675    0.4975    0.0000 C   0  0  0  0  0  0  0  0  0  0  0  0
    0.8675    1.5027    0.0000 C   0  0  0  0  0  0  0  0  0  0  0  0
    0.8720    3.5104    0.0000 C   0  0  0  0  0  0  0  0  0  0  0  0
    0.8631    4.5155    0.0000 C   0  0  0  0  0  0  0  0  0  0  0  0
    1.7261    5.0206    0.0000 C   0  0  0  0  0  0  0  0  0  0  0  0
    1.7202    6.0206    0.0000 N   0  0  0  0  0  0  0  0  0  0  0  0
    2.5847    6.5334    0.0000 C   0  0  0  0  0  0  0  0  0  0  0  0
    2.5788    7.5386    0.0000 C   0  0  0  0  0  0  0  0  0  0  0  0
    1.7084    8.0310    0.0000 N   0  0  0  0  0  0  0  0  0  0  0  0
    1.7025    9.0309    0.0000 C   0  0  0  0  0  0  0  0  0  0  0  0
    2.5655    9.5360    0.0000 O   0  0  0  0  0  0  0  0  0  0  0  0
    0.8335    9.5258    0.0000 C   0  0  0  0  0  0  0  0  0  0  0  0
    0.8438    7.5283    0.0000 C   0  0  0  0  0  0  0  0  0  0  0  0
    0.8497    6.5232    0.0000 C   0  0  0  0  0  0  0  0  0  0  0  0
   -0.0089    5.0155    0.0000 C   0  0  0  0  0  0  0  0  0  0  0  0
   -0.8721    4.5105    0.0000 C   0  0  0  0  0  0  0  0  0  0  0  0
  1 22  1  0  0  0  0
  1  2  2  0  0  0  0
  2  3  1  0  0  0  0
  3  8  1  0  0  0  0
  3  4  1  0  0  0  0
  4  5  1  0  0  0  0
  5  6  1  0  0  0  0
  6  7  1  0  0  0  0
  7  8  1  0  0  0  0
  2  9  1  0  0  0  0
  9 10  2  0  0  0  0
 10 11  1  0  0  0  0
 11 12  1  0  0  0  0
 12 20  1  0  0  0  0
 12 13  1  0  0  0  0
 13 14  1  0  0  0  0
 14 15  1  0  0  0  0
 15 16  1  0  0  0  0
 16 17  2  0  0  0  0
 16 18  1  0  0  0  0
 15 19  1  0  0  0  0
 19 20  1  0  0  0  0
 10 21  1  0  0  0  0
 21 22  2  0  0  0  0
M  END
$$$$
PAT-UNK-b2d-4
  -OEChem-03222016562D

 25 27  0     0  0  0  0  0  0999 V2000
    0.8680   -0.4978    0.0000 C   0  0  0  0  0  0  0  0  0  0  0  0
    0.0000    0.0000    0.0000 C   0  0  0  0  0  0  0  0  0  0  0  0
    0.0000    1.0058    0.0000 C   0  0  0  0  0  0  0  0  0  0  0  0
    0.8680    1.5138    0.0000 C   0  0  0  0  0  0  0  0  0  0  0  0
    0.8680    2.5138    0.0000 C   0  0  0  0  0  0  0  0  0  0  0  0
    0.0020    3.0138    0.0000 N   0  0  0  0  0  0  0  0  0  0  0  0
   -0.0040    4.0189    0.0000 C   0  0  0  0  0  0  0  0  0  0  0  0
   -0.8745    4.5215    0.0000 C   0  0  0  0  0  0  0  0  0  0  0  0
   -1.7391    4.0190    0.0000 N   0  0  0  0  0  0  0  0  0  0  0  0
   -2.6051    4.5190    0.0000 C   0  0  0  0  0  0  0  0  0  0  0  0
   -2.6051    5.5190    0.0000 O   0  0  0  0  0  0  0  0  0  0  0  0
   -3.4711    4.0190    0.0000 C   0  0  0  0  0  0  0  0  0  0  0  0
   -1.7420    3.0190    0.0000 C   0  0  0  0  0  0  0  0  0  0  0  0
   -0.8715    2.5164    0.0000 C   0  0  0  0  0  0  0  0  0  0  0  0
    1.7360    1.0058    0.0000 C   0  0  0  0  0  0  0  0  0  0  0  0
    2.6938    1.3169    0.0000 N   0  0  0  0  0  0  0  0  0  0  0  0
    3.2858    0.5023    0.0000 C   0  0  0  0  0  0  0  0  0  0  0  0
    2.6938   -0.3125    0.0000 C   0  0  0  0  0  0  0  0  0  0  0  0
    3.0028   -1.2636    0.0000 C   0  0  0  0  0  0  0  0  0  0  0  0
    3.9809   -1.4715    0.0000 C   0  0  0  0  0  0  0  0  0  0  0  0
    4.2899   -2.4226    0.0000 N   0  0  0  0  0  0  0  0  0  0  0  0
    5.2680   -2.6306    0.0000 C   0  0  0  0  0  0  0  0  0  0  0  0
    5.5770   -3.5816    0.0000 C   0  0  0  0  0  0  0  0  0  0  0  0
    5.9372   -1.8874    0.0000 O   0  0  0  0  0  0  0  0  0  0  0  0
    1.7360   -0.0012    0.0000 C   0  0  0  0  0  0  0  0  0  0  0  0
  1 25  1  0  0  0  0
  1  2  2  0  0  0  0
  2  3  1  0  0  0  0
  3  4  2  0  0  0  0
  4  5  1  0  0  0  0
  5  6  1  0  0  0  0
  6 14  1  0  0  0  0
  6  7  1  0  0  0  0
  7  8  1  0  0  0  0
  8  9  1  0  0  0  0
  9 10  1  0  0  0  0
 10 11  2  0  0  0  0
 10 12  1  0  0  0  0
  9 13  1  0  0  0  0
 13 14  1  0  0  0  0
  4 15  1  0  0  0  0
 15 25  2  0  0  0  0
 15 16  1  0  0  0  0
 16 17  1  0  0  0  0
 17 18  2  0  0  0  0
 18 19  1  0  0  0  0
 19 20  1  0  0  0  0
 20 21  1  0  0  0  0
 21 22  1  0  0  0  0
 22 23  1  0  0  0  0
 22 24  2  0  0  0  0
 18 25  1  0  0  0  0
M  END
$$$$
PAT-UNK-b2d-5
  -OEChem-03222016562D

 27 29  0     0  0  0  0  0  0999 V2000
    0.8680   -0.4978    0.0000 C   0  0  0  0  0  0  0  0  0  0  0  0
    0.0000    0.0000    0.0000 C   0  0  0  0  0  0  0  0  0  0  0  0
   -0.8653   -0.5013    0.0000 C   0  0  0  0  0  0  0  0  0  0  0  0
   -1.7306   -1.0025    0.0000 N   0  0  0  0  0  0  0  0  0  0  0  0
    0.0000    1.0058    0.0000 C   0  0  0  0  0  0  0  0  0  0  0  0
    0.8680    1.5138    0.0000 C   0  0  0  0  0  0  0  0  0  0  0  0
    0.8680    2.5138    0.0000 C   0  0  0  0  0  0  0  0  0  0  0  0
    0.0020    3.0138    0.0000 N   0  0  0  0  0  0  0  0  0  0  0  0
   -0.0040    4.0189    0.0000 C   0  0  0  0  0  0  0  0  0  0  0  0
   -0.8745    4.5215    0.0000 C   0  0  0  0  0  0  0  0  0  0  0  0
   -1.7391    4.0190    0.0000 N   0  0  0  0  0  0  0  0  0  0  0  0
   -2.6051    4.5190    0.0000 C   0  0  0  0  0  0  0  0  0  0  0  0
   -2.6051    5.5190    0.0000 O   0  0  0  0  0  0  0  0  0  0  0  0
   -3.4711    4.0190    0.0000 C   0  0  0  0  0  0  0  0  0  0  0  0
   -1.7420    3.0190    0.0000 C   0  0  0  0  0  0  0  0  0  0  0  0
   -0.8715    2.5164    0.0000 C   0  0  0  0  0  0  0  0  0  0  0  0
    1.7360    1.0058    0.0000 C   0  0  0  0  0  0  0  0  0  0  0  0
    2.6938    1.3169    0.0000 N   0  0  0  0  0  0  0  0  0  0  0  0
    3.2858    0.5023    0.0000 C   0  0  0  0  0  0  0  0  0  0  0  0
    2.6938   -0.3125    0.0000 C   0  0  0  0  0  0  0  0  0  0  0  0
    3.0028   -1.2636    0.0000 C   0  0  0  0  0  0  0  0  0  0  0  0
    3.9809   -1.4715    0.0000 C   0  0  0  0  0  0  0  0  0  0  0  0
    4.2899   -2.4226    0.0000 N   0  0  0  0  0  0  0  0  0  0  0  0
    5.2680   -2.6306    0.0000 C   0  0  0  0  0  0  0  0  0  0  0  0
    5.5770   -3.5816    0.0000 C   0  0  0  0  0  0  0  0  0  0  0  0
    5.9372   -1.8874    0.0000 O   0  0  0  0  0  0  0  0  0  0  0  0
    1.7360   -0.0012    0.0000 C   0  0  0  0  0  0  0  0  0  0  0  0
  1 27  1  0  0  0  0
  1  2  2  0  0  0  0
  2  3  1  0  0  0  0
  3  4  3  0  0  0  0
  2  5  1  0  0  0  0
  5  6  2  0  0  0  0
  6  7  1  0  0  0  0
  7  8  1  0  0  0  0
  8 16  1  0  0  0  0
  8  9  1  0  0  0  0
  9 10  1  0  0  0  0
 10 11  1  0  0  0  0
 11 12  1  0  0  0  0
 12 13  2  0  0  0  0
 12 14  1  0  0  0  0
 11 15  1  0  0  0  0
 15 16  1  0  0  0  0
  6 17  1  0  0  0  0
 17 27  2  0  0  0  0
 17 18  1  0  0  0  0
 18 19  1  0  0  0  0
 19 20  2  0  0  0  0
 20 21  1  0  0  0  0
 21 22  1  0  0  0  0
 22 23  1  0  0  0  0
 23 24  1  0  0  0  0
 24 25  1  0  0  0  0
 24 26  2  0  0  0  0
 20 27  1  0  0  0  0
M  END
$$$$
SAL-INS-a5f-1
  -OEChem-03222016562D

 36 36  0     1  0  0  0  0  0999 V2000
    5.6068    3.9528    0.0000 N   0  0  0  0  0  0  0  0  0  0  0  0
    5.6098    4.9528    0.0000 C   0  0  2  0  0  0  0  0  0  0  0  0
    5.6127    5.9528    0.0000 H   0  0  0  0  0  0  0  0  0  0  0  0
    4.6098    4.9558    0.0000 C   0  0  0  0  0  0  0  0  0  0  0  0
    4.1072    4.0912    0.0000 N   0  0  0  0  0  0  0  0  0  0  0  0
    3.1072    4.0942    0.0000 C   0  0  0  0  0  0  0  0  0  0  0  0
    2.6047    3.2296    0.0000 C   0  0  0  0  0  0  0  0  0  0  0  0
    3.1021    2.3621    0.0000 N   0  0  0  0  0  0  0  0  0  0  0  0
    2.5995    1.4976    0.0000 C   0  0  2  0  0  0  0  0  0  0  0  0
    2.0970    0.6330    0.0000 H   0  0  0  0  0  0  0  0  0  0  0  0
    3.4641    0.9950    0.0000 C   0  0  0  0  0  0  0  0  0  0  0  0
    4.3316    1.4925    0.0000 N   0  0  0  0  0  0  0  0  0  0  0  0
    5.1961    0.9899    0.0000 C   0  0  2  0  0  0  0  0  0  0  0  0
    6.0607    0.4874    0.0000 H   0  0  0  0  0  0  0  0  0  0  0  0
    5.6987    1.8545    0.0000 C   0  0  0  0  0  0  0  0  0  0  0  0
    5.2012    2.7220    0.0000 O   0  0  0  0  0  0  0  0  0  0  0  0
    6.6987    1.8515    0.0000 O   0  0  0  0  0  0  0  0  0  0  0  0
    4.6936    0.1254    0.0000 C   0  0  0  0  0  0  0  0  0  0  0  0
    5.1910   -0.7421    0.0000 C   0  0  0  0  0  0  0  0  0  0  0  0
    4.6885   -1.6067    0.0000 C   0  0  0  0  0  0  0  0  0  0  0  0
    5.1859   -2.4742    0.0000 N   0  0  0  0  0  0  0  0  0  0  0  0
    4.6834   -3.3387    0.0000 C   0  0  0  0  0  0  0  0  0  0  0  0
    5.1808   -4.2062    0.0000 N   0  0  0  0  0  0  0  0  0  0  0  0
    3.6834   -3.3358    0.0000 N   0  0  0  0  0  0  0  0  0  0  0  0
    3.4611   -0.0050    0.0000 O   0  0  0  0  0  0  0  0  0  0  0  0
    1.7350    2.0001    0.0000 C   0  0  0  0  0  0  0  0  0  0  0  0
    0.8675    1.5027    0.0000 C   0  0  0  0  0  0  0  0  0  0  0  0
    0.8675    0.4975    0.0000 C   0  0  0  0  0  0  0  0  0  0  0  0
    0.0000    0.0000    0.0000 C   0  0  0  0  0  0  0  0  0  0  0  0
   -0.8675    0.4975    0.0000 C   0  0  0  0  0  0  0  0  0  0  0  0
   -0.8675    1.5027    0.0000 C   0  0  0  0  0  0  0  0  0  0  0  0
    0.0000    2.0104    0.0000 C   0  0  0  0  0  0  0  0  0  0  0  0
    1.6047    3.2326    0.0000 O   0  0  0  0  0  0  0  0  0  0  0  0
    4.1123    5.8233    0.0000 O   0  0  0  0  0  0  0  0  0  0  0  0
    6.6097    4.9499    0.0000 C   0  0  0  0  0  0  0  0  0  0  0  0
    7.1123    5.8144    0.0000 O   0  0  0  0  0  0  0  0  0  0  0  0
  1  2  1  0  0  0  0
  2  3  1  1  0  0  0
  2  4  1  0  0  0  0
  4  5  1  0  0  0  0
  5  6  1  0  0  0  0
  6  7  1  0  0  0  0
  7  8  1  0  0  0  0
  8  9  1  0  0  0  0
  9 10  1  1  0  0  0
  9 11  1  0  0  0  0
 11 12  1  0  0  0  0
 12 13  1  0  0  0  0
 13 14  1  1  0  0  0
 13 15  1  0  0  0  0
 15 16  1  0  0  0  0
 15 17  2  0  0  0  0
 13 18  1  0  0  0  0
 18 19  1  0  0  0  0
 19 20  1  0  0  0  0
 20 21  1  0  0  0  0
 21 22  1  0  0  0  0
 22 23  1  0  0  0  0
 22 24  2  0  0  0  0
 11 25  2  0  0  0  0
  9 26  1  0  0  0  0
 26 27  1  0  0  0  0
 27 32  2  0  0  0  0
 27 28  1  0  0  0  0
 28 29  2  0  0  0  0
 29 30  1  0  0  0  0
 30 31  2  0  0  0  0
 31 32  1  0  0  0  0
  7 33  2  0  0  0  0
  4 34  2  0  0  0  0
  2 35  1  0  0  0  0
 35 36  1  0  0  0  0
M  END
$$$$
SAL-INS-a5f-2
  -OEChem-03222016562D

 39 39  0     1  0  0  0  0  0999 V2000
    5.6068    3.9528    0.0000 N   0  0  0  0  0  0  0  0  0  0  0  0
    6.4713    3.4503    0.0000 C   0  0  0  0  0  0  0  0  0  0  0  0
    6.4684    2.4503    0.0000 C   0  0  0  0  0  0  0  0  0  0  0  0
    7.3388    3.9477    0.0000 O   0  0  0  0  0  0  0  0  0  0  0  0
    5.6098    4.9528    0.0000 C   0  0  2  0  0  0  0  0  0  0  0  0
    5.6127    5.9528    0.0000 H   0  0  0  0  0  0  0  0  0  0  0  0
    4.6098    4.9558    0.0000 C   0  0  0  0  0  0  0  0  0  0  0  0
    4.1072    4.0912    0.0000 N   0  0  0  0  0  0  0  0  0  0  0  0
    3.1072    4.0942    0.0000 C   0  0  0  0  0  0  0  0  0  0  0  0
    2.6047    3.2296    0.0000 C   0  0  0  0  0  0  0  0  0  0  0  0
    3.1021    2.3621    0.0000 N   0  0  0  0  0  0  0  0  0  0  0  0
    2.5995    1.4976    0.0000 C   0  0  2  0  0  0  0  0  0  0  0  0
    2.0970    0.6330    0.0000 H   0  0  0  0  0  0  0  0  0  0  0  0
    3.4641    0.9950    0.0000 C   0  0  0  0  0  0  0  0  0  0  0  0
    3.4611   -0.0050    0.0000 N   0  0  0  0  0  0  0  0  0  0  0  0
    4.3257   -0.5075    0.0000 C   0  0  2  0  0  0  0  0  0  0  0  0
    5.1902   -1.0101    0.0000 H   0  0  0  0  0  0  0  0  0  0  0  0
    3.8231   -1.3721    0.0000 C   0  0  0  0  0  0  0  0  0  0  0  0
    2.8231   -1.3691    0.0000 N   0  0  0  0  0  0  0  0  0  0  0  0
    4.3206   -2.2396    0.0000 O   0  0  0  0  0  0  0  0  0  0  0  0
    4.8282    0.3570    0.0000 C   0  0  0  0  0  0  0  0  0  0  0  0
    5.8282    0.3541    0.0000 C   0  0  0  0  0  0  0  0  0  0  0  0
    6.3308    1.2186    0.0000 C   0  0  0  0  0  0  0  0  0  0  0  0
    7.3308    1.2157    0.0000 N   0  0  0  0  0  0  0  0  0  0  0  0
    7.8333    2.0802    0.0000 C   0  0  0  0  0  0  0  0  0  0  0  0
    8.8333    2.0773    0.0000 N   0  0  0  0  0  0  0  0  0  0  0  0
    7.3359    2.9477    0.0000 O   0  0  0  0  0  0  0  0  0  0  0  0
    4.3316    1.4925    0.0000 O   0  0  0  0  0  0  0  0  0  0  0  0
    1.7350    2.0001    0.0000 C   0  0  0  0  0  0  0  0  0  0  0  0
    0.8675    1.5027    0.0000 C   0  0  0  0  0  0  0  0  0  0  0  0
    0.8675    0.4975    0.0000 C   0  0  0  0  0  0  0  0  0  0  0  0
    0.0000    0.0000    0.0000 C   0  0  0  0  0  0  0  0  0  0  0  0
   -0.8675    0.4975    0.0000 C   0  0  0  0  0  0  0  0  0  0  0  0
   -0.8675    1.5027    0.0000 C   0  0  0  0  0  0  0  0  0  0  0  0
    0.0000    2.0104    0.0000 C   0  0  0  0  0  0  0  0  0  0  0  0
    1.6047    3.2326    0.0000 O   0  0  0  0  0  0  0  0  0  0  0  0
    4.1123    5.8233    0.0000 O   0  0  0  0  0  0  0  0  0  0  0  0
    6.6097    4.9499    0.0000 C   0  0  0  0  0  0  0  0  0  0  0  0
    7.1123    5.8144    0.0000 O   0  0  0  0  0  0  0  0  0  0  0  0
  1  2  1  0  0  0  0
  2  3  1  0  0  0  0
  2  4  2  0  0  0  0
  1  5  1  0  0  0  0
  5  6  1  1  0  0  0
  5  7  1  0  0  0  0
  7  8  1  0  0  0  0
  8  9  1  0  0  0  0
  9 10  1  0  0  0  0
 10 11  1  0  0  0  0
 11 12  1  0  0  0  0
 12 13  1  1  0  0  0
 12 14  1  0  0  0  0
 14 15  1  0  0  0  0
 15 16  1  0  0  0  0
 16 17  1  6  0  0  0
 16 18  1  0  0  0  0
 18 19  1  0  0  0  0
 18 20  2  0  0  0  0
 16 21  1  0  0  0  0
 21 22  1  0  0  0  0
 22 23  1  0  0  0  0
 23 24  1  0  0  0  0
 24 25  1  0  0  0  0
 25 26  1  0  0  0  0
 25 27  2  0  0  0  0
 14 28  2  0  0  0  0
 12 29  1  0  0  0  0
 29 30  1  0  0  0  0
 30 35  2  0  0  0  0
 30 31  1  0  0  0  0
 31 32  2  0  0  0  0
 32 33  1  0  0  0  0
 33 34  2  0  0  0  0
 34 35  1  0  0  0  0
 10 36  2  0  0  0  0
  7 37  2  0  0  0  0
  5 38  1  0  0  0  0
 38 39  1  0  0  0  0
M  END
$$$$
AGN-NEW-9d2-1
  -OEChem-03222016562D

 36 38  0     0  0  0  0  0  0999 V2000
   -0.8704    1.4974    0.0000 C   0  0  0  0  0  0  0  0  0  0  0  0
   -0.8675    0.4974    0.0000 O   0  0  0  0  0  0  0  0  0  0  0  0
    0.0000    0.0000    0.0000 C   0  0  0  0  0  0  0  0  0  0  0  0
    0.0000   -1.0052    0.0000 N   0  0  0  0  0  0  0  0  0  0  0  0
    0.8675   -1.5027    0.0000 C   0  0  0  0  0  0  0  0  0  0  0  0
    0.8675   -2.5027    0.0000 C   0  0  0  0  0  0  0  0  0  0  0  0
    1.7335   -3.0027    0.0000 N   0  0  0  0  0  0  0  0  0  0  0  0
    2.5996   -2.5027    0.0000 C   0  0  0  0  0  0  0  0  0  0  0  0
    3.4685   -3.0078    0.0000 N   0  0  0  0  0  0  0  0  0  0  0  0
    4.3345   -2.4976    0.0000 C   0  0  0  0  0  0  0  0  0  0  0  0
    4.3316   -1.4924    0.0000 C   0  0  0  0  0  0  0  0  0  0  0  0
    3.4626   -0.9974    0.0000 C   0  0  0  0  0  0  0  0  0  0  0  0
    3.4597    0.0026    0.0000 C   0  0  0  0  0  0  0  0  0  0  0  0
    2.5966   -1.4975    0.0000 C   0  0  0  0  0  0  0  0  0  0  0  0
    1.7335   -4.0027    0.0000 C   0  0  0  0  0  0  0  0  0  0  0  0
    0.8675   -4.5027    0.0000 N   0  0  0  0  0  0  0  0  0  0  0  0
    0.8675   -5.5027    0.0000 C   0  0  0  0  0  0  0  0  0  0  0  0
    1.7373   -6.0066    0.0000 C   0  0  0  0  0  0  0  0  0  0  0  0
    2.6026   -5.5053    0.0000 C   0  0  0  0  0  0  0  0  0  0  0  0
    3.4694   -6.0040    0.0000 C   0  0  0  0  0  0  0  0  0  0  0  0
    1.7418   -7.0117    0.0000 N   0  0  0  0  0  0  0  0  0  0  0  0
    0.8676   -7.5079    0.0000 C   0  0  0  0  0  0  0  0  0  0  0  0
   -0.0022   -7.0040    0.0000 C   0  0  0  0  0  0  0  0  0  0  0  0
   -0.8696   -7.5015    0.0000 C   0  0  0  0  0  0  0  0  0  0  0  0
    0.0022   -6.0040    0.0000 C   0  0  0  0  0  0  0  0  0  0  0  0
   -0.8631   -5.5027    0.0000 C   0  0  0  0  0  0  0  0  0  0  0  0
   -0.8617   -4.5027    0.0000 C   0  0  0  0  0  0  0  0  0  0  0  0
   -1.7270   -4.0015    0.0000 N   0  0  0  0  0  0  0  0  0  0  0  0
   -1.7255   -3.0015    0.0000 C   0  0  0  0  0  0  0  0  0  0  0  0
   -0.8588   -2.5027    0.0000 O   0  0  0  0  0  0  0  0  0  0  0  0
   -2.5908   -2.5002    0.0000 C   0  0  0  0  0  0  0  0  0  0  0  0
    2.5996   -4.5027    0.0000 O   0  0  0  0  0  0  0  0  0  0  0  0
    1.7350   -1.0052    0.0000 N   0  0  0  0  0  0  0  0  0  0  0  0
    1.7350    0.0000    0.0000 C   0  0  0  0  0  0  0  0  0  0  0  0
    2.6025    0.4974    0.0000 F   0  0  0  0  0  0  0  0  0  0  0  0
    0.8675    0.5077    0.0000 N   0  0  0  0  0  0  0  0  0  0  0  0
  1  2  1  0  0  0  0
  2  3  1  0  0  0  0
  3 36  2  0  0  0  0
  3  4  1  0  0  0  0
  4  5  2  0  0  0  0
  5  6  1  0  0  0  0
  6  7  1  0  0  0  0
  7  8  1  0  0  0  0
  8 14  2  0  0  0  0
  8  9  1  0  0  0  0
  9 10  2  0  0  0  0
 10 11  1  0  0  0  0
 11 12  2  0  0  0  0
 12 13  1  0  0  0  0
 12 14  1  0  0  0  0
  7 15  1  0  0  0  0
 15 16  1  0  0  0  0
 16 17  1  0  0  0  0
 17 25  2  0  0  0  0
 17 18  1  0  0  0  0
 18 19  1  0  0  0  0
 19 20  2  0  0  0  0
 18 21  2  0  0  0  0
 21 22  1  0  0  0  0
 22 23  2  0  0  0  0
 23 24  1  0  0  0  0
 23 25  1  0  0  0  0
 25 26  1  0  0  0  0
 26 27  1  0  0  0  0
 27 28  1  0  0  0  0
 28 29  1  0  0  0  0
 29 30  2  0  0  0  0
 29 31  1  0  0  0  0
 15 32  2  0  0  0  0
  5 33  1  0  0  0  0
 33 34  2  0  0  0  0
 34 35  1  0  0  0  0
 34 36  1  0  0  0  0
M  END
$$$$
AGN-NEW-9d2-2
  -OEChem-03222016562D

 39 42  0     0  0  0  0  0  0999 V2000
    0.0000   -1.0000    0.0000 C   0  0  0  0  0  0  0  0  0  0  0  0
    0.0000    0.0000    0.0000 C   0  0  0  0  0  0  0  0  0  0  0  0
    0.8675    0.4975    0.0000 C   0  0  0  0  0  0  0  0  0  0  0  0
    0.8675    1.5027    0.0000 C   0  0  0  0  0  0  0  0  0  0  0  0
    1.7350    2.0001    0.0000 N   0  0  0  0  0  0  0  0  0  0  0  0
    1.7379    3.0001    0.0000 C   0  0  0  0  0  0  0  0  0  0  0  0
    0.8734    3.5027    0.0000 N   0  0  0  0  0  0  0  0  0  0  0  0
    0.8764    4.5027    0.0000 C   0  0  0  0  0  0  0  0  0  0  0  0
    1.7476    5.0040    0.0000 C   0  0  0  0  0  0  0  0  0  0  0  0
    2.6114    4.5001    0.0000 C   0  0  0  0  0  0  0  0  0  0  0  0
    3.4797    4.9963    0.0000 C   0  0  0  0  0  0  0  0  0  0  0  0
    1.7551    6.0091    0.0000 N   0  0  0  0  0  0  0  0  0  0  0  0
    0.8824    6.5078    0.0000 C   0  0  0  0  0  0  0  0  0  0  0  0
    0.0111    6.0065    0.0000 C   0  0  0  0  0  0  0  0  0  0  0  0
   -0.8549    6.5066    0.0000 C   0  0  0  0  0  0  0  0  0  0  0  0
    0.0125    5.0065    0.0000 C   0  0  0  0  0  0  0  0  0  0  0  0
   -0.8543    4.5078    0.0000 C   0  0  0  0  0  0  0  0  0  0  0  0
   -1.7195    5.0091    0.0000 C   0  0  0  0  0  0  0  0  0  0  0  0
   -2.5863    4.5104    0.0000 N   0  0  0  0  0  0  0  0  0  0  0  0
   -3.4516    5.0117    0.0000 C   0  0  0  0  0  0  0  0  0  0  0  0
   -4.3184    4.5130    0.0000 C   0  0  0  0  0  0  0  0  0  0  0  0
   -5.1836    5.0143    0.0000 N   0  0  0  0  0  0  0  0  0  0  0  0
   -6.0578    4.5182    0.0000 C   0  0  0  0  0  0  0  0  0  0  0  0
   -6.9276    5.0221    0.0000 C   0  0  0  0  0  0  0  0  0  0  0  0
   -6.9232    6.0221    0.0000 N   0  0  0  0  0  0  0  0  0  0  0  0
   -6.0578    6.5233    0.0000 C   0  0  0  0  0  0  0  0  0  0  0  0
   -5.1881    6.0194    0.0000 C   0  0  0  0  0  0  0  0  0  0  0  0
   -3.4501    6.0117    0.0000 O   0  0  0  0  0  0  0  0  0  0  0  0
    2.6054    3.4976    0.0000 O   0  0  0  0  0  0  0  0  0  0  0  0
    2.5995    1.4976    0.0000 C   0  0  0  0  0  0  0  0  0  0  0  0
    3.4670    1.9950    0.0000 C   0  0  0  0  0  0  0  0  0  0  0  0
    3.4671    2.9951    0.0000 C   0  0  0  0  0  0  0  0  0  0  0  0
    4.3391    3.4951    0.0000 C   0  0  0  0  0  0  0  0  0  0  0  0
    5.2111    2.9951    0.0000 O   0  0  0  0  0  0  0  0  0  0  0  0
    5.2022    1.9900    0.0000 C   0  0  0  0  0  0  0  0  0  0  0  0
    4.3302    1.4900    0.0000 C   0  0  0  0  0  0  0  0  0  0  0  0
   -0.0000    2.0104    0.0000 N   0  0  0  0  0  0  0  0  0  0  0  0
   -0.8675    1.5027    0.0000 C   0  0  0  0  0  0  0  0  0  0  0  0
   -0.8675    0.4975    0.0000 C   0  0  0  0  0  0  0  0  0  0  0  0
  1  2  1  0  0  0  0
  2 39  2  0  0  0  0
  2  3  1  0  0  0  0
  3  4  2  0  0  0  0
  4  5  1  0  0  0  0
  5  6  1  0  0  0  0
  6  7  1  0  0  0  0
  7  8  1  0  0  0  0
  8 16  1  0  0  0  0
  8  9  2  0  0  0  0
  9 10  1  0  0  0  0
 10 11  2  0  0  0  0
  9 12  1  0  0  0  0
 12 13  2  0  0  0  0
 13 14  1  0  0  0  0
 14 15  1  0  0  0  0
 14 16  2  0  0  0  0
 16 17  1  0  0  0  0
 17 18  1  0  0  0  0
 18 19  1  0  0  0  0
 19 20  1  0  0  0  0
 20 21  1  0  0  0  0
 21 22  1  0  0  0  0
 22 27  1  0  0  0  0
 22 23  1  0  0  0  0
 23 24  1  0  0  0  0
 24 25  1  0  0  0  0
 25 26  1  0  0  0  0
 26 27  1  0  0  0  0
 20 28  2  0  0  0  0
  6 29  2  0  0  0  0
  5 30  1  0  0  0  0
 30 31  1  0  0  0  0
 31 36  1  0  0  0  0
 31 32  1  0  0  0  0
 32 33  1  0  0  0  0
 33 34  1  0  0  0  0
 34 35  1  0  0  0  0
 35 36  1  0  0  0  0
  4 37  1  0  0  0  0
 37 38  2  0  0  0  0
 38 39  1  0  0  0  0
M  END
$$$$
AGN-NEW-9d2-3
  -OEChem-03222016562D

 35 37  0     0  0  0  0  0  0999 V2000
   -1.7320   -0.0051    0.0000 C   0  0  0  0  0  0  0  0  0  0  0  0
   -0.8675    0.4974    0.0000 O   0  0  0  0  0  0  0  0  0  0  0  0
    0.0000    0.0000    0.0000 C   0  0  0  0  0  0  0  0  0  0  0  0
    0.8675    0.5077    0.0000 N   0  0  0  0  0  0  0  0  0  0  0  0
    1.7350   -0.0000    0.0000 C   0  0  0  0  0  0  0  0  0  0  0  0
    2.6025    0.4974    0.0000 C   0  0  0  0  0  0  0  0  0  0  0  0
    2.6054    1.4974    0.0000 N   0  0  0  0  0  0  0  0  0  0  0  0
    1.7409    2.0000    0.0000 C   0  0  0  0  0  0  0  0  0  0  0  0
    1.7468    3.0051    0.0000 N   0  0  0  0  0  0  0  0  0  0  0  0
    0.8734    3.5025    0.0000 C   0  0  0  0  0  0  0  0  0  0  0  0
    0.0029    2.9999    0.0000 C   0  0  0  0  0  0  0  0  0  0  0  0
    0.0058    1.9999    0.0000 C   0  0  0  0  0  0  0  0  0  0  0  0
   -0.8603    1.4999    0.0000 C   0  0  0  0  0  0  0  0  0  0  0  0
    0.8704    1.4974    0.0000 C   0  0  0  0  0  0  0  0  0  0  0  0
    3.4729    1.9949    0.0000 C   0  0  0  0  0  0  0  0  0  0  0  0
    4.3375    1.4923    0.0000 N   0  0  0  0  0  0  0  0  0  0  0  0
    5.2050    1.9898    0.0000 C   0  0  0  0  0  0  0  0  0  0  0  0
    5.2094    2.9950    0.0000 C   0  0  0  0  0  0  0  0  0  0  0  0
    4.3441    3.4962    0.0000 C   0  0  0  0  0  0  0  0  0  0  0  0
    4.3456    4.4962    0.0000 C   0  0  0  0  0  0  0  0  0  0  0  0
    6.0791    3.4988    0.0000 N   0  0  0  0  0  0  0  0  0  0  0  0
    6.9444    2.9873    0.0000 C   0  0  0  0  0  0  0  0  0  0  0  0
    6.9400    1.9821    0.0000 C   0  0  0  0  0  0  0  0  0  0  0  0
    7.8031    1.4771    0.0000 C   0  0  0  0  0  0  0  0  0  0  0  0
    6.0703    1.4885    0.0000 C   0  0  0  0  0  0  0  0  0  0  0  0
    6.0659    0.4885    0.0000 C   0  0  0  0  0  0  0  0  0  0  0  0
    5.1977   -0.0077    0.0000 C   0  0  0  0  0  0  0  0  0  0  0  0
    5.1933   -1.0077    0.0000 N   0  0  0  0  0  0  0  0  0  0  0  0
    4.3251   -1.5039    0.0000 C   0  0  0  0  0  0  0  0  0  0  0  0
    3.4612   -1.0001    0.0000 O   0  0  0  0  0  0  0  0  0  0  0  0
    4.3207   -2.5039    0.0000 C   0  0  0  0  0  0  0  0  0  0  0  0
    3.4759    2.9949    0.0000 O   0  0  0  0  0  0  0  0  0  0  0  0
    1.7350   -1.0052    0.0000 N   0  0  0  0  0  0  0  0  0  0  0  0
    0.8675   -1.5027    0.0000 C   0  0  0  0  0  0  0  0  0  0  0  0
    0.0000   -1.0052    0.0000 N   0  0  0  0  0  0  0  0  0  0  0  0
  1  2  1  0  0  0  0
  2  3  1  0  0  0  0
  3 35  2  0  0  0  0
  3  4  1  0  0  0  0
  4  5  2  0  0  0  0
  5  6  1  0  0  0  0
  6  7  1  0  0  0  0
  7  8  1  0  0  0  0
  8 14  2  0  0  0  0
  8  9  1  0  0  0  0
  9 10  2  0  0  0  0
 10 11  1  0  0  0  0
 11 12  2  0  0  0  0
 12 13  1  0  0  0  0
 12 14  1  0  0  0  0
  7 15  1  0  0  0  0
 15 16  1  0  0  0  0
 16 17  1  0  0  0  0
 17 25  2  0  0  0  0
 17 18  1  0  0  0  0
 18 19  1  0  0  0  0
 19 20  2  0  0  0  0
 18 21  2  0  0  0  0
 21 22  1  0  0  0  0
 22 23  2  0  0  0  0
 23 24  1  0  0  0  0
 23 25  1  0  0  0  0
 25 26  1  0  0  0  0
 26 27  1  0  0  0  0
 27 28  1  0  0  0  0
 28 29  1  0  0  0  0
 29 30  2  0  0  0  0
 29 31  1  0  0  0  0
 15 32  2  0  0  0  0
  5 33  1  0  0  0  0
 33 34  2  0  0  0  0
 34 35  1  0  0  0  0
M  END
$$$$
AGN-NEW-9d2-4
  -OEChem-03222016562D

 41 44  0     0  0  0  0  0  0999 V2000
   -1.7320   -0.0051    0.0000 C   0  0  0  0  0  0  0  0  0  0  0  0
   -0.8675    0.4974    0.0000 O   0  0  0  0  0  0  0  0  0  0  0  0
    0.0000    0.0000    0.0000 C   0  0  0  0  0  0  0  0  0  0  0  0
    0.8675    0.5077    0.0000 N   0  0  0  0  0  0  0  0  0  0  0  0
    1.7350   -0.0000    0.0000 C   0  0  0  0  0  0  0  0  0  0  0  0
    2.6025    0.4974    0.0000 C   0  0  0  0  0  0  0  0  0  0  0  0
    2.6054    1.4974    0.0000 N   0  0  0  0  0  0  0  0  0  0  0  0
    1.7409    2.0000    0.0000 C   0  0  0  0  0  0  0  0  0  0  0  0
    1.7468    3.0051    0.0000 N   0  0  0  0  0  0  0  0  0  0  0  0
    0.8734    3.5025    0.0000 C   0  0  0  0  0  0  0  0  0  0  0  0
    0.0029    2.9999    0.0000 C   0  0  0  0  0  0  0  0  0  0  0  0
    0.0058    1.9999    0.0000 C   0  0  0  0  0  0  0  0  0  0  0  0
   -0.8603    1.4999    0.0000 C   0  0  0  0  0  0  0  0  0  0  0  0
    0.8704    1.4974    0.0000 C   0  0  0  0  0  0  0  0  0  0  0  0
    3.4729    1.9949    0.0000 C   0  0  0  0  0  0  0  0  0  0  0  0
    4.3375    1.4923    0.0000 N   0  0  0  0  0  0  0  0  0  0  0  0
    5.2050    1.9898    0.0000 C   0  0  0  0  0  0  0  0  0  0  0  0
    5.2094    2.9950    0.0000 C   0  0  0  0  0  0  0  0  0  0  0  0
    4.3441    3.4962    0.0000 C   0  0  0  0  0  0  0  0  0  0  0  0
    4.3456    4.4962    0.0000 C   0  0  0  0  0  0  0  0  0  0  0  0
    6.0791    3.4988    0.0000 N   0  0  0  0  0  0  0  0  0  0  0  0
    6.9444    2.9873    0.0000 C   0  0  0  0  0  0  0  0  0  0  0  0
    6.9400    1.9821    0.0000 C   0  0  0  0  0  0  0  0  0  0  0  0
    7.8031    1.4771    0.0000 C   0  0  0  0  0  0  0  0  0  0  0  0
    6.0703    1.4885    0.0000 C   0  0  0  0  0  0  0  0  0  0  0  0
    6.0659    0.4885    0.0000 C   0  0  0  0  0  0  0  0  0  0  0  0
    5.1977   -0.0077    0.0000 C   0  0  0  0  0  0  0  0  0  0  0  0
    5.1933   -1.0077    0.0000 N   0  0  0  0  0  0  0  0  0  0  0  0
    4.3251   -1.5039    0.0000 C   0  0  0  0  0  0  0  0  0  0  0  0
    4.3207   -2.5039    0.0000 C   0  0  0  0  0  0  0  0  0  0  0  0
    3.4524   -3.0001    0.0000 N   0  0  0  0  0  0  0  0  0  0  0  0
    3.4421   -4.0052    0.0000 C   0  0  0  0  0  0  0  0  0  0  0  0
    2.5693   -4.5039    0.0000 C   0  0  0  0  0  0  0  0  0  0  0  0
    1.7070   -3.9976    0.0000 C   0  0  0  0  0  0  0  0  0  0  0  0
    1.7085   -2.9976    0.0000 C   0  0  0  0  0  0  0  0  0  0  0  0
    2.5812   -2.4988    0.0000 C   0  0  0  0  0  0  0  0  0  0  0  0
    3.4612   -1.0001    0.0000 O   0  0  0  0  0  0  0  0  0  0  0  0
    3.4759    2.9949    0.0000 O   0  0  0  0  0  0  0  0  0  0  0  0
    1.7350   -1.0052    0.0000 N   0  0  0  0  0  0  0  0  0  0  0  0
    0.8675   -1.5027    0.0000 C   0  0  0  0  0  0  0  0  0  0  0  0
    0.0000   -1.0052    0.0000 N   0  0  0  0  0  0  0  0  0  0  0  0
  1  2  1  0  0  0  0
  2  3  1  0  0  0  0
  3 41  2  0  0  0  0
  3  4  1  0  0  0  0
  4  5  2  0  0  0  0
  5  6  1  0  0  0  0
  6  7  1  0  0  0  0
  7  8  1  0  0  0  0
  8 14  2  0  0  0  0
  8  9  1  0  0  0  0
  9 10  2  0  0  0  0
 10 11  1  0  0  0  0
 11 12  2  0  0  0  0
 12 13  1  0  0  0  0
 12 14  1  0  0  0  0
  7 15  1  0  0  0  0
 15 16  1  0  0  0  0
 16 17  1  0  0  0  0
 17 25  1  0  0  0  0
 17 18  2  0  0  0  0
 18 19  1  0  0  0  0
 19 20  2  0  0  0  0
 18 21  1  0  0  0  0
 21 22  2  0  0  0  0
 22 23  1  0  0  0  0
 23 24  1  0  0  0  0
 23 25  2  0  0  0  0
 25 26  1  0  0  0  0
 26 27  1  0  0  0  0
 27 28  1  0  0  0  0
 28 29  1  0  0  0  0
 29 30  1  0  0  0  0
 30 31  1  0  0  0  0
 31 36  1  0  0  0  0
 31 32  1  0  0  0  0
 32 33  1  0  0  0  0
 33 34  1  0  0  0  0
 34 35  1  0  0  0  0
 35 36  1  0  0  0  0
 29 37  2  0  0  0  0
 15 38  2  0  0  0  0
  5 39  1  0  0  0  0
 39 40  2  0  0  0  0
 40 41  1  0  0  0  0
M  END
$$$$
AGN-NEW-9d2-5
  -OEChem-03222016562D

 41 44  0     0  0  0  0  0  0999 V2000
   -1.7320   -0.0051    0.0000 C   0  0  0  0  0  0  0  0  0  0  0  0
   -0.8675    0.4974    0.0000 O   0  0  0  0  0  0  0  0  0  0  0  0
    0.0000    0.0000    0.0000 C   0  0  0  0  0  0  0  0  0  0  0  0
    0.8675    0.5077    0.0000 N   0  0  0  0  0  0  0  0  0  0  0  0
    1.7350   -0.0000    0.0000 C   0  0  0  0  0  0  0  0  0  0  0  0
    2.6025    0.4974    0.0000 C   0  0  0  0  0  0  0  0  0  0  0  0
    2.6054    1.4974    0.0000 N   0  0  0  0  0  0  0  0  0  0  0  0
    1.7409    2.0000    0.0000 C   0  0  0  0  0  0  0  0  0  0  0  0
    1.7468    3.0051    0.0000 N   0  0  0  0  0  0  0  0  0  0  0  0
    0.8734    3.5025    0.0000 C   0  0  0  0  0  0  0  0  0  0  0  0
    0.0029    2.9999    0.0000 C   0  0  0  0  0  0  0  0  0  0  0  0
    0.0058    1.9999    0.0000 C   0  0  0  0  0  0  0  0  0  0  0  0
   -0.8603    1.4999    0.0000 C   0  0  0  0  0  0  0  0  0  0  0  0
    0.8704    1.4974    0.0000 C   0  0  0  0  0  0  0  0  0  0  0  0
    3.4729    1.9949    0.0000 C   0  0  0  0  0  0  0  0  0  0  0  0
    4.3375    1.4923    0.0000 N   0  0  0  0  0  0  0  0  0  0  0  0
    5.2050    1.9898    0.0000 C   0  0  0  0  0  0  0  0  0  0  0  0
    5.2094    2.9950    0.0000 C   0  0  0  0  0  0  0  0  0  0  0  0
    4.3441    3.4962    0.0000 C   0  0  0  0  0  0  0  0  0  0  0  0
    4.3456    4.4962    0.0000 C   0  0  0  0  0  0  0  0  0  0  0  0
    6.0791    3.4988    0.0000 N   0  0  0  0  0  0  0  0  0  0  0  0
    6.9444    2.9873    0.0000 C   0  0  0  0  0  0  0  0  0  0  0  0
    6.9400    1.9821    0.0000 C   0  0  0  0  0  0  0  0  0  0  0  0
    7.8031    1.4771    0.0000 C   0  0  0  0  0  0  0  0  0  0  0  0
    6.0703    1.4885    0.0000 C   0  0  0  0  0  0  0  0  0  0  0  0
    6.0659    0.4885    0.0000 C   0  0  0  0  0  0  0  0  0  0  0  0
    5.1977   -0.0077    0.0000 C   0  0  0  0  0  0  0  0  0  0  0  0
    5.1933   -1.0077    0.0000 N   0  0  0  0  0  0  0  0  0  0  0  0
    4.3251   -1.5039    0.0000 C   0  0  0  0  0  0  0  0  0  0  0  0
    4.3207   -2.5039    0.0000 C   0  0  0  0  0  0  0  0  0  0  0  0
    3.4524   -3.0001    0.0000 N   0  0  0  0  0  0  0  0  0  0  0  0
    2.5901   -2.4937    0.0000 C   0  0  0  0  0  0  0  0  0  0  0  0
    1.7173   -2.9925    0.0000 C   0  0  0  0  0  0  0  0  0  0  0  0
    1.7070   -3.9976    0.0000 O   0  0  0  0  0  0  0  0  0  0  0  0
    2.5782   -4.4989    0.0000 C   0  0  0  0  0  0  0  0  0  0  0  0
    3.4509   -4.0001    0.0000 C   0  0  0  0  0  0  0  0  0  0  0  0
    3.4612   -1.0001    0.0000 O   0  0  0  0  0  0  0  0  0  0  0  0
    3.4759    2.9949    0.0000 O   0  0  0  0  0  0  0  0  0  0  0  0
    1.7350   -1.0052    0.0000 N   0  0  0  0  0  0  0  0  0  0  0  0
    0.8675   -1.5027    0.0000 C   0  0  0  0  0  0  0  0  0  0  0  0
    0.0000   -1.0052    0.0000 N   0  0  0  0  0  0  0  0  0  0  0  0
  1  2  1  0  0  0  0
  2  3  1  0  0  0  0
  3 41  2  0  0  0  0
  3  4  1  0  0  0  0
  4  5  2  0  0  0  0
  5  6  1  0  0  0  0
  6  7  1  0  0  0  0
  7  8  1  0  0  0  0
  8 14  2  0  0  0  0
  8  9  1  0  0  0  0
  9 10  2  0  0  0  0
 10 11  1  0  0  0  0
 11 12  2  0  0  0  0
 12 13  1  0  0  0  0
 12 14  1  0  0  0  0
  7 15  1  0  0  0  0
 15 16  1  0  0  0  0
 16 17  1  0  0  0  0
 17 25  1  0  0  0  0
 17 18  2  0  0  0  0
 18 19  1  0  0  0  0
 19 20  2  0  0  0  0
 18 21  1  0  0  0  0
 21 22  2  0  0  0  0
 22 23  1  0  0  0  0
 23 24  1  0  0  0  0
 23 25  2  0  0  0  0
 25 26  1  0  0  0  0
 26 27  1  0  0  0  0
 27 28  1  0  0  0  0
 28 29  1  0  0  0  0
 29 30  1  0  0  0  0
 30 31  1  0  0  0  0
 31 36  1  0  0  0  0
 31 32  1  0  0  0  0
 32 33  1  0  0  0  0
 33 34  1  0  0  0  0
 34 35  1  0  0  0  0
 35 36  1  0  0  0  0
 29 37  2  0  0  0  0
 15 38  2  0  0  0  0
  5 39  1  0  0  0  0
 39 40  2  0  0  0  0
 40 41  1  0  0  0  0
M  END
$$$$
GIA-UNK-995-1
  -OEChem-03222016562D

 18 19  0     0  0  0  0  0  0999 V2000
   -0.8675    1.5027    0.0000 C   0  0  0  0  0  0  0  0  0  0  0  0
   -0.8675    0.4975    0.0000 C   0  0  0  0  0  0  0  0  0  0  0  0
    0.0000    0.0000    0.0000 C   0  0  0  0  0  0  0  0  0  0  0  0
    0.0000   -1.0000    0.0000 C   0  0  0  0  0  0  0  0  0  0  0  0
   -0.8660   -1.5000    0.0000 O   0  0  0  0  0  0  0  0  0  0  0  0
    0.8660   -1.5000    0.0000 S   0  0  0  0  0  0  0  0  0  0  0  0
    0.8660   -2.5000    0.0000 C   0  0  0  0  0  0  0  0  0  0  0  0
    1.7321   -3.0000    0.0000 F   0  0  0  0  0  0  0  0  0  0  0  0
    0.8675    0.4975    0.0000 C   0  0  0  0  0  0  0  0  0  0  0  0
    0.8675    1.5027    0.0000 C   0  0  0  0  0  0  0  0  0  0  0  0
   -0.0000    2.0104    0.0000 N   0  0  0  0  0  0  0  0  0  0  0  0
    0.0000    3.0104    0.0000 C   0  0  0  0  0  0  0  0  0  0  0  0
    0.8660    3.5104    0.0000 O   0  0  0  0  0  0  0  0  0  0  0  0
   -0.8660    3.5104    0.0000 C   0  0  0  0  0  0  0  0  0  0  0  0
   -1.7815    3.1039    0.0000 C   0  0  0  0  0  0  0  0  0  0  0  0
   -2.4527    3.8472    0.0000 C   0  0  0  0  0  0  0  0  0  0  0  0
   -1.9516    4.7126    0.0000 C   0  0  0  0  0  0  0  0  0  0  0  0
   -0.9720    4.5094    0.0000 N   0  0  0  0  0  0  0  0  0  0  0  0
  1 11  1  0  0  0  0
  1  2  1  0  0  0  0
  2  3  1  0  0  0  0
  3  4  1  0  0  0  0
  4  5  2  0  0  0  0
  4  6  1  0  0  0  0
  6  7  1  0  0  0  0
  7  8  1  0  0  0  0
  3  9  1  0  0  0  0
  9 10  1  0  0  0  0
 10 11  1  0  0  0  0
 11 12  1  0  0  0  0
 12 13  2  0  0  0  0
 12 14  1  0  0  0  0
 14 18  1  0  0  0  0
 14 15  2  0  0  0  0
 15 16  1  0  0  0  0
 16 17  2  0  0  0  0
 17 18  1  0  0  0  0
M  END
$$$$
GIA-UNK-995-2
  -OEChem-03222016562D

 20 21  0     0  0  0  0  0  0999 V2000
   -0.8675    1.5027    0.0000 C   0  0  0  0  0  0  0  0  0  0  0  0
   -0.8675    0.4975    0.0000 C   0  0  0  0  0  0  0  0  0  0  0  0
    0.0000    0.0000    0.0000 C   0  0  0  0  0  0  0  0  0  0  0  0
    0.0000   -1.0000    0.0000 C   0  0  0  0  0  0  0  0  0  0  0  0
   -0.8660   -1.5000    0.0000 O   0  0  0  0  0  0  0  0  0  0  0  0
    0.8660   -1.5000    0.0000 S   0  0  0  0  0  0  0  0  0  0  0  0
    0.8660   -2.5000    0.0000 C   0  0  0  0  0  0  0  0  0  0  0  0
    1.7321   -3.0000    0.0000 F   0  0  0  0  0  0  0  0  0  0  0  0
    0.8675    0.4975    0.0000 C   0  0  0  0  0  0  0  0  0  0  0  0
    0.8675    1.5027    0.0000 C   0  0  0  0  0  0  0  0  0  0  0  0
   -0.0000    2.0104    0.0000 N   0  0  0  0  0  0  0  0  0  0  0  0
    0.0000    3.0104    0.0000 C   0  0  0  0  0  0  0  0  0  0  0  0
    0.8660    3.5104    0.0000 O   0  0  0  0  0  0  0  0  0  0  0  0
   -0.8660    3.5104    0.0000 C   0  0  0  0  0  0  0  0  0  0  0  0
   -1.7351    3.0052    0.0000 C   0  0  0  0  0  0  0  0  0  0  0  0
   -2.6011    3.5052    0.0000 C   0  0  0  0  0  0  0  0  0  0  0  0
   -2.6070    4.5052    0.0000 C   0  0  0  0  0  0  0  0  0  0  0  0
   -3.4752    5.0014    0.0000 F   0  0  0  0  0  0  0  0  0  0  0  0
   -1.7380    5.0104    0.0000 C   0  0  0  0  0  0  0  0  0  0  0  0
   -0.8631    4.5155    0.0000 C   0  0  0  0  0  0  0  0  0  0  0  0
  1 11  1  0  0  0  0
  1  2  1  0  0  0  0
  2  3  1  0  0  0  0
  3  4  1  0  0  0  0
  4  5  2  0  0  0  0
  4  6  1  0  0  0  0
  6  7  1  0  0  0  0
  7  8  1  0  0  0  0
  3  9  1  0  0  0  0
  9 10  1  0  0  0  0
 10 11  1  0  0  0  0
 11 12  1  0  0  0  0
 12 13  2  0  0  0  0
 12 14  1  0  0  0  0
 14 20  1  0  0  0  0
 14 15  2  0  0  0  0
 15 16  1  0  0  0  0
 16 17  2  0  0  0  0
 17 18  1  0  0  0  0
 17 19  1  0  0  0  0
 19 20  2  0  0  0  0
M  END
$$$$
GIA-UNK-995-3
  -OEChem-03222016562D

 20 21  0     0  0  0  0  0  0999 V2000
   -0.8675    1.5027    0.0000 C   0  0  0  0  0  0  0  0  0  0  0  0
   -0.8675    0.4975    0.0000 C   0  0  0  0  0  0  0  0  0  0  0  0
    0.0000    0.0000    0.0000 C   0  0  0  0  0  0  0  0  0  0  0  0
    0.0000   -1.0000    0.0000 C   0  0  0  0  0  0  0  0  0  0  0  0
   -0.8660   -1.5000    0.0000 O   0  0  0  0  0  0  0  0  0  0  0  0
    0.8660   -1.5000    0.0000 S   0  0  0  0  0  0  0  0  0  0  0  0
    0.8660   -2.5000    0.0000 C   0  0  0  0  0  0  0  0  0  0  0  0
    1.7321   -3.0000    0.0000 F   0  0  0  0  0  0  0  0  0  0  0  0
    0.8675    0.4975    0.0000 C   0  0  0  0  0  0  0  0  0  0  0  0
    0.8675    1.5027    0.0000 C   0  0  0  0  0  0  0  0  0  0  0  0
   -0.0000    2.0104    0.0000 N   0  0  0  0  0  0  0  0  0  0  0  0
    0.0000    3.0104    0.0000 C   0  0  0  0  0  0  0  0  0  0  0  0
    0.8660    3.5104    0.0000 O   0  0  0  0  0  0  0  0  0  0  0  0
   -0.8660    3.5104    0.0000 C   0  0  0  0  0  0  0  0  0  0  0  0
   -0.8631    4.5156    0.0000 C   0  0  0  0  0  0  0  0  0  0  0  0
   -1.7291    5.0157    0.0000 C   0  0  0  0  0  0  0  0  0  0  0  0
   -2.5981    4.5207    0.0000 C   0  0  0  0  0  0  0  0  0  0  0  0
   -2.6010    3.5155    0.0000 C   0  0  0  0  0  0  0  0  0  0  0  0
   -3.4700    3.0206    0.0000 F   0  0  0  0  0  0  0  0  0  0  0  0
   -1.7350    3.0053    0.0000 C   0  0  0  0  0  0  0  0  0  0  0  0
  1 11  1  0  0  0  0
  1  2  1  0  0  0  0
  2  3  1  0  0  0  0
  3  4  1  0  0  0  0
  4  5  2  0  0  0  0
  4  6  1  0  0  0  0
  6  7  1  0  0  0  0
  7  8  1  0  0  0  0
  3  9  1  0  0  0  0
  9 10  1  0  0  0  0
 10 11  1  0  0  0  0
 11 12  1  0  0  0  0
 12 13  2  0  0  0  0
 12 14  1  0  0  0  0
 14 20  1  0  0  0  0
 14 15  2  0  0  0  0
 15 16  1  0  0  0  0
 16 17  2  0  0  0  0
 17 18  1  0  0  0  0
 18 19  1  0  0  0  0
 18 20  2  0  0  0  0
M  END
$$$$
GIA-UNK-995-4
  -OEChem-03222016562D

 20 21  0     0  0  0  0  0  0999 V2000
   -0.8675    1.5027    0.0000 C   0  0  0  0  0  0  0  0  0  0  0  0
   -0.8675    0.4975    0.0000 C   0  0  0  0  0  0  0  0  0  0  0  0
    0.0000    0.0000    0.0000 C   0  0  0  0  0  0  0  0  0  0  0  0
    0.0000   -1.0000    0.0000 C   0  0  0  0  0  0  0  0  0  0  0  0
   -0.8660   -1.5000    0.0000 O   0  0  0  0  0  0  0  0  0  0  0  0
    0.8660   -1.5000    0.0000 S   0  0  0  0  0  0  0  0  0  0  0  0
    0.8660   -2.5000    0.0000 C   0  0  0  0  0  0  0  0  0  0  0  0
    1.7321   -3.0000    0.0000 F   0  0  0  0  0  0  0  0  0  0  0  0
    0.8675    0.4975    0.0000 C   0  0  0  0  0  0  0  0  0  0  0  0
    0.8675    1.5027    0.0000 C   0  0  0  0  0  0  0  0  0  0  0  0
   -0.0000    2.0104    0.0000 N   0  0  0  0  0  0  0  0  0  0  0  0
    0.0000    3.0104    0.0000 C   0  0  0  0  0  0  0  0  0  0  0  0
    0.8660    3.5104    0.0000 O   0  0  0  0  0  0  0  0  0  0  0  0
   -0.8660    3.5104    0.0000 C   0  0  0  0  0  0  0  0  0  0  0  0
   -1.7328    3.0116    0.0000 C   0  0  0  0  0  0  0  0  0  0  0  0
   -2.6010    3.5079    0.0000 C   0  0  0  0  0  0  0  0  0  0  0  0
   -2.6025    4.5131    0.0000 C   0  0  0  0  0  0  0  0  0  0  0  0
   -1.7357    5.0220    0.0000 C   0  0  0  0  0  0  0  0  0  0  0  0
   -0.8675    4.5156    0.0000 C   0  0  0  0  0  0  0  0  0  0  0  0
   -0.0007    5.0143    0.0000 F   0  0  0  0  0  0  0  0  0  0  0  0
  1 11  1  0  0  0  0
  1  2  1  0  0  0  0
  2  3  1  0  0  0  0
  3  4  1  0  0  0  0
  4  5  2  0  0  0  0
  4  6  1  0  0  0  0
  6  7  1  0  0  0  0
  7  8  1  0  0  0  0
  3  9  1  0  0  0  0
  9 10  1  0  0  0  0
 10 11  1  0  0  0  0
 11 12  1  0  0  0  0
 12 13  2  0  0  0  0
 12 14  1  0  0  0  0
 14 19  1  0  0  0  0
 14 15  2  0  0  0  0
 15 16  1  0  0  0  0
 16 17  2  0  0  0  0
 17 18  1  0  0  0  0
 18 19  2  0  0  0  0
 19 20  1  0  0  0  0
M  END
$$$$
GIA-UNK-995-5
  -OEChem-03222016562D

 18 19  0     0  0  0  0  0  0999 V2000
   -0.8675    1.5027    0.0000 C   0  0  0  0  0  0  0  0  0  0  0  0
   -0.8675    0.4975    0.0000 C   0  0  0  0  0  0  0  0  0  0  0  0
    0.0000    0.0000    0.0000 C   0  0  0  0  0  0  0  0  0  0  0  0
    0.0000   -1.0000    0.0000 C   0  0  0  0  0  0  0  0  0  0  0  0
   -0.8660   -1.5000    0.0000 O   0  0  0  0  0  0  0  0  0  0  0  0
    0.8660   -1.5000    0.0000 S   0  0  0  0  0  0  0  0  0  0  0  0
    0.8660   -2.5000    0.0000 C   0  0  0  0  0  0  0  0  0  0  0  0
    1.7321   -3.0000    0.0000 F   0  0  0  0  0  0  0  0  0  0  0  0
    0.8675    0.4975    0.0000 C   0  0  0  0  0  0  0  0  0  0  0  0
    0.8675    1.5027    0.0000 C   0  0  0  0  0  0  0  0  0  0  0  0
   -0.0000    2.0104    0.0000 N   0  0  0  0  0  0  0  0  0  0  0  0
    0.0000    3.0104    0.0000 C   0  0  0  0  0  0  0  0  0  0  0  0
    0.8660    3.5104    0.0000 O   0  0  0  0  0  0  0  0  0  0  0  0
   -0.8660    3.5104    0.0000 C   0  0  0  0  0  0  0  0  0  0  0  0
   -1.7815    3.1039    0.0000 C   0  0  0  0  0  0  0  0  0  0  0  0
   -2.4525    3.8472    0.0000 C   0  0  0  0  0  0  0  0  0  0  0  0
   -1.9513    4.7126    0.0000 C   0  0  0  0  0  0  0  0  0  0  0  0
   -0.9720    4.5092    0.0000 C   0  0  0  0  0  0  0  0  0  0  0  0
  1 11  1  0  0  0  0
  1  2  1  0  0  0  0
  2  3  1  0  0  0  0
  3  4  1  0  0  0  0
  4  5  2  0  0  0  0
  4  6  1  0  0  0  0
  6  7  1  0  0  0  0
  7  8  1  0  0  0  0
  3  9  1  0  0  0  0
  9 10  1  0  0  0  0
 10 11  1  0  0  0  0
 11 12  1  0  0  0  0
 12 13  2  0  0  0  0
 12 14  1  0  0  0  0
 14 18  1  0  0  0  0
 14 15  1  0  0  0  0
 15 16  1  0  0  0  0
 16 17  1  0  0  0  0
 17 18  1  0  0  0  0
M  END
$$$$
GIA-UNK-995-6
  -OEChem-03222016562D

 18 19  0     0  0  0  0  0  0999 V2000
   -0.8675    1.5027    0.0000 C   0  0  0  0  0  0  0  0  0  0  0  0
   -0.8675    0.4975    0.0000 C   0  0  0  0  0  0  0  0  0  0  0  0
    0.0000    0.0000    0.0000 C   0  0  0  0  0  0  0  0  0  0  0  0
    0.0000   -1.0000    0.0000 C   0  0  0  0  0  0  0  0  0  0  0  0
   -0.8660   -1.5000    0.0000 O   0  0  0  0  0  0  0  0  0  0  0  0
    0.8660   -1.5000    0.0000 S   0  0  0  0  0  0  0  0  0  0  0  0
    0.8660   -2.5000    0.0000 C   0  0  0  0  0  0  0  0  0  0  0  0
    1.7321   -3.0000    0.0000 F   0  0  0  0  0  0  0  0  0  0  0  0
    0.8675    0.4975    0.0000 C   0  0  0  0  0  0  0  0  0  0  0  0
    0.8675    1.5027    0.0000 C   0  0  0  0  0  0  0  0  0  0  0  0
   -0.0000    2.0104    0.0000 N   0  0  0  0  0  0  0  0  0  0  0  0
    0.0000    3.0104    0.0000 C   0  0  0  0  0  0  0  0  0  0  0  0
    0.8660    3.5104    0.0000 O   0  0  0  0  0  0  0  0  0  0  0  0
   -0.8660    3.5104    0.0000 C   0  0  0  0  0  0  0  0  0  0  0  0
   -1.7815    3.1039    0.0000 C   0  0  0  0  0  0  0  0  0  0  0  0
   -2.4527    3.8472    0.0000 C   0  0  0  0  0  0  0  0  0  0  0  0
   -1.9516    4.7126    0.0000 C   0  0  0  0  0  0  0  0  0  0  0  0
   -0.9720    4.5094    0.0000 S   0  0  0  0  0  0  0  0  0  0  0  0
  1 11  1  0  0  0  0
  1  2  1  0  0  0  0
  2  3  1  0  0  0  0
  3  4  1  0  0  0  0
  4  5  2  0  0  0  0
  4  6  1  0  0  0  0
  6  7  1  0  0  0  0
  7  8  1  0  0  0  0
  3  9  1  0  0  0  0
  9 10  1  0  0  0  0
 10 11  1  0  0  0  0
 11 12  1  0  0  0  0
 12 13  2  0  0  0  0
 12 14  1  0  0  0  0
 14 18  1  0  0  0  0
 14 15  2  0  0  0  0
 15 16  1  0  0  0  0
 16 17  2  0  0  0  0
 17 18  1  0  0  0  0
M  END
$$$$
GIA-UNK-995-7
  -OEChem-03222016562D

 18 19  0     0  0  0  0  0  0999 V2000
   -0.8675    1.5027    0.0000 C   0  0  0  0  0  0  0  0  0  0  0  0
   -0.8675    0.4975    0.0000 C   0  0  0  0  0  0  0  0  0  0  0  0
    0.0000    0.0000    0.0000 C   0  0  0  0  0  0  0  0  0  0  0  0
    0.0000   -1.0000    0.0000 C   0  0  0  0  0  0  0  0  0  0  0  0
   -0.8660   -1.5000    0.0000 O   0  0  0  0  0  0  0  0  0  0  0  0
    0.8660   -1.5000    0.0000 S   0  0  0  0  0  0  0  0  0  0  0  0
    0.8660   -2.5000    0.0000 C   0  0  0  0  0  0  0  0  0  0  0  0
    1.7321   -3.0000    0.0000 F   0  0  0  0  0  0  0  0  0  0  0  0
    0.8675    0.4975    0.0000 C   0  0  0  0  0  0  0  0  0  0  0  0
    0.8675    1.5027    0.0000 C   0  0  0  0  0  0  0  0  0  0  0  0
   -0.0000    2.0104    0.0000 N   0  0  0  0  0  0  0  0  0  0  0  0
    0.0000    3.0104    0.0000 C   0  0  0  0  0  0  0  0  0  0  0  0
    0.8660    3.5104    0.0000 O   0  0  0  0  0  0  0  0  0  0  0  0
   -0.8660    3.5104    0.0000 C   0  0  0  0  0  0  0  0  0  0  0  0
   -1.7815    3.1039    0.0000 C   0  0  0  0  0  0  0  0  0  0  0  0
   -2.4527    3.8472    0.0000 C   0  0  0  0  0  0  0  0  0  0  0  0
   -1.9516    4.7126    0.0000 C   0  0  0  0  0  0  0  0  0  0  0  0
   -0.9720    4.5094    0.0000 O   0  0  0  0  0  0  0  0  0  0  0  0
  1 11  1  0  0  0  0
  1  2  1  0  0  0  0
  2  3  1  0  0  0  0
  3  4  1  0  0  0  0
  4  5  2  0  0  0  0
  4  6  1  0  0  0  0
  6  7  1  0  0  0  0
  7  8  1  0  0  0  0
  3  9  1  0  0  0  0
  9 10  1  0  0  0  0
 10 11  1  0  0  0  0
 11 12  1  0  0  0  0
 12 13  2  0  0  0  0
 12 14  1  0  0  0  0
 14 18  1  0  0  0  0
 14 15  2  0  0  0  0
 15 16  1  0  0  0  0
 16 17  2  0  0  0  0
 17 18  1  0  0  0  0
M  END
$$$$
GIA-UNK-995-8
  -OEChem-03222016562D

 19 20  0     0  0  0  0  0  0999 V2000
   -0.8675    1.5027    0.0000 C   0  0  0  0  0  0  0  0  0  0  0  0
   -0.8675    0.4975    0.0000 C   0  0  0  0  0  0  0  0  0  0  0  0
    0.0000    0.0000    0.0000 C   0  0  0  0  0  0  0  0  0  0  0  0
    0.0000   -1.0000    0.0000 C   0  0  0  0  0  0  0  0  0  0  0  0
   -0.8660   -1.5000    0.0000 O   0  0  0  0  0  0  0  0  0  0  0  0
    0.8660   -1.5000    0.0000 S   0  0  0  0  0  0  0  0  0  0  0  0
    0.8660   -2.5000    0.0000 C   0  0  0  0  0  0  0  0  0  0  0  0
    1.7321   -3.0000    0.0000 F   0  0  0  0  0  0  0  0  0  0  0  0
    0.8675    0.4975    0.0000 C   0  0  0  0  0  0  0  0  0  0  0  0
    0.8675    1.5027    0.0000 C   0  0  0  0  0  0  0  0  0  0  0  0
   -0.0000    2.0104    0.0000 N   0  0  0  0  0  0  0  0  0  0  0  0
    0.0000    3.0104    0.0000 C   0  0  0  0  0  0  0  0  0  0  0  0
    0.8660    3.5104    0.0000 O   0  0  0  0  0  0  0  0  0  0  0  0
   -0.8660    3.5104    0.0000 C   0  0  0  0  0  0  0  0  0  0  0  0
   -1.7351    3.0052    0.0000 C   0  0  0  0  0  0  0  0  0  0  0  0
   -2.6011    3.5052    0.0000 C   0  0  0  0  0  0  0  0  0  0  0  0
   -2.6070    4.5052    0.0000 C   0  0  0  0  0  0  0  0  0  0  0  0
   -1.7380    5.0104    0.0000 C   0  0  0  0  0  0  0  0  0  0  0  0
   -0.8631    4.5155    0.0000 C   0  0  0  0  0  0  0  0  0  0  0  0
  1 11  1  0  0  0  0
  1  2  1  0  0  0  0
  2  3  1  0  0  0  0
  3  4  1  0  0  0  0
  4  5  2  0  0  0  0
  4  6  1  0  0  0  0
  6  7  1  0  0  0  0
  7  8  1  0  0  0  0
  3  9  1  0  0  0  0
  9 10  1  0  0  0  0
 10 11  1  0  0  0  0
 11 12  1  0  0  0  0
 12 13  2  0  0  0  0
 12 14  1  0  0  0  0
 14 19  1  0  0  0  0
 14 15  2  0  0  0  0
 15 16  1  0  0  0  0
 16 17  2  0  0  0  0
 17 18  1  0  0  0  0
 18 19  2  0  0  0  0
M  END
$$$$
GIA-UNK-995-9
  -OEChem-03222016562D

 17 17  0     1  0  0  0  0  0999 V2000
   -0.8675    1.5027    0.0000 C   0  0  0  0  0  0  0  0  0  0  0  0
   -0.8675    0.4975    0.0000 C   0  0  0  0  0  0  0  0  0  0  0  0
    0.0000    0.0000    0.0000 C   0  0  0  0  0  0  0  0  0  0  0  0
    0.0000   -1.0000    0.0000 C   0  0  0  0  0  0  0  0  0  0  0  0
    0.8660   -1.5000    0.0000 S   0  0  0  0  0  0  0  0  0  0  0  0
    0.8660   -2.5000    0.0000 C   0  0  0  0  0  0  0  0  0  0  0  0
    1.7321   -3.0000    0.0000 F   0  0  0  0  0  0  0  0  0  0  0  0
   -0.8660   -1.5000    0.0000 O   0  0  0  0  0  0  0  0  0  0  0  0
    0.8675    0.4975    0.0000 C   0  0  0  0  0  0  0  0  0  0  0  0
    0.8675    1.5027    0.0000 C   0  0  0  0  0  0  0  0  0  0  0  0
   -0.0000    2.0104    0.0000 N   0  0  0  0  0  0  0  0  0  0  0  0
    0.0000    3.0104    0.0000 C   0  0  0  0  0  0  0  0  0  0  0  0
    0.8660    3.5104    0.0000 O   0  0  0  0  0  0  0  0  0  0  0  0
   -0.8660    3.5104    0.0000 C   0  0  3  0  0  0  0  0  0  0  0  0
   -0.8660    4.5104    0.0000 C   0  0  0  0  0  0  0  0  0  0  0  0
   -1.7321    5.0104    0.0000 C   0  0  0  0  0  0  0  0  0  0  0  0
   -1.7321    3.0104    0.0000 C   0  0  0  0  0  0  0  0  0  0  0  0
  1 11  1  0  0  0  0
  1  2  1  0  0  0  0
  2  3  1  0  0  0  0
  3  4  1  0  0  0  0
  4  5  1  0  0  0  0
  5  6  1  0  0  0  0
  6  7  1  0  0  0  0
  4  8  2  0  0  0  0
  3  9  1  0  0  0  0
  9 10  1  0  0  0  0
 10 11  1  0  0  0  0
 11 12  1  0  0  0  0
 12 13  2  0  0  0  0
 12 14  1  0  0  0  0
 14 15  1  0  0  0  0
 15 16  1  0  0  0  0
 14 17  1  0  0  0  0
M  END
$$$$
GIA-UNK-995-10
  -OEChem-03222016562D

 17 17  0     0  0  0  0  0  0999 V2000
   -0.8675    1.5027    0.0000 C   0  0  0  0  0  0  0  0  0  0  0  0
   -0.8675    0.4975    0.0000 C   0  0  0  0  0  0  0  0  0  0  0  0
    0.0000    0.0000    0.0000 C   0  0  0  0  0  0  0  0  0  0  0  0
    0.0000   -1.0000    0.0000 C   0  0  0  0  0  0  0  0  0  0  0  0
   -0.8660   -1.5000    0.0000 O   0  0  0  0  0  0  0  0  0  0  0  0
    0.8660   -1.5000    0.0000 S   0  0  0  0  0  0  0  0  0  0  0  0
    0.8660   -2.5000    0.0000 C   0  0  0  0  0  0  0  0  0  0  0  0
    1.7321   -3.0000    0.0000 F   0  0  0  0  0  0  0  0  0  0  0  0
    0.8675    0.4975    0.0000 C   0  0  0  0  0  0  0  0  0  0  0  0
    0.8675    1.5027    0.0000 C   0  0  0  0  0  0  0  0  0  0  0  0
   -0.0000    2.0104    0.0000 N   0  0  0  0  0  0  0  0  0  0  0  0
    0.0000    3.0104    0.0000 C   0  0  0  0  0  0  0  0  0  0  0  0
    0.8660    3.5104    0.0000 O   0  0  0  0  0  0  0  0  0  0  0  0
   -0.8660    3.5104    0.0000 C   0  0  0  0  0  0  0  0  0  0  0  0
   -1.3660    2.6444    0.0000 C   0  0  0  0  0  0  0  0  0  0  0  0
   -0.3660    4.3764    0.0000 C   0  0  0  0  0  0  0  0  0  0  0  0
   -1.7321    4.0104    0.0000 C   0  0  0  0  0  0  0  0  0  0  0  0
  1 11  1  0  0  0  0
  1  2  1  0  0  0  0
  2  3  1  0  0  0  0
  3  4  1  0  0  0  0
  4  5  2  0  0  0  0
  4  6  1  0  0  0  0
  6  7  1  0  0  0  0
  7  8  1  0  0  0  0
  3  9  1  0  0  0  0
  9 10  1  0  0  0  0
 10 11  1  0  0  0  0
 11 12  1  0  0  0  0
 12 13  2  0  0  0  0
 12 14  1  0  0  0  0
 14 15  1  0  0  0  0
 14 16  1  0  0  0  0
 14 17  1  0  0  0  0
M  END
$$$$
GIA-UNK-995-11
  -OEChem-03222016562D

 15 15  0     0  0  0  0  0  0999 V2000
   -0.8675    1.5027    0.0000 C   0  0  0  0  0  0  0  0  0  0  0  0
   -0.8675    0.4975    0.0000 C   0  0  0  0  0  0  0  0  0  0  0  0
    0.0000    0.0000    0.0000 C   0  0  0  0  0  0  0  0  0  0  0  0
    0.0000   -1.0000    0.0000 C   0  0  0  0  0  0  0  0  0  0  0  0
   -0.8660   -1.5000    0.0000 O   0  0  0  0  0  0  0  0  0  0  0  0
    0.8660   -1.5000    0.0000 S   0  0  0  0  0  0  0  0  0  0  0  0
    0.8660   -2.5000    0.0000 C   0  0  0  0  0  0  0  0  0  0  0  0
    1.7321   -3.0000    0.0000 F   0  0  0  0  0  0  0  0  0  0  0  0
    0.8675    0.4975    0.0000 C   0  0  0  0  0  0  0  0  0  0  0  0
    0.8675    1.5027    0.0000 C   0  0  0  0  0  0  0  0  0  0  0  0
   -0.0000    2.0104    0.0000 N   0  0  0  0  0  0  0  0  0  0  0  0
    0.0000    3.0104    0.0000 C   0  0  0  0  0  0  0  0  0  0  0  0
    0.8660    3.5104    0.0000 O   0  0  0  0  0  0  0  0  0  0  0  0
   -0.8660    3.5104    0.0000 C   0  0  0  0  0  0  0  0  0  0  0  0
   -0.8660    4.5104    0.0000 C   0  0  0  0  0  0  0  0  0  0  0  0
  1 11  1  0  0  0  0
  1  2  1  0  0  0  0
  2  3  1  0  0  0  0
  3  4  1  0  0  0  0
  4  5  2  0  0  0  0
  4  6  1  0  0  0  0
  6  7  1  0  0  0  0
  7  8  1  0  0  0  0
  3  9  1  0  0  0  0
  9 10  1  0  0  0  0
 10 11  1  0  0  0  0
 11 12  1  0  0  0  0
 12 13  2  0  0  0  0
 12 14  1  0  0  0  0
 14 15  1  0  0  0  0
M  END
$$$$
GIA-UNK-995-12
  -OEChem-03222016562D

 14 14  0     0  0  0  0  0  0999 V2000
   -0.8675    1.5027    0.0000 C   0  0  0  0  0  0  0  0  0  0  0  0
   -0.8675    0.4975    0.0000 C   0  0  0  0  0  0  0  0  0  0  0  0
    0.0000    0.0000    0.0000 C   0  0  0  0  0  0  0  0  0  0  0  0
    0.0000   -1.0000    0.0000 C   0  0  0  0  0  0  0  0  0  0  0  0
   -0.8660   -1.5000    0.0000 O   0  0  0  0  0  0  0  0  0  0  0  0
    0.8660   -1.5000    0.0000 S   0  0  0  0  0  0  0  0  0  0  0  0
    0.8660   -2.5000    0.0000 C   0  0  0  0  0  0  0  0  0  0  0  0
    1.7321   -3.0000    0.0000 F   0  0  0  0  0  0  0  0  0  0  0  0
    0.8675    0.4975    0.0000 C   0  0  0  0  0  0  0  0  0  0  0  0
    0.8675    1.5027    0.0000 C   0  0  0  0  0  0  0  0  0  0  0  0
   -0.0000    2.0104    0.0000 N   0  0  0  0  0  0  0  0  0  0  0  0
    0.0000    3.0104    0.0000 C   0  0  0  0  0  0  0  0  0  0  0  0
    0.8660    3.5104    0.0000 O   0  0  0  0  0  0  0  0  0  0  0  0
   -0.8660    3.5104    0.0000 C   0  0  0  0  0  0  0  0  0  0  0  0
  1 11  1  0  0  0  0
  1  2  1  0  0  0  0
  2  3  1  0  0  0  0
  3  4  1  0  0  0  0
  4  5  2  0  0  0  0
  4  6  1  0  0  0  0
  6  7  1  0  0  0  0
  7  8  1  0  0  0  0
  3  9  1  0  0  0  0
  9 10  1  0  0  0  0
 10 11  1  0  0  0  0
 11 12  1  0  0  0  0
 12 13  2  0  0  0  0
 12 14  1  0  0  0  0
M  END
$$$$
GIA-UNK-995-13
  -OEChem-03222016562D

 19 20  0     0  0  0  0  0  0999 V2000
   -0.8675    1.5027    0.0000 C   0  0  0  0  0  0  0  0  0  0  0  0
   -0.8675    0.4975    0.0000 C   0  0  0  0  0  0  0  0  0  0  0  0
    0.0000    0.0000    0.0000 C   0  0  0  0  0  0  0  0  0  0  0  0
    0.0000   -1.0000    0.0000 C   0  0  0  0  0  0  0  0  0  0  0  0
   -0.8660   -1.5000    0.0000 O   0  0  0  0  0  0  0  0  0  0  0  0
    0.8660   -1.5000    0.0000 S   0  0  0  0  0  0  0  0  0  0  0  0
    0.8660   -2.5000    0.0000 C   0  0  0  0  0  0  0  0  0  0  0  0
    1.7321   -3.0000    0.0000 F   0  0  0  0  0  0  0  0  0  0  0  0
    0.8675    0.4975    0.0000 C   0  0  0  0  0  0  0  0  0  0  0  0
    0.8675    1.5027    0.0000 C   0  0  0  0  0  0  0  0  0  0  0  0
   -0.0000    2.0104    0.0000 N   0  0  0  0  0  0  0  0  0  0  0  0
    0.0000    3.0104    0.0000 C   0  0  0  0  0  0  0  0  0  0  0  0
    0.8660    3.5104    0.0000 O   0  0  0  0  0  0  0  0  0  0  0  0
   -0.8660    3.5104    0.0000 C   0  0  0  0  0  0  0  0  0  0  0  0
   -1.7351    3.0052    0.0000 C   0  0  0  0  0  0  0  0  0  0  0  0
   -2.6011    3.5052    0.0000 C   0  0  0  0  0  0  0  0  0  0  0  0
   -2.6070    4.5052    0.0000 C   0  0  0  0  0  0  0  0  0  0  0  0
   -1.7380    5.0104    0.0000 C   0  0  0  0  0  0  0  0  0  0  0  0
   -0.8631    4.5155    0.0000 C   0  0  0  0  0  0  0  0  0  0  0  0
  1 11  1  0  0  0  0
  1  2  1  0  0  0  0
  2  3  1  0  0  0  0
  3  4  1  0  0  0  0
  4  5  2  0  0  0  0
  4  6  1  0  0  0  0
  6  7  1  0  0  0  0
  7  8  1  0  0  0  0
  3  9  1  0  0  0  0
  9 10  1  0  0  0  0
 10 11  1  0  0  0  0
 11 12  1  0  0  0  0
 12 13  2  0  0  0  0
 12 14  1  0  0  0  0
 14 19  1  0  0  0  0
 14 15  1  0  0  0  0
 15 16  1  0  0  0  0
 16 17  1  0  0  0  0
 17 18  1  0  0  0  0
 18 19  1  0  0  0  0
M  END
$$$$
GIA-UNK-995-14
  -OEChem-03222016562D

 17 18  0     0  0  0  0  0  0999 V2000
   -0.8675    1.5027    0.0000 C   0  0  0  0  0  0  0  0  0  0  0  0
   -0.8675    0.4975    0.0000 C   0  0  0  0  0  0  0  0  0  0  0  0
    0.0000    0.0000    0.0000 C   0  0  0  0  0  0  0  0  0  0  0  0
    0.0000   -1.0000    0.0000 C   0  0  0  0  0  0  0  0  0  0  0  0
   -0.8660   -1.5000    0.0000 O   0  0  0  0  0  0  0  0  0  0  0  0
    0.8660   -1.5000    0.0000 S   0  0  0  0  0  0  0  0  0  0  0  0
    0.8660   -2.5000    0.0000 C   0  0  0  0  0  0  0  0  0  0  0  0
    1.7321   -3.0000    0.0000 F   0  0  0  0  0  0  0  0  0  0  0  0
    0.8675    0.4975    0.0000 C   0  0  0  0  0  0  0  0  0  0  0  0
    0.8675    1.5027    0.0000 C   0  0  0  0  0  0  0  0  0  0  0  0
   -0.0000    2.0104    0.0000 N   0  0  0  0  0  0  0  0  0  0  0  0
    0.0000    3.0104    0.0000 C   0  0  0  0  0  0  0  0  0  0  0  0
    0.8660    3.5104    0.0000 O   0  0  0  0  0  0  0  0  0  0  0  0
   -0.8660    3.5104    0.0000 C   0  0  0  0  0  0  0  0  0  0  0  0
   -1.1248    4.4763    0.0000 C   0  0  0  0  0  0  0  0  0  0  0  0
   -2.0908    4.2175    0.0000 C   0  0  0  0  0  0  0  0  0  0  0  0
   -1.8320    3.2516    0.0000 C   0  0  0  0  0  0  0  0  0  0  0  0
  1 11  1  0  0  0  0
  1  2  1  0  0  0  0
  2  3  1  0  0  0  0
  3  4  1  0  0  0  0
  4  5  2  0  0  0  0
  4  6  1  0  0  0  0
  6  7  1  0  0  0  0
  7  8  1  0  0  0  0
  3  9  1  0  0  0  0
  9 10  1  0  0  0  0
 10 11  1  0  0  0  0
 11 12  1  0  0  0  0
 12 13  2  0  0  0  0
 12 14  1  0  0  0  0
 14 17  1  0  0  0  0
 14 15  1  0  0  0  0
 15 16  1  0  0  0  0
 16 17  1  0  0  0  0
M  END
$$$$
GIA-UNK-995-15
  -OEChem-03222016562D

 16 17  0     0  0  0  0  0  0999 V2000
   -0.8675    1.5027    0.0000 C   0  0  0  0  0  0  0  0  0  0  0  0
   -0.8675    0.4975    0.0000 C   0  0  0  0  0  0  0  0  0  0  0  0
    0.0000    0.0000    0.0000 C   0  0  0  0  0  0  0  0  0  0  0  0
    0.0000   -1.0000    0.0000 C   0  0  0  0  0  0  0  0  0  0  0  0
    0.8660   -1.5000    0.0000 S   0  0  0  0  0  0  0  0  0  0  0  0
    0.8660   -2.5000    0.0000 C   0  0  0  0  0  0  0  0  0  0  0  0
    1.7321   -3.0000    0.0000 F   0  0  0  0  0  0  0  0  0  0  0  0
   -0.8660   -1.5000    0.0000 O   0  0  0  0  0  0  0  0  0  0  0  0
    0.8675    0.4975    0.0000 C   0  0  0  0  0  0  0  0  0  0  0  0
    0.8675    1.5027    0.0000 C   0  0  0  0  0  0  0  0  0  0  0  0
   -0.0000    2.0104    0.0000 N   0  0  0  0  0  0  0  0  0  0  0  0
    0.0000    3.0104    0.0000 C   0  0  0  0  0  0  0  0  0  0  0  0
    0.8660    3.5104    0.0000 O   0  0  0  0  0  0  0  0  0  0  0  0
   -0.8660    3.5104    0.0000 C   0  0  0  0  0  0  0  0  0  0  0  0
   -1.3679    4.3775    0.0000 C   0  0  0  0  0  0  0  0  0  0  0  0
   -1.8679    3.5115    0.0000 C   0  0  0  0  0  0  0  0  0  0  0  0
  1 11  1  0  0  0  0
  1  2  1  0  0  0  0
  2  3  1  0  0  0  0
  3  4  1  0  0  0  0
  4  5  1  0  0  0  0
  5  6  1  0  0  0  0
  6  7  1  0  0  0  0
  4  8  2  0  0  0  0
  3  9  1  0  0  0  0
  9 10  1  0  0  0  0
 10 11  1  0  0  0  0
 11 12  1  0  0  0  0
 12 13  2  0  0  0  0
 12 14  1  0  0  0  0
 14 16  1  0  0  0  0
 14 15  1  0  0  0  0
 15 16  1  0  0  0  0
M  END
$$$$
GIA-UNK-995-16
  -OEChem-03222016562D

 18 18  0     0  0  0  0  0  0999 V2000
   -0.8675    1.5027    0.0000 C   0  0  0  0  0  0  0  0  0  0  0  0
   -0.8675    0.4975    0.0000 C   0  0  0  0  0  0  0  0  0  0  0  0
    0.0000    0.0000    0.0000 C   0  0  0  0  0  0  0  0  0  0  0  0
    0.0000   -1.0000    0.0000 C   0  0  0  0  0  0  0  0  0  0  0  0
   -0.8660   -1.5000    0.0000 O   0  0  0  0  0  0  0  0  0  0  0  0
    0.8660   -1.5000    0.0000 S   0  0  0  0  0  0  0  0  0  0  0  0
    0.8660   -2.5000    0.0000 C   0  0  0  0  0  0  0  0  0  0  0  0
    1.7321   -3.0000    0.0000 F   0  0  0  0  0  0  0  0  0  0  0  0
    0.8675    0.4975    0.0000 C   0  0  0  0  0  0  0  0  0  0  0  0
    0.8675    1.5027    0.0000 C   0  0  0  0  0  0  0  0  0  0  0  0
   -0.0000    2.0104    0.0000 N   0  0  0  0  0  0  0  0  0  0  0  0
    0.0000    3.0104    0.0000 C   0  0  0  0  0  0  0  0  0  0  0  0
    0.8660    3.5104    0.0000 O   0  0  0  0  0  0  0  0  0  0  0  0
   -0.8660    3.5104    0.0000 C   0  0  0  0  0  0  0  0  0  0  0  0
   -1.7321    3.0104    0.0000 C   0  0  0  0  0  0  0  0  0  0  0  0
   -1.7321    2.0104    0.0000 C   0  0  0  0  0  0  0  0  0  0  0  0
   -0.8660    4.5104    0.0000 C   0  0  0  0  0  0  0  0  0  0  0  0
   -1.7320    5.0104    0.0000 C   0  0  0  0  0  0  0  0  0  0  0  0
  1 11  1  0  0  0  0
  1  2  1  0  0  0  0
  2  3  1  0  0  0  0
  3  4  1  0  0  0  0
  4  5  2  0  0  0  0
  4  6  1  0  0  0  0
  6  7  1  0  0  0  0
  7  8  1  0  0  0  0
  3  9  1  0  0  0  0
  9 10  1  0  0  0  0
 10 11  1  0  0  0  0
 11 12  1  0  0  0  0
 12 13  2  0  0  0  0
 12 14  1  0  0  0  0
 14 15  1  0  0  0  0
 15 16  1  0  0  0  0
 14 17  1  0  0  0  0
 17 18  1  0  0  0  0
M  END
$$$$
GIA-UNK-995-17
  -OEChem-03222016562D

 16 16  0     0  0  0  0  0  0999 V2000
   -0.8675    1.5027    0.0000 C   0  0  0  0  0  0  0  0  0  0  0  0
   -0.8675    0.4975    0.0000 C   0  0  0  0  0  0  0  0  0  0  0  0
    0.0000    0.0000    0.0000 C   0  0  0  0  0  0  0  0  0  0  0  0
    0.0000   -1.0000    0.0000 C   0  0  0  0  0  0  0  0  0  0  0  0
   -0.8660   -1.5000    0.0000 O   0  0  0  0  0  0  0  0  0  0  0  0
    0.8660   -1.5000    0.0000 S   0  0  0  0  0  0  0  0  0  0  0  0
    0.8660   -2.5000    0.0000 C   0  0  0  0  0  0  0  0  0  0  0  0
    1.7321   -3.0000    0.0000 F   0  0  0  0  0  0  0  0  0  0  0  0
    0.8675    0.4975    0.0000 C   0  0  0  0  0  0  0  0  0  0  0  0
    0.8675    1.5027    0.0000 C   0  0  0  0  0  0  0  0  0  0  0  0
   -0.0000    2.0104    0.0000 N   0  0  0  0  0  0  0  0  0  0  0  0
    0.0000    3.0104    0.0000 C   0  0  0  0  0  0  0  0  0  0  0  0
   -0.8660    3.5104    0.0000 C   0  0  0  0  0  0  0  0  0  0  0  0
   -1.7321    3.0104    0.0000 C   0  0  0  0  0  0  0  0  0  0  0  0
   -0.8660    4.5104    0.0000 C   0  0  0  0  0  0  0  0  0  0  0  0
    0.8660    3.5104    0.0000 O   0  0  0  0  0  0  0  0  0  0  0  0
  1 11  1  0  0  0  0
  1  2  1  0  0  0  0
  2  3  1  0  0  0  0
  3  4  1  0  0  0  0
  4  5  2  0  0  0  0
  4  6  1  0  0  0  0
  6  7  1  0  0  0  0
  7  8  1  0  0  0  0
  3  9  1  0  0  0  0
  9 10  1  0  0  0  0
 10 11  1  0  0  0  0
 11 12  1  0  0  0  0
 12 13  1  0  0  0  0
 13 14  1  0  0  0  0
 13 15  1  0  0  0  0
 12 16  2  0  0  0  0
M  END
$$$$
TRI-UNI-974-1
  -OEChem-03222016562D

 29 31  0     0  0  0  0  0  0999 V2000
    1.8718    5.5136    0.0000 F   0  0  0  0  0  0  0  0  0  0  0  0
    0.8718    5.5180    0.0000 C   0  0  0  0  0  0  0  0  0  0  0  0
    0.8674    4.5181    0.0000 C   0  0  0  0  0  0  0  0  0  0  0  0
    1.7372    4.0142    0.0000 C   0  0  0  0  0  0  0  0  0  0  0  0
    1.7328    3.0142    0.0000 C   0  0  0  0  0  0  0  0  0  0  0  0
    0.8675    2.5129    0.0000 C   0  0  0  0  0  0  0  0  0  0  0  0
    0.8675    1.5129    0.0000 N   0  0  0  0  0  0  0  0  0  0  0  0
    0.0000    1.0052    0.0000 C   0  0  0  0  0  0  0  0  0  0  0  0
    0.0000    0.0000    0.0000 C   0  0  0  0  0  0  0  0  0  0  0  0
    0.8675   -0.4975    0.0000 N   0  0  0  0  0  0  0  0  0  0  0  0
    0.8675   -1.4975    0.0000 C   0  0  0  0  0  0  0  0  0  0  0  0
    1.7335   -1.9975    0.0000 C   0  0  0  0  0  0  0  0  0  0  0  0
    1.7335   -2.9975    0.0000 N   0  0  0  0  0  0  0  0  0  0  0  0
    2.5996   -3.4975    0.0000 C   0  0  0  0  0  0  0  0  0  0  0  0
    2.5996   -4.4975    0.0000 N   0  0  0  0  0  0  0  0  0  0  0  0
    3.4656   -4.9975    0.0000 C   0  0  0  0  0  0  0  0  0  0  0  0
    3.4656   -5.9975    0.0000 C   0  0  0  0  0  0  0  0  0  0  0  0
    4.3376   -6.4975    0.0000 C   0  0  0  0  0  0  0  0  0  0  0  0
    4.3376   -7.4976    0.0000 C   0  0  0  0  0  0  0  0  0  0  0  0
    3.4745   -8.0026    0.0000 C   0  0  0  0  0  0  0  0  0  0  0  0
    2.6025   -7.5026    0.0000 C   0  0  0  0  0  0  0  0  0  0  0  0
    2.5936   -6.4975    0.0000 N   0  0  0  0  0  0  0  0  0  0  0  0
    3.4656   -2.9975    0.0000 O   0  0  0  0  0  0  0  0  0  0  0  0
    1.7350    0.0000    0.0000 C   0  0  0  0  0  0  0  0  0  0  0  0
    1.7350    1.0052    0.0000 C   0  0  0  0  0  0  0  0  0  0  0  0
   -0.0023    3.0168    0.0000 C   0  0  0  0  0  0  0  0  0  0  0  0
   -0.0068    4.0219    0.0000 C   0  0  0  0  0  0  0  0  0  0  0  0
    0.8762    6.5180    0.0000 F   0  0  0  0  0  0  0  0  0  0  0  0
   -0.1282    5.5224    0.0000 F   0  0  0  0  0  0  0  0  0  0  0  0
  1  2  1  0  0  0  0
  2  3  1  0  0  0  0
  3 27  2  0  0  0  0
  3  4  1  0  0  0  0
  4  5  2  0  0  0  0
  5  6  1  0  0  0  0
  6  7  1  0  0  0  0
  7 25  1  0  0  0  0
  7  8  1  0  0  0  0
  8  9  1  0  0  0  0
  9 10  1  0  0  0  0
 10 11  1  0  0  0  0
 11 12  1  0  0  0  0
 12 13  1  0  0  0  0
 13 14  1  0  0  0  0
 14 15  1  0  0  0  0
 15 16  1  0  0  0  0
 16 17  1  0  0  0  0
 17 22  2  0  0  0  0
 17 18  1  0  0  0  0
 18 19  2  0  0  0  0
 19 20  1  0  0  0  0
 20 21  2  0  0  0  0
 21 22  1  0  0  0  0
 14 23  2  0  0  0  0
 10 24  1  0  0  0  0
 24 25  1  0  0  0  0
  6 26  2  0  0  0  0
 26 27  1  0  0  0  0
  2 28  1  0  0  0  0
  2 29  1  0  0  0  0
M  END
$$$$
TRI-UNI-974-2
  -OEChem-03222016562D

 26 28  0     0  0  0  0  0  0999 V2000
    0.8718    5.5180    0.0000 C   0  0  0  0  0  0  0  0  0  0  0  0
    0.8674    4.5181    0.0000 C   0  0  0  0  0  0  0  0  0  0  0  0
    1.7372    4.0142    0.0000 C   0  0  0  0  0  0  0  0  0  0  0  0
    1.7328    3.0142    0.0000 C   0  0  0  0  0  0  0  0  0  0  0  0
    0.8675    2.5129    0.0000 C   0  0  0  0  0  0  0  0  0  0  0  0
    0.8675    1.5129    0.0000 N   0  0  0  0  0  0  0  0  0  0  0  0
    0.0000    1.0052    0.0000 C   0  0  0  0  0  0  0  0  0  0  0  0
    0.0000    0.0000    0.0000 C   0  0  0  0  0  0  0  0  0  0  0  0
    0.8675   -0.4975    0.0000 N   0  0  0  0  0  0  0  0  0  0  0  0
    0.8675   -1.4975    0.0000 C   0  0  0  0  0  0  0  0  0  0  0  0
    1.7335   -1.9975    0.0000 C   0  0  0  0  0  0  0  0  0  0  0  0
    1.7335   -2.9975    0.0000 N   0  0  0  0  0  0  0  0  0  0  0  0
    2.5996   -3.4975    0.0000 C   0  0  0  0  0  0  0  0  0  0  0  0
    2.5996   -4.4975    0.0000 N   0  0  0  0  0  0  0  0  0  0  0  0
    3.4656   -4.9975    0.0000 C   0  0  0  0  0  0  0  0  0  0  0  0
    3.4656   -5.9975    0.0000 C   0  0  0  0  0  0  0  0  0  0  0  0
    4.3376   -6.4975    0.0000 C   0  0  0  0  0  0  0  0  0  0  0  0
    4.3376   -7.4976    0.0000 C   0  0  0  0  0  0  0  0  0  0  0  0
    3.4745   -8.0026    0.0000 C   0  0  0  0  0  0  0  0  0  0  0  0
    2.6025   -7.5026    0.0000 C   0  0  0  0  0  0  0  0  0  0  0  0
    2.5936   -6.4975    0.0000 N   0  0  0  0  0  0  0  0  0  0  0  0
    3.4656   -2.9975    0.0000 O   0  0  0  0  0  0  0  0  0  0  0  0
    1.7350    0.0000    0.0000 C   0  0  0  0  0  0  0  0  0  0  0  0
    1.7350    1.0052    0.0000 C   0  0  0  0  0  0  0  0  0  0  0  0
   -0.0023    3.0168    0.0000 C   0  0  0  0  0  0  0  0  0  0  0  0
   -0.0068    4.0219    0.0000 C   0  0  0  0  0  0  0  0  0  0  0  0
  1  2  1  0  0  0  0
  2 26  2  0  0  0  0
  2  3  1  0  0  0  0
  3  4  2  0  0  0  0
  4  5  1  0  0  0  0
  5  6  1  0  0  0  0
  6 24  1  0  0  0  0
  6  7  1  0  0  0  0
  7  8  1  0  0  0  0
  8  9  1  0  0  0  0
  9 10  1  0  0  0  0
 10 11  1  0  0  0  0
 11 12  1  0  0  0  0
 12 13  1  0  0  0  0
 13 14  1  0  0  0  0
 14 15  1  0  0  0  0
 15 16  1  0  0  0  0
 16 21  2  0  0  0  0
 16 17  1  0  0  0  0
 17 18  2  0  0  0  0
 18 19  1  0  0  0  0
 19 20  2  0  0  0  0
 20 21  1  0  0  0  0
 13 22  2  0  0  0  0
  9 23  1  0  0  0  0
 23 24  1  0  0  0  0
  5 25  2  0  0  0  0
 25 26  1  0  0  0  0
M  END
$$$$
TRI-UNI-974-3
  -OEChem-03222016562D

 25 27  0     0  0  0  0  0  0999 V2000
    3.4656    4.0129    0.0000 O   0  0  0  0  0  0  0  0  0  0  0  0
    2.5996    4.5129    0.0000 C   0  0  0  0  0  0  0  0  0  0  0  0
    1.7335    4.0129    0.0000 N   0  0  0  0  0  0  0  0  0  0  0  0
    1.7335    3.0129    0.0000 C   0  0  0  0  0  0  0  0  0  0  0  0
    0.8675    2.5129    0.0000 C   0  0  0  0  0  0  0  0  0  0  0  0
    0.8675    1.5129    0.0000 N   0  0  0  0  0  0  0  0  0  0  0  0
    0.0000    1.0052    0.0000 C   0  0  0  0  0  0  0  0  0  0  0  0
    0.0000    0.0000    0.0000 C   0  0  0  0  0  0  0  0  0  0  0  0
    0.8675   -0.4975    0.0000 N   0  0  0  0  0  0  0  0  0  0  0  0
    0.8675   -1.4975    0.0000 C   0  0  0  0  0  0  0  0  0  0  0  0
    1.7395   -1.9975    0.0000 C   0  0  0  0  0  0  0  0  0  0  0  0
    1.7396   -2.9976    0.0000 C   0  0  0  0  0  0  0  0  0  0  0  0
    0.8764   -3.5026    0.0000 C   0  0  0  0  0  0  0  0  0  0  0  0
    0.0044   -3.0026    0.0000 C   0  0  0  0  0  0  0  0  0  0  0  0
   -0.0045   -1.9975    0.0000 C   0  0  0  0  0  0  0  0  0  0  0  0
    1.7350    0.0000    0.0000 C   0  0  0  0  0  0  0  0  0  0  0  0
    1.7350    1.0052    0.0000 C   0  0  0  0  0  0  0  0  0  0  0  0
    2.5996    5.5129    0.0000 N   0  0  0  0  0  0  0  0  0  0  0  0
    3.4656    6.0129    0.0000 C   0  0  0  0  0  0  0  0  0  0  0  0
    3.4656    7.0129    0.0000 C   0  0  0  0  0  0  0  0  0  0  0  0
    4.3375    7.5129    0.0000 N   0  0  0  0  0  0  0  0  0  0  0  0
    4.3286    8.5180    0.0000 C   0  0  0  0  0  0  0  0  0  0  0  0
    3.4566    9.0180    0.0000 C   0  0  0  0  0  0  0  0  0  0  0  0
    2.5935    8.5130    0.0000 C   0  0  0  0  0  0  0  0  0  0  0  0
    2.5936    7.5129    0.0000 C   0  0  0  0  0  0  0  0  0  0  0  0
  1  2  2  0  0  0  0
  2  3  1  0  0  0  0
  3  4  1  0  0  0  0
  4  5  1  0  0  0  0
  5  6  1  0  0  0  0
  6 17  1  0  0  0  0
  6  7  1  0  0  0  0
  7  8  1  0  0  0  0
  8  9  1  0  0  0  0
  9 10  1  0  0  0  0
 10 15  2  0  0  0  0
 10 11  1  0  0  0  0
 11 12  2  0  0  0  0
 12 13  1  0  0  0  0
 13 14  2  0  0  0  0
 14 15  1  0  0  0  0
  9 16  1  0  0  0  0
 16 17  1  0  0  0  0
  2 18  1  0  0  0  0
 18 19  1  0  0  0  0
 19 20  1  0  0  0  0
 20 25  2  0  0  0  0
 20 21  1  0  0  0  0
 21 22  2  0  0  0  0
 22 23  1  0  0  0  0
 23 24  2  0  0  0  0
 24 25  1  0  0  0  0
M  END
$$$$
HAR-NEW-972-1
  -OEChem-03222016562D

 21 23  0     1  0  0  0  0  0999 V2000
    7.7975   -2.1009    0.0000 Cl  0  0  0  0  0  0  0  0  0  0  0  0
    7.2962   -1.2356    0.0000 C   0  0  0  0  0  0  0  0  0  0  0  0
    6.2962   -1.2371    0.0000 C   0  0  0  0  0  0  0  0  0  0  0  0
    5.7975   -2.1039    0.0000 O   0  0  0  0  0  0  0  0  0  0  0  0
    5.7948   -0.3718    0.0000 N   0  0  0  0  0  0  0  0  0  0  0  0
    4.7897   -0.3674    0.0000 C   0  0  0  0  0  0  0  0  0  0  0  0
    4.2858    0.5024    0.0000 C   0  0  3  0  0  0  0  0  0  0  0  0
    3.2858    0.5023    0.0000 C   0  0  0  0  0  0  0  0  0  0  0  0
    2.6938    1.3169    0.0000 N   0  0  0  0  0  0  0  0  0  0  0  0
    1.7360    1.0058    0.0000 C   0  0  0  0  0  0  0  0  0  0  0  0
    0.8680    1.5138    0.0000 C   0  0  0  0  0  0  0  0  0  0  0  0
    0.0000    1.0058    0.0000 C   0  0  0  0  0  0  0  0  0  0  0  0
    0.0000    0.0000    0.0000 C   0  0  3  0  0  0  0  0  0  0  0  0
    0.8680   -0.4978    0.0000 C   0  0  0  0  0  0  0  0  0  0  0  0
    1.7360   -0.0012    0.0000 C   0  0  0  0  0  0  0  0  0  0  0  0
    2.6938   -0.3125    0.0000 C   0  0  0  0  0  0  0  0  0  0  0  0
   -0.8653   -0.5013    0.0000 C   0  0  0  0  0  0  0  0  0  0  0  0
   -0.8639   -1.5013    0.0000 N   0  0  0  0  0  0  0  0  0  0  0  0
    4.7870    1.3677    0.0000 C   0  0  0  0  0  0  0  0  0  0  0  0
    5.7870    1.3721    0.0000 C   0  0  0  0  0  0  0  0  0  0  0  0
    6.2910    0.5024    0.0000 C   0  0  0  0  0  0  0  0  0  0  0  0
  1  2  1  0  0  0  0
  2  3  1  0  0  0  0
  3  4  2  0  0  0  0
  3  5  1  0  0  0  0
  5 21  1  0  0  0  0
  5  6  1  0  0  0  0
  6  7  1  0  0  0  0
  7  8  1  0  0  0  0
  8 16  2  0  0  0  0
  8  9  1  0  0  0  0
  9 10  1  0  0  0  0
 10 15  2  0  0  0  0
 10 11  1  0  0  0  0
 11 12  1  0  0  0  0
 12 13  1  0  0  0  0
 13 14  1  0  0  0  0
 14 15  1  0  0  0  0
 15 16  1  0  0  0  0
 13 17  1  0  0  0  0
 17 18  1  0  0  0  0
  7 19  1  0  0  0  0
 19 20  1  0  0  0  0
 20 21  1  0  0  0  0
M  END
$$$$
HAR-NEW-972-2
  -OEChem-03222016562D

 21 23  0     1  0  0  0  0  0999 V2000
    7.7975   -2.1009    0.0000 Cl  0  0  0  0  0  0  0  0  0  0  0  0
    7.2962   -1.2356    0.0000 C   0  0  0  0  0  0  0  0  0  0  0  0
    6.2962   -1.2371    0.0000 C   0  0  0  0  0  0  0  0  0  0  0  0
    5.7975   -2.1039    0.0000 O   0  0  0  0  0  0  0  0  0  0  0  0
    5.7948   -0.3718    0.0000 N   0  0  0  0  0  0  0  0  0  0  0  0
    4.7897   -0.3674    0.0000 C   0  0  0  0  0  0  0  0  0  0  0  0
    4.2858    0.5024    0.0000 C   0  0  3  0  0  0  0  0  0  0  0  0
    3.2858    0.5023    0.0000 C   0  0  0  0  0  0  0  0  0  0  0  0
    2.6938   -0.3125    0.0000 N   0  0  0  0  0  0  0  0  0  0  0  0
    1.7360   -0.0012    0.0000 C   0  0  0  0  0  0  0  0  0  0  0  0
    0.8680   -0.4978    0.0000 C   0  0  0  0  0  0  0  0  0  0  0  0
    0.0000    0.0000    0.0000 C   0  0  0  0  0  0  0  0  0  0  0  0
    0.0000    1.0058    0.0000 C   0  0  3  0  0  0  0  0  0  0  0  0
    0.8680    1.5138    0.0000 C   0  0  0  0  0  0  0  0  0  0  0  0
    1.7360    1.0058    0.0000 C   0  0  0  0  0  0  0  0  0  0  0  0
    2.6938    1.3169    0.0000 S   0  0  0  0  0  0  0  0  0  0  0  0
   -0.8675    1.5032    0.0000 C   0  0  0  0  0  0  0  0  0  0  0  0
   -1.7320    1.0007    0.0000 N   0  0  0  0  0  0  0  0  0  0  0  0
    4.7870    1.3677    0.0000 C   0  0  0  0  0  0  0  0  0  0  0  0
    5.7870    1.3721    0.0000 C   0  0  0  0  0  0  0  0  0  0  0  0
    6.2910    0.5024    0.0000 C   0  0  0  0  0  0  0  0  0  0  0  0
  1  2  1  0  0  0  0
  2  3  1  0  0  0  0
  3  4  2  0  0  0  0
  3  5  1  0  0  0  0
  5 21  1  0  0  0  0
  5  6  1  0  0  0  0
  6  7  1  0  0  0  0
  7  8  1  0  0  0  0
  8 16  1  0  0  0  0
  8  9  2  0  0  0  0
  9 10  1  0  0  0  0
 10 15  2  0  0  0  0
 10 11  1  0  0  0  0
 11 12  1  0  0  0  0
 12 13  1  0  0  0  0
 13 14  1  0  0  0  0
 14 15  1  0  0  0  0
 15 16  1  0  0  0  0
 13 17  1  0  0  0  0
 17 18  1  0  0  0  0
  7 19  1  0  0  0  0
 19 20  1  0  0  0  0
 20 21  1  0  0  0  0
M  END
$$$$
AGN-NEW-953-1
  -OEChem-03222016562D

 22 23  0     0  0  0  0  0  0999 V2000
    0.0000    2.0104    0.0000 N   0  0  0  0  0  0  0  0  0  0  0  0
    0.8675    1.5027    0.0000 C   0  0  0  0  0  0  0  0  0  0  0  0
    2.3856    2.3732    0.0000 F   0  0  0  0  0  0  0  0  0  0  0  0
    0.8675    0.4975    0.0000 C   0  0  0  0  0  0  0  0  0  0  0  0
    1.7328   -0.0038    0.0000 N   0  0  0  0  0  0  0  0  0  0  0  0
    2.5995    0.4950    0.0000 S   0  0  0  0  0  0  0  0  0  0  0  0
    3.4663    0.9937    0.0000 C   0  0  0  0  0  0  0  0  0  0  0  0
    3.4678    1.9937    0.0000 C   0  0  0  0  0  0  0  0  0  0  0  0
    4.3345    2.4925    0.0000 N   0  0  0  0  0  0  0  0  0  0  0  0
    4.3360    3.4925    0.0000 C   0  0  0  0  0  0  0  0  0  0  0  0
    5.2027    3.9912    0.0000 C   0  0  0  0  0  0  0  0  0  0  0  0
    6.1203    3.5821    0.0000 S   0  0  0  0  0  0  0  0  0  0  0  0
    6.7871    4.3279    0.0000 C   0  0  0  0  0  0  0  0  0  0  0  0
    6.2894    5.1953    0.0000 C   0  0  0  0  0  0  0  0  0  0  0  0
    5.3098    4.9871    0.0000 C   0  0  0  0  0  0  0  0  0  0  0  0
    3.4707    3.9937    0.0000 O   0  0  0  0  0  0  0  0  0  0  0  0
    2.1008    1.3617    0.0000 O   0  0  0  0  0  0  0  0  0  0  0  0
    3.0983   -0.3718    0.0000 O   0  0  0  0  0  0  0  0  0  0  0  0
    0.0000    0.0000    0.0000 C   0  0  0  0  0  0  0  0  0  0  0  0
   -0.0000   -1.0000    0.0000 C   0  0  0  0  0  0  0  0  0  0  0  0
   -0.8675    0.4975    0.0000 C   0  0  0  0  0  0  0  0  0  0  0  0
   -0.8675    1.5027    0.0000 C   0  0  0  0  0  0  0  0  0  0  0  0
  1 22  2  0  0  0  0
  1  2  1  0  0  0  0
  2  3  1  0  0  0  0
  2  4  2  0  0  0  0
  4  5  1  0  0  0  0
  5  6  1  0  0  0  0
  6  7  1  0  0  0  0
  7  8  2  0  0  0  0
  8  9  1  0  0  0  0
  9 10  1  0  0  0  0
 10 11  1  0  0  0  0
 11 15  2  0  0  0  0
 11 12  1  0  0  0  0
 12 13  1  0  0  0  0
 13 14  2  0  0  0  0
 14 15  1  0  0  0  0
 10 16  2  0  0  0  0
  6 17  2  0  0  0  0
  6 18  2  0  0  0  0
  4 19  1  0  0  0  0
 19 20  1  0  0  0  0
 19 21  2  0  0  0  0
 21 22  1  0  0  0  0
M  END
$$$$
AGN-NEW-953-2
  -OEChem-03222016562D

 26 28  0     0  0  0  0  0  0999 V2000
   -0.0000    2.0104    0.0000 N   0  0  0  0  0  0  0  0  0  0  0  0
   -0.8675    1.5027    0.0000 C   0  0  0  0  0  0  0  0  0  0  0  0
   -0.8675    0.4975    0.0000 C   0  0  0  0  0  0  0  0  0  0  0  0
    0.0000    0.0000    0.0000 C   0  0  0  0  0  0  0  0  0  0  0  0
    0.0000   -1.0000    0.0000 C   0  0  0  0  0  0  0  0  0  0  0  0
    0.8675    0.4975    0.0000 C   0  0  0  0  0  0  0  0  0  0  0  0
    2.3818   -0.3797    0.0000 N   0  0  0  0  0  0  0  0  0  0  0  0
    3.2485    0.1190    0.0000 S   0  0  0  0  0  0  0  0  0  0  0  0
    2.7498    0.9858    0.0000 O   0  0  0  0  0  0  0  0  0  0  0  0
    3.7473   -0.7477    0.0000 O   0  0  0  0  0  0  0  0  0  0  0  0
    4.1153    0.6178    0.0000 C   0  0  0  0  0  0  0  0  0  0  0  0
    4.1167    1.6178    0.0000 C   0  0  0  0  0  0  0  0  0  0  0  0
    3.2454    2.1191    0.0000 C   0  0  0  0  0  0  0  0  0  0  0  0
    3.2468    3.1191    0.0000 C   0  0  0  0  0  0  0  0  0  0  0  0
    2.3801    3.6178    0.0000 C   0  0  0  0  0  0  0  0  0  0  0  0
    1.4652    3.2099    0.0000 C   0  0  0  0  0  0  0  0  0  0  0  0
    0.7929    3.9522    0.0000 C   0  0  0  0  0  0  0  0  0  0  0  0
    1.2927    4.8184    0.0000 C   0  0  0  0  0  0  0  0  0  0  0  0
    2.2726    4.6167    0.0000 S   0  0  0  0  0  0  0  0  0  0  0  0
    4.1107    3.6229    0.0000 C   0  0  0  0  0  0  0  0  0  0  0  0
    4.1077    4.6229    0.0000 O   0  0  0  0  0  0  0  0  0  0  0  0
    3.2402    5.1204    0.0000 C   0  0  0  0  0  0  0  0  0  0  0  0
    4.9820    3.1216    0.0000 C   0  0  0  0  0  0  0  0  0  0  0  0
    4.9894    2.1165    0.0000 N   0  0  0  0  0  0  0  0  0  0  0  0
    0.8675    1.5027    0.0000 C   0  0  0  0  0  0  0  0  0  0  0  0
    1.7350    2.0001    0.0000 F   0  0  0  0  0  0  0  0  0  0  0  0
  1 25  2  0  0  0  0
  1  2  1  0  0  0  0
  2  3  2  0  0  0  0
  3  4  1  0  0  0  0
  4  5  1  0  0  0  0
  4  6  2  0  0  0  0
  6  7  1  0  0  0  0
  7  8  1  0  0  0  0
  8  9  2  0  0  0  0
  8 10  2  0  0  0  0
  8 11  1  0  0  0  0
 11 12  1  0  0  0  0
 12 24  2  0  0  0  0
 12 13  1  0  0  0  0
 13 14  2  0  0  0  0
 14 15  1  0  0  0  0
 15 19  1  0  0  0  0
 15 16  2  0  0  0  0
 16 17  1  0  0  0  0
 17 18  2  0  0  0  0
 18 19  1  0  0  0  0
 14 20  1  0  0  0  0
 20 21  1  0  0  0  0
 21 22  1  0  0  0  0
 20 23  2  0  0  0  0
 23 24  1  0  0  0  0
  6 25  1  0  0  0  0
 25 26  1  0  0  0  0
M  END
$$$$
AGN-NEW-953-3
  -OEChem-03222016562D

 20 20  0     0  0  0  0  0  0999 V2000
   -0.0000    2.0104    0.0000 N   0  0  0  0  0  0  0  0  0  0  0  0
   -0.8675    1.5027    0.0000 C   0  0  0  0  0  0  0  0  0  0  0  0
   -0.8675    0.4975    0.0000 C   0  0  0  0  0  0  0  0  0  0  0  0
    0.0000    0.0000    0.0000 C   0  0  0  0  0  0  0  0  0  0  0  0
    0.0000   -1.0000    0.0000 C   0  0  0  0  0  0  0  0  0  0  0  0
    0.8675    0.4975    0.0000 C   0  0  0  0  0  0  0  0  0  0  0  0
    2.3818   -0.3797    0.0000 N   0  0  0  0  0  0  0  0  0  0  0  0
    3.2485    0.1190    0.0000 S   0  0  0  0  0  0  0  0  0  0  0  0
    2.7498    0.9858    0.0000 O   0  0  0  0  0  0  0  0  0  0  0  0
    3.7473   -0.7477    0.0000 O   0  0  0  0  0  0  0  0  0  0  0  0
    4.1153    0.6178    0.0000 C   0  0  0  0  0  0  0  0  0  0  0  0
    4.1167    1.6178    0.0000 C   0  0  0  0  0  0  0  0  0  0  0  0
    4.9835    2.1165    0.0000 N   0  0  0  0  0  0  0  0  0  0  0  0
    4.9849    3.1165    0.0000 C   0  0  0  0  0  0  0  0  0  0  0  0
    4.1196    3.6178    0.0000 O   0  0  0  0  0  0  0  0  0  0  0  0
    5.8517    3.6153    0.0000 C   0  0  0  0  0  0  0  0  0  0  0  0
    5.8531    4.6153    0.0000 C   0  0  0  0  0  0  0  0  0  0  0  0
    6.7170    3.1140    0.0000 C   0  0  0  0  0  0  0  0  0  0  0  0
    0.8675    1.5027    0.0000 C   0  0  0  0  0  0  0  0  0  0  0  0
    1.7350    2.0001    0.0000 F   0  0  0  0  0  0  0  0  0  0  0  0
  1 19  2  0  0  0  0
  1  2  1  0  0  0  0
  2  3  2  0  0  0  0
  3  4  1  0  0  0  0
  4  5  1  0  0  0  0
  4  6  2  0  0  0  0
  6  7  1  0  0  0  0
  7  8  1  0  0  0  0
  8  9  2  0  0  0  0
  8 10  2  0  0  0  0
  8 11  1  0  0  0  0
 11 12  2  0  0  0  0
 12 13  1  0  0  0  0
 13 14  1  0  0  0  0
 14 15  2  0  0  0  0
 14 16  1  0  0  0  0
 16 17  1  0  0  0  0
 16 18  1  0  0  0  0
  6 19  1  0  0  0  0
 19 20  1  0  0  0  0
M  END
$$$$
AGN-NEW-953-4
  -OEChem-03222016562D

 22 23  0     0  0  0  0  0  0999 V2000
    0.0000    2.0104    0.0000 N   0  0  0  0  0  0  0  0  0  0  0  0
    0.8675    1.5027    0.0000 C   0  0  0  0  0  0  0  0  0  0  0  0
    2.3856    2.3732    0.0000 F   0  0  0  0  0  0  0  0  0  0  0  0
    0.8675    0.4975    0.0000 C   0  0  0  0  0  0  0  0  0  0  0  0
    1.7328   -0.0038    0.0000 N   0  0  0  0  0  0  0  0  0  0  0  0
    2.5995    0.4950    0.0000 S   0  0  0  0  0  0  0  0  0  0  0  0
    3.4663    0.9937    0.0000 C   0  0  0  0  0  0  0  0  0  0  0  0
    3.4678    1.9937    0.0000 C   0  0  0  0  0  0  0  0  0  0  0  0
    4.3345    2.4925    0.0000 N   0  0  0  0  0  0  0  0  0  0  0  0
    4.3360    3.4925    0.0000 C   0  0  0  0  0  0  0  0  0  0  0  0
    5.2027    3.9912    0.0000 C   0  0  0  0  0  0  0  0  0  0  0  0
    5.3098    4.9871    0.0000 C   0  0  0  0  0  0  0  0  0  0  0  0
    6.2893    5.1952    0.0000 C   0  0  0  0  0  0  0  0  0  0  0  0
    6.7870    4.3277    0.0000 C   0  0  0  0  0  0  0  0  0  0  0  0
    6.1201    3.5822    0.0000 C   0  0  0  0  0  0  0  0  0  0  0  0
    3.4707    3.9937    0.0000 O   0  0  0  0  0  0  0  0  0  0  0  0
    2.1008    1.3617    0.0000 O   0  0  0  0  0  0  0  0  0  0  0  0
    3.0983   -0.3718    0.0000 O   0  0  0  0  0  0  0  0  0  0  0  0
    0.0000    0.0000    0.0000 C   0  0  0  0  0  0  0  0  0  0  0  0
   -0.0000   -1.0000    0.0000 C   0  0  0  0  0  0  0  0  0  0  0  0
   -0.8675    0.4975    0.0000 C   0  0  0  0  0  0  0  0  0  0  0  0
   -0.8675    1.5027    0.0000 C   0  0  0  0  0  0  0  0  0  0  0  0
  1 22  2  0  0  0  0
  1  2  1  0  0  0  0
  2  3  1  0  0  0  0
  2  4  2  0  0  0  0
  4  5  1  0  0  0  0
  5  6  1  0  0  0  0
  6  7  1  0  0  0  0
  7  8  2  0  0  0  0
  8  9  1  0  0  0  0
  9 10  1  0  0  0  0
 10 11  1  0  0  0  0
 11 15  1  0  0  0  0
 11 12  1  0  0  0  0
 12 13  1  0  0  0  0
 13 14  1  0  0  0  0
 14 15  1  0  0  0  0
 10 16  2  0  0  0  0
  6 17  2  0  0  0  0
  6 18  2  0  0  0  0
  4 19  1  0  0  0  0
 19 20  1  0  0  0  0
 19 21  2  0  0  0  0
 21 22  1  0  0  0  0
M  END
$$$$
AGN-NEW-953-5
  -OEChem-03222016562D

 21 22  0     0  0  0  0  0  0999 V2000
   -0.0000    2.0104    0.0000 N   0  0  0  0  0  0  0  0  0  0  0  0
   -0.8675    1.5027    0.0000 C   0  0  0  0  0  0  0  0  0  0  0  0
   -0.8675    0.4975    0.0000 C   0  0  0  0  0  0  0  0  0  0  0  0
    0.0000    0.0000    0.0000 C   0  0  0  0  0  0  0  0  0  0  0  0
    0.0000   -1.0000    0.0000 C   0  0  0  0  0  0  0  0  0  0  0  0
    0.8675    0.4975    0.0000 C   0  0  0  0  0  0  0  0  0  0  0  0
    1.7328   -0.0038    0.0000 N   0  0  0  0  0  0  0  0  0  0  0  0
    2.5995    0.4950    0.0000 S   0  0  0  0  0  0  0  0  0  0  0  0
    2.1008    1.3617    0.0000 O   0  0  0  0  0  0  0  0  0  0  0  0
    3.0983   -0.3718    0.0000 O   0  0  0  0  0  0  0  0  0  0  0  0
    3.4663    0.9937    0.0000 C   0  0  0  0  0  0  0  0  0  0  0  0
    3.4677    1.9937    0.0000 C   0  0  0  0  0  0  0  0  0  0  0  0
    4.3345    2.4925    0.0000 N   0  0  0  0  0  0  0  0  0  0  0  0
    4.3359    3.4925    0.0000 C   0  0  0  0  0  0  0  0  0  0  0  0
    3.4707    3.9937    0.0000 O   0  0  0  0  0  0  0  0  0  0  0  0
    5.2027    3.9912    0.0000 C   0  0  0  0  0  0  0  0  0  0  0  0
    5.3098    4.9871    0.0000 C   0  0  0  0  0  0  0  0  0  0  0  0
    6.2894    5.1953    0.0000 C   0  0  0  0  0  0  0  0  0  0  0  0
    6.7871    4.3280    0.0000 C   0  0  0  0  0  0  0  0  0  0  0  0
    6.1203    3.5821    0.0000 S   0  0  0  0  0  0  0  0  0  0  0  0
    0.8675    1.5027    0.0000 C   0  0  0  0  0  0  0  0  0  0  0  0
  1 21  2  0  0  0  0
  1  2  1  0  0  0  0
  2  3  2  0  0  0  0
  3  4  1  0  0  0  0
  4  5  1  0  0  0  0
  4  6  2  0  0  0  0
  6  7  1  0  0  0  0
  7  8  1  0  0  0  0
  8  9  2  0  0  0  0
  8 10  2  0  0  0  0
  8 11  1  0  0  0  0
 11 12  2  0  0  0  0
 12 13  1  0  0  0  0
 13 14  1  0  0  0  0
 14 15  2  0  0  0  0
 14 16  1  0  0  0  0
 16 20  1  0  0  0  0
 16 17  2  0  0  0  0
 17 18  1  0  0  0  0
 18 19  2  0  0  0  0
 19 20  1  0  0  0  0
  6 21  1  0  0  0  0
M  END
$$$$
AGN-NEW-953-6
  -OEChem-03222016562D

 26 28  0     0  0  0  0  0  0999 V2000
    0.0000    2.0104    0.0000 N   0  0  0  0  0  0  0  0  0  0  0  0
    0.8675    1.5027    0.0000 C   0  0  0  0  0  0  0  0  0  0  0  0
    1.7350    2.0001    0.0000 F   0  0  0  0  0  0  0  0  0  0  0  0
    0.8675    0.4975    0.0000 C   0  0  0  0  0  0  0  0  0  0  0  0
    2.3818   -0.3797    0.0000 N   0  0  0  0  0  0  0  0  0  0  0  0
    3.2485    0.1190    0.0000 S   0  0  0  0  0  0  0  0  0  0  0  0
    4.1153    0.6178    0.0000 C   0  0  0  0  0  0  0  0  0  0  0  0
    4.1167    1.6178    0.0000 C   0  0  0  0  0  0  0  0  0  0  0  0
    4.9894    2.1165    0.0000 N   0  0  0  0  0  0  0  0  0  0  0  0
    4.9820    3.1216    0.0000 C   0  0  0  0  0  0  0  0  0  0  0  0
    5.8458    3.6255    0.0000 O   0  0  0  0  0  0  0  0  0  0  0  0
    5.8413    4.6255    0.0000 C   0  0  0  0  0  0  0  0  0  0  0  0
    4.1107    3.6229    0.0000 C   0  0  0  0  0  0  0  0  0  0  0  0
    3.2468    3.1191    0.0000 C   0  0  0  0  0  0  0  0  0  0  0  0
    2.3801    3.6178    0.0000 C   0  0  0  0  0  0  0  0  0  0  0  0
    2.2726    4.6167    0.0000 S   0  0  0  0  0  0  0  0  0  0  0  0
    1.2927    4.8184    0.0000 C   0  0  0  0  0  0  0  0  0  0  0  0
    0.7929    3.9522    0.0000 C   0  0  0  0  0  0  0  0  0  0  0  0
    1.4652    3.2099    0.0000 C   0  0  0  0  0  0  0  0  0  0  0  0
    3.2454    2.1191    0.0000 C   0  0  0  0  0  0  0  0  0  0  0  0
    2.7498    0.9858    0.0000 O   0  0  0  0  0  0  0  0  0  0  0  0
    3.7473   -0.7477    0.0000 O   0  0  0  0  0  0  0  0  0  0  0  0
    0.0000    0.0000    0.0000 C   0  0  0  0  0  0  0  0  0  0  0  0
   -0.0000   -1.0000    0.0000 C   0  0  0  0  0  0  0  0  0  0  0  0
   -0.8675    0.4975    0.0000 C   0  0  0  0  0  0  0  0  0  0  0  0
   -0.8675    1.5027    0.0000 C   0  0  0  0  0  0  0  0  0  0  0  0
  1 26  2  0  0  0  0
  1  2  1  0  0  0  0
  2  3  1  0  0  0  0
  2  4  2  0  0  0  0
  4  5  1  0  0  0  0
  5  6  1  0  0  0  0
  6  7  1  0  0  0  0
  7  8  1  0  0  0  0
  8 20  2  0  0  0  0
  8  9  1  0  0  0  0
  9 10  2  0  0  0  0
 10 11  1  0  0  0  0
 11 12  1  0  0  0  0
 10 13  1  0  0  0  0
 13 14  2  0  0  0  0
 14 15  1  0  0  0  0
 15 19  2  0  0  0  0
 15 16  1  0  0  0  0
 16 17  1  0  0  0  0
 17 18  2  0  0  0  0
 18 19  1  0  0  0  0
 14 20  1  0  0  0  0
  6 21  2  0  0  0  0
  6 22  2  0  0  0  0
  4 23  1  0  0  0  0
 23 24  1  0  0  0  0
 23 25  2  0  0  0  0
 25 26  1  0  0  0  0
M  END
$$$$
AGN-NEW-931-1
  -OEChem-03222016562D

 22 23  0     0  0  0  0  0  0999 V2000
    0.0000    2.0104    0.0000 N   0  0  0  0  0  0  0  0  0  0  0  0
    0.8675    1.5027    0.0000 C   0  0  0  0  0  0  0  0  0  0  0  0
    2.3856    2.3732    0.0000 F   0  0  0  0  0  0  0  0  0  0  0  0
    0.8675    0.4975    0.0000 C   0  0  0  0  0  0  0  0  0  0  0  0
    1.7328   -0.0038    0.0000 N   0  0  0  0  0  0  0  0  0  0  0  0
    2.5995    0.4950    0.0000 S   0  0  0  0  0  0  0  0  0  0  0  0
    3.4663    0.9937    0.0000 C   0  0  0  0  0  0  0  0  0  0  0  0
    3.4678    1.9937    0.0000 C   0  0  0  0  0  0  0  0  0  0  0  0
    4.3345    2.4925    0.0000 N   0  0  0  0  0  0  0  0  0  0  0  0
    4.3360    3.4925    0.0000 C   0  0  0  0  0  0  0  0  0  0  0  0
    5.2027    3.9912    0.0000 C   0  0  0  0  0  0  0  0  0  0  0  0
    6.1203    3.5821    0.0000 S   0  0  0  0  0  0  0  0  0  0  0  0
    6.7871    4.3279    0.0000 C   0  0  0  0  0  0  0  0  0  0  0  0
    6.2894    5.1953    0.0000 C   0  0  0  0  0  0  0  0  0  0  0  0
    5.3098    4.9871    0.0000 C   0  0  0  0  0  0  0  0  0  0  0  0
    3.4707    3.9937    0.0000 O   0  0  0  0  0  0  0  0  0  0  0  0
    2.1008    1.3617    0.0000 O   0  0  0  0  0  0  0  0  0  0  0  0
    3.0983   -0.3718    0.0000 O   0  0  0  0  0  0  0  0  0  0  0  0
    0.0000    0.0000    0.0000 C   0  0  0  0  0  0  0  0  0  0  0  0
   -0.0000   -1.0000    0.0000 C   0  0  0  0  0  0  0  0  0  0  0  0
   -0.8675    0.4975    0.0000 C   0  0  0  0  0  0  0  0  0  0  0  0
   -0.8675    1.5027    0.0000 C   0  0  0  0  0  0  0  0  0  0  0  0
  1 22  2  0  0  0  0
  1  2  1  0  0  0  0
  2  3  1  0  0  0  0
  2  4  2  0  0  0  0
  4  5  1  0  0  0  0
  5  6  1  0  0  0  0
  6  7  1  0  0  0  0
  7  8  2  0  0  0  0
  8  9  1  0  0  0  0
  9 10  1  0  0  0  0
 10 11  1  0  0  0  0
 11 15  2  0  0  0  0
 11 12  1  0  0  0  0
 12 13  1  0  0  0  0
 13 14  2  0  0  0  0
 14 15  1  0  0  0  0
 10 16  2  0  0  0  0
  6 17  2  0  0  0  0
  6 18  2  0  0  0  0
  4 19  1  0  0  0  0
 19 20  1  0  0  0  0
 19 21  2  0  0  0  0
 21 22  1  0  0  0  0
M  END
$$$$
AGN-NEW-931-2
  -OEChem-03222016562D

 26 28  0     0  0  0  0  0  0999 V2000
   -0.0000    2.0104    0.0000 N   0  0  0  0  0  0  0  0  0  0  0  0
   -0.8675    1.5027    0.0000 C   0  0  0  0  0  0  0  0  0  0  0  0
   -0.8675    0.4975    0.0000 C   0  0  0  0  0  0  0  0  0  0  0  0
    0.0000    0.0000    0.0000 C   0  0  0  0  0  0  0  0  0  0  0  0
    0.0000   -1.0000    0.0000 C   0  0  0  0  0  0  0  0  0  0  0  0
    0.8675    0.4975    0.0000 C   0  0  0  0  0  0  0  0  0  0  0  0
    2.3818   -0.3797    0.0000 N   0  0  0  0  0  0  0  0  0  0  0  0
    3.2485    0.1190    0.0000 S   0  0  0  0  0  0  0  0  0  0  0  0
    2.7498    0.9858    0.0000 O   0  0  0  0  0  0  0  0  0  0  0  0
    3.7473   -0.7477    0.0000 O   0  0  0  0  0  0  0  0  0  0  0  0
    4.1153    0.6178    0.0000 C   0  0  0  0  0  0  0  0  0  0  0  0
    4.1167    1.6178    0.0000 C   0  0  0  0  0  0  0  0  0  0  0  0
    3.2454    2.1191    0.0000 C   0  0  0  0  0  0  0  0  0  0  0  0
    3.2468    3.1191    0.0000 C   0  0  0  0  0  0  0  0  0  0  0  0
    2.3801    3.6178    0.0000 C   0  0  0  0  0  0  0  0  0  0  0  0
    1.4652    3.2099    0.0000 C   0  0  0  0  0  0  0  0  0  0  0  0
    0.7929    3.9522    0.0000 C   0  0  0  0  0  0  0  0  0  0  0  0
    1.2927    4.8184    0.0000 C   0  0  0  0  0  0  0  0  0  0  0  0
    2.2726    4.6167    0.0000 S   0  0  0  0  0  0  0  0  0  0  0  0
    4.1107    3.6229    0.0000 C   0  0  0  0  0  0  0  0  0  0  0  0
    4.1077    4.6229    0.0000 O   0  0  0  0  0  0  0  0  0  0  0  0
    3.2402    5.1204    0.0000 C   0  0  0  0  0  0  0  0  0  0  0  0
    4.9820    3.1216    0.0000 C   0  0  0  0  0  0  0  0  0  0  0  0
    4.9894    2.1165    0.0000 N   0  0  0  0  0  0  0  0  0  0  0  0
    0.8675    1.5027    0.0000 C   0  0  0  0  0  0  0  0  0  0  0  0
    1.7350    2.0001    0.0000 F   0  0  0  0  0  0  0  0  0  0  0  0
  1 25  2  0  0  0  0
  1  2  1  0  0  0  0
  2  3  2  0  0  0  0
  3  4  1  0  0  0  0
  4  5  1  0  0  0  0
  4  6  2  0  0  0  0
  6  7  1  0  0  0  0
  7  8  1  0  0  0  0
  8  9  2  0  0  0  0
  8 10  2  0  0  0  0
  8 11  1  0  0  0  0
 11 12  1  0  0  0  0
 12 24  2  0  0  0  0
 12 13  1  0  0  0  0
 13 14  2  0  0  0  0
 14 15  1  0  0  0  0
 15 19  1  0  0  0  0
 15 16  2  0  0  0  0
 16 17  1  0  0  0  0
 17 18  2  0  0  0  0
 18 19  1  0  0  0  0
 14 20  1  0  0  0  0
 20 21  1  0  0  0  0
 21 22  1  0  0  0  0
 20 23  2  0  0  0  0
 23 24  1  0  0  0  0
  6 25  1  0  0  0  0
 25 26  1  0  0  0  0
M  END
$$$$
AGN-NEW-931-3
  -OEChem-03222016562D

 20 20  0     0  0  0  0  0  0999 V2000
   -0.0000    2.0104    0.0000 N   0  0  0  0  0  0  0  0  0  0  0  0
   -0.8675    1.5027    0.0000 C   0  0  0  0  0  0  0  0  0  0  0  0
   -0.8675    0.4975    0.0000 C   0  0  0  0  0  0  0  0  0  0  0  0
    0.0000    0.0000    0.0000 C   0  0  0  0  0  0  0  0  0  0  0  0
    0.0000   -1.0000    0.0000 C   0  0  0  0  0  0  0  0  0  0  0  0
    0.8675    0.4975    0.0000 C   0  0  0  0  0  0  0  0  0  0  0  0
    2.3818   -0.3797    0.0000 N   0  0  0  0  0  0  0  0  0  0  0  0
    3.2485    0.1190    0.0000 S   0  0  0  0  0  0  0  0  0  0  0  0
    2.7498    0.9858    0.0000 O   0  0  0  0  0  0  0  0  0  0  0  0
    3.7473   -0.7477    0.0000 O   0  0  0  0  0  0  0  0  0  0  0  0
    4.1153    0.6178    0.0000 C   0  0  0  0  0  0  0  0  0  0  0  0
    4.1167    1.6178    0.0000 C   0  0  0  0  0  0  0  0  0  0  0  0
    4.9835    2.1165    0.0000 N   0  0  0  0  0  0  0  0  0  0  0  0
    4.9849    3.1165    0.0000 C   0  0  0  0  0  0  0  0  0  0  0  0
    4.1196    3.6178    0.0000 O   0  0  0  0  0  0  0  0  0  0  0  0
    5.8517    3.6153    0.0000 C   0  0  0  0  0  0  0  0  0  0  0  0
    5.8531    4.6153    0.0000 C   0  0  0  0  0  0  0  0  0  0  0  0
    6.7170    3.1140    0.0000 C   0  0  0  0  0  0  0  0  0  0  0  0
    0.8675    1.5027    0.0000 C   0  0  0  0  0  0  0  0  0  0  0  0
    1.7350    2.0001    0.0000 F   0  0  0  0  0  0  0  0  0  0  0  0
  1 19  2  0  0  0  0
  1  2  1  0  0  0  0
  2  3  2  0  0  0  0
  3  4  1  0  0  0  0
  4  5  1  0  0  0  0
  4  6  2  0  0  0  0
  6  7  1  0  0  0  0
  7  8  1  0  0  0  0
  8  9  2  0  0  0  0
  8 10  2  0  0  0  0
  8 11  1  0  0  0  0
 11 12  2  0  0  0  0
 12 13  1  0  0  0  0
 13 14  1  0  0  0  0
 14 15  2  0  0  0  0
 14 16  1  0  0  0  0
 16 17  1  0  0  0  0
 16 18  1  0  0  0  0
  6 19  1  0  0  0  0
 19 20  1  0  0  0  0
M  END
$$$$
AGN-NEW-931-4
  -OEChem-03222016562D

 22 23  0     0  0  0  0  0  0999 V2000
    0.0000    2.0104    0.0000 N   0  0  0  0  0  0  0  0  0  0  0  0
    0.8675    1.5027    0.0000 C   0  0  0  0  0  0  0  0  0  0  0  0
    2.3856    2.3732    0.0000 F   0  0  0  0  0  0  0  0  0  0  0  0
    0.8675    0.4975    0.0000 C   0  0  0  0  0  0  0  0  0  0  0  0
    1.7328   -0.0038    0.0000 N   0  0  0  0  0  0  0  0  0  0  0  0
    2.5995    0.4950    0.0000 S   0  0  0  0  0  0  0  0  0  0  0  0
    3.4663    0.9937    0.0000 C   0  0  0  0  0  0  0  0  0  0  0  0
    3.4678    1.9937    0.0000 C   0  0  0  0  0  0  0  0  0  0  0  0
    4.3345    2.4925    0.0000 N   0  0  0  0  0  0  0  0  0  0  0  0
    4.3360    3.4925    0.0000 C   0  0  0  0  0  0  0  0  0  0  0  0
    5.2027    3.9912    0.0000 C   0  0  0  0  0  0  0  0  0  0  0  0
    5.3098    4.9871    0.0000 C   0  0  0  0  0  0  0  0  0  0  0  0
    6.2893    5.1952    0.0000 C   0  0  0  0  0  0  0  0  0  0  0  0
    6.7870    4.3277    0.0000 C   0  0  0  0  0  0  0  0  0  0  0  0
    6.1201    3.5822    0.0000 C   0  0  0  0  0  0  0  0  0  0  0  0
    3.4707    3.9937    0.0000 O   0  0  0  0  0  0  0  0  0  0  0  0
    2.1008    1.3617    0.0000 O   0  0  0  0  0  0  0  0  0  0  0  0
    3.0983   -0.3718    0.0000 O   0  0  0  0  0  0  0  0  0  0  0  0
    0.0000    0.0000    0.0000 C   0  0  0  0  0  0  0  0  0  0  0  0
   -0.0000   -1.0000    0.0000 C   0  0  0  0  0  0  0  0  0  0  0  0
   -0.8675    0.4975    0.0000 C   0  0  0  0  0  0  0  0  0  0  0  0
   -0.8675    1.5027    0.0000 C   0  0  0  0  0  0  0  0  0  0  0  0
  1 22  2  0  0  0  0
  1  2  1  0  0  0  0
  2  3  1  0  0  0  0
  2  4  2  0  0  0  0
  4  5  1  0  0  0  0
  5  6  1  0  0  0  0
  6  7  1  0  0  0  0
  7  8  2  0  0  0  0
  8  9  1  0  0  0  0
  9 10  1  0  0  0  0
 10 11  1  0  0  0  0
 11 15  1  0  0  0  0
 11 12  1  0  0  0  0
 12 13  1  0  0  0  0
 13 14  1  0  0  0  0
 14 15  1  0  0  0  0
 10 16  2  0  0  0  0
  6 17  2  0  0  0  0
  6 18  2  0  0  0  0
  4 19  1  0  0  0  0
 19 20  1  0  0  0  0
 19 21  2  0  0  0  0
 21 22  1  0  0  0  0
M  END
$$$$
AGN-NEW-931-5
  -OEChem-03222016562D

 21 22  0     0  0  0  0  0  0999 V2000
   -0.0000    2.0104    0.0000 N   0  0  0  0  0  0  0  0  0  0  0  0
   -0.8675    1.5027    0.0000 C   0  0  0  0  0  0  0  0  0  0  0  0
   -0.8675    0.4975    0.0000 C   0  0  0  0  0  0  0  0  0  0  0  0
    0.0000    0.0000    0.0000 C   0  0  0  0  0  0  0  0  0  0  0  0
    0.0000   -1.0000    0.0000 C   0  0  0  0  0  0  0  0  0  0  0  0
    0.8675    0.4975    0.0000 C   0  0  0  0  0  0  0  0  0  0  0  0
    1.7328   -0.0038    0.0000 N   0  0  0  0  0  0  0  0  0  0  0  0
    2.5995    0.4950    0.0000 S   0  0  0  0  0  0  0  0  0  0  0  0
    2.1008    1.3617    0.0000 O   0  0  0  0  0  0  0  0  0  0  0  0
    3.0983   -0.3718    0.0000 O   0  0  0  0  0  0  0  0  0  0  0  0
    3.4663    0.9937    0.0000 C   0  0  0  0  0  0  0  0  0  0  0  0
    3.4677    1.9937    0.0000 C   0  0  0  0  0  0  0  0  0  0  0  0
    4.3345    2.4925    0.0000 N   0  0  0  0  0  0  0  0  0  0  0  0
    4.3359    3.4925    0.0000 C   0  0  0  0  0  0  0  0  0  0  0  0
    3.4707    3.9937    0.0000 O   0  0  0  0  0  0  0  0  0  0  0  0
    5.2027    3.9912    0.0000 C   0  0  0  0  0  0  0  0  0  0  0  0
    5.3098    4.9871    0.0000 C   0  0  0  0  0  0  0  0  0  0  0  0
    6.2894    5.1953    0.0000 C   0  0  0  0  0  0  0  0  0  0  0  0
    6.7871    4.3280    0.0000 C   0  0  0  0  0  0  0  0  0  0  0  0
    6.1203    3.5821    0.0000 S   0  0  0  0  0  0  0  0  0  0  0  0
    0.8675    1.5027    0.0000 C   0  0  0  0  0  0  0  0  0  0  0  0
  1 21  2  0  0  0  0
  1  2  1  0  0  0  0
  2  3  2  0  0  0  0
  3  4  1  0  0  0  0
  4  5  1  0  0  0  0
  4  6  2  0  0  0  0
  6  7  1  0  0  0  0
  7  8  1  0  0  0  0
  8  9  2  0  0  0  0
  8 10  2  0  0  0  0
  8 11  1  0  0  0  0
 11 12  2  0  0  0  0
 12 13  1  0  0  0  0
 13 14  1  0  0  0  0
 14 15  2  0  0  0  0
 14 16  1  0  0  0  0
 16 20  1  0  0  0  0
 16 17  2  0  0  0  0
 17 18  1  0  0  0  0
 18 19  2  0  0  0  0
 19 20  1  0  0  0  0
  6 21  1  0  0  0  0
M  END
$$$$
AGN-NEW-931-6
  -OEChem-03222016562D

 26 28  0     0  0  0  0  0  0999 V2000
    0.0000    2.0104    0.0000 N   0  0  0  0  0  0  0  0  0  0  0  0
    0.8675    1.5027    0.0000 C   0  0  0  0  0  0  0  0  0  0  0  0
    1.7350    2.0001    0.0000 F   0  0  0  0  0  0  0  0  0  0  0  0
    0.8675    0.4975    0.0000 C   0  0  0  0  0  0  0  0  0  0  0  0
    2.3818   -0.3797    0.0000 N   0  0  0  0  0  0  0  0  0  0  0  0
    3.2485    0.1190    0.0000 S   0  0  0  0  0  0  0  0  0  0  0  0
    4.1153    0.6178    0.0000 C   0  0  0  0  0  0  0  0  0  0  0  0
    4.1167    1.6178    0.0000 C   0  0  0  0  0  0  0  0  0  0  0  0
    4.9894    2.1165    0.0000 N   0  0  0  0  0  0  0  0  0  0  0  0
    4.9820    3.1216    0.0000 C   0  0  0  0  0  0  0  0  0  0  0  0
    5.8458    3.6255    0.0000 O   0  0  0  0  0  0  0  0  0  0  0  0
    5.8413    4.6255    0.0000 C   0  0  0  0  0  0  0  0  0  0  0  0
    4.1107    3.6229    0.0000 C   0  0  0  0  0  0  0  0  0  0  0  0
    3.2468    3.1191    0.0000 C   0  0  0  0  0  0  0  0  0  0  0  0
    2.3801    3.6178    0.0000 C   0  0  0  0  0  0  0  0  0  0  0  0
    2.2726    4.6167    0.0000 S   0  0  0  0  0  0  0  0  0  0  0  0
    1.2927    4.8184    0.0000 C   0  0  0  0  0  0  0  0  0  0  0  0
    0.7929    3.9522    0.0000 C   0  0  0  0  0  0  0  0  0  0  0  0
    1.4652    3.2099    0.0000 C   0  0  0  0  0  0  0  0  0  0  0  0
    3.2454    2.1191    0.0000 C   0  0  0  0  0  0  0  0  0  0  0  0
    2.7498    0.9858    0.0000 O   0  0  0  0  0  0  0  0  0  0  0  0
    3.7473   -0.7477    0.0000 O   0  0  0  0  0  0  0  0  0  0  0  0
    0.0000    0.0000    0.0000 C   0  0  0  0  0  0  0  0  0  0  0  0
   -0.0000   -1.0000    0.0000 C   0  0  0  0  0  0  0  0  0  0  0  0
   -0.8675    0.4975    0.0000 C   0  0  0  0  0  0  0  0  0  0  0  0
   -0.8675    1.5027    0.0000 C   0  0  0  0  0  0  0  0  0  0  0  0
  1 26  2  0  0  0  0
  1  2  1  0  0  0  0
  2  3  1  0  0  0  0
  2  4  2  0  0  0  0
  4  5  1  0  0  0  0
  5  6  1  0  0  0  0
  6  7  1  0  0  0  0
  7  8  1  0  0  0  0
  8 20  2  0  0  0  0
  8  9  1  0  0  0  0
  9 10  2  0  0  0  0
 10 11  1  0  0  0  0
 11 12  1  0  0  0  0
 10 13  1  0  0  0  0
 13 14  2  0  0  0  0
 14 15  1  0  0  0  0
 15 19  2  0  0  0  0
 15 16  1  0  0  0  0
 16 17  1  0  0  0  0
 17 18  2  0  0  0  0
 18 19  1  0  0  0  0
 14 20  1  0  0  0  0
  6 21  2  0  0  0  0
  6 22  2  0  0  0  0
  4 23  1  0  0  0  0
 23 24  1  0  0  0  0
 23 25  2  0  0  0  0
 25 26  1  0  0  0  0
M  END
$$$$
SAM-UNK-903-1
  -OEChem-03222016562D

 27 29  0     0  0  0  0  0  0999 V2000
    0.8680    1.5138    0.0000 C   0  0  0  0  0  0  0  0  0  0  0  0
    0.0000    1.0058    0.0000 C   0  0  0  0  0  0  0  0  0  0  0  0
    0.0000    0.0000    0.0000 C   0  0  0  0  0  0  0  0  0  0  0  0
    0.8680   -0.4978    0.0000 C   0  0  0  0  0  0  0  0  0  0  0  0
    1.7360   -0.0012    0.0000 C   0  0  0  0  0  0  0  0  0  0  0  0
    1.7360    1.0058    0.0000 C   0  0  0  0  0  0  0  0  0  0  0  0
    2.6938    1.3169    0.0000 N   0  0  0  0  0  0  0  0  0  0  0  0
    3.2858    0.5023    0.0000 C   0  0  0  0  0  0  0  0  0  0  0  0
    2.6938   -0.3125    0.0000 C   0  0  0  0  0  0  0  0  0  0  0  0
    3.0028   -1.2636    0.0000 C   0  0  0  0  0  0  0  0  0  0  0  0
    3.9809   -1.4715    0.0000 C   0  0  0  0  0  0  0  0  0  0  0  0
    4.2899   -2.4226    0.0000 N   0  0  0  0  0  0  0  0  0  0  0  0
    5.2680   -2.6306    0.0000 C   0  0  0  0  0  0  0  0  0  0  0  0
    5.5770   -3.5816    0.0000 C   0  0  0  0  0  0  0  0  0  0  0  0
    5.9372   -1.8874    0.0000 O   0  0  0  0  0  0  0  0  0  0  0  0
    3.7880   -2.9799    0.0000 H   0  0  0  0  0  0  0  0  0  0  0  0
    2.9256    2.0302    0.0000 H   0  0  0  0  0  0  0  0  0  0  0  0
   -0.8653   -0.5013    0.0000 F   0  0  0  0  0  0  0  0  0  0  0  0
    0.8680    2.5138    0.0000 C   0  0  0  0  0  0  0  0  0  0  0  0
    0.0020    3.0138    0.0000 N   0  0  0  0  0  0  0  0  0  0  0  0
   -0.0040    4.0189    0.0000 C   0  0  0  0  0  0  0  0  0  0  0  0
   -0.8745    4.5215    0.0000 C   0  0  0  0  0  0  0  0  0  0  0  0
   -1.7391    4.0190    0.0000 C   0  0  0  0  0  0  0  0  0  0  0  0
   -1.7420    3.0190    0.0000 C   0  0  0  0  0  0  0  0  0  0  0  0
   -0.8715    2.5164    0.0000 C   0  0  0  0  0  0  0  0  0  0  0  0
   -2.6051    4.5190    0.0000 O   0  0  0  0  0  0  0  0  0  0  0  0
   -3.2546    4.1440    0.0000 H   0  0  0  0  0  0  0  0  0  0  0  0
  1  6  1  0  0  0  0
  1  2  2  0  0  0  0
  2  3  1  0  0  0  0
  3  4  2  0  0  0  0
  4  5  1  0  0  0  0
  5  9  1  0  0  0  0
  5  6  2  0  0  0  0
  6  7  1  0  0  0  0
  7  8  1  0  0  0  0
  8  9  2  0  0  0  0
  9 10  1  0  0  0  0
 10 11  1  0  0  0  0
 11 12  1  0  0  0  0
 12 13  1  0  0  0  0
 13 14  1  0  0  0  0
 13 15  2  0  0  0  0
 12 16  1  0  0  0  0
  7 17  1  0  0  0  0
  3 18  1  0  0  0  0
  1 19  1  0  0  0  0
 19 20  1  0  0  0  0
 20 25  1  0  0  0  0
 20 21  1  0  0  0  0
 21 22  1  0  0  0  0
 22 23  1  0  0  0  0
 23 24  1  0  0  0  0
 24 25  1  0  0  0  0
 23 26  1  0  0  0  0
 26 27  1  0  0  0  0
M  END
$$$$
SAM-UNK-903-2
  -OEChem-03222016562D

 26 27  0     0  0  0  0  0  0999 V2000
    0.8680    1.5138    0.0000 C   0  0  0  0  0  0  0  0  0  0  0  0
    0.0000    1.0058    0.0000 C   0  0  0  0  0  0  0  0  0  0  0  0
    0.0000    0.0000    0.0000 C   0  0  0  0  0  0  0  0  0  0  0  0
    0.8680   -0.4978    0.0000 C   0  0  0  0  0  0  0  0  0  0  0  0
    1.7360   -0.0012    0.0000 C   0  0  0  0  0  0  0  0  0  0  0  0
    1.7360    1.0058    0.0000 C   0  0  0  0  0  0  0  0  0  0  0  0
    2.6938    1.3169    0.0000 N   0  0  0  0  0  0  0  0  0  0  0  0
    3.2858    0.5023    0.0000 C   0  0  0  0  0  0  0  0  0  0  0  0
    2.6938   -0.3125    0.0000 C   0  0  0  0  0  0  0  0  0  0  0  0
    3.0028   -1.2636    0.0000 C   0  0  0  0  0  0  0  0  0  0  0  0
    3.9809   -1.4715    0.0000 C   0  0  0  0  0  0  0  0  0  0  0  0
    4.2899   -2.4226    0.0000 N   0  0  0  0  0  0  0  0  0  0  0  0
    5.2680   -2.6306    0.0000 C   0  0  0  0  0  0  0  0  0  0  0  0
    5.5770   -3.5816    0.0000 C   0  0  0  0  0  0  0  0  0  0  0  0
    5.9372   -1.8874    0.0000 O   0  0  0  0  0  0  0  0  0  0  0  0
    3.7880   -2.9799    0.0000 H   0  0  0  0  0  0  0  0  0  0  0  0
    2.9256    2.0302    0.0000 H   0  0  0  0  0  0  0  0  0  0  0  0
   -0.8653   -0.5013    0.0000 F   0  0  0  0  0  0  0  0  0  0  0  0
    0.8680    2.5138    0.0000 C   0  0  0  0  0  0  0  0  0  0  0  0
    0.0020    3.0138    0.0000 C   0  0  0  0  0  0  0  0  0  0  0  0
    0.0020    4.0138    0.0000 N   0  0  0  0  0  0  0  0  0  0  0  0
   -0.8641    4.5138    0.0000 S   0  0  0  0  0  0  0  0  0  0  0  0
   -1.3641    3.6478    0.0000 O   0  0  0  0  0  0  0  0  0  0  0  0
   -0.3640    5.3798    0.0000 O   0  0  0  0  0  0  0  0  0  0  0  0
   -1.7301    5.0138    0.0000 C   0  0  0  0  0  0  0  0  0  0  0  0
    0.6515    4.3888    0.0000 H   0  0  0  0  0  0  0  0  0  0  0  0
  1  6  1  0  0  0  0
  1  2  2  0  0  0  0
  2  3  1  0  0  0  0
  3  4  2  0  0  0  0
  4  5  1  0  0  0  0
  5  9  1  0  0  0  0
  5  6  2  0  0  0  0
  6  7  1  0  0  0  0
  7  8  1  0  0  0  0
  8  9  2  0  0  0  0
  9 10  1  0  0  0  0
 10 11  1  0  0  0  0
 11 12  1  0  0  0  0
 12 13  1  0  0  0  0
 13 14  1  0  0  0  0
 13 15  2  0  0  0  0
 12 16  1  0  0  0  0
  7 17  1  0  0  0  0
  3 18  1  0  0  0  0
  1 19  1  0  0  0  0
 19 20  1  0  0  0  0
 20 21  1  0  0  0  0
 21 22  1  0  0  0  0
 22 23  2  0  0  0  0
 22 24  2  0  0  0  0
 22 25  1  0  0  0  0
 21 26  1  0  0  0  0
M  END
$$$$
AGN-NEW-891-1
  -OEChem-03222016562D

 19 20  0     0  0  0  0  0  0999 V2000
   -0.0021   -4.0166    0.0000 C   0  0  0  0  0  0  0  0  0  0  0  0
    0.8662   -4.5127    0.0000 O   0  0  0  0  0  0  0  0  0  0  0  0
    1.7300   -4.0089    0.0000 C   0  0  0  0  0  0  0  0  0  0  0  0
    2.6012   -4.5102    0.0000 C   0  0  0  0  0  0  0  0  0  0  0  0
    3.4651   -4.0063    0.0000 C   0  0  0  0  0  0  0  0  0  0  0  0
    4.3319   -4.5050    0.0000 Cl  0  0  0  0  0  0  0  0  0  0  0  0
    3.4665   -3.0063    0.0000 C   0  0  0  0  0  0  0  0  0  0  0  0
    2.5952   -2.5050    0.0000 C   0  0  0  0  0  0  0  0  0  0  0  0
    2.5966   -1.5050    0.0000 O   0  0  0  0  0  0  0  0  0  0  0  0
    1.7313   -1.0038    0.0000 C   0  0  0  0  0  0  0  0  0  0  0  0
    1.7328   -0.0038    0.0000 N   0  0  0  0  0  0  0  0  0  0  0  0
    0.8675    0.4975    0.0000 C   0  0  0  0  0  0  0  0  0  0  0  0
    0.8675    1.5027    0.0000 C   0  0  0  0  0  0  0  0  0  0  0  0
   -0.0000    2.0104    0.0000 N   0  0  0  0  0  0  0  0  0  0  0  0
   -0.8675    1.5027    0.0000 C   0  0  0  0  0  0  0  0  0  0  0  0
   -0.8675    0.4975    0.0000 C   0  0  0  0  0  0  0  0  0  0  0  0
    0.0000    0.0000    0.0000 C   0  0  0  0  0  0  0  0  0  0  0  0
    0.8646   -1.5025    0.0000 O   0  0  0  0  0  0  0  0  0  0  0  0
    1.7225   -3.0037    0.0000 C   0  0  0  0  0  0  0  0  0  0  0  0
  1  2  1  0  0  0  0
  2  3  1  0  0  0  0
  3 19  2  0  0  0  0
  3  4  1  0  0  0  0
  4  5  2  0  0  0  0
  5  6  1  0  0  0  0
  5  7  1  0  0  0  0
  7  8  2  0  0  0  0
  8  9  1  0  0  0  0
  9 10  1  0  0  0  0
 10 11  1  0  0  0  0
 11 12  1  0  0  0  0
 12 17  2  0  0  0  0
 12 13  1  0  0  0  0
 13 14  2  0  0  0  0
 14 15  1  0  0  0  0
 15 16  2  0  0  0  0
 16 17  1  0  0  0  0
 10 18  2  0  0  0  0
  8 19  1  0  0  0  0
M  END
$$$$
AGN-NEW-891-2
  -OEChem-03222016562D

 18 19  0     0  0  0  0  0  0999 V2000
    0.8662   -4.5127    0.0000 O   0  0  0  0  0  0  0  0  0  0  0  0
    1.7300   -4.0089    0.0000 C   0  0  0  0  0  0  0  0  0  0  0  0
    2.6012   -4.5102    0.0000 C   0  0  0  0  0  0  0  0  0  0  0  0
    3.4651   -4.0063    0.0000 C   0  0  0  0  0  0  0  0  0  0  0  0
    4.3319   -4.5050    0.0000 Cl  0  0  0  0  0  0  0  0  0  0  0  0
    3.4665   -3.0063    0.0000 C   0  0  0  0  0  0  0  0  0  0  0  0
    2.5952   -2.5050    0.0000 C   0  0  0  0  0  0  0  0  0  0  0  0
    2.5966   -1.5050    0.0000 O   0  0  0  0  0  0  0  0  0  0  0  0
    1.7313   -1.0038    0.0000 C   0  0  0  0  0  0  0  0  0  0  0  0
    1.7328   -0.0038    0.0000 N   0  0  0  0  0  0  0  0  0  0  0  0
    0.8675    0.4975    0.0000 C   0  0  0  0  0  0  0  0  0  0  0  0
    0.8675    1.5027    0.0000 C   0  0  0  0  0  0  0  0  0  0  0  0
   -0.0000    2.0104    0.0000 N   0  0  0  0  0  0  0  0  0  0  0  0
   -0.8675    1.5027    0.0000 C   0  0  0  0  0  0  0  0  0  0  0  0
   -0.8675    0.4975    0.0000 C   0  0  0  0  0  0  0  0  0  0  0  0
    0.0000    0.0000    0.0000 C   0  0  0  0  0  0  0  0  0  0  0  0
    0.8646   -1.5025    0.0000 O   0  0  0  0  0  0  0  0  0  0  0  0
    1.7225   -3.0037    0.0000 C   0  0  0  0  0  0  0  0  0  0  0  0
  1  2  1  0  0  0  0
  2 18  2  0  0  0  0
  2  3  1  0  0  0  0
  3  4  2  0  0  0  0
  4  5  1  0  0  0  0
  4  6  1  0  0  0  0
  6  7  2  0  0  0  0
  7  8  1  0  0  0  0
  8  9  1  0  0  0  0
  9 10  1  0  0  0  0
 10 11  1  0  0  0  0
 11 16  2  0  0  0  0
 11 12  1  0  0  0  0
 12 13  2  0  0  0  0
 13 14  1  0  0  0  0
 14 15  2  0  0  0  0
 15 16  1  0  0  0  0
  9 17  2  0  0  0  0
  7 18  1  0  0  0  0
M  END
$$$$
AGN-NEW-891-3
  -OEChem-03222016562D

 19 20  0     0  0  0  0  0  0999 V2000
   -1.7401   -2.0090    0.0000 O   0  0  0  0  0  0  0  0  0  0  0  0
   -0.8718   -2.5051    0.0000 C   0  0  0  0  0  0  0  0  0  0  0  0
   -0.8703   -3.5103    0.0000 C   0  0  0  0  0  0  0  0  0  0  0  0
   -0.0021   -4.0065    0.0000 C   0  0  0  0  0  0  0  0  0  0  0  0
   -0.0006   -5.0065    0.0000 Cl  0  0  0  0  0  0  0  0  0  0  0  0
    0.8647   -3.5077    0.0000 C   0  0  0  0  0  0  0  0  0  0  0  0
    0.8631   -2.5025    0.0000 C   0  0  0  0  0  0  0  0  0  0  0  0
    1.7299   -2.0038    0.0000 C   0  0  0  0  0  0  0  0  0  0  0  0
    1.7313   -1.0038    0.0000 S   0  0  0  0  0  0  0  0  0  0  0  0
    1.7328   -0.0038    0.0000 N   0  0  0  0  0  0  0  0  0  0  0  0
    0.8675    0.4975    0.0000 C   0  0  0  0  0  0  0  0  0  0  0  0
    0.8675    1.5027    0.0000 C   0  0  0  0  0  0  0  0  0  0  0  0
   -0.0000    2.0104    0.0000 N   0  0  0  0  0  0  0  0  0  0  0  0
   -0.8675    1.5027    0.0000 C   0  0  0  0  0  0  0  0  0  0  0  0
   -0.8675    0.4975    0.0000 C   0  0  0  0  0  0  0  0  0  0  0  0
    0.0000    0.0000    0.0000 C   0  0  0  0  0  0  0  0  0  0  0  0
    0.7314   -1.0023    0.0000 O   0  0  0  0  0  0  0  0  0  0  0  0
    2.7313   -1.0052    0.0000 O   0  0  0  0  0  0  0  0  0  0  0  0
   -0.0051   -1.9961    0.0000 C   0  0  0  0  0  0  0  0  0  0  0  0
  1  2  1  0  0  0  0
  2 19  2  0  0  0  0
  2  3  1  0  0  0  0
  3  4  2  0  0  0  0
  4  5  1  0  0  0  0
  4  6  1  0  0  0  0
  6  7  2  0  0  0  0
  7  8  1  0  0  0  0
  8  9  1  0  0  0  0
  9 10  1  0  0  0  0
 10 11  1  0  0  0  0
 11 16  2  0  0  0  0
 11 12  1  0  0  0  0
 12 13  2  0  0  0  0
 13 14  1  0  0  0  0
 14 15  2  0  0  0  0
 15 16  1  0  0  0  0
  9 17  2  0  0  0  0
  9 18  2  0  0  0  0
  7 19  1  0  0  0  0
M  END
$$$$
AGN-NEW-891-4
  -OEChem-03222016562D

 20 21  0     0  0  0  0  0  0999 V2000
   -1.7445   -1.0090    0.0000 C   0  0  0  0  0  0  0  0  0  0  0  0
   -1.7401   -2.0090    0.0000 O   0  0  0  0  0  0  0  0  0  0  0  0
   -0.8718   -2.5051    0.0000 C   0  0  0  0  0  0  0  0  0  0  0  0
   -0.8703   -3.5103    0.0000 C   0  0  0  0  0  0  0  0  0  0  0  0
   -0.0021   -4.0065    0.0000 C   0  0  0  0  0  0  0  0  0  0  0  0
   -0.0006   -5.0065    0.0000 Cl  0  0  0  0  0  0  0  0  0  0  0  0
    0.8647   -3.5077    0.0000 C   0  0  0  0  0  0  0  0  0  0  0  0
    0.8631   -2.5025    0.0000 C   0  0  0  0  0  0  0  0  0  0  0  0
    1.7299   -2.0038    0.0000 C   0  0  0  0  0  0  0  0  0  0  0  0
    1.7313   -1.0038    0.0000 S   0  0  0  0  0  0  0  0  0  0  0  0
    1.7328   -0.0038    0.0000 N   0  0  0  0  0  0  0  0  0  0  0  0
    0.8675    0.4975    0.0000 C   0  0  0  0  0  0  0  0  0  0  0  0
    0.8675    1.5027    0.0000 C   0  0  0  0  0  0  0  0  0  0  0  0
   -0.0000    2.0104    0.0000 N   0  0  0  0  0  0  0  0  0  0  0  0
   -0.8675    1.5027    0.0000 C   0  0  0  0  0  0  0  0  0  0  0  0
   -0.8675    0.4975    0.0000 C   0  0  0  0  0  0  0  0  0  0  0  0
    0.0000    0.0000    0.0000 C   0  0  0  0  0  0  0  0  0  0  0  0
    0.7314   -1.0023    0.0000 O   0  0  0  0  0  0  0  0  0  0  0  0
    2.7313   -1.0052    0.0000 O   0  0  0  0  0  0  0  0  0  0  0  0
   -0.0051   -1.9961    0.0000 C   0  0  0  0  0  0  0  0  0  0  0  0
  1  2  1  0  0  0  0
  2  3  1  0  0  0  0
  3 20  2  0  0  0  0
  3  4  1  0  0  0  0
  4  5  2  0  0  0  0
  5  6  1  0  0  0  0
  5  7  1  0  0  0  0
  7  8  2  0  0  0  0
  8  9  1  0  0  0  0
  9 10  1  0  0  0  0
 10 11  1  0  0  0  0
 11 12  1  0  0  0  0
 12 17  2  0  0  0  0
 12 13  1  0  0  0  0
 13 14  2  0  0  0  0
 14 15  1  0  0  0  0
 15 16  2  0  0  0  0
 16 17  1  0  0  0  0
 10 18  2  0  0  0  0
 10 19  2  0  0  0  0
  8 20  1  0  0  0  0
M  END
$$$$
AGN-NEW-891-5
  -OEChem-03222016562D

 21 22  0     0  0  0  0  0  0999 V2000
    7.7973   -0.5075    0.0000 C   0  0  0  0  0  0  0  0  0  0  0  0
    6.9305   -0.0088    0.0000 C   0  0  0  0  0  0  0  0  0  0  0  0
    6.0653   -0.5101    0.0000 C   0  0  0  0  0  0  0  0  0  0  0  0
    5.1955   -0.0062    0.0000 C   0  0  0  0  0  0  0  0  0  0  0  0
    4.3301   -0.5075    0.0000 C   0  0  0  0  0  0  0  0  0  0  0  0
    3.4648   -0.0063    0.0000 S   0  0  0  0  0  0  0  0  0  0  0  0
    2.5995    0.4950    0.0000 C   0  0  0  0  0  0  0  0  0  0  0  0
    1.7328   -0.0038    0.0000 C   0  0  0  0  0  0  0  0  0  0  0  0
    0.8675    0.4975    0.0000 C   0  0  0  0  0  0  0  0  0  0  0  0
    0.8675    1.5027    0.0000 C   0  0  0  0  0  0  0  0  0  0  0  0
   -0.0000    2.0104    0.0000 N   0  0  0  0  0  0  0  0  0  0  0  0
   -0.8675    1.5027    0.0000 C   0  0  0  0  0  0  0  0  0  0  0  0
   -0.8675    0.4975    0.0000 C   0  0  0  0  0  0  0  0  0  0  0  0
    0.0000    0.0000    0.0000 C   0  0  0  0  0  0  0  0  0  0  0  0
    2.9636   -0.8716    0.0000 O   0  0  0  0  0  0  0  0  0  0  0  0
    3.9661    0.8590    0.0000 O   0  0  0  0  0  0  0  0  0  0  0  0
    4.3258   -1.5075    0.0000 C   0  0  0  0  0  0  0  0  0  0  0  0
    5.1956   -2.0114    0.0000 C   0  0  0  0  0  0  0  0  0  0  0  0
    5.1912   -3.0114    0.0000 Cl  0  0  0  0  0  0  0  0  0  0  0  0
    6.0697   -1.5152    0.0000 C   0  0  0  0  0  0  0  0  0  0  0  0
    6.9290    0.9912    0.0000 C   0  0  0  0  0  0  0  0  0  0  0  0
  1  2  1  0  0  0  0
  2  3  1  0  0  0  0
  3 20  2  0  0  0  0
  3  4  1  0  0  0  0
  4  5  2  0  0  0  0
  5  6  1  0  0  0  0
  6  7  1  0  0  0  0
  7  8  2  0  0  0  0
  8  9  1  0  0  0  0
  9 14  2  0  0  0  0
  9 10  1  0  0  0  0
 10 11  2  0  0  0  0
 11 12  1  0  0  0  0
 12 13  2  0  0  0  0
 13 14  1  0  0  0  0
  6 15  2  0  0  0  0
  6 16  2  0  0  0  0
  5 17  1  0  0  0  0
 17 18  2  0  0  0  0
 18 19  1  0  0  0  0
 18 20  1  0  0  0  0
  2 21  1  0  0  0  0
M  END
$$$$
AGN-NEW-891-6
  -OEChem-03222016562D

 25 27  0     0  0  0  0  0  0999 V2000
    6.0873    1.4924    0.0000 F   0  0  0  0  0  0  0  0  0  0  0  0
    6.9481    0.9835    0.0000 C   0  0  0  0  0  0  0  0  0  0  0  0
    6.9348   -0.0215    0.0000 C   0  0  0  0  0  0  0  0  0  0  0  0
    6.0651   -0.5152    0.0000 C   0  0  0  0  0  0  0  0  0  0  0  0
    5.1999   -0.0036    0.0000 C   0  0  0  0  0  0  0  0  0  0  0  0
    4.3301   -0.5075    0.0000 C   0  0  0  0  0  0  0  0  0  0  0  0
    3.4648   -0.0063    0.0000 S   0  0  0  0  0  0  0  0  0  0  0  0
    2.5995    0.4950    0.0000 C   0  0  0  0  0  0  0  0  0  0  0  0
    1.7328   -0.0038    0.0000 C   0  0  0  0  0  0  0  0  0  0  0  0
    0.8675    0.4975    0.0000 C   0  0  0  0  0  0  0  0  0  0  0  0
    0.8675    1.5027    0.0000 C   0  0  0  0  0  0  0  0  0  0  0  0
   -0.0000    2.0104    0.0000 N   0  0  0  0  0  0  0  0  0  0  0  0
   -0.8675    1.5027    0.0000 C   0  0  0  0  0  0  0  0  0  0  0  0
   -0.8675    0.4975    0.0000 C   0  0  0  0  0  0  0  0  0  0  0  0
    0.0000    0.0000    0.0000 C   0  0  0  0  0  0  0  0  0  0  0  0
    2.9636   -0.8716    0.0000 O   0  0  0  0  0  0  0  0  0  0  0  0
    3.9661    0.8590    0.0000 O   0  0  0  0  0  0  0  0  0  0  0  0
    4.3257   -1.5127    0.0000 C   0  0  0  0  0  0  0  0  0  0  0  0
    5.1910   -2.0140    0.0000 C   0  0  0  0  0  0  0  0  0  0  0  0
    6.0607   -1.5203    0.0000 C   0  0  0  0  0  0  0  0  0  0  0  0
    7.8046   -0.5254    0.0000 C   0  0  0  0  0  0  0  0  0  0  0  0
    7.8002   -1.5254    0.0000 F   0  0  0  0  0  0  0  0  0  0  0  0
    8.6788   -0.0292    0.0000 C   0  0  0  0  0  0  0  0  0  0  0  0
    8.6832    0.9708    0.0000 C   0  0  0  0  0  0  0  0  0  0  0  0
    7.8223    1.4797    0.0000 C   0  0  0  0  0  0  0  0  0  0  0  0
  1  2  1  0  0  0  0
  2 25  2  0  0  0  0
  2  3  1  0  0  0  0
  3  4  1  0  0  0  0
  4 20  2  0  0  0  0
  4  5  1  0  0  0  0
  5  6  2  0  0  0  0
  6  7  1  0  0  0  0
  7  8  1  0  0  0  0
  8  9  2  0  0  0  0
  9 10  1  0  0  0  0
 10 15  2  0  0  0  0
 10 11  1  0  0  0  0
 11 12  2  0  0  0  0
 12 13  1  0  0  0  0
 13 14  2  0  0  0  0
 14 15  1  0  0  0  0
  7 16  2  0  0  0  0
  7 17  2  0  0  0  0
  6 18  1  0  0  0  0
 18 19  2  0  0  0  0
 19 20  1  0  0  0  0
  3 21  2  0  0  0  0
 21 22  1  0  0  0  0
 21 23  1  0  0  0  0
 23 24  2  0  0  0  0
 24 25  1  0  0  0  0
M  END
$$$$
AGN-NEW-891-7
  -OEChem-03222016562D

 25 27  0     0  0  0  0  0  0999 V2000
    9.5462    1.4656    0.0000 F   0  0  0  0  0  0  0  0  0  0  0  0
    8.6787    0.9681    0.0000 C   0  0  0  0  0  0  0  0  0  0  0  0
    7.8112    1.4759    0.0000 C   0  0  0  0  0  0  0  0  0  0  0  0
    6.9436    0.9785    0.0000 C   0  0  0  0  0  0  0  0  0  0  0  0
    6.9348   -0.0215    0.0000 C   0  0  0  0  0  0  0  0  0  0  0  0
    6.0651   -0.5152    0.0000 C   0  0  0  0  0  0  0  0  0  0  0  0
    5.1999   -0.0036    0.0000 C   0  0  0  0  0  0  0  0  0  0  0  0
    4.3301   -0.5075    0.0000 C   0  0  0  0  0  0  0  0  0  0  0  0
    3.4648   -0.0063    0.0000 S   0  0  0  0  0  0  0  0  0  0  0  0
    2.5995    0.4950    0.0000 C   0  0  0  0  0  0  0  0  0  0  0  0
    1.7328   -0.0038    0.0000 C   0  0  0  0  0  0  0  0  0  0  0  0
    0.8675    0.4975    0.0000 C   0  0  0  0  0  0  0  0  0  0  0  0
    0.8675    1.5027    0.0000 C   0  0  0  0  0  0  0  0  0  0  0  0
   -0.0000    2.0104    0.0000 N   0  0  0  0  0  0  0  0  0  0  0  0
   -0.8675    1.5027    0.0000 C   0  0  0  0  0  0  0  0  0  0  0  0
   -0.8675    0.4975    0.0000 C   0  0  0  0  0  0  0  0  0  0  0  0
    0.0000    0.0000    0.0000 C   0  0  0  0  0  0  0  0  0  0  0  0
    2.9636   -0.8716    0.0000 O   0  0  0  0  0  0  0  0  0  0  0  0
    3.9661    0.8590    0.0000 O   0  0  0  0  0  0  0  0  0  0  0  0
    4.3257   -1.5127    0.0000 C   0  0  0  0  0  0  0  0  0  0  0  0
    5.1910   -2.0140    0.0000 C   0  0  0  0  0  0  0  0  0  0  0  0
    6.0607   -1.5203    0.0000 C   0  0  0  0  0  0  0  0  0  0  0  0
    7.8024   -0.5293    0.0000 C   0  0  0  0  0  0  0  0  0  0  0  0
    7.7935   -1.5292    0.0000 F   0  0  0  0  0  0  0  0  0  0  0  0
    8.6787   -0.0370    0.0000 C   0  0  0  0  0  0  0  0  0  0  0  0
  1  2  1  0  0  0  0
  2 25  2  0  0  0  0
  2  3  1  0  0  0  0
  3  4  2  0  0  0  0
  4  5  1  0  0  0  0
  5  6  1  0  0  0  0
  6 22  2  0  0  0  0
  6  7  1  0  0  0  0
  7  8  2  0  0  0  0
  8  9  1  0  0  0  0
  9 10  1  0  0  0  0
 10 11  2  0  0  0  0
 11 12  1  0  0  0  0
 12 17  2  0  0  0  0
 12 13  1  0  0  0  0
 13 14  2  0  0  0  0
 14 15  1  0  0  0  0
 15 16  2  0  0  0  0
 16 17  1  0  0  0  0
  9 18  2  0  0  0  0
  9 19  2  0  0  0  0
  8 20  1  0  0  0  0
 20 21  2  0  0  0  0
 21 22  1  0  0  0  0
  5 23  2  0  0  0  0
 23 24  1  0  0  0  0
 23 25  1  0  0  0  0
M  END
$$$$
AGN-NEW-891-8
  -OEChem-03222016562D

 24 26  0     0  0  0  0  0  0999 V2000
    6.0761    1.4887    0.0000 F   0  0  0  0  0  0  0  0  0  0  0  0
    6.9392    0.9837    0.0000 C   0  0  0  0  0  0  0  0  0  0  0  0
    7.8089    1.4773    0.0000 C   0  0  0  0  0  0  0  0  0  0  0  0
    8.6742    0.9760    0.0000 C   0  0  0  0  0  0  0  0  0  0  0  0
    8.6698   -0.0292    0.0000 C   0  0  0  0  0  0  0  0  0  0  0  0
    7.8001   -0.5330    0.0000 C   0  0  0  0  0  0  0  0  0  0  0  0
    6.9348   -0.0215    0.0000 C   0  0  0  0  0  0  0  0  0  0  0  0
    6.0651   -0.5152    0.0000 C   0  0  0  0  0  0  0  0  0  0  0  0
    5.1999   -0.0036    0.0000 C   0  0  0  0  0  0  0  0  0  0  0  0
    4.3301   -0.5075    0.0000 C   0  0  0  0  0  0  0  0  0  0  0  0
    3.4648   -0.0063    0.0000 S   0  0  0  0  0  0  0  0  0  0  0  0
    2.5995    0.4950    0.0000 C   0  0  0  0  0  0  0  0  0  0  0  0
    1.7328   -0.0038    0.0000 C   0  0  0  0  0  0  0  0  0  0  0  0
    0.8675    0.4975    0.0000 C   0  0  0  0  0  0  0  0  0  0  0  0
    0.8675    1.5027    0.0000 C   0  0  0  0  0  0  0  0  0  0  0  0
   -0.0000    2.0104    0.0000 N   0  0  0  0  0  0  0  0  0  0  0  0
   -0.8675    1.5027    0.0000 C   0  0  0  0  0  0  0  0  0  0  0  0
   -0.8675    0.4975    0.0000 C   0  0  0  0  0  0  0  0  0  0  0  0
    0.0000    0.0000    0.0000 C   0  0  0  0  0  0  0  0  0  0  0  0
    2.9636   -0.8716    0.0000 O   0  0  0  0  0  0  0  0  0  0  0  0
    3.9661    0.8590    0.0000 O   0  0  0  0  0  0  0  0  0  0  0  0
    4.3257   -1.5127    0.0000 C   0  0  0  0  0  0  0  0  0  0  0  0
    5.1910   -2.0140    0.0000 C   0  0  0  0  0  0  0  0  0  0  0  0
    6.0607   -1.5203    0.0000 C   0  0  0  0  0  0  0  0  0  0  0  0
  1  2  1  0  0  0  0
  2  7  2  0  0  0  0
  2  3  1  0  0  0  0
  3  4  2  0  0  0  0
  4  5  1  0  0  0  0
  5  6  2  0  0  0  0
  6  7  1  0  0  0  0
  7  8  1  0  0  0  0
  8 24  2  0  0  0  0
  8  9  1  0  0  0  0
  9 10  2  0  0  0  0
 10 11  1  0  0  0  0
 11 12  1  0  0  0  0
 12 13  2  0  0  0  0
 13 14  1  0  0  0  0
 14 19  2  0  0  0  0
 14 15  1  0  0  0  0
 15 16  2  0  0  0  0
 16 17  1  0  0  0  0
 17 18  2  0  0  0  0
 18 19  1  0  0  0  0
 11 20  2  0  0  0  0
 11 21  2  0  0  0  0
 10 22  1  0  0  0  0
 22 23  2  0  0  0  0
 23 24  1  0  0  0  0
M  END
$$$$
AGN-NEW-891-9
  -OEChem-03222016562D

 20 21  0     0  0  0  0  0  0999 V2000
    3.9661    0.8590    0.0000 O   0  0  0  0  0  0  0  0  0  0  0  0
    3.4648   -0.0063    0.0000 S   0  0  0  0  0  0  0  0  0  0  0  0
    4.3301   -0.5075    0.0000 C   0  0  0  0  0  0  0  0  0  0  0  0
    4.3257   -1.5127    0.0000 C   0  0  0  0  0  0  0  0  0  0  0  0
    5.1910   -2.0140    0.0000 C   0  0  0  0  0  0  0  0  0  0  0  0
    6.0607   -1.5203    0.0000 C   0  0  0  0  0  0  0  0  0  0  0  0
    6.0651   -0.5152    0.0000 C   0  0  0  0  0  0  0  0  0  0  0  0
    6.9348   -0.0215    0.0000 C   0  0  0  0  0  0  0  0  0  0  0  0
    6.9422    0.9784    0.0000 C   0  0  0  0  0  0  0  0  0  0  0  0
    6.9495    1.9784    0.0000 N   0  0  0  0  0  0  0  0  0  0  0  0
    5.1999   -0.0036    0.0000 C   0  0  0  0  0  0  0  0  0  0  0  0
    2.5995    0.4950    0.0000 C   0  0  0  0  0  0  0  0  0  0  0  0
    1.7328   -0.0038    0.0000 C   0  0  0  0  0  0  0  0  0  0  0  0
    0.8675    0.4975    0.0000 C   0  0  0  0  0  0  0  0  0  0  0  0
    0.8675    1.5027    0.0000 C   0  0  0  0  0  0  0  0  0  0  0  0
   -0.0000    2.0104    0.0000 N   0  0  0  0  0  0  0  0  0  0  0  0
   -0.8675    1.5027    0.0000 C   0  0  0  0  0  0  0  0  0  0  0  0
   -0.8675    0.4975    0.0000 C   0  0  0  0  0  0  0  0  0  0  0  0
    0.0000    0.0000    0.0000 C   0  0  0  0  0  0  0  0  0  0  0  0
    2.9636   -0.8716    0.0000 O   0  0  0  0  0  0  0  0  0  0  0  0
  1  2  2  0  0  0  0
  2  3  1  0  0  0  0
  3 11  2  0  0  0  0
  3  4  1  0  0  0  0
  4  5  2  0  0  0  0
  5  6  1  0  0  0  0
  6  7  2  0  0  0  0
  7  8  1  0  0  0  0
  8  9  1  0  0  0  0
  9 10  3  0  0  0  0
  7 11  1  0  0  0  0
  2 12  1  0  0  0  0
 12 13  2  0  0  0  0
 13 14  1  0  0  0  0
 14 19  2  0  0  0  0
 14 15  1  0  0  0  0
 15 16  2  0  0  0  0
 16 17  1  0  0  0  0
 17 18  2  0  0  0  0
 18 19  1  0  0  0  0
  2 20  2  0  0  0  0
M  END
$$$$
AGN-NEW-891-10
  -OEChem-03222016562D

 23 25  0     0  0  0  0  0  0999 V2000
    4.7076    0.1377    0.0000 O   0  0  0  0  0  0  0  0  0  0  0  0
    5.2050    1.0052    0.0000 S   0  0  0  0  0  0  0  0  0  0  0  0
    4.3375    1.5026    0.0000 C   0  0  0  0  0  0  0  0  0  0  0  0
    4.3375    2.5078    0.0000 C   0  0  0  0  0  0  0  0  0  0  0  0
    3.4700    3.0053    0.0000 C   0  0  0  0  0  0  0  0  0  0  0  0
    2.6025    2.5078    0.0000 C   0  0  0  0  0  0  0  0  0  0  0  0
    2.6025    1.5026    0.0000 C   0  0  0  0  0  0  0  0  0  0  0  0
    1.7350    1.0052    0.0000 C   0  0  0  0  0  0  0  0  0  0  0  0
    0.8675    1.5129    0.0000 N   0  0  0  0  0  0  0  0  0  0  0  0
    0.0000    1.0052    0.0000 C   0  0  0  0  0  0  0  0  0  0  0  0
    0.0000    0.0000    0.0000 C   0  0  0  0  0  0  0  0  0  0  0  0
    0.8675   -0.4975    0.0000 C   0  0  0  0  0  0  0  0  0  0  0  0
    1.7350    0.0000    0.0000 N   0  0  0  0  0  0  0  0  0  0  0  0
    3.4700    0.9949    0.0000 C   0  0  0  0  0  0  0  0  0  0  0  0
    6.0725    0.5078    0.0000 C   0  0  0  0  0  0  0  0  0  0  0  0
    6.9370    1.0103    0.0000 C   0  0  0  0  0  0  0  0  0  0  0  0
    7.8045    0.5129    0.0000 C   0  0  0  0  0  0  0  0  0  0  0  0
    7.8090   -0.4923    0.0000 C   0  0  0  0  0  0  0  0  0  0  0  0
    8.6787   -0.9962    0.0000 N   0  0  0  0  0  0  0  0  0  0  0  0
    9.5439   -0.4847    0.0000 C   0  0  0  0  0  0  0  0  0  0  0  0
    9.5395    0.5205    0.0000 C   0  0  0  0  0  0  0  0  0  0  0  0
    8.6698    1.0142    0.0000 C   0  0  0  0  0  0  0  0  0  0  0  0
    5.7024    1.8727    0.0000 O   0  0  0  0  0  0  0  0  0  0  0  0
  1  2  2  0  0  0  0
  2  3  1  0  0  0  0
  3 14  2  0  0  0  0
  3  4  1  0  0  0  0
  4  5  2  0  0  0  0
  5  6  1  0  0  0  0
  6  7  2  0  0  0  0
  7  8  1  0  0  0  0
  8 13  2  0  0  0  0
  8  9  1  0  0  0  0
  9 10  2  0  0  0  0
 10 11  1  0  0  0  0
 11 12  2  0  0  0  0
 12 13  1  0  0  0  0
  7 14  1  0  0  0  0
  2 15  1  0  0  0  0
 15 16  2  0  0  0  0
 16 17  1  0  0  0  0
 17 22  2  0  0  0  0
 17 18  1  0  0  0  0
 18 19  2  0  0  0  0
 19 20  1  0  0  0  0
 20 21  2  0  0  0  0
 21 22  1  0  0  0  0
  2 23  2  0  0  0  0
M  END
$$$$
AGN-NEW-891-11
  -OEChem-03222016562D

 25 27  0     0  0  0  0  0  0999 V2000
    6.9401   -3.0023    0.0000 C   0  0  0  0  0  0  0  0  0  0  0  0
    6.9372   -2.0023    0.0000 O   0  0  0  0  0  0  0  0  0  0  0  0
    6.0697   -1.5049    0.0000 C   0  0  0  0  0  0  0  0  0  0  0  0
    6.0653   -0.5048    0.0000 C   0  0  0  0  0  0  0  0  0  0  0  0
    5.1999   -0.0036    0.0000 C   0  0  0  0  0  0  0  0  0  0  0  0
    4.3301   -0.5075    0.0000 C   0  0  0  0  0  0  0  0  0  0  0  0
    3.4648   -0.0063    0.0000 S   0  0  0  0  0  0  0  0  0  0  0  0
    2.5995    0.4950    0.0000 C   0  0  0  0  0  0  0  0  0  0  0  0
    1.7328   -0.0038    0.0000 C   0  0  0  0  0  0  0  0  0  0  0  0
    0.8675    0.4975    0.0000 C   0  0  0  0  0  0  0  0  0  0  0  0
    0.8675    1.5027    0.0000 C   0  0  0  0  0  0  0  0  0  0  0  0
   -0.0000    2.0104    0.0000 N   0  0  0  0  0  0  0  0  0  0  0  0
   -0.8675    1.5027    0.0000 C   0  0  0  0  0  0  0  0  0  0  0  0
   -0.8675    0.4975    0.0000 C   0  0  0  0  0  0  0  0  0  0  0  0
    0.0000    0.0000    0.0000 C   0  0  0  0  0  0  0  0  0  0  0  0
    2.9636   -0.8716    0.0000 O   0  0  0  0  0  0  0  0  0  0  0  0
    3.9661    0.8590    0.0000 O   0  0  0  0  0  0  0  0  0  0  0  0
    4.3257   -1.5127    0.0000 C   0  0  0  0  0  0  0  0  0  0  0  0
    5.1999   -2.0088    0.0000 C   0  0  0  0  0  0  0  0  0  0  0  0
    5.2044   -3.0088    0.0000 C   0  0  0  0  0  0  0  0  0  0  0  0
    4.3346   -3.5126    0.0000 N   0  0  0  0  0  0  0  0  0  0  0  0
    4.3480   -4.5177    0.0000 C   0  0  0  0  0  0  0  0  0  0  0  0
    5.2222   -5.0138    0.0000 C   0  0  0  0  0  0  0  0  0  0  0  0
    6.0831   -4.5049    0.0000 C   0  0  0  0  0  0  0  0  0  0  0  0
    6.0786   -3.5049    0.0000 N   0  0  0  0  0  0  0  0  0  0  0  0
  1  2  1  0  0  0  0
  2  3  1  0  0  0  0
  3 19  2  0  0  0  0
  3  4  1  0  0  0  0
  4  5  2  0  0  0  0
  5  6  1  0  0  0  0
  6  7  1  0  0  0  0
  7  8  1  0  0  0  0
  8  9  2  0  0  0  0
  9 10  1  0  0  0  0
 10 15  2  0  0  0  0
 10 11  1  0  0  0  0
 11 12  2  0  0  0  0
 12 13  1  0  0  0  0
 13 14  2  0  0  0  0
 14 15  1  0  0  0  0
  7 16  2  0  0  0  0
  7 17  2  0  0  0  0
  6 18  2  0  0  0  0
 18 19  1  0  0  0  0
 19 20  1  0  0  0  0
 20 25  2  0  0  0  0
 20 21  1  0  0  0  0
 21 22  2  0  0  0  0
 22 23  1  0  0  0  0
 23 24  2  0  0  0  0
 24 25  1  0  0  0  0
M  END
$$$$
DAR-DIA-842-1
  -OEChem-03222016562D

 15 16  0     0  0  0  0  0  0999 V2000
    0.8646   -1.5025    0.0000 O   0  0  0  0  0  0  0  0  0  0  0  0
    1.7313   -1.0038    0.0000 C   0  0  0  0  0  0  0  0  0  0  0  0
    1.7328   -0.0038    0.0000 N   0  0  0  0  0  0  0  0  0  0  0  0
    0.8675    0.4975    0.0000 C   0  0  0  0  0  0  0  0  0  0  0  0
    0.8675    1.5027    0.0000 C   0  0  0  0  0  0  0  0  0  0  0  0
   -0.0000    2.0104    0.0000 N   0  0  0  0  0  0  0  0  0  0  0  0
   -0.8675    1.5027    0.0000 C   0  0  0  0  0  0  0  0  0  0  0  0
   -0.8675    0.4975    0.0000 C   0  0  0  0  0  0  0  0  0  0  0  0
    0.0000    0.0000    0.0000 C   0  0  0  0  0  0  0  0  0  0  0  0
    2.5966   -1.5050    0.0000 N   0  0  0  0  0  0  0  0  0  0  0  0
    2.5952   -2.5050    0.0000 C   0  0  0  0  0  0  0  0  0  0  0  0
    3.4053   -3.0939    0.0000 C   0  0  0  0  0  0  0  0  0  0  0  0
    3.0935   -4.0441    0.0000 C   0  0  0  0  0  0  0  0  0  0  0  0
    2.0930   -4.0473    0.0000 S   0  0  0  0  0  0  0  0  0  0  0  0
    1.7833   -3.0916    0.0000 C   0  0  0  0  0  0  0  0  0  0  0  0
  1  2  2  0  0  0  0
  2  3  1  0  0  0  0
  3  4  1  0  0  0  0
  4  9  2  0  0  0  0
  4  5  1  0  0  0  0
  5  6  2  0  0  0  0
  6  7  1  0  0  0  0
  7  8  2  0  0  0  0
  8  9  1  0  0  0  0
  2 10  1  0  0  0  0
 10 11  1  0  0  0  0
 11 15  2  0  0  0  0
 11 12  1  0  0  0  0
 12 13  2  0  0  0  0
 13 14  1  0  0  0  0
 14 15  1  0  0  0  0
M  END
$$$$
DAR-DIA-842-2
  -OEChem-03222016562D

 16 17  0     0  0  0  0  0  0999 V2000
    0.8646   -1.5025    0.0000 O   0  0  0  0  0  0  0  0  0  0  0  0
    1.7313   -1.0038    0.0000 C   0  0  0  0  0  0  0  0  0  0  0  0
    1.7328   -0.0038    0.0000 N   0  0  0  0  0  0  0  0  0  0  0  0
    0.8675    0.4975    0.0000 C   0  0  0  0  0  0  0  0  0  0  0  0
    0.8675    1.5027    0.0000 C   0  0  0  0  0  0  0  0  0  0  0  0
   -0.0000    2.0104    0.0000 N   0  0  0  0  0  0  0  0  0  0  0  0
   -0.8675    1.5027    0.0000 C   0  0  0  0  0  0  0  0  0  0  0  0
   -0.8675    0.4975    0.0000 C   0  0  0  0  0  0  0  0  0  0  0  0
    0.0000    0.0000    0.0000 C   0  0  0  0  0  0  0  0  0  0  0  0
    2.5966   -1.5050    0.0000 N   0  0  0  0  0  0  0  0  0  0  0  0
    2.5952   -2.5050    0.0000 C   0  0  0  0  0  0  0  0  0  0  0  0
    3.4026   -3.0951    0.0000 C   0  0  0  0  0  0  0  0  0  0  0  0
    3.0967   -4.0476    0.0000 N   0  0  0  0  0  0  0  0  0  0  0  0
    2.0920   -4.0470    0.0000 N   0  0  0  0  0  0  0  0  0  0  0  0
    1.5030   -4.8551    0.0000 C   0  0  0  0  0  0  0  0  0  0  0  0
    1.7849   -3.0936    0.0000 C   0  0  0  0  0  0  0  0  0  0  0  0
  1  2  2  0  0  0  0
  2  3  1  0  0  0  0
  3  4  1  0  0  0  0
  4  9  2  0  0  0  0
  4  5  1  0  0  0  0
  5  6  2  0  0  0  0
  6  7  1  0  0  0  0
  7  8  2  0  0  0  0
  8  9  1  0  0  0  0
  2 10  1  0  0  0  0
 10 11  1  0  0  0  0
 11 16  2  0  0  0  0
 11 12  1  0  0  0  0
 12 13  2  0  0  0  0
 13 14  1  0  0  0  0
 14 15  1  0  0  0  0
 14 16  1  0  0  0  0
M  END
$$$$
DAR-DIA-842-3
  -OEChem-03222016562D

 16 17  0     0  0  0  0  0  0999 V2000
    2.6010    1.4950    0.0000 O   0  0  0  0  0  0  0  0  0  0  0  0
    2.5995    0.4950    0.0000 C   0  0  0  0  0  0  0  0  0  0  0  0
    3.4648   -0.0063    0.0000 N   0  0  0  0  0  0  0  0  0  0  0  0
    4.3316    0.4925    0.0000 C   0  0  0  0  0  0  0  0  0  0  0  0
    5.2492    0.0834    0.0000 S   0  0  0  0  0  0  0  0  0  0  0  0
    5.9160    0.8292    0.0000 C   0  0  0  0  0  0  0  0  0  0  0  0
    6.9106    0.7251    0.0000 C   0  0  0  0  0  0  0  0  0  0  0  0
    5.4183    1.6966    0.0000 C   0  0  0  0  0  0  0  0  0  0  0  0
    4.4387    1.4884    0.0000 C   0  0  0  0  0  0  0  0  0  0  0  0
    1.7328   -0.0038    0.0000 N   0  0  0  0  0  0  0  0  0  0  0  0
    0.8675    0.4975    0.0000 C   0  0  0  0  0  0  0  0  0  0  0  0
    0.0000    0.0000    0.0000 C   0  0  0  0  0  0  0  0  0  0  0  0
   -0.8675    0.4975    0.0000 C   0  0  0  0  0  0  0  0  0  0  0  0
   -0.8675    1.5027    0.0000 C   0  0  0  0  0  0  0  0  0  0  0  0
    0.0000    2.0104    0.0000 N   0  0  0  0  0  0  0  0  0  0  0  0
    0.8675    1.5027    0.0000 C   0  0  0  0  0  0  0  0  0  0  0  0
  1  2  2  0  0  0  0
  2  3  1  0  0  0  0
  3  4  1  0  0  0  0
  4  9  2  0  0  0  0
  4  5  1  0  0  0  0
  5  6  1  0  0  0  0
  6  7  1  0  0  0  0
  6  8  2  0  0  0  0
  8  9  1  0  0  0  0
  2 10  1  0  0  0  0
 10 11  1  0  0  0  0
 11 16  2  0  0  0  0
 11 12  1  0  0  0  0
 12 13  2  0  0  0  0
 13 14  1  0  0  0  0
 14 15  2  0  0  0  0
 15 16  1  0  0  0  0
M  END
$$$$
DAR-DIA-842-4
  -OEChem-03222016562D

 16 17  0     0  0  0  0  0  0999 V2000
    0.8646   -1.5025    0.0000 O   0  0  0  0  0  0  0  0  0  0  0  0
    1.7313   -1.0038    0.0000 C   0  0  0  0  0  0  0  0  0  0  0  0
    1.7328   -0.0038    0.0000 N   0  0  0  0  0  0  0  0  0  0  0  0
    0.8675    0.4975    0.0000 C   0  0  0  0  0  0  0  0  0  0  0  0
    0.8675    1.5027    0.0000 C   0  0  0  0  0  0  0  0  0  0  0  0
   -0.0000    2.0104    0.0000 N   0  0  0  0  0  0  0  0  0  0  0  0
   -0.8675    1.5027    0.0000 C   0  0  0  0  0  0  0  0  0  0  0  0
   -0.8675    0.4975    0.0000 C   0  0  0  0  0  0  0  0  0  0  0  0
    0.0000    0.0000    0.0000 C   0  0  0  0  0  0  0  0  0  0  0  0
    2.5966   -1.5050    0.0000 N   0  0  0  0  0  0  0  0  0  0  0  0
    2.5952   -2.5050    0.0000 C   0  0  0  0  0  0  0  0  0  0  0  0
    1.7835   -3.0891    0.0000 C   0  0  0  0  0  0  0  0  0  0  0  0
    2.0912   -4.0422    0.0000 C   0  0  0  0  0  0  0  0  0  0  0  0
    3.0928   -4.0465    0.0000 C   0  0  0  0  0  0  0  0  0  0  0  0
    3.6779   -4.8574    0.0000 Cl  0  0  0  0  0  0  0  0  0  0  0  0
    3.4055   -3.0917    0.0000 S   0  0  0  0  0  0  0  0  0  0  0  0
  1  2  2  0  0  0  0
  2  3  1  0  0  0  0
  3  4  1  0  0  0  0
  4  9  2  0  0  0  0
  4  5  1  0  0  0  0
  5  6  2  0  0  0  0
  6  7  1  0  0  0  0
  7  8  2  0  0  0  0
  8  9  1  0  0  0  0
  2 10  1  0  0  0  0
 10 11  1  0  0  0  0
 11 16  1  0  0  0  0
 11 12  2  0  0  0  0
 12 13  1  0  0  0  0
 13 14  2  0  0  0  0
 14 15  1  0  0  0  0
 14 16  1  0  0  0  0
M  END
$$$$
DAR-DIA-842-5
  -OEChem-03222016562D

 17 18  0     0  0  0  0  0  0999 V2000
    0.8646   -1.5025    0.0000 O   0  0  0  0  0  0  0  0  0  0  0  0
    1.7313   -1.0038    0.0000 C   0  0  0  0  0  0  0  0  0  0  0  0
    1.7328   -0.0038    0.0000 N   0  0  0  0  0  0  0  0  0  0  0  0
    0.8675    0.4975    0.0000 C   0  0  0  0  0  0  0  0  0  0  0  0
    0.8675    1.5027    0.0000 C   0  0  0  0  0  0  0  0  0  0  0  0
   -0.0000    2.0104    0.0000 N   0  0  0  0  0  0  0  0  0  0  0  0
   -0.8675    1.5027    0.0000 C   0  0  0  0  0  0  0  0  0  0  0  0
   -0.8675    0.4975    0.0000 C   0  0  0  0  0  0  0  0  0  0  0  0
    0.0000    0.0000    0.0000 C   0  0  0  0  0  0  0  0  0  0  0  0
    2.5966   -1.5050    0.0000 N   0  0  0  0  0  0  0  0  0  0  0  0
    2.5952   -2.5050    0.0000 C   0  0  0  0  0  0  0  0  0  0  0  0
    1.7835   -3.0891    0.0000 C   0  0  0  0  0  0  0  0  0  0  0  0
    2.0912   -4.0422    0.0000 C   0  0  0  0  0  0  0  0  0  0  0  0
    3.0928   -4.0465    0.0000 C   0  0  0  0  0  0  0  0  0  0  0  0
    3.6779   -4.8574    0.0000 C   0  0  0  0  0  0  0  0  0  0  0  0
    4.2630   -5.6684    0.0000 N   0  0  0  0  0  0  0  0  0  0  0  0
    3.4055   -3.0917    0.0000 S   0  0  0  0  0  0  0  0  0  0  0  0
  1  2  2  0  0  0  0
  2  3  1  0  0  0  0
  3  4  1  0  0  0  0
  4  9  2  0  0  0  0
  4  5  1  0  0  0  0
  5  6  2  0  0  0  0
  6  7  1  0  0  0  0
  7  8  2  0  0  0  0
  8  9  1  0  0  0  0
  2 10  1  0  0  0  0
 10 11  1  0  0  0  0
 11 17  1  0  0  0  0
 11 12  2  0  0  0  0
 12 13  1  0  0  0  0
 13 14  2  0  0  0  0
 14 15  1  0  0  0  0
 15 16  3  0  0  0  0
 14 17  1  0  0  0  0
M  END
$$$$
DAR-DIA-842-6
  -OEChem-03222016562D

 17 18  0     0  0  0  0  0  0999 V2000
    2.6010    1.4950    0.0000 O   0  0  0  0  0  0  0  0  0  0  0  0
    2.5995    0.4950    0.0000 C   0  0  0  0  0  0  0  0  0  0  0  0
    3.4648   -0.0063    0.0000 N   0  0  0  0  0  0  0  0  0  0  0  0
    4.3316    0.4925    0.0000 C   0  0  0  0  0  0  0  0  0  0  0  0
    4.4387    1.4884    0.0000 N   0  0  0  0  0  0  0  0  0  0  0  0
    5.4183    1.6966    0.0000 C   0  0  0  0  0  0  0  0  0  0  0  0
    5.8263    2.6096    0.0000 C   0  0  0  0  0  0  0  0  0  0  0  0
    6.2343    3.5226    0.0000 N   0  0  0  0  0  0  0  0  0  0  0  0
    5.9160    0.8292    0.0000 C   0  0  0  0  0  0  0  0  0  0  0  0
    5.2492    0.0834    0.0000 O   0  0  0  0  0  0  0  0  0  0  0  0
    1.7328   -0.0038    0.0000 N   0  0  0  0  0  0  0  0  0  0  0  0
    0.8675    0.4975    0.0000 C   0  0  0  0  0  0  0  0  0  0  0  0
    0.0000    0.0000    0.0000 C   0  0  0  0  0  0  0  0  0  0  0  0
   -0.8675    0.4975    0.0000 C   0  0  0  0  0  0  0  0  0  0  0  0
   -0.8675    1.5027    0.0000 C   0  0  0  0  0  0  0  0  0  0  0  0
    0.0000    2.0104    0.0000 N   0  0  0  0  0  0  0  0  0  0  0  0
    0.8675    1.5027    0.0000 C   0  0  0  0  0  0  0  0  0  0  0  0
  1  2  2  0  0  0  0
  2  3  1  0  0  0  0
  3  4  1  0  0  0  0
  4 10  1  0  0  0  0
  4  5  2  0  0  0  0
  5  6  1  0  0  0  0
  6  7  1  0  0  0  0
  7  8  3  0  0  0  0
  6  9  2  0  0  0  0
  9 10  1  0  0  0  0
  2 11  1  0  0  0  0
 11 12  1  0  0  0  0
 12 17  2  0  0  0  0
 12 13  1  0  0  0  0
 13 14  2  0  0  0  0
 14 15  1  0  0  0  0
 15 16  2  0  0  0  0
 16 17  1  0  0  0  0
M  END
$$$$
DAR-DIA-842-7
  -OEChem-03222016562D

 16 17  0     0  0  0  0  0  0999 V2000
    0.8646   -1.5025    0.0000 O   0  0  0  0  0  0  0  0  0  0  0  0
    1.7313   -1.0038    0.0000 C   0  0  0  0  0  0  0  0  0  0  0  0
    1.7328   -0.0038    0.0000 N   0  0  0  0  0  0  0  0  0  0  0  0
    0.8675    0.4975    0.0000 C   0  0  0  0  0  0  0  0  0  0  0  0
    0.8675    1.5027    0.0000 C   0  0  0  0  0  0  0  0  0  0  0  0
   -0.0000    2.0104    0.0000 N   0  0  0  0  0  0  0  0  0  0  0  0
   -0.8675    1.5027    0.0000 C   0  0  0  0  0  0  0  0  0  0  0  0
   -0.8675    0.4975    0.0000 C   0  0  0  0  0  0  0  0  0  0  0  0
    0.0000    0.0000    0.0000 C   0  0  0  0  0  0  0  0  0  0  0  0
    2.5966   -1.5050    0.0000 N   0  0  0  0  0  0  0  0  0  0  0  0
    2.5952   -2.5050    0.0000 C   0  0  0  0  0  0  0  0  0  0  0  0
    1.7821   -3.0951    0.0000 O   0  0  0  0  0  0  0  0  0  0  0  0
    2.0946   -4.0455    0.0000 C   0  0  0  0  0  0  0  0  0  0  0  0
    3.0946   -4.0482    0.0000 C   0  0  0  0  0  0  0  0  0  0  0  0
    3.6813   -4.8580    0.0000 C   0  0  0  0  0  0  0  0  0  0  0  0
    3.4041   -3.0957    0.0000 N   0  0  0  0  0  0  0  0  0  0  0  0
  1  2  2  0  0  0  0
  2  3  1  0  0  0  0
  3  4  1  0  0  0  0
  4  9  2  0  0  0  0
  4  5  1  0  0  0  0
  5  6  2  0  0  0  0
  6  7  1  0  0  0  0
  7  8  2  0  0  0  0
  8  9  1  0  0  0  0
  2 10  1  0  0  0  0
 10 11  1  0  0  0  0
 11 16  2  0  0  0  0
 11 12  1  0  0  0  0
 12 13  1  0  0  0  0
 13 14  2  0  0  0  0
 14 15  1  0  0  0  0
 14 16  1  0  0  0  0
M  END
$$$$
DAR-DIA-842-8
  -OEChem-03222016562D

 16 17  0     0  0  0  0  0  0999 V2000
    2.6010    1.4950    0.0000 O   0  0  0  0  0  0  0  0  0  0  0  0
    2.5995    0.4950    0.0000 C   0  0  0  0  0  0  0  0  0  0  0  0
    3.4648   -0.0063    0.0000 N   0  0  0  0  0  0  0  0  0  0  0  0
    4.3316    0.4925    0.0000 C   0  0  0  0  0  0  0  0  0  0  0  0
    4.4387    1.4884    0.0000 N   0  0  0  0  0  0  0  0  0  0  0  0
    5.4183    1.6966    0.0000 C   0  0  0  0  0  0  0  0  0  0  0  0
    5.8263    2.6096    0.0000 Cl  0  0  0  0  0  0  0  0  0  0  0  0
    5.9160    0.8292    0.0000 C   0  0  0  0  0  0  0  0  0  0  0  0
    5.2492    0.0834    0.0000 O   0  0  0  0  0  0  0  0  0  0  0  0
    1.7328   -0.0038    0.0000 N   0  0  0  0  0  0  0  0  0  0  0  0
    0.8675    0.4975    0.0000 C   0  0  0  0  0  0  0  0  0  0  0  0
    0.0000    0.0000    0.0000 C   0  0  0  0  0  0  0  0  0  0  0  0
   -0.8675    0.4975    0.0000 C   0  0  0  0  0  0  0  0  0  0  0  0
   -0.8675    1.5027    0.0000 C   0  0  0  0  0  0  0  0  0  0  0  0
    0.0000    2.0104    0.0000 N   0  0  0  0  0  0  0  0  0  0  0  0
    0.8675    1.5027    0.0000 C   0  0  0  0  0  0  0  0  0  0  0  0
  1  2  2  0  0  0  0
  2  3  1  0  0  0  0
  3  4  1  0  0  0  0
  4  9  1  0  0  0  0
  4  5  2  0  0  0  0
  5  6  1  0  0  0  0
  6  7  1  0  0  0  0
  6  8  2  0  0  0  0
  8  9  1  0  0  0  0
  2 10  1  0  0  0  0
 10 11  1  0  0  0  0
 11 16  2  0  0  0  0
 11 12  1  0  0  0  0
 12 13  2  0  0  0  0
 13 14  1  0  0  0  0
 14 15  2  0  0  0  0
 15 16  1  0  0  0  0
M  END
$$$$
DAR-DIA-842-9
  -OEChem-03222016562D

 17 18  0     0  0  0  0  0  0999 V2000
    0.8646   -1.5025    0.0000 O   0  0  0  0  0  0  0  0  0  0  0  0
    1.7313   -1.0038    0.0000 C   0  0  0  0  0  0  0  0  0  0  0  0
    1.7328   -0.0038    0.0000 N   0  0  0  0  0  0  0  0  0  0  0  0
    0.8675    0.4975    0.0000 C   0  0  0  0  0  0  0  0  0  0  0  0
    0.8675    1.5027    0.0000 C   0  0  0  0  0  0  0  0  0  0  0  0
   -0.0000    2.0104    0.0000 N   0  0  0  0  0  0  0  0  0  0  0  0
   -0.8675    1.5027    0.0000 C   0  0  0  0  0  0  0  0  0  0  0  0
   -0.8675    0.4975    0.0000 C   0  0  0  0  0  0  0  0  0  0  0  0
    0.0000    0.0000    0.0000 C   0  0  0  0  0  0  0  0  0  0  0  0
    2.5966   -1.5050    0.0000 N   0  0  0  0  0  0  0  0  0  0  0  0
    2.5952   -2.5050    0.0000 C   0  0  0  0  0  0  0  0  0  0  0  0
    1.7835   -3.0891    0.0000 C   0  0  0  0  0  0  0  0  0  0  0  0
    2.0912   -4.0422    0.0000 C   0  0  0  0  0  0  0  0  0  0  0  0
    3.0928   -4.0465    0.0000 C   0  0  0  0  0  0  0  0  0  0  0  0
    3.6779   -4.8574    0.0000 C   0  0  0  0  0  0  0  0  0  0  0  0
    4.2630   -5.6684    0.0000 N   0  0  0  0  0  0  0  0  0  0  0  0
    3.4055   -3.0917    0.0000 O   0  0  0  0  0  0  0  0  0  0  0  0
  1  2  2  0  0  0  0
  2  3  1  0  0  0  0
  3  4  1  0  0  0  0
  4  9  2  0  0  0  0
  4  5  1  0  0  0  0
  5  6  2  0  0  0  0
  6  7  1  0  0  0  0
  7  8  2  0  0  0  0
  8  9  1  0  0  0  0
  2 10  1  0  0  0  0
 10 11  1  0  0  0  0
 11 17  1  0  0  0  0
 11 12  2  0  0  0  0
 12 13  1  0  0  0  0
 13 14  2  0  0  0  0
 14 15  1  0  0  0  0
 15 16  3  0  0  0  0
 14 17  1  0  0  0  0
M  END
$$$$
DAR-DIA-842-10
  -OEChem-03222016562D

 15 16  0     0  0  0  0  0  0999 V2000
    2.6010    1.4950    0.0000 O   0  0  0  0  0  0  0  0  0  0  0  0
    2.5995    0.4950    0.0000 C   0  0  0  0  0  0  0  0  0  0  0  0
    3.4648   -0.0063    0.0000 C   0  0  0  0  0  0  0  0  0  0  0  0
    4.3316    0.4925    0.0000 C   0  0  0  0  0  0  0  0  0  0  0  0
    5.2456    0.0826    0.0000 C   0  0  0  0  0  0  0  0  0  0  0  0
    5.9184    0.8288    0.0000 S   0  0  0  0  0  0  0  0  0  0  0  0
    5.4153    1.6935    0.0000 C   0  0  0  0  0  0  0  0  0  0  0  0
    4.4365    1.4885    0.0000 C   0  0  0  0  0  0  0  0  0  0  0  0
    1.7328   -0.0038    0.0000 N   0  0  0  0  0  0  0  0  0  0  0  0
    0.8675    0.4975    0.0000 C   0  0  0  0  0  0  0  0  0  0  0  0
    0.0000    0.0000    0.0000 C   0  0  0  0  0  0  0  0  0  0  0  0
   -0.8675    0.4975    0.0000 C   0  0  0  0  0  0  0  0  0  0  0  0
   -0.8675    1.5027    0.0000 C   0  0  0  0  0  0  0  0  0  0  0  0
    0.0000    2.0104    0.0000 N   0  0  0  0  0  0  0  0  0  0  0  0
    0.8675    1.5027    0.0000 C   0  0  0  0  0  0  0  0  0  0  0  0
  1  2  2  0  0  0  0
  2  3  1  0  0  0  0
  3  4  1  0  0  0  0
  4  8  1  0  0  0  0
  4  5  2  0  0  0  0
  5  6  1  0  0  0  0
  6  7  1  0  0  0  0
  7  8  2  0  0  0  0
  2  9  1  0  0  0  0
  9 10  1  0  0  0  0
 10 15  2  0  0  0  0
 10 11  1  0  0  0  0
 11 12  2  0  0  0  0
 12 13  1  0  0  0  0
 13 14  2  0  0  0  0
 14 15  1  0  0  0  0
M  END
$$$$
DAR-DIA-842-11
  -OEChem-03222016562D

 16 17  0     0  0  0  0  0  0999 V2000
    0.8646   -1.5025    0.0000 O   0  0  0  0  0  0  0  0  0  0  0  0
    1.7313   -1.0038    0.0000 C   0  0  0  0  0  0  0  0  0  0  0  0
    1.7328   -0.0038    0.0000 N   0  0  0  0  0  0  0  0  0  0  0  0
    0.8675    0.4975    0.0000 C   0  0  0  0  0  0  0  0  0  0  0  0
    0.8675    1.5027    0.0000 C   0  0  0  0  0  0  0  0  0  0  0  0
   -0.0000    2.0104    0.0000 N   0  0  0  0  0  0  0  0  0  0  0  0
   -0.8675    1.5027    0.0000 C   0  0  0  0  0  0  0  0  0  0  0  0
   -0.8675    0.4975    0.0000 C   0  0  0  0  0  0  0  0  0  0  0  0
    0.0000    0.0000    0.0000 C   0  0  0  0  0  0  0  0  0  0  0  0
    2.5966   -1.5050    0.0000 C   0  0  0  0  0  0  0  0  0  0  0  0
    2.5952   -2.5050    0.0000 C   0  0  0  0  0  0  0  0  0  0  0  0
    3.4026   -3.0951    0.0000 C   0  0  0  0  0  0  0  0  0  0  0  0
    3.0967   -4.0476    0.0000 N   0  0  0  0  0  0  0  0  0  0  0  0
    2.0920   -4.0470    0.0000 N   0  0  0  0  0  0  0  0  0  0  0  0
    1.5030   -4.8551    0.0000 C   0  0  0  0  0  0  0  0  0  0  0  0
    1.7849   -3.0936    0.0000 C   0  0  0  0  0  0  0  0  0  0  0  0
  1  2  2  0  0  0  0
  2  3  1  0  0  0  0
  3  4  1  0  0  0  0
  4  9  2  0  0  0  0
  4  5  1  0  0  0  0
  5  6  2  0  0  0  0
  6  7  1  0  0  0  0
  7  8  2  0  0  0  0
  8  9  1  0  0  0  0
  2 10  1  0  0  0  0
 10 11  1  0  0  0  0
 11 16  2  0  0  0  0
 11 12  1  0  0  0  0
 12 13  2  0  0  0  0
 13 14  1  0  0  0  0
 14 15  1  0  0  0  0
 14 16  1  0  0  0  0
M  END
$$$$
DAR-DIA-842-12
  -OEChem-03222016562D

 16 17  0     0  0  0  0  0  0999 V2000
    0.8646   -1.5025    0.0000 O   0  0  0  0  0  0  0  0  0  0  0  0
    1.7313   -1.0038    0.0000 C   0  0  0  0  0  0  0  0  0  0  0  0
    1.7328   -0.0038    0.0000 N   0  0  0  0  0  0  0  0  0  0  0  0
    0.8675    0.4975    0.0000 C   0  0  0  0  0  0  0  0  0  0  0  0
    0.8675    1.5027    0.0000 C   0  0  0  0  0  0  0  0  0  0  0  0
   -0.0000    2.0104    0.0000 N   0  0  0  0  0  0  0  0  0  0  0  0
   -0.8675    1.5027    0.0000 C   0  0  0  0  0  0  0  0  0  0  0  0
   -0.8675    0.4975    0.0000 C   0  0  0  0  0  0  0  0  0  0  0  0
    0.0000    0.0000    0.0000 C   0  0  0  0  0  0  0  0  0  0  0  0
    2.5966   -1.5050    0.0000 C   0  0  0  0  0  0  0  0  0  0  0  0
    2.5952   -2.5050    0.0000 C   0  0  0  0  0  0  0  0  0  0  0  0
    1.7835   -3.0891    0.0000 C   0  0  0  0  0  0  0  0  0  0  0  0
    2.0912   -4.0422    0.0000 C   0  0  0  0  0  0  0  0  0  0  0  0
    3.0928   -4.0465    0.0000 C   0  0  0  0  0  0  0  0  0  0  0  0
    3.6779   -4.8574    0.0000 C   0  0  0  0  0  0  0  0  0  0  0  0
    3.4055   -3.0917    0.0000 S   0  0  0  0  0  0  0  0  0  0  0  0
  1  2  2  0  0  0  0
  2  3  1  0  0  0  0
  3  4  1  0  0  0  0
  4  9  2  0  0  0  0
  4  5  1  0  0  0  0
  5  6  2  0  0  0  0
  6  7  1  0  0  0  0
  7  8  2  0  0  0  0
  8  9  1  0  0  0  0
  2 10  1  0  0  0  0
 10 11  1  0  0  0  0
 11 16  1  0  0  0  0
 11 12  2  0  0  0  0
 12 13  1  0  0  0  0
 13 14  2  0  0  0  0
 14 15  1  0  0  0  0
 14 16  1  0  0  0  0
M  END
$$$$
DAR-DIA-842-13
  -OEChem-03222016562D

 16 17  0     0  0  0  0  0  0999 V2000
    2.6010    1.4950    0.0000 O   0  0  0  0  0  0  0  0  0  0  0  0
    2.5995    0.4950    0.0000 C   0  0  0  0  0  0  0  0  0  0  0  0
    3.4648   -0.0063    0.0000 C   0  0  0  0  0  0  0  0  0  0  0  0
    4.3316    0.4925    0.0000 C   0  0  0  0  0  0  0  0  0  0  0  0
    5.2492    0.0834    0.0000 S   0  0  0  0  0  0  0  0  0  0  0  0
    5.9160    0.8292    0.0000 C   0  0  0  0  0  0  0  0  0  0  0  0
    6.9106    0.7251    0.0000 Cl  0  0  0  0  0  0  0  0  0  0  0  0
    5.4183    1.6966    0.0000 C   0  0  0  0  0  0  0  0  0  0  0  0
    4.4387    1.4884    0.0000 C   0  0  0  0  0  0  0  0  0  0  0  0
    1.7328   -0.0038    0.0000 N   0  0  0  0  0  0  0  0  0  0  0  0
    0.8675    0.4975    0.0000 C   0  0  0  0  0  0  0  0  0  0  0  0
    0.0000    0.0000    0.0000 C   0  0  0  0  0  0  0  0  0  0  0  0
   -0.8675    0.4975    0.0000 C   0  0  0  0  0  0  0  0  0  0  0  0
   -0.8675    1.5027    0.0000 C   0  0  0  0  0  0  0  0  0  0  0  0
    0.0000    2.0104    0.0000 N   0  0  0  0  0  0  0  0  0  0  0  0
    0.8675    1.5027    0.0000 C   0  0  0  0  0  0  0  0  0  0  0  0
  1  2  2  0  0  0  0
  2  3  1  0  0  0  0
  3  4  1  0  0  0  0
  4  9  2  0  0  0  0
  4  5  1  0  0  0  0
  5  6  1  0  0  0  0
  6  7  1  0  0  0  0
  6  8  2  0  0  0  0
  8  9  1  0  0  0  0
  2 10  1  0  0  0  0
 10 11  1  0  0  0  0
 11 16  2  0  0  0  0
 11 12  1  0  0  0  0
 12 13  2  0  0  0  0
 13 14  1  0  0  0  0
 14 15  2  0  0  0  0
 15 16  1  0  0  0  0
M  END
$$$$
DAR-DIA-842-14
  -OEChem-03222016562D

 17 18  0     0  0  0  0  0  0999 V2000
    2.6010    1.4950    0.0000 O   0  0  0  0  0  0  0  0  0  0  0  0
    2.5995    0.4950    0.0000 C   0  0  0  0  0  0  0  0  0  0  0  0
    3.4648   -0.0063    0.0000 C   0  0  0  0  0  0  0  0  0  0  0  0
    4.3316    0.4925    0.0000 C   0  0  0  0  0  0  0  0  0  0  0  0
    5.2492    0.0834    0.0000 S   0  0  0  0  0  0  0  0  0  0  0  0
    5.9160    0.8292    0.0000 C   0  0  0  0  0  0  0  0  0  0  0  0
    6.9106    0.7251    0.0000 C   0  0  0  0  0  0  0  0  0  0  0  0
    7.9051    0.6210    0.0000 N   0  0  0  0  0  0  0  0  0  0  0  0
    5.4183    1.6966    0.0000 C   0  0  0  0  0  0  0  0  0  0  0  0
    4.4387    1.4884    0.0000 C   0  0  0  0  0  0  0  0  0  0  0  0
    1.7328   -0.0038    0.0000 N   0  0  0  0  0  0  0  0  0  0  0  0
    0.8675    0.4975    0.0000 C   0  0  0  0  0  0  0  0  0  0  0  0
    0.0000    0.0000    0.0000 C   0  0  0  0  0  0  0  0  0  0  0  0
   -0.8675    0.4975    0.0000 C   0  0  0  0  0  0  0  0  0  0  0  0
   -0.8675    1.5027    0.0000 C   0  0  0  0  0  0  0  0  0  0  0  0
    0.0000    2.0104    0.0000 N   0  0  0  0  0  0  0  0  0  0  0  0
    0.8675    1.5027    0.0000 C   0  0  0  0  0  0  0  0  0  0  0  0
  1  2  2  0  0  0  0
  2  3  1  0  0  0  0
  3  4  1  0  0  0  0
  4 10  2  0  0  0  0
  4  5  1  0  0  0  0
  5  6  1  0  0  0  0
  6  7  1  0  0  0  0
  7  8  3  0  0  0  0
  6  9  2  0  0  0  0
  9 10  1  0  0  0  0
  2 11  1  0  0  0  0
 11 12  1  0  0  0  0
 12 17  2  0  0  0  0
 12 13  1  0  0  0  0
 13 14  2  0  0  0  0
 14 15  1  0  0  0  0
 15 16  2  0  0  0  0
 16 17  1  0  0  0  0
M  END
$$$$
DAR-DIA-842-15
  -OEChem-03222016562D

 17 18  0     0  0  0  0  0  0999 V2000
    0.8646   -1.5025    0.0000 O   0  0  0  0  0  0  0  0  0  0  0  0
    1.7313   -1.0038    0.0000 C   0  0  0  0  0  0  0  0  0  0  0  0
    1.7328   -0.0038    0.0000 N   0  0  0  0  0  0  0  0  0  0  0  0
    0.8675    0.4975    0.0000 C   0  0  0  0  0  0  0  0  0  0  0  0
    0.8675    1.5027    0.0000 C   0  0  0  0  0  0  0  0  0  0  0  0
   -0.0000    2.0104    0.0000 N   0  0  0  0  0  0  0  0  0  0  0  0
   -0.8675    1.5027    0.0000 C   0  0  0  0  0  0  0  0  0  0  0  0
   -0.8675    0.4975    0.0000 C   0  0  0  0  0  0  0  0  0  0  0  0
    0.0000    0.0000    0.0000 C   0  0  0  0  0  0  0  0  0  0  0  0
    2.5966   -1.5050    0.0000 C   0  0  0  0  0  0  0  0  0  0  0  0
    2.5952   -2.5050    0.0000 C   0  0  0  0  0  0  0  0  0  0  0  0
    3.4041   -3.0957    0.0000 N   0  0  0  0  0  0  0  0  0  0  0  0
    3.0946   -4.0482    0.0000 C   0  0  0  0  0  0  0  0  0  0  0  0
    2.0946   -4.0455    0.0000 C   0  0  0  0  0  0  0  0  0  0  0  0
    1.5072   -4.8548    0.0000 C   0  0  0  0  0  0  0  0  0  0  0  0
    0.9197   -5.6640    0.0000 N   0  0  0  0  0  0  0  0  0  0  0  0
    1.7821   -3.0951    0.0000 O   0  0  0  0  0  0  0  0  0  0  0  0
  1  2  2  0  0  0  0
  2  3  1  0  0  0  0
  3  4  1  0  0  0  0
  4  9  2  0  0  0  0
  4  5  1  0  0  0  0
  5  6  2  0  0  0  0
  6  7  1  0  0  0  0
  7  8  2  0  0  0  0
  8  9  1  0  0  0  0
  2 10  1  0  0  0  0
 10 11  1  0  0  0  0
 11 17  1  0  0  0  0
 11 12  2  0  0  0  0
 12 13  1  0  0  0  0
 13 14  2  0  0  0  0
 14 15  1  0  0  0  0
 15 16  3  0  0  0  0
 14 17  1  0  0  0  0
M  END
$$$$
DAR-DIA-842-16
  -OEChem-03222016562D

 16 17  0     0  0  0  0  0  0999 V2000
    2.6010    1.4950    0.0000 O   0  0  0  0  0  0  0  0  0  0  0  0
    2.5995    0.4950    0.0000 C   0  0  0  0  0  0  0  0  0  0  0  0
    3.4648   -0.0063    0.0000 C   0  0  0  0  0  0  0  0  0  0  0  0
    4.3316    0.4925    0.0000 C   0  0  0  0  0  0  0  0  0  0  0  0
    5.2492    0.0834    0.0000 O   0  0  0  0  0  0  0  0  0  0  0  0
    5.9160    0.8292    0.0000 C   0  0  0  0  0  0  0  0  0  0  0  0
    6.9106    0.7251    0.0000 C   0  0  0  0  0  0  0  0  0  0  0  0
    5.4183    1.6966    0.0000 C   0  0  0  0  0  0  0  0  0  0  0  0
    4.4387    1.4884    0.0000 N   0  0  0  0  0  0  0  0  0  0  0  0
    1.7328   -0.0038    0.0000 N   0  0  0  0  0  0  0  0  0  0  0  0
    0.8675    0.4975    0.0000 C   0  0  0  0  0  0  0  0  0  0  0  0
    0.0000    0.0000    0.0000 C   0  0  0  0  0  0  0  0  0  0  0  0
   -0.8675    0.4975    0.0000 C   0  0  0  0  0  0  0  0  0  0  0  0
   -0.8675    1.5027    0.0000 C   0  0  0  0  0  0  0  0  0  0  0  0
    0.0000    2.0104    0.0000 N   0  0  0  0  0  0  0  0  0  0  0  0
    0.8675    1.5027    0.0000 C   0  0  0  0  0  0  0  0  0  0  0  0
  1  2  2  0  0  0  0
  2  3  1  0  0  0  0
  3  4  1  0  0  0  0
  4  9  2  0  0  0  0
  4  5  1  0  0  0  0
  5  6  1  0  0  0  0
  6  7  1  0  0  0  0
  6  8  2  0  0  0  0
  8  9  1  0  0  0  0
  2 10  1  0  0  0  0
 10 11  1  0  0  0  0
 11 16  2  0  0  0  0
 11 12  1  0  0  0  0
 12 13  2  0  0  0  0
 13 14  1  0  0  0  0
 14 15  2  0  0  0  0
 15 16  1  0  0  0  0
M  END
$$$$
DAR-DIA-842-17
  -OEChem-03222016562D

 19 21  0     0  0  0  0  0  0999 V2000
    4.2876   -1.2132    0.0000 O   0  0  0  0  0  0  0  0  0  0  0  0
    4.7828   -0.3444    0.0000 C   0  0  0  0  0  0  0  0  0  0  0  0
    4.2780    0.5189    0.0000 C   0  0  0  0  0  0  0  0  0  0  0  0
    3.2780    0.5133    0.0000 C   0  0  0  0  0  0  0  0  0  0  0  0
    2.6851    1.3196    0.0000 N   0  0  0  0  0  0  0  0  0  0  0  0
    1.7350    1.0052    0.0000 C   0  0  0  0  0  0  0  0  0  0  0  0
    0.8675    1.5129    0.0000 N   0  0  0  0  0  0  0  0  0  0  0  0
    0.0000    1.0052    0.0000 C   0  0  0  0  0  0  0  0  0  0  0  0
    0.0000    0.0000    0.0000 C   0  0  0  0  0  0  0  0  0  0  0  0
    0.8675   -0.4975    0.0000 C   0  0  0  0  0  0  0  0  0  0  0  0
    1.7405    0.0044    0.0000 C   0  0  0  0  0  0  0  0  0  0  0  0
    2.6940   -0.2997    0.0000 C   0  0  0  0  0  0  0  0  0  0  0  0
    5.7828   -0.3388    0.0000 N   0  0  0  0  0  0  0  0  0  0  0  0
    6.2876   -1.2020    0.0000 C   0  0  0  0  0  0  0  0  0  0  0  0
    5.8831   -2.1166    0.0000 C   0  0  0  0  0  0  0  0  0  0  0  0
    6.6308   -2.7829    0.0000 C   0  0  0  0  0  0  0  0  0  0  0  0
    7.4969   -2.2797    0.0000 C   0  0  0  0  0  0  0  0  0  0  0  0
    8.4119   -2.6831    0.0000 Cl  0  0  0  0  0  0  0  0  0  0  0  0
    7.2834   -1.2980    0.0000 S   0  0  0  0  0  0  0  0  0  0  0  0
  1  2  2  0  0  0  0
  2  3  1  0  0  0  0
  3  4  1  0  0  0  0
  4 12  2  0  0  0  0
  4  5  1  0  0  0  0
  5  6  1  0  0  0  0
  6 11  1  0  0  0  0
  6  7  2  0  0  0  0
  7  8  1  0  0  0  0
  8  9  2  0  0  0  0
  9 10  1  0  0  0  0
 10 11  2  0  0  0  0
 11 12  1  0  0  0  0
  2 13  1  0  0  0  0
 13 14  1  0  0  0  0
 14 19  1  0  0  0  0
 14 15  2  0  0  0  0
 15 16  1  0  0  0  0
 16 17  2  0  0  0  0
 17 18  1  0  0  0  0
 17 19  1  0  0  0  0
M  END
$$$$
DAR-DIA-842-18
  -OEChem-03222016562D

 19 21  0     0  0  0  0  0  0999 V2000
    4.2683    2.2509    0.0000 O   0  0  0  0  0  0  0  0  0  0  0  0
    4.7732    1.3877    0.0000 C   0  0  0  0  0  0  0  0  0  0  0  0
    5.7731    1.3932    0.0000 N   0  0  0  0  0  0  0  0  0  0  0  0
    6.2683    2.2620    0.0000 C   0  0  0  0  0  0  0  0  0  0  0  0
    7.2668    2.3735    0.0000 S   0  0  0  0  0  0  0  0  0  0  0  0
    7.4645    3.3543    0.0000 C   0  0  0  0  0  0  0  0  0  0  0  0
    8.3750    3.7678    0.0000 C   0  0  0  0  0  0  0  0  0  0  0  0
    6.5962    3.8505    0.0000 C   0  0  0  0  0  0  0  0  0  0  0  0
    5.8567    3.1752    0.0000 C   0  0  0  0  0  0  0  0  0  0  0  0
    4.2780    0.5189    0.0000 C   0  0  0  0  0  0  0  0  0  0  0  0
    3.2780    0.5133    0.0000 C   0  0  0  0  0  0  0  0  0  0  0  0
    2.6940   -0.2997    0.0000 C   0  0  0  0  0  0  0  0  0  0  0  0
    1.7405    0.0044    0.0000 C   0  0  0  0  0  0  0  0  0  0  0  0
    1.7350    1.0052    0.0000 C   0  0  0  0  0  0  0  0  0  0  0  0
    0.8675    1.5129    0.0000 N   0  0  0  0  0  0  0  0  0  0  0  0
    0.0000    1.0052    0.0000 C   0  0  0  0  0  0  0  0  0  0  0  0
    0.0000    0.0000    0.0000 C   0  0  0  0  0  0  0  0  0  0  0  0
    0.8675   -0.4975    0.0000 C   0  0  0  0  0  0  0  0  0  0  0  0
    2.6851    1.3196    0.0000 N   0  0  0  0  0  0  0  0  0  0  0  0
  1  2  2  0  0  0  0
  2  3  1  0  0  0  0
  3  4  1  0  0  0  0
  4  9  2  0  0  0  0
  4  5  1  0  0  0  0
  5  6  1  0  0  0  0
  6  7  1  0  0  0  0
  6  8  2  0  0  0  0
  8  9  1  0  0  0  0
  2 10  1  0  0  0  0
 10 11  1  0  0  0  0
 11 19  1  0  0  0  0
 11 12  2  0  0  0  0
 12 13  1  0  0  0  0
 13 18  2  0  0  0  0
 13 14  1  0  0  0  0
 14 15  2  0  0  0  0
 15 16  1  0  0  0  0
 16 17  2  0  0  0  0
 17 18  1  0  0  0  0
 14 19  1  0  0  0  0
M  END
$$$$
DAR-DIA-842-19
  -OEChem-03222016562D

 20 22  0     0  0  0  0  0  0999 V2000
    4.2876   -1.2132    0.0000 O   0  0  0  0  0  0  0  0  0  0  0  0
    4.7828   -0.3444    0.0000 C   0  0  0  0  0  0  0  0  0  0  0  0
    4.2780    0.5189    0.0000 C   0  0  0  0  0  0  0  0  0  0  0  0
    3.2780    0.5133    0.0000 C   0  0  0  0  0  0  0  0  0  0  0  0
    2.6851    1.3196    0.0000 N   0  0  0  0  0  0  0  0  0  0  0  0
    1.7350    1.0052    0.0000 C   0  0  0  0  0  0  0  0  0  0  0  0
    0.8675    1.5129    0.0000 N   0  0  0  0  0  0  0  0  0  0  0  0
    0.0000    1.0052    0.0000 C   0  0  0  0  0  0  0  0  0  0  0  0
    0.0000    0.0000    0.0000 C   0  0  0  0  0  0  0  0  0  0  0  0
    0.8675   -0.4975    0.0000 C   0  0  0  0  0  0  0  0  0  0  0  0
    1.7405    0.0044    0.0000 C   0  0  0  0  0  0  0  0  0  0  0  0
    2.6940   -0.2997    0.0000 C   0  0  0  0  0  0  0  0  0  0  0  0
    5.7828   -0.3388    0.0000 N   0  0  0  0  0  0  0  0  0  0  0  0
    6.2876   -1.2020    0.0000 C   0  0  0  0  0  0  0  0  0  0  0  0
    5.8831   -2.1166    0.0000 C   0  0  0  0  0  0  0  0  0  0  0  0
    6.6308   -2.7829    0.0000 C   0  0  0  0  0  0  0  0  0  0  0  0
    7.4969   -2.2797    0.0000 C   0  0  0  0  0  0  0  0  0  0  0  0
    8.4119   -2.6831    0.0000 C   0  0  0  0  0  0  0  0  0  0  0  0
    9.3270   -3.0864    0.0000 N   0  0  0  0  0  0  0  0  0  0  0  0
    7.2834   -1.2980    0.0000 S   0  0  0  0  0  0  0  0  0  0  0  0
  1  2  2  0  0  0  0
  2  3  1  0  0  0  0
  3  4  1  0  0  0  0
  4 12  2  0  0  0  0
  4  5  1  0  0  0  0
  5  6  1  0  0  0  0
  6 11  2  0  0  0  0
  6  7  1  0  0  0  0
  7  8  2  0  0  0  0
  8  9  1  0  0  0  0
  9 10  2  0  0  0  0
 10 11  1  0  0  0  0
 11 12  1  0  0  0  0
  2 13  1  0  0  0  0
 13 14  1  0  0  0  0
 14 20  1  0  0  0  0
 14 15  2  0  0  0  0
 15 16  1  0  0  0  0
 16 17  2  0  0  0  0
 17 18  1  0  0  0  0
 18 19  3  0  0  0  0
 17 20  1  0  0  0  0
M  END
$$$$
DAR-DIA-842-20
  -OEChem-03222016562D

 20 22  0     0  0  0  0  0  0999 V2000
    4.2683    2.2509    0.0000 O   0  0  0  0  0  0  0  0  0  0  0  0
    4.7732    1.3877    0.0000 C   0  0  0  0  0  0  0  0  0  0  0  0
    5.7731    1.3932    0.0000 N   0  0  0  0  0  0  0  0  0  0  0  0
    6.2683    2.2620    0.0000 C   0  0  0  0  0  0  0  0  0  0  0  0
    7.2668    2.3735    0.0000 O   0  0  0  0  0  0  0  0  0  0  0  0
    7.4645    3.3543    0.0000 C   0  0  0  0  0  0  0  0  0  0  0  0
    8.3750    3.7678    0.0000 C   0  0  0  0  0  0  0  0  0  0  0  0
    9.2855    4.1813    0.0000 N   0  0  0  0  0  0  0  0  0  0  0  0
    6.5962    3.8505    0.0000 C   0  0  0  0  0  0  0  0  0  0  0  0
    5.8567    3.1752    0.0000 N   0  0  0  0  0  0  0  0  0  0  0  0
    4.2780    0.5189    0.0000 C   0  0  0  0  0  0  0  0  0  0  0  0
    3.2780    0.5133    0.0000 C   0  0  0  0  0  0  0  0  0  0  0  0
    2.6940   -0.2997    0.0000 C   0  0  0  0  0  0  0  0  0  0  0  0
    1.7405    0.0044    0.0000 C   0  0  0  0  0  0  0  0  0  0  0  0
    1.7350    1.0052    0.0000 C   0  0  0  0  0  0  0  0  0  0  0  0
    0.8675    1.5129    0.0000 N   0  0  0  0  0  0  0  0  0  0  0  0
    0.0000    1.0052    0.0000 C   0  0  0  0  0  0  0  0  0  0  0  0
    0.0000    0.0000    0.0000 C   0  0  0  0  0  0  0  0  0  0  0  0
    0.8675   -0.4975    0.0000 C   0  0  0  0  0  0  0  0  0  0  0  0
    2.6851    1.3196    0.0000 N   0  0  0  0  0  0  0  0  0  0  0  0
  1  2  2  0  0  0  0
  2  3  1  0  0  0  0
  3  4  1  0  0  0  0
  4 10  2  0  0  0  0
  4  5  1  0  0  0  0
  5  6  1  0  0  0  0
  6  7  1  0  0  0  0
  7  8  3  0  0  0  0
  6  9  2  0  0  0  0
  9 10  1  0  0  0  0
  2 11  1  0  0  0  0
 11 12  1  0  0  0  0
 12 20  1  0  0  0  0
 12 13  2  0  0  0  0
 13 14  1  0  0  0  0
 14 19  2  0  0  0  0
 14 15  1  0  0  0  0
 15 16  2  0  0  0  0
 16 17  1  0  0  0  0
 17 18  2  0  0  0  0
 18 19  1  0  0  0  0
 15 20  1  0  0  0  0
M  END
$$$$
DAR-DIA-842-21
  -OEChem-03222016562D

 19 21  0     0  0  0  0  0  0999 V2000
    4.2876   -1.2132    0.0000 O   0  0  0  0  0  0  0  0  0  0  0  0
    4.7828   -0.3444    0.0000 C   0  0  0  0  0  0  0  0  0  0  0  0
    4.2780    0.5189    0.0000 C   0  0  0  0  0  0  0  0  0  0  0  0
    3.2780    0.5133    0.0000 C   0  0  0  0  0  0  0  0  0  0  0  0
    2.6851    1.3196    0.0000 N   0  0  0  0  0  0  0  0  0  0  0  0
    1.7350    1.0052    0.0000 C   0  0  0  0  0  0  0  0  0  0  0  0
    0.8675    1.5129    0.0000 N   0  0  0  0  0  0  0  0  0  0  0  0
    0.0000    1.0052    0.0000 C   0  0  0  0  0  0  0  0  0  0  0  0
    0.0000    0.0000    0.0000 C   0  0  0  0  0  0  0  0  0  0  0  0
    0.8675   -0.4975    0.0000 C   0  0  0  0  0  0  0  0  0  0  0  0
    1.7405    0.0044    0.0000 C   0  0  0  0  0  0  0  0  0  0  0  0
    2.6940   -0.2997    0.0000 C   0  0  0  0  0  0  0  0  0  0  0  0
    5.7828   -0.3388    0.0000 N   0  0  0  0  0  0  0  0  0  0  0  0
    6.2876   -1.2020    0.0000 C   0  0  0  0  0  0  0  0  0  0  0  0
    7.2842   -1.3021    0.0000 N   0  0  0  0  0  0  0  0  0  0  0  0
    7.4993   -2.2803    0.0000 C   0  0  0  0  0  0  0  0  0  0  0  0
    6.6354   -2.7840    0.0000 C   0  0  0  0  0  0  0  0  0  0  0  0
    6.5383   -3.7793    0.0000 C   0  0  0  0  0  0  0  0  0  0  0  0
    5.8850   -2.1225    0.0000 O   0  0  0  0  0  0  0  0  0  0  0  0
  1  2  2  0  0  0  0
  2  3  1  0  0  0  0
  3  4  1  0  0  0  0
  4 12  2  0  0  0  0
  4  5  1  0  0  0  0
  5  6  1  0  0  0  0
  6 11  2  0  0  0  0
  6  7  1  0  0  0  0
  7  8  2  0  0  0  0
  8  9  1  0  0  0  0
  9 10  2  0  0  0  0
 10 11  1  0  0  0  0
 11 12  1  0  0  0  0
  2 13  1  0  0  0  0
 13 14  1  0  0  0  0
 14 19  1  0  0  0  0
 14 15  2  0  0  0  0
 15 16  1  0  0  0  0
 16 17  2  0  0  0  0
 17 18  1  0  0  0  0
 17 19  1  0  0  0  0
M  END
$$$$
DAR-DIA-842-22
  -OEChem-03222016562D

 19 21  0     0  0  0  0  0  0999 V2000
    4.2683    2.2509    0.0000 O   0  0  0  0  0  0  0  0  0  0  0  0
    4.7732    1.3877    0.0000 C   0  0  0  0  0  0  0  0  0  0  0  0
    5.7731    1.3932    0.0000 N   0  0  0  0  0  0  0  0  0  0  0  0
    6.2683    2.2620    0.0000 C   0  0  0  0  0  0  0  0  0  0  0  0
    7.2668    2.3735    0.0000 O   0  0  0  0  0  0  0  0  0  0  0  0
    7.4645    3.3543    0.0000 C   0  0  0  0  0  0  0  0  0  0  0  0
    8.3750    3.7678    0.0000 Cl  0  0  0  0  0  0  0  0  0  0  0  0
    6.5962    3.8505    0.0000 C   0  0  0  0  0  0  0  0  0  0  0  0
    5.8567    3.1752    0.0000 N   0  0  0  0  0  0  0  0  0  0  0  0
    4.2780    0.5189    0.0000 C   0  0  0  0  0  0  0  0  0  0  0  0
    3.2780    0.5133    0.0000 C   0  0  0  0  0  0  0  0  0  0  0  0
    2.6940   -0.2997    0.0000 C   0  0  0  0  0  0  0  0  0  0  0  0
    1.7405    0.0044    0.0000 C   0  0  0  0  0  0  0  0  0  0  0  0
    1.7350    1.0052    0.0000 C   0  0  0  0  0  0  0  0  0  0  0  0
    0.8675    1.5129    0.0000 N   0  0  0  0  0  0  0  0  0  0  0  0
    0.0000    1.0052    0.0000 C   0  0  0  0  0  0  0  0  0  0  0  0
    0.0000    0.0000    0.0000 C   0  0  0  0  0  0  0  0  0  0  0  0
    0.8675   -0.4975    0.0000 C   0  0  0  0  0  0  0  0  0  0  0  0
    2.6851    1.3196    0.0000 N   0  0  0  0  0  0  0  0  0  0  0  0
  1  2  2  0  0  0  0
  2  3  1  0  0  0  0
  3  4  1  0  0  0  0
  4  9  2  0  0  0  0
  4  5  1  0  0  0  0
  5  6  1  0  0  0  0
  6  7  1  0  0  0  0
  6  8  2  0  0  0  0
  8  9  1  0  0  0  0
  2 10  1  0  0  0  0
 10 11  1  0  0  0  0
 11 19  1  0  0  0  0
 11 12  2  0  0  0  0
 12 13  1  0  0  0  0
 13 18  2  0  0  0  0
 13 14  1  0  0  0  0
 14 15  2  0  0  0  0
 15 16  1  0  0  0  0
 16 17  2  0  0  0  0
 17 18  1  0  0  0  0
 14 19  1  0  0  0  0
M  END
$$$$
DAR-DIA-842-23
  -OEChem-03222016562D

 19 21  0     0  0  0  0  0  0999 V2000
    4.2683    2.2509    0.0000 O   0  0  0  0  0  0  0  0  0  0  0  0
    4.7732    1.3877    0.0000 C   0  0  0  0  0  0  0  0  0  0  0  0
    5.7731    1.3932    0.0000 N   0  0  0  0  0  0  0  0  0  0  0  0
    6.2683    2.2620    0.0000 C   0  0  0  0  0  0  0  0  0  0  0  0
    7.2636    2.3736    0.0000 C   0  0  0  0  0  0  0  0  0  0  0  0
    7.4674    3.3543    0.0000 N   0  0  0  0  0  0  0  0  0  0  0  0
    8.3787    3.7660    0.0000 C   0  0  0  0  0  0  0  0  0  0  0  0
    6.5942    3.8510    0.0000 N   0  0  0  0  0  0  0  0  0  0  0  0
    5.8577    3.1739    0.0000 C   0  0  0  0  0  0  0  0  0  0  0  0
    4.2780    0.5189    0.0000 C   0  0  0  0  0  0  0  0  0  0  0  0
    3.2780    0.5133    0.0000 C   0  0  0  0  0  0  0  0  0  0  0  0
    2.6940   -0.2997    0.0000 C   0  0  0  0  0  0  0  0  0  0  0  0
    1.7405    0.0044    0.0000 C   0  0  0  0  0  0  0  0  0  0  0  0
    1.7350    1.0052    0.0000 C   0  0  0  0  0  0  0  0  0  0  0  0
    0.8675    1.5129    0.0000 N   0  0  0  0  0  0  0  0  0  0  0  0
    0.0000    1.0052    0.0000 C   0  0  0  0  0  0  0  0  0  0  0  0
    0.0000    0.0000    0.0000 C   0  0  0  0  0  0  0  0  0  0  0  0
    0.8675   -0.4975    0.0000 C   0  0  0  0  0  0  0  0  0  0  0  0
    2.6851    1.3196    0.0000 N   0  0  0  0  0  0  0  0  0  0  0  0
  1  2  2  0  0  0  0
  2  3  1  0  0  0  0
  3  4  1  0  0  0  0
  4  9  1  0  0  0  0
  4  5  2  0  0  0  0
  5  6  1  0  0  0  0
  6  7  1  0  0  0  0
  6  8  1  0  0  0  0
  8  9  2  0  0  0  0
  2 10  1  0  0  0  0
 10 11  1  0  0  0  0
 11 19  1  0  0  0  0
 11 12  2  0  0  0  0
 12 13  1  0  0  0  0
 13 18  2  0  0  0  0
 13 14  1  0  0  0  0
 14 15  2  0  0  0  0
 15 16  1  0  0  0  0
 16 17  2  0  0  0  0
 17 18  1  0  0  0  0
 14 19  1  0  0  0  0
M  END
$$$$
DAR-DIA-842-24
  -OEChem-03222016562D

 18 20  0     0  0  0  0  0  0999 V2000
    4.2876   -1.2132    0.0000 O   0  0  0  0  0  0  0  0  0  0  0  0
    4.7828   -0.3444    0.0000 C   0  0  0  0  0  0  0  0  0  0  0  0
    4.2780    0.5189    0.0000 C   0  0  0  0  0  0  0  0  0  0  0  0
    3.2780    0.5133    0.0000 C   0  0  0  0  0  0  0  0  0  0  0  0
    2.6851    1.3196    0.0000 N   0  0  0  0  0  0  0  0  0  0  0  0
    1.7350    1.0052    0.0000 C   0  0  0  0  0  0  0  0  0  0  0  0
    0.8675    1.5129    0.0000 N   0  0  0  0  0  0  0  0  0  0  0  0
    0.0000    1.0052    0.0000 C   0  0  0  0  0  0  0  0  0  0  0  0
    0.0000    0.0000    0.0000 C   0  0  0  0  0  0  0  0  0  0  0  0
    0.8675   -0.4975    0.0000 C   0  0  0  0  0  0  0  0  0  0  0  0
    1.7405    0.0044    0.0000 C   0  0  0  0  0  0  0  0  0  0  0  0
    2.6940   -0.2997    0.0000 C   0  0  0  0  0  0  0  0  0  0  0  0
    5.7828   -0.3388    0.0000 N   0  0  0  0  0  0  0  0  0  0  0  0
    6.2876   -1.2020    0.0000 C   0  0  0  0  0  0  0  0  0  0  0  0
    7.2843   -1.3000    0.0000 C   0  0  0  0  0  0  0  0  0  0  0  0
    7.4962   -2.2773    0.0000 C   0  0  0  0  0  0  0  0  0  0  0  0
    6.6350   -2.7864    0.0000 S   0  0  0  0  0  0  0  0  0  0  0  0
    5.8842   -2.1189    0.0000 C   0  0  0  0  0  0  0  0  0  0  0  0
  1  2  2  0  0  0  0
  2  3  1  0  0  0  0
  3  4  1  0  0  0  0
  4 12  2  0  0  0  0
  4  5  1  0  0  0  0
  5  6  1  0  0  0  0
  6 11  2  0  0  0  0
  6  7  1  0  0  0  0
  7  8  2  0  0  0  0
  8  9  1  0  0  0  0
  9 10  2  0  0  0  0
 10 11  1  0  0  0  0
 11 12  1  0  0  0  0
  2 13  1  0  0  0  0
 13 14  1  0  0  0  0
 14 18  2  0  0  0  0
 14 15  1  0  0  0  0
 15 16  2  0  0  0  0
 16 17  1  0  0  0  0
 17 18  1  0  0  0  0
M  END
$$$$
SAM-UNK-83e-1
  -OEChem-03222016562D

 27 29  0     0  0  0  0  0  0999 V2000
    0.8680    1.5138    0.0000 C   0  0  0  0  0  0  0  0  0  0  0  0
    0.0000    1.0058    0.0000 C   0  0  0  0  0  0  0  0  0  0  0  0
    0.0000    0.0000    0.0000 C   0  0  0  0  0  0  0  0  0  0  0  0
    0.8680   -0.4978    0.0000 C   0  0  0  0  0  0  0  0  0  0  0  0
    1.7360   -0.0012    0.0000 C   0  0  0  0  0  0  0  0  0  0  0  0
    1.7360    1.0058    0.0000 C   0  0  0  0  0  0  0  0  0  0  0  0
    2.6938    1.3169    0.0000 N   0  0  0  0  0  0  0  0  0  0  0  0
    3.2858    0.5023    0.0000 C   0  0  0  0  0  0  0  0  0  0  0  0
    2.6938   -0.3125    0.0000 C   0  0  0  0  0  0  0  0  0  0  0  0
    3.0028   -1.2636    0.0000 C   0  0  0  0  0  0  0  0  0  0  0  0
    3.9809   -1.4715    0.0000 C   0  0  0  0  0  0  0  0  0  0  0  0
    4.2899   -2.4226    0.0000 N   0  0  0  0  0  0  0  0  0  0  0  0
    5.2680   -2.6306    0.0000 C   0  0  0  0  0  0  0  0  0  0  0  0
    5.5770   -3.5816    0.0000 C   0  0  0  0  0  0  0  0  0  0  0  0
    5.9372   -1.8874    0.0000 O   0  0  0  0  0  0  0  0  0  0  0  0
    3.7880   -2.9799    0.0000 H   0  0  0  0  0  0  0  0  0  0  0  0
    2.9256    2.0302    0.0000 H   0  0  0  0  0  0  0  0  0  0  0  0
   -0.8653   -0.5013    0.0000 F   0  0  0  0  0  0  0  0  0  0  0  0
    0.8680    2.5138    0.0000 C   0  0  0  0  0  0  0  0  0  0  0  0
    0.0020    3.0138    0.0000 N   0  0  0  0  0  0  0  0  0  0  0  0
   -0.0040    4.0189    0.0000 C   0  0  0  0  0  0  0  0  0  0  0  0
   -0.8745    4.5215    0.0000 C   0  0  0  0  0  0  0  0  0  0  0  0
   -1.7391    4.0190    0.0000 C   0  0  0  0  0  0  0  0  0  0  0  0
   -1.7420    3.0190    0.0000 C   0  0  0  0  0  0  0  0  0  0  0  0
   -0.8715    2.5164    0.0000 C   0  0  0  0  0  0  0  0  0  0  0  0
   -2.6051    4.5190    0.0000 O   0  0  0  0  0  0  0  0  0  0  0  0
   -3.2546    4.1440    0.0000 H   0  0  0  0  0  0  0  0  0  0  0  0
  1  6  1  0  0  0  0
  1  2  2  0  0  0  0
  2  3  1  0  0  0  0
  3  4  2  0  0  0  0
  4  5  1  0  0  0  0
  5  9  1  0  0  0  0
  5  6  2  0  0  0  0
  6  7  1  0  0  0  0
  7  8  1  0  0  0  0
  8  9  2  0  0  0  0
  9 10  1  0  0  0  0
 10 11  2  3  0  0  0
 11 12  1  0  0  0  0
 12 13  1  0  0  0  0
 13 14  1  0  0  0  0
 13 15  2  0  0  0  0
 12 16  1  0  0  0  0
  7 17  1  0  0  0  0
  3 18  1  0  0  0  0
  1 19  1  0  0  0  0
 19 20  1  0  0  0  0
 20 25  1  0  0  0  0
 20 21  1  0  0  0  0
 21 22  1  0  0  0  0
 22 23  1  0  0  0  0
 23 24  1  0  0  0  0
 24 25  1  0  0  0  0
 23 26  1  0  0  0  0
 26 27  1  0  0  0  0
M  END
$$$$
SAM-UNK-83e-2
  -OEChem-03222016562D

 26 27  0     0  0  0  0  0  0999 V2000
    0.8680    1.5138    0.0000 C   0  0  0  0  0  0  0  0  0  0  0  0
    0.0000    1.0058    0.0000 C   0  0  0  0  0  0  0  0  0  0  0  0
    0.0000    0.0000    0.0000 C   0  0  0  0  0  0  0  0  0  0  0  0
    0.8680   -0.4978    0.0000 C   0  0  0  0  0  0  0  0  0  0  0  0
    1.7360   -0.0012    0.0000 C   0  0  0  0  0  0  0  0  0  0  0  0
    1.7360    1.0058    0.0000 C   0  0  0  0  0  0  0  0  0  0  0  0
    2.6938    1.3169    0.0000 N   0  0  0  0  0  0  0  0  0  0  0  0
    3.2858    0.5023    0.0000 C   0  0  0  0  0  0  0  0  0  0  0  0
    2.6938   -0.3125    0.0000 C   0  0  0  0  0  0  0  0  0  0  0  0
    3.0028   -1.2636    0.0000 C   0  0  0  0  0  0  0  0  0  0  0  0
    3.9809   -1.4715    0.0000 C   0  0  0  0  0  0  0  0  0  0  0  0
    4.2899   -2.4226    0.0000 N   0  0  0  0  0  0  0  0  0  0  0  0
    5.2680   -2.6306    0.0000 C   0  0  0  0  0  0  0  0  0  0  0  0
    5.5770   -3.5816    0.0000 C   0  0  0  0  0  0  0  0  0  0  0  0
    5.9372   -1.8874    0.0000 O   0  0  0  0  0  0  0  0  0  0  0  0
    3.7880   -2.9799    0.0000 H   0  0  0  0  0  0  0  0  0  0  0  0
    2.9256    2.0302    0.0000 H   0  0  0  0  0  0  0  0  0  0  0  0
   -0.8653   -0.5013    0.0000 F   0  0  0  0  0  0  0  0  0  0  0  0
    0.8680    2.5138    0.0000 C   0  0  0  0  0  0  0  0  0  0  0  0
    0.0020    3.0138    0.0000 C   0  0  0  0  0  0  0  0  0  0  0  0
    0.0020    4.0138    0.0000 N   0  0  0  0  0  0  0  0  0  0  0  0
   -0.8641    4.5138    0.0000 S   0  0  0  0  0  0  0  0  0  0  0  0
   -1.7301    5.0138    0.0000 C   0  0  0  0  0  0  0  0  0  0  0  0
   -1.3641    3.6478    0.0000 O   0  0  0  0  0  0  0  0  0  0  0  0
   -0.3640    5.3798    0.0000 O   0  0  0  0  0  0  0  0  0  0  0  0
    0.6515    4.3888    0.0000 H   0  0  0  0  0  0  0  0  0  0  0  0
  1  6  1  0  0  0  0
  1  2  2  0  0  0  0
  2  3  1  0  0  0  0
  3  4  2  0  0  0  0
  4  5  1  0  0  0  0
  5  9  1  0  0  0  0
  5  6  2  0  0  0  0
  6  7  1  0  0  0  0
  7  8  1  0  0  0  0
  8  9  2  0  0  0  0
  9 10  1  0  0  0  0
 10 11  2  3  0  0  0
 11 12  1  0  0  0  0
 12 13  1  0  0  0  0
 13 14  1  0  0  0  0
 13 15  2  0  0  0  0
 12 16  1  0  0  0  0
  7 17  1  0  0  0  0
  3 18  1  0  0  0  0
  1 19  1  0  0  0  0
 19 20  1  0  0  0  0
 20 21  1  0  0  0  0
 21 22  1  0  0  0  0
 22 23  1  0  0  0  0
 22 24  2  0  0  0  0
 22 25  2  0  0  0  0
 21 26  1  0  0  0  0
M  END
$$$$
SAM-UNK-83e-3
  -OEChem-03222016562D

 26 27  0     0  0  0  0  0  0999 V2000
    0.8680    1.5138    0.0000 C   0  0  0  0  0  0  0  0  0  0  0  0
    0.0000    1.0058    0.0000 C   0  0  0  0  0  0  0  0  0  0  0  0
    0.0000    0.0000    0.0000 C   0  0  0  0  0  0  0  0  0  0  0  0
    0.8680   -0.4978    0.0000 C   0  0  0  0  0  0  0  0  0  0  0  0
    1.7360   -0.0012    0.0000 C   0  0  0  0  0  0  0  0  0  0  0  0
    1.7360    1.0058    0.0000 C   0  0  0  0  0  0  0  0  0  0  0  0
    2.6938    1.3169    0.0000 N   0  0  0  0  0  0  0  0  0  0  0  0
    3.2858    0.5023    0.0000 C   0  0  0  0  0  0  0  0  0  0  0  0
    2.6938   -0.3125    0.0000 C   0  0  0  0  0  0  0  0  0  0  0  0
    3.0028   -1.2636    0.0000 C   0  0  0  0  0  0  0  0  0  0  0  0
    3.9809   -1.4715    0.0000 C   0  0  0  0  0  0  0  0  0  0  0  0
    4.2899   -2.4226    0.0000 N   0  0  0  0  0  0  0  0  0  0  0  0
    5.2680   -2.6306    0.0000 C   0  0  0  0  0  0  0  0  0  0  0  0
    5.5770   -3.5816    0.0000 C   0  0  0  0  0  0  0  0  0  0  0  0
    5.9372   -1.8874    0.0000 O   0  0  0  0  0  0  0  0  0  0  0  0
    3.7880   -2.9799    0.0000 H   0  0  0  0  0  0  0  0  0  0  0  0
    2.9256    2.0302    0.0000 H   0  0  0  0  0  0  0  0  0  0  0  0
   -0.8653   -0.5013    0.0000 F   0  0  0  0  0  0  0  0  0  0  0  0
    0.8680    2.5138    0.0000 C   0  0  0  0  0  0  0  0  0  0  0  0
    0.0020    3.0138    0.0000 C   0  0  0  0  0  0  0  0  0  0  0  0
    0.0020    4.0138    0.0000 N   0  0  0  0  0  0  0  0  0  0  0  0
   -0.8641    4.5138    0.0000 S   0  0  0  0  0  0  0  0  0  0  0  0
   -1.7301    5.0138    0.0000 C   0  0  0  0  0  0  0  0  0  0  0  0
   -1.3641    3.6478    0.0000 O   0  0  0  0  0  0  0  0  0  0  0  0
   -0.3640    5.3798    0.0000 O   0  0  0  0  0  0  0  0  0  0  0  0
    0.6515    4.3888    0.0000 H   0  0  0  0  0  0  0  0  0  0  0  0
  1  6  1  0  0  0  0
  1  2  2  0  0  0  0
  2  3  1  0  0  0  0
  3  4  2  0  0  0  0
  4  5  1  0  0  0  0
  5  9  1  0  0  0  0
  5  6  2  0  0  0  0
  6  7  1  0  0  0  0
  7  8  1  0  0  0  0
  8  9  2  0  0  0  0
  9 10  1  0  0  0  0
 10 11  2  3  0  0  0
 11 12  1  0  0  0  0
 12 13  1  0  0  0  0
 13 14  1  0  0  0  0
 13 15  2  0  0  0  0
 12 16  1  0  0  0  0
  7 17  1  0  0  0  0
  3 18  1  0  0  0  0
  1 19  1  0  0  0  0
 19 20  2  3  0  0  0
 20 21  1  0  0  0  0
 21 22  1  0  0  0  0
 22 23  1  0  0  0  0
 22 24  2  0  0  0  0
 22 25  2  0  0  0  0
 21 26  1  0  0  0  0
M  END
$$$$
AGN-NEW-817-1
  -OEChem-03222016562D

 36 39  0     0  0  0  0  0  0999 V2000
    0.0015   -1.9975    0.0000 C   0  0  0  0  0  0  0  0  0  0  0  0
    0.8675   -1.4975    0.0000 C   0  0  0  0  0  0  0  0  0  0  0  0
    0.8675   -0.4975    0.0000 C   0  0  0  0  0  0  0  0  0  0  0  0
    1.7350    0.0000    0.0000 N   0  0  0  0  0  0  0  0  0  0  0  0
    1.7350    1.0052    0.0000 C   0  0  0  0  0  0  0  0  0  0  0  0
    2.6025    1.5026    0.0000 N   0  0  0  0  0  0  0  0  0  0  0  0
    2.6054    2.5026    0.0000 C   0  0  0  0  0  0  0  0  0  0  0  0
    1.7409    3.0052    0.0000 N   0  0  0  0  0  0  0  0  0  0  0  0
    1.7439    4.0052    0.0000 C   0  0  0  0  0  0  0  0  0  0  0  0
    2.6151    4.5065    0.0000 C   0  0  0  0  0  0  0  0  0  0  0  0
    3.4789    4.0026    0.0000 C   0  0  0  0  0  0  0  0  0  0  0  0
    2.6226    5.5116    0.0000 N   0  0  0  0  0  0  0  0  0  0  0  0
    1.7499    6.0103    0.0000 C   0  0  0  0  0  0  0  0  0  0  0  0
    0.8786    5.5090    0.0000 C   0  0  0  0  0  0  0  0  0  0  0  0
    0.8800    4.5090    0.0000 C   0  0  0  0  0  0  0  0  0  0  0  0
    0.0132    4.0103    0.0000 C   0  0  0  0  0  0  0  0  0  0  0  0
   -0.8520    4.5116    0.0000 N   0  0  0  0  0  0  0  0  0  0  0  0
   -0.8476    5.5116    0.0000 C   0  0  0  0  0  0  0  0  0  0  0  0
   -1.7174    6.0155    0.0000 C   0  0  0  0  0  0  0  0  0  0  0  0
   -2.5916    5.5194    0.0000 O   0  0  0  0  0  0  0  0  0  0  0  0
   -2.5872    4.5143    0.0000 C   0  0  0  0  0  0  0  0  0  0  0  0
   -1.7174    4.0104    0.0000 C   0  0  0  0  0  0  0  0  0  0  0  0
    3.4729    3.0001    0.0000 O   0  0  0  0  0  0  0  0  0  0  0  0
    3.4670    1.0001    0.0000 C   0  0  0  0  0  0  0  0  0  0  0  0
    4.3345    1.4975    0.0000 C   0  0  0  0  0  0  0  0  0  0  0  0
    5.2020    0.9898    0.0000 N   0  0  0  0  0  0  0  0  0  0  0  0
    6.0695    1.4975    0.0000 C   0  0  0  0  0  0  0  0  0  0  0  0
    6.9370    1.0001    0.0000 C   0  0  0  0  0  0  0  0  0  0  0  0
    7.8045    0.5026    0.0000 C   0  0  0  0  0  0  0  0  0  0  0  0
    6.0695    2.5027    0.0000 C   0  0  0  0  0  0  0  0  0  0  0  0
    5.2020    3.0002    0.0000 C   0  0  0  0  0  0  0  0  0  0  0  0
    4.3345    2.5027    0.0000 C   0  0  0  0  0  0  0  0  0  0  0  0
    0.8675    1.5129    0.0000 N   0  0  0  0  0  0  0  0  0  0  0  0
    0.0000    1.0052    0.0000 C   0  0  0  0  0  0  0  0  0  0  0  0
    0.0000    0.0000    0.0000 C   0  0  0  0  0  0  0  0  0  0  0  0
    1.7335   -1.9975    0.0000 C   0  0  0  0  0  0  0  0  0  0  0  0
  1  2  1  0  0  0  0
  2  3  1  0  0  0  0
  3 35  2  0  0  0  0
  3  4  1  0  0  0  0
  4  5  2  0  0  0  0
  5  6  1  0  0  0  0
  6  7  1  0  0  0  0
  7  8  1  0  0  0  0
  8  9  1  0  0  0  0
  9 15  1  0  0  0  0
  9 10  2  0  0  0  0
 10 11  1  0  0  0  0
 10 12  1  0  0  0  0
 12 13  2  0  0  0  0
 13 14  1  0  0  0  0
 14 15  2  0  0  0  0
 15 16  1  0  0  0  0
 16 17  1  0  0  0  0
 17 22  1  0  0  0  0
 17 18  1  0  0  0  0
 18 19  1  0  0  0  0
 19 20  1  0  0  0  0
 20 21  1  0  0  0  0
 21 22  1  0  0  0  0
  7 23  2  0  0  0  0
  6 24  1  0  0  0  0
 24 25  1  0  0  0  0
 25 32  2  0  0  0  0
 25 26  1  0  0  0  0
 26 27  2  0  0  0  0
 27 28  1  0  0  0  0
 28 29  3  0  0  0  0
 27 30  1  0  0  0  0
 30 31  2  0  0  0  0
 31 32  1  0  0  0  0
  5 33  1  0  0  0  0
 33 34  2  0  0  0  0
 34 35  1  0  0  0  0
  2 36  1  0  0  0  0
M  END
$$$$
AGN-NEW-817-2
  -OEChem-03222016562D

 36 39  0     0  0  0  0  0  0999 V2000
    0.0015   -1.9975    0.0000 C   0  0  0  0  0  0  0  0  0  0  0  0
    0.8675   -1.4975    0.0000 C   0  0  0  0  0  0  0  0  0  0  0  0
    0.8675   -0.4975    0.0000 C   0  0  0  0  0  0  0  0  0  0  0  0
    1.7350    0.0000    0.0000 N   0  0  0  0  0  0  0  0  0  0  0  0
    1.7350    1.0052    0.0000 C   0  0  0  0  0  0  0  0  0  0  0  0
    2.6025    1.5026    0.0000 N   0  0  0  0  0  0  0  0  0  0  0  0
    2.6054    2.5026    0.0000 C   0  0  0  0  0  0  0  0  0  0  0  0
    1.7409    3.0052    0.0000 N   0  0  0  0  0  0  0  0  0  0  0  0
    1.7439    4.0052    0.0000 C   0  0  0  0  0  0  0  0  0  0  0  0
    2.6151    4.5065    0.0000 C   0  0  0  0  0  0  0  0  0  0  0  0
    3.4789    4.0026    0.0000 C   0  0  0  0  0  0  0  0  0  0  0  0
    2.6226    5.5116    0.0000 N   0  0  0  0  0  0  0  0  0  0  0  0
    1.7499    6.0103    0.0000 C   0  0  0  0  0  0  0  0  0  0  0  0
    0.8786    5.5090    0.0000 C   0  0  0  0  0  0  0  0  0  0  0  0
    0.8800    4.5090    0.0000 C   0  0  0  0  0  0  0  0  0  0  0  0
    0.0132    4.0103    0.0000 C   0  0  0  0  0  0  0  0  0  0  0  0
   -0.8520    4.5116    0.0000 N   0  0  0  0  0  0  0  0  0  0  0  0
   -1.7262    4.0155    0.0000 C   0  0  0  0  0  0  0  0  0  0  0  0
   -2.5960    4.5194    0.0000 C   0  0  0  0  0  0  0  0  0  0  0  0
   -2.5916    5.5194    0.0000 C   0  0  0  0  0  0  0  0  0  0  0  0
   -1.7262    6.0206    0.0000 C   0  0  0  0  0  0  0  0  0  0  0  0
   -0.8565    5.5167    0.0000 C   0  0  0  0  0  0  0  0  0  0  0  0
    3.4729    3.0001    0.0000 O   0  0  0  0  0  0  0  0  0  0  0  0
    3.4670    1.0001    0.0000 C   0  0  0  0  0  0  0  0  0  0  0  0
    4.3345    1.4975    0.0000 C   0  0  0  0  0  0  0  0  0  0  0  0
    5.2020    0.9898    0.0000 N   0  0  0  0  0  0  0  0  0  0  0  0
    6.0695    1.4975    0.0000 C   0  0  0  0  0  0  0  0  0  0  0  0
    6.9370    1.0001    0.0000 C   0  0  0  0  0  0  0  0  0  0  0  0
    7.8045    0.5026    0.0000 C   0  0  0  0  0  0  0  0  0  0  0  0
    6.0695    2.5027    0.0000 C   0  0  0  0  0  0  0  0  0  0  0  0
    5.2020    3.0002    0.0000 C   0  0  0  0  0  0  0  0  0  0  0  0
    4.3345    2.5027    0.0000 C   0  0  0  0  0  0  0  0  0  0  0  0
    0.8675    1.5129    0.0000 N   0  0  0  0  0  0  0  0  0  0  0  0
    0.0000    1.0052    0.0000 C   0  0  0  0  0  0  0  0  0  0  0  0
    0.0000    0.0000    0.0000 C   0  0  0  0  0  0  0  0  0  0  0  0
    1.7335   -1.9975    0.0000 C   0  0  0  0  0  0  0  0  0  0  0  0
  1  2  1  0  0  0  0
  2  3  1  0  0  0  0
  3 35  2  0  0  0  0
  3  4  1  0  0  0  0
  4  5  2  0  0  0  0
  5  6  1  0  0  0  0
  6  7  1  0  0  0  0
  7  8  1  0  0  0  0
  8  9  1  0  0  0  0
  9 15  1  0  0  0  0
  9 10  2  0  0  0  0
 10 11  1  0  0  0  0
 10 12  1  0  0  0  0
 12 13  2  0  0  0  0
 13 14  1  0  0  0  0
 14 15  2  0  0  0  0
 15 16  1  0  0  0  0
 16 17  1  0  0  0  0
 17 22  1  0  0  0  0
 17 18  1  0  0  0  0
 18 19  1  0  0  0  0
 19 20  1  0  0  0  0
 20 21  1  0  0  0  0
 21 22  1  0  0  0  0
  7 23  2  0  0  0  0
  6 24  1  0  0  0  0
 24 25  1  0  0  0  0
 25 32  2  0  0  0  0
 25 26  1  0  0  0  0
 26 27  2  0  0  0  0
 27 28  1  0  0  0  0
 28 29  3  0  0  0  0
 27 30  1  0  0  0  0
 30 31  2  0  0  0  0
 31 32  1  0  0  0  0
  5 33  1  0  0  0  0
 33 34  2  0  0  0  0
 34 35  1  0  0  0  0
  2 36  1  0  0  0  0
M  END
$$$$
AGN-NEW-817-3
  -OEChem-03222016562D

 36 39  0     0  0  0  0  0  0999 V2000
    0.0015   -1.9975    0.0000 C   0  0  0  0  0  0  0  0  0  0  0  0
    0.8675   -1.4975    0.0000 C   0  0  0  0  0  0  0  0  0  0  0  0
    0.8675   -0.4975    0.0000 C   0  0  0  0  0  0  0  0  0  0  0  0
    1.7350    0.0000    0.0000 N   0  0  0  0  0  0  0  0  0  0  0  0
    1.7350    1.0052    0.0000 C   0  0  0  0  0  0  0  0  0  0  0  0
    2.6025    1.5026    0.0000 N   0  0  0  0  0  0  0  0  0  0  0  0
    2.6054    2.5026    0.0000 C   0  0  0  0  0  0  0  0  0  0  0  0
    1.7409    3.0052    0.0000 N   0  0  0  0  0  0  0  0  0  0  0  0
    1.7439    4.0052    0.0000 C   0  0  0  0  0  0  0  0  0  0  0  0
    2.6151    4.5065    0.0000 C   0  0  0  0  0  0  0  0  0  0  0  0
    3.4789    4.0026    0.0000 C   0  0  0  0  0  0  0  0  0  0  0  0
    2.6226    5.5116    0.0000 N   0  0  0  0  0  0  0  0  0  0  0  0
    1.7499    6.0103    0.0000 C   0  0  0  0  0  0  0  0  0  0  0  0
    0.8786    5.5090    0.0000 C   0  0  0  0  0  0  0  0  0  0  0  0
    0.8800    4.5090    0.0000 C   0  0  0  0  0  0  0  0  0  0  0  0
    0.0132    4.0103    0.0000 C   0  0  0  0  0  0  0  0  0  0  0  0
   -0.8520    4.5116    0.0000 N   0  0  0  0  0  0  0  0  0  0  0  0
   -0.8476    5.5116    0.0000 C   0  0  0  0  0  0  0  0  0  0  0  0
   -1.7174    6.0155    0.0000 C   0  0  0  0  0  0  0  0  0  0  0  0
   -2.5916    5.5194    0.0000 O   0  0  0  0  0  0  0  0  0  0  0  0
   -2.5872    4.5143    0.0000 C   0  0  0  0  0  0  0  0  0  0  0  0
   -1.7174    4.0104    0.0000 C   0  0  0  0  0  0  0  0  0  0  0  0
    3.4729    3.0001    0.0000 O   0  0  0  0  0  0  0  0  0  0  0  0
    3.4670    1.0001    0.0000 C   0  0  0  0  0  0  0  0  0  0  0  0
    4.3345    1.4975    0.0000 C   0  0  0  0  0  0  0  0  0  0  0  0
    4.3345    2.5027    0.0000 N   0  0  0  0  0  0  0  0  0  0  0  0
    5.2020    3.0002    0.0000 C   0  0  0  0  0  0  0  0  0  0  0  0
    5.2020    4.0002    0.0000 C   0  0  0  0  0  0  0  0  0  0  0  0
    5.2020    5.0002    0.0000 C   0  0  0  0  0  0  0  0  0  0  0  0
    6.0695    2.5027    0.0000 C   0  0  0  0  0  0  0  0  0  0  0  0
    6.0695    1.4975    0.0000 C   0  0  0  0  0  0  0  0  0  0  0  0
    5.2020    0.9898    0.0000 N   0  0  0  0  0  0  0  0  0  0  0  0
    0.8675    1.5129    0.0000 N   0  0  0  0  0  0  0  0  0  0  0  0
    0.0000    1.0052    0.0000 C   0  0  0  0  0  0  0  0  0  0  0  0
    0.0000    0.0000    0.0000 C   0  0  0  0  0  0  0  0  0  0  0  0
    1.7335   -1.9975    0.0000 C   0  0  0  0  0  0  0  0  0  0  0  0
  1  2  1  0  0  0  0
  2  3  1  0  0  0  0
  3 35  2  0  0  0  0
  3  4  1  0  0  0  0
  4  5  2  0  0  0  0
  5  6  1  0  0  0  0
  6  7  1  0  0  0  0
  7  8  1  0  0  0  0
  8  9  1  0  0  0  0
  9 15  1  0  0  0  0
  9 10  2  0  0  0  0
 10 11  1  0  0  0  0
 10 12  1  0  0  0  0
 12 13  2  0  0  0  0
 13 14  1  0  0  0  0
 14 15  2  0  0  0  0
 15 16  1  0  0  0  0
 16 17  1  0  0  0  0
 17 22  1  0  0  0  0
 17 18  1  0  0  0  0
 18 19  1  0  0  0  0
 19 20  1  0  0  0  0
 20 21  1  0  0  0  0
 21 22  1  0  0  0  0
  7 23  2  0  0  0  0
  6 24  1  0  0  0  0
 24 25  1  0  0  0  0
 25 32  2  0  0  0  0
 25 26  1  0  0  0  0
 26 27  2  0  0  0  0
 27 28  1  0  0  0  0
 28 29  3  0  0  0  0
 27 30  1  0  0  0  0
 30 31  2  0  0  0  0
 31 32  1  0  0  0  0
  5 33  1  0  0  0  0
 33 34  2  0  0  0  0
 34 35  1  0  0  0  0
  2 36  1  0  0  0  0
M  END
$$$$
AGN-NEW-817-4
  -OEChem-03222016562D

 29 31  0     0  0  0  0  0  0999 V2000
    0.0015   -1.9975    0.0000 C   0  0  0  0  0  0  0  0  0  0  0  0
    0.8675   -1.4975    0.0000 C   0  0  0  0  0  0  0  0  0  0  0  0
    0.8675   -0.4975    0.0000 C   0  0  0  0  0  0  0  0  0  0  0  0
    1.7350    0.0000    0.0000 N   0  0  0  0  0  0  0  0  0  0  0  0
    1.7350    1.0052    0.0000 C   0  0  0  0  0  0  0  0  0  0  0  0
    2.6025    1.5026    0.0000 N   0  0  0  0  0  0  0  0  0  0  0  0
    2.6054    2.5026    0.0000 C   0  0  0  0  0  0  0  0  0  0  0  0
    1.7409    3.0052    0.0000 N   0  0  0  0  0  0  0  0  0  0  0  0
    1.7439    4.0052    0.0000 C   0  0  0  0  0  0  0  0  0  0  0  0
    2.6151    4.5065    0.0000 C   0  0  0  0  0  0  0  0  0  0  0  0
    3.4789    4.0026    0.0000 C   0  0  0  0  0  0  0  0  0  0  0  0
    2.6226    5.5116    0.0000 N   0  0  0  0  0  0  0  0  0  0  0  0
    1.7499    6.0103    0.0000 C   0  0  0  0  0  0  0  0  0  0  0  0
    0.8786    5.5090    0.0000 C   0  0  0  0  0  0  0  0  0  0  0  0
    0.8800    4.5090    0.0000 C   0  0  0  0  0  0  0  0  0  0  0  0
    3.4729    3.0001    0.0000 O   0  0  0  0  0  0  0  0  0  0  0  0
    3.4670    1.0001    0.0000 C   0  0  0  0  0  0  0  0  0  0  0  0
    4.3345    1.4975    0.0000 C   0  0  0  0  0  0  0  0  0  0  0  0
    5.2020    0.9898    0.0000 N   0  0  0  0  0  0  0  0  0  0  0  0
    6.0695    1.4975    0.0000 C   0  0  0  0  0  0  0  0  0  0  0  0
    6.9370    1.0001    0.0000 C   0  0  0  0  0  0  0  0  0  0  0  0
    7.8045    0.5026    0.0000 C   0  0  0  0  0  0  0  0  0  0  0  0
    6.0695    2.5027    0.0000 C   0  0  0  0  0  0  0  0  0  0  0  0
    5.2020    3.0002    0.0000 C   0  0  0  0  0  0  0  0  0  0  0  0
    4.3345    2.5027    0.0000 C   0  0  0  0  0  0  0  0  0  0  0  0
    0.8675    1.5129    0.0000 N   0  0  0  0  0  0  0  0  0  0  0  0
    0.0000    1.0052    0.0000 C   0  0  0  0  0  0  0  0  0  0  0  0
    0.0000    0.0000    0.0000 C   0  0  0  0  0  0  0  0  0  0  0  0
    1.7335   -1.9975    0.0000 C   0  0  0  0  0  0  0  0  0  0  0  0
  1  2  1  0  0  0  0
  2  3  1  0  0  0  0
  3 28  2  0  0  0  0
  3  4  1  0  0  0  0
  4  5  2  0  0  0  0
  5  6  1  0  0  0  0
  6  7  1  0  0  0  0
  7  8  1  0  0  0  0
  8  9  1  0  0  0  0
  9 15  2  0  0  0  0
  9 10  1  0  0  0  0
 10 11  1  0  0  0  0
 10 12  2  0  0  0  0
 12 13  1  0  0  0  0
 13 14  2  0  0  0  0
 14 15  1  0  0  0  0
  7 16  2  0  0  0  0
  6 17  1  0  0  0  0
 17 18  1  0  0  0  0
 18 25  2  0  0  0  0
 18 19  1  0  0  0  0
 19 20  2  0  0  0  0
 20 21  1  0  0  0  0
 21 22  3  0  0  0  0
 20 23  1  0  0  0  0
 23 24  2  0  0  0  0
 24 25  1  0  0  0  0
  5 26  1  0  0  0  0
 26 27  2  0  0  0  0
 27 28  1  0  0  0  0
  2 29  1  0  0  0  0
M  END
$$$$
AGN-NEW-817-5
  -OEChem-03222016562D

 30 32  0     0  0  0  0  0  0999 V2000
    0.0015   -1.9975    0.0000 C   0  0  0  0  0  0  0  0  0  0  0  0
    0.8675   -1.4975    0.0000 C   0  0  0  0  0  0  0  0  0  0  0  0
    0.8675   -0.4975    0.0000 C   0  0  0  0  0  0  0  0  0  0  0  0
    1.7350    0.0000    0.0000 N   0  0  0  0  0  0  0  0  0  0  0  0
    1.7350    1.0052    0.0000 C   0  0  0  0  0  0  0  0  0  0  0  0
    2.6025    1.5026    0.0000 N   0  0  0  0  0  0  0  0  0  0  0  0
    2.6054    2.5026    0.0000 C   0  0  0  0  0  0  0  0  0  0  0  0
    1.7409    3.0052    0.0000 N   0  0  0  0  0  0  0  0  0  0  0  0
    1.7439    4.0052    0.0000 C   0  0  0  0  0  0  0  0  0  0  0  0
    2.6151    4.5065    0.0000 C   0  0  0  0  0  0  0  0  0  0  0  0
    3.4789    4.0026    0.0000 C   0  0  0  0  0  0  0  0  0  0  0  0
    2.6226    5.5116    0.0000 N   0  0  0  0  0  0  0  0  0  0  0  0
    1.7499    6.0103    0.0000 C   0  0  0  0  0  0  0  0  0  0  0  0
    0.8786    5.5090    0.0000 C   0  0  0  0  0  0  0  0  0  0  0  0
    0.8800    4.5090    0.0000 C   0  0  0  0  0  0  0  0  0  0  0  0
    3.4729    3.0001    0.0000 O   0  0  0  0  0  0  0  0  0  0  0  0
    3.4670    1.0001    0.0000 C   0  0  0  0  0  0  0  0  0  0  0  0
    4.3345    1.4975    0.0000 C   0  0  0  0  0  0  0  0  0  0  0  0
    5.2020    0.9898    0.0000 N   0  0  0  0  0  0  0  0  0  0  0  0
    6.0695    1.4975    0.0000 C   0  0  0  0  0  0  0  0  0  0  0  0
    6.9370    1.0001    0.0000 C   0  0  0  0  0  0  0  0  0  0  0  0
    7.8045    0.5026    0.0000 C   0  0  0  0  0  0  0  0  0  0  0  0
    6.0695    2.5027    0.0000 C   0  0  0  0  0  0  0  0  0  0  0  0
    5.2020    3.0002    0.0000 C   0  0  0  0  0  0  0  0  0  0  0  0
    5.2020    4.0002    0.0000 F   0  0  0  0  0  0  0  0  0  0  0  0
    4.3345    2.5027    0.0000 C   0  0  0  0  0  0  0  0  0  0  0  0
    0.8675    1.5129    0.0000 N   0  0  0  0  0  0  0  0  0  0  0  0
    0.0000    1.0052    0.0000 C   0  0  0  0  0  0  0  0  0  0  0  0
    0.0000    0.0000    0.0000 C   0  0  0  0  0  0  0  0  0  0  0  0
    1.7335   -1.9975    0.0000 C   0  0  0  0  0  0  0  0  0  0  0  0
  1  2  1  0  0  0  0
  2  3  1  0  0  0  0
  3 29  2  0  0  0  0
  3  4  1  0  0  0  0
  4  5  2  0  0  0  0
  5  6  1  0  0  0  0
  6  7  1  0  0  0  0
  7  8  1  0  0  0  0
  8  9  1  0  0  0  0
  9 15  2  0  0  0  0
  9 10  1  0  0  0  0
 10 11  1  0  0  0  0
 10 12  2  0  0  0  0
 12 13  1  0  0  0  0
 13 14  2  0  0  0  0
 14 15  1  0  0  0  0
  7 16  2  0  0  0  0
  6 17  1  0  0  0  0
 17 18  1  0  0  0  0
 18 26  2  0  0  0  0
 18 19  1  0  0  0  0
 19 20  2  0  0  0  0
 20 21  1  0  0  0  0
 21 22  3  0  0  0  0
 20 23  1  0  0  0  0
 23 24  2  0  0  0  0
 24 25  1  0  0  0  0
 24 26  1  0  0  0  0
  5 27  1  0  0  0  0
 27 28  2  0  0  0  0
 28 29  1  0  0  0  0
  2 30  1  0  0  0  0
M  END
$$$$
AGN-NEW-817-6
  -OEChem-03222016562D

 30 32  0     0  0  0  0  0  0999 V2000
    0.0015   -1.9975    0.0000 C   0  0  0  0  0  0  0  0  0  0  0  0
    0.8675   -1.4975    0.0000 C   0  0  0  0  0  0  0  0  0  0  0  0
    0.8675   -0.4975    0.0000 C   0  0  0  0  0  0  0  0  0  0  0  0
    1.7350    0.0000    0.0000 N   0  0  0  0  0  0  0  0  0  0  0  0
    1.7350    1.0052    0.0000 C   0  0  0  0  0  0  0  0  0  0  0  0
    2.6025    1.5026    0.0000 N   0  0  0  0  0  0  0  0  0  0  0  0
    2.6054    2.5026    0.0000 C   0  0  0  0  0  0  0  0  0  0  0  0
    1.7409    3.0052    0.0000 N   0  0  0  0  0  0  0  0  0  0  0  0
    1.7439    4.0052    0.0000 C   0  0  0  0  0  0  0  0  0  0  0  0
    2.6151    4.5065    0.0000 C   0  0  0  0  0  0  0  0  0  0  0  0
    3.4789    4.0026    0.0000 C   0  0  0  0  0  0  0  0  0  0  0  0
    2.6226    5.5116    0.0000 N   0  0  0  0  0  0  0  0  0  0  0  0
    1.7499    6.0103    0.0000 C   0  0  0  0  0  0  0  0  0  0  0  0
    0.8786    5.5090    0.0000 C   0  0  0  0  0  0  0  0  0  0  0  0
    0.8800    4.5090    0.0000 C   0  0  0  0  0  0  0  0  0  0  0  0
    0.0132    4.0103    0.0000 C   0  0  0  0  0  0  0  0  0  0  0  0
    3.4729    3.0001    0.0000 O   0  0  0  0  0  0  0  0  0  0  0  0
    3.4670    1.0001    0.0000 C   0  0  0  0  0  0  0  0  0  0  0  0
    4.3345    1.4975    0.0000 C   0  0  0  0  0  0  0  0  0  0  0  0
    5.2020    0.9898    0.0000 N   0  0  0  0  0  0  0  0  0  0  0  0
    6.0695    1.4975    0.0000 C   0  0  0  0  0  0  0  0  0  0  0  0
    6.9370    1.0001    0.0000 C   0  0  0  0  0  0  0  0  0  0  0  0
    7.8045    0.5026    0.0000 C   0  0  0  0  0  0  0  0  0  0  0  0
    6.0695    2.5027    0.0000 C   0  0  0  0  0  0  0  0  0  0  0  0
    5.2020    3.0002    0.0000 C   0  0  0  0  0  0  0  0  0  0  0  0
    4.3345    2.5027    0.0000 C   0  0  0  0  0  0  0  0  0  0  0  0
    0.8675    1.5129    0.0000 N   0  0  0  0  0  0  0  0  0  0  0  0
    0.0000    1.0052    0.0000 C   0  0  0  0  0  0  0  0  0  0  0  0
    0.0000    0.0000    0.0000 C   0  0  0  0  0  0  0  0  0  0  0  0
    1.7335   -1.9975    0.0000 C   0  0  0  0  0  0  0  0  0  0  0  0
  1  2  1  0  0  0  0
  2  3  1  0  0  0  0
  3 29  2  0  0  0  0
  3  4  1  0  0  0  0
  4  5  2  0  0  0  0
  5  6  1  0  0  0  0
  6  7  1  0  0  0  0
  7  8  1  0  0  0  0
  8  9  1  0  0  0  0
  9 15  2  0  0  0  0
  9 10  1  0  0  0  0
 10 11  1  0  0  0  0
 10 12  2  0  0  0  0
 12 13  1  0  0  0  0
 13 14  2  0  0  0  0
 14 15  1  0  0  0  0
 15 16  1  0  0  0  0
  7 17  2  0  0  0  0
  6 18  1  0  0  0  0
 18 19  1  0  0  0  0
 19 26  2  0  0  0  0
 19 20  1  0  0  0  0
 20 21  2  0  0  0  0
 21 22  1  0  0  0  0
 22 23  3  0  0  0  0
 21 24  1  0  0  0  0
 24 25  2  0  0  0  0
 25 26  1  0  0  0  0
  5 27  1  0  0  0  0
 27 28  2  0  0  0  0
 28 29  1  0  0  0  0
  2 30  1  0  0  0  0
M  END
$$$$
KIM-UNI-7d1-1
  -OEChem-03222016562D

 20 21  0     0  0  0  0  0  0999 V2000
    1.7335    3.0129    0.0000 C   0  0  0  0  0  0  0  0  0  0  0  0
    0.8675    2.5129    0.0000 C   0  0  0  0  0  0  0  0  0  0  0  0
    0.0015    3.0129    0.0000 O   0  0  0  0  0  0  0  0  0  0  0  0
    0.8675    1.5129    0.0000 N   0  0  0  0  0  0  0  0  0  0  0  0
    0.0000    1.0052    0.0000 C   0  0  0  0  0  0  0  0  0  0  0  0
    0.0000    0.0000    0.0000 C   0  0  0  0  0  0  0  0  0  0  0  0
    0.8675   -0.4975    0.0000 N   0  0  0  0  0  0  0  0  0  0  0  0
    1.7350    0.0000    0.0000 C   0  0  0  0  0  0  0  0  0  0  0  0
    1.7350    1.0052    0.0000 C   0  0  0  0  0  0  0  0  0  0  0  0
    0.8675   -1.4975    0.0000 C   0  0  0  0  0  0  0  0  0  0  0  0
    1.7335   -1.9975    0.0000 C   0  0  0  0  0  0  0  0  0  0  0  0
    2.6025   -1.4924    0.0000 C   0  0  0  0  0  0  0  0  0  0  0  0
    3.4685   -2.0026    0.0000 C   0  0  0  0  0  0  0  0  0  0  0  0
    4.3375   -1.5077    0.0000 Cl  0  0  0  0  0  0  0  0  0  0  0  0
    3.4656   -3.0078    0.0000 C   0  0  0  0  0  0  0  0  0  0  0  0
    2.5966   -3.5028    0.0000 C   0  0  0  0  0  0  0  0  0  0  0  0
    1.7306   -3.0027    0.0000 C   0  0  0  0  0  0  0  0  0  0  0  0
    0.8638   -3.5014    0.0000 N   0  0  0  0  0  0  0  0  0  0  0  0
   -0.0015   -3.0001    0.0000 C   0  0  0  0  0  0  0  0  0  0  0  0
   -0.8683   -3.4988    0.0000 C   0  0  0  0  0  0  0  0  0  0  0  0
  1  2  1  0  0  0  0
  2  3  2  0  0  0  0
  2  4  1  0  0  0  0
  4  9  1  0  0  0  0
  4  5  1  0  0  0  0
  5  6  1  0  0  0  0
  6  7  1  0  0  0  0
  7  8  1  0  0  0  0
  8  9  1  0  0  0  0
  7 10  1  0  0  0  0
 10 11  1  0  0  0  0
 11 17  2  0  0  0  0
 11 12  1  0  0  0  0
 12 13  2  0  0  0  0
 13 14  1  0  0  0  0
 13 15  1  0  0  0  0
 15 16  2  0  0  0  0
 16 17  1  0  0  0  0
 17 18  1  0  0  0  0
 18 19  1  0  0  0  0
 19 20  1  0  0  0  0
M  END
$$$$
KIM-UNI-7d1-2
  -OEChem-03222016562D

 21 22  0     0  0  0  0  0  0999 V2000
    1.7335    3.0129    0.0000 C   0  0  0  0  0  0  0  0  0  0  0  0
    0.8675    2.5129    0.0000 C   0  0  0  0  0  0  0  0  0  0  0  0
    0.0015    3.0129    0.0000 O   0  0  0  0  0  0  0  0  0  0  0  0
    0.8675    1.5129    0.0000 N   0  0  0  0  0  0  0  0  0  0  0  0
    0.0000    1.0052    0.0000 C   0  0  0  0  0  0  0  0  0  0  0  0
    0.0000    0.0000    0.0000 C   0  0  0  0  0  0  0  0  0  0  0  0
    0.8675   -0.4975    0.0000 N   0  0  0  0  0  0  0  0  0  0  0  0
    1.7350    0.0000    0.0000 C   0  0  0  0  0  0  0  0  0  0  0  0
    1.7350    1.0052    0.0000 C   0  0  0  0  0  0  0  0  0  0  0  0
    0.8675   -1.4975    0.0000 C   0  0  0  0  0  0  0  0  0  0  0  0
    1.7335   -1.9975    0.0000 C   0  0  0  0  0  0  0  0  0  0  0  0
    2.6025   -1.4924    0.0000 C   0  0  0  0  0  0  0  0  0  0  0  0
    3.4685   -2.0026    0.0000 C   0  0  0  0  0  0  0  0  0  0  0  0
    4.3375   -1.5077    0.0000 C   0  0  0  0  0  0  0  0  0  0  0  0
    5.2064   -1.0129    0.0000 N   0  0  0  0  0  0  0  0  0  0  0  0
    3.4656   -3.0078    0.0000 C   0  0  0  0  0  0  0  0  0  0  0  0
    2.5966   -3.5028    0.0000 C   0  0  0  0  0  0  0  0  0  0  0  0
    1.7306   -3.0027    0.0000 C   0  0  0  0  0  0  0  0  0  0  0  0
    0.8638   -3.5014    0.0000 N   0  0  0  0  0  0  0  0  0  0  0  0
   -0.0015   -3.0001    0.0000 C   0  0  0  0  0  0  0  0  0  0  0  0
   -0.8683   -3.4988    0.0000 C   0  0  0  0  0  0  0  0  0  0  0  0
  1  2  1  0  0  0  0
  2  3  2  0  0  0  0
  2  4  1  0  0  0  0
  4  9  1  0  0  0  0
  4  5  1  0  0  0  0
  5  6  1  0  0  0  0
  6  7  1  0  0  0  0
  7  8  1  0  0  0  0
  8  9  1  0  0  0  0
  7 10  1  0  0  0  0
 10 11  1  0  0  0  0
 11 18  2  0  0  0  0
 11 12  1  0  0  0  0
 12 13  2  0  0  0  0
 13 14  1  0  0  0  0
 14 15  3  0  0  0  0
 13 16  1  0  0  0  0
 16 17  2  0  0  0  0
 17 18  1  0  0  0  0
 18 19  1  0  0  0  0
 19 20  1  0  0  0  0
 20 21  1  0  0  0  0
M  END
$$$$
KIM-UNI-7d1-3
  -OEChem-03222016562D

 21 22  0     0  0  0  0  0  0999 V2000
    1.7335    3.0129    0.0000 C   0  0  0  0  0  0  0  0  0  0  0  0
    0.8675    2.5129    0.0000 C   0  0  0  0  0  0  0  0  0  0  0  0
    0.0015    3.0129    0.0000 O   0  0  0  0  0  0  0  0  0  0  0  0
    0.8675    1.5129    0.0000 N   0  0  0  0  0  0  0  0  0  0  0  0
    0.0000    1.0052    0.0000 C   0  0  0  0  0  0  0  0  0  0  0  0
    0.0000    0.0000    0.0000 C   0  0  0  0  0  0  0  0  0  0  0  0
    0.8675   -0.4975    0.0000 N   0  0  0  0  0  0  0  0  0  0  0  0
    1.7350    0.0000    0.0000 C   0  0  0  0  0  0  0  0  0  0  0  0
    1.7350    1.0052    0.0000 C   0  0  0  0  0  0  0  0  0  0  0  0
    0.8675   -1.4975    0.0000 C   0  0  0  0  0  0  0  0  0  0  0  0
    1.7335   -1.9975    0.0000 C   0  0  0  0  0  0  0  0  0  0  0  0
    2.6025   -1.4924    0.0000 C   0  0  0  0  0  0  0  0  0  0  0  0
    3.4685   -2.0026    0.0000 C   0  0  0  0  0  0  0  0  0  0  0  0
    4.3375   -1.5077    0.0000 Cl  0  0  0  0  0  0  0  0  0  0  0  0
    3.4656   -3.0078    0.0000 C   0  0  0  0  0  0  0  0  0  0  0  0
    2.5966   -3.5028    0.0000 C   0  0  0  0  0  0  0  0  0  0  0  0
    1.7306   -3.0027    0.0000 C   0  0  0  0  0  0  0  0  0  0  0  0
    0.8638   -3.5014    0.0000 N   0  0  0  0  0  0  0  0  0  0  0  0
   -0.0015   -3.0001    0.0000 C   0  0  0  0  0  0  0  0  0  0  0  0
    0.0000   -2.0001    0.0000 O   0  0  0  0  0  0  0  0  0  0  0  0
   -0.8683   -3.4988    0.0000 C   0  0  0  0  0  0  0  0  0  0  0  0
  1  2  1  0  0  0  0
  2  3  2  0  0  0  0
  2  4  1  0  0  0  0
  4  9  1  0  0  0  0
  4  5  1  0  0  0  0
  5  6  1  0  0  0  0
  6  7  1  0  0  0  0
  7  8  1  0  0  0  0
  8  9  1  0  0  0  0
  7 10  1  0  0  0  0
 10 11  1  0  0  0  0
 11 17  2  0  0  0  0
 11 12  1  0  0  0  0
 12 13  2  0  0  0  0
 13 14  1  0  0  0  0
 13 15  1  0  0  0  0
 15 16  2  0  0  0  0
 16 17  1  0  0  0  0
 17 18  1  0  0  0  0
 18 19  1  0  0  0  0
 19 20  2  0  0  0  0
 19 21  1  0  0  0  0
M  END
$$$$
KIM-UNI-7d1-4
  -OEChem-03222016562D

 20 22  0     1  0  0  0  0  0999 V2000
    1.7127   -5.0108    0.0000 C   0  0  0  0  0  0  0  0  0  0  0  0
    2.5815   -4.5156    0.0000 C   0  0  0  0  0  0  0  0  0  0  0  0
    3.4448   -5.0205    0.0000 O   0  0  0  0  0  0  0  0  0  0  0  0
    2.5871   -3.5157    0.0000 N   0  0  0  0  0  0  0  0  0  0  0  0
    3.4574   -3.0128    0.0000 C   0  0  0  0  0  0  0  0  0  0  0  0
    3.4630   -2.0076    0.0000 C   0  0  0  0  0  0  0  0  0  0  0  0
    2.5983   -1.5053    0.0000 N   0  0  0  0  0  0  0  0  0  0  0  0
    1.7281   -1.9979    0.0000 C   0  0  0  0  0  0  0  0  0  0  0  0
    1.7225   -3.0031    0.0000 C   0  0  0  0  0  0  0  0  0  0  0  0
    2.6039   -0.5053    0.0000 C   0  0  3  0  0  0  0  0  0  0  0  0
    3.4805   -0.0073    0.0000 C   0  0  0  0  0  0  0  0  0  0  0  0
    3.4848    1.0014    0.0000 C   0  0  0  0  0  0  0  0  0  0  0  0
    2.6125    1.5125    0.0000 N   0  0  0  0  0  0  0  0  0  0  0  0
    1.7414    1.0089    0.0000 C   0  0  0  0  0  0  0  0  0  0  0  0
    0.8707    1.5185    0.0000 C   0  0  0  0  0  0  0  0  0  0  0  0
    0.0000    1.0089    0.0000 C   0  0  0  0  0  0  0  0  0  0  0  0
    0.0000    0.0000    0.0000 C   0  0  0  0  0  0  0  0  0  0  0  0
    0.8707   -0.4993    0.0000 C   0  0  0  0  0  0  0  0  0  0  0  0
    1.7371    0.0000    0.0000 C   0  0  0  0  0  0  0  0  0  0  0  0
   -0.8653   -0.5013    0.0000 Cl  0  0  0  0  0  0  0  0  0  0  0  0
  1  2  1  0  0  0  0
  2  3  2  0  0  0  0
  2  4  1  0  0  0  0
  4  9  1  0  0  0  0
  4  5  1  0  0  0  0
  5  6  1  0  0  0  0
  6  7  1  0  0  0  0
  7  8  1  0  0  0  0
  8  9  1  0  0  0  0
  7 10  1  0  0  0  0
 10 19  1  0  0  0  0
 10 11  1  0  0  0  0
 11 12  1  0  0  0  0
 12 13  1  0  0  0  0
 13 14  1  0  0  0  0
 14 19  2  0  0  0  0
 14 15  1  0  0  0  0
 15 16  2  0  0  0  0
 16 17  1  0  0  0  0
 17 18  2  0  0  0  0
 18 19  1  0  0  0  0
 17 20  1  0  0  0  0
M  END
$$$$
TRY-UNI-714-1
  -OEChem-03222016562D

 18 19  0     0  0  0  0  0  0999 V2000
   -0.8646   -1.5025    0.0000 O   0  0  0  0  0  0  0  0  0  0  0  0
   -1.7313   -1.0038    0.0000 C   0  0  0  0  0  0  0  0  0  0  0  0
   -2.5966   -1.5050    0.0000 C   0  0  0  0  0  0  0  0  0  0  0  0
   -2.5952   -2.5050    0.0000 C   0  0  0  0  0  0  0  0  0  0  0  0
   -1.7225   -3.0038    0.0000 C   0  0  0  0  0  0  0  0  0  0  0  0
   -1.7210   -4.0038    0.0000 C   0  0  0  0  0  0  0  0  0  0  0  0
   -2.5833   -4.5101    0.0000 C   0  0  0  0  0  0  0  0  0  0  0  0
   -3.4561   -4.0114    0.0000 C   0  0  0  0  0  0  0  0  0  0  0  0
   -3.4664   -3.0063    0.0000 C   0  0  0  0  0  0  0  0  0  0  0  0
   -1.7328   -0.0038    0.0000 N   0  0  0  0  0  0  0  0  0  0  0  0
   -0.8675    0.4975    0.0000 C   0  0  0  0  0  0  0  0  0  0  0  0
    0.0000    0.0000    0.0000 C   0  0  0  0  0  0  0  0  0  0  0  0
    0.0000   -1.0000    0.0000 C   0  0  0  0  0  0  0  0  0  0  0  0
    0.8675    0.4975    0.0000 C   0  0  0  0  0  0  0  0  0  0  0  0
    1.7328   -0.0038    0.0000 N   0  0  0  0  0  0  0  0  0  0  0  0
    0.8675    1.5027    0.0000 C   0  0  0  0  0  0  0  0  0  0  0  0
   -0.0000    2.0104    0.0000 N   0  0  0  0  0  0  0  0  0  0  0  0
   -0.8675    1.5027    0.0000 C   0  0  0  0  0  0  0  0  0  0  0  0
  1  2  2  0  0  0  0
  2  3  1  0  0  0  0
  3  4  1  0  0  0  0
  4  9  1  0  0  0  0
  4  5  1  0  0  0  0
  5  6  1  0  0  0  0
  6  7  1  0  0  0  0
  7  8  1  0  0  0  0
  8  9  1  0  0  0  0
  2 10  1  0  0  0  0
 10 11  1  0  0  0  0
 11 18  2  0  0  0  0
 11 12  1  0  0  0  0
 12 13  1  0  0  0  0
 12 14  2  0  0  0  0
 14 15  1  0  0  0  0
 14 16  1  0  0  0  0
 16 17  2  0  0  0  0
 17 18  1  0  0  0  0
M  END
$$$$
TRY-UNI-714-2
  -OEChem-03222016562D

 18 19  0     0  0  0  0  0  0999 V2000
   -0.8646   -1.5025    0.0000 O   0  0  0  0  0  0  0  0  0  0  0  0
   -1.7313   -1.0038    0.0000 C   0  0  0  0  0  0  0  0  0  0  0  0
   -2.5966   -1.5050    0.0000 C   0  0  0  0  0  0  0  0  0  0  0  0
   -2.5952   -2.5050    0.0000 C   0  0  0  0  0  0  0  0  0  0  0  0
   -1.7225   -3.0038    0.0000 C   0  0  0  0  0  0  0  0  0  0  0  0
   -1.7210   -4.0038    0.0000 C   0  0  0  0  0  0  0  0  0  0  0  0
   -2.5833   -4.5101    0.0000 C   0  0  0  0  0  0  0  0  0  0  0  0
   -3.4561   -4.0114    0.0000 C   0  0  0  0  0  0  0  0  0  0  0  0
   -3.4664   -3.0063    0.0000 C   0  0  0  0  0  0  0  0  0  0  0  0
   -1.7328   -0.0038    0.0000 N   0  0  0  0  0  0  0  0  0  0  0  0
   -0.8675    0.4975    0.0000 C   0  0  0  0  0  0  0  0  0  0  0  0
    0.0000    0.0000    0.0000 C   0  0  0  0  0  0  0  0  0  0  0  0
    0.0000   -1.0000    0.0000 C   0  0  0  0  0  0  0  0  0  0  0  0
    0.8675    0.4975    0.0000 C   0  0  0  0  0  0  0  0  0  0  0  0
    1.7328   -0.0038    0.0000 N   0  0  0  0  0  0  0  0  0  0  0  0
    0.8675    1.5027    0.0000 C   0  0  0  0  0  0  0  0  0  0  0  0
   -0.0000    2.0104    0.0000 N   0  0  0  0  0  0  0  0  0  0  0  0
   -0.8675    1.5027    0.0000 C   0  0  0  0  0  0  0  0  0  0  0  0
  1  2  2  0  0  0  0
  2  3  1  0  0  0  0
  3  4  1  0  0  0  0
  4  9  2  0  0  0  0
  4  5  1  0  0  0  0
  5  6  2  0  0  0  0
  6  7  1  0  0  0  0
  7  8  2  0  0  0  0
  8  9  1  0  0  0  0
  2 10  1  0  0  0  0
 10 11  1  0  0  0  0
 11 18  2  0  0  0  0
 11 12  1  0  0  0  0
 12 13  1  0  0  0  0
 12 14  2  0  0  0  0
 14 15  1  0  0  0  0
 14 16  1  0  0  0  0
 16 17  2  0  0  0  0
 17 18  1  0  0  0  0
M  END
$$$$
TRY-UNI-714-3
  -OEChem-03222016562D

 19 20  0     0  0  0  0  0  0999 V2000
   -0.8646   -1.5025    0.0000 O   0  0  0  0  0  0  0  0  0  0  0  0
   -1.7313   -1.0038    0.0000 C   0  0  0  0  0  0  0  0  0  0  0  0
   -2.5966   -1.5050    0.0000 C   0  0  0  0  0  0  0  0  0  0  0  0
   -2.5952   -2.5050    0.0000 C   0  0  0  0  0  0  0  0  0  0  0  0
   -3.4664   -3.0063    0.0000 C   0  0  0  0  0  0  0  0  0  0  0  0
   -3.4561   -4.0114    0.0000 C   0  0  0  0  0  0  0  0  0  0  0  0
   -4.3184   -4.5177    0.0000 Cl  0  0  0  0  0  0  0  0  0  0  0  0
   -2.5833   -4.5101    0.0000 C   0  0  0  0  0  0  0  0  0  0  0  0
   -1.7210   -4.0038    0.0000 C   0  0  0  0  0  0  0  0  0  0  0  0
   -1.7225   -3.0038    0.0000 C   0  0  0  0  0  0  0  0  0  0  0  0
   -1.7328   -0.0038    0.0000 N   0  0  0  0  0  0  0  0  0  0  0  0
   -0.8675    0.4975    0.0000 C   0  0  0  0  0  0  0  0  0  0  0  0
    0.0000    0.0000    0.0000 C   0  0  0  0  0  0  0  0  0  0  0  0
    0.0000   -1.0000    0.0000 C   0  0  0  0  0  0  0  0  0  0  0  0
    0.8675    0.4975    0.0000 C   0  0  0  0  0  0  0  0  0  0  0  0
    1.7328   -0.0038    0.0000 N   0  0  0  0  0  0  0  0  0  0  0  0
    0.8675    1.5027    0.0000 C   0  0  0  0  0  0  0  0  0  0  0  0
   -0.0000    2.0104    0.0000 N   0  0  0  0  0  0  0  0  0  0  0  0
   -0.8675    1.5027    0.0000 C   0  0  0  0  0  0  0  0  0  0  0  0
  1  2  2  0  0  0  0
  2  3  1  0  0  0  0
  3  4  1  0  0  0  0
  4 10  2  0  0  0  0
  4  5  1  0  0  0  0
  5  6  2  0  0  0  0
  6  7  1  0  0  0  0
  6  8  1  0  0  0  0
  8  9  2  0  0  0  0
  9 10  1  0  0  0  0
  2 11  1  0  0  0  0
 11 12  1  0  0  0  0
 12 19  2  0  0  0  0
 12 13  1  0  0  0  0
 13 14  1  0  0  0  0
 13 15  2  0  0  0  0
 15 16  1  0  0  0  0
 15 17  1  0  0  0  0
 17 18  2  0  0  0  0
 18 19  1  0  0  0  0
M  END
$$$$
TRY-UNI-714-4
  -OEChem-03222016562D

 17 18  0     0  0  0  0  0  0999 V2000
    2.6010    1.4950    0.0000 O   0  0  0  0  0  0  0  0  0  0  0  0
    2.5995    0.4950    0.0000 C   0  0  0  0  0  0  0  0  0  0  0  0
    3.4648   -0.0063    0.0000 C   0  0  0  0  0  0  0  0  0  0  0  0
    4.3316    0.4925    0.0000 C   0  0  0  0  0  0  0  0  0  0  0  0
    4.3301    1.4977    0.0000 C   0  0  0  0  0  0  0  0  0  0  0  0
    5.1968    1.9965    0.0000 C   0  0  0  0  0  0  0  0  0  0  0  0
    6.0651    1.5003    0.0000 C   0  0  0  0  0  0  0  0  0  0  0  0
    6.0666    0.4951    0.0000 C   0  0  0  0  0  0  0  0  0  0  0  0
    5.1999   -0.0139    0.0000 C   0  0  0  0  0  0  0  0  0  0  0  0
    1.7328   -0.0038    0.0000 N   0  0  0  0  0  0  0  0  0  0  0  0
    0.8675    0.4975    0.0000 C   0  0  0  0  0  0  0  0  0  0  0  0
    0.0000    0.0000    0.0000 C   0  0  0  0  0  0  0  0  0  0  0  0
   -0.0000   -1.0000    0.0000 C   0  0  0  0  0  0  0  0  0  0  0  0
   -0.8675    0.4975    0.0000 C   0  0  0  0  0  0  0  0  0  0  0  0
   -0.8675    1.5027    0.0000 C   0  0  0  0  0  0  0  0  0  0  0  0
    0.0000    2.0104    0.0000 N   0  0  0  0  0  0  0  0  0  0  0  0
    0.8675    1.5027    0.0000 C   0  0  0  0  0  0  0  0  0  0  0  0
  1  2  2  0  0  0  0
  2  3  1  0  0  0  0
  3  4  1  0  0  0  0
  4  9  1  0  0  0  0
  4  5  1  0  0  0  0
  5  6  1  0  0  0  0
  6  7  1  0  0  0  0
  7  8  1  0  0  0  0
  8  9  1  0  0  0  0
  2 10  1  0  0  0  0
 10 11  1  0  0  0  0
 11 17  2  0  0  0  0
 11 12  1  0  0  0  0
 12 13  1  0  0  0  0
 12 14  2  0  0  0  0
 14 15  1  0  0  0  0
 15 16  2  0  0  0  0
 16 17  1  0  0  0  0
M  END
$$$$
TRY-UNI-714-5
  -OEChem-03222016562D

 17 18  0     0  0  0  0  0  0999 V2000
    2.6010    1.4950    0.0000 O   0  0  0  0  0  0  0  0  0  0  0  0
    2.5995    0.4950    0.0000 C   0  0  0  0  0  0  0  0  0  0  0  0
    3.4648   -0.0063    0.0000 C   0  0  0  0  0  0  0  0  0  0  0  0
    4.3316    0.4925    0.0000 C   0  0  0  0  0  0  0  0  0  0  0  0
    4.3301    1.4977    0.0000 C   0  0  0  0  0  0  0  0  0  0  0  0
    5.1968    1.9965    0.0000 C   0  0  0  0  0  0  0  0  0  0  0  0
    6.0651    1.5003    0.0000 C   0  0  0  0  0  0  0  0  0  0  0  0
    6.0666    0.4951    0.0000 C   0  0  0  0  0  0  0  0  0  0  0  0
    5.1999   -0.0139    0.0000 C   0  0  0  0  0  0  0  0  0  0  0  0
    1.7328   -0.0038    0.0000 N   0  0  0  0  0  0  0  0  0  0  0  0
    0.8675    0.4975    0.0000 C   0  0  0  0  0  0  0  0  0  0  0  0
    0.0000    0.0000    0.0000 C   0  0  0  0  0  0  0  0  0  0  0  0
   -0.0000   -1.0000    0.0000 C   0  0  0  0  0  0  0  0  0  0  0  0
   -0.8675    0.4975    0.0000 C   0  0  0  0  0  0  0  0  0  0  0  0
   -0.8675    1.5027    0.0000 C   0  0  0  0  0  0  0  0  0  0  0  0
    0.0000    2.0104    0.0000 N   0  0  0  0  0  0  0  0  0  0  0  0
    0.8675    1.5027    0.0000 C   0  0  0  0  0  0  0  0  0  0  0  0
  1  2  2  0  0  0  0
  2  3  1  0  0  0  0
  3  4  1  0  0  0  0
  4  9  2  0  0  0  0
  4  5  1  0  0  0  0
  5  6  2  0  0  0  0
  6  7  1  0  0  0  0
  7  8  2  0  0  0  0
  8  9  1  0  0  0  0
  2 10  1  0  0  0  0
 10 11  1  0  0  0  0
 11 17  2  0  0  0  0
 11 12  1  0  0  0  0
 12 13  1  0  0  0  0
 12 14  2  0  0  0  0
 14 15  1  0  0  0  0
 15 16  2  0  0  0  0
 16 17  1  0  0  0  0
M  END
$$$$
TRY-UNI-714-6
  -OEChem-03222016562D

 18 19  0     0  0  0  0  0  0999 V2000
    2.6010    1.4950    0.0000 O   0  0  0  0  0  0  0  0  0  0  0  0
    2.5995    0.4950    0.0000 C   0  0  0  0  0  0  0  0  0  0  0  0
    3.4648   -0.0063    0.0000 C   0  0  0  0  0  0  0  0  0  0  0  0
    4.3316    0.4925    0.0000 C   0  0  0  0  0  0  0  0  0  0  0  0
    5.1999   -0.0139    0.0000 C   0  0  0  0  0  0  0  0  0  0  0  0
    6.0666    0.4951    0.0000 C   0  0  0  0  0  0  0  0  0  0  0  0
    6.9348   -0.0011    0.0000 Cl  0  0  0  0  0  0  0  0  0  0  0  0
    6.0651    1.5003    0.0000 C   0  0  0  0  0  0  0  0  0  0  0  0
    5.1968    1.9965    0.0000 C   0  0  0  0  0  0  0  0  0  0  0  0
    4.3301    1.4977    0.0000 C   0  0  0  0  0  0  0  0  0  0  0  0
    1.7328   -0.0038    0.0000 N   0  0  0  0  0  0  0  0  0  0  0  0
    0.8675    0.4975    0.0000 C   0  0  0  0  0  0  0  0  0  0  0  0
    0.0000    0.0000    0.0000 C   0  0  0  0  0  0  0  0  0  0  0  0
   -0.0000   -1.0000    0.0000 C   0  0  0  0  0  0  0  0  0  0  0  0
   -0.8675    0.4975    0.0000 C   0  0  0  0  0  0  0  0  0  0  0  0
   -0.8675    1.5027    0.0000 C   0  0  0  0  0  0  0  0  0  0  0  0
    0.0000    2.0104    0.0000 N   0  0  0  0  0  0  0  0  0  0  0  0
    0.8675    1.5027    0.0000 C   0  0  0  0  0  0  0  0  0  0  0  0
  1  2  2  0  0  0  0
  2  3  1  0  0  0  0
  3  4  1  0  0  0  0
  4 10  2  0  0  0  0
  4  5  1  0  0  0  0
  5  6  2  0  0  0  0
  6  7  1  0  0  0  0
  6  8  1  0  0  0  0
  8  9  2  0  0  0  0
  9 10  1  0  0  0  0
  2 11  1  0  0  0  0
 11 12  1  0  0  0  0
 12 18  2  0  0  0  0
 12 13  1  0  0  0  0
 13 14  1  0  0  0  0
 13 15  2  0  0  0  0
 15 16  1  0  0  0  0
 16 17  2  0  0  0  0
 17 18  1  0  0  0  0
M  END
$$$$
TRY-UNI-714-7
  -OEChem-03222016562D

 18 19  0     0  0  0  0  0  0999 V2000
   -0.8646   -1.5025    0.0000 O   0  0  0  0  0  0  0  0  0  0  0  0
   -1.7313   -1.0038    0.0000 C   0  0  0  0  0  0  0  0  0  0  0  0
   -2.5966   -1.5050    0.0000 N   0  0  0  0  0  0  0  0  0  0  0  0
   -2.5952   -2.5050    0.0000 C   0  0  0  0  0  0  0  0  0  0  0  0
   -1.7225   -3.0038    0.0000 C   0  0  0  0  0  0  0  0  0  0  0  0
   -1.7210   -4.0038    0.0000 C   0  0  0  0  0  0  0  0  0  0  0  0
   -2.5833   -4.5101    0.0000 C   0  0  0  0  0  0  0  0  0  0  0  0
   -3.4561   -4.0114    0.0000 C   0  0  0  0  0  0  0  0  0  0  0  0
   -3.4664   -3.0063    0.0000 C   0  0  0  0  0  0  0  0  0  0  0  0
   -1.7328   -0.0038    0.0000 N   0  0  0  0  0  0  0  0  0  0  0  0
   -0.8675    0.4975    0.0000 C   0  0  0  0  0  0  0  0  0  0  0  0
    0.0000    0.0000    0.0000 C   0  0  0  0  0  0  0  0  0  0  0  0
    0.0000   -1.0000    0.0000 C   0  0  0  0  0  0  0  0  0  0  0  0
    0.8675    0.4975    0.0000 C   0  0  0  0  0  0  0  0  0  0  0  0
    1.7328   -0.0038    0.0000 N   0  0  0  0  0  0  0  0  0  0  0  0
    0.8675    1.5027    0.0000 C   0  0  0  0  0  0  0  0  0  0  0  0
   -0.0000    2.0104    0.0000 N   0  0  0  0  0  0  0  0  0  0  0  0
   -0.8675    1.5027    0.0000 C   0  0  0  0  0  0  0  0  0  0  0  0
  1  2  2  0  0  0  0
  2  3  1  0  0  0  0
  3  4  1  0  0  0  0
  4  9  1  0  0  0  0
  4  5  1  0  0  0  0
  5  6  1  0  0  0  0
  6  7  1  0  0  0  0
  7  8  1  0  0  0  0
  8  9  1  0  0  0  0
  2 10  1  0  0  0  0
 10 11  1  0  0  0  0
 11 18  2  0  0  0  0
 11 12  1  0  0  0  0
 12 13  1  0  0  0  0
 12 14  2  0  0  0  0
 14 15  1  0  0  0  0
 14 16  1  0  0  0  0
 16 17  2  0  0  0  0
 17 18  1  0  0  0  0
M  END
$$$$
TRY-UNI-714-8
  -OEChem-03222016562D

 18 19  0     0  0  0  0  0  0999 V2000
   -0.8646   -1.5025    0.0000 O   0  0  0  0  0  0  0  0  0  0  0  0
   -1.7313   -1.0038    0.0000 C   0  0  0  0  0  0  0  0  0  0  0  0
   -2.5966   -1.5050    0.0000 N   0  0  0  0  0  0  0  0  0  0  0  0
   -2.5952   -2.5050    0.0000 C   0  0  0  0  0  0  0  0  0  0  0  0
   -1.7225   -3.0038    0.0000 C   0  0  0  0  0  0  0  0  0  0  0  0
   -1.7210   -4.0038    0.0000 C   0  0  0  0  0  0  0  0  0  0  0  0
   -2.5833   -4.5101    0.0000 C   0  0  0  0  0  0  0  0  0  0  0  0
   -3.4561   -4.0114    0.0000 C   0  0  0  0  0  0  0  0  0  0  0  0
   -3.4664   -3.0063    0.0000 C   0  0  0  0  0  0  0  0  0  0  0  0
   -1.7328   -0.0038    0.0000 N   0  0  0  0  0  0  0  0  0  0  0  0
   -0.8675    0.4975    0.0000 C   0  0  0  0  0  0  0  0  0  0  0  0
    0.0000    0.0000    0.0000 C   0  0  0  0  0  0  0  0  0  0  0  0
    0.0000   -1.0000    0.0000 C   0  0  0  0  0  0  0  0  0  0  0  0
    0.8675    0.4975    0.0000 C   0  0  0  0  0  0  0  0  0  0  0  0
    1.7328   -0.0038    0.0000 N   0  0  0  0  0  0  0  0  0  0  0  0
    0.8675    1.5027    0.0000 C   0  0  0  0  0  0  0  0  0  0  0  0
   -0.0000    2.0104    0.0000 N   0  0  0  0  0  0  0  0  0  0  0  0
   -0.8675    1.5027    0.0000 C   0  0  0  0  0  0  0  0  0  0  0  0
  1  2  2  0  0  0  0
  2  3  1  0  0  0  0
  3  4  1  0  0  0  0
  4  9  2  0  0  0  0
  4  5  1  0  0  0  0
  5  6  2  0  0  0  0
  6  7  1  0  0  0  0
  7  8  2  0  0  0  0
  8  9  1  0  0  0  0
  2 10  1  0  0  0  0
 10 11  1  0  0  0  0
 11 18  2  0  0  0  0
 11 12  1  0  0  0  0
 12 13  1  0  0  0  0
 12 14  2  0  0  0  0
 14 15  1  0  0  0  0
 14 16  1  0  0  0  0
 16 17  2  0  0  0  0
 17 18  1  0  0  0  0
M  END
$$$$
TRY-UNI-714-9
  -OEChem-03222016562D

 19 20  0     0  0  0  0  0  0999 V2000
   -0.8646   -1.5025    0.0000 O   0  0  0  0  0  0  0  0  0  0  0  0
   -1.7313   -1.0038    0.0000 C   0  0  0  0  0  0  0  0  0  0  0  0
   -2.5966   -1.5050    0.0000 N   0  0  0  0  0  0  0  0  0  0  0  0
   -2.5952   -2.5050    0.0000 C   0  0  0  0  0  0  0  0  0  0  0  0
   -3.4664   -3.0063    0.0000 C   0  0  0  0  0  0  0  0  0  0  0  0
   -3.4561   -4.0114    0.0000 C   0  0  0  0  0  0  0  0  0  0  0  0
   -4.3184   -4.5177    0.0000 Cl  0  0  0  0  0  0  0  0  0  0  0  0
   -2.5833   -4.5101    0.0000 C   0  0  0  0  0  0  0  0  0  0  0  0
   -1.7210   -4.0038    0.0000 C   0  0  0  0  0  0  0  0  0  0  0  0
   -1.7225   -3.0038    0.0000 C   0  0  0  0  0  0  0  0  0  0  0  0
   -1.7328   -0.0038    0.0000 N   0  0  0  0  0  0  0  0  0  0  0  0
   -0.8675    0.4975    0.0000 C   0  0  0  0  0  0  0  0  0  0  0  0
    0.0000    0.0000    0.0000 C   0  0  0  0  0  0  0  0  0  0  0  0
    0.0000   -1.0000    0.0000 C   0  0  0  0  0  0  0  0  0  0  0  0
    0.8675    0.4975    0.0000 C   0  0  0  0  0  0  0  0  0  0  0  0
    1.7328   -0.0038    0.0000 N   0  0  0  0  0  0  0  0  0  0  0  0
    0.8675    1.5027    0.0000 C   0  0  0  0  0  0  0  0  0  0  0  0
   -0.0000    2.0104    0.0000 N   0  0  0  0  0  0  0  0  0  0  0  0
   -0.8675    1.5027    0.0000 C   0  0  0  0  0  0  0  0  0  0  0  0
  1  2  2  0  0  0  0
  2  3  1  0  0  0  0
  3  4  1  0  0  0  0
  4 10  2  0  0  0  0
  4  5  1  0  0  0  0
  5  6  2  0  0  0  0
  6  7  1  0  0  0  0
  6  8  1  0  0  0  0
  8  9  2  0  0  0  0
  9 10  1  0  0  0  0
  2 11  1  0  0  0  0
 11 12  1  0  0  0  0
 12 19  2  0  0  0  0
 12 13  1  0  0  0  0
 13 14  1  0  0  0  0
 13 15  2  0  0  0  0
 15 16  1  0  0  0  0
 15 17  1  0  0  0  0
 17 18  2  0  0  0  0
 18 19  1  0  0  0  0
M  END
$$$$
TRY-UNI-714-10
  -OEChem-03222016562D

 17 18  0     0  0  0  0  0  0999 V2000
    2.6010    1.4950    0.0000 O   0  0  0  0  0  0  0  0  0  0  0  0
    2.5995    0.4950    0.0000 C   0  0  0  0  0  0  0  0  0  0  0  0
    3.4648   -0.0063    0.0000 N   0  0  0  0  0  0  0  0  0  0  0  0
    4.3316    0.4925    0.0000 C   0  0  0  0  0  0  0  0  0  0  0  0
    4.3301    1.4977    0.0000 C   0  0  0  0  0  0  0  0  0  0  0  0
    5.1968    1.9965    0.0000 C   0  0  0  0  0  0  0  0  0  0  0  0
    6.0651    1.5003    0.0000 C   0  0  0  0  0  0  0  0  0  0  0  0
    6.0666    0.4951    0.0000 C   0  0  0  0  0  0  0  0  0  0  0  0
    5.1999   -0.0139    0.0000 C   0  0  0  0  0  0  0  0  0  0  0  0
    1.7328   -0.0038    0.0000 N   0  0  0  0  0  0  0  0  0  0  0  0
    0.8675    0.4975    0.0000 C   0  0  0  0  0  0  0  0  0  0  0  0
    0.0000    0.0000    0.0000 C   0  0  0  0  0  0  0  0  0  0  0  0
   -0.0000   -1.0000    0.0000 C   0  0  0  0  0  0  0  0  0  0  0  0
   -0.8675    0.4975    0.0000 C   0  0  0  0  0  0  0  0  0  0  0  0
   -0.8675    1.5027    0.0000 C   0  0  0  0  0  0  0  0  0  0  0  0
    0.0000    2.0104    0.0000 N   0  0  0  0  0  0  0  0  0  0  0  0
    0.8675    1.5027    0.0000 C   0  0  0  0  0  0  0  0  0  0  0  0
  1  2  2  0  0  0  0
  2  3  1  0  0  0  0
  3  4  1  0  0  0  0
  4  9  1  0  0  0  0
  4  5  1  0  0  0  0
  5  6  1  0  0  0  0
  6  7  1  0  0  0  0
  7  8  1  0  0  0  0
  8  9  1  0  0  0  0
  2 10  1  0  0  0  0
 10 11  1  0  0  0  0
 11 17  2  0  0  0  0
 11 12  1  0  0  0  0
 12 13  1  0  0  0  0
 12 14  2  0  0  0  0
 14 15  1  0  0  0  0
 15 16  2  0  0  0  0
 16 17  1  0  0  0  0
M  END
$$$$
TRY-UNI-714-11
  -OEChem-03222016562D

 17 18  0     0  0  0  0  0  0999 V2000
    2.6010    1.4950    0.0000 O   0  0  0  0  0  0  0  0  0  0  0  0
    2.5995    0.4950    0.0000 C   0  0  0  0  0  0  0  0  0  0  0  0
    3.4648   -0.0063    0.0000 N   0  0  0  0  0  0  0  0  0  0  0  0
    4.3316    0.4925    0.0000 C   0  0  0  0  0  0  0  0  0  0  0  0
    4.3301    1.4977    0.0000 C   0  0  0  0  0  0  0  0  0  0  0  0
    5.1968    1.9965    0.0000 C   0  0  0  0  0  0  0  0  0  0  0  0
    6.0651    1.5003    0.0000 C   0  0  0  0  0  0  0  0  0  0  0  0
    6.0666    0.4951    0.0000 C   0  0  0  0  0  0  0  0  0  0  0  0
    5.1999   -0.0139    0.0000 C   0  0  0  0  0  0  0  0  0  0  0  0
    1.7328   -0.0038    0.0000 N   0  0  0  0  0  0  0  0  0  0  0  0
    0.8675    0.4975    0.0000 C   0  0  0  0  0  0  0  0  0  0  0  0
    0.0000    0.0000    0.0000 C   0  0  0  0  0  0  0  0  0  0  0  0
   -0.0000   -1.0000    0.0000 C   0  0  0  0  0  0  0  0  0  0  0  0
   -0.8675    0.4975    0.0000 C   0  0  0  0  0  0  0  0  0  0  0  0
   -0.8675    1.5027    0.0000 C   0  0  0  0  0  0  0  0  0  0  0  0
    0.0000    2.0104    0.0000 N   0  0  0  0  0  0  0  0  0  0  0  0
    0.8675    1.5027    0.0000 C   0  0  0  0  0  0  0  0  0  0  0  0
  1  2  2  0  0  0  0
  2  3  1  0  0  0  0
  3  4  1  0  0  0  0
  4  9  2  0  0  0  0
  4  5  1  0  0  0  0
  5  6  2  0  0  0  0
  6  7  1  0  0  0  0
  7  8  2  0  0  0  0
  8  9  1  0  0  0  0
  2 10  1  0  0  0  0
 10 11  1  0  0  0  0
 11 17  2  0  0  0  0
 11 12  1  0  0  0  0
 12 13  1  0  0  0  0
 12 14  2  0  0  0  0
 14 15  1  0  0  0  0
 15 16  2  0  0  0  0
 16 17  1  0  0  0  0
M  END
$$$$
TRY-UNI-714-12
  -OEChem-03222016562D

 18 19  0     0  0  0  0  0  0999 V2000
    2.6010    1.4950    0.0000 O   0  0  0  0  0  0  0  0  0  0  0  0
    2.5995    0.4950    0.0000 C   0  0  0  0  0  0  0  0  0  0  0  0
    3.4648   -0.0063    0.0000 N   0  0  0  0  0  0  0  0  0  0  0  0
    4.3316    0.4925    0.0000 C   0  0  0  0  0  0  0  0  0  0  0  0
    5.1999   -0.0139    0.0000 C   0  0  0  0  0  0  0  0  0  0  0  0
    6.0666    0.4951    0.0000 C   0  0  0  0  0  0  0  0  0  0  0  0
    6.9348   -0.0011    0.0000 Cl  0  0  0  0  0  0  0  0  0  0  0  0
    6.0651    1.5003    0.0000 C   0  0  0  0  0  0  0  0  0  0  0  0
    5.1968    1.9965    0.0000 C   0  0  0  0  0  0  0  0  0  0  0  0
    4.3301    1.4977    0.0000 C   0  0  0  0  0  0  0  0  0  0  0  0
    1.7328   -0.0038    0.0000 N   0  0  0  0  0  0  0  0  0  0  0  0
    0.8675    0.4975    0.0000 C   0  0  0  0  0  0  0  0  0  0  0  0
    0.0000    0.0000    0.0000 C   0  0  0  0  0  0  0  0  0  0  0  0
   -0.0000   -1.0000    0.0000 C   0  0  0  0  0  0  0  0  0  0  0  0
   -0.8675    0.4975    0.0000 C   0  0  0  0  0  0  0  0  0  0  0  0
   -0.8675    1.5027    0.0000 C   0  0  0  0  0  0  0  0  0  0  0  0
    0.0000    2.0104    0.0000 N   0  0  0  0  0  0  0  0  0  0  0  0
    0.8675    1.5027    0.0000 C   0  0  0  0  0  0  0  0  0  0  0  0
  1  2  2  0  0  0  0
  2  3  1  0  0  0  0
  3  4  1  0  0  0  0
  4 10  2  0  0  0  0
  4  5  1  0  0  0  0
  5  6  2  0  0  0  0
  6  7  1  0  0  0  0
  6  8  1  0  0  0  0
  8  9  2  0  0  0  0
  9 10  1  0  0  0  0
  2 11  1  0  0  0  0
 11 12  1  0  0  0  0
 12 18  2  0  0  0  0
 12 13  1  0  0  0  0
 13 14  1  0  0  0  0
 13 15  2  0  0  0  0
 15 16  1  0  0  0  0
 16 17  2  0  0  0  0
 17 18  1  0  0  0  0
M  END
$$$$
TRY-UNI-714-13
  -OEChem-03222016562D

 19 20  0     1  0  0  0  0  0999 V2000
   -0.8646   -1.5025    0.0000 O   0  0  0  0  0  0  0  0  0  0  0  0
   -1.7313   -1.0038    0.0000 C   0  0  0  0  0  0  0  0  0  0  0  0
   -2.5966   -1.5050    0.0000 C   0  0  3  0  0  0  0  0  0  0  0  0
   -2.5952   -2.5050    0.0000 C   0  0  0  0  0  0  0  0  0  0  0  0
   -1.7225   -3.0038    0.0000 C   0  0  0  0  0  0  0  0  0  0  0  0
   -1.7210   -4.0038    0.0000 C   0  0  0  0  0  0  0  0  0  0  0  0
   -2.5833   -4.5101    0.0000 C   0  0  0  0  0  0  0  0  0  0  0  0
   -3.4561   -4.0114    0.0000 C   0  0  0  0  0  0  0  0  0  0  0  0
   -3.4664   -3.0063    0.0000 C   0  0  0  0  0  0  0  0  0  0  0  0
   -3.4634   -1.0063    0.0000 C   0  0  0  0  0  0  0  0  0  0  0  0
   -1.7328   -0.0038    0.0000 N   0  0  0  0  0  0  0  0  0  0  0  0
   -0.8675    0.4975    0.0000 C   0  0  0  0  0  0  0  0  0  0  0  0
    0.0000    0.0000    0.0000 C   0  0  0  0  0  0  0  0  0  0  0  0
    0.0000   -1.0000    0.0000 C   0  0  0  0  0  0  0  0  0  0  0  0
    0.8675    0.4975    0.0000 C   0  0  0  0  0  0  0  0  0  0  0  0
    1.7328   -0.0038    0.0000 N   0  0  0  0  0  0  0  0  0  0  0  0
    0.8675    1.5027    0.0000 C   0  0  0  0  0  0  0  0  0  0  0  0
   -0.0000    2.0104    0.0000 N   0  0  0  0  0  0  0  0  0  0  0  0
   -0.8675    1.5027    0.0000 C   0  0  0  0  0  0  0  0  0  0  0  0
  1  2  2  0  0  0  0
  2  3  1  0  0  0  0
  3  4  1  0  0  0  0
  4  9  1  0  0  0  0
  4  5  1  0  0  0  0
  5  6  1  0  0  0  0
  6  7  1  0  0  0  0
  7  8  1  0  0  0  0
  8  9  1  0  0  0  0
  3 10  1  0  0  0  0
  2 11  1  0  0  0  0
 11 12  1  0  0  0  0
 12 19  2  0  0  0  0
 12 13  1  0  0  0  0
 13 14  1  0  0  0  0
 13 15  2  0  0  0  0
 15 16  1  0  0  0  0
 15 17  1  0  0  0  0
 17 18  2  0  0  0  0
 18 19  1  0  0  0  0
M  END
$$$$
TRY-UNI-714-14
  -OEChem-03222016562D

 19 20  0     1  0  0  0  0  0999 V2000
   -0.8646   -1.5025    0.0000 O   0  0  0  0  0  0  0  0  0  0  0  0
   -1.7313   -1.0038    0.0000 C   0  0  0  0  0  0  0  0  0  0  0  0
   -2.5966   -1.5050    0.0000 C   0  0  3  0  0  0  0  0  0  0  0  0
   -2.5952   -2.5050    0.0000 C   0  0  0  0  0  0  0  0  0  0  0  0
   -1.7225   -3.0038    0.0000 C   0  0  0  0  0  0  0  0  0  0  0  0
   -1.7210   -4.0038    0.0000 C   0  0  0  0  0  0  0  0  0  0  0  0
   -2.5833   -4.5101    0.0000 C   0  0  0  0  0  0  0  0  0  0  0  0
   -3.4561   -4.0114    0.0000 C   0  0  0  0  0  0  0  0  0  0  0  0
   -3.4664   -3.0063    0.0000 C   0  0  0  0  0  0  0  0  0  0  0  0
   -3.4634   -1.0063    0.0000 C   0  0  0  0  0  0  0  0  0  0  0  0
   -1.7328   -0.0038    0.0000 N   0  0  0  0  0  0  0  0  0  0  0  0
   -0.8675    0.4975    0.0000 C   0  0  0  0  0  0  0  0  0  0  0  0
    0.0000    0.0000    0.0000 C   0  0  0  0  0  0  0  0  0  0  0  0
    0.0000   -1.0000    0.0000 C   0  0  0  0  0  0  0  0  0  0  0  0
    0.8675    0.4975    0.0000 C   0  0  0  0  0  0  0  0  0  0  0  0
    1.7328   -0.0038    0.0000 N   0  0  0  0  0  0  0  0  0  0  0  0
    0.8675    1.5027    0.0000 C   0  0  0  0  0  0  0  0  0  0  0  0
   -0.0000    2.0104    0.0000 N   0  0  0  0  0  0  0  0  0  0  0  0
   -0.8675    1.5027    0.0000 C   0  0  0  0  0  0  0  0  0  0  0  0
  1  2  2  0  0  0  0
  2  3  1  0  0  0  0
  3  4  1  0  0  0  0
  4  9  2  0  0  0  0
  4  5  1  0  0  0  0
  5  6  2  0  0  0  0
  6  7  1  0  0  0  0
  7  8  2  0  0  0  0
  8  9  1  0  0  0  0
  3 10  1  0  0  0  0
  2 11  1  0  0  0  0
 11 12  1  0  0  0  0
 12 19  2  0  0  0  0
 12 13  1  0  0  0  0
 13 14  1  0  0  0  0
 13 15  2  0  0  0  0
 15 16  1  0  0  0  0
 15 17  1  0  0  0  0
 17 18  2  0  0  0  0
 18 19  1  0  0  0  0
M  END
$$$$
TRY-UNI-714-15
  -OEChem-03222016562D

 20 21  0     1  0  0  0  0  0999 V2000
   -0.8646   -1.5025    0.0000 O   0  0  0  0  0  0  0  0  0  0  0  0
   -1.7313   -1.0038    0.0000 C   0  0  0  0  0  0  0  0  0  0  0  0
   -2.5966   -1.5050    0.0000 C   0  0  3  0  0  0  0  0  0  0  0  0
   -2.5952   -2.5050    0.0000 C   0  0  0  0  0  0  0  0  0  0  0  0
   -3.4664   -3.0063    0.0000 C   0  0  0  0  0  0  0  0  0  0  0  0
   -3.4561   -4.0114    0.0000 C   0  0  0  0  0  0  0  0  0  0  0  0
   -4.3184   -4.5177    0.0000 Cl  0  0  0  0  0  0  0  0  0  0  0  0
   -2.5833   -4.5101    0.0000 C   0  0  0  0  0  0  0  0  0  0  0  0
   -1.7210   -4.0038    0.0000 C   0  0  0  0  0  0  0  0  0  0  0  0
   -1.7225   -3.0038    0.0000 C   0  0  0  0  0  0  0  0  0  0  0  0
   -3.4634   -1.0063    0.0000 C   0  0  0  0  0  0  0  0  0  0  0  0
   -1.7328   -0.0038    0.0000 N   0  0  0  0  0  0  0  0  0  0  0  0
   -0.8675    0.4975    0.0000 C   0  0  0  0  0  0  0  0  0  0  0  0
    0.0000    0.0000    0.0000 C   0  0  0  0  0  0  0  0  0  0  0  0
    0.0000   -1.0000    0.0000 C   0  0  0  0  0  0  0  0  0  0  0  0
    0.8675    0.4975    0.0000 C   0  0  0  0  0  0  0  0  0  0  0  0
    1.7328   -0.0038    0.0000 N   0  0  0  0  0  0  0  0  0  0  0  0
    0.8675    1.5027    0.0000 C   0  0  0  0  0  0  0  0  0  0  0  0
   -0.0000    2.0104    0.0000 N   0  0  0  0  0  0  0  0  0  0  0  0
   -0.8675    1.5027    0.0000 C   0  0  0  0  0  0  0  0  0  0  0  0
  1  2  2  0  0  0  0
  2  3  1  0  0  0  0
  3  4  1  0  0  0  0
  4 10  2  0  0  0  0
  4  5  1  0  0  0  0
  5  6  2  0  0  0  0
  6  7  1  0  0  0  0
  6  8  1  0  0  0  0
  8  9  2  0  0  0  0
  9 10  1  0  0  0  0
  3 11  1  0  0  0  0
  2 12  1  0  0  0  0
 12 13  1  0  0  0  0
 13 20  2  0  0  0  0
 13 14  1  0  0  0  0
 14 15  1  0  0  0  0
 14 16  2  0  0  0  0
 16 17  1  0  0  0  0
 16 18  1  0  0  0  0
 18 19  2  0  0  0  0
 19 20  1  0  0  0  0
M  END
$$$$
TRY-UNI-714-16
  -OEChem-03222016562D

 18 19  0     1  0  0  0  0  0999 V2000
    2.6010    1.4950    0.0000 O   0  0  0  0  0  0  0  0  0  0  0  0
    2.5995    0.4950    0.0000 C   0  0  0  0  0  0  0  0  0  0  0  0
    3.4648   -0.0063    0.0000 C   0  0  3  0  0  0  0  0  0  0  0  0
    4.3316    0.4925    0.0000 C   0  0  0  0  0  0  0  0  0  0  0  0
    4.3301    1.4977    0.0000 C   0  0  0  0  0  0  0  0  0  0  0  0
    5.1968    1.9965    0.0000 C   0  0  0  0  0  0  0  0  0  0  0  0
    6.0651    1.5003    0.0000 C   0  0  0  0  0  0  0  0  0  0  0  0
    6.0666    0.4951    0.0000 C   0  0  0  0  0  0  0  0  0  0  0  0
    5.1999   -0.0139    0.0000 C   0  0  0  0  0  0  0  0  0  0  0  0
    3.4634   -1.0063    0.0000 C   0  0  0  0  0  0  0  0  0  0  0  0
    1.7328   -0.0038    0.0000 N   0  0  0  0  0  0  0  0  0  0  0  0
    0.8675    0.4975    0.0000 C   0  0  0  0  0  0  0  0  0  0  0  0
    0.0000    0.0000    0.0000 C   0  0  0  0  0  0  0  0  0  0  0  0
   -0.0000   -1.0000    0.0000 C   0  0  0  0  0  0  0  0  0  0  0  0
   -0.8675    0.4975    0.0000 C   0  0  0  0  0  0  0  0  0  0  0  0
   -0.8675    1.5027    0.0000 C   0  0  0  0  0  0  0  0  0  0  0  0
    0.0000    2.0104    0.0000 N   0  0  0  0  0  0  0  0  0  0  0  0
    0.8675    1.5027    0.0000 C   0  0  0  0  0  0  0  0  0  0  0  0
  1  2  2  0  0  0  0
  2  3  1  0  0  0  0
  3  4  1  0  0  0  0
  4  9  1  0  0  0  0
  4  5  1  0  0  0  0
  5  6  1  0  0  0  0
  6  7  1  0  0  0  0
  7  8  1  0  0  0  0
  8  9  1  0  0  0  0
  3 10  1  0  0  0  0
  2 11  1  0  0  0  0
 11 12  1  0  0  0  0
 12 18  2  0  0  0  0
 12 13  1  0  0  0  0
 13 14  1  0  0  0  0
 13 15  2  0  0  0  0
 15 16  1  0  0  0  0
 16 17  2  0  0  0  0
 17 18  1  0  0  0  0
M  END
$$$$
TRY-UNI-714-17
  -OEChem-03222016562D

 18 19  0     1  0  0  0  0  0999 V2000
    2.6010    1.4950    0.0000 O   0  0  0  0  0  0  0  0  0  0  0  0
    2.5995    0.4950    0.0000 C   0  0  0  0  0  0  0  0  0  0  0  0
    3.4648   -0.0063    0.0000 C   0  0  3  0  0  0  0  0  0  0  0  0
    4.3316    0.4925    0.0000 C   0  0  0  0  0  0  0  0  0  0  0  0
    4.3301    1.4977    0.0000 C   0  0  0  0  0  0  0  0  0  0  0  0
    5.1968    1.9965    0.0000 C   0  0  0  0  0  0  0  0  0  0  0  0
    6.0651    1.5003    0.0000 C   0  0  0  0  0  0  0  0  0  0  0  0
    6.0666    0.4951    0.0000 C   0  0  0  0  0  0  0  0  0  0  0  0
    5.1999   -0.0139    0.0000 C   0  0  0  0  0  0  0  0  0  0  0  0
    3.4634   -1.0063    0.0000 C   0  0  0  0  0  0  0  0  0  0  0  0
    1.7328   -0.0038    0.0000 N   0  0  0  0  0  0  0  0  0  0  0  0
    0.8675    0.4975    0.0000 C   0  0  0  0  0  0  0  0  0  0  0  0
    0.0000    0.0000    0.0000 C   0  0  0  0  0  0  0  0  0  0  0  0
   -0.0000   -1.0000    0.0000 C   0  0  0  0  0  0  0  0  0  0  0  0
   -0.8675    0.4975    0.0000 C   0  0  0  0  0  0  0  0  0  0  0  0
   -0.8675    1.5027    0.0000 C   0  0  0  0  0  0  0  0  0  0  0  0
    0.0000    2.0104    0.0000 N   0  0  0  0  0  0  0  0  0  0  0  0
    0.8675    1.5027    0.0000 C   0  0  0  0  0  0  0  0  0  0  0  0
  1  2  2  0  0  0  0
  2  3  1  0  0  0  0
  3  4  1  0  0  0  0
  4  9  2  0  0  0  0
  4  5  1  0  0  0  0
  5  6  2  0  0  0  0
  6  7  1  0  0  0  0
  7  8  2  0  0  0  0
  8  9  1  0  0  0  0
  3 10  1  0  0  0  0
  2 11  1  0  0  0  0
 11 12  1  0  0  0  0
 12 18  2  0  0  0  0
 12 13  1  0  0  0  0
 13 14  1  0  0  0  0
 13 15  2  0  0  0  0
 15 16  1  0  0  0  0
 16 17  2  0  0  0  0
 17 18  1  0  0  0  0
M  END
$$$$
TRY-UNI-714-18
  -OEChem-03222016562D

 19 20  0     1  0  0  0  0  0999 V2000
    2.6010    1.4950    0.0000 O   0  0  0  0  0  0  0  0  0  0  0  0
    2.5995    0.4950    0.0000 C   0  0  0  0  0  0  0  0  0  0  0  0
    3.4648   -0.0063    0.0000 C   0  0  3  0  0  0  0  0  0  0  0  0
    4.3316    0.4925    0.0000 C   0  0  0  0  0  0  0  0  0  0  0  0
    5.1999   -0.0139    0.0000 C   0  0  0  0  0  0  0  0  0  0  0  0
    6.0666    0.4951    0.0000 C   0  0  0  0  0  0  0  0  0  0  0  0
    6.9348   -0.0011    0.0000 Cl  0  0  0  0  0  0  0  0  0  0  0  0
    6.0651    1.5003    0.0000 C   0  0  0  0  0  0  0  0  0  0  0  0
    5.1968    1.9965    0.0000 C   0  0  0  0  0  0  0  0  0  0  0  0
    4.3301    1.4977    0.0000 C   0  0  0  0  0  0  0  0  0  0  0  0
    3.4634   -1.0063    0.0000 C   0  0  0  0  0  0  0  0  0  0  0  0
    1.7328   -0.0038    0.0000 N   0  0  0  0  0  0  0  0  0  0  0  0
    0.8675    0.4975    0.0000 C   0  0  0  0  0  0  0  0  0  0  0  0
    0.0000    0.0000    0.0000 C   0  0  0  0  0  0  0  0  0  0  0  0
   -0.0000   -1.0000    0.0000 C   0  0  0  0  0  0  0  0  0  0  0  0
   -0.8675    0.4975    0.0000 C   0  0  0  0  0  0  0  0  0  0  0  0
   -0.8675    1.5027    0.0000 C   0  0  0  0  0  0  0  0  0  0  0  0
    0.0000    2.0104    0.0000 N   0  0  0  0  0  0  0  0  0  0  0  0
    0.8675    1.5027    0.0000 C   0  0  0  0  0  0  0  0  0  0  0  0
  1  2  2  0  0  0  0
  2  3  1  0  0  0  0
  3  4  1  0  0  0  0
  4 10  2  0  0  0  0
  4  5  1  0  0  0  0
  5  6  2  0  0  0  0
  6  7  1  0  0  0  0
  6  8  1  0  0  0  0
  8  9  2  0  0  0  0
  9 10  1  0  0  0  0
  3 11  1  0  0  0  0
  2 12  1  0  0  0  0
 12 13  1  0  0  0  0
 13 19  2  0  0  0  0
 13 14  1  0  0  0  0
 14 15  1  0  0  0  0
 14 16  2  0  0  0  0
 16 17  1  0  0  0  0
 17 18  2  0  0  0  0
 18 19  1  0  0  0  0
M  END
$$$$
TRY-UNI-714-19
  -OEChem-03222016562D

 20 21  0     0  0  0  0  0  0999 V2000
   -0.8646   -1.5025    0.0000 O   0  0  0  0  0  0  0  0  0  0  0  0
   -1.7313   -1.0038    0.0000 C   0  0  0  0  0  0  0  0  0  0  0  0
   -2.5966   -1.5050    0.0000 C   0  0  0  0  0  0  0  0  0  0  0  0
   -2.5952   -2.5050    0.0000 C   0  0  0  0  0  0  0  0  0  0  0  0
   -3.4664   -3.0063    0.0000 C   0  0  0  0  0  0  0  0  0  0  0  0
   -3.4561   -4.0114    0.0000 C   0  0  0  0  0  0  0  0  0  0  0  0
   -4.3184   -4.5177    0.0000 C   0  0  0  0  0  0  0  0  0  0  0  0
   -5.1807   -5.0241    0.0000 N   0  0  0  0  0  0  0  0  0  0  0  0
   -2.5833   -4.5101    0.0000 C   0  0  0  0  0  0  0  0  0  0  0  0
   -1.7210   -4.0038    0.0000 C   0  0  0  0  0  0  0  0  0  0  0  0
   -1.7225   -3.0038    0.0000 C   0  0  0  0  0  0  0  0  0  0  0  0
   -1.7328   -0.0038    0.0000 N   0  0  0  0  0  0  0  0  0  0  0  0
   -0.8675    0.4975    0.0000 C   0  0  0  0  0  0  0  0  0  0  0  0
    0.0000    0.0000    0.0000 C   0  0  0  0  0  0  0  0  0  0  0  0
    0.0000   -1.0000    0.0000 C   0  0  0  0  0  0  0  0  0  0  0  0
    0.8675    0.4975    0.0000 C   0  0  0  0  0  0  0  0  0  0  0  0
    1.7328   -0.0038    0.0000 N   0  0  0  0  0  0  0  0  0  0  0  0
    0.8675    1.5027    0.0000 C   0  0  0  0  0  0  0  0  0  0  0  0
   -0.0000    2.0104    0.0000 N   0  0  0  0  0  0  0  0  0  0  0  0
   -0.8675    1.5027    0.0000 C   0  0  0  0  0  0  0  0  0  0  0  0
  1  2  2  0  0  0  0
  2  3  1  0  0  0  0
  3  4  1  0  0  0  0
  4 11  2  0  0  0  0
  4  5  1  0  0  0  0
  5  6  2  0  0  0  0
  6  7  1  0  0  0  0
  7  8  3  0  0  0  0
  6  9  1  0  0  0  0
  9 10  2  0  0  0  0
 10 11  1  0  0  0  0
  2 12  1  0  0  0  0
 12 13  1  0  0  0  0
 13 20  2  0  0  0  0
 13 14  1  0  0  0  0
 14 15  1  0  0  0  0
 14 16  2  0  0  0  0
 16 17  1  0  0  0  0
 16 18  1  0  0  0  0
 18 19  2  0  0  0  0
 19 20  1  0  0  0  0
M  END
$$$$
TRY-UNI-714-20
  -OEChem-03222016562D

 19 20  0     0  0  0  0  0  0999 V2000
    2.6010    1.4950    0.0000 O   0  0  0  0  0  0  0  0  0  0  0  0
    2.5995    0.4950    0.0000 C   0  0  0  0  0  0  0  0  0  0  0  0
    3.4648   -0.0063    0.0000 C   0  0  0  0  0  0  0  0  0  0  0  0
    4.3316    0.4925    0.0000 C   0  0  0  0  0  0  0  0  0  0  0  0
    5.1999   -0.0139    0.0000 C   0  0  0  0  0  0  0  0  0  0  0  0
    6.0666    0.4951    0.0000 C   0  0  0  0  0  0  0  0  0  0  0  0
    6.9348   -0.0011    0.0000 C   0  0  0  0  0  0  0  0  0  0  0  0
    7.8031   -0.4972    0.0000 N   0  0  0  0  0  0  0  0  0  0  0  0
    6.0651    1.5003    0.0000 C   0  0  0  0  0  0  0  0  0  0  0  0
    5.1968    1.9965    0.0000 C   0  0  0  0  0  0  0  0  0  0  0  0
    4.3301    1.4977    0.0000 C   0  0  0  0  0  0  0  0  0  0  0  0
    1.7328   -0.0038    0.0000 N   0  0  0  0  0  0  0  0  0  0  0  0
    0.8675    0.4975    0.0000 C   0  0  0  0  0  0  0  0  0  0  0  0
    0.0000    0.0000    0.0000 C   0  0  0  0  0  0  0  0  0  0  0  0
   -0.0000   -1.0000    0.0000 C   0  0  0  0  0  0  0  0  0  0  0  0
   -0.8675    0.4975    0.0000 C   0  0  0  0  0  0  0  0  0  0  0  0
   -0.8675    1.5027    0.0000 C   0  0  0  0  0  0  0  0  0  0  0  0
    0.0000    2.0104    0.0000 N   0  0  0  0  0  0  0  0  0  0  0  0
    0.8675    1.5027    0.0000 C   0  0  0  0  0  0  0  0  0  0  0  0
  1  2  2  0  0  0  0
  2  3  1  0  0  0  0
  3  4  1  0  0  0  0
  4 11  2  0  0  0  0
  4  5  1  0  0  0  0
  5  6  2  0  0  0  0
  6  7  1  0  0  0  0
  7  8  3  0  0  0  0
  6  9  1  0  0  0  0
  9 10  2  0  0  0  0
 10 11  1  0  0  0  0
  2 12  1  0  0  0  0
 12 13  1  0  0  0  0
 13 19  2  0  0  0  0
 13 14  1  0  0  0  0
 14 15  1  0  0  0  0
 14 16  2  0  0  0  0
 16 17  1  0  0  0  0
 17 18  2  0  0  0  0
 18 19  1  0  0  0  0
M  END
$$$$
TRY-UNI-714-21
  -OEChem-03222016562D

 21 22  0     1  0  0  0  0  0999 V2000
   -0.8646   -1.5025    0.0000 O   0  0  0  0  0  0  0  0  0  0  0  0
   -1.7313   -1.0038    0.0000 C   0  0  0  0  0  0  0  0  0  0  0  0
   -2.5966   -1.5050    0.0000 C   0  0  3  0  0  0  0  0  0  0  0  0
   -2.5952   -2.5050    0.0000 C   0  0  0  0  0  0  0  0  0  0  0  0
   -3.4664   -3.0063    0.0000 C   0  0  0  0  0  0  0  0  0  0  0  0
   -3.4561   -4.0114    0.0000 C   0  0  0  0  0  0  0  0  0  0  0  0
   -4.3184   -4.5177    0.0000 C   0  0  0  0  0  0  0  0  0  0  0  0
   -5.1807   -5.0241    0.0000 N   0  0  0  0  0  0  0  0  0  0  0  0
   -2.5833   -4.5101    0.0000 C   0  0  0  0  0  0  0  0  0  0  0  0
   -1.7210   -4.0038    0.0000 C   0  0  0  0  0  0  0  0  0  0  0  0
   -1.7225   -3.0038    0.0000 C   0  0  0  0  0  0  0  0  0  0  0  0
   -3.4634   -1.0063    0.0000 C   0  0  0  0  0  0  0  0  0  0  0  0
   -1.7328   -0.0038    0.0000 N   0  0  0  0  0  0  0  0  0  0  0  0
   -0.8675    0.4975    0.0000 C   0  0  0  0  0  0  0  0  0  0  0  0
    0.0000    0.0000    0.0000 C   0  0  0  0  0  0  0  0  0  0  0  0
    0.0000   -1.0000    0.0000 C   0  0  0  0  0  0  0  0  0  0  0  0
    0.8675    0.4975    0.0000 C   0  0  0  0  0  0  0  0  0  0  0  0
    1.7328   -0.0038    0.0000 N   0  0  0  0  0  0  0  0  0  0  0  0
    0.8675    1.5027    0.0000 C   0  0  0  0  0  0  0  0  0  0  0  0
   -0.0000    2.0104    0.0000 N   0  0  0  0  0  0  0  0  0  0  0  0
   -0.8675    1.5027    0.0000 C   0  0  0  0  0  0  0  0  0  0  0  0
  1  2  2  0  0  0  0
  2  3  1  0  0  0  0
  3  4  1  0  0  0  0
  4 11  2  0  0  0  0
  4  5  1  0  0  0  0
  5  6  2  0  0  0  0
  6  7  1  0  0  0  0
  7  8  3  0  0  0  0
  6  9  1  0  0  0  0
  9 10  2  0  0  0  0
 10 11  1  0  0  0  0
  3 12  1  0  0  0  0
  2 13  1  0  0  0  0
 13 14  1  0  0  0  0
 14 21  2  0  0  0  0
 14 15  1  0  0  0  0
 15 16  1  0  0  0  0
 15 17  2  0  0  0  0
 17 18  1  0  0  0  0
 17 19  1  0  0  0  0
 19 20  2  0  0  0  0
 20 21  1  0  0  0  0
M  END
$$$$
TRY-UNI-714-22
  -OEChem-03222016562D

 20 21  0     1  0  0  0  0  0999 V2000
    2.6010    1.4950    0.0000 O   0  0  0  0  0  0  0  0  0  0  0  0
    2.5995    0.4950    0.0000 C   0  0  0  0  0  0  0  0  0  0  0  0
    3.4648   -0.0063    0.0000 C   0  0  3  0  0  0  0  0  0  0  0  0
    4.3316    0.4925    0.0000 C   0  0  0  0  0  0  0  0  0  0  0  0
    5.1999   -0.0139    0.0000 C   0  0  0  0  0  0  0  0  0  0  0  0
    6.0666    0.4951    0.0000 C   0  0  0  0  0  0  0  0  0  0  0  0
    6.9348   -0.0011    0.0000 C   0  0  0  0  0  0  0  0  0  0  0  0
    7.8031   -0.4972    0.0000 N   0  0  0  0  0  0  0  0  0  0  0  0
    6.0651    1.5003    0.0000 C   0  0  0  0  0  0  0  0  0  0  0  0
    5.1968    1.9965    0.0000 C   0  0  0  0  0  0  0  0  0  0  0  0
    4.3301    1.4977    0.0000 C   0  0  0  0  0  0  0  0  0  0  0  0
    3.4634   -1.0063    0.0000 C   0  0  0  0  0  0  0  0  0  0  0  0
    1.7328   -0.0038    0.0000 N   0  0  0  0  0  0  0  0  0  0  0  0
    0.8675    0.4975    0.0000 C   0  0  0  0  0  0  0  0  0  0  0  0
    0.0000    0.0000    0.0000 C   0  0  0  0  0  0  0  0  0  0  0  0
   -0.0000   -1.0000    0.0000 C   0  0  0  0  0  0  0  0  0  0  0  0
   -0.8675    0.4975    0.0000 C   0  0  0  0  0  0  0  0  0  0  0  0
   -0.8675    1.5027    0.0000 C   0  0  0  0  0  0  0  0  0  0  0  0
    0.0000    2.0104    0.0000 N   0  0  0  0  0  0  0  0  0  0  0  0
    0.8675    1.5027    0.0000 C   0  0  0  0  0  0  0  0  0  0  0  0
  1  2  2  0  0  0  0
  2  3  1  0  0  0  0
  3  4  1  0  0  0  0
  4 11  2  0  0  0  0
  4  5  1  0  0  0  0
  5  6  2  0  0  0  0
  6  7  1  0  0  0  0
  7  8  3  0  0  0  0
  6  9  1  0  0  0  0
  9 10  2  0  0  0  0
 10 11  1  0  0  0  0
  3 12  1  0  0  0  0
  2 13  1  0  0  0  0
 13 14  1  0  0  0  0
 14 20  2  0  0  0  0
 14 15  1  0  0  0  0
 15 16  1  0  0  0  0
 15 17  2  0  0  0  0
 17 18  1  0  0  0  0
 18 19  2  0  0  0  0
 19 20  1  0  0  0  0
M  END
$$$$
TRY-UNI-714-23
  -OEChem-03222016562D

 20 21  0     0  0  0  0  0  0999 V2000
   -0.8646   -1.5025    0.0000 O   0  0  0  0  0  0  0  0  0  0  0  0
   -1.7313   -1.0038    0.0000 C   0  0  0  0  0  0  0  0  0  0  0  0
   -2.5966   -1.5050    0.0000 N   0  0  0  0  0  0  0  0  0  0  0  0
   -2.5952   -2.5050    0.0000 C   0  0  0  0  0  0  0  0  0  0  0  0
   -3.4664   -3.0063    0.0000 C   0  0  0  0  0  0  0  0  0  0  0  0
   -3.4561   -4.0114    0.0000 C   0  0  0  0  0  0  0  0  0  0  0  0
   -4.3184   -4.5177    0.0000 C   0  0  0  0  0  0  0  0  0  0  0  0
   -5.1807   -5.0241    0.0000 N   0  0  0  0  0  0  0  0  0  0  0  0
   -2.5833   -4.5101    0.0000 C   0  0  0  0  0  0  0  0  0  0  0  0
   -1.7210   -4.0038    0.0000 C   0  0  0  0  0  0  0  0  0  0  0  0
   -1.7225   -3.0038    0.0000 C   0  0  0  0  0  0  0  0  0  0  0  0
   -1.7328   -0.0038    0.0000 N   0  0  0  0  0  0  0  0  0  0  0  0
   -0.8675    0.4975    0.0000 C   0  0  0  0  0  0  0  0  0  0  0  0
    0.0000    0.0000    0.0000 C   0  0  0  0  0  0  0  0  0  0  0  0
    0.0000   -1.0000    0.0000 C   0  0  0  0  0  0  0  0  0  0  0  0
    0.8675    0.4975    0.0000 C   0  0  0  0  0  0  0  0  0  0  0  0
    1.7328   -0.0038    0.0000 N   0  0  0  0  0  0  0  0  0  0  0  0
    0.8675    1.5027    0.0000 C   0  0  0  0  0  0  0  0  0  0  0  0
   -0.0000    2.0104    0.0000 N   0  0  0  0  0  0  0  0  0  0  0  0
   -0.8675    1.5027    0.0000 C   0  0  0  0  0  0  0  0  0  0  0  0
  1  2  2  0  0  0  0
  2  3  1  0  0  0  0
  3  4  1  0  0  0  0
  4 11  2  0  0  0  0
  4  5  1  0  0  0  0
  5  6  2  0  0  0  0
  6  7  1  0  0  0  0
  7  8  3  0  0  0  0
  6  9  1  0  0  0  0
  9 10  2  0  0  0  0
 10 11  1  0  0  0  0
  2 12  1  0  0  0  0
 12 13  1  0  0  0  0
 13 20  2  0  0  0  0
 13 14  1  0  0  0  0
 14 15  1  0  0  0  0
 14 16  2  0  0  0  0
 16 17  1  0  0  0  0
 16 18  1  0  0  0  0
 18 19  2  0  0  0  0
 19 20  1  0  0  0  0
M  END
$$$$
TRY-UNI-714-24
  -OEChem-03222016562D

 19 20  0     0  0  0  0  0  0999 V2000
    2.6010    1.4950    0.0000 O   0  0  0  0  0  0  0  0  0  0  0  0
    2.5995    0.4950    0.0000 C   0  0  0  0  0  0  0  0  0  0  0  0
    3.4648   -0.0063    0.0000 N   0  0  0  0  0  0  0  0  0  0  0  0
    4.3316    0.4925    0.0000 C   0  0  0  0  0  0  0  0  0  0  0  0
    5.1999   -0.0139    0.0000 C   0  0  0  0  0  0  0  0  0  0  0  0
    6.0666    0.4951    0.0000 C   0  0  0  0  0  0  0  0  0  0  0  0
    6.9348   -0.0011    0.0000 C   0  0  0  0  0  0  0  0  0  0  0  0
    7.8031   -0.4972    0.0000 N   0  0  0  0  0  0  0  0  0  0  0  0
    6.0651    1.5003    0.0000 C   0  0  0  0  0  0  0  0  0  0  0  0
    5.1968    1.9965    0.0000 C   0  0  0  0  0  0  0  0  0  0  0  0
    4.3301    1.4977    0.0000 C   0  0  0  0  0  0  0  0  0  0  0  0
    1.7328   -0.0038    0.0000 N   0  0  0  0  0  0  0  0  0  0  0  0
    0.8675    0.4975    0.0000 C   0  0  0  0  0  0  0  0  0  0  0  0
    0.0000    0.0000    0.0000 C   0  0  0  0  0  0  0  0  0  0  0  0
   -0.0000   -1.0000    0.0000 C   0  0  0  0  0  0  0  0  0  0  0  0
   -0.8675    0.4975    0.0000 C   0  0  0  0  0  0  0  0  0  0  0  0
   -0.8675    1.5027    0.0000 C   0  0  0  0  0  0  0  0  0  0  0  0
    0.0000    2.0104    0.0000 N   0  0  0  0  0  0  0  0  0  0  0  0
    0.8675    1.5027    0.0000 C   0  0  0  0  0  0  0  0  0  0  0  0
  1  2  2  0  0  0  0
  2  3  1  0  0  0  0
  3  4  1  0  0  0  0
  4 11  2  0  0  0  0
  4  5  1  0  0  0  0
  5  6  2  0  0  0  0
  6  7  1  0  0  0  0
  7  8  3  0  0  0  0
  6  9  1  0  0  0  0
  9 10  2  0  0  0  0
 10 11  1  0  0  0  0
  2 12  1  0  0  0  0
 12 13  1  0  0  0  0
 13 19  2  0  0  0  0
 13 14  1  0  0  0  0
 14 15  1  0  0  0  0
 14 16  2  0  0  0  0
 16 17  1  0  0  0  0
 17 18  2  0  0  0  0
 18 19  1  0  0  0  0
M  END
$$$$
WAR-XCH-6eb-1
  -OEChem-03222016562D

 25 26  0     0  0  0  0  0  0999 V2000
    6.0644   -0.5062    0.0000 C   0  0  0  0  0  0  0  0  0  0  0  0
    6.0645   -1.5062    0.0000 S   0  0  0  0  0  0  0  0  0  0  0  0
    6.0645   -2.5062    0.0000 N   0  0  0  0  0  0  0  0  0  0  0  0
    5.1985   -3.0062    0.0000 C   0  0  0  0  0  0  0  0  0  0  0  0
    4.3325   -2.5063    0.0000 C   0  0  0  0  0  0  0  0  0  0  0  0
    3.4665   -3.0063    0.0000 C   0  0  0  0  0  0  0  0  0  0  0  0
    3.4651   -4.0063    0.0000 C   0  0  0  0  0  0  0  0  0  0  0  0
    2.6012   -4.5102    0.0000 C   0  0  0  0  0  0  0  0  0  0  0  0
    1.7299   -4.0089    0.0000 C   0  0  0  0  0  0  0  0  0  0  0  0
    0.8662   -4.5127    0.0000 C   0  0  0  0  0  0  0  0  0  0  0  0
    0.0024   -5.0166    0.0000 N   0  0  0  0  0  0  0  0  0  0  0  0
    1.7225   -3.0037    0.0000 C   0  0  0  0  0  0  0  0  0  0  0  0
    2.5952   -2.5050    0.0000 C   0  0  0  0  0  0  0  0  0  0  0  0
    2.5966   -1.5050    0.0000 N   0  0  0  0  0  0  0  0  0  0  0  0
    1.7313   -1.0038    0.0000 C   0  0  0  0  0  0  0  0  0  0  0  0
    1.7328   -0.0038    0.0000 N   0  0  0  0  0  0  0  0  0  0  0  0
    0.8675    0.4975    0.0000 C   0  0  0  0  0  0  0  0  0  0  0  0
    0.0000    0.0000    0.0000 C   0  0  0  0  0  0  0  0  0  0  0  0
   -0.8675    0.4975    0.0000 C   0  0  0  0  0  0  0  0  0  0  0  0
   -0.8675    1.5027    0.0000 C   0  0  0  0  0  0  0  0  0  0  0  0
    0.0000    2.0104    0.0000 N   0  0  0  0  0  0  0  0  0  0  0  0
    0.8675    1.5027    0.0000 C   0  0  0  0  0  0  0  0  0  0  0  0
    0.8646   -1.5025    0.0000 O   0  0  0  0  0  0  0  0  0  0  0  0
    5.0645   -1.5062    0.0000 O   0  0  0  0  0  0  0  0  0  0  0  0
    7.0645   -1.5061    0.0000 O   0  0  0  0  0  0  0  0  0  0  0  0
  1  2  1  0  0  0  0
  2  3  1  0  0  0  0
  3  4  1  0  0  0  0
  4  5  1  0  0  0  0
  5  6  1  0  0  0  0
  6 13  2  0  0  0  0
  6  7  1  0  0  0  0
  7  8  2  0  0  0  0
  8  9  1  0  0  0  0
  9 10  1  0  0  0  0
 10 11  3  0  0  0  0
  9 12  2  0  0  0  0
 12 13  1  0  0  0  0
 13 14  1  0  0  0  0
 14 15  1  0  0  0  0
 15 16  1  0  0  0  0
 16 17  1  0  0  0  0
 17 22  2  0  0  0  0
 17 18  1  0  0  0  0
 18 19  2  0  0  0  0
 19 20  1  0  0  0  0
 20 21  2  0  0  0  0
 21 22  1  0  0  0  0
 15 23  2  0  0  0  0
  2 24  2  0  0  0  0
  2 25  2  0  0  0  0
M  END
$$$$
WAR-XCH-6eb-2
  -OEChem-03222016562D

 25 26  0     0  0  0  0  0  0999 V2000
   -3.4707   -1.9885    0.0000 C   0  0  0  0  0  0  0  0  0  0  0  0
   -2.6062   -2.4910    0.0000 S   0  0  0  0  0  0  0  0  0  0  0  0
   -1.7416   -2.9936    0.0000 N   0  0  0  0  0  0  0  0  0  0  0  0
   -0.8741   -2.4961    0.0000 C   0  0  0  0  0  0  0  0  0  0  0  0
   -0.0096   -2.9987    0.0000 C   0  0  0  0  0  0  0  0  0  0  0  0
    0.8579   -2.5012    0.0000 C   0  0  0  0  0  0  0  0  0  0  0  0
    1.7225   -3.0038    0.0000 C   0  0  0  0  0  0  0  0  0  0  0  0
    1.7210   -4.0038    0.0000 C   0  0  0  0  0  0  0  0  0  0  0  0
    2.5833   -4.5101    0.0000 C   0  0  0  0  0  0  0  0  0  0  0  0
    3.4561   -4.0114    0.0000 C   0  0  0  0  0  0  0  0  0  0  0  0
    4.3184   -4.5177    0.0000 Cl  0  0  0  0  0  0  0  0  0  0  0  0
    3.4664   -3.0063    0.0000 C   0  0  0  0  0  0  0  0  0  0  0  0
    2.5952   -2.5050    0.0000 C   0  0  0  0  0  0  0  0  0  0  0  0
    2.5966   -1.5050    0.0000 N   0  0  0  0  0  0  0  0  0  0  0  0
    1.7313   -1.0038    0.0000 C   0  0  0  0  0  0  0  0  0  0  0  0
    1.7328   -0.0038    0.0000 N   0  0  0  0  0  0  0  0  0  0  0  0
    0.8675    0.4975    0.0000 C   0  0  0  0  0  0  0  0  0  0  0  0
    0.0000    0.0000    0.0000 C   0  0  0  0  0  0  0  0  0  0  0  0
   -0.8675    0.4975    0.0000 C   0  0  0  0  0  0  0  0  0  0  0  0
   -0.8675    1.5027    0.0000 C   0  0  0  0  0  0  0  0  0  0  0  0
    0.0000    2.0104    0.0000 N   0  0  0  0  0  0  0  0  0  0  0  0
    0.8675    1.5027    0.0000 C   0  0  0  0  0  0  0  0  0  0  0  0
    0.8646   -1.5025    0.0000 O   0  0  0  0  0  0  0  0  0  0  0  0
   -2.1036   -1.6265    0.0000 O   0  0  0  0  0  0  0  0  0  0  0  0
   -3.1087   -3.3556    0.0000 O   0  0  0  0  0  0  0  0  0  0  0  0
  1  2  1  0  0  0  0
  2  3  1  0  0  0  0
  3  4  1  0  0  0  0
  4  5  1  0  0  0  0
  5  6  1  0  0  0  0
  6  7  1  0  0  0  0
  7 13  2  0  0  0  0
  7  8  1  0  0  0  0
  8  9  2  0  0  0  0
  9 10  1  0  0  0  0
 10 11  1  0  0  0  0
 10 12  2  0  0  0  0
 12 13  1  0  0  0  0
 13 14  1  0  0  0  0
 14 15  1  0  0  0  0
 15 16  1  0  0  0  0
 16 17  1  0  0  0  0
 17 22  2  0  0  0  0
 17 18  1  0  0  0  0
 18 19  2  0  0  0  0
 19 20  1  0  0  0  0
 20 21  2  0  0  0  0
 21 22  1  0  0  0  0
 15 23  2  0  0  0  0
  2 24  2  0  0  0  0
  2 25  2  0  0  0  0
M  END
$$$$
WAR-XCH-6eb-3
  -OEChem-03222016562D

 26 27  0     0  0  0  0  0  0999 V2000
   -3.4707   -1.9885    0.0000 C   0  0  0  0  0  0  0  0  0  0  0  0
   -2.6062   -2.4910    0.0000 S   0  0  0  0  0  0  0  0  0  0  0  0
   -1.7416   -2.9936    0.0000 N   0  0  0  0  0  0  0  0  0  0  0  0
   -0.8741   -2.4961    0.0000 C   0  0  0  0  0  0  0  0  0  0  0  0
   -0.0096   -2.9987    0.0000 C   0  0  0  0  0  0  0  0  0  0  0  0
    0.8579   -2.5012    0.0000 C   0  0  0  0  0  0  0  0  0  0  0  0
    1.7225   -3.0038    0.0000 C   0  0  0  0  0  0  0  0  0  0  0  0
    1.7210   -4.0038    0.0000 C   0  0  0  0  0  0  0  0  0  0  0  0
    2.5833   -4.5101    0.0000 C   0  0  0  0  0  0  0  0  0  0  0  0
    3.4561   -4.0114    0.0000 C   0  0  0  0  0  0  0  0  0  0  0  0
    4.3184   -4.5177    0.0000 C   0  0  0  0  0  0  0  0  0  0  0  0
    5.1807   -5.0241    0.0000 N   0  0  0  0  0  0  0  0  0  0  0  0
    3.4664   -3.0063    0.0000 C   0  0  0  0  0  0  0  0  0  0  0  0
    2.5952   -2.5050    0.0000 C   0  0  0  0  0  0  0  0  0  0  0  0
    2.5966   -1.5050    0.0000 N   0  0  0  0  0  0  0  0  0  0  0  0
    1.7313   -1.0038    0.0000 C   0  0  0  0  0  0  0  0  0  0  0  0
    1.7328   -0.0038    0.0000 N   0  0  0  0  0  0  0  0  0  0  0  0
    0.8675    0.4975    0.0000 C   0  0  0  0  0  0  0  0  0  0  0  0
    0.0000    0.0000    0.0000 C   0  0  0  0  0  0  0  0  0  0  0  0
   -0.8675    0.4975    0.0000 C   0  0  0  0  0  0  0  0  0  0  0  0
   -0.8675    1.5027    0.0000 C   0  0  0  0  0  0  0  0  0  0  0  0
    0.0000    2.0104    0.0000 N   0  0  0  0  0  0  0  0  0  0  0  0
    0.8675    1.5027    0.0000 C   0  0  0  0  0  0  0  0  0  0  0  0
    0.8646   -1.5025    0.0000 O   0  0  0  0  0  0  0  0  0  0  0  0
   -2.1036   -1.6265    0.0000 O   0  0  0  0  0  0  0  0  0  0  0  0
   -3.1087   -3.3556    0.0000 O   0  0  0  0  0  0  0  0  0  0  0  0
  1  2  1  0  0  0  0
  2  3  1  0  0  0  0
  3  4  1  0  0  0  0
  4  5  1  0  0  0  0
  5  6  1  0  0  0  0
  6  7  1  0  0  0  0
  7 14  2  0  0  0  0
  7  8  1  0  0  0  0
  8  9  2  0  0  0  0
  9 10  1  0  0  0  0
 10 11  1  0  0  0  0
 11 12  3  0  0  0  0
 10 13  2  0  0  0  0
 13 14  1  0  0  0  0
 14 15  1  0  0  0  0
 15 16  1  0  0  0  0
 16 17  1  0  0  0  0
 17 18  1  0  0  0  0
 18 23  2  0  0  0  0
 18 19  1  0  0  0  0
 19 20  2  0  0  0  0
 20 21  1  0  0  0  0
 21 22  2  0  0  0  0
 22 23  1  0  0  0  0
 16 24  2  0  0  0  0
  2 25  2  0  0  0  0
  2 26  2  0  0  0  0
M  END
$$$$
WAR-XCH-6eb-4
  -OEChem-03222016562D

 24 25  0     0  0  0  0  0  0999 V2000
    6.0644   -0.5062    0.0000 C   0  0  0  0  0  0  0  0  0  0  0  0
    6.0645   -1.5062    0.0000 S   0  0  0  0  0  0  0  0  0  0  0  0
    6.0645   -2.5062    0.0000 N   0  0  0  0  0  0  0  0  0  0  0  0
    5.1985   -3.0062    0.0000 C   0  0  0  0  0  0  0  0  0  0  0  0
    4.3325   -2.5063    0.0000 C   0  0  0  0  0  0  0  0  0  0  0  0
    3.4665   -3.0063    0.0000 C   0  0  0  0  0  0  0  0  0  0  0  0
    3.4651   -4.0063    0.0000 C   0  0  0  0  0  0  0  0  0  0  0  0
    2.6012   -4.5102    0.0000 C   0  0  0  0  0  0  0  0  0  0  0  0
    1.7299   -4.0089    0.0000 C   0  0  0  0  0  0  0  0  0  0  0  0
    0.8662   -4.5127    0.0000 Cl  0  0  0  0  0  0  0  0  0  0  0  0
    1.7225   -3.0037    0.0000 C   0  0  0  0  0  0  0  0  0  0  0  0
    2.5952   -2.5050    0.0000 C   0  0  0  0  0  0  0  0  0  0  0  0
    2.5966   -1.5050    0.0000 N   0  0  0  0  0  0  0  0  0  0  0  0
    1.7313   -1.0038    0.0000 C   0  0  0  0  0  0  0  0  0  0  0  0
    1.7328   -0.0038    0.0000 N   0  0  0  0  0  0  0  0  0  0  0  0
    0.8675    0.4975    0.0000 C   0  0  0  0  0  0  0  0  0  0  0  0
    0.0000    0.0000    0.0000 C   0  0  0  0  0  0  0  0  0  0  0  0
   -0.8675    0.4975    0.0000 C   0  0  0  0  0  0  0  0  0  0  0  0
   -0.8675    1.5027    0.0000 C   0  0  0  0  0  0  0  0  0  0  0  0
    0.0000    2.0104    0.0000 N   0  0  0  0  0  0  0  0  0  0  0  0
    0.8675    1.5027    0.0000 C   0  0  0  0  0  0  0  0  0  0  0  0
    0.8646   -1.5025    0.0000 O   0  0  0  0  0  0  0  0  0  0  0  0
    5.0645   -1.5062    0.0000 O   0  0  0  0  0  0  0  0  0  0  0  0
    7.0645   -1.5061    0.0000 O   0  0  0  0  0  0  0  0  0  0  0  0
  1  2  1  0  0  0  0
  2  3  1  0  0  0  0
  3  4  1  0  0  0  0
  4  5  1  0  0  0  0
  5  6  1  0  0  0  0
  6 12  2  0  0  0  0
  6  7  1  0  0  0  0
  7  8  2  0  0  0  0
  8  9  1  0  0  0  0
  9 10  1  0  0  0  0
  9 11  2  0  0  0  0
 11 12  1  0  0  0  0
 12 13  1  0  0  0  0
 13 14  1  0  0  0  0
 14 15  1  0  0  0  0
 15 16  1  0  0  0  0
 16 21  2  0  0  0  0
 16 17  1  0  0  0  0
 17 18  2  0  0  0  0
 18 19  1  0  0  0  0
 19 20  2  0  0  0  0
 20 21  1  0  0  0  0
 14 22  2  0  0  0  0
  2 23  2  0  0  0  0
  2 24  2  0  0  0  0
M  END
$$$$
WAR-XCH-6eb-5
  -OEChem-03222016562D

 24 25  0     0  0  0  0  0  0999 V2000
    0.8662   -4.5127    0.0000 C   0  0  0  0  0  0  0  0  0  0  0  0
    1.7299   -4.0089    0.0000 C   0  0  0  0  0  0  0  0  0  0  0  0
    2.6012   -4.5102    0.0000 C   0  0  0  0  0  0  0  0  0  0  0  0
    3.4651   -4.0063    0.0000 C   0  0  0  0  0  0  0  0  0  0  0  0
    3.4665   -3.0063    0.0000 C   0  0  0  0  0  0  0  0  0  0  0  0
    4.3325   -2.5063    0.0000 C   0  0  0  0  0  0  0  0  0  0  0  0
    4.3324   -1.5063    0.0000 C   0  0  0  0  0  0  0  0  0  0  0  0
    5.1984   -1.0062    0.0000 N   0  0  0  0  0  0  0  0  0  0  0  0
    5.1984   -0.0062    0.0000 S   0  0  0  0  0  0  0  0  0  0  0  0
    4.1984   -0.0063    0.0000 O   0  0  0  0  0  0  0  0  0  0  0  0
    6.1984   -0.0062    0.0000 O   0  0  0  0  0  0  0  0  0  0  0  0
    5.1983    0.9938    0.0000 C   0  0  0  0  0  0  0  0  0  0  0  0
    2.5952   -2.5050    0.0000 C   0  0  0  0  0  0  0  0  0  0  0  0
    2.5966   -1.5050    0.0000 N   0  0  0  0  0  0  0  0  0  0  0  0
    1.7313   -1.0038    0.0000 C   0  0  0  0  0  0  0  0  0  0  0  0
    1.7328   -0.0038    0.0000 N   0  0  0  0  0  0  0  0  0  0  0  0
    0.8675    0.4975    0.0000 C   0  0  0  0  0  0  0  0  0  0  0  0
    0.0000    0.0000    0.0000 C   0  0  0  0  0  0  0  0  0  0  0  0
   -0.8675    0.4975    0.0000 C   0  0  0  0  0  0  0  0  0  0  0  0
   -0.8675    1.5027    0.0000 C   0  0  0  0  0  0  0  0  0  0  0  0
    0.0000    2.0104    0.0000 N   0  0  0  0  0  0  0  0  0  0  0  0
    0.8675    1.5027    0.0000 C   0  0  0  0  0  0  0  0  0  0  0  0
    0.8646   -1.5025    0.0000 O   0  0  0  0  0  0  0  0  0  0  0  0
    1.7225   -3.0037    0.0000 C   0  0  0  0  0  0  0  0  0  0  0  0
  1  2  1  0  0  0  0
  2 24  2  0  0  0  0
  2  3  1  0  0  0  0
  3  4  2  0  0  0  0
  4  5  1  0  0  0  0
  5  6  1  0  0  0  0
  6  7  1  0  0  0  0
  7  8  1  0  0  0  0
  8  9  1  0  0  0  0
  9 10  2  0  0  0  0
  9 11  2  0  0  0  0
  9 12  1  0  0  0  0
  5 13  2  0  0  0  0
 13 14  1  0  0  0  0
 14 15  1  0  0  0  0
 15 16  1  0  0  0  0
 16 17  1  0  0  0  0
 17 22  2  0  0  0  0
 17 18  1  0  0  0  0
 18 19  2  0  0  0  0
 19 20  1  0  0  0  0
 20 21  2  0  0  0  0
 21 22  1  0  0  0  0
 15 23  2  0  0  0  0
 13 24  1  0  0  0  0
M  END
$$$$
WAR-XCH-6eb-6
  -OEChem-03222016562D

 25 26  0     0  0  0  0  0  0999 V2000
    0.8662   -4.5127    0.0000 C   0  0  0  0  0  0  0  0  0  0  0  0
    1.7299   -4.0089    0.0000 C   0  0  0  0  0  0  0  0  0  0  0  0
    2.6012   -4.5102    0.0000 C   0  0  0  0  0  0  0  0  0  0  0  0
    3.4651   -4.0063    0.0000 C   0  0  0  0  0  0  0  0  0  0  0  0
    3.4665   -3.0063    0.0000 C   0  0  0  0  0  0  0  0  0  0  0  0
    4.3325   -2.5063    0.0000 C   0  0  0  0  0  0  0  0  0  0  0  0
    4.3324   -1.5063    0.0000 C   0  0  0  0  0  0  0  0  0  0  0  0
    5.1984   -1.0062    0.0000 C   0  0  0  0  0  0  0  0  0  0  0  0
    5.1984   -0.0062    0.0000 N   0  0  0  0  0  0  0  0  0  0  0  0
    6.0644    0.4938    0.0000 S   0  0  0  0  0  0  0  0  0  0  0  0
    5.5643    1.3598    0.0000 O   0  0  0  0  0  0  0  0  0  0  0  0
    6.5644   -0.3722    0.0000 O   0  0  0  0  0  0  0  0  0  0  0  0
    6.9304    0.9939    0.0000 C   0  0  0  0  0  0  0  0  0  0  0  0
    2.5952   -2.5050    0.0000 C   0  0  0  0  0  0  0  0  0  0  0  0
    2.5966   -1.5050    0.0000 N   0  0  0  0  0  0  0  0  0  0  0  0
    1.7313   -1.0038    0.0000 C   0  0  0  0  0  0  0  0  0  0  0  0
    1.7328   -0.0038    0.0000 N   0  0  0  0  0  0  0  0  0  0  0  0
    0.8675    0.4975    0.0000 C   0  0  0  0  0  0  0  0  0  0  0  0
    0.0000    0.0000    0.0000 C   0  0  0  0  0  0  0  0  0  0  0  0
   -0.8675    0.4975    0.0000 C   0  0  0  0  0  0  0  0  0  0  0  0
   -0.8675    1.5027    0.0000 C   0  0  0  0  0  0  0  0  0  0  0  0
    0.0000    2.0104    0.0000 N   0  0  0  0  0  0  0  0  0  0  0  0
    0.8675    1.5027    0.0000 C   0  0  0  0  0  0  0  0  0  0  0  0
    0.8646   -1.5025    0.0000 O   0  0  0  0  0  0  0  0  0  0  0  0
    1.7225   -3.0037    0.0000 C   0  0  0  0  0  0  0  0  0  0  0  0
  1  2  1  0  0  0  0
  2 25  2  0  0  0  0
  2  3  1  0  0  0  0
  3  4  2  0  0  0  0
  4  5  1  0  0  0  0
  5  6  1  0  0  0  0
  6  7  1  0  0  0  0
  7  8  1  0  0  0  0
  8  9  1  0  0  0  0
  9 10  1  0  0  0  0
 10 11  2  0  0  0  0
 10 12  2  0  0  0  0
 10 13  1  0  0  0  0
  5 14  2  0  0  0  0
 14 15  1  0  0  0  0
 15 16  1  0  0  0  0
 16 17  1  0  0  0  0
 17 18  1  0  0  0  0
 18 23  2  0  0  0  0
 18 19  1  0  0  0  0
 19 20  2  0  0  0  0
 20 21  1  0  0  0  0
 21 22  2  0  0  0  0
 22 23  1  0  0  0  0
 16 24  2  0  0  0  0
 14 25  1  0  0  0  0
M  END
$$$$
MIH-UNI-6b9-1
  -OEChem-03222016562D

 16 17  0     0  0  0  0  0  0999 V2000
   -0.8675    0.4975    0.0000 C   0  0  0  0  0  0  0  0  0  0  0  0
   -0.8675    1.5027    0.0000 C   0  0  0  0  0  0  0  0  0  0  0  0
    0.0000    2.0104    0.0000 N   0  0  0  0  0  0  0  0  0  0  0  0
    0.8675    1.5027    0.0000 C   0  0  0  0  0  0  0  0  0  0  0  0
    0.8675    0.4975    0.0000 C   0  0  0  0  0  0  0  0  0  0  0  0
    1.7328   -0.0038    0.0000 N   0  0  0  0  0  0  0  0  0  0  0  0
    2.5995    0.4950    0.0000 C   0  0  0  0  0  0  0  0  0  0  0  0
    2.6010    1.4950    0.0000 O   0  0  0  0  0  0  0  0  0  0  0  0
    3.4648   -0.0063    0.0000 C   0  0  0  0  0  0  0  0  0  0  0  0
    4.3316    0.4925    0.0000 C   0  0  0  0  0  0  0  0  0  0  0  0
    5.2456    0.0826    0.0000 C   0  0  0  0  0  0  0  0  0  0  0  0
    5.9184    0.8288    0.0000 S   0  0  0  0  0  0  0  0  0  0  0  0
    5.4153    1.6935    0.0000 C   0  0  0  0  0  0  0  0  0  0  0  0
    4.4365    1.4885    0.0000 C   0  0  0  0  0  0  0  0  0  0  0  0
    0.0000    0.0000    0.0000 C   0  0  0  0  0  0  0  0  0  0  0  0
   -0.0000   -1.0000    0.0000 C   0  0  0  0  0  0  0  0  0  0  0  0
  1 15  2  0  0  0  0
  1  2  1  0  0  0  0
  2  3  2  0  0  0  0
  3  4  1  0  0  0  0
  4  5  2  0  0  0  0
  5  6  1  0  0  0  0
  6  7  1  0  0  0  0
  7  8  2  0  0  0  0
  7  9  1  0  0  0  0
  9 10  1  0  0  0  0
 10 14  1  0  0  0  0
 10 11  2  0  0  0  0
 11 12  1  0  0  0  0
 12 13  1  0  0  0  0
 13 14  2  0  0  0  0
  5 15  1  0  0  0  0
 15 16  1  0  0  0  0
M  END
$$$$
MIH-UNI-6b9-2
  -OEChem-03222016562D

 24 26  0     1  0  0  0  0  0999 V2000
   -0.8675    0.4975    0.0000 C   0  0  0  0  0  0  0  0  0  0  0  0
   -0.8675    1.5027    0.0000 C   0  0  0  0  0  0  0  0  0  0  0  0
    0.0000    2.0104    0.0000 N   0  0  0  0  0  0  0  0  0  0  0  0
    0.8675    1.5027    0.0000 C   0  0  0  0  0  0  0  0  0  0  0  0
    0.8675    0.4975    0.0000 C   0  0  0  0  0  0  0  0  0  0  0  0
    1.7328   -0.0038    0.0000 N   0  0  0  0  0  0  0  0  0  0  0  0
    2.5995    0.4950    0.0000 C   0  0  0  0  0  0  0  0  0  0  0  0
    2.6010    1.4950    0.0000 O   0  0  0  0  0  0  0  0  0  0  0  0
    3.4648   -0.0063    0.0000 C   0  0  2  0  0  0  0  0  0  0  0  0
    3.9661    0.8590    0.0000 H   0  0  0  0  0  0  0  0  0  0  0  0
    4.3301   -0.5075    0.0000 N   0  0  0  0  0  0  0  0  0  0  0  0
    4.3346   -1.5127    0.0000 C   0  0  0  0  0  0  0  0  0  0  0  0
    5.2044   -2.0165    0.0000 C   0  0  0  0  0  0  0  0  0  0  0  0
    6.0697   -1.5153    0.0000 C   0  0  0  0  0  0  0  0  0  0  0  0
    6.9350   -2.0165    0.0000 O   0  0  0  0  0  0  0  0  0  0  0  0
    6.0741   -0.5152    0.0000 C   0  0  0  0  0  0  0  0  0  0  0  0
    5.2043   -0.0114    0.0000 C   0  0  0  0  0  0  0  0  0  0  0  0
    2.9636   -0.8716    0.0000 C   0  0  0  0  0  0  0  0  0  0  0  0
    1.9671   -0.9736    0.0000 C   0  0  0  0  0  0  0  0  0  0  0  0
    1.7575   -1.9562    0.0000 S   0  0  0  0  0  0  0  0  0  0  0  0
    2.6256   -2.4536    0.0000 C   0  0  0  0  0  0  0  0  0  0  0  0
    3.3707   -1.7866    0.0000 C   0  0  0  0  0  0  0  0  0  0  0  0
    0.0000    0.0000    0.0000 C   0  0  0  0  0  0  0  0  0  0  0  0
   -0.0000   -1.0000    0.0000 C   0  0  0  0  0  0  0  0  0  0  0  0
  1 23  2  0  0  0  0
  1  2  1  0  0  0  0
  2  3  2  0  0  0  0
  3  4  1  0  0  0  0
  4  5  2  0  0  0  0
  5  6  1  0  0  0  0
  6  7  1  0  0  0  0
  7  8  2  0  0  0  0
  7  9  1  0  0  0  0
  9 10  1  1  0  0  0
  9 11  1  0  0  0  0
 11 17  1  0  0  0  0
 11 12  1  0  0  0  0
 12 13  1  0  0  0  0
 13 14  1  0  0  0  0
 14 15  1  0  0  0  0
 14 16  1  0  0  0  0
 16 17  1  0  0  0  0
  9 18  1  0  0  0  0
 18 22  1  0  0  0  0
 18 19  2  0  0  0  0
 19 20  1  0  0  0  0
 20 21  1  0  0  0  0
 21 22  2  0  0  0  0
  5 23  1  0  0  0  0
 23 24  1  0  0  0  0
M  END
$$$$
MIH-UNI-6b9-3
  -OEChem-03222016562D

 26 28  0     1  0  0  0  0  0999 V2000
    1.2634   -3.6143    0.0000 C   0  0  0  0  0  0  0  0  0  0  0  0
    2.2551   -3.4484    0.0000 C   0  0  0  0  0  0  0  0  0  0  0  0
    2.5952   -2.5050    0.0000 C   0  0  2  0  0  0  0  0  0  0  0  0
    1.6102   -2.3322    0.0000 H   0  0  0  0  0  0  0  0  0  0  0  0
    3.5882   -2.3337    0.0000 C   0  0  0  0  0  0  0  0  0  0  0  0
    4.2334   -3.1052    0.0000 C   0  0  0  0  0  0  0  0  0  0  0  0
    3.8854   -4.0479    0.0000 C   0  0  0  0  0  0  0  0  0  0  0  0
    2.9003   -4.2199    0.0000 C   0  0  0  0  0  0  0  0  0  0  0  0
    2.5516   -5.1589    0.0000 C   0  0  0  0  0  0  0  0  0  0  0  0
    1.5663   -5.3325    0.0000 C   0  0  0  0  0  0  0  0  0  0  0  0
    1.2228   -6.2717    0.0000 S   0  0  0  0  0  0  0  0  0  0  0  0
    2.1620   -6.6152    0.0000 O   0  0  0  0  0  0  0  0  0  0  0  0
    0.2836   -5.9282    0.0000 O   0  0  0  0  0  0  0  0  0  0  0  0
    0.8793   -7.2109    0.0000 N   0  0  0  0  0  0  0  0  0  0  0  0
    0.9221   -4.5602    0.0000 C   0  0  0  0  0  0  0  0  0  0  0  0
    2.5966   -1.5050    0.0000 C   0  0  0  0  0  0  0  0  0  0  0  0
    1.7313   -1.0038    0.0000 C   0  0  0  0  0  0  0  0  0  0  0  0
    0.8646   -1.5025    0.0000 O   0  0  0  0  0  0  0  0  0  0  0  0
    1.7328   -0.0038    0.0000 N   0  0  0  0  0  0  0  0  0  0  0  0
    0.8675    0.4975    0.0000 C   0  0  0  0  0  0  0  0  0  0  0  0
    0.8675    1.5027    0.0000 C   0  0  0  0  0  0  0  0  0  0  0  0
   -0.0000    2.0104    0.0000 N   0  0  0  0  0  0  0  0  0  0  0  0
   -0.8675    1.5027    0.0000 C   0  0  0  0  0  0  0  0  0  0  0  0
   -0.8675    0.4975    0.0000 C   0  0  0  0  0  0  0  0  0  0  0  0
    0.0000    0.0000    0.0000 C   0  0  0  0  0  0  0  0  0  0  0  0
    0.0000   -1.0000    0.0000 C   0  0  0  0  0  0  0  0  0  0  0  0
  1 15  2  0  0  0  0
  1  2  1  0  0  0  0
  2  8  2  0  0  0  0
  2  3  1  0  0  0  0
  3  4  1  6  0  0  0
  3  5  1  0  0  0  0
  5  6  1  0  0  0  0
  6  7  1  0  0  0  0
  7  8  1  0  0  0  0
  8  9  1  0  0  0  0
  9 10  2  0  0  0  0
 10 11  1  0  0  0  0
 11 12  2  0  0  0  0
 11 13  2  0  0  0  0
 11 14  1  0  0  0  0
 10 15  1  0  0  0  0
  3 16  1  0  0  0  0
 16 17  1  0  0  0  0
 17 18  2  0  0  0  0
 17 19  1  0  0  0  0
 19 20  1  0  0  0  0
 20 25  2  0  0  0  0
 20 21  1  0  0  0  0
 21 22  2  0  0  0  0
 22 23  1  0  0  0  0
 23 24  2  0  0  0  0
 24 25  1  0  0  0  0
 25 26  1  0  0  0  0
M  END
$$$$
MIH-UNI-6b9-4
  -OEChem-03222016562D

 22 24  0     1  0  0  0  0  0999 V2000
    0.0000    0.0000    0.0000 C   0  0  0  0  0  0  0  0  0  0  0  0
    0.8675    0.4975    0.0000 C   0  0  0  0  0  0  0  0  0  0  0  0
    1.7328   -0.0038    0.0000 N   0  0  0  0  0  0  0  0  0  0  0  0
    2.5995    0.4950    0.0000 C   0  0  1  0  0  0  0  0  0  0  0  0
    1.9564    1.2607    0.0000 H   0  0  0  0  0  0  0  0  0  0  0  0
    2.9401   -0.4507    0.0000 O   0  0  0  0  0  0  0  0  0  0  0  0
    3.9314   -0.6169    0.0000 C   0  0  2  0  0  0  0  0  0  0  0  0
    4.7996   -1.1131    0.0000 H   0  0  0  0  0  0  0  0  0  0  0  0
    3.5954   -1.5588    0.0000 N   0  0  0  0  0  0  0  0  0  0  0  0
    4.5756    0.1547    0.0000 C   0  0  0  0  0  0  0  0  0  0  0  0
    4.2285    1.0926    0.0000 C   0  0  2  0  0  0  0  0  0  0  0  0
    4.2270    2.0926    0.0000 H   0  0  0  0  0  0  0  0  0  0  0  0
    5.2127    1.2696    0.0000 C   0  0  0  0  0  0  0  0  0  0  0  0
    5.9348    0.5754    0.0000 C   0  0  0  0  0  0  0  0  0  0  0  0
    6.8199    1.0508    0.0000 S   0  0  0  0  0  0  0  0  0  0  0  0
    6.6381    2.0346    0.0000 C   0  0  0  0  0  0  0  0  0  0  0  0
    5.6476    2.1718    0.0000 C   0  0  0  0  0  0  0  0  0  0  0  0
    3.2438    1.2666    0.0000 C   0  0  0  0  0  0  0  0  0  0  0  0
    0.8675    1.5027    0.0000 C   0  0  0  0  0  0  0  0  0  0  0  0
   -0.0000    2.0104    0.0000 N   0  0  0  0  0  0  0  0  0  0  0  0
   -0.8675    1.5027    0.0000 C   0  0  0  0  0  0  0  0  0  0  0  0
   -0.8675    0.4975    0.0000 C   0  0  0  0  0  0  0  0  0  0  0  0
  1 22  2  0  0  0  0
  1  2  1  0  0  0  0
  2  3  1  0  0  0  0
  3  4  1  0  0  0  0
  4  5  1  1  0  0  0
  4 18  1  0  0  0  0
  4  6  1  0  0  0  0
  6  7  1  0  0  0  0
  7  8  1  6  0  0  0
  7  9  1  0  0  0  0
  7 10  1  0  0  0  0
 10 11  1  0  0  0  0
 11 12  1  6  0  0  0
 11 13  1  0  0  0  0
 13 17  1  0  0  0  0
 13 14  2  0  0  0  0
 14 15  1  0  0  0  0
 15 16  1  0  0  0  0
 16 17  2  0  0  0  0
 11 18  1  0  0  0  0
  2 19  2  0  0  0  0
 19 20  1  0  0  0  0
 20 21  2  0  0  0  0
 21 22  1  0  0  0  0
M  END
$$$$
MIH-UNI-6b9-5
  -OEChem-03222016562D

 17 18  0     0  0  0  0  0  0999 V2000
   -0.8675   -1.5027    0.0000 C   0  0  0  0  0  0  0  0  0  0  0  0
    0.0000   -1.0052    0.0000 C   0  0  0  0  0  0  0  0  0  0  0  0
    0.0000    0.0000    0.0000 C   0  0  0  0  0  0  0  0  0  0  0  0
    0.8675    0.4974    0.0000 C   0  0  0  0  0  0  0  0  0  0  0  0
    0.8704    1.4974    0.0000 N   0  0  0  0  0  0  0  0  0  0  0  0
    1.7379    1.9949    0.0000 C   0  0  0  0  0  0  0  0  0  0  0  0
    1.7379    3.0001    0.0000 C   0  0  0  0  0  0  0  0  0  0  0  0
    2.6054    3.4976    0.0000 C   0  0  0  0  0  0  0  0  0  0  0  0
    3.4729    3.0001    0.0000 C   0  0  0  0  0  0  0  0  0  0  0  0
    4.3382    3.5013    0.0000 O   0  0  0  0  0  0  0  0  0  0  0  0
    3.4729    1.9949    0.0000 C   0  0  0  0  0  0  0  0  0  0  0  0
    2.6054    1.4872    0.0000 C   0  0  0  0  0  0  0  0  0  0  0  0
   -0.8675    0.5077    0.0000 C   0  0  0  0  0  0  0  0  0  0  0  0
   -1.7350   -0.0000    0.0000 C   0  0  0  0  0  0  0  0  0  0  0  0
   -2.6025    0.4974    0.0000 C   0  0  0  0  0  0  0  0  0  0  0  0
   -3.4700    0.9949    0.0000 N   0  0  0  0  0  0  0  0  0  0  0  0
   -1.7350   -1.0052    0.0000 C   0  0  0  0  0  0  0  0  0  0  0  0
  1 17  2  0  0  0  0
  1  2  1  0  0  0  0
  2  3  2  0  0  0  0
  3  4  1  0  0  0  0
  4  5  1  0  0  0  0
  5  6  1  0  0  0  0
  6 12  2  0  0  0  0
  6  7  1  0  0  0  0
  7  8  2  0  0  0  0
  8  9  1  0  0  0  0
  9 10  1  0  0  0  0
  9 11  2  0  0  0  0
 11 12  1  0  0  0  0
  3 13  1  0  0  0  0
 13 14  2  0  0  0  0
 14 15  1  0  0  0  0
 15 16  3  0  0  0  0
 14 17  1  0  0  0  0
M  END
$$$$
MIH-UNI-6b9-6
  -OEChem-03222016562D

 17 18  0     0  0  0  0  0  0999 V2000
    0.1352   -6.0897    0.0000 C   0  0  0  0  0  0  0  0  0  0  0  0
    1.1293   -5.9806    0.0000 C   0  0  0  0  0  0  0  0  0  0  0  0
    1.5371   -5.0675    0.0000 C   0  0  0  0  0  0  0  0  0  0  0  0
    0.9448   -4.2553    0.0000 C   0  0  0  0  0  0  0  0  0  0  0  0
    1.3526   -3.3422    0.0000 C   0  0  0  0  0  0  0  0  0  0  0  0
    0.7658   -2.5325    0.0000 C   0  0  0  0  0  0  0  0  0  0  0  0
    1.1736   -1.6194    0.0000 N   0  0  0  0  0  0  0  0  0  0  0  0
    0.5868   -0.8097    0.0000 S   0  0  0  0  0  0  0  0  0  0  0  0
   -0.2229   -1.3965    0.0000 O   0  0  0  0  0  0  0  0  0  0  0  0
    1.3965   -0.2229    0.0000 O   0  0  0  0  0  0  0  0  0  0  0  0
    0.0000    0.0000    0.0000 C   0  0  0  0  0  0  0  0  0  0  0  0
    0.3118    0.9519    0.0000 C   0  0  0  0  0  0  0  0  0  0  0  0
   -0.5007    1.5428    0.0000 O   0  0  0  0  0  0  0  0  0  0  0  0
   -1.3080    0.9519    0.0000 C   0  0  0  0  0  0  0  0  0  0  0  0
   -1.0015    0.0000    0.0000 C   0  0  0  0  0  0  0  0  0  0  0  0
   -0.0553   -4.3562    0.0000 C   0  0  0  0  0  0  0  0  0  0  0  0
   -0.4570   -5.2775    0.0000 C   0  0  0  0  0  0  0  0  0  0  0  0
  1 17  2  0  0  0  0
  1  2  1  0  0  0  0
  2  3  2  0  0  0  0
  3  4  1  0  0  0  0
  4  5  1  0  0  0  0
  5  6  1  0  0  0  0
  6  7  1  0  0  0  0
  7  8  1  0  0  0  0
  8  9  2  0  0  0  0
  8 10  2  0  0  0  0
  8 11  1  0  0  0  0
 11 15  1  0  0  0  0
 11 12  2  0  0  0  0
 12 13  1  0  0  0  0
 13 14  1  0  0  0  0
 14 15  2  0  0  0  0
  4 16  2  0  0  0  0
 16 17  1  0  0  0  0
M  END
$$$$
MIH-UNI-6b9-7
  -OEChem-03222016562D

 22 24  0     1  0  0  0  0  0999 V2000
    0.0000    0.0000    0.0000 C   0  0  0  0  0  0  0  0  0  0  0  0
   -0.8675    0.4975    0.0000 C   0  0  0  0  0  0  0  0  0  0  0  0
   -0.8675    1.5027    0.0000 C   0  0  0  0  0  0  0  0  0  0  0  0
    0.0000    2.0104    0.0000 N   0  0  0  0  0  0  0  0  0  0  0  0
    0.8675    1.5027    0.0000 C   0  0  0  0  0  0  0  0  0  0  0  0
    0.8675    0.4975    0.0000 C   0  0  0  0  0  0  0  0  0  0  0  0
    1.7328   -0.0038    0.0000 C   0  0  0  0  0  0  0  0  0  0  0  0
    2.5995    0.4950    0.0000 C   0  0  2  0  0  0  0  0  0  0  0  0
    1.9564    1.2607    0.0000 H   0  0  0  0  0  0  0  0  0  0  0  0
    2.9401   -0.4508    0.0000 C   0  0  0  0  0  0  0  0  0  0  0  0
    3.9249   -0.6249    0.0000 C   0  0  1  0  0  0  0  0  0  0  0  0
    4.7887   -1.1287    0.0000 H   0  0  0  0  0  0  0  0  0  0  0  0
    3.5805   -1.5638    0.0000 C   0  0  0  0  0  0  0  0  0  0  0  0
    4.1395   -2.3948    0.0000 C   0  0  0  0  0  0  0  0  0  0  0  0
    3.5208   -3.1804    0.0000 C   0  0  0  0  0  0  0  0  0  0  0  0
    2.5799   -2.8403    0.0000 S   0  0  0  0  0  0  0  0  0  0  0  0
    2.6167   -1.8364    0.0000 C   0  0  0  0  0  0  0  0  0  0  0  0
    4.5725    0.1371    0.0000 C   0  0  0  0  0  0  0  0  0  0  0  0
    4.2319    1.0828    0.0000 C   0  0  1  0  0  0  0  0  0  0  0  0
    4.2393    2.0828    0.0000 H   0  0  0  0  0  0  0  0  0  0  0  0
    5.2177    1.2512    0.0000 N   0  0  0  0  0  0  0  0  0  0  0  0
    3.2437    1.2666    0.0000 O   0  0  0  0  0  0  0  0  0  0  0  0
  1  6  2  0  0  0  0
  1  2  1  0  0  0  0
  2  3  2  0  0  0  0
  3  4  1  0  0  0  0
  4  5  2  0  0  0  0
  5  6  1  0  0  0  0
  6  7  1  0  0  0  0
  7  8  1  0  0  0  0
  8  9  1  6  0  0  0
  8 22  1  0  0  0  0
  8 10  1  0  0  0  0
 10 11  1  0  0  0  0
 11 12  1  1  0  0  0
 11 13  1  0  0  0  0
 13 17  2  0  0  0  0
 13 14  1  0  0  0  0
 14 15  2  0  0  0  0
 15 16  1  0  0  0  0
 16 17  1  0  0  0  0
 11 18  1  0  0  0  0
 18 19  1  0  0  0  0
 19 20  1  1  0  0  0
 19 21  1  0  0  0  0
 19 22  1  0  0  0  0
M  END
$$$$
MIH-UNI-6b9-8
  -OEChem-03222016562D

 22 24  0     1  0  0  0  0  0999 V2000
    0.0000    0.0000    0.0000 C   0  0  0  0  0  0  0  0  0  0  0  0
   -0.8675    0.4975    0.0000 C   0  0  0  0  0  0  0  0  0  0  0  0
   -0.8675    1.5027    0.0000 C   0  0  0  0  0  0  0  0  0  0  0  0
    0.0000    2.0104    0.0000 N   0  0  0  0  0  0  0  0  0  0  0  0
    0.8675    1.5027    0.0000 C   0  0  0  0  0  0  0  0  0  0  0  0
    0.8675    0.4975    0.0000 C   0  0  0  0  0  0  0  0  0  0  0  0
    1.7328   -0.0038    0.0000 N   0  0  0  0  0  0  0  0  0  0  0  0
    2.5995    0.4950    0.0000 C   0  0  2  0  0  0  0  0  0  0  0  0
    1.9564    1.2607    0.0000 H   0  0  0  0  0  0  0  0  0  0  0  0
    2.9401   -0.4508    0.0000 C   0  0  0  0  0  0  0  0  0  0  0  0
    3.9249   -0.6249    0.0000 C   0  0  1  0  0  0  0  0  0  0  0  0
    4.7887   -1.1287    0.0000 H   0  0  0  0  0  0  0  0  0  0  0  0
    3.5805   -1.5638    0.0000 C   0  0  0  0  0  0  0  0  0  0  0  0
    4.1395   -2.3948    0.0000 C   0  0  0  0  0  0  0  0  0  0  0  0
    3.5208   -3.1804    0.0000 C   0  0  0  0  0  0  0  0  0  0  0  0
    2.5799   -2.8403    0.0000 S   0  0  0  0  0  0  0  0  0  0  0  0
    2.6167   -1.8364    0.0000 C   0  0  0  0  0  0  0  0  0  0  0  0
    4.5725    0.1371    0.0000 C   0  0  0  0  0  0  0  0  0  0  0  0
    4.2319    1.0828    0.0000 C   0  0  1  0  0  0  0  0  0  0  0  0
    4.2393    2.0828    0.0000 H   0  0  0  0  0  0  0  0  0  0  0  0
    5.2177    1.2512    0.0000 O   0  0  0  0  0  0  0  0  0  0  0  0
    3.2437    1.2666    0.0000 O   0  0  0  0  0  0  0  0  0  0  0  0
  1  6  2  0  0  0  0
  1  2  1  0  0  0  0
  2  3  2  0  0  0  0
  3  4  1  0  0  0  0
  4  5  2  0  0  0  0
  5  6  1  0  0  0  0
  6  7  1  0  0  0  0
  7  8  1  0  0  0  0
  8  9  1  6  0  0  0
  8 22  1  0  0  0  0
  8 10  1  0  0  0  0
 10 11  1  0  0  0  0
 11 12  1  1  0  0  0
 11 13  1  0  0  0  0
 13 17  2  0  0  0  0
 13 14  1  0  0  0  0
 14 15  2  0  0  0  0
 15 16  1  0  0  0  0
 16 17  1  0  0  0  0
 11 18  1  0  0  0  0
 18 19  1  0  0  0  0
 19 20  1  1  0  0  0
 19 21  1  0  0  0  0
 19 22  1  0  0  0  0
M  END
$$$$
MIH-UNI-6b9-9
  -OEChem-03222016562D

 25 27  0     1  0  0  0  0  0999 V2000
    1.9775    2.9199    0.0000 C   0  0  0  0  0  0  0  0  0  0  0  0
    1.1137    2.4161    0.0000 C   0  0  0  0  0  0  0  0  0  0  0  0
    0.2455    2.9123    0.0000 O   0  0  0  0  0  0  0  0  0  0  0  0
    1.1181    1.4161    0.0000 N   0  0  0  0  0  0  0  0  0  0  0  0
    2.0276    0.9866    0.0000 C   0  0  0  0  0  0  0  0  0  0  0  0
    2.2562    0.0066    0.0000 C   0  0  0  0  0  0  0  0  0  0  0  0
    1.6314   -0.7830    0.0000 N   0  0  3  0  0  0  0  0  0  0  0  0
    2.0676   -1.6829    0.0000 C   0  0  0  0  0  0  0  0  0  0  0  0
    3.0650   -1.7551    0.0000 C   0  0  0  0  0  0  0  0  0  0  0  0
    3.5036   -2.6623    0.0000 C   0  0  0  0  0  0  0  0  0  0  0  0
    4.5042   -2.7288    0.0000 C   0  0  0  0  0  0  0  0  0  0  0  0
    5.0677   -1.8959    0.0000 C   0  0  0  0  0  0  0  0  0  0  0  0
    6.0665   -1.9719    0.0000 C   0  0  0  0  0  0  0  0  0  0  0  0
    6.5052   -2.8711    0.0000 C   0  0  0  0  0  0  0  0  0  0  0  0
    5.9406   -3.7034    0.0000 C   0  0  0  0  0  0  0  0  0  0  0  0
    6.3791   -4.6021    0.0000 S   0  0  0  0  0  0  0  0  0  0  0  0
    7.2778   -4.1636    0.0000 O   0  0  0  0  0  0  0  0  0  0  0  0
    5.4804   -5.0406    0.0000 O   0  0  0  0  0  0  0  0  0  0  0  0
    6.8177   -5.5008    0.0000 N   0  0  0  0  0  0  0  0  0  0  0  0
    4.9373   -3.6363    0.0000 C   0  0  0  0  0  0  0  0  0  0  0  0
    4.6306   -0.9964    0.0000 C   0  0  0  0  0  0  0  0  0  0  0  0
    3.6285   -0.9221    0.0000 C   0  0  0  0  0  0  0  0  0  0  0  0
    0.6314   -0.7843    0.0000 C   0  0  0  0  0  0  0  0  0  0  0  0
    0.0000    0.0000    0.0000 C   0  0  0  0  0  0  0  0  0  0  0  0
    0.2149    0.9798    0.0000 C   0  0  0  0  0  0  0  0  0  0  0  0
  1  2  1  0  0  0  0
  2  3  2  0  0  0  0
  2  4  1  0  0  0  0
  4 25  1  0  0  0  0
  4  5  1  0  0  0  0
  5  6  1  0  0  0  0
  6  7  1  0  0  0  0
  7  8  1  0  0  0  0
  8  9  1  0  0  0  0
  9 22  2  0  0  0  0
  9 10  1  0  0  0  0
 10 11  2  0  0  0  0
 11 20  1  0  0  0  0
 11 12  1  0  0  0  0
 12 13  1  0  0  0  0
 13 14  2  0  0  0  0
 14 15  1  0  0  0  0
 15 16  1  0  0  0  0
 16 17  2  0  0  0  0
 16 18  2  0  0  0  0
 16 19  1  0  0  0  0
 15 20  2  0  0  0  0
 12 21  2  0  0  0  0
 21 22  1  0  0  0  0
  7 23  1  0  0  0  0
 23 24  1  0  0  0  0
 24 25  1  0  0  0  0
M  END
$$$$
SAL-INS-68b-1
  -OEChem-03222016562D

 36 36  0     1  0  0  0  0  0999 V2000
    3.9718    3.5916    0.0000 N   0  0  0  0  0  0  0  0  0  0  0  0
    3.1072    4.0942    0.0000 C   0  0  2  0  0  0  0  0  0  0  0  0
    2.2427    4.5967    0.0000 H   0  0  0  0  0  0  0  0  0  0  0  0
    2.6047    3.2296    0.0000 C   0  0  0  0  0  0  0  0  0  0  0  0
    3.1021    2.3621    0.0000 N   0  0  0  0  0  0  0  0  0  0  0  0
    2.5995    1.4976    0.0000 C   0  0  2  0  0  0  0  0  0  0  0  0
    2.0970    0.6330    0.0000 H   0  0  0  0  0  0  0  0  0  0  0  0
    3.4641    0.9950    0.0000 C   0  0  0  0  0  0  0  0  0  0  0  0
    4.3316    1.4925    0.0000 N   0  0  0  0  0  0  0  0  0  0  0  0
    5.1961    0.9899    0.0000 C   0  0  0  0  0  0  0  0  0  0  0  0
    6.0636    1.4874    0.0000 C   0  0  0  0  0  0  0  0  0  0  0  0
    6.9282    0.9848    0.0000 N   0  0  0  0  0  0  0  0  0  0  0  0
    7.7957    1.4823    0.0000 C   0  0  2  0  0  0  0  0  0  0  0  0
    8.6632    1.9797    0.0000 H   0  0  0  0  0  0  0  0  0  0  0  0
    8.2931    0.6148    0.0000 C   0  0  0  0  0  0  0  0  0  0  0  0
    7.7906   -0.2498    0.0000 O   0  0  0  0  0  0  0  0  0  0  0  0
    9.2931    0.6118    0.0000 O   0  0  0  0  0  0  0  0  0  0  0  0
    7.2982    2.3498    0.0000 C   0  0  0  0  0  0  0  0  0  0  0  0
    7.8008    3.2143    0.0000 C   0  0  0  0  0  0  0  0  0  0  0  0
    7.3033    4.0818    0.0000 C   0  0  0  0  0  0  0  0  0  0  0  0
    7.8059    4.9463    0.0000 N   0  0  0  0  0  0  0  0  0  0  0  0
    7.3085    5.8138    0.0000 C   0  0  0  0  0  0  0  0  0  0  0  0
    7.8110    6.6784    0.0000 N   0  0  0  0  0  0  0  0  0  0  0  0
    6.3085    5.8168    0.0000 N   0  0  0  0  0  0  0  0  0  0  0  0
    6.0666    2.4874    0.0000 O   0  0  0  0  0  0  0  0  0  0  0  0
    3.4611   -0.0050    0.0000 O   0  0  0  0  0  0  0  0  0  0  0  0
    1.7350    2.0001    0.0000 C   0  0  0  0  0  0  0  0  0  0  0  0
    0.8675    1.5027    0.0000 C   0  0  0  0  0  0  0  0  0  0  0  0
    0.8675    0.4975    0.0000 C   0  0  0  0  0  0  0  0  0  0  0  0
    0.0000    0.0000    0.0000 C   0  0  0  0  0  0  0  0  0  0  0  0
   -0.8675    0.4975    0.0000 C   0  0  0  0  0  0  0  0  0  0  0  0
   -0.8675    1.5027    0.0000 C   0  0  0  0  0  0  0  0  0  0  0  0
    0.0000    2.0104    0.0000 C   0  0  0  0  0  0  0  0  0  0  0  0
    1.6047    3.2326    0.0000 O   0  0  0  0  0  0  0  0  0  0  0  0
    3.6098    4.9587    0.0000 C   0  0  0  0  0  0  0  0  0  0  0  0
    3.1123    5.8262    0.0000 O   0  0  0  0  0  0  0  0  0  0  0  0
  1  2  1  0  0  0  0
  2  3  1  1  0  0  0
  2  4  1  0  0  0  0
  4  5  1  0  0  0  0
  5  6  1  0  0  0  0
  6  7  1  1  0  0  0
  6  8  1  0  0  0  0
  8  9  1  0  0  0  0
  9 10  1  0  0  0  0
 10 11  1  0  0  0  0
 11 12  1  0  0  0  0
 12 13  1  0  0  0  0
 13 14  1  6  0  0  0
 13 15  1  0  0  0  0
 15 16  1  0  0  0  0
 15 17  2  0  0  0  0
 13 18  1  0  0  0  0
 18 19  1  0  0  0  0
 19 20  1  0  0  0  0
 20 21  1  0  0  0  0
 21 22  1  0  0  0  0
 22 23  1  0  0  0  0
 22 24  2  0  0  0  0
 11 25  2  0  0  0  0
  8 26  2  0  0  0  0
  6 27  1  0  0  0  0
 27 28  1  0  0  0  0
 28 33  2  0  0  0  0
 28 29  1  0  0  0  0
 29 30  2  0  0  0  0
 30 31  1  0  0  0  0
 31 32  2  0  0  0  0
 32 33  1  0  0  0  0
  4 34  2  0  0  0  0
  2 35  1  0  0  0  0
 35 36  1  0  0  0  0
M  END
$$$$
SAL-INS-68b-2
  -OEChem-03222016562D

 39 39  0     1  0  0  0  0  0999 V2000
    3.9718    3.5916    0.0000 N   0  0  0  0  0  0  0  0  0  0  0  0
    4.8393    4.0891    0.0000 C   0  0  0  0  0  0  0  0  0  0  0  0
    5.7038    3.5865    0.0000 C   0  0  0  0  0  0  0  0  0  0  0  0
    4.8422    5.0891    0.0000 O   0  0  0  0  0  0  0  0  0  0  0  0
    3.1072    4.0942    0.0000 C   0  0  2  0  0  0  0  0  0  0  0  0
    2.2427    4.5967    0.0000 H   0  0  0  0  0  0  0  0  0  0  0  0
    2.6047    3.2296    0.0000 C   0  0  0  0  0  0  0  0  0  0  0  0
    3.1021    2.3621    0.0000 N   0  0  0  0  0  0  0  0  0  0  0  0
    2.5995    1.4976    0.0000 C   0  0  2  0  0  0  0  0  0  0  0  0
    2.0970    0.6330    0.0000 H   0  0  0  0  0  0  0  0  0  0  0  0
    3.4641    0.9950    0.0000 C   0  0  0  0  0  0  0  0  0  0  0  0
    4.3316    1.4925    0.0000 N   0  0  0  0  0  0  0  0  0  0  0  0
    5.1961    0.9899    0.0000 C   0  0  0  0  0  0  0  0  0  0  0  0
    6.0636    1.4874    0.0000 C   0  0  0  0  0  0  0  0  0  0  0  0
    6.9282    0.9848    0.0000 N   0  0  0  0  0  0  0  0  0  0  0  0
    7.7957    1.4823    0.0000 C   0  0  2  0  0  0  0  0  0  0  0  0
    8.6632    1.9797    0.0000 H   0  0  0  0  0  0  0  0  0  0  0  0
    8.2931    0.6148    0.0000 C   0  0  0  0  0  0  0  0  0  0  0  0
    7.7906   -0.2498    0.0000 N   0  0  0  0  0  0  0  0  0  0  0  0
    9.2931    0.6118    0.0000 O   0  0  0  0  0  0  0  0  0  0  0  0
    7.2982    2.3498    0.0000 C   0  0  0  0  0  0  0  0  0  0  0  0
    7.8008    3.2143    0.0000 C   0  0  0  0  0  0  0  0  0  0  0  0
    7.3033    4.0818    0.0000 C   0  0  0  0  0  0  0  0  0  0  0  0
    7.8059    4.9463    0.0000 N   0  0  0  0  0  0  0  0  0  0  0  0
    7.3085    5.8138    0.0000 C   0  0  0  0  0  0  0  0  0  0  0  0
    7.8110    6.6784    0.0000 N   0  0  0  0  0  0  0  0  0  0  0  0
    6.3085    5.8168    0.0000 O   0  0  0  0  0  0  0  0  0  0  0  0
    6.0666    2.4874    0.0000 O   0  0  0  0  0  0  0  0  0  0  0  0
    3.4611   -0.0050    0.0000 O   0  0  0  0  0  0  0  0  0  0  0  0
    1.7350    2.0001    0.0000 C   0  0  0  0  0  0  0  0  0  0  0  0
    0.8675    1.5027    0.0000 C   0  0  0  0  0  0  0  0  0  0  0  0
    0.8675    0.4975    0.0000 C   0  0  0  0  0  0  0  0  0  0  0  0
    0.0000    0.0000    0.0000 C   0  0  0  0  0  0  0  0  0  0  0  0
   -0.8675    0.4975    0.0000 C   0  0  0  0  0  0  0  0  0  0  0  0
   -0.8675    1.5027    0.0000 C   0  0  0  0  0  0  0  0  0  0  0  0
    0.0000    2.0104    0.0000 C   0  0  0  0  0  0  0  0  0  0  0  0
    1.6047    3.2326    0.0000 O   0  0  0  0  0  0  0  0  0  0  0  0
    3.6098    4.9587    0.0000 C   0  0  0  0  0  0  0  0  0  0  0  0
    3.1123    5.8262    0.0000 O   0  0  0  0  0  0  0  0  0  0  0  0
  1  2  1  0  0  0  0
  2  3  1  0  0  0  0
  2  4  2  0  0  0  0
  1  5  1  0  0  0  0
  5  6  1  1  0  0  0
  5  7  1  0  0  0  0
  7  8  1  0  0  0  0
  8  9  1  0  0  0  0
  9 10  1  1  0  0  0
  9 11  1  0  0  0  0
 11 12  1  0  0  0  0
 12 13  1  0  0  0  0
 13 14  1  0  0  0  0
 14 15  1  0  0  0  0
 15 16  1  0  0  0  0
 16 17  1  6  0  0  0
 16 18  1  0  0  0  0
 18 19  1  0  0  0  0
 18 20  2  0  0  0  0
 16 21  1  0  0  0  0
 21 22  1  0  0  0  0
 22 23  1  0  0  0  0
 23 24  1  0  0  0  0
 24 25  1  0  0  0  0
 25 26  1  0  0  0  0
 25 27  2  0  0  0  0
 14 28  2  0  0  0  0
 11 29  2  0  0  0  0
  9 30  1  0  0  0  0
 30 31  1  0  0  0  0
 31 36  2  0  0  0  0
 31 32  1  0  0  0  0
 32 33  2  0  0  0  0
 33 34  1  0  0  0  0
 34 35  2  0  0  0  0
 35 36  1  0  0  0  0
  7 37  2  0  0  0  0
  5 38  1  0  0  0  0
 38 39  1  0  0  0  0
M  END
$$$$
SAL-INS-68b-3
  -OEChem-03222016562D

 44 45  0     1  0  0  0  0  0999 V2000
    2.7503    7.1933    0.0000 N   0  0  0  0  0  0  0  0  0  0  0  0
    3.6149    6.6908    0.0000 C   0  0  2  0  0  0  0  0  0  0  0  0
    4.4794    6.1882    0.0000 H   0  0  0  0  0  0  0  0  0  0  0  0
    3.1123    5.8262    0.0000 C   0  0  0  0  0  0  0  0  0  0  0  0
    3.6098    4.9587    0.0000 N   0  0  0  0  0  0  0  0  0  0  0  0
    3.1072    4.0942    0.0000 C   0  0  2  0  0  0  0  0  0  0  0  0
    2.2427    4.5967    0.0000 H   0  0  0  0  0  0  0  0  0  0  0  0
    2.6047    3.2296    0.0000 C   0  0  0  0  0  0  0  0  0  0  0  0
    3.1021    2.3621    0.0000 N   0  0  0  0  0  0  0  0  0  0  0  0
    2.5995    1.4976    0.0000 C   0  0  2  0  0  0  0  0  0  0  0  0
    2.0970    0.6330    0.0000 H   0  0  0  0  0  0  0  0  0  0  0  0
    3.4641    0.9950    0.0000 C   0  0  0  0  0  0  0  0  0  0  0  0
    4.3316    1.4925    0.0000 N   0  0  0  0  0  0  0  0  0  0  0  0
    5.1961    0.9899    0.0000 C   0  0  2  0  0  0  0  0  0  0  0  0
    6.0607    0.4874    0.0000 H   0  0  0  0  0  0  0  0  0  0  0  0
    5.6987    1.8545    0.0000 C   0  0  0  0  0  0  0  0  0  0  0  0
    5.2012    2.7220    0.0000 O   0  0  0  0  0  0  0  0  0  0  0  0
    6.6987    1.8515    0.0000 O   0  0  0  0  0  0  0  0  0  0  0  0
    4.6936    0.1254    0.0000 C   0  0  0  0  0  0  0  0  0  0  0  0
    5.1910   -0.7421    0.0000 C   0  0  0  0  0  0  0  0  0  0  0  0
    4.6885   -1.6067    0.0000 C   0  0  0  0  0  0  0  0  0  0  0  0
    5.1859   -2.4742    0.0000 N   0  0  0  0  0  0  0  0  0  0  0  0
    4.6834   -3.3387    0.0000 C   0  0  0  0  0  0  0  0  0  0  0  0
    5.1808   -4.2062    0.0000 N   0  0  0  0  0  0  0  0  0  0  0  0
    3.6834   -3.3358    0.0000 N   0  0  0  0  0  0  0  0  0  0  0  0
    3.4611   -0.0050    0.0000 O   0  0  0  0  0  0  0  0  0  0  0  0
    1.7350    2.0001    0.0000 C   0  0  0  0  0  0  0  0  0  0  0  0
    0.8675    1.5027    0.0000 C   0  0  0  0  0  0  0  0  0  0  0  0
    0.8675    0.4975    0.0000 C   0  0  0  0  0  0  0  0  0  0  0  0
    0.0000    0.0000    0.0000 C   0  0  0  0  0  0  0  0  0  0  0  0
   -0.8675    0.4975    0.0000 C   0  0  0  0  0  0  0  0  0  0  0  0
   -0.8675    1.5027    0.0000 C   0  0  0  0  0  0  0  0  0  0  0  0
    0.0000    2.0104    0.0000 C   0  0  0  0  0  0  0  0  0  0  0  0
    1.6047    3.2326    0.0000 O   0  0  0  0  0  0  0  0  0  0  0  0
    3.9718    3.5916    0.0000 C   0  0  0  0  0  0  0  0  0  0  0  0
    4.8393    4.0891    0.0000 C   0  0  0  0  0  0  0  0  0  0  0  0
    4.8392    5.0943    0.0000 C   0  0  0  0  0  0  0  0  0  0  0  0
    5.7067    5.5918    0.0000 C   0  0  0  0  0  0  0  0  0  0  0  0
    6.5742    5.0943    0.0000 C   0  0  0  0  0  0  0  0  0  0  0  0
    6.5742    4.0891    0.0000 C   0  0  0  0  0  0  0  0  0  0  0  0
    5.7067    3.5814    0.0000 C   0  0  0  0  0  0  0  0  0  0  0  0
    2.1123    5.8292    0.0000 O   0  0  0  0  0  0  0  0  0  0  0  0
    4.1174    7.5553    0.0000 C   0  0  0  0  0  0  0  0  0  0  0  0
    3.6200    8.4228    0.0000 O   0  0  0  0  0  0  0  0  0  0  0  0
  1  2  1  0  0  0  0
  2  3  1  6  0  0  0
  2  4  1  0  0  0  0
  4  5  1  0  0  0  0
  5  6  1  0  0  0  0
  6  7  1  6  0  0  0
  6  8  1  0  0  0  0
  8  9  1  0  0  0  0
  9 10  1  0  0  0  0
 10 11  1  1  0  0  0
 10 12  1  0  0  0  0
 12 13  1  0  0  0  0
 13 14  1  0  0  0  0
 14 15  1  1  0  0  0
 14 16  1  0  0  0  0
 16 17  1  0  0  0  0
 16 18  2  0  0  0  0
 14 19  1  0  0  0  0
 19 20  1  0  0  0  0
 20 21  1  0  0  0  0
 21 22  1  0  0  0  0
 22 23  1  0  0  0  0
 23 24  1  0  0  0  0
 23 25  2  0  0  0  0
 12 26  2  0  0  0  0
 10 27  1  0  0  0  0
 27 28  1  0  0  0  0
 28 33  2  0  0  0  0
 28 29  1  0  0  0  0
 29 30  2  0  0  0  0
 30 31  1  0  0  0  0
 31 32  2  0  0  0  0
 32 33  1  0  0  0  0
  8 34  2  0  0  0  0
  6 35  1  0  0  0  0
 35 36  1  0  0  0  0
 36 41  2  0  0  0  0
 36 37  1  0  0  0  0
 37 38  2  0  0  0  0
 38 39  1  0  0  0  0
 39 40  2  0  0  0  0
 40 41  1  0  0  0  0
  4 42  2  0  0  0  0
  2 43  1  0  0  0  0
 43 44  1  0  0  0  0
M  END
$$$$
SAL-INS-68b-4
  -OEChem-03222016562D

 47 48  0     1  0  0  0  0  0999 V2000
    1.8836    6.9638    0.0000 N   0  0  0  0  0  0  0  0  0  0  0  0
    1.3862    7.8313    0.0000 C   0  0  0  0  0  0  0  0  0  0  0  0
    1.8887    8.6959    0.0000 C   0  0  0  0  0  0  0  0  0  0  0  0
    0.3862    7.8343    0.0000 O   0  0  0  0  0  0  0  0  0  0  0  0
    1.3811    6.0993    0.0000 C   0  0  2  0  0  0  0  0  0  0  0  0
    0.8785    5.2347    0.0000 H   0  0  0  0  0  0  0  0  0  0  0  0
    2.2456    5.5967    0.0000 C   0  0  0  0  0  0  0  0  0  0  0  0
    2.2427    4.5967    0.0000 N   0  0  0  0  0  0  0  0  0  0  0  0
    3.1072    4.0942    0.0000 C   0  0  2  0  0  0  0  0  0  0  0  0
    3.9718    3.5916    0.0000 H   0  0  0  0  0  0  0  0  0  0  0  0
    2.6047    3.2296    0.0000 C   0  0  0  0  0  0  0  0  0  0  0  0
    3.1021    2.3621    0.0000 N   0  0  0  0  0  0  0  0  0  0  0  0
    2.5995    1.4976    0.0000 C   0  0  2  0  0  0  0  0  0  0  0  0
    2.0970    0.6330    0.0000 H   0  0  0  0  0  0  0  0  0  0  0  0
    3.4641    0.9950    0.0000 C   0  0  0  0  0  0  0  0  0  0  0  0
    4.3316    1.4925    0.0000 N   0  0  0  0  0  0  0  0  0  0  0  0
    5.1961    0.9899    0.0000 C   0  0  2  0  0  0  0  0  0  0  0  0
    6.0607    0.4874    0.0000 H   0  0  0  0  0  0  0  0  0  0  0  0
    5.6987    1.8545    0.0000 C   0  0  0  0  0  0  0  0  0  0  0  0
    5.2012    2.7220    0.0000 N   0  0  0  0  0  0  0  0  0  0  0  0
    6.6987    1.8515    0.0000 O   0  0  0  0  0  0  0  0  0  0  0  0
    4.6936    0.1254    0.0000 C   0  0  0  0  0  0  0  0  0  0  0  0
    5.1910   -0.7421    0.0000 C   0  0  0  0  0  0  0  0  0  0  0  0
    4.6885   -1.6067    0.0000 C   0  0  0  0  0  0  0  0  0  0  0  0
    5.1859   -2.4742    0.0000 N   0  0  0  0  0  0  0  0  0  0  0  0
    4.6834   -3.3387    0.0000 C   0  0  0  0  0  0  0  0  0  0  0  0
    5.1808   -4.2062    0.0000 N   0  0  0  0  0  0  0  0  0  0  0  0
    3.6834   -3.3358    0.0000 O   0  0  0  0  0  0  0  0  0  0  0  0
    3.4611   -0.0050    0.0000 O   0  0  0  0  0  0  0  0  0  0  0  0
    1.7350    2.0001    0.0000 C   0  0  0  0  0  0  0  0  0  0  0  0
    0.8675    1.5027    0.0000 C   0  0  0  0  0  0  0  0  0  0  0  0
    0.8675    0.4975    0.0000 C   0  0  0  0  0  0  0  0  0  0  0  0
    0.0000    0.0000    0.0000 C   0  0  0  0  0  0  0  0  0  0  0  0
   -0.8675    0.4975    0.0000 C   0  0  0  0  0  0  0  0  0  0  0  0
   -0.8675    1.5027    0.0000 C   0  0  0  0  0  0  0  0  0  0  0  0
    0.0000    2.0104    0.0000 C   0  0  0  0  0  0  0  0  0  0  0  0
    1.6047    3.2326    0.0000 O   0  0  0  0  0  0  0  0  0  0  0  0
    3.6098    4.9587    0.0000 C   0  0  0  0  0  0  0  0  0  0  0  0
    4.6098    4.9558    0.0000 C   0  0  0  0  0  0  0  0  0  0  0  0
    5.1072    4.0823    0.0000 C   0  0  0  0  0  0  0  0  0  0  0  0
    6.1072    4.0793    0.0000 C   0  0  0  0  0  0  0  0  0  0  0  0
    6.6149    4.9409    0.0000 C   0  0  0  0  0  0  0  0  0  0  0  0
    6.1174    5.8144    0.0000 C   0  0  0  0  0  0  0  0  0  0  0  0
    5.1123    5.8263    0.0000 C   0  0  0  0  0  0  0  0  0  0  0  0
    3.1131    6.0942    0.0000 O   0  0  0  0  0  0  0  0  0  0  0  0
    0.5165    6.6018    0.0000 C   0  0  0  0  0  0  0  0  0  0  0  0
   -0.3510    6.1044    0.0000 O   0  0  0  0  0  0  0  0  0  0  0  0
  1  2  1  0  0  0  0
  2  3  1  0  0  0  0
  2  4  2  0  0  0  0
  1  5  1  0  0  0  0
  5  6  1  1  0  0  0
  5  7  1  0  0  0  0
  7  8  1  0  0  0  0
  8  9  1  0  0  0  0
  9 10  1  6  0  0  0
  9 11  1  0  0  0  0
 11 12  1  0  0  0  0
 12 13  1  0  0  0  0
 13 14  1  1  0  0  0
 13 15  1  0  0  0  0
 15 16  1  0  0  0  0
 16 17  1  0  0  0  0
 17 18  1  1  0  0  0
 17 19  1  0  0  0  0
 19 20  1  0  0  0  0
 19 21  2  0  0  0  0
 17 22  1  0  0  0  0
 22 23  1  0  0  0  0
 23 24  1  0  0  0  0
 24 25  1  0  0  0  0
 25 26  1  0  0  0  0
 26 27  1  0  0  0  0
 26 28  2  0  0  0  0
 15 29  2  0  0  0  0
 13 30  1  0  0  0  0
 30 31  1  0  0  0  0
 31 36  2  0  0  0  0
 31 32  1  0  0  0  0
 32 33  2  0  0  0  0
 33 34  1  0  0  0  0
 34 35  2  0  0  0  0
 35 36  1  0  0  0  0
 11 37  2  0  0  0  0
  9 38  1  0  0  0  0
 38 39  1  0  0  0  0
 39 44  2  0  0  0  0
 39 40  1  0  0  0  0
 40 41  2  0  0  0  0
 41 42  1  0  0  0  0
 42 43  2  0  0  0  0
 43 44  1  0  0  0  0
  7 45  2  0  0  0  0
  5 46  1  0  0  0  0
 46 47  1  0  0  0  0
M  END
$$$$
SAL-INS-68b-5
  -OEChem-03222016562D

 47 49  0     1  0  0  0  0  0999 V2000
   -0.3149   -3.1300    0.0000 N   0  0  0  0  0  0  0  0  0  0  0  0
    0.6632   -3.3379    0.0000 C   0  0  2  0  0  0  0  0  0  0  0  0
    1.6413   -3.5459    0.0000 H   0  0  0  0  0  0  0  0  0  0  0  0
    0.8711   -2.3598    0.0000 C   0  0  0  0  0  0  0  0  0  0  0  0
    1.8222   -2.0508    0.0000 N   0  0  0  0  0  0  0  0  0  0  0  0
    2.5653   -2.7200    0.0000 C   0  0  2  0  0  0  0  0  0  0  0  0
    1.8962   -3.4631    0.0000 H   0  0  0  0  0  0  0  0  0  0  0  0
    3.3084   -3.3892    0.0000 C   0  0  0  0  0  0  0  0  0  0  0  0
    4.2595   -3.0802    0.0000 N   0  0  0  0  0  0  0  0  0  0  0  0
    5.0026   -3.7494    0.0000 C   0  0  2  0  0  0  0  0  0  0  0  0
    5.7457   -4.4185    0.0000 H   0  0  0  0  0  0  0  0  0  0  0  0
    5.6718   -3.0062    0.0000 C   0  0  0  0  0  0  0  0  0  0  0  0
    5.3628   -2.0552    0.0000 N   0  0  0  0  0  0  0  0  0  0  0  0
    6.0320   -1.3121    0.0000 C   0  0  2  0  0  0  0  0  0  0  0  0
    6.7012   -0.5689    0.0000 H   0  0  0  0  0  0  0  0  0  0  0  0
    5.2889   -0.6429    0.0000 C   0  0  0  0  0  0  0  0  0  0  0  0
    4.3378   -0.9519    0.0000 O   0  0  0  0  0  0  0  0  0  0  0  0
    5.4968    0.3352    0.0000 O   0  0  0  0  0  0  0  0  0  0  0  0
    6.7751   -1.9812    0.0000 C   0  0  0  0  0  0  0  0  0  0  0  0
    7.7262   -1.6723    0.0000 C   0  0  0  0  0  0  0  0  0  0  0  0
    8.4693   -2.3414    0.0000 C   0  0  0  0  0  0  0  0  0  0  0  0
    9.4204   -2.0324    0.0000 N   0  0  0  0  0  0  0  0  0  0  0  0
   10.1635   -2.7016    0.0000 C   0  0  0  0  0  0  0  0  0  0  0  0
   11.1145   -2.3926    0.0000 N   0  0  0  0  0  0  0  0  0  0  0  0
    9.9555   -3.6798    0.0000 N   0  0  0  0  0  0  0  0  0  0  0  0
    6.6499   -3.2142    0.0000 O   0  0  0  0  0  0  0  0  0  0  0  0
    4.3335   -4.4925    0.0000 C   0  0  0  0  0  0  0  0  0  0  0  0
    4.6424   -5.4435    0.0000 C   0  0  0  0  0  0  0  0  0  0  0  0
    5.6263   -5.6497    0.0000 C   0  0  0  0  0  0  0  0  0  0  0  0
    5.9353   -6.6008    0.0000 C   0  0  0  0  0  0  0  0  0  0  0  0
    5.2705   -7.3478    0.0000 C   0  0  0  0  0  0  0  0  0  0  0  0
    4.2866   -7.1417    0.0000 C   0  0  0  0  0  0  0  0  0  0  0  0
    3.9676   -6.1885    0.0000 C   0  0  0  0  0  0  0  0  0  0  0  0
    3.1005   -4.3673    0.0000 O   0  0  0  0  0  0  0  0  0  0  0  0
    3.2345   -1.9769    0.0000 C   0  0  0  0  0  0  0  0  0  0  0  0
    2.6938   -0.3125    0.0000 C   0  0  0  0  0  0  0  0  0  0  0  0
    1.7360   -0.0012    0.0000 C   0  0  0  0  0  0  0  0  0  0  0  0
    0.8680   -0.4978    0.0000 C   0  0  0  0  0  0  0  0  0  0  0  0
    0.0000    0.0000    0.0000 C   0  0  0  0  0  0  0  0  0  0  0  0
    0.0000    1.0058    0.0000 C   0  0  0  0  0  0  0  0  0  0  0  0
    0.8680    1.5138    0.0000 C   0  0  0  0  0  0  0  0  0  0  0  0
    1.7360    1.0058    0.0000 C   0  0  0  0  0  0  0  0  0  0  0  0
    2.6938    1.3169    0.0000 N   0  0  0  0  0  0  0  0  0  0  0  0
    3.2858    0.5023    0.0000 C   0  0  0  0  0  0  0  0  0  0  0  0
    0.1280   -1.6906    0.0000 O   0  0  0  0  0  0  0  0  0  0  0  0
    0.4552   -4.3161    0.0000 C   0  0  0  0  0  0  0  0  0  0  0  0
   -0.4958   -4.6250    0.0000 O   0  0  0  0  0  0  0  0  0  0  0  0
  1  2  1  0  0  0  0
  2  3  1  1  0  0  0
  2  4  1  0  0  0  0
  4  5  1  0  0  0  0
  5  6  1  0  0  0  0
  6  7  1  6  0  0  0
  6  8  1  0  0  0  0
  8  9  1  0  0  0  0
  9 10  1  0  0  0  0
 10 11  1  1  0  0  0
 10 12  1  0  0  0  0
 12 13  1  0  0  0  0
 13 14  1  0  0  0  0
 14 15  1  1  0  0  0
 14 16  1  0  0  0  0
 16 17  1  0  0  0  0
 16 18  2  0  0  0  0
 14 19  1  0  0  0  0
 19 20  1  0  0  0  0
 20 21  1  0  0  0  0
 21 22  1  0  0  0  0
 22 23  1  0  0  0  0
 23 24  1  0  0  0  0
 23 25  2  0  0  0  0
 12 26  2  0  0  0  0
 10 27  1  0  0  0  0
 27 28  1  0  0  0  0
 28 33  2  0  0  0  0
 28 29  1  0  0  0  0
 29 30  2  0  0  0  0
 30 31  1  0  0  0  0
 31 32  2  0  0  0  0
 32 33  1  0  0  0  0
  8 34  2  0  0  0  0
  6 35  1  0  0  0  0
 35 36  1  0  0  0  0
 36 44  2  0  0  0  0
 36 37  1  0  0  0  0
 37 42  2  0  0  0  0
 37 38  1  0  0  0  0
 38 39  2  0  0  0  0
 39 40  1  0  0  0  0
 40 41  2  0  0  0  0
 41 42  1  0  0  0  0
 42 43  1  0  0  0  0
 43 44  1  0  0  0  0
  4 45  2  0  0  0  0
  2 46  1  0  0  0  0
 46 47  1  0  0  0  0
M  END
$$$$
SAL-INS-68b-6
  -OEChem-03222016562D

 50 52  0     1  0  0  0  0  0999 V2000
    5.4401   -2.2929    0.0000 N   0  0  0  0  0  0  0  0  0  0  0  0
    6.4182   -2.5009    0.0000 C   0  0  0  0  0  0  0  0  0  0  0  0
    7.0874   -1.7578    0.0000 C   0  0  0  0  0  0  0  0  0  0  0  0
    6.7272   -3.4520    0.0000 O   0  0  0  0  0  0  0  0  0  0  0  0
    4.7709   -3.0360    0.0000 C   0  0  2  0  0  0  0  0  0  0  0  0
    4.1017   -3.7792    0.0000 H   0  0  0  0  0  0  0  0  0  0  0  0
    4.0278   -2.3669    0.0000 C   0  0  0  0  0  0  0  0  0  0  0  0
    3.0767   -2.6759    0.0000 N   0  0  0  0  0  0  0  0  0  0  0  0
    2.3336   -2.0067    0.0000 C   0  0  2  0  0  0  0  0  0  0  0  0
    1.5905   -1.3375    0.0000 H   0  0  0  0  0  0  0  0  0  0  0  0
    1.6644   -2.7498    0.0000 C   0  0  0  0  0  0  0  0  0  0  0  0
    1.9734   -3.7009    0.0000 N   0  0  0  0  0  0  0  0  0  0  0  0
    1.3042   -4.4440    0.0000 C   0  0  2  0  0  0  0  0  0  0  0  0
    0.6351   -5.1871    0.0000 H   0  0  0  0  0  0  0  0  0  0  0  0
    2.0474   -5.1131    0.0000 C   0  0  0  0  0  0  0  0  0  0  0  0
    1.8394   -6.0913    0.0000 N   0  0  0  0  0  0  0  0  0  0  0  0
    2.5825   -6.7605    0.0000 C   0  0  2  0  0  0  0  0  0  0  0  0
    3.3256   -7.4296    0.0000 H   0  0  0  0  0  0  0  0  0  0  0  0
    1.9133   -7.5036    0.0000 C   0  0  0  0  0  0  0  0  0  0  0  0
    0.9352   -7.2956    0.0000 N   0  0  0  0  0  0  0  0  0  0  0  0
    2.2223   -8.4546    0.0000 O   0  0  0  0  0  0  0  0  0  0  0  0
    3.2517   -6.0173    0.0000 C   0  0  0  0  0  0  0  0  0  0  0  0
    4.2298   -6.2253    0.0000 C   0  0  0  0  0  0  0  0  0  0  0  0
    4.5388   -7.1764    0.0000 C   0  0  0  0  0  0  0  0  0  0  0  0
    5.5169   -7.3843    0.0000 N   0  0  0  0  0  0  0  0  0  0  0  0
    5.8259   -8.3354    0.0000 C   0  0  0  0  0  0  0  0  0  0  0  0
    6.8040   -8.5434    0.0000 N   0  0  0  0  0  0  0  0  0  0  0  0
    5.1567   -9.0785    0.0000 O   0  0  0  0  0  0  0  0  0  0  0  0
    2.9984   -4.8042    0.0000 O   0  0  0  0  0  0  0  0  0  0  0  0
    0.5611   -3.7748    0.0000 C   0  0  0  0  0  0  0  0  0  0  0  0
   -0.3899   -4.0838    0.0000 C   0  0  0  0  0  0  0  0  0  0  0  0
   -0.5961   -5.0676    0.0000 C   0  0  0  0  0  0  0  0  0  0  0  0
   -1.5472   -5.3766    0.0000 C   0  0  0  0  0  0  0  0  0  0  0  0
   -2.2942   -4.7118    0.0000 C   0  0  0  0  0  0  0  0  0  0  0  0
   -2.0881   -3.7280    0.0000 C   0  0  0  0  0  0  0  0  0  0  0  0
   -1.1349   -3.4090    0.0000 C   0  0  0  0  0  0  0  0  0  0  0  0
    0.6863   -2.5418    0.0000 O   0  0  0  0  0  0  0  0  0  0  0  0
    3.0028   -1.2636    0.0000 C   0  0  0  0  0  0  0  0  0  0  0  0
    2.6938   -0.3125    0.0000 C   0  0  0  0  0  0  0  0  0  0  0  0
    1.7360   -0.0012    0.0000 C   0  0  0  0  0  0  0  0  0  0  0  0
    0.8680   -0.4978    0.0000 C   0  0  0  0  0  0  0  0  0  0  0  0
    0.0000    0.0000    0.0000 C   0  0  0  0  0  0  0  0  0  0  0  0
    0.0000    1.0058    0.0000 C   0  0  0  0  0  0  0  0  0  0  0  0
    0.8680    1.5138    0.0000 C   0  0  0  0  0  0  0  0  0  0  0  0
    1.7360    1.0058    0.0000 C   0  0  0  0  0  0  0  0  0  0  0  0
    2.6938    1.3169    0.0000 N   0  0  0  0  0  0  0  0  0  0  0  0
    3.2858    0.5023    0.0000 C   0  0  0  0  0  0  0  0  0  0  0  0
    4.2357   -1.3887    0.0000 O   0  0  0  0  0  0  0  0  0  0  0  0
    5.5140   -3.7052    0.0000 C   0  0  0  0  0  0  0  0  0  0  0  0
    5.3061   -4.6834    0.0000 O   0  0  0  0  0  0  0  0  0  0  0  0
  1  2  1  0  0  0  0
  2  3  1  0  0  0  0
  2  4  2  0  0  0  0
  1  5  1  0  0  0  0
  5  6  1  6  0  0  0
  5  7  1  0  0  0  0
  7  8  1  0  0  0  0
  8  9  1  0  0  0  0
  9 10  1  1  0  0  0
  9 11  1  0  0  0  0
 11 12  1  0  0  0  0
 12 13  1  0  0  0  0
 13 14  1  1  0  0  0
 13 15  1  0  0  0  0
 15 16  1  0  0  0  0
 16 17  1  0  0  0  0
 17 18  1  6  0  0  0
 17 19  1  0  0  0  0
 19 20  1  0  0  0  0
 19 21  2  0  0  0  0
 17 22  1  0  0  0  0
 22 23  1  0  0  0  0
 23 24  1  0  0  0  0
 24 25  1  0  0  0  0
 25 26  1  0  0  0  0
 26 27  1  0  0  0  0
 26 28  2  0  0  0  0
 15 29  2  0  0  0  0
 13 30  1  0  0  0  0
 30 31  1  0  0  0  0
 31 36  2  0  0  0  0
 31 32  1  0  0  0  0
 32 33  2  0  0  0  0
 33 34  1  0  0  0  0
 34 35  2  0  0  0  0
 35 36  1  0  0  0  0
 11 37  2  0  0  0  0
  9 38  1  0  0  0  0
 38 39  1  0  0  0  0
 39 47  2  0  0  0  0
 39 40  1  0  0  0  0
 40 45  2  0  0  0  0
 40 41  1  0  0  0  0
 41 42  2  0  0  0  0
 42 43  1  0  0  0  0
 43 44  2  0  0  0  0
 44 45  1  0  0  0  0
 45 46  1  0  0  0  0
 46 47  1  0  0  0  0
  7 48  2  0  0  0  0
  5 49  1  0  0  0  0
 49 50  1  0  0  0  0
M  END
$$$$
SAL-INS-68b-7
  -OEChem-03222016562D

 39 40  0     1  0  0  0  0  0999 V2000
    4.1017   -3.7792    0.0000 N   0  0  0  0  0  0  0  0  0  0  0  0
    4.7709   -3.0360    0.0000 C   0  0  2  0  0  0  0  0  0  0  0  0
    5.4401   -2.2929    0.0000 H   0  0  0  0  0  0  0  0  0  0  0  0
    4.0278   -2.3669    0.0000 C   0  0  0  0  0  0  0  0  0  0  0  0
    3.0767   -2.6759    0.0000 N   0  0  0  0  0  0  0  0  0  0  0  0
    2.3336   -2.0067    0.0000 C   0  0  2  0  0  0  0  0  0  0  0  0
    1.5905   -1.3375    0.0000 H   0  0  0  0  0  0  0  0  0  0  0  0
    1.6644   -2.7498    0.0000 C   0  0  0  0  0  0  0  0  0  0  0  0
    1.9734   -3.7009    0.0000 N   0  0  0  0  0  0  0  0  0  0  0  0
    1.3042   -4.4440    0.0000 C   0  0  0  0  0  0  0  0  0  0  0  0
    1.6132   -5.3951    0.0000 C   0  0  0  0  0  0  0  0  0  0  0  0
    0.9440   -6.1382    0.0000 N   0  0  0  0  0  0  0  0  0  0  0  0
    1.2530   -7.0892    0.0000 C   0  0  2  0  0  0  0  0  0  0  0  0
    1.5620   -8.0403    0.0000 H   0  0  0  0  0  0  0  0  0  0  0  0
    0.3019   -7.3982    0.0000 C   0  0  0  0  0  0  0  0  0  0  0  0
   -0.4412   -6.7290    0.0000 O   0  0  0  0  0  0  0  0  0  0  0  0
    0.0940   -8.3763    0.0000 O   0  0  0  0  0  0  0  0  0  0  0  0
    2.2041   -6.7803    0.0000 C   0  0  0  0  0  0  0  0  0  0  0  0
    2.9472   -7.4494    0.0000 C   0  0  0  0  0  0  0  0  0  0  0  0
    3.8983   -7.1405    0.0000 C   0  0  0  0  0  0  0  0  0  0  0  0
    4.6414   -7.8096    0.0000 N   0  0  0  0  0  0  0  0  0  0  0  0
    5.5925   -7.5007    0.0000 C   0  0  0  0  0  0  0  0  0  0  0  0
    6.3356   -8.1698    0.0000 N   0  0  0  0  0  0  0  0  0  0  0  0
    5.8004   -6.5225    0.0000 N   0  0  0  0  0  0  0  0  0  0  0  0
    2.5913   -5.6030    0.0000 O   0  0  0  0  0  0  0  0  0  0  0  0
    0.6863   -2.5418    0.0000 O   0  0  0  0  0  0  0  0  0  0  0  0
    3.0028   -1.2636    0.0000 C   0  0  0  0  0  0  0  0  0  0  0  0
    2.6938   -0.3125    0.0000 C   0  0  0  0  0  0  0  0  0  0  0  0
    1.7360   -0.0012    0.0000 C   0  0  0  0  0  0  0  0  0  0  0  0
    0.8680   -0.4978    0.0000 C   0  0  0  0  0  0  0  0  0  0  0  0
    0.0000    0.0000    0.0000 C   0  0  0  0  0  0  0  0  0  0  0  0
    0.0000    1.0058    0.0000 C   0  0  0  0  0  0  0  0  0  0  0  0
    0.8680    1.5138    0.0000 C   0  0  0  0  0  0  0  0  0  0  0  0
    1.7360    1.0058    0.0000 C   0  0  0  0  0  0  0  0  0  0  0  0
    2.6938    1.3169    0.0000 N   0  0  0  0  0  0  0  0  0  0  0  0
    3.2858    0.5023    0.0000 C   0  0  0  0  0  0  0  0  0  0  0  0
    4.2357   -1.3887    0.0000 O   0  0  0  0  0  0  0  0  0  0  0  0
    5.5140   -3.7052    0.0000 C   0  0  0  0  0  0  0  0  0  0  0  0
    6.4651   -3.3962    0.0000 O   0  0  0  0  0  0  0  0  0  0  0  0
  1  2  1  0  0  0  0
  2  3  1  1  0  0  0
  2  4  1  0  0  0  0
  4  5  1  0  0  0  0
  5  6  1  0  0  0  0
  6  7  1  1  0  0  0
  6  8  1  0  0  0  0
  8  9  1  0  0  0  0
  9 10  1  0  0  0  0
 10 11  1  0  0  0  0
 11 12  1  0  0  0  0
 12 13  1  0  0  0  0
 13 14  1  6  0  0  0
 13 15  1  0  0  0  0
 15 16  1  0  0  0  0
 15 17  2  0  0  0  0
 13 18  1  0  0  0  0
 18 19  1  0  0  0  0
 19 20  1  0  0  0  0
 20 21  1  0  0  0  0
 21 22  1  0  0  0  0
 22 23  1  0  0  0  0
 22 24  2  0  0  0  0
 11 25  2  0  0  0  0
  8 26  2  0  0  0  0
  6 27  1  0  0  0  0
 27 28  1  0  0  0  0
 28 36  2  0  0  0  0
 28 29  1  0  0  0  0
 29 34  2  0  0  0  0
 29 30  1  0  0  0  0
 30 31  2  0  0  0  0
 31 32  1  0  0  0  0
 32 33  2  0  0  0  0
 33 34  1  0  0  0  0
 34 35  1  0  0  0  0
 35 36  1  0  0  0  0
  4 37  2  0  0  0  0
  2 38  1  0  0  0  0
 38 39  1  0  0  0  0
M  END
$$$$
SAL-INS-68b-8
  -OEChem-03222016562D

 42 43  0     1  0  0  0  0  0999 V2000
    4.1017   -3.7792    0.0000 N   0  0  0  0  0  0  0  0  0  0  0  0
    4.4107   -4.7302    0.0000 C   0  0  0  0  0  0  0  0  0  0  0  0
    3.7415   -5.4733    0.0000 C   0  0  0  0  0  0  0  0  0  0  0  0
    5.3888   -4.9382    0.0000 O   0  0  0  0  0  0  0  0  0  0  0  0
    4.7709   -3.0360    0.0000 C   0  0  2  0  0  0  0  0  0  0  0  0
    5.4401   -2.2929    0.0000 H   0  0  0  0  0  0  0  0  0  0  0  0
    4.0278   -2.3669    0.0000 C   0  0  0  0  0  0  0  0  0  0  0  0
    3.0767   -2.6759    0.0000 N   0  0  0  0  0  0  0  0  0  0  0  0
    2.3336   -2.0067    0.0000 C   0  0  2  0  0  0  0  0  0  0  0  0
    1.5905   -1.3375    0.0000 H   0  0  0  0  0  0  0  0  0  0  0  0
    1.6644   -2.7498    0.0000 C   0  0  0  0  0  0  0  0  0  0  0  0
    1.9734   -3.7009    0.0000 N   0  0  0  0  0  0  0  0  0  0  0  0
    1.3042   -4.4440    0.0000 C   0  0  0  0  0  0  0  0  0  0  0  0
    1.6132   -5.3951    0.0000 C   0  0  0  0  0  0  0  0  0  0  0  0
    0.9440   -6.1382    0.0000 N   0  0  0  0  0  0  0  0  0  0  0  0
    1.2530   -7.0892    0.0000 C   0  0  2  0  0  0  0  0  0  0  0  0
    1.5620   -8.0403    0.0000 H   0  0  0  0  0  0  0  0  0  0  0  0
    0.3019   -7.3982    0.0000 C   0  0  0  0  0  0  0  0  0  0  0  0
   -0.4412   -6.7290    0.0000 N   0  0  0  0  0  0  0  0  0  0  0  0
    0.0940   -8.3763    0.0000 O   0  0  0  0  0  0  0  0  0  0  0  0
    2.2041   -6.7803    0.0000 C   0  0  0  0  0  0  0  0  0  0  0  0
    2.9472   -7.4494    0.0000 C   0  0  0  0  0  0  0  0  0  0  0  0
    3.8983   -7.1405    0.0000 C   0  0  0  0  0  0  0  0  0  0  0  0
    4.6414   -7.8096    0.0000 N   0  0  0  0  0  0  0  0  0  0  0  0
    5.5925   -7.5007    0.0000 C   0  0  0  0  0  0  0  0  0  0  0  0
    6.3356   -8.1698    0.0000 N   0  0  0  0  0  0  0  0  0  0  0  0
    5.8004   -6.5225    0.0000 O   0  0  0  0  0  0  0  0  0  0  0  0
    2.5913   -5.6030    0.0000 O   0  0  0  0  0  0  0  0  0  0  0  0
    0.6863   -2.5418    0.0000 O   0  0  0  0  0  0  0  0  0  0  0  0
    3.0028   -1.2636    0.0000 C   0  0  0  0  0  0  0  0  0  0  0  0
    2.6938   -0.3125    0.0000 C   0  0  0  0  0  0  0  0  0  0  0  0
    1.7360   -0.0012    0.0000 C   0  0  0  0  0  0  0  0  0  0  0  0
    0.8680   -0.4978    0.0000 C   0  0  0  0  0  0  0  0  0  0  0  0
    0.0000    0.0000    0.0000 C   0  0  0  0  0  0  0  0  0  0  0  0
    0.0000    1.0058    0.0000 C   0  0  0  0  0  0  0  0  0  0  0  0
    0.8680    1.5138    0.0000 C   0  0  0  0  0  0  0  0  0  0  0  0
    1.7360    1.0058    0.0000 C   0  0  0  0  0  0  0  0  0  0  0  0
    2.6938    1.3169    0.0000 N   0  0  0  0  0  0  0  0  0  0  0  0
    3.2858    0.5023    0.0000 C   0  0  0  0  0  0  0  0  0  0  0  0
    4.2357   -1.3887    0.0000 O   0  0  0  0  0  0  0  0  0  0  0  0
    5.5140   -3.7052    0.0000 C   0  0  0  0  0  0  0  0  0  0  0  0
    6.4651   -3.3962    0.0000 O   0  0  0  0  0  0  0  0  0  0  0  0
  1  2  1  0  0  0  0
  2  3  1  0  0  0  0
  2  4  2  0  0  0  0
  1  5  1  0  0  0  0
  5  6  1  1  0  0  0
  5  7  1  0  0  0  0
  7  8  1  0  0  0  0
  8  9  1  0  0  0  0
  9 10  1  1  0  0  0
  9 11  1  0  0  0  0
 11 12  1  0  0  0  0
 12 13  1  0  0  0  0
 13 14  1  0  0  0  0
 14 15  1  0  0  0  0
 15 16  1  0  0  0  0
 16 17  1  6  0  0  0
 16 18  1  0  0  0  0
 18 19  1  0  0  0  0
 18 20  2  0  0  0  0
 16 21  1  0  0  0  0
 21 22  1  0  0  0  0
 22 23  1  0  0  0  0
 23 24  1  0  0  0  0
 24 25  1  0  0  0  0
 25 26  1  0  0  0  0
 25 27  2  0  0  0  0
 14 28  2  0  0  0  0
 11 29  2  0  0  0  0
  9 30  1  0  0  0  0
 30 31  1  0  0  0  0
 31 39  2  0  0  0  0
 31 32  1  0  0  0  0
 32 37  2  0  0  0  0
 32 33  1  0  0  0  0
 33 34  2  0  0  0  0
 34 35  1  0  0  0  0
 35 36  2  0  0  0  0
 36 37  1  0  0  0  0
 37 38  1  0  0  0  0
 38 39  1  0  0  0  0
  7 40  2  0  0  0  0
  5 41  1  0  0  0  0
 41 42  1  0  0  0  0
M  END
$$$$
SAL-INS-68b-9
  -OEChem-03222016562D

 42 43  0     1  0  0  0  0  0999 V2000
   -0.3149   -3.1300    0.0000 N   0  0  0  0  0  0  0  0  0  0  0  0
    0.6632   -3.3379    0.0000 C   0  0  2  0  0  0  0  0  0  0  0  0
    1.6413   -3.5459    0.0000 H   0  0  0  0  0  0  0  0  0  0  0  0
    0.8711   -2.3598    0.0000 C   0  0  0  0  0  0  0  0  0  0  0  0
    1.8222   -2.0508    0.0000 N   0  0  0  0  0  0  0  0  0  0  0  0
    2.5653   -2.7200    0.0000 C   0  0  2  0  0  0  0  0  0  0  0  0
    1.8962   -3.4631    0.0000 H   0  0  0  0  0  0  0  0  0  0  0  0
    3.3084   -3.3892    0.0000 C   0  0  0  0  0  0  0  0  0  0  0  0
    4.2595   -3.0802    0.0000 N   0  0  0  0  0  0  0  0  0  0  0  0
    5.0026   -3.7494    0.0000 C   0  0  1  0  0  0  0  0  0  0  0  0
    5.7457   -4.4185    0.0000 H   0  0  0  0  0  0  0  0  0  0  0  0
    5.6718   -3.0062    0.0000 C   0  0  0  0  0  0  0  0  0  0  0  0
    5.3628   -2.0552    0.0000 N   0  0  0  0  0  0  0  0  0  0  0  0
    6.0320   -1.3121    0.0000 C   0  0  2  0  0  0  0  0  0  0  0  0
    6.7012   -0.5689    0.0000 H   0  0  0  0  0  0  0  0  0  0  0  0
    5.2889   -0.6429    0.0000 C   0  0  0  0  0  0  0  0  0  0  0  0
    4.3378   -0.9519    0.0000 O   0  0  0  0  0  0  0  0  0  0  0  0
    5.4968    0.3352    0.0000 O   0  0  0  0  0  0  0  0  0  0  0  0
    6.7751   -1.9812    0.0000 C   0  0  0  0  0  0  0  0  0  0  0  0
    7.7262   -1.6723    0.0000 C   0  0  0  0  0  0  0  0  0  0  0  0
    8.4693   -2.3414    0.0000 C   0  0  0  0  0  0  0  0  0  0  0  0
    9.4204   -2.0324    0.0000 N   0  0  0  0  0  0  0  0  0  0  0  0
   10.1635   -2.7016    0.0000 C   0  0  0  0  0  0  0  0  0  0  0  0
   11.1145   -2.3926    0.0000 N   0  0  0  0  0  0  0  0  0  0  0  0
    9.9555   -3.6798    0.0000 N   0  0  0  0  0  0  0  0  0  0  0  0
    6.6499   -3.2142    0.0000 O   0  0  0  0  0  0  0  0  0  0  0  0
    4.3335   -4.4925    0.0000 C   0  0  0  0  0  0  0  0  0  0  0  0
    4.6424   -5.4435    0.0000 O   0  0  0  0  0  0  0  0  0  0  0  0
    3.1005   -4.3673    0.0000 O   0  0  0  0  0  0  0  0  0  0  0  0
    3.2345   -1.9769    0.0000 C   0  0  0  0  0  0  0  0  0  0  0  0
    2.6938   -0.3125    0.0000 C   0  0  0  0  0  0  0  0  0  0  0  0
    1.7360   -0.0012    0.0000 C   0  0  0  0  0  0  0  0  0  0  0  0
    0.8680   -0.4978    0.0000 C   0  0  0  0  0  0  0  0  0  0  0  0
    0.0000    0.0000    0.0000 C   0  0  0  0  0  0  0  0  0  0  0  0
    0.0000    1.0058    0.0000 C   0  0  0  0  0  0  0  0  0  0  0  0
    0.8680    1.5138    0.0000 C   0  0  0  0  0  0  0  0  0  0  0  0
    1.7360    1.0058    0.0000 C   0  0  0  0  0  0  0  0  0  0  0  0
    2.6938    1.3169    0.0000 N   0  0  0  0  0  0  0  0  0  0  0  0
    3.2858    0.5023    0.0000 C   0  0  0  0  0  0  0  0  0  0  0  0
    0.1280   -1.6906    0.0000 O   0  0  0  0  0  0  0  0  0  0  0  0
    0.4552   -4.3161    0.0000 C   0  0  0  0  0  0  0  0  0  0  0  0
   -0.4958   -4.6250    0.0000 O   0  0  0  0  0  0  0  0  0  0  0  0
  1  2  1  0  0  0  0
  2  3  1  1  0  0  0
  2  4  1  0  0  0  0
  4  5  1  0  0  0  0
  5  6  1  0  0  0  0
  6  7  1  6  0  0  0
  6  8  1  0  0  0  0
  8  9  1  0  0  0  0
  9 10  1  0  0  0  0
 10 11  1  6  0  0  0
 10 12  1  0  0  0  0
 12 13  1  0  0  0  0
 13 14  1  0  0  0  0
 14 15  1  1  0  0  0
 14 16  1  0  0  0  0
 16 17  1  0  0  0  0
 16 18  2  0  0  0  0
 14 19  1  0  0  0  0
 19 20  1  0  0  0  0
 20 21  1  0  0  0  0
 21 22  1  0  0  0  0
 22 23  1  0  0  0  0
 23 24  1  0  0  0  0
 23 25  2  0  0  0  0
 12 26  2  0  0  0  0
 10 27  1  0  0  0  0
 27 28  1  0  0  0  0
  8 29  2  0  0  0  0
  6 30  1  0  0  0  0
 30 31  1  0  0  0  0
 31 39  2  0  0  0  0
 31 32  1  0  0  0  0
 32 37  2  0  0  0  0
 32 33  1  0  0  0  0
 33 34  2  0  0  0  0
 34 35  1  0  0  0  0
 35 36  2  0  0  0  0
 36 37  1  0  0  0  0
 37 38  1  0  0  0  0
 38 39  1  0  0  0  0
  4 40  2  0  0  0  0
  2 41  1  0  0  0  0
 41 42  1  0  0  0  0
M  END
$$$$
SAL-INS-68b-10
  -OEChem-03222016562D

 45 46  0     1  0  0  0  0  0999 V2000
    5.4401   -2.2929    0.0000 N   0  0  0  0  0  0  0  0  0  0  0  0
    6.4182   -2.5009    0.0000 C   0  0  0  0  0  0  0  0  0  0  0  0
    7.0874   -1.7578    0.0000 C   0  0  0  0  0  0  0  0  0  0  0  0
    6.7272   -3.4520    0.0000 O   0  0  0  0  0  0  0  0  0  0  0  0
    4.7709   -3.0360    0.0000 C   0  0  1  0  0  0  0  0  0  0  0  0
    4.1017   -3.7792    0.0000 H   0  0  0  0  0  0  0  0  0  0  0  0
    5.5140   -3.7052    0.0000 C   0  0  0  0  0  0  0  0  0  0  0  0
    5.3061   -4.6834    0.0000 O   0  0  0  0  0  0  0  0  0  0  0  0
    4.0278   -2.3669    0.0000 C   0  0  0  0  0  0  0  0  0  0  0  0
    4.2357   -1.3887    0.0000 O   0  0  0  0  0  0  0  0  0  0  0  0
    3.0767   -2.6759    0.0000 N   0  0  0  0  0  0  0  0  0  0  0  0
    2.3336   -2.0067    0.0000 C   0  0  1  0  0  0  0  0  0  0  0  0
    1.5905   -1.3375    0.0000 H   0  0  0  0  0  0  0  0  0  0  0  0
    3.0028   -1.2636    0.0000 C   0  0  0  0  0  0  0  0  0  0  0  0
    2.6938   -0.3125    0.0000 C   0  0  0  0  0  0  0  0  0  0  0  0
    3.2858    0.5023    0.0000 C   0  0  0  0  0  0  0  0  0  0  0  0
    2.6938    1.3169    0.0000 N   0  0  0  0  0  0  0  0  0  0  0  0
    1.7360    1.0058    0.0000 C   0  0  0  0  0  0  0  0  0  0  0  0
    1.7360   -0.0012    0.0000 C   0  0  0  0  0  0  0  0  0  0  0  0
    0.8680   -0.4978    0.0000 C   0  0  0  0  0  0  0  0  0  0  0  0
    0.0000    0.0000    0.0000 C   0  0  0  0  0  0  0  0  0  0  0  0
   -0.0000    1.0058    0.0000 C   0  0  0  0  0  0  0  0  0  0  0  0
    0.8680    1.5138    0.0000 C   0  0  0  0  0  0  0  0  0  0  0  0
    1.6644   -2.7498    0.0000 C   0  0  0  0  0  0  0  0  0  0  0  0
    1.9734   -3.7009    0.0000 O   0  0  0  0  0  0  0  0  0  0  0  0
    0.6863   -2.5418    0.0000 N   0  0  0  0  0  0  0  0  0  0  0  0
    0.0171   -3.2850    0.0000 C   0  0  2  0  0  0  0  0  0  0  0  0
   -0.6520   -4.0281    0.0000 H   0  0  0  0  0  0  0  0  0  0  0  0
    0.7602   -3.9541    0.0000 C   0  0  0  0  0  0  0  0  0  0  0  0
    0.5523   -4.9323    0.0000 O   0  0  0  0  0  0  0  0  0  0  0  0
   -0.7260   -2.6158    0.0000 C   0  0  0  0  0  0  0  0  0  0  0  0
   -0.5180   -1.6376    0.0000 O   0  0  0  0  0  0  0  0  0  0  0  0
   -1.6771   -2.9248    0.0000 N   0  0  0  0  0  0  0  0  0  0  0  0
   -2.4202   -2.2556    0.0000 C   0  0  1  0  0  0  0  0  0  0  0  0
   -1.7510   -1.5125    0.0000 H   0  0  0  0  0  0  0  0  0  0  0  0
   -3.0893   -2.9987    0.0000 C   0  0  0  0  0  0  0  0  0  0  0  0
   -2.7804   -3.9498    0.0000 C   0  0  0  0  0  0  0  0  0  0  0  0
   -3.4495   -4.6929    0.0000 C   0  0  0  0  0  0  0  0  0  0  0  0
   -3.1406   -5.6440    0.0000 N   0  0  0  0  0  0  0  0  0  0  0  0
   -3.8097   -6.3871    0.0000 C   0  0  0  0  0  0  0  0  0  0  0  0
   -4.7879   -6.1791    0.0000 O   0  0  0  0  0  0  0  0  0  0  0  0
   -3.5007   -7.3381    0.0000 N   0  0  0  0  0  0  0  0  0  0  0  0
   -3.1633   -1.5864    0.0000 C   0  0  0  0  0  0  0  0  0  0  0  0
   -2.9553   -0.6083    0.0000 O   0  0  0  0  0  0  0  0  0  0  0  0
   -4.1143   -1.8954    0.0000 N   0  0  0  0  0  0  0  0  0  0  0  0
  1  2  1  0  0  0  0
  2  3  1  0  0  0  0
  2  4  2  0  0  0  0
  1  5  1  0  0  0  0
  5  6  1  6  0  0  0
  5  7  1  0  0  0  0
  7  8  1  0  0  0  0
  5  9  1  0  0  0  0
  9 10  2  0  0  0  0
  9 11  1  0  0  0  0
 11 12  1  0  0  0  0
 12 13  1  1  0  0  0
 12 14  1  0  0  0  0
 14 15  1  0  0  0  0
 15 19  1  0  0  0  0
 15 16  2  0  0  0  0
 16 17  1  0  0  0  0
 17 18  1  0  0  0  0
 18 23  2  0  0  0  0
 18 19  1  0  0  0  0
 19 20  2  0  0  0  0
 20 21  1  0  0  0  0
 21 22  2  0  0  0  0
 22 23  1  0  0  0  0
 12 24  1  0  0  0  0
 24 25  2  0  0  0  0
 24 26  1  0  0  0  0
 26 27  1  0  0  0  0
 27 28  1  1  0  0  0
 27 29  1  0  0  0  0
 29 30  1  0  0  0  0
 27 31  1  0  0  0  0
 31 32  2  0  0  0  0
 31 33  1  0  0  0  0
 33 34  1  0  0  0  0
 34 35  1  6  0  0  0
 34 36  1  0  0  0  0
 36 37  1  0  0  0  0
 37 38  1  0  0  0  0
 38 39  1  0  0  0  0
 39 40  1  0  0  0  0
 40 41  2  0  0  0  0
 40 42  1  0  0  0  0
 34 43  1  0  0  0  0
 43 44  2  0  0  0  0
 43 45  1  0  0  0  0
M  END
$$$$
SAL-INS-68b-11
  -OEChem-03222016562D

 39 39  0     1  0  0  0  0  0999 V2000
    2.9564   -1.6016    0.0000 N   0  0  0  0  0  0  0  0  0  0  0  0
    2.0919   -1.0990    0.0000 C   0  0  2  0  0  0  0  0  0  0  0  0
    1.2273   -0.5964    0.0000 H   0  0  0  0  0  0  0  0  0  0  0  0
    2.5944   -0.2345    0.0000 C   0  0  0  0  0  0  0  0  0  0  0  0
    2.0970    0.6330    0.0000 N   0  0  0  0  0  0  0  0  0  0  0  0
    2.5995    1.4976    0.0000 C   0  0  2  0  0  0  0  0  0  0  0  0
    3.4641    0.9950    0.0000 H   0  0  0  0  0  0  0  0  0  0  0  0
    3.1021    2.3621    0.0000 C   0  0  0  0  0  0  0  0  0  0  0  0
    2.6047    3.2296    0.0000 N   0  0  0  0  0  0  0  0  0  0  0  0
    3.1072    4.0942    0.0000 C   0  0  1  0  0  0  0  0  0  0  0  0
    3.6098    4.9587    0.0000 H   0  0  0  0  0  0  0  0  0  0  0  0
    2.2427    4.5967    0.0000 C   0  0  0  0  0  0  0  0  0  0  0  0
    1.3752    4.0993    0.0000 N   0  0  0  0  0  0  0  0  0  0  0  0
    0.5106    4.6018    0.0000 C   0  0  2  0  0  0  0  0  0  0  0  0
   -0.3539    5.1044    0.0000 H   0  0  0  0  0  0  0  0  0  0  0  0
    0.0081    3.7373    0.0000 C   0  0  0  0  0  0  0  0  0  0  0  0
    0.5055    2.8698    0.0000 O   0  0  0  0  0  0  0  0  0  0  0  0
   -0.9919    3.7402    0.0000 O   0  0  0  0  0  0  0  0  0  0  0  0
    1.0132    5.4664    0.0000 C   0  0  0  0  0  0  0  0  0  0  0  0
    0.5157    6.3339    0.0000 C   0  0  0  0  0  0  0  0  0  0  0  0
    1.0183    7.1984    0.0000 C   0  0  0  0  0  0  0  0  0  0  0  0
    0.5208    8.0659    0.0000 N   0  0  0  0  0  0  0  0  0  0  0  0
    1.0234    8.9305    0.0000 C   0  0  0  0  0  0  0  0  0  0  0  0
    0.5260    9.7980    0.0000 N   0  0  0  0  0  0  0  0  0  0  0  0
    2.0234    8.9275    0.0000 N   0  0  0  0  0  0  0  0  0  0  0  0
    2.2456    5.5967    0.0000 O   0  0  0  0  0  0  0  0  0  0  0  0
    3.9718    3.5916    0.0000 C   0  0  0  0  0  0  0  0  0  0  0  0
    4.8393    4.0891    0.0000 O   0  0  0  0  0  0  0  0  0  0  0  0
    4.1021    2.3592    0.0000 O   0  0  0  0  0  0  0  0  0  0  0  0
    1.7350    2.0001    0.0000 C   0  0  0  0  0  0  0  0  0  0  0  0
    0.8675    1.5027    0.0000 C   0  0  0  0  0  0  0  0  0  0  0  0
    0.8675    0.4975    0.0000 C   0  0  0  0  0  0  0  0  0  0  0  0
    0.0000    0.0000    0.0000 C   0  0  0  0  0  0  0  0  0  0  0  0
   -0.8675    0.4975    0.0000 C   0  0  0  0  0  0  0  0  0  0  0  0
   -0.8675    1.5027    0.0000 C   0  0  0  0  0  0  0  0  0  0  0  0
    0.0000    2.0104    0.0000 C   0  0  0  0  0  0  0  0  0  0  0  0
    3.5944   -0.2374    0.0000 O   0  0  0  0  0  0  0  0  0  0  0  0
    1.5893   -1.9635    0.0000 C   0  0  0  0  0  0  0  0  0  0  0  0
    2.0868   -2.8310    0.0000 O   0  0  0  0  0  0  0  0  0  0  0  0
  1  2  1  0  0  0  0
  2  3  1  6  0  0  0
  2  4  1  0  0  0  0
  4  5  1  0  0  0  0
  5  6  1  0  0  0  0
  6  7  1  6  0  0  0
  6  8  1  0  0  0  0
  8  9  1  0  0  0  0
  9 10  1  0  0  0  0
 10 11  1  6  0  0  0
 10 12  1  0  0  0  0
 12 13  1  0  0  0  0
 13 14  1  0  0  0  0
 14 15  1  1  0  0  0
 14 16  1  0  0  0  0
 16 17  1  0  0  0  0
 16 18  2  0  0  0  0
 14 19  1  0  0  0  0
 19 20  1  0  0  0  0
 20 21  1  0  0  0  0
 21 22  1  0  0  0  0
 22 23  1  0  0  0  0
 23 24  1  0  0  0  0
 23 25  2  0  0  0  0
 12 26  2  0  0  0  0
 10 27  1  0  0  0  0
 27 28  1  0  0  0  0
  8 29  2  0  0  0  0
  6 30  1  0  0  0  0
 30 31  1  0  0  0  0
 31 36  2  0  0  0  0
 31 32  1  0  0  0  0
 32 33  2  0  0  0  0
 33 34  1  0  0  0  0
 34 35  2  0  0  0  0
 35 36  1  0  0  0  0
  4 37  2  0  0  0  0
  2 38  1  0  0  0  0
 38 39  1  0  0  0  0
M  END
$$$$
SAL-INS-68b-12
  -OEChem-03222016562D

 42 42  0     1  0  0  0  0  0999 V2000
    2.2427    4.5967    0.0000 N   0  0  0  0  0  0  0  0  0  0  0  0
    2.2456    5.5967    0.0000 C   0  0  0  0  0  0  0  0  0  0  0  0
    1.3811    6.0993    0.0000 C   0  0  0  0  0  0  0  0  0  0  0  0
    3.1131    6.0942    0.0000 O   0  0  0  0  0  0  0  0  0  0  0  0
    3.1072    4.0942    0.0000 C   0  0  1  0  0  0  0  0  0  0  0  0
    3.9718    3.5916    0.0000 H   0  0  0  0  0  0  0  0  0  0  0  0
    3.6098    4.9587    0.0000 C   0  0  0  0  0  0  0  0  0  0  0  0
    4.6098    4.9558    0.0000 O   0  0  0  0  0  0  0  0  0  0  0  0
    2.6047    3.2296    0.0000 C   0  0  0  0  0  0  0  0  0  0  0  0
    1.6047    3.2326    0.0000 O   0  0  0  0  0  0  0  0  0  0  0  0
    3.1021    2.3621    0.0000 N   0  0  0  0  0  0  0  0  0  0  0  0
    2.5995    1.4976    0.0000 C   0  0  1  0  0  0  0  0  0  0  0  0
    2.0970    0.6330    0.0000 H   0  0  0  0  0  0  0  0  0  0  0  0
    1.7350    2.0001    0.0000 C   0  0  0  0  0  0  0  0  0  0  0  0
    0.8675    1.5027    0.0000 C   0  0  0  0  0  0  0  0  0  0  0  0
    0.8675    0.4975    0.0000 C   0  0  0  0  0  0  0  0  0  0  0  0
    0.0000    0.0000    0.0000 C   0  0  0  0  0  0  0  0  0  0  0  0
   -0.8675    0.4975    0.0000 C   0  0  0  0  0  0  0  0  0  0  0  0
   -0.8675    1.5027    0.0000 C   0  0  0  0  0  0  0  0  0  0  0  0
    0.0000    2.0104    0.0000 C   0  0  0  0  0  0  0  0  0  0  0  0
    3.4641    0.9950    0.0000 C   0  0  0  0  0  0  0  0  0  0  0  0
    3.4611   -0.0050    0.0000 O   0  0  0  0  0  0  0  0  0  0  0  0
    4.3316    1.4925    0.0000 N   0  0  0  0  0  0  0  0  0  0  0  0
    5.1961    0.9899    0.0000 C   0  0  2  0  0  0  0  0  0  0  0  0
    6.0607    0.4874    0.0000 H   0  0  0  0  0  0  0  0  0  0  0  0
    4.6936    0.1254    0.0000 C   0  0  0  0  0  0  0  0  0  0  0  0
    5.1910   -0.7421    0.0000 O   0  0  0  0  0  0  0  0  0  0  0  0
    5.6987    1.8545    0.0000 C   0  0  0  0  0  0  0  0  0  0  0  0
    5.2012    2.7220    0.0000 O   0  0  0  0  0  0  0  0  0  0  0  0
    6.6987    1.8515    0.0000 N   0  0  0  0  0  0  0  0  0  0  0  0
    7.2012    2.7161    0.0000 C   0  0  1  0  0  0  0  0  0  0  0  0
    6.3367    3.2186    0.0000 H   0  0  0  0  0  0  0  0  0  0  0  0
    8.0658    2.2135    0.0000 C   0  0  0  0  0  0  0  0  0  0  0  0
    8.0628    1.2135    0.0000 C   0  0  0  0  0  0  0  0  0  0  0  0
    8.9274    0.7110    0.0000 C   0  0  0  0  0  0  0  0  0  0  0  0
    8.9244   -0.2890    0.0000 N   0  0  0  0  0  0  0  0  0  0  0  0
    9.7890   -0.7916    0.0000 C   0  0  0  0  0  0  0  0  0  0  0  0
   10.6565   -0.2941    0.0000 O   0  0  0  0  0  0  0  0  0  0  0  0
    9.7860   -1.7916    0.0000 N   0  0  0  0  0  0  0  0  0  0  0  0
    7.7038    3.5806    0.0000 C   0  0  0  0  0  0  0  0  0  0  0  0
    7.2063    4.4481    0.0000 O   0  0  0  0  0  0  0  0  0  0  0  0
    8.7038    3.5777    0.0000 N   0  0  0  0  0  0  0  0  0  0  0  0
  1  2  1  0  0  0  0
  2  3  1  0  0  0  0
  2  4  2  0  0  0  0
  1  5  1  0  0  0  0
  5  6  1  6  0  0  0
  5  7  1  0  0  0  0
  7  8  1  0  0  0  0
  5  9  1  0  0  0  0
  9 10  2  0  0  0  0
  9 11  1  0  0  0  0
 11 12  1  0  0  0  0
 12 13  1  1  0  0  0
 12 14  1  0  0  0  0
 14 15  1  0  0  0  0
 15 20  2  0  0  0  0
 15 16  1  0  0  0  0
 16 17  2  0  0  0  0
 17 18  1  0  0  0  0
 18 19  2  0  0  0  0
 19 20  1  0  0  0  0
 12 21  1  0  0  0  0
 21 22  2  0  0  0  0
 21 23  1  0  0  0  0
 23 24  1  0  0  0  0
 24 25  1  6  0  0  0
 24 26  1  0  0  0  0
 26 27  1  0  0  0  0
 24 28  1  0  0  0  0
 28 29  2  0  0  0  0
 28 30  1  0  0  0  0
 30 31  1  0  0  0  0
 31 32  1  1  0  0  0
 31 33  1  0  0  0  0
 33 34  1  0  0  0  0
 34 35  1  0  0  0  0
 35 36  1  0  0  0  0
 36 37  1  0  0  0  0
 37 38  2  0  0  0  0
 37 39  1  0  0  0  0
 31 40  1  0  0  0  0
 40 41  2  0  0  0  0
 40 42  1  0  0  0  0
M  END
$$$$
AGN-NEW-63f-1
  -OEChem-03222016562D

 27 29  0     1  0  0  0  0  0999 V2000
    3.4745   -3.0025    0.0000 C   0  0  0  0  0  0  0  0  0  0  0  0
    3.4701   -2.0025    0.0000 C   0  0  0  0  0  0  0  0  0  0  0  0
    4.3398   -1.4986    0.0000 C   0  0  0  0  0  0  0  0  0  0  0  0
    4.3354   -0.4986    0.0000 C   0  0  0  0  0  0  0  0  0  0  0  0
    5.2007    0.0027    0.0000 Cl  0  0  0  0  0  0  0  0  0  0  0  0
    3.4701    0.0027    0.0000 C   0  0  0  0  0  0  0  0  0  0  0  0
    2.6003   -0.5013    0.0000 C   0  0  0  0  0  0  0  0  0  0  0  0
    1.7350    0.0000    0.0000 N   0  0  0  0  0  0  0  0  0  0  0  0
    1.7350    1.0052    0.0000 C   0  0  0  0  0  0  0  0  0  0  0  0
    2.6025    1.5026    0.0000 O   0  0  0  0  0  0  0  0  0  0  0  0
    0.8675    1.5129    0.0000 N   0  0  0  0  0  0  0  0  0  0  0  0
    0.8675    2.5129    0.0000 C   0  0  0  0  0  0  0  0  0  0  0  0
    1.7373    3.0168    0.0000 C   0  0  0  0  0  0  0  0  0  0  0  0
    1.7418    4.0219    0.0000 N   0  0  0  0  0  0  0  0  0  0  0  0
    0.8676    4.5181    0.0000 C   0  0  0  0  0  0  0  0  0  0  0  0
   -0.0022    4.0142    0.0000 C   0  0  0  0  0  0  0  0  0  0  0  0
    0.0022    3.0142    0.0000 C   0  0  0  0  0  0  0  0  0  0  0  0
   -0.8631    2.5129    0.0000 C   0  0  0  0  0  0  0  0  0  0  0  0
    0.0000    1.0052    0.0000 C   0  0  0  0  0  0  0  0  0  0  0  0
    0.0000    0.0000    0.0000 C   0  0  3  0  0  0  0  0  0  0  0  0
   -0.8653   -0.5013    0.0000 N   0  0  0  0  0  0  0  0  0  0  0  0
   -0.8638   -1.5013    0.0000 C   0  0  0  0  0  0  0  0  0  0  0  0
   -1.7291   -2.0025    0.0000 C   0  0  0  0  0  0  0  0  0  0  0  0
   -1.7277   -3.0025    0.0000 C   0  0  0  0  0  0  0  0  0  0  0  0
    0.0029   -2.0000    0.0000 O   0  0  0  0  0  0  0  0  0  0  0  0
    0.8675   -0.4975    0.0000 C   0  0  0  0  0  0  0  0  0  0  0  0
    2.5959   -1.5064    0.0000 C   0  0  0  0  0  0  0  0  0  0  0  0
  1  2  1  0  0  0  0
  2 27  2  0  0  0  0
  2  3  1  0  0  0  0
  3  4  2  0  0  0  0
  4  5  1  0  0  0  0
  4  6  1  0  0  0  0
  6  7  2  0  0  0  0
  7  8  1  0  0  0  0
  8 26  1  0  0  0  0
  8  9  1  0  0  0  0
  9 10  2  0  0  0  0
  9 11  1  0  0  0  0
 11 12  1  0  0  0  0
 12 17  2  0  0  0  0
 12 13  1  0  0  0  0
 13 14  2  0  0  0  0
 14 15  1  0  0  0  0
 15 16  2  0  0  0  0
 16 17  1  0  0  0  0
 17 18  1  0  0  0  0
 11 19  1  0  0  0  0
 19 20  1  0  0  0  0
 20 21  1  0  0  0  0
 21 22  1  0  0  0  0
 22 23  1  0  0  0  0
 23 24  2  0  0  0  0
 22 25  2  0  0  0  0
 20 26  1  0  0  0  0
  7 27  1  0  0  0  0
M  END
$$$$
AGN-NEW-63f-2
  -OEChem-03222016562D

 27 29  0     1  0  0  0  0  0999 V2000
    3.4745   -3.0025    0.0000 C   0  0  0  0  0  0  0  0  0  0  0  0
    3.4701   -2.0025    0.0000 C   0  0  0  0  0  0  0  0  0  0  0  0
    4.3398   -1.4986    0.0000 C   0  0  0  0  0  0  0  0  0  0  0  0
    4.3354   -0.4986    0.0000 C   0  0  0  0  0  0  0  0  0  0  0  0
    5.2007    0.0027    0.0000 F   0  0  0  0  0  0  0  0  0  0  0  0
    3.4701    0.0027    0.0000 C   0  0  0  0  0  0  0  0  0  0  0  0
    2.6003   -0.5013    0.0000 C   0  0  0  0  0  0  0  0  0  0  0  0
    1.7350    0.0000    0.0000 N   0  0  0  0  0  0  0  0  0  0  0  0
    1.7350    1.0052    0.0000 C   0  0  0  0  0  0  0  0  0  0  0  0
    2.6025    1.5026    0.0000 O   0  0  0  0  0  0  0  0  0  0  0  0
    0.8675    1.5129    0.0000 N   0  0  0  0  0  0  0  0  0  0  0  0
    0.8675    2.5129    0.0000 C   0  0  0  0  0  0  0  0  0  0  0  0
    1.7373    3.0168    0.0000 C   0  0  0  0  0  0  0  0  0  0  0  0
    1.7418    4.0219    0.0000 N   0  0  0  0  0  0  0  0  0  0  0  0
    0.8676    4.5181    0.0000 C   0  0  0  0  0  0  0  0  0  0  0  0
   -0.0022    4.0142    0.0000 C   0  0  0  0  0  0  0  0  0  0  0  0
    0.0022    3.0142    0.0000 C   0  0  0  0  0  0  0  0  0  0  0  0
   -0.8631    2.5129    0.0000 C   0  0  0  0  0  0  0  0  0  0  0  0
    0.0000    1.0052    0.0000 C   0  0  0  0  0  0  0  0  0  0  0  0
    0.0000    0.0000    0.0000 C   0  0  3  0  0  0  0  0  0  0  0  0
   -0.8653   -0.5013    0.0000 N   0  0  0  0  0  0  0  0  0  0  0  0
   -0.8638   -1.5013    0.0000 C   0  0  0  0  0  0  0  0  0  0  0  0
   -1.7291   -2.0025    0.0000 C   0  0  0  0  0  0  0  0  0  0  0  0
   -1.7277   -3.0025    0.0000 C   0  0  0  0  0  0  0  0  0  0  0  0
    0.0029   -2.0000    0.0000 O   0  0  0  0  0  0  0  0  0  0  0  0
    0.8675   -0.4975    0.0000 C   0  0  0  0  0  0  0  0  0  0  0  0
    2.5959   -1.5064    0.0000 C   0  0  0  0  0  0  0  0  0  0  0  0
  1  2  1  0  0  0  0
  2 27  2  0  0  0  0
  2  3  1  0  0  0  0
  3  4  2  0  0  0  0
  4  5  1  0  0  0  0
  4  6  1  0  0  0  0
  6  7  2  0  0  0  0
  7  8  1  0  0  0  0
  8 26  1  0  0  0  0
  8  9  1  0  0  0  0
  9 10  2  0  0  0  0
  9 11  1  0  0  0  0
 11 12  1  0  0  0  0
 12 17  2  0  0  0  0
 12 13  1  0  0  0  0
 13 14  2  0  0  0  0
 14 15  1  0  0  0  0
 15 16  2  0  0  0  0
 16 17  1  0  0  0  0
 17 18  1  0  0  0  0
 11 19  1  0  0  0  0
 19 20  1  0  0  0  0
 20 21  1  0  0  0  0
 21 22  1  0  0  0  0
 22 23  1  0  0  0  0
 23 24  2  0  0  0  0
 22 25  2  0  0  0  0
 20 26  1  0  0  0  0
  7 27  1  0  0  0  0
M  END
$$$$
HAN-NEW-5f5-1
  -OEChem-03222016562D

 17 18  0     0  0  0  0  0  0999 V2000
   -1.7335    0.9975    0.0000 O   0  0  0  0  0  0  0  0  0  0  0  0
   -1.7320   -0.0025    0.0000 C   0  0  0  0  0  0  0  0  0  0  0  0
   -0.8653   -0.5013    0.0000 N   0  0  0  0  0  0  0  0  0  0  0  0
    0.0000    0.0000    0.0000 C   0  0  0  0  0  0  0  0  0  0  0  0
    0.8675   -0.4975    0.0000 C   0  0  0  0  0  0  0  0  0  0  0  0
    0.8675   -1.4975    0.0000 C   0  0  0  0  0  0  0  0  0  0  0  0
    1.7350    0.0000    0.0000 N   0  0  0  0  0  0  0  0  0  0  0  0
    1.7350    1.0052    0.0000 C   0  0  0  0  0  0  0  0  0  0  0  0
    0.8675    1.5129    0.0000 N   0  0  0  0  0  0  0  0  0  0  0  0
    0.0000    1.0052    0.0000 C   0  0  0  0  0  0  0  0  0  0  0  0
   -2.5973   -0.5038    0.0000 N   0  0  0  0  0  0  0  0  0  0  0  0
   -3.4641   -0.0050    0.0000 C   0  0  0  0  0  0  0  0  0  0  0  0
   -4.3324   -0.5115    0.0000 C   0  0  0  0  0  0  0  0  0  0  0  0
   -5.1992   -0.0127    0.0000 C   0  0  0  0  0  0  0  0  0  0  0  0
   -5.2065    0.9873    0.0000 C   0  0  0  0  0  0  0  0  0  0  0  0
   -4.3382    1.4937    0.0000 C   0  0  0  0  0  0  0  0  0  0  0  0
   -3.4626    1.0001    0.0000 C   0  0  0  0  0  0  0  0  0  0  0  0
  1  2  2  0  0  0  0
  2  3  1  0  0  0  0
  3  4  1  0  0  0  0
  4 10  1  0  0  0  0
  4  5  2  0  0  0  0
  5  6  1  0  0  0  0
  5  7  1  0  0  0  0
  7  8  2  0  0  0  0
  8  9  1  0  0  0  0
  9 10  2  0  0  0  0
  2 11  1  0  0  0  0
 11 12  1  0  0  0  0
 12 17  1  0  0  0  0
 12 13  2  0  0  0  0
 13 14  1  0  0  0  0
 14 15  2  0  0  0  0
 15 16  1  0  0  0  0
 16 17  2  0  0  0  0
M  END
$$$$
HAN-NEW-5f5-2
  -OEChem-03222016562D

 23 24  0     0  0  0  0  0  0999 V2000
   -0.8653   -0.5013    0.0000 C   0  0  0  0  0  0  0  0  0  0  0  0
    0.0000    0.0000    0.0000 C   0  0  0  0  0  0  0  0  0  0  0  0
    0.0000    1.0058    0.0000 C   0  0  0  0  0  0  0  0  0  0  0  0
    0.8680    1.5138    0.0000 C   0  0  0  0  0  0  0  0  0  0  0  0
    0.8680    2.5138    0.0000 C   0  0  0  0  0  0  0  0  0  0  0  0
    0.0020    3.0138    0.0000 C   0  0  0  0  0  0  0  0  0  0  0  0
    0.0020    4.0138    0.0000 N   0  0  0  0  0  0  0  0  0  0  0  0
   -0.8640    4.5138    0.0000 S   0  0  0  0  0  0  0  0  0  0  0  0
   -1.3641    3.6478    0.0000 O   0  0  0  0  0  0  0  0  0  0  0  0
   -1.7301    5.0138    0.0000 C   0  0  0  0  0  0  0  0  0  0  0  0
   -0.3640    5.3798    0.0000 O   0  0  0  0  0  0  0  0  0  0  0  0
    0.8680   -0.4978    0.0000 C   0  0  0  0  0  0  0  0  0  0  0  0
    1.7360   -0.0012    0.0000 C   0  0  0  0  0  0  0  0  0  0  0  0
    1.7360    1.0058    0.0000 C   0  0  0  0  0  0  0  0  0  0  0  0
    2.6938    1.3169    0.0000 N   0  0  0  0  0  0  0  0  0  0  0  0
    3.2858    0.5023    0.0000 C   0  0  0  0  0  0  0  0  0  0  0  0
    2.6938   -0.3125    0.0000 C   0  0  0  0  0  0  0  0  0  0  0  0
    3.0028   -1.2636    0.0000 C   0  0  0  0  0  0  0  0  0  0  0  0
    3.9809   -1.4715    0.0000 C   0  0  0  0  0  0  0  0  0  0  0  0
    4.2899   -2.4226    0.0000 N   0  0  0  0  0  0  0  0  0  0  0  0
    5.2680   -2.6306    0.0000 C   0  0  0  0  0  0  0  0  0  0  0  0
    5.5770   -3.5816    0.0000 C   0  0  0  0  0  0  0  0  0  0  0  0
    5.9372   -1.8875    0.0000 O   0  0  0  0  0  0  0  0  0  0  0  0
  1  2  1  0  0  0  0
  2  3  1  0  0  0  0
  3  4  2  0  0  0  0
  4 14  1  0  0  0  0
  4  5  1  0  0  0  0
  5  6  1  0  0  0  0
  6  7  1  0  0  0  0
  7  8  1  0  0  0  0
  8  9  2  0  0  0  0
  8 10  1  0  0  0  0
  8 11  2  0  0  0  0
  2 12  2  0  0  0  0
 12 13  1  0  0  0  0
 13 17  1  0  0  0  0
 13 14  2  0  0  0  0
 14 15  1  0  0  0  0
 15 16  1  0  0  0  0
 16 17  2  0  0  0  0
 17 18  1  0  0  0  0
 18 19  1  0  0  0  0
 19 20  1  0  0  0  0
 20 21  1  0  0  0  0
 21 22  1  0  0  0  0
 21 23  2  0  0  0  0
M  END
$$$$
HAN-NEW-5f5-3
  -OEChem-03222016562D

 28 30  0     0  0  0  0  0  0999 V2000
    3.4648   -0.0063    0.0000 O   0  0  0  0  0  0  0  0  0  0  0  0
    2.5995    0.4950    0.0000 C   0  0  0  0  0  0  0  0  0  0  0  0
    1.7328   -0.0038    0.0000 N   0  0  0  0  0  0  0  0  0  0  0  0
    0.8675    0.4975    0.0000 C   0  0  0  0  0  0  0  0  0  0  0  0
    0.8675    1.5027    0.0000 C   0  0  0  0  0  0  0  0  0  0  0  0
   -0.0000    2.0104    0.0000 N   0  0  0  0  0  0  0  0  0  0  0  0
   -0.8675    1.5027    0.0000 C   0  0  0  0  0  0  0  0  0  0  0  0
   -0.8675    0.4975    0.0000 C   0  0  0  0  0  0  0  0  0  0  0  0
    0.0000    0.0000    0.0000 C   0  0  0  0  0  0  0  0  0  0  0  0
    0.0000   -1.0000    0.0000 C   0  0  0  0  0  0  0  0  0  0  0  0
    0.8660   -1.5000    0.0000 C   0  0  0  0  0  0  0  0  0  0  0  0
    0.8660   -2.5000    0.0000 N   0  0  0  0  0  0  0  0  0  0  0  0
    1.7321   -3.0000    0.0000 C   0  0  0  0  0  0  0  0  0  0  0  0
    1.7321   -4.0000    0.0000 N   0  0  0  0  0  0  0  0  0  0  0  0
    2.5981   -4.5000    0.0000 C   0  0  0  0  0  0  0  0  0  0  0  0
    3.4671   -3.9948    0.0000 C   0  0  0  0  0  0  0  0  0  0  0  0
    4.3332   -4.4948    0.0000 C   0  0  0  0  0  0  0  0  0  0  0  0
    4.3390   -5.4948    0.0000 C   0  0  0  0  0  0  0  0  0  0  0  0
    3.4700   -6.0000    0.0000 C   0  0  0  0  0  0  0  0  0  0  0  0
    2.5951   -5.5051    0.0000 C   0  0  0  0  0  0  0  0  0  0  0  0
    2.5981   -2.5000    0.0000 O   0  0  0  0  0  0  0  0  0  0  0  0
    2.6010    1.4950    0.0000 N   0  0  0  0  0  0  0  0  0  0  0  0
    3.4677    1.9937    0.0000 C   0  0  0  0  0  0  0  0  0  0  0  0
    3.4662    2.9989    0.0000 C   0  0  0  0  0  0  0  0  0  0  0  0
    4.3330    3.4977    0.0000 C   0  0  0  0  0  0  0  0  0  0  0  0
    5.2012    3.0015    0.0000 C   0  0  0  0  0  0  0  0  0  0  0  0
    5.2027    1.9963    0.0000 C   0  0  0  0  0  0  0  0  0  0  0  0
    4.3360    1.4873    0.0000 C   0  0  0  0  0  0  0  0  0  0  0  0
  1  2  2  0  0  0  0
  2  3  1  0  0  0  0
  3  4  1  0  0  0  0
  4  9  1  0  0  0  0
  4  5  2  0  0  0  0
  5  6  1  0  0  0  0
  6  7  2  0  0  0  0
  7  8  1  0  0  0  0
  8  9  2  0  0  0  0
  9 10  1  0  0  0  0
 10 11  1  0  0  0  0
 11 12  1  0  0  0  0
 12 13  1  0  0  0  0
 13 14  1  0  0  0  0
 14 15  1  0  0  0  0
 15 20  1  0  0  0  0
 15 16  1  0  0  0  0
 16 17  1  0  0  0  0
 17 18  1  0  0  0  0
 18 19  1  0  0  0  0
 19 20  1  0  0  0  0
 13 21  2  0  0  0  0
  2 22  1  0  0  0  0
 22 23  1  0  0  0  0
 23 28  1  0  0  0  0
 23 24  2  0  0  0  0
 24 25  1  0  0  0  0
 25 26  2  0  0  0  0
 26 27  1  0  0  0  0
 27 28  2  0  0  0  0
M  END
$$$$
HAN-NEW-5f5-4
  -OEChem-03222016562D

 31 33  0     1  0  0  0  0  0999 V2000
    2.5927    7.5165    0.0000 O   0  0  0  0  0  0  0  0  0  0  0  0
    3.4602    7.0190    0.0000 C   0  0  0  0  0  0  0  0  0  0  0  0
    4.3247    7.5216    0.0000 C   0  0  0  0  0  0  0  0  0  0  0  0
    4.3218    8.5216    0.0000 Cl  0  0  0  0  0  0  0  0  0  0  0  0
    3.4631    6.0191    0.0000 N   0  0  0  0  0  0  0  0  0  0  0  0
    2.5971    5.5190    0.0000 C   0  0  0  0  0  0  0  0  0  0  0  0
    2.6001    4.5138    0.0000 C   0  0  3  0  0  0  0  0  0  0  0  0
    1.7340    4.0138    0.0000 C   0  0  0  0  0  0  0  0  0  0  0  0
    1.7340    3.0138    0.0000 C   0  0  0  0  0  0  0  0  0  0  0  0
    0.8680    2.5138    0.0000 C   0  0  0  0  0  0  0  0  0  0  0  0
    0.8680    1.5138    0.0000 C   0  0  0  0  0  0  0  0  0  0  0  0
    1.7360    1.0058    0.0000 C   0  0  0  0  0  0  0  0  0  0  0  0
    2.6938    1.3169    0.0000 N   0  0  0  0  0  0  0  0  0  0  0  0
    3.2858    0.5023    0.0000 C   0  0  0  0  0  0  0  0  0  0  0  0
    2.6938   -0.3125    0.0000 C   0  0  0  0  0  0  0  0  0  0  0  0
    3.0028   -1.2636    0.0000 C   0  0  0  0  0  0  0  0  0  0  0  0
    3.9809   -1.4715    0.0000 C   0  0  0  0  0  0  0  0  0  0  0  0
    4.2899   -2.4226    0.0000 N   0  0  0  0  0  0  0  0  0  0  0  0
    5.2680   -2.6306    0.0000 C   0  0  0  0  0  0  0  0  0  0  0  0
    5.5770   -3.5816    0.0000 C   0  0  0  0  0  0  0  0  0  0  0  0
    5.9372   -1.8874    0.0000 O   0  0  0  0  0  0  0  0  0  0  0  0
    1.7360   -0.0012    0.0000 C   0  0  0  0  0  0  0  0  0  0  0  0
    0.8680   -0.4978    0.0000 C   0  0  0  0  0  0  0  0  0  0  0  0
    0.0000    0.0000    0.0000 C   0  0  0  0  0  0  0  0  0  0  0  0
   -0.0000    1.0058    0.0000 C   0  0  0  0  0  0  0  0  0  0  0  0
    3.4690    4.0087    0.0000 N   0  0  0  0  0  0  0  0  0  0  0  0
    3.4720    3.0087    0.0000 C   0  0  0  0  0  0  0  0  0  0  0  0
    4.3395    2.5112    0.0000 C   0  0  0  0  0  0  0  0  0  0  0  0
    2.6074    2.5061    0.0000 O   0  0  0  0  0  0  0  0  0  0  0  0
    4.3350    4.5189    0.0000 C   0  0  0  0  0  0  0  0  0  0  0  0
    4.3321    5.5241    0.0000 C   0  0  0  0  0  0  0  0  0  0  0  0
  1  2  2  0  0  0  0
  2  3  1  0  0  0  0
  3  4  1  0  0  0  0
  2  5  1  0  0  0  0
  5 31  1  0  0  0  0
  5  6  1  0  0  0  0
  6  7  1  0  0  0  0
  7  8  1  0  0  0  0
  8  9  1  0  0  0  0
  9 10  1  0  0  0  0
 10 11  1  0  0  0  0
 11 25  1  0  0  0  0
 11 12  2  0  0  0  0
 12 13  1  0  0  0  0
 13 14  1  0  0  0  0
 14 15  2  0  0  0  0
 15 22  1  0  0  0  0
 15 16  1  0  0  0  0
 16 17  1  0  0  0  0
 17 18  1  0  0  0  0
 18 19  1  0  0  0  0
 19 20  1  0  0  0  0
 19 21  2  0  0  0  0
 12 22  1  0  0  0  0
 22 23  2  0  0  0  0
 23 24  1  0  0  0  0
 24 25  2  0  0  0  0
  7 26  1  0  0  0  0
 26 27  1  0  0  0  0
 27 28  1  0  0  0  0
 27 29  2  0  0  0  0
 26 30  1  0  0  0  0
 30 31  1  0  0  0  0
M  END
$$$$
HAN-NEW-5f5-5
  -OEChem-03222016562D

 31 33  0     1  0  0  0  0  0999 V2000
    2.6010    1.4950    0.0000 O   0  0  0  0  0  0  0  0  0  0  0  0
    2.5995    0.4950    0.0000 C   0  0  0  0  0  0  0  0  0  0  0  0
    3.4648   -0.0063    0.0000 C   0  0  0  0  0  0  0  0  0  0  0  0
    1.7328   -0.0038    0.0000 N   0  0  0  0  0  0  0  0  0  0  0  0
    1.7313   -1.0038    0.0000 C   0  0  0  0  0  0  0  0  0  0  0  0
    2.5966   -1.5050    0.0000 C   0  0  0  0  0  0  0  0  0  0  0  0
    2.5952   -2.5050    0.0000 C   0  0  0  0  0  0  0  0  0  0  0  0
    3.4605   -3.0063    0.0000 C   0  0  0  0  0  0  0  0  0  0  0  0
    3.4590   -4.0063    0.0000 N   0  0  0  0  0  0  0  0  0  0  0  0
    4.3243   -4.5075    0.0000 C   0  0  0  0  0  0  0  0  0  0  0  0
    5.1941   -4.0036    0.0000 C   0  0  0  0  0  0  0  0  0  0  0  0
    6.0595   -4.5048    0.0000 C   0  0  0  0  0  0  0  0  0  0  0  0
    6.0639   -5.5049    0.0000 C   0  0  0  0  0  0  0  0  0  0  0  0
    6.9314   -6.0023    0.0000 C   0  0  0  0  0  0  0  0  0  0  0  0
    5.1941   -6.0088    0.0000 C   0  0  0  0  0  0  0  0  0  0  0  0
    4.3199   -5.5127    0.0000 C   0  0  0  0  0  0  0  0  0  0  0  0
    2.5923   -4.5050    0.0000 C   0  0  3  0  0  0  0  0  0  0  0  0
    2.4873   -5.5010    0.0000 C   0  0  0  0  0  0  0  0  0  0  0  0
    1.5086   -5.7061    0.0000 C   0  0  0  0  0  0  0  0  0  0  0  0
    1.0055   -4.8413    0.0000 S   0  0  0  0  0  0  0  0  0  0  0  0
    1.6783   -4.0952    0.0000 C   0  0  0  0  0  0  0  0  0  0  0  0
    0.1976   -5.4306    0.0000 O   0  0  0  0  0  0  0  0  0  0  0  0
    0.3359   -4.0985    0.0000 O   0  0  0  0  0  0  0  0  0  0  0  0
    4.3272   -2.5075    0.0000 O   0  0  0  0  0  0  0  0  0  0  0  0
    0.8675    0.4975    0.0000 C   0  0  0  0  0  0  0  0  0  0  0  0
    0.0000    0.0000    0.0000 C   0  0  0  0  0  0  0  0  0  0  0  0
   -0.0000   -1.0000    0.0000 C   0  0  0  0  0  0  0  0  0  0  0  0
   -0.8675    0.4975    0.0000 C   0  0  0  0  0  0  0  0  0  0  0  0
   -0.8675    1.5027    0.0000 C   0  0  0  0  0  0  0  0  0  0  0  0
    0.0000    2.0104    0.0000 N   0  0  0  0  0  0  0  0  0  0  0  0
    0.8675    1.5027    0.0000 C   0  0  0  0  0  0  0  0  0  0  0  0
  1  2  2  0  0  0  0
  2  3  1  0  0  0  0
  2  4  1  0  0  0  0
  4  5  1  0  0  0  0
  5  6  1  0  0  0  0
  6  7  1  0  0  0  0
  7  8  1  0  0  0  0
  8  9  1  0  0  0  0
  9 10  1  0  0  0  0
 10 16  1  0  0  0  0
 10 11  2  0  0  0  0
 11 12  1  0  0  0  0
 12 13  2  0  0  0  0
 13 14  1  0  0  0  0
 13 15  1  0  0  0  0
 15 16  2  0  0  0  0
  9 17  1  0  0  0  0
 17 21  1  0  0  0  0
 17 18  1  0  0  0  0
 18 19  2  0  0  0  0
 19 20  1  0  0  0  0
 20 21  1  0  0  0  0
 20 22  2  0  0  0  0
 20 23  2  0  0  0  0
  8 24  2  0  0  0  0
  4 25  1  0  0  0  0
 25 31  1  0  0  0  0
 25 26  2  0  0  0  0
 26 27  1  0  0  0  0
 26 28  1  0  0  0  0
 28 29  2  0  0  0  0
 29 30  1  0  0  0  0
 30 31  2  0  0  0  0
M  END
$$$$
AGN-NEW-5f0-1
  -OEChem-03222016562D

 37 40  0     0  0  0  0  0  0999 V2000
    0.0000   -1.0000    0.0000 C   0  0  0  0  0  0  0  0  0  0  0  0
    0.0000    0.0000    0.0000 C   0  0  0  0  0  0  0  0  0  0  0  0
    0.8675    0.4975    0.0000 C   0  0  0  0  0  0  0  0  0  0  0  0
    0.8675    1.5027    0.0000 C   0  0  0  0  0  0  0  0  0  0  0  0
    1.7350    2.0001    0.0000 N   0  0  0  0  0  0  0  0  0  0  0  0
    1.7379    3.0001    0.0000 C   0  0  0  0  0  0  0  0  0  0  0  0
    0.8734    3.5027    0.0000 N   0  0  0  0  0  0  0  0  0  0  0  0
    0.8764    4.5027    0.0000 C   0  0  0  0  0  0  0  0  0  0  0  0
    1.7476    5.0040    0.0000 C   0  0  0  0  0  0  0  0  0  0  0  0
    2.6114    4.5001    0.0000 C   0  0  0  0  0  0  0  0  0  0  0  0
    1.7551    6.0091    0.0000 N   0  0  0  0  0  0  0  0  0  0  0  0
    0.8824    6.5078    0.0000 C   0  0  0  0  0  0  0  0  0  0  0  0
    0.0111    6.0065    0.0000 C   0  0  0  0  0  0  0  0  0  0  0  0
   -0.8549    6.5066    0.0000 C   0  0  0  0  0  0  0  0  0  0  0  0
    0.0125    5.0065    0.0000 C   0  0  0  0  0  0  0  0  0  0  0  0
   -0.8543    4.5078    0.0000 C   0  0  0  0  0  0  0  0  0  0  0  0
   -0.8558    3.5078    0.0000 C   0  0  0  0  0  0  0  0  0  0  0  0
   -1.7225    3.0091    0.0000 N   0  0  0  0  0  0  0  0  0  0  0  0
   -1.7211    2.0091    0.0000 C   0  0  0  0  0  0  0  0  0  0  0  0
   -2.5924    1.5078    0.0000 C   0  0  0  0  0  0  0  0  0  0  0  0
   -3.4651    2.0065    0.0000 O   0  0  0  0  0  0  0  0  0  0  0  0
   -3.4577    3.0116    0.0000 C   0  0  0  0  0  0  0  0  0  0  0  0
   -2.5864    3.5129    0.0000 C   0  0  0  0  0  0  0  0  0  0  0  0
    2.6054    3.4976    0.0000 O   0  0  0  0  0  0  0  0  0  0  0  0
    2.5995    1.4976    0.0000 C   0  0  0  0  0  0  0  0  0  0  0  0
    3.4670    1.9950    0.0000 C   0  0  0  0  0  0  0  0  0  0  0  0
    4.3316    1.4925    0.0000 C   0  0  0  0  0  0  0  0  0  0  0  0
    5.2982    1.7484    0.0000 C   0  0  0  0  0  0  0  0  0  0  0  0
    5.5541    0.7818    0.0000 N   0  0  0  0  0  0  0  0  0  0  0  0
    6.4187    0.2793    0.0000 C   0  0  0  0  0  0  0  0  0  0  0  0
    7.2862    0.7767    0.0000 C   0  0  0  0  0  0  0  0  0  0  0  0
    8.1507    0.2742    0.0000 C   0  0  0  0  0  0  0  0  0  0  0  0
    6.4157   -0.7207    0.0000 O   0  0  0  0  0  0  0  0  0  0  0  0
    4.5875    0.5259    0.0000 C   0  0  0  0  0  0  0  0  0  0  0  0
   -0.0000    2.0104    0.0000 N   0  0  0  0  0  0  0  0  0  0  0  0
   -0.8675    1.5027    0.0000 C   0  0  0  0  0  0  0  0  0  0  0  0
   -0.8675    0.4975    0.0000 C   0  0  0  0  0  0  0  0  0  0  0  0
  1  2  1  0  0  0  0
  2 37  2  0  0  0  0
  2  3  1  0  0  0  0
  3  4  2  0  0  0  0
  4  5  1  0  0  0  0
  5  6  1  0  0  0  0
  6  7  1  0  0  0  0
  7  8  1  0  0  0  0
  8 15  1  0  0  0  0
  8  9  2  0  0  0  0
  9 10  1  0  0  0  0
  9 11  1  0  0  0  0
 11 12  2  0  0  0  0
 12 13  1  0  0  0  0
 13 14  1  0  0  0  0
 13 15  2  0  0  0  0
 15 16  1  0  0  0  0
 16 17  1  0  0  0  0
 17 18  1  0  0  0  0
 18 23  1  0  0  0  0
 18 19  1  0  0  0  0
 19 20  1  0  0  0  0
 20 21  1  0  0  0  0
 21 22  1  0  0  0  0
 22 23  1  0  0  0  0
  6 24  2  0  0  0  0
  5 25  1  0  0  0  0
 25 26  1  0  0  0  0
 26 27  1  0  0  0  0
 27 34  1  0  0  0  0
 27 28  1  0  0  0  0
 28 29  1  0  0  0  0
 29 30  1  0  0  0  0
 30 31  1  0  0  0  0
 31 32  2  0  0  0  0
 30 33  2  0  0  0  0
 29 34  1  0  0  0  0
  4 35  1  0  0  0  0
 35 36  2  0  0  0  0
 36 37  1  0  0  0  0
M  END
$$$$
CHR-SOS-597-1
  -OEChem-03222016562D

 23 25  0     0  0  0  0  0  0999 V2000
    0.4405   -2.5314    0.0000 O   0  0  0  0  0  0  0  0  0  0  0  0
    0.1017   -1.5906    0.0000 C   0  0  0  0  0  0  0  0  0  0  0  0
    0.7471   -0.8267    0.0000 C   0  0  0  0  0  0  0  0  0  0  0  0
    1.7313   -1.0038    0.0000 C   0  0  0  0  0  0  0  0  0  0  0  0
    2.7212   -0.8287    0.0000 C   0  0  0  0  0  0  0  0  0  0  0  0
    3.3622   -1.5963    0.0000 C   0  0  0  0  0  0  0  0  0  0  0  0
    3.0233   -2.5372    0.0000 C   0  0  0  0  0  0  0  0  0  0  0  0
    2.0335   -2.7122    0.0000 C   0  0  0  0  0  0  0  0  0  0  0  0
    1.3825   -1.9464    0.0000 C   0  0  0  0  0  0  0  0  0  0  0  0
    1.7328   -0.0038    0.0000 C   0  0  0  0  0  0  0  0  0  0  0  0
    0.8675    0.4975    0.0000 C   0  0  0  0  0  0  0  0  0  0  0  0
    0.0000    0.0000    0.0000 C   0  0  0  0  0  0  0  0  0  0  0  0
   -0.8675    0.4975    0.0000 C   0  0  0  0  0  0  0  0  0  0  0  0
   -0.8675    1.5027    0.0000 C   0  0  0  0  0  0  0  0  0  0  0  0
    0.0000    2.0104    0.0000 N   0  0  0  0  0  0  0  0  0  0  0  0
    0.8675    1.5027    0.0000 C   0  0  0  0  0  0  0  0  0  0  0  0
   -0.8825   -1.4136    0.0000 N   0  0  0  0  0  0  0  0  0  0  0  0
   -1.5279   -2.1774    0.0000 C   0  0  0  0  0  0  0  0  0  0  0  0
   -2.5124   -2.0018    0.0000 C   0  0  0  0  0  0  0  0  0  0  0  0
   -3.1611   -2.7629    0.0000 C   0  0  0  0  0  0  0  0  0  0  0  0
   -2.8219   -3.7091    0.0000 C   0  0  0  0  0  0  0  0  0  0  0  0
   -1.8340   -3.8943    0.0000 N   0  0  0  0  0  0  0  0  0  0  0  0
   -1.1887   -3.1237    0.0000 C   0  0  0  0  0  0  0  0  0  0  0  0
  1  2  2  0  0  0  0
  2  3  1  0  0  0  0
  3  4  1  0  0  0  0
  4  9  1  0  0  0  0
  4  5  1  0  0  0  0
  5  6  1  0  0  0  0
  6  7  1  0  0  0  0
  7  8  1  0  0  0  0
  8  9  1  0  0  0  0
  4 10  1  0  0  0  0
 10 11  1  0  0  0  0
 11 16  1  0  0  0  0
 11 12  2  0  0  0  0
 12 13  1  0  0  0  0
 13 14  2  0  0  0  0
 14 15  1  0  0  0  0
 15 16  2  0  0  0  0
  2 17  1  0  0  0  0
 17 18  1  0  0  0  0
 18 23  1  0  0  0  0
 18 19  2  0  0  0  0
 19 20  1  0  0  0  0
 20 21  2  0  0  0  0
 21 22  1  0  0  0  0
 22 23  2  0  0  0  0
M  END
$$$$
CHR-SOS-597-2
  -OEChem-03222016562D

 23 25  0     0  0  0  0  0  0999 V2000
    2.6010    1.4950    0.0000 O   0  0  0  0  0  0  0  0  0  0  0  0
    2.5995    0.4950    0.0000 C   0  0  0  0  0  0  0  0  0  0  0  0
    3.4648   -0.0063    0.0000 C   0  0  0  0  0  0  0  0  0  0  0  0
    4.3316    0.4925    0.0000 C   0  0  0  0  0  0  0  0  0  0  0  0
    5.3225    0.6617    0.0000 C   0  0  0  0  0  0  0  0  0  0  0  0
    5.6668    1.6006    0.0000 C   0  0  0  0  0  0  0  0  0  0  0  0
    5.0304    2.3719    0.0000 C   0  0  0  0  0  0  0  0  0  0  0  0
    4.0395    2.2027    0.0000 C   0  0  0  0  0  0  0  0  0  0  0  0
    3.6851    1.2621    0.0000 C   0  0  0  0  0  0  0  0  0  0  0  0
    4.6704   -0.4484    0.0000 C   0  0  0  0  0  0  0  0  0  0  0  0
    4.0250   -1.2122    0.0000 C   0  0  0  0  0  0  0  0  0  0  0  0
    3.0362   -1.0314    0.0000 C   0  0  0  0  0  0  0  0  0  0  0  0
    2.3907   -1.7952    0.0000 C   0  0  0  0  0  0  0  0  0  0  0  0
    2.7241   -2.7381    0.0000 C   0  0  0  0  0  0  0  0  0  0  0  0
    3.7128   -2.9189    0.0000 C   0  0  0  0  0  0  0  0  0  0  0  0
    4.3683   -2.1569    0.0000 C   0  0  0  0  0  0  0  0  0  0  0  0
    1.7328   -0.0038    0.0000 N   0  0  0  0  0  0  0  0  0  0  0  0
    0.8675    0.4975    0.0000 C   0  0  0  0  0  0  0  0  0  0  0  0
    0.0000    0.0000    0.0000 C   0  0  0  0  0  0  0  0  0  0  0  0
   -0.8675    0.4975    0.0000 C   0  0  0  0  0  0  0  0  0  0  0  0
   -0.8675    1.5027    0.0000 C   0  0  0  0  0  0  0  0  0  0  0  0
    0.0000    2.0104    0.0000 N   0  0  0  0  0  0  0  0  0  0  0  0
    0.8675    1.5027    0.0000 C   0  0  0  0  0  0  0  0  0  0  0  0
  1  2  2  0  0  0  0
  2  3  1  0  0  0  0
  3  4  1  0  0  0  0
  4  9  1  0  0  0  0
  4  5  1  0  0  0  0
  5  6  1  0  0  0  0
  6  7  1  0  0  0  0
  7  8  1  0  0  0  0
  8  9  1  0  0  0  0
  4 10  1  0  0  0  0
 10 11  1  0  0  0  0
 11 16  1  0  0  0  0
 11 12  2  0  0  0  0
 12 13  1  0  0  0  0
 13 14  2  0  0  0  0
 14 15  1  0  0  0  0
 15 16  2  0  0  0  0
  2 17  1  0  0  0  0
 17 18  1  0  0  0  0
 18 23  1  0  0  0  0
 18 19  2  0  0  0  0
 19 20  1  0  0  0  0
 20 21  2  0  0  0  0
 21 22  1  0  0  0  0
 22 23  2  0  0  0  0
M  END
$$$$
CHR-SOS-597-3
  -OEChem-03222016562D

 23 25  0     0  0  0  0  0  0999 V2000
    2.6010    1.4950    0.0000 O   0  0  0  0  0  0  0  0  0  0  0  0
    2.5995    0.4950    0.0000 C   0  0  0  0  0  0  0  0  0  0  0  0
    3.4648   -0.0063    0.0000 C   0  0  0  0  0  0  0  0  0  0  0  0
    3.4634   -1.0063    0.0000 C   0  0  0  0  0  0  0  0  0  0  0  0
    3.8095   -1.9500    0.0000 C   0  0  0  0  0  0  0  0  0  0  0  0
    3.1664   -2.7158    0.0000 C   0  0  0  0  0  0  0  0  0  0  0  0
    2.1807   -2.5474    0.0000 C   0  0  0  0  0  0  0  0  0  0  0  0
    1.8345   -1.6037    0.0000 C   0  0  0  0  0  0  0  0  0  0  0  0
    2.4741   -0.8283    0.0000 C   0  0  0  0  0  0  0  0  0  0  0  0
    4.4481   -0.8321    0.0000 C   0  0  0  0  0  0  0  0  0  0  0  0
    4.7896    0.1078    0.0000 C   0  0  0  0  0  0  0  0  0  0  0  0
    5.7516    0.3809    0.0000 C   0  0  0  0  0  0  0  0  0  0  0  0
    5.7865    1.3818    0.0000 N   0  0  0  0  0  0  0  0  0  0  0  0
    4.8461    1.7266    0.0000 C   0  0  0  0  0  0  0  0  0  0  0  0
    4.5717    2.6882    0.0000 C   0  0  0  0  0  0  0  0  0  0  0  0
    4.2272    0.9351    0.0000 S   0  0  0  0  0  0  0  0  0  0  0  0
    1.7328   -0.0038    0.0000 N   0  0  0  0  0  0  0  0  0  0  0  0
    0.8675    0.4975    0.0000 C   0  0  0  0  0  0  0  0  0  0  0  0
    0.0000    0.0000    0.0000 C   0  0  0  0  0  0  0  0  0  0  0  0
   -0.8675    0.4975    0.0000 C   0  0  0  0  0  0  0  0  0  0  0  0
   -0.8675    1.5027    0.0000 C   0  0  0  0  0  0  0  0  0  0  0  0
    0.0000    2.0104    0.0000 N   0  0  0  0  0  0  0  0  0  0  0  0
    0.8675    1.5027    0.0000 C   0  0  0  0  0  0  0  0  0  0  0  0
  1  2  2  0  0  0  0
  2  3  1  0  0  0  0
  3  4  1  0  0  0  0
  4  9  1  0  0  0  0
  4  5  1  0  0  0  0
  5  6  1  0  0  0  0
  6  7  1  0  0  0  0
  7  8  1  0  0  0  0
  8  9  1  0  0  0  0
  4 10  1  0  0  0  0
 10 11  1  0  0  0  0
 11 16  1  0  0  0  0
 11 12  2  0  0  0  0
 12 13  1  0  0  0  0
 13 14  2  0  0  0  0
 14 15  1  0  0  0  0
 14 16  1  0  0  0  0
  2 17  1  0  0  0  0
 17 18  1  0  0  0  0
 18 23  1  0  0  0  0
 18 19  2  0  0  0  0
 19 20  1  0  0  0  0
 20 21  2  0  0  0  0
 21 22  1  0  0  0  0
 22 23  2  0  0  0  0
M  END
$$$$
CHR-SOS-597-4
  -OEChem-03222016562D

 22 24  0     0  0  0  0  0  0999 V2000
    2.6010    1.4950    0.0000 O   0  0  0  0  0  0  0  0  0  0  0  0
    2.5995    0.4950    0.0000 C   0  0  0  0  0  0  0  0  0  0  0  0
    3.4648   -0.0063    0.0000 C   0  0  0  0  0  0  0  0  0  0  0  0
    3.4634   -1.0063    0.0000 C   0  0  0  0  0  0  0  0  0  0  0  0
    3.6690   -1.9866    0.0000 C   0  0  0  0  0  0  0  0  0  0  0  0
    2.8015   -2.4869    0.0000 C   0  0  0  0  0  0  0  0  0  0  0  0
    2.0604   -1.8154    0.0000 C   0  0  0  0  0  0  0  0  0  0  0  0
    2.4645   -0.9005    0.0000 C   0  0  0  0  0  0  0  0  0  0  0  0
    4.4581   -0.9038    0.0000 C   0  0  0  0  0  0  0  0  0  0  0  0
    4.8668    0.0089    0.0000 C   0  0  0  0  0  0  0  0  0  0  0  0
    5.8460    0.2117    0.0000 C   0  0  0  0  0  0  0  0  0  0  0  0
    5.9532    1.2075    0.0000 N   0  0  0  0  0  0  0  0  0  0  0  0
    5.0402    1.6194    0.0000 C   0  0  0  0  0  0  0  0  0  0  0  0
    4.8361    2.5983    0.0000 C   0  0  0  0  0  0  0  0  0  0  0  0
    4.3657    0.8748    0.0000 S   0  0  0  0  0  0  0  0  0  0  0  0
    1.7328   -0.0038    0.0000 N   0  0  0  0  0  0  0  0  0  0  0  0
    0.8675    0.4975    0.0000 C   0  0  0  0  0  0  0  0  0  0  0  0
    0.0000    0.0000    0.0000 C   0  0  0  0  0  0  0  0  0  0  0  0
   -0.8675    0.4975    0.0000 C   0  0  0  0  0  0  0  0  0  0  0  0
   -0.8675    1.5027    0.0000 C   0  0  0  0  0  0  0  0  0  0  0  0
    0.0000    2.0104    0.0000 N   0  0  0  0  0  0  0  0  0  0  0  0
    0.8675    1.5027    0.0000 C   0  0  0  0  0  0  0  0  0  0  0  0
  1  2  2  0  0  0  0
  2  3  1  0  0  0  0
  3  4  1  0  0  0  0
  4  8  1  0  0  0  0
  4  5  1  0  0  0  0
  5  6  1  0  0  0  0
  6  7  1  0  0  0  0
  7  8  1  0  0  0  0
  4  9  1  0  0  0  0
  9 10  1  0  0  0  0
 10 15  1  0  0  0  0
 10 11  2  0  0  0  0
 11 12  1  0  0  0  0
 12 13  2  0  0  0  0
 13 14  1  0  0  0  0
 13 15  1  0  0  0  0
  2 16  1  0  0  0  0
 16 17  1  0  0  0  0
 17 22  1  0  0  0  0
 17 18  2  0  0  0  0
 18 19  1  0  0  0  0
 19 20  2  0  0  0  0
 20 21  1  0  0  0  0
 21 22  2  0  0  0  0
M  END
$$$$
CHR-SOS-597-5
  -OEChem-03222016562D

 22 24  0     0  0  0  0  0  0999 V2000
    0.5545   -2.6208    0.0000 O   0  0  0  0  0  0  0  0  0  0  0  0
    0.1485   -1.7070    0.0000 C   0  0  0  0  0  0  0  0  0  0  0  0
    0.7369   -0.8984    0.0000 C   0  0  0  0  0  0  0  0  0  0  0  0
    1.7313   -1.0038    0.0000 C   0  0  0  0  0  0  0  0  0  0  0  0
    2.7277   -0.9011    0.0000 C   0  0  0  0  0  0  0  0  0  0  0  0
    3.1352   -1.8159    0.0000 C   0  0  0  0  0  0  0  0  0  0  0  0
    2.3904   -2.4832    0.0000 C   0  0  0  0  0  0  0  0  0  0  0  0
    1.5223   -1.9862    0.0000 C   0  0  0  0  0  0  0  0  0  0  0  0
    1.7328   -0.0038    0.0000 C   0  0  0  0  0  0  0  0  0  0  0  0
    0.8675    0.4975    0.0000 C   0  0  0  0  0  0  0  0  0  0  0  0
    0.0000    0.0000    0.0000 C   0  0  0  0  0  0  0  0  0  0  0  0
   -0.8675    0.4975    0.0000 C   0  0  0  0  0  0  0  0  0  0  0  0
   -0.8675    1.5027    0.0000 C   0  0  0  0  0  0  0  0  0  0  0  0
    0.0000    2.0104    0.0000 N   0  0  0  0  0  0  0  0  0  0  0  0
    0.8675    1.5027    0.0000 C   0  0  0  0  0  0  0  0  0  0  0  0
   -0.8460   -1.6016    0.0000 N   0  0  0  0  0  0  0  0  0  0  0  0
   -1.4344   -2.4102    0.0000 C   0  0  0  0  0  0  0  0  0  0  0  0
   -2.4290   -2.3063    0.0000 C   0  0  0  0  0  0  0  0  0  0  0  0
   -3.0210   -3.1123    0.0000 C   0  0  0  0  0  0  0  0  0  0  0  0
   -2.6142   -4.0315    0.0000 C   0  0  0  0  0  0  0  0  0  0  0  0
   -1.6155   -4.1447    0.0000 N   0  0  0  0  0  0  0  0  0  0  0  0
   -1.0276   -3.3294    0.0000 C   0  0  0  0  0  0  0  0  0  0  0  0
  1  2  2  0  0  0  0
  2  3  1  0  0  0  0
  3  4  1  0  0  0  0
  4  8  1  0  0  0  0
  4  5  1  0  0  0  0
  5  6  1  0  0  0  0
  6  7  1  0  0  0  0
  7  8  1  0  0  0  0
  4  9  1  0  0  0  0
  9 10  1  0  0  0  0
 10 15  1  0  0  0  0
 10 11  2  0  0  0  0
 11 12  1  0  0  0  0
 12 13  2  0  0  0  0
 13 14  1  0  0  0  0
 14 15  2  0  0  0  0
  2 16  1  0  0  0  0
 16 17  1  0  0  0  0
 17 22  1  0  0  0  0
 17 18  2  0  0  0  0
 18 19  1  0  0  0  0
 19 20  2  0  0  0  0
 20 21  1  0  0  0  0
 21 22  2  0  0  0  0
M  END
$$$$
CHR-SOS-597-6
  -OEChem-03222016562D

 22 24  0     0  0  0  0  0  0999 V2000
    2.6010    1.4950    0.0000 O   0  0  0  0  0  0  0  0  0  0  0  0
    2.5995    0.4950    0.0000 C   0  0  0  0  0  0  0  0  0  0  0  0
    3.4648   -0.0063    0.0000 C   0  0  0  0  0  0  0  0  0  0  0  0
    4.3316    0.4925    0.0000 C   0  0  0  0  0  0  0  0  0  0  0  0
    5.2843    0.8018    0.0000 C   0  0  0  0  0  0  0  0  0  0  0  0
    5.2867    1.8032    0.0000 C   0  0  0  0  0  0  0  0  0  0  0  0
    4.3356    2.1121    0.0000 C   0  0  0  0  0  0  0  0  0  0  0  0
    3.7429    1.3063    0.0000 C   0  0  0  0  0  0  0  0  0  0  0  0
    4.7376   -0.4214    0.0000 C   0  0  0  0  0  0  0  0  0  0  0  0
    4.1492   -1.2299    0.0000 C   0  0  0  0  0  0  0  0  0  0  0  0
    3.1499   -1.1211    0.0000 C   0  0  0  0  0  0  0  0  0  0  0  0
    2.5614   -1.9296    0.0000 C   0  0  0  0  0  0  0  0  0  0  0  0
    2.9620   -2.8459    0.0000 C   0  0  0  0  0  0  0  0  0  0  0  0
    3.9613   -2.9547    0.0000 C   0  0  0  0  0  0  0  0  0  0  0  0
    4.5599   -2.1473    0.0000 C   0  0  0  0  0  0  0  0  0  0  0  0
    1.7328   -0.0038    0.0000 N   0  0  0  0  0  0  0  0  0  0  0  0
    0.8675    0.4975    0.0000 C   0  0  0  0  0  0  0  0  0  0  0  0
    0.0000    0.0000    0.0000 C   0  0  0  0  0  0  0  0  0  0  0  0
   -0.8675    0.4975    0.0000 C   0  0  0  0  0  0  0  0  0  0  0  0
   -0.8675    1.5027    0.0000 C   0  0  0  0  0  0  0  0  0  0  0  0
    0.0000    2.0104    0.0000 N   0  0  0  0  0  0  0  0  0  0  0  0
    0.8675    1.5027    0.0000 C   0  0  0  0  0  0  0  0  0  0  0  0
  1  2  2  0  0  0  0
  2  3  1  0  0  0  0
  3  4  1  0  0  0  0
  4  8  1  0  0  0  0
  4  5  1  0  0  0  0
  5  6  1  0  0  0  0
  6  7  1  0  0  0  0
  7  8  1  0  0  0  0
  4  9  1  0  0  0  0
  9 10  1  0  0  0  0
 10 15  1  0  0  0  0
 10 11  2  0  0  0  0
 11 12  1  0  0  0  0
 12 13  2  0  0  0  0
 13 14  1  0  0  0  0
 14 15  2  0  0  0  0
  2 16  1  0  0  0  0
 16 17  1  0  0  0  0
 17 22  1  0  0  0  0
 17 18  2  0  0  0  0
 18 19  1  0  0  0  0
 19 20  2  0  0  0  0
 20 21  1  0  0  0  0
 21 22  2  0  0  0  0
M  END
$$$$
CHR-SOS-54d-1
  -OEChem-03222016562D

 24 26  0     0  0  0  0  0  0999 V2000
    2.6010    1.4950    0.0000 O   0  0  0  0  0  0  0  0  0  0  0  0
    2.5995    0.4950    0.0000 C   0  0  0  0  0  0  0  0  0  0  0  0
    3.4648   -0.0063    0.0000 C   0  0  0  0  0  0  0  0  0  0  0  0
    4.3316    0.4925    0.0000 C   0  0  0  0  0  0  0  0  0  0  0  0
    4.6704   -0.4484    0.0000 C   0  0  0  0  0  0  0  0  0  0  0  0
    5.0092   -1.3892    0.0000 C   0  0  0  0  0  0  0  0  0  0  0  0
    5.3480   -2.3301    0.0000 C   0  0  0  0  0  0  0  0  0  0  0  0
    6.3103   -2.6083    0.0000 N   0  0  0  0  0  0  0  0  0  0  0  0
    6.3412   -3.6125    0.0000 N   0  0  0  0  0  0  0  0  0  0  0  0
    5.3983   -3.9470    0.0000 C   0  0  0  0  0  0  0  0  0  0  0  0
    5.1178   -4.9069    0.0000 C   0  0  0  0  0  0  0  0  0  0  0  0
    4.7842   -3.1578    0.0000 C   0  0  0  0  0  0  0  0  0  0  0  0
    5.3225    0.6617    0.0000 C   0  0  0  0  0  0  0  0  0  0  0  0
    5.6668    1.6006    0.0000 C   0  0  0  0  0  0  0  0  0  0  0  0
    5.0304    2.3719    0.0000 C   0  0  0  0  0  0  0  0  0  0  0  0
    4.0395    2.2027    0.0000 C   0  0  0  0  0  0  0  0  0  0  0  0
    3.6851    1.2621    0.0000 C   0  0  0  0  0  0  0  0  0  0  0  0
    1.7328   -0.0038    0.0000 N   0  0  0  0  0  0  0  0  0  0  0  0
    0.8675    0.4975    0.0000 C   0  0  0  0  0  0  0  0  0  0  0  0
    0.0000    0.0000    0.0000 C   0  0  0  0  0  0  0  0  0  0  0  0
   -0.8675    0.4975    0.0000 C   0  0  0  0  0  0  0  0  0  0  0  0
   -0.8675    1.5027    0.0000 C   0  0  0  0  0  0  0  0  0  0  0  0
    0.0000    2.0104    0.0000 N   0  0  0  0  0  0  0  0  0  0  0  0
    0.8675    1.5027    0.0000 C   0  0  0  0  0  0  0  0  0  0  0  0
  1  2  2  0  0  0  0
  2  3  1  0  0  0  0
  3  4  1  0  0  0  0
  4 17  1  0  0  0  0
  4  5  1  0  0  0  0
  5  6  3  0  0  0  0
  6  7  1  0  0  0  0
  7 12  1  0  0  0  0
  7  8  2  0  0  0  0
  8  9  1  0  0  0  0
  9 10  1  0  0  0  0
 10 11  1  0  0  0  0
 10 12  2  0  0  0  0
  4 13  1  0  0  0  0
 13 14  1  0  0  0  0
 14 15  1  0  0  0  0
 15 16  1  0  0  0  0
 16 17  1  0  0  0  0
  2 18  1  0  0  0  0
 18 19  1  0  0  0  0
 19 24  1  0  0  0  0
 19 20  2  0  0  0  0
 20 21  1  0  0  0  0
 21 22  2  0  0  0  0
 22 23  1  0  0  0  0
 23 24  2  0  0  0  0
M  END
$$$$
CHR-SOS-54d-2
  -OEChem-03222016562D

 23 25  0     0  0  0  0  0  0999 V2000
    2.6010    1.4950    0.0000 O   0  0  0  0  0  0  0  0  0  0  0  0
    2.5995    0.4950    0.0000 C   0  0  0  0  0  0  0  0  0  0  0  0
    3.4648   -0.0063    0.0000 C   0  0  0  0  0  0  0  0  0  0  0  0
    4.3316    0.4925    0.0000 C   0  0  0  0  0  0  0  0  0  0  0  0
    4.6704   -0.4484    0.0000 C   0  0  0  0  0  0  0  0  0  0  0  0
    5.0092   -1.3892    0.0000 C   0  0  0  0  0  0  0  0  0  0  0  0
    5.3480   -2.3301    0.0000 C   0  0  0  0  0  0  0  0  0  0  0  0
    4.7832   -3.1558    0.0000 N   0  0  0  0  0  0  0  0  0  0  0  0
    5.3997   -3.9491    0.0000 N   0  0  0  0  0  0  0  0  0  0  0  0
    6.3412   -3.6070    0.0000 C   0  0  0  0  0  0  0  0  0  0  0  0
    6.3092   -2.6061    0.0000 C   0  0  0  0  0  0  0  0  0  0  0  0
    5.3225    0.6617    0.0000 C   0  0  0  0  0  0  0  0  0  0  0  0
    5.6668    1.6006    0.0000 C   0  0  0  0  0  0  0  0  0  0  0  0
    5.0304    2.3719    0.0000 C   0  0  0  0  0  0  0  0  0  0  0  0
    4.0395    2.2027    0.0000 C   0  0  0  0  0  0  0  0  0  0  0  0
    3.6851    1.2621    0.0000 C   0  0  0  0  0  0  0  0  0  0  0  0
    1.7328   -0.0038    0.0000 N   0  0  0  0  0  0  0  0  0  0  0  0
    0.8675    0.4975    0.0000 C   0  0  0  0  0  0  0  0  0  0  0  0
    0.0000    0.0000    0.0000 C   0  0  0  0  0  0  0  0  0  0  0  0
   -0.8675    0.4975    0.0000 C   0  0  0  0  0  0  0  0  0  0  0  0
   -0.8675    1.5027    0.0000 C   0  0  0  0  0  0  0  0  0  0  0  0
    0.0000    2.0104    0.0000 N   0  0  0  0  0  0  0  0  0  0  0  0
    0.8675    1.5027    0.0000 C   0  0  0  0  0  0  0  0  0  0  0  0
  1  2  2  0  0  0  0
  2  3  1  0  0  0  0
  3  4  1  0  0  0  0
  4 16  1  0  0  0  0
  4  5  1  0  0  0  0
  5  6  3  0  0  0  0
  6  7  1  0  0  0  0
  7 11  1  0  0  0  0
  7  8  2  0  0  0  0
  8  9  1  0  0  0  0
  9 10  1  0  0  0  0
 10 11  2  0  0  0  0
  4 12  1  0  0  0  0
 12 13  1  0  0  0  0
 13 14  1  0  0  0  0
 14 15  1  0  0  0  0
 15 16  1  0  0  0  0
  2 17  1  0  0  0  0
 17 18  1  0  0  0  0
 18 23  1  0  0  0  0
 18 19  2  0  0  0  0
 19 20  1  0  0  0  0
 20 21  2  0  0  0  0
 21 22  1  0  0  0  0
 22 23  2  0  0  0  0
M  END
$$$$
CHR-SOS-54d-3
  -OEChem-03222016562D

 23 25  0     0  0  0  0  0  0999 V2000
    2.6010    1.4950    0.0000 O   0  0  0  0  0  0  0  0  0  0  0  0
    2.5995    0.4950    0.0000 C   0  0  0  0  0  0  0  0  0  0  0  0
    3.4648   -0.0063    0.0000 C   0  0  0  0  0  0  0  0  0  0  0  0
    4.3316    0.4925    0.0000 C   0  0  0  0  0  0  0  0  0  0  0  0
    4.6704   -0.4484    0.0000 C   0  0  0  0  0  0  0  0  0  0  0  0
    5.0092   -1.3892    0.0000 C   0  0  0  0  0  0  0  0  0  0  0  0
    5.3480   -2.3301    0.0000 C   0  0  0  0  0  0  0  0  0  0  0  0
    6.3092   -2.6061    0.0000 C   0  0  0  0  0  0  0  0  0  0  0  0
    6.3412   -3.6070    0.0000 N   0  0  0  0  0  0  0  0  0  0  0  0
    5.3997   -3.9491    0.0000 C   0  0  0  0  0  0  0  0  0  0  0  0
    4.7832   -3.1558    0.0000 N   0  0  0  0  0  0  0  0  0  0  0  0
    5.3225    0.6617    0.0000 C   0  0  0  0  0  0  0  0  0  0  0  0
    5.6668    1.6006    0.0000 C   0  0  0  0  0  0  0  0  0  0  0  0
    5.0304    2.3719    0.0000 C   0  0  0  0  0  0  0  0  0  0  0  0
    4.0395    2.2027    0.0000 C   0  0  0  0  0  0  0  0  0  0  0  0
    3.6851    1.2621    0.0000 C   0  0  0  0  0  0  0  0  0  0  0  0
    1.7328   -0.0038    0.0000 N   0  0  0  0  0  0  0  0  0  0  0  0
    0.8675    0.4975    0.0000 C   0  0  0  0  0  0  0  0  0  0  0  0
    0.0000    0.0000    0.0000 C   0  0  0  0  0  0  0  0  0  0  0  0
   -0.8675    0.4975    0.0000 C   0  0  0  0  0  0  0  0  0  0  0  0
   -0.8675    1.5027    0.0000 C   0  0  0  0  0  0  0  0  0  0  0  0
    0.0000    2.0104    0.0000 N   0  0  0  0  0  0  0  0  0  0  0  0
    0.8675    1.5027    0.0000 C   0  0  0  0  0  0  0  0  0  0  0  0
  1  2  2  0  0  0  0
  2  3  1  0  0  0  0
  3  4  1  0  0  0  0
  4 16  1  0  0  0  0
  4  5  1  0  0  0  0
  5  6  3  0  0  0  0
  6  7  1  0  0  0  0
  7 11  1  0  0  0  0
  7  8  2  0  0  0  0
  8  9  1  0  0  0  0
  9 10  1  0  0  0  0
 10 11  2  0  0  0  0
  4 12  1  0  0  0  0
 12 13  1  0  0  0  0
 13 14  1  0  0  0  0
 14 15  1  0  0  0  0
 15 16  1  0  0  0  0
  2 17  1  0  0  0  0
 17 18  1  0  0  0  0
 18 23  1  0  0  0  0
 18 19  2  0  0  0  0
 19 20  1  0  0  0  0
 20 21  2  0  0  0  0
 21 22  1  0  0  0  0
 22 23  2  0  0  0  0
M  END
$$$$
CHR-SOS-54d-4
  -OEChem-03222016562D

 25 27  0     0  0  0  0  0  0999 V2000
   -0.4211   -5.0271    0.0000 O   0  0  0  0  0  0  0  0  0  0  0  0
   -0.7613   -4.0867    0.0000 C   0  0  0  0  0  0  0  0  0  0  0  0
   -0.1170   -3.3219    0.0000 C   0  0  0  0  0  0  0  0  0  0  0  0
    0.8675   -3.4975    0.0000 C   0  0  0  0  0  0  0  0  0  0  0  0
    0.8675   -2.4975    0.0000 C   0  0  0  0  0  0  0  0  0  0  0  0
    0.8675   -1.4975    0.0000 C   0  0  0  0  0  0  0  0  0  0  0  0
    0.8675   -0.4975    0.0000 C   0  0  0  0  0  0  0  0  0  0  0  0
    1.7350    0.0000    0.0000 N   0  0  0  0  0  0  0  0  0  0  0  0
    1.7350    1.0052    0.0000 C   0  0  0  0  0  0  0  0  0  0  0  0
    2.6025    1.5026    0.0000 N   0  0  0  0  0  0  0  0  0  0  0  0
    0.8675    1.5129    0.0000 N   0  0  0  0  0  0  0  0  0  0  0  0
    0.0000    1.0052    0.0000 C   0  0  0  0  0  0  0  0  0  0  0  0
    0.0000    0.0000    0.0000 C   0  0  0  0  0  0  0  0  0  0  0  0
    1.8571   -3.3210    0.0000 C   0  0  0  0  0  0  0  0  0  0  0  0
    2.4992   -4.0877    0.0000 C   0  0  0  0  0  0  0  0  0  0  0  0
    2.1617   -5.0290    0.0000 C   0  0  0  0  0  0  0  0  0  0  0  0
    1.1721   -5.2055    0.0000 C   0  0  0  0  0  0  0  0  0  0  0  0
    0.5200   -4.4407    0.0000 C   0  0  0  0  0  0  0  0  0  0  0  0
   -1.7457   -3.9111    0.0000 N   0  0  0  0  0  0  0  0  0  0  0  0
   -2.3900   -4.6759    0.0000 C   0  0  0  0  0  0  0  0  0  0  0  0
   -3.3748   -4.5017    0.0000 C   0  0  0  0  0  0  0  0  0  0  0  0
   -4.0224   -5.2637    0.0000 C   0  0  0  0  0  0  0  0  0  0  0  0
   -3.6818   -6.2095    0.0000 C   0  0  0  0  0  0  0  0  0  0  0  0
   -2.6936   -6.3932    0.0000 N   0  0  0  0  0  0  0  0  0  0  0  0
   -2.0494   -5.6216    0.0000 C   0  0  0  0  0  0  0  0  0  0  0  0
  1  2  2  0  0  0  0
  2  3  1  0  0  0  0
  3  4  1  0  0  0  0
  4 18  1  0  0  0  0
  4  5  1  0  0  0  0
  5  6  3  0  0  0  0
  6  7  1  0  0  0  0
  7 13  1  0  0  0  0
  7  8  2  0  0  0  0
  8  9  1  0  0  0  0
  9 10  1  0  0  0  0
  9 11  2  0  0  0  0
 11 12  1  0  0  0  0
 12 13  2  0  0  0  0
  4 14  1  0  0  0  0
 14 15  1  0  0  0  0
 15 16  1  0  0  0  0
 16 17  1  0  0  0  0
 17 18  1  0  0  0  0
  2 19  1  0  0  0  0
 19 20  1  0  0  0  0
 20 25  1  0  0  0  0
 20 21  2  0  0  0  0
 21 22  1  0  0  0  0
 22 23  2  0  0  0  0
 23 24  1  0  0  0  0
 24 25  2  0  0  0  0
M  END
$$$$
CHR-SOS-54d-5
  -OEChem-03222016562D

 24 26  0     1  0  0  0  0  0999 V2000
    5.4379    2.6381    0.0000 O   0  0  0  0  0  0  0  0  0  0  0  0
    4.7913    1.8752    0.0000 C   0  0  0  0  0  0  0  0  0  0  0  0
    3.8074    2.0537    0.0000 C   0  0  0  0  0  0  0  0  0  0  0  0
    3.4700    2.9950    0.0000 C   0  0  0  0  0  0  0  0  0  0  0  0
    2.6025    2.4976    0.0000 C   0  0  0  0  0  0  0  0  0  0  0  0
    1.7350    2.0001    0.0000 C   0  0  0  0  0  0  0  0  0  0  0  0
    0.8675    1.5027    0.0000 C   0  0  3  0  0  0  0  0  0  0  0  0
   -0.0000    2.0104    0.0000 N   0  0  0  0  0  0  0  0  0  0  0  0
   -0.8675    1.5027    0.0000 C   0  0  0  0  0  0  0  0  0  0  0  0
   -0.8675    0.4975    0.0000 C   0  0  0  0  0  0  0  0  0  0  0  0
    0.0000    0.0000    0.0000 C   0  0  0  0  0  0  0  0  0  0  0  0
    0.8675    0.4975    0.0000 C   0  0  0  0  0  0  0  0  0  0  0  0
    2.8246    3.7657    0.0000 C   0  0  0  0  0  0  0  0  0  0  0  0
    3.1703    4.7041    0.0000 C   0  0  0  0  0  0  0  0  0  0  0  0
    4.1548    4.8796    0.0000 C   0  0  0  0  0  0  0  0  0  0  0  0
    4.8002    4.1090    0.0000 C   0  0  0  0  0  0  0  0  0  0  0  0
    4.4610    3.1628    0.0000 C   0  0  0  0  0  0  0  0  0  0  0  0
    5.1287    0.9338    0.0000 N   0  0  0  0  0  0  0  0  0  0  0  0
    6.1127    0.7553    0.0000 C   0  0  0  0  0  0  0  0  0  0  0  0
    6.4514   -0.1856    0.0000 C   0  0  0  0  0  0  0  0  0  0  0  0
    7.4346   -0.3684    0.0000 C   0  0  0  0  0  0  0  0  0  0  0  0
    8.0856    0.3975    0.0000 C   0  0  0  0  0  0  0  0  0  0  0  0
    7.7535    1.3462    0.0000 N   0  0  0  0  0  0  0  0  0  0  0  0
    6.7637    1.5212    0.0000 C   0  0  0  0  0  0  0  0  0  0  0  0
  1  2  2  0  0  0  0
  2  3  1  0  0  0  0
  3  4  1  0  0  0  0
  4 17  1  0  0  0  0
  4  5  1  0  0  0  0
  5  6  3  0  0  0  0
  6  7  1  0  0  0  0
  7 12  1  0  0  0  0
  7  8  1  0  0  0  0
  8  9  1  0  0  0  0
  9 10  1  0  0  0  0
 10 11  1  0  0  0  0
 11 12  1  0  0  0  0
  4 13  1  0  0  0  0
 13 14  1  0  0  0  0
 14 15  1  0  0  0  0
 15 16  1  0  0  0  0
 16 17  1  0  0  0  0
  2 18  1  0  0  0  0
 18 19  1  0  0  0  0
 19 24  1  0  0  0  0
 19 20  2  0  0  0  0
 20 21  1  0  0  0  0
 21 22  2  0  0  0  0
 22 23  1  0  0  0  0
 23 24  2  0  0  0  0
M  END
$$$$
CHR-SOS-54d-6
  -OEChem-03222016562D

 24 26  0     1  0  0  0  0  0999 V2000
    4.1410   -2.8880    0.0000 O   0  0  0  0  0  0  0  0  0  0  0  0
    3.1568   -2.7110    0.0000 C   0  0  0  0  0  0  0  0  0  0  0  0
    2.8180   -1.7701    0.0000 C   0  0  0  0  0  0  0  0  0  0  0  0
    3.4634   -1.0063    0.0000 C   0  0  0  0  0  0  0  0  0  0  0  0
    2.5981   -0.5050    0.0000 C   0  0  0  0  0  0  0  0  0  0  0  0
    1.7328   -0.0038    0.0000 C   0  0  0  0  0  0  0  0  0  0  0  0
    0.8675    0.4975    0.0000 C   0  0  3  0  0  0  0  0  0  0  0  0
    0.8675    1.5027    0.0000 C   0  0  0  0  0  0  0  0  0  0  0  0
   -0.0000    2.0104    0.0000 N   0  0  0  0  0  0  0  0  0  0  0  0
   -0.8675    1.5027    0.0000 C   0  0  0  0  0  0  0  0  0  0  0  0
   -0.8675    0.4975    0.0000 C   0  0  0  0  0  0  0  0  0  0  0  0
    0.0000    0.0000    0.0000 C   0  0  0  0  0  0  0  0  0  0  0  0
    3.8067   -0.0615    0.0000 C   0  0  0  0  0  0  0  0  0  0  0  0
    4.7920    0.1098    0.0000 C   0  0  0  0  0  0  0  0  0  0  0  0
    5.4374   -0.6541    0.0000 C   0  0  0  0  0  0  0  0  0  0  0  0
    5.0941   -1.5988    0.0000 C   0  0  0  0  0  0  0  0  0  0  0  0
    4.1053   -1.7797    0.0000 C   0  0  0  0  0  0  0  0  0  0  0  0
    2.5114   -3.4748    0.0000 N   0  0  0  0  0  0  0  0  0  0  0  0
    2.8502   -4.4157    0.0000 C   0  0  0  0  0  0  0  0  0  0  0  0
    2.2059   -5.1805    0.0000 C   0  0  0  0  0  0  0  0  0  0  0  0
    2.5406   -6.1228    0.0000 C   0  0  0  0  0  0  0  0  0  0  0  0
    3.5297   -6.3022    0.0000 C   0  0  0  0  0  0  0  0  0  0  0  0
    4.1840   -5.5392    0.0000 N   0  0  0  0  0  0  0  0  0  0  0  0
    3.8393   -4.5950    0.0000 C   0  0  0  0  0  0  0  0  0  0  0  0
  1  2  2  0  0  0  0
  2  3  1  0  0  0  0
  3  4  1  0  0  0  0
  4 17  1  0  0  0  0
  4  5  1  0  0  0  0
  5  6  3  0  0  0  0
  6  7  1  0  0  0  0
  7 12  1  0  0  0  0
  7  8  1  0  0  0  0
  8  9  1  0  0  0  0
  9 10  1  0  0  0  0
 10 11  1  0  0  0  0
 11 12  1  0  0  0  0
  4 13  1  0  0  0  0
 13 14  1  0  0  0  0
 14 15  1  0  0  0  0
 15 16  1  0  0  0  0
 16 17  1  0  0  0  0
  2 18  1  0  0  0  0
 18 19  1  0  0  0  0
 19 24  1  0  0  0  0
 19 20  2  0  0  0  0
 20 21  1  0  0  0  0
 21 22  2  0  0  0  0
 22 23  1  0  0  0  0
 23 24  2  0  0  0  0
M  END
$$$$
CHR-SOS-54d-7
  -OEChem-03222016562D

 23 25  0     1  0  0  0  0  0999 V2000
    2.6010    1.4950    0.0000 O   0  0  0  0  0  0  0  0  0  0  0  0
    2.5995    0.4950    0.0000 C   0  0  0  0  0  0  0  0  0  0  0  0
    3.4648   -0.0063    0.0000 C   0  0  0  0  0  0  0  0  0  0  0  0
    4.3316    0.4925    0.0000 C   0  0  0  0  0  0  0  0  0  0  0  0
    4.6704   -0.4484    0.0000 C   0  0  0  0  0  0  0  0  0  0  0  0
    5.0092   -1.3892    0.0000 C   0  0  0  0  0  0  0  0  0  0  0  0
    5.3480   -2.3301    0.0000 C   0  0  3  0  0  0  0  0  0  0  0  0
    6.3125   -2.6112    0.0000 N   0  0  0  0  0  0  0  0  0  0  0  0
    6.3391   -3.6113    0.0000 C   0  0  0  0  0  0  0  0  0  0  0  0
    5.3986   -3.9513    0.0000 C   0  0  0  0  0  0  0  0  0  0  0  0
    4.7859   -3.1591    0.0000 C   0  0  0  0  0  0  0  0  0  0  0  0
    5.3225    0.6617    0.0000 C   0  0  0  0  0  0  0  0  0  0  0  0
    5.6668    1.6006    0.0000 C   0  0  0  0  0  0  0  0  0  0  0  0
    5.0304    2.3719    0.0000 C   0  0  0  0  0  0  0  0  0  0  0  0
    4.0395    2.2027    0.0000 C   0  0  0  0  0  0  0  0  0  0  0  0
    3.6851    1.2621    0.0000 C   0  0  0  0  0  0  0  0  0  0  0  0
    1.7328   -0.0038    0.0000 N   0  0  0  0  0  0  0  0  0  0  0  0
    0.8675    0.4975    0.0000 C   0  0  0  0  0  0  0  0  0  0  0  0
    0.0000    0.0000    0.0000 C   0  0  0  0  0  0  0  0  0  0  0  0
   -0.8675    0.4975    0.0000 C   0  0  0  0  0  0  0  0  0  0  0  0
   -0.8675    1.5027    0.0000 C   0  0  0  0  0  0  0  0  0  0  0  0
    0.0000    2.0104    0.0000 N   0  0  0  0  0  0  0  0  0  0  0  0
    0.8675    1.5027    0.0000 C   0  0  0  0  0  0  0  0  0  0  0  0
  1  2  2  0  0  0  0
  2  3  1  0  0  0  0
  3  4  1  0  0  0  0
  4 16  1  0  0  0  0
  4  5  1  0  0  0  0
  5  6  3  0  0  0  0
  6  7  1  0  0  0  0
  7 11  1  0  0  0  0
  7  8  1  0  0  0  0
  8  9  1  0  0  0  0
  9 10  1  0  0  0  0
 10 11  1  0  0  0  0
  4 12  1  0  0  0  0
 12 13  1  0  0  0  0
 13 14  1  0  0  0  0
 14 15  1  0  0  0  0
 15 16  1  0  0  0  0
  2 17  1  0  0  0  0
 17 18  1  0  0  0  0
 18 23  1  0  0  0  0
 18 19  2  0  0  0  0
 19 20  1  0  0  0  0
 20 21  2  0  0  0  0
 21 22  1  0  0  0  0
 22 23  2  0  0  0  0
M  END
$$$$
CHR-SOS-54d-8
  -OEChem-03222016562D

 23 25  0     1  0  0  0  0  0999 V2000
    2.6010    1.4950    0.0000 O   0  0  0  0  0  0  0  0  0  0  0  0
    2.5995    0.4950    0.0000 C   0  0  0  0  0  0  0  0  0  0  0  0
    3.4648   -0.0063    0.0000 C   0  0  0  0  0  0  0  0  0  0  0  0
    4.3316    0.4925    0.0000 C   0  0  0  0  0  0  0  0  0  0  0  0
    4.6704   -0.4484    0.0000 C   0  0  0  0  0  0  0  0  0  0  0  0
    5.0092   -1.3892    0.0000 C   0  0  0  0  0  0  0  0  0  0  0  0
    5.3480   -2.3301    0.0000 C   0  0  3  0  0  0  0  0  0  0  0  0
    6.3103   -2.6083    0.0000 C   0  0  0  0  0  0  0  0  0  0  0  0
    6.3412   -3.6125    0.0000 N   0  0  0  0  0  0  0  0  0  0  0  0
    5.3983   -3.9470    0.0000 C   0  0  0  0  0  0  0  0  0  0  0  0
    4.7842   -3.1578    0.0000 C   0  0  0  0  0  0  0  0  0  0  0  0
    5.3225    0.6617    0.0000 C   0  0  0  0  0  0  0  0  0  0  0  0
    5.6668    1.6006    0.0000 C   0  0  0  0  0  0  0  0  0  0  0  0
    5.0304    2.3719    0.0000 C   0  0  0  0  0  0  0  0  0  0  0  0
    4.0395    2.2027    0.0000 C   0  0  0  0  0  0  0  0  0  0  0  0
    3.6851    1.2621    0.0000 C   0  0  0  0  0  0  0  0  0  0  0  0
    1.7328   -0.0038    0.0000 N   0  0  0  0  0  0  0  0  0  0  0  0
    0.8675    0.4975    0.0000 C   0  0  0  0  0  0  0  0  0  0  0  0
    0.0000    0.0000    0.0000 C   0  0  0  0  0  0  0  0  0  0  0  0
   -0.8675    0.4975    0.0000 C   0  0  0  0  0  0  0  0  0  0  0  0
   -0.8675    1.5027    0.0000 C   0  0  0  0  0  0  0  0  0  0  0  0
    0.0000    2.0104    0.0000 N   0  0  0  0  0  0  0  0  0  0  0  0
    0.8675    1.5027    0.0000 C   0  0  0  0  0  0  0  0  0  0  0  0
  1  2  2  0  0  0  0
  2  3  1  0  0  0  0
  3  4  1  0  0  0  0
  4 16  1  0  0  0  0
  4  5  1  0  0  0  0
  5  6  3  0  0  0  0
  6  7  1  0  0  0  0
  7 11  1  0  0  0  0
  7  8  1  0  0  0  0
  8  9  1  0  0  0  0
  9 10  1  0  0  0  0
 10 11  1  0  0  0  0
  4 12  1  0  0  0  0
 12 13  1  0  0  0  0
 13 14  1  0  0  0  0
 14 15  1  0  0  0  0
 15 16  1  0  0  0  0
  2 17  1  0  0  0  0
 17 18  1  0  0  0  0
 18 23  1  0  0  0  0
 18 19  2  0  0  0  0
 19 20  1  0  0  0  0
 20 21  2  0  0  0  0
 21 22  1  0  0  0  0
 22 23  2  0  0  0  0
M  END
$$$$
JAV-UNI-450-1
  -OEChem-03222016562D

 28 31  0     1  0  0  0  0  0999 V2000
    5.2168    0.9922    0.0000 C   0  0  0  0  0  0  0  0  0  0  0  0
    4.3535    1.4968    0.0000 C   0  0  0  0  0  0  0  0  0  0  0  0
    4.3588    2.4968    0.0000 O   0  0  0  0  0  0  0  0  0  0  0  0
    3.4848    1.0014    0.0000 N   0  0  0  0  0  0  0  0  0  0  0  0
    2.6125    1.5125    0.0000 C   0  0  0  0  0  0  0  0  0  0  0  0
    1.7414    1.0089    0.0000 C   0  0  0  0  0  0  0  0  0  0  0  0
    1.7371   -0.0000    0.0000 C   0  0  0  0  0  0  0  0  0  0  0  0
    0.8707   -0.4993    0.0000 C   0  0  0  0  0  0  0  0  0  0  0  0
    0.0000    0.0000    0.0000 C   0  0  0  0  0  0  0  0  0  0  0  0
    0.0000    1.0089    0.0000 C   0  0  0  0  0  0  0  0  0  0  0  0
    0.8707    1.5185    0.0000 C   0  0  0  0  0  0  0  0  0  0  0  0
    2.6039   -0.5053    0.0000 C   0  0  2  0  0  0  0  0  0  0  0  0
    3.7207   -1.8526    0.0000 H   0  0  0  0  0  0  0  0  0  0  0  0
    1.4722   -1.8401    0.0000 C   0  0  0  0  0  0  0  0  0  0  0  0
    1.8139   -2.7854    0.0000 C   0  0  0  0  0  0  0  0  0  0  0  0
    1.1673   -3.5482    0.0000 C   0  0  0  0  0  0  0  0  0  0  0  0
    0.1823   -3.3753    0.0000 C   0  0  0  0  0  0  0  0  0  0  0  0
   -0.1595   -2.4300    0.0000 C   0  0  0  0  0  0  0  0  0  0  0  0
    0.4837   -1.6576    0.0000 C   0  0  0  0  0  0  0  0  0  0  0  0
    3.4805   -0.0073    0.0000 C   0  0  1  0  0  0  0  0  0  0  0  0
    4.4662    0.1613    0.0000 H   0  0  0  0  0  0  0  0  0  0  0  0
    3.8168   -0.9490    0.0000 C   0  0  0  0  0  0  0  0  0  0  0  0
    4.8006   -1.1287    0.0000 C   0  0  0  0  0  0  0  0  0  0  0  0
    5.1400   -2.0748    0.0000 C   0  0  0  0  0  0  0  0  0  0  0  0
    6.1280   -2.2598    0.0000 N   0  0  0  0  0  0  0  0  0  0  0  0
    6.7731   -1.4889    0.0000 C   0  0  0  0  0  0  0  0  0  0  0  0
    6.4336   -0.5428    0.0000 C   0  0  0  0  0  0  0  0  0  0  0  0
    5.4491   -0.3674    0.0000 C   0  0  0  0  0  0  0  0  0  0  0  0
  1  2  1  0  0  0  0
  2  3  2  0  0  0  0
  2  4  1  0  0  0  0
  4 20  1  0  0  0  0
  4  5  1  0  0  0  0
  5  6  1  0  0  0  0
  6 11  2  0  0  0  0
  6  7  1  0  0  0  0
  7  8  2  0  0  0  0
  8  9  1  0  0  0  0
  9 10  2  0  0  0  0
 10 11  1  0  0  0  0
  7 12  1  0  0  0  0
 12 13  1  6  0  0  0
 12 14  1  0  0  0  0
 14 19  2  0  0  0  0
 14 15  1  0  0  0  0
 15 16  2  0  0  0  0
 16 17  1  0  0  0  0
 17 18  2  0  0  0  0
 18 19  1  0  0  0  0
 12 20  1  0  0  0  0
 20 21  1  1  0  0  0
 20 22  1  0  0  0  0
 22 23  1  0  0  0  0
 23 28  2  0  0  0  0
 23 24  1  0  0  0  0
 24 25  2  0  0  0  0
 25 26  1  0  0  0  0
 26 27  2  0  0  0  0
 27 28  1  0  0  0  0
M  END
$$$$
DAR-DIA-43a-1
  -OEChem-03222016562D

 24 26  0     1  0  0  0  0  0999 V2000
    3.5223   -3.7025    0.0000 N   0  0  0  0  0  0  0  0  0  0  0  0
    3.2114   -2.7520    0.0000 C   0  0  0  0  0  0  0  0  0  0  0  0
    3.8790   -2.0075    0.0000 O   0  0  0  0  0  0  0  0  0  0  0  0
    2.2328   -2.5461    0.0000 C   0  0  2  0  0  0  0  0  0  0  0  0
    2.1290   -3.5407    0.0000 H   0  0  0  0  0  0  0  0  0  0  0  0
    1.2283   -2.5456    0.0000 C   0  0  2  0  0  0  0  0  0  0  0  0
    1.3318   -3.5403    0.0000 H   0  0  0  0  0  0  0  0  0  0  0  0
    0.2498   -2.7518    0.0000 C   0  0  0  0  0  0  0  0  0  0  0  0
   -0.4192   -2.0017    0.0000 C   0  0  0  0  0  0  0  0  0  0  0  0
   -1.4009   -2.2176    0.0000 C   0  0  0  0  0  0  0  0  0  0  0  0
   -2.0731   -1.4772    0.0000 Cl  0  0  0  0  0  0  0  0  0  0  0  0
   -1.7104   -3.1740    0.0000 C   0  0  0  0  0  0  0  0  0  0  0  0
   -1.0382   -3.9144    0.0000 C   0  0  0  0  0  0  0  0  0  0  0  0
   -0.0597   -3.7082    0.0000 C   0  0  0  0  0  0  0  0  0  0  0  0
    0.9211   -1.5923    0.0000 C   0  0  0  0  0  0  0  0  0  0  0  0
    1.7313   -1.0038    0.0000 C   0  0  0  0  0  0  0  0  0  0  0  0
    1.7328   -0.0038    0.0000 C   0  0  0  0  0  0  0  0  0  0  0  0
    0.8675    0.4975    0.0000 C   0  0  0  0  0  0  0  0  0  0  0  0
    0.0000    0.0000    0.0000 C   0  0  0  0  0  0  0  0  0  0  0  0
   -0.8675    0.4975    0.0000 C   0  0  0  0  0  0  0  0  0  0  0  0
   -0.8675    1.5027    0.0000 C   0  0  0  0  0  0  0  0  0  0  0  0
    0.0000    2.0104    0.0000 N   0  0  0  0  0  0  0  0  0  0  0  0
    0.8675    1.5027    0.0000 C   0  0  0  0  0  0  0  0  0  0  0  0
    2.5388   -1.5938    0.0000 C   0  0  0  0  0  0  0  0  0  0  0  0
  1  2  1  0  0  0  0
  2  3  2  0  0  0  0
  2  4  1  0  0  0  0
  4  5  1  1  0  0  0
  4 24  1  0  0  0  0
  4  6  1  0  0  0  0
  6  7  1  1  0  0  0
  6  8  1  0  0  0  0
  8 14  1  0  0  0  0
  8  9  2  0  0  0  0
  9 10  1  0  0  0  0
 10 11  1  0  0  0  0
 10 12  2  0  0  0  0
 12 13  1  0  0  0  0
 13 14  2  0  0  0  0
  6 15  1  0  0  0  0
 15 16  2  0  0  0  0
 16 17  1  0  0  0  0
 17 18  1  0  0  0  0
 18 23  1  0  0  0  0
 18 19  2  0  0  0  0
 19 20  1  0  0  0  0
 20 21  2  0  0  0  0
 21 22  1  0  0  0  0
 22 23  2  0  0  0  0
 16 24  1  0  0  0  0
M  END
$$$$
DAR-DIA-43a-2
  -OEChem-03222016562D

 24 26  0     1  0  0  0  0  0999 V2000
   -0.4180   -2.0075    0.0000 N   0  0  0  0  0  0  0  0  0  0  0  0
    0.2498   -2.7518    0.0000 C   0  0  0  0  0  0  0  0  0  0  0  0
    1.2284   -2.5456    0.0000 C   0  0  1  0  0  0  0  0  0  0  0  0
    1.3318   -3.5403    0.0000 H   0  0  0  0  0  0  0  0  0  0  0  0
    0.9211   -1.5923    0.0000 C   0  0  0  0  0  0  0  0  0  0  0  0
    1.7313   -1.0038    0.0000 C   0  0  0  0  0  0  0  0  0  0  0  0
    1.7328   -0.0038    0.0000 C   0  0  0  0  0  0  0  0  0  0  0  0
    0.8675    0.4975    0.0000 C   0  0  0  0  0  0  0  0  0  0  0  0
    0.8675    1.5027    0.0000 C   0  0  0  0  0  0  0  0  0  0  0  0
   -0.0000    2.0104    0.0000 N   0  0  0  0  0  0  0  0  0  0  0  0
   -0.8675    1.5027    0.0000 C   0  0  0  0  0  0  0  0  0  0  0  0
   -0.8675    0.4975    0.0000 C   0  0  0  0  0  0  0  0  0  0  0  0
    0.0000    0.0000    0.0000 C   0  0  0  0  0  0  0  0  0  0  0  0
    2.5388   -1.5938    0.0000 C   0  0  0  0  0  0  0  0  0  0  0  0
    2.2328   -2.5461    0.0000 C   0  0  1  0  0  0  0  0  0  0  0  0
    2.1290   -3.5407    0.0000 H   0  0  0  0  0  0  0  0  0  0  0  0
    3.2114   -2.7520    0.0000 C   0  0  0  0  0  0  0  0  0  0  0  0
    3.5211   -3.7083    0.0000 C   0  0  0  0  0  0  0  0  0  0  0  0
    4.4997   -3.9143    0.0000 C   0  0  0  0  0  0  0  0  0  0  0  0
    5.1717   -3.1737    0.0000 C   0  0  0  0  0  0  0  0  0  0  0  0
    4.8619   -2.2174    0.0000 C   0  0  0  0  0  0  0  0  0  0  0  0
    5.5339   -1.4768    0.0000 Br  0  0  0  0  0  0  0  0  0  0  0  0
    3.8802   -2.0017    0.0000 C   0  0  0  0  0  0  0  0  0  0  0  0
   -0.0609   -3.7023    0.0000 O   0  0  0  0  0  0  0  0  0  0  0  0
  1  2  1  0  0  0  0
  2  3  1  0  0  0  0
  3  4  1  6  0  0  0
  3 15  1  0  0  0  0
  3  5  1  0  0  0  0
  5  6  1  0  0  0  0
  6  7  1  0  0  0  0
  7  8  1  0  0  0  0
  8 13  2  0  0  0  0
  8  9  1  0  0  0  0
  9 10  2  0  0  0  0
 10 11  1  0  0  0  0
 11 12  2  0  0  0  0
 12 13  1  0  0  0  0
  6 14  2  0  0  0  0
 14 15  1  0  0  0  0
 15 16  1  6  0  0  0
 15 17  1  0  0  0  0
 17 23  2  0  0  0  0
 17 18  1  0  0  0  0
 18 19  2  0  0  0  0
 19 20  1  0  0  0  0
 20 21  2  0  0  0  0
 21 22  1  0  0  0  0
 21 23  1  0  0  0  0
  2 24  2  0  0  0  0
M  END
$$$$
DAR-DIA-43a-3
  -OEChem-03222016562D

 24 26  0     1  0  0  0  0  0999 V2000
   -0.4180   -2.0075    0.0000 N   0  0  0  0  0  0  0  0  0  0  0  0
    0.2498   -2.7518    0.0000 C   0  0  0  0  0  0  0  0  0  0  0  0
    1.2284   -2.5456    0.0000 C   0  0  1  0  0  0  0  0  0  0  0  0
    1.3318   -3.5403    0.0000 H   0  0  0  0  0  0  0  0  0  0  0  0
    0.9211   -1.5923    0.0000 C   0  0  0  0  0  0  0  0  0  0  0  0
    1.7313   -1.0038    0.0000 C   0  0  0  0  0  0  0  0  0  0  0  0
    1.7328   -0.0038    0.0000 C   0  0  0  0  0  0  0  0  0  0  0  0
    0.8675    0.4975    0.0000 C   0  0  0  0  0  0  0  0  0  0  0  0
    0.8675    1.5027    0.0000 C   0  0  0  0  0  0  0  0  0  0  0  0
   -0.0000    2.0104    0.0000 N   0  0  0  0  0  0  0  0  0  0  0  0
   -0.8675    1.5027    0.0000 C   0  0  0  0  0  0  0  0  0  0  0  0
   -0.8675    0.4975    0.0000 C   0  0  0  0  0  0  0  0  0  0  0  0
    0.0000    0.0000    0.0000 C   0  0  0  0  0  0  0  0  0  0  0  0
    2.5388   -1.5938    0.0000 C   0  0  0  0  0  0  0  0  0  0  0  0
    2.2328   -2.5461    0.0000 C   0  0  1  0  0  0  0  0  0  0  0  0
    2.1290   -3.5407    0.0000 H   0  0  0  0  0  0  0  0  0  0  0  0
    3.2114   -2.7520    0.0000 C   0  0  0  0  0  0  0  0  0  0  0  0
    3.5211   -3.7083    0.0000 C   0  0  0  0  0  0  0  0  0  0  0  0
    4.4997   -3.9143    0.0000 C   0  0  0  0  0  0  0  0  0  0  0  0
    5.1717   -3.1737    0.0000 C   0  0  0  0  0  0  0  0  0  0  0  0
    4.8619   -2.2174    0.0000 C   0  0  0  0  0  0  0  0  0  0  0  0
    5.5339   -1.4768    0.0000 I   0  0  0  0  0  0  0  0  0  0  0  0
    3.8802   -2.0017    0.0000 C   0  0  0  0  0  0  0  0  0  0  0  0
   -0.0609   -3.7023    0.0000 O   0  0  0  0  0  0  0  0  0  0  0  0
  1  2  1  0  0  0  0
  2  3  1  0  0  0  0
  3  4  1  6  0  0  0
  3 15  1  0  0  0  0
  3  5  1  0  0  0  0
  5  6  1  0  0  0  0
  6  7  1  0  0  0  0
  7  8  1  0  0  0  0
  8 13  2  0  0  0  0
  8  9  1  0  0  0  0
  9 10  2  0  0  0  0
 10 11  1  0  0  0  0
 11 12  2  0  0  0  0
 12 13  1  0  0  0  0
  6 14  2  0  0  0  0
 14 15  1  0  0  0  0
 15 16  1  6  0  0  0
 15 17  1  0  0  0  0
 17 23  2  0  0  0  0
 17 18  1  0  0  0  0
 18 19  2  0  0  0  0
 19 20  1  0  0  0  0
 20 21  2  0  0  0  0
 21 22  1  0  0  0  0
 21 23  1  0  0  0  0
  2 24  2  0  0  0  0
M  END
$$$$
DAR-DIA-43a-4
  -OEChem-03222016562D

 27 29  0     1  0  0  0  0  0999 V2000
   -0.4180   -2.0075    0.0000 N   0  0  0  0  0  0  0  0  0  0  0  0
    0.2498   -2.7518    0.0000 C   0  0  0  0  0  0  0  0  0  0  0  0
    1.2284   -2.5456    0.0000 C   0  0  1  0  0  0  0  0  0  0  0  0
    1.3318   -3.5403    0.0000 H   0  0  0  0  0  0  0  0  0  0  0  0
    0.9211   -1.5923    0.0000 C   0  0  0  0  0  0  0  0  0  0  0  0
    1.7313   -1.0038    0.0000 C   0  0  0  0  0  0  0  0  0  0  0  0
    1.7328   -0.0038    0.0000 C   0  0  0  0  0  0  0  0  0  0  0  0
    0.8675    0.4975    0.0000 C   0  0  0  0  0  0  0  0  0  0  0  0
    0.8675    1.5027    0.0000 C   0  0  0  0  0  0  0  0  0  0  0  0
   -0.0000    2.0104    0.0000 N   0  0  0  0  0  0  0  0  0  0  0  0
   -0.8675    1.5027    0.0000 C   0  0  0  0  0  0  0  0  0  0  0  0
   -0.8675    0.4975    0.0000 C   0  0  0  0  0  0  0  0  0  0  0  0
    0.0000    0.0000    0.0000 C   0  0  0  0  0  0  0  0  0  0  0  0
    2.5388   -1.5938    0.0000 C   0  0  0  0  0  0  0  0  0  0  0  0
    2.2328   -2.5461    0.0000 C   0  0  1  0  0  0  0  0  0  0  0  0
    2.1290   -3.5407    0.0000 H   0  0  0  0  0  0  0  0  0  0  0  0
    3.2114   -2.7520    0.0000 C   0  0  0  0  0  0  0  0  0  0  0  0
    3.5211   -3.7083    0.0000 C   0  0  0  0  0  0  0  0  0  0  0  0
    4.4997   -3.9143    0.0000 C   0  0  0  0  0  0  0  0  0  0  0  0
    5.1717   -3.1737    0.0000 C   0  0  0  0  0  0  0  0  0  0  0  0
    4.8619   -2.2174    0.0000 C   0  0  0  0  0  0  0  0  0  0  0  0
    5.5339   -1.4768    0.0000 C   0  0  0  0  0  0  0  0  0  0  0  0
    4.7934   -0.8048    0.0000 F   0  0  0  0  0  0  0  0  0  0  0  0
    6.2745   -2.1488    0.0000 F   0  0  0  0  0  0  0  0  0  0  0  0
    6.2059   -0.7363    0.0000 F   0  0  0  0  0  0  0  0  0  0  0  0
    3.8802   -2.0017    0.0000 C   0  0  0  0  0  0  0  0  0  0  0  0
   -0.0609   -3.7023    0.0000 O   0  0  0  0  0  0  0  0  0  0  0  0
  1  2  1  0  0  0  0
  2  3  1  0  0  0  0
  3  4  1  6  0  0  0
  3 15  1  0  0  0  0
  3  5  1  0  0  0  0
  5  6  1  0  0  0  0
  6  7  1  0  0  0  0
  7  8  1  0  0  0  0
  8 13  2  0  0  0  0
  8  9  1  0  0  0  0
  9 10  2  0  0  0  0
 10 11  1  0  0  0  0
 11 12  2  0  0  0  0
 12 13  1  0  0  0  0
  6 14  2  0  0  0  0
 14 15  1  0  0  0  0
 15 16  1  6  0  0  0
 15 17  1  0  0  0  0
 17 26  2  0  0  0  0
 17 18  1  0  0  0  0
 18 19  2  0  0  0  0
 19 20  1  0  0  0  0
 20 21  2  0  0  0  0
 21 22  1  0  0  0  0
 22 23  1  0  0  0  0
 22 24  1  0  0  0  0
 22 25  1  0  0  0  0
 21 26  1  0  0  0  0
  2 27  2  0  0  0  0
M  END
$$$$
DAR-DIA-43a-5
  -OEChem-03222016562D

 25 27  0     1  0  0  0  0  0999 V2000
    4.2563   -3.8569    0.0000 N   0  0  0  0  0  0  0  0  0  0  0  0
    3.9453   -2.9065    0.0000 C   0  0  0  0  0  0  0  0  0  0  0  0
    2.2328   -2.5461    0.0000 C   0  0  1  0  0  0  0  0  0  0  0  0
    2.1290   -3.5407    0.0000 H   0  0  0  0  0  0  0  0  0  0  0  0
    2.5388   -1.5938    0.0000 C   0  0  3  0  0  0  0  0  0  0  0  0
    3.4897   -1.2845    0.0000 O   0  0  0  0  0  0  0  0  0  0  0  0
    1.7313   -1.0038    0.0000 C   0  0  0  0  0  0  0  0  0  0  0  0
    1.7328   -0.0038    0.0000 C   0  0  0  0  0  0  0  0  0  0  0  0
    0.8675    0.4975    0.0000 C   0  0  0  0  0  0  0  0  0  0  0  0
    0.8675    1.5027    0.0000 C   0  0  0  0  0  0  0  0  0  0  0  0
   -0.0000    2.0104    0.0000 N   0  0  0  0  0  0  0  0  0  0  0  0
   -0.8675    1.5027    0.0000 C   0  0  0  0  0  0  0  0  0  0  0  0
   -0.8675    0.4975    0.0000 C   0  0  0  0  0  0  0  0  0  0  0  0
    0.0000    0.0000    0.0000 C   0  0  0  0  0  0  0  0  0  0  0  0
    0.9211   -1.5923    0.0000 C   0  0  0  0  0  0  0  0  0  0  0  0
    1.2284   -2.5456    0.0000 C   0  0  1  0  0  0  0  0  0  0  0  0
    1.3318   -3.5403    0.0000 H   0  0  0  0  0  0  0  0  0  0  0  0
    0.2498   -2.7518    0.0000 C   0  0  0  0  0  0  0  0  0  0  0  0
   -0.4192   -2.0016    0.0000 C   0  0  0  0  0  0  0  0  0  0  0  0
   -1.3978   -2.2078    0.0000 C   0  0  0  0  0  0  0  0  0  0  0  0
   -1.7141   -3.1565    0.0000 C   0  0  0  0  0  0  0  0  0  0  0  0
   -1.0450   -3.9066    0.0000 C   0  0  0  0  0  0  0  0  0  0  0  0
   -1.3613   -4.8553    0.0000 Cl  0  0  0  0  0  0  0  0  0  0  0  0
   -0.0596   -3.7081    0.0000 C   0  0  0  0  0  0  0  0  0  0  0  0
    4.6129   -2.1620    0.0000 O   0  0  0  0  0  0  0  0  0  0  0  0
  1  2  1  0  0  0  0
  2  3  1  0  0  0  0
  3  4  1  1  0  0  0
  3 16  1  0  0  0  0
  3  5  1  0  0  0  0
  5  6  1  0  0  0  0
  5  7  1  0  0  0  0
  7  8  1  0  0  0  0
  8  9  1  0  0  0  0
  9 14  2  0  0  0  0
  9 10  1  0  0  0  0
 10 11  2  0  0  0  0
 11 12  1  0  0  0  0
 12 13  2  0  0  0  0
 13 14  1  0  0  0  0
  7 15  2  0  0  0  0
 15 16  1  0  0  0  0
 16 17  1  1  0  0  0
 16 18  1  0  0  0  0
 18 24  2  0  0  0  0
 18 19  1  0  0  0  0
 19 20  2  0  0  0  0
 20 21  1  0  0  0  0
 21 22  2  0  0  0  0
 22 23  1  0  0  0  0
 22 24  1  0  0  0  0
  2 25  2  0  0  0  0
M  END
$$$$
DAR-DIA-43a-6
  -OEChem-03222016562D

 26 28  0     1  0  0  0  0  0999 V2000
    1.1380   -4.6941    0.0000 N   0  0  0  0  0  0  0  0  0  0  0  0
    2.0512   -4.2867    0.0000 C   0  0  0  0  0  0  0  0  0  0  0  0
    2.8607   -4.8738    0.0000 O   0  0  0  0  0  0  0  0  0  0  0  0
    2.2328   -2.5461    0.0000 C   0  0  1  0  0  0  0  0  0  0  0  0
    3.2114   -2.7520    0.0000 H   0  0  0  0  0  0  0  0  0  0  0  0
    1.2283   -2.5456    0.0000 C   0  0  1  0  0  0  0  0  0  0  0  0
    1.3318   -3.5403    0.0000 H   0  0  0  0  0  0  0  0  0  0  0  0
    0.2498   -2.7518    0.0000 C   0  0  0  0  0  0  0  0  0  0  0  0
   -0.4192   -2.0017    0.0000 C   0  0  0  0  0  0  0  0  0  0  0  0
   -1.4009   -2.2176    0.0000 C   0  0  0  0  0  0  0  0  0  0  0  0
   -2.0731   -1.4772    0.0000 Cl  0  0  0  0  0  0  0  0  0  0  0  0
   -1.7104   -3.1740    0.0000 C   0  0  0  0  0  0  0  0  0  0  0  0
   -1.0382   -3.9144    0.0000 C   0  0  0  0  0  0  0  0  0  0  0  0
   -0.0597   -3.7082    0.0000 C   0  0  0  0  0  0  0  0  0  0  0  0
    0.9211   -1.5923    0.0000 C   0  0  0  0  0  0  0  0  0  0  0  0
    1.7313   -1.0038    0.0000 C   0  0  0  0  0  0  0  0  0  0  0  0
    1.7328   -0.0038    0.0000 C   0  0  0  0  0  0  0  0  0  0  0  0
    0.8675    0.4975    0.0000 C   0  0  0  0  0  0  0  0  0  0  0  0
    0.0000    0.0000    0.0000 C   0  0  0  0  0  0  0  0  0  0  0  0
   -0.8675    0.4975    0.0000 C   0  0  0  0  0  0  0  0  0  0  0  0
   -0.8675    1.5027    0.0000 C   0  0  0  0  0  0  0  0  0  0  0  0
    0.0000    2.0104    0.0000 N   0  0  0  0  0  0  0  0  0  0  0  0
    0.8675    1.5027    0.0000 C   0  0  0  0  0  0  0  0  0  0  0  0
    2.5388   -1.5938    0.0000 C   0  0  2  0  0  0  0  0  0  0  0  0
    3.4528   -1.9994    0.0000 H   0  0  0  0  0  0  0  0  0  0  0  0
    3.0394   -0.7282    0.0000 O   0  0  0  0  0  0  0  0  0  0  0  0
  1  2  1  0  0  0  0
  2  3  2  0  0  0  0
  2  4  1  0  0  0  0
  4  5  1  6  0  0  0
  4 24  1  0  0  0  0
  4  6  1  0  0  0  0
  6  7  1  6  0  0  0
  6  8  1  0  0  0  0
  8 14  2  0  0  0  0
  8  9  1  0  0  0  0
  9 10  2  0  0  0  0
 10 11  1  0  0  0  0
 10 12  1  0  0  0  0
 12 13  2  0  0  0  0
 13 14  1  0  0  0  0
  6 15  1  0  0  0  0
 15 16  2  0  0  0  0
 16 17  1  0  0  0  0
 17 18  1  0  0  0  0
 18 23  2  0  0  0  0
 18 19  1  0  0  0  0
 19 20  2  0  0  0  0
 20 21  1  0  0  0  0
 21 22  2  0  0  0  0
 22 23  1  0  0  0  0
 16 24  1  0  0  0  0
 24 25  1  1  0  0  0
 24 26  1  0  0  0  0
M  END
$$$$
DAR-DIA-43a-7
  -OEChem-03222016562D

 24 26  0     1  0  0  0  0  0999 V2000
    5.1412    0.1031    0.0000 N   0  0  0  0  0  0  0  0  0  0  0  0
    4.5527    0.9116    0.0000 C   0  0  0  0  0  0  0  0  0  0  0  0
    4.9587    1.8255    0.0000 O   0  0  0  0  0  0  0  0  0  0  0  0
    3.5583    0.8062    0.0000 C   0  0  2  0  0  0  0  0  0  0  0  0
    3.7658   -0.1720    0.0000 H   0  0  0  0  0  0  0  0  0  0  0  0
    2.6025    0.4974    0.0000 C   0  0  2  0  0  0  0  0  0  0  0  0
    3.0071   -0.4170    0.0000 H   0  0  0  0  0  0  0  0  0  0  0  0
    1.7350    0.0000    0.0000 C   0  0  0  0  0  0  0  0  0  0  0  0
    0.8675    0.5077    0.0000 C   0  0  0  0  0  0  0  0  0  0  0  0
    0.0000    0.0000    0.0000 C   0  0  0  0  0  0  0  0  0  0  0  0
   -0.8675    0.4974    0.0000 Cl  0  0  0  0  0  0  0  0  0  0  0  0
    0.0000   -1.0052    0.0000 C   0  0  0  0  0  0  0  0  0  0  0  0
    0.8675   -1.5027    0.0000 C   0  0  0  0  0  0  0  0  0  0  0  0
    1.7350   -1.0052    0.0000 C   0  0  0  0  0  0  0  0  0  0  0  0
    2.0167    1.3099    0.0000 C   0  0  0  0  0  0  0  0  0  0  0  0
    2.6063    2.1193    0.0000 C   0  0  0  0  0  0  0  0  0  0  0  0
    2.2998    3.0711    0.0000 C   0  0  0  0  0  0  0  0  0  0  0  0
    1.3222    3.2816    0.0000 C   0  0  0  0  0  0  0  0  0  0  0  0
    0.6498    2.5344    0.0000 C   0  0  0  0  0  0  0  0  0  0  0  0
   -0.3278    2.7448    0.0000 C   0  0  0  0  0  0  0  0  0  0  0  0
   -0.6399    3.6949    0.0000 C   0  0  0  0  0  0  0  0  0  0  0  0
    0.0325    4.4422    0.0000 C   0  0  0  0  0  0  0  0  0  0  0  0
    1.0169    4.2393    0.0000 C   0  0  0  0  0  0  0  0  0  0  0  0
    3.5562    1.8065    0.0000 C   0  0  0  0  0  0  0  0  0  0  0  0
  1  2  1  0  0  0  0
  2  3  2  0  0  0  0
  2  4  1  0  0  0  0
  4  5  1  1  0  0  0
  4 24  1  0  0  0  0
  4  6  1  0  0  0  0
  6  7  1  1  0  0  0
  6  8  1  0  0  0  0
  8 14  2  0  0  0  0
  8  9  1  0  0  0  0
  9 10  2  0  0  0  0
 10 11  1  0  0  0  0
 10 12  1  0  0  0  0
 12 13  2  0  0  0  0
 13 14  1  0  0  0  0
  6 15  1  0  0  0  0
 15 16  2  0  0  0  0
 16 17  1  0  0  0  0
 17 18  1  0  0  0  0
 18 23  1  0  0  0  0
 18 19  2  0  0  0  0
 19 20  1  0  0  0  0
 20 21  2  0  0  0  0
 21 22  1  0  0  0  0
 22 23  2  0  0  0  0
 16 24  1  0  0  0  0
M  END
$$$$
DAR-DIA-43a-8
  -OEChem-03222016562D

 23 25  0     1  0  0  0  0  0999 V2000
    0.4249    3.6708    0.0000 N   0  0  0  0  0  0  0  0  0  0  0  0
   -0.3841    4.2585    0.0000 C   0  0  0  0  0  0  0  0  0  0  0  0
   -1.2976    3.8516    0.0000 C   0  0  1  0  0  0  0  0  0  0  0  0
   -1.6074    4.8024    0.0000 H   0  0  0  0  0  0  0  0  0  0  0  0
   -0.7973    2.9839    0.0000 C   0  0  0  0  0  0  0  0  0  0  0  0
   -1.4660    2.2386    0.0000 C   0  0  0  0  0  0  0  0  0  0  0  0
   -1.2577    1.2605    0.0000 C   0  0  0  0  0  0  0  0  0  0  0  0
   -0.3065    0.9519    0.0000 C   0  0  0  0  0  0  0  0  0  0  0  0
    0.0000    0.0000    0.0000 C   0  0  0  0  0  0  0  0  0  0  0  0
    1.0015   -0.0000    0.0000 N   0  0  0  0  0  0  0  0  0  0  0  0
    1.3133    0.9519    0.0000 C   0  0  0  0  0  0  0  0  0  0  0  0
    0.5008    1.5428    0.0000 S   0  0  0  0  0  0  0  0  0  0  0  0
   -2.3792    2.6461    0.0000 C   0  0  0  0  0  0  0  0  0  0  0  0
   -2.2798    3.6414    0.0000 C   0  0  1  0  0  0  0  0  0  0  0  0
   -2.3870    4.6357    0.0000 H   0  0  0  0  0  0  0  0  0  0  0  0
   -3.2798    3.6375    0.0000 C   0  0  0  0  0  0  0  0  0  0  0  0
   -3.7833    4.5075    0.0000 C   0  0  0  0  0  0  0  0  0  0  0  0
   -4.7833    4.5037    0.0000 C   0  0  0  0  0  0  0  0  0  0  0  0
   -5.2850    3.6386    0.0000 C   0  0  0  0  0  0  0  0  0  0  0  0
   -4.7815    2.7685    0.0000 C   0  0  0  0  0  0  0  0  0  0  0  0
   -5.2833    1.9035    0.0000 Cl  0  0  0  0  0  0  0  0  0  0  0  0
   -3.7764    2.7636    0.0000 C   0  0  0  0  0  0  0  0  0  0  0  0
   -0.2797    5.2530    0.0000 O   0  0  0  0  0  0  0  0  0  0  0  0
  1  2  1  0  0  0  0
  2  3  1  0  0  0  0
  3  4  1  6  0  0  0
  3 14  1  0  0  0  0
  3  5  1  0  0  0  0
  5  6  1  0  0  0  0
  6  7  1  0  0  0  0
  7  8  1  0  0  0  0
  8 12  1  0  0  0  0
  8  9  2  0  0  0  0
  9 10  1  0  0  0  0
 10 11  2  0  0  0  0
 11 12  1  0  0  0  0
  6 13  2  0  0  0  0
 13 14  1  0  0  0  0
 14 15  1  6  0  0  0
 14 16  1  0  0  0  0
 16 22  2  0  0  0  0
 16 17  1  0  0  0  0
 17 18  2  0  0  0  0
 18 19  1  0  0  0  0
 19 20  2  0  0  0  0
 20 21  1  0  0  0  0
 20 22  1  0  0  0  0
  2 23  2  0  0  0  0
M  END
$$$$
DAR-DIA-43a-9
  -OEChem-03222016562D

 23 25  0     1  0  0  0  0  0999 V2000
   -3.7832    4.5016    0.0000 N   0  0  0  0  0  0  0  0  0  0  0  0
   -3.2798    3.6375    0.0000 C   0  0  0  0  0  0  0  0  0  0  0  0
   -3.7764    2.7695    0.0000 O   0  0  0  0  0  0  0  0  0  0  0  0
   -2.2798    3.6414    0.0000 C   0  0  2  0  0  0  0  0  0  0  0  0
   -2.3870    4.6357    0.0000 H   0  0  0  0  0  0  0  0  0  0  0  0
   -1.2976    3.8516    0.0000 C   0  0  2  0  0  0  0  0  0  0  0  0
   -1.6074    4.8025    0.0000 H   0  0  0  0  0  0  0  0  0  0  0  0
   -0.3841    4.2585    0.0000 C   0  0  0  0  0  0  0  0  0  0  0  0
    0.4274    3.6654    0.0000 C   0  0  0  0  0  0  0  0  0  0  0  0
    1.3419    4.0824    0.0000 C   0  0  0  0  0  0  0  0  0  0  0  0
    2.1544    3.4995    0.0000 Cl  0  0  0  0  0  0  0  0  0  0  0  0
    1.4439    5.0824    0.0000 C   0  0  0  0  0  0  0  0  0  0  0  0
    0.6314    5.6654    0.0000 C   0  0  0  0  0  0  0  0  0  0  0  0
   -0.2821    5.2585    0.0000 C   0  0  0  0  0  0  0  0  0  0  0  0
   -0.7973    2.9839    0.0000 C   0  0  0  0  0  0  0  0  0  0  0  0
   -1.4660    2.2386    0.0000 C   0  0  0  0  0  0  0  0  0  0  0  0
   -1.2577    1.2605    0.0000 C   0  0  0  0  0  0  0  0  0  0  0  0
   -0.3065    0.9519    0.0000 C   0  0  0  0  0  0  0  0  0  0  0  0
    0.5008    1.5428    0.0000 O   0  0  0  0  0  0  0  0  0  0  0  0
    1.3133    0.9519    0.0000 C   0  0  0  0  0  0  0  0  0  0  0  0
    1.0015    0.0000    0.0000 N   0  0  0  0  0  0  0  0  0  0  0  0
    0.0000    0.0000    0.0000 C   0  0  0  0  0  0  0  0  0  0  0  0
   -2.3792    2.6461    0.0000 C   0  0  0  0  0  0  0  0  0  0  0  0
  1  2  1  0  0  0  0
  2  3  2  0  0  0  0
  2  4  1  0  0  0  0
  4  5  1  1  0  0  0
  4 23  1  0  0  0  0
  4  6  1  0  0  0  0
  6  7  1  1  0  0  0
  6  8  1  0  0  0  0
  8 14  2  0  0  0  0
  8  9  1  0  0  0  0
  9 10  2  0  0  0  0
 10 11  1  0  0  0  0
 10 12  1  0  0  0  0
 12 13  2  0  0  0  0
 13 14  1  0  0  0  0
  6 15  1  0  0  0  0
 15 16  2  0  0  0  0
 16 17  1  0  0  0  0
 17 18  1  0  0  0  0
 18 22  2  0  0  0  0
 18 19  1  0  0  0  0
 19 20  1  0  0  0  0
 20 21  2  0  0  0  0
 21 22  1  0  0  0  0
 16 23  1  0  0  0  0
M  END
$$$$
DAR-DIA-43a-10
  -OEChem-03222016562D

 21 23  0     1  0  0  0  0  0999 V2000
   -4.0908    3.3294    0.0000 N   0  0  0  0  0  0  0  0  0  0  0  0
   -3.6848    2.4155    0.0000 C   0  0  0  0  0  0  0  0  0  0  0  0
   -2.6904    2.3101    0.0000 C   0  0  1  0  0  0  0  0  0  0  0  0
   -2.8985    1.3320    0.0000 H   0  0  0  0  0  0  0  0  0  0  0  0
   -2.6889    3.3118    0.0000 C   0  0  0  0  0  0  0  0  0  0  0  0
   -1.7368    3.6220    0.0000 C   0  0  0  0  0  0  0  0  0  0  0  0
   -1.4272    4.5729    0.0000 C   0  0  0  0  0  0  0  0  0  0  0  0
   -2.0960    5.3164    0.0000 C   0  0  0  0  0  0  0  0  0  0  0  0
   -2.3048    6.2962    0.0000 C   0  0  0  0  0  0  0  0  0  0  0  0
   -3.0483    5.6275    0.0000 C   0  0  0  0  0  0  0  0  0  0  0  0
   -1.1505    2.8118    0.0000 C   0  0  0  0  0  0  0  0  0  0  0  0
   -1.7350    2.0001    0.0000 C   0  0  1  0  0  0  0  0  0  0  0  0
   -2.1402    1.0859    0.0000 H   0  0  0  0  0  0  0  0  0  0  0  0
   -0.8675    1.5027    0.0000 C   0  0  0  0  0  0  0  0  0  0  0  0
   -0.8675    0.4975    0.0000 C   0  0  0  0  0  0  0  0  0  0  0  0
    0.0000    0.0000    0.0000 C   0  0  0  0  0  0  0  0  0  0  0  0
    0.8675    0.4975    0.0000 C   0  0  0  0  0  0  0  0  0  0  0  0
    0.8675    1.5027    0.0000 C   0  0  0  0  0  0  0  0  0  0  0  0
    1.7350    2.0001    0.0000 Cl  0  0  0  0  0  0  0  0  0  0  0  0
   -0.0000    2.0104    0.0000 C   0  0  0  0  0  0  0  0  0  0  0  0
   -4.2733    1.6070    0.0000 O   0  0  0  0  0  0  0  0  0  0  0  0
  1  2  1  0  0  0  0
  2  3  1  0  0  0  0
  3  4  1  6  0  0  0
  3 12  1  0  0  0  0
  3  5  1  0  0  0  0
  5  6  1  0  0  0  0
  6  7  1  0  0  0  0
  7  8  1  0  0  0  0
  8 10  1  0  0  0  0
  8  9  1  0  0  0  0
  9 10  1  0  0  0  0
  6 11  2  0  0  0  0
 11 12  1  0  0  0  0
 12 13  1  6  0  0  0
 12 14  1  0  0  0  0
 14 20  2  0  0  0  0
 14 15  1  0  0  0  0
 15 16  2  0  0  0  0
 16 17  1  0  0  0  0
 17 18  2  0  0  0  0
 18 19  1  0  0  0  0
 18 20  1  0  0  0  0
  2 21  2  0  0  0  0
M  END
$$$$
DAR-DIA-43a-11
  -OEChem-03222016562D

 24 26  0     1  0  0  0  0  0999 V2000
   -2.3571    1.5400    0.0000 N   0  0  0  0  0  0  0  0  0  0  0  0
   -3.1671    0.9535    0.0000 C   0  0  0  0  0  0  0  0  0  0  0  0
   -3.0642   -0.0412    0.0000 C   0  0  1  0  0  0  0  0  0  0  0  0
   -4.0642   -0.0402    0.0000 H   0  0  0  0  0  0  0  0  0  0  0  0
   -2.0839    0.1648    0.0000 C   0  0  0  0  0  0  0  0  0  0  0  0
   -1.5832   -0.7024    0.0000 C   0  0  0  0  0  0  0  0  0  0  0  0
   -0.5889   -0.8082    0.0000 C   0  0  0  0  0  0  0  0  0  0  0  0
    0.0000    0.0000    0.0000 C   0  0  0  0  0  0  0  0  0  0  0  0
    1.0015   -0.0000    0.0000 C   0  0  0  0  0  0  0  0  0  0  0  0
    1.3133    0.9519    0.0000 N   0  0  0  0  0  0  0  0  0  0  0  0
    2.2648    1.2596    0.0000 C   0  0  0  0  0  0  0  0  0  0  0  0
    0.5008    1.5428    0.0000 N   0  0  0  0  0  0  0  0  0  0  0  0
   -0.3065    0.9519    0.0000 C   0  0  0  0  0  0  0  0  0  0  0  0
   -2.2544   -1.4438    0.0000 C   0  0  0  0  0  0  0  0  0  0  0  0
   -3.1695   -1.0401    0.0000 C   0  0  1  0  0  0  0  0  0  0  0  0
   -4.1479   -0.8330    0.0000 H   0  0  0  0  0  0  0  0  0  0  0  0
   -3.4765   -1.9918    0.0000 C   0  0  0  0  0  0  0  0  0  0  0  0
   -4.4599   -2.2000    0.0000 C   0  0  0  0  0  0  0  0  0  0  0  0
   -4.7669   -3.1517    0.0000 C   0  0  0  0  0  0  0  0  0  0  0  0
   -4.1005   -3.8974    0.0000 C   0  0  0  0  0  0  0  0  0  0  0  0
   -3.1171   -3.6892    0.0000 C   0  0  0  0  0  0  0  0  0  0  0  0
   -2.4507   -4.4348    0.0000 Cl  0  0  0  0  0  0  0  0  0  0  0  0
   -2.8001   -2.7353    0.0000 C   0  0  0  0  0  0  0  0  0  0  0  0
   -4.0799    1.3618    0.0000 O   0  0  0  0  0  0  0  0  0  0  0  0
  1  2  1  0  0  0  0
  2  3  1  0  0  0  0
  3  4  1  6  0  0  0
  3 15  1  0  0  0  0
  3  5  1  0  0  0  0
  5  6  1  0  0  0  0
  6  7  1  0  0  0  0
  7  8  1  0  0  0  0
  8 13  1  0  0  0  0
  8  9  2  0  0  0  0
  9 10  1  0  0  0  0
 10 11  1  0  0  0  0
 10 12  1  0  0  0  0
 12 13  2  0  0  0  0
  6 14  2  0  0  0  0
 14 15  1  0  0  0  0
 15 16  1  6  0  0  0
 15 17  1  0  0  0  0
 17 23  2  0  0  0  0
 17 18  1  0  0  0  0
 18 19  2  0  0  0  0
 19 20  1  0  0  0  0
 20 21  2  0  0  0  0
 21 22  1  0  0  0  0
 21 23  1  0  0  0  0
  2 24  2  0  0  0  0
M  END
$$$$
DAR-DIA-43a-12
  -OEChem-03222016562D

 29 31  0     1  0  0  0  0  0999 V2000
    0.5996   -4.8731    0.0000 N   0  0  0  0  0  0  0  0  0  0  0  0
   -0.3135   -4.4653    0.0000 C   0  0  0  0  0  0  0  0  0  0  0  0
   -1.1231   -5.0522    0.0000 C   0  0  0  0  0  0  0  0  0  0  0  0
   -2.0362   -4.6444    0.0000 C   0  0  0  0  0  0  0  0  0  0  0  0
   -2.8459   -5.2313    0.0000 C   0  0  0  0  0  0  0  0  0  0  0  0
   -3.7590   -4.8235    0.0000 N   0  0  0  0  0  0  0  0  0  0  0  0
    1.4093   -4.2862    0.0000 C   0  0  0  0  0  0  0  0  0  0  0  0
    1.2284   -2.5456    0.0000 C   0  0  1  0  0  0  0  0  0  0  0  0
    0.2498   -2.7518    0.0000 H   0  0  0  0  0  0  0  0  0  0  0  0
    0.9211   -1.5923    0.0000 C   0  0  0  0  0  0  0  0  0  0  0  0
    1.7313   -1.0038    0.0000 C   0  0  0  0  0  0  0  0  0  0  0  0
    1.7328   -0.0038    0.0000 C   0  0  0  0  0  0  0  0  0  0  0  0
    0.8675    0.4975    0.0000 C   0  0  0  0  0  0  0  0  0  0  0  0
    0.8675    1.5027    0.0000 C   0  0  0  0  0  0  0  0  0  0  0  0
   -0.0000    2.0104    0.0000 N   0  0  0  0  0  0  0  0  0  0  0  0
   -0.8675    1.5027    0.0000 C   0  0  0  0  0  0  0  0  0  0  0  0
   -0.8675    0.4975    0.0000 C   0  0  0  0  0  0  0  0  0  0  0  0
    0.0000    0.0000    0.0000 C   0  0  0  0  0  0  0  0  0  0  0  0
    2.5388   -1.5938    0.0000 C   0  0  0  0  0  0  0  0  0  0  0  0
    2.2328   -2.5461    0.0000 C   0  0  1  0  0  0  0  0  0  0  0  0
    2.1290   -3.5407    0.0000 H   0  0  0  0  0  0  0  0  0  0  0  0
    3.2114   -2.7520    0.0000 C   0  0  0  0  0  0  0  0  0  0  0  0
    3.5211   -3.7083    0.0000 C   0  0  0  0  0  0  0  0  0  0  0  0
    4.4997   -3.9143    0.0000 C   0  0  0  0  0  0  0  0  0  0  0  0
    5.1717   -3.1737    0.0000 C   0  0  0  0  0  0  0  0  0  0  0  0
    4.8619   -2.2174    0.0000 C   0  0  0  0  0  0  0  0  0  0  0  0
    5.5339   -1.4768    0.0000 Cl  0  0  0  0  0  0  0  0  0  0  0  0
    3.8802   -2.0017    0.0000 C   0  0  0  0  0  0  0  0  0  0  0  0
    2.3224   -4.6940    0.0000 O   0  0  0  0  0  0  0  0  0  0  0  0
  1  2  1  0  0  0  0
  2  3  1  0  0  0  0
  3  4  1  0  0  0  0
  4  5  1  0  0  0  0
  5  6  1  0  0  0  0
  1  7  1  0  0  0  0
  7  8  1  0  0  0  0
  8  9  1  6  0  0  0
  8 20  1  0  0  0  0
  8 10  1  0  0  0  0
 10 11  1  0  0  0  0
 11 12  1  0  0  0  0
 12 13  1  0  0  0  0
 13 18  2  0  0  0  0
 13 14  1  0  0  0  0
 14 15  2  0  0  0  0
 15 16  1  0  0  0  0
 16 17  2  0  0  0  0
 17 18  1  0  0  0  0
 11 19  2  0  0  0  0
 19 20  1  0  0  0  0
 20 21  1  6  0  0  0
 20 22  1  0  0  0  0
 22 28  2  0  0  0  0
 22 23  1  0  0  0  0
 23 24  2  0  0  0  0
 24 25  1  0  0  0  0
 25 26  2  0  0  0  0
 26 27  1  0  0  0  0
 26 28  1  0  0  0  0
  7 29  2  0  0  0  0
M  END
$$$$
DAR-DIA-43a-13
  -OEChem-03222016562D

 27 29  0     1  0  0  0  0  0999 V2000
    3.5223   -3.7025    0.0000 N   0  0  0  0  0  0  0  0  0  0  0  0
    3.2114   -2.7520    0.0000 C   0  0  0  0  0  0  0  0  0  0  0  0
    3.8790   -2.0075    0.0000 O   0  0  0  0  0  0  0  0  0  0  0  0
    2.2328   -2.5461    0.0000 C   0  0  2  0  0  0  0  0  0  0  0  0
    2.1290   -3.5407    0.0000 H   0  0  0  0  0  0  0  0  0  0  0  0
    1.2283   -2.5456    0.0000 C   0  0  2  0  0  0  0  0  0  0  0  0
    1.3318   -3.5403    0.0000 H   0  0  0  0  0  0  0  0  0  0  0  0
    0.2498   -2.7518    0.0000 C   0  0  0  0  0  0  0  0  0  0  0  0
   -0.4192   -2.0017    0.0000 C   0  0  0  0  0  0  0  0  0  0  0  0
   -1.4009   -2.2176    0.0000 C   0  0  0  0  0  0  0  0  0  0  0  0
   -2.0731   -1.4772    0.0000 Cl  0  0  0  0  0  0  0  0  0  0  0  0
   -1.7104   -3.1740    0.0000 C   0  0  0  0  0  0  0  0  0  0  0  0
   -1.0382   -3.9144    0.0000 C   0  0  0  0  0  0  0  0  0  0  0  0
   -0.0597   -3.7082    0.0000 C   0  0  0  0  0  0  0  0  0  0  0  0
    0.9211   -1.5923    0.0000 C   0  0  0  0  0  0  0  0  0  0  0  0
    1.7313   -1.0038    0.0000 C   0  0  0  0  0  0  0  0  0  0  0  0
    1.7328   -0.0038    0.0000 C   0  0  0  0  0  0  0  0  0  0  0  0
    0.8675    0.4975    0.0000 C   0  0  0  0  0  0  0  0  0  0  0  0
    0.0000    0.0000    0.0000 C   0  0  0  0  0  0  0  0  0  0  0  0
   -0.8675    0.4975    0.0000 C   0  0  0  0  0  0  0  0  0  0  0  0
   -0.8675    1.5027    0.0000 C   0  0  0  0  0  0  0  0  0  0  0  0
    0.0000    2.0104    0.0000 N   0  0  0  0  0  0  0  0  0  0  0  0
    0.8675    1.5027    0.0000 C   0  0  0  0  0  0  0  0  0  0  0  0
    2.5388   -1.5938    0.0000 C   0  0  0  0  0  0  0  0  0  0  0  0
    4.5009   -3.9084    0.0000 C   0  0  0  0  0  0  0  0  0  0  0  0
    4.8118   -4.8588    0.0000 C   0  0  0  0  0  0  0  0  0  0  0  0
    5.7904   -5.0647    0.0000 N   0  0  0  0  0  0  0  0  0  0  0  0
  1  2  1  0  0  0  0
  2  3  2  0  0  0  0
  2  4  1  0  0  0  0
  4  5  1  1  0  0  0
  4 24  1  0  0  0  0
  4  6  1  0  0  0  0
  6  7  1  1  0  0  0
  6  8  1  0  0  0  0
  8 14  2  0  0  0  0
  8  9  1  0  0  0  0
  9 10  2  0  0  0  0
 10 11  1  0  0  0  0
 10 12  1  0  0  0  0
 12 13  2  0  0  0  0
 13 14  1  0  0  0  0
  6 15  1  0  0  0  0
 15 16  2  0  0  0  0
 16 17  1  0  0  0  0
 17 18  1  0  0  0  0
 18 23  2  0  0  0  0
 18 19  1  0  0  0  0
 19 20  2  0  0  0  0
 20 21  1  0  0  0  0
 21 22  2  0  0  0  0
 22 23  1  0  0  0  0
 16 24  1  0  0  0  0
  1 25  1  0  0  0  0
 25 26  1  0  0  0  0
 26 27  1  0  0  0  0
M  END
$$$$
DAR-DIA-43a-14
  -OEChem-03222016562D

 29 31  0     1  0  0  0  0  0999 V2000
    3.5223   -3.7025    0.0000 N   0  0  0  0  0  0  0  0  0  0  0  0
    3.2114   -2.7520    0.0000 C   0  0  0  0  0  0  0  0  0  0  0  0
    3.8790   -2.0075    0.0000 O   0  0  0  0  0  0  0  0  0  0  0  0
    2.2328   -2.5461    0.0000 C   0  0  2  0  0  0  0  0  0  0  0  0
    2.1290   -3.5407    0.0000 H   0  0  0  0  0  0  0  0  0  0  0  0
    1.2283   -2.5456    0.0000 C   0  0  2  0  0  0  0  0  0  0  0  0
    1.3318   -3.5403    0.0000 H   0  0  0  0  0  0  0  0  0  0  0  0
    0.2498   -2.7518    0.0000 C   0  0  0  0  0  0  0  0  0  0  0  0
   -0.4192   -2.0017    0.0000 C   0  0  0  0  0  0  0  0  0  0  0  0
   -1.4009   -2.2176    0.0000 C   0  0  0  0  0  0  0  0  0  0  0  0
   -2.0731   -1.4772    0.0000 Cl  0  0  0  0  0  0  0  0  0  0  0  0
   -1.7104   -3.1740    0.0000 C   0  0  0  0  0  0  0  0  0  0  0  0
   -1.0382   -3.9144    0.0000 C   0  0  0  0  0  0  0  0  0  0  0  0
   -0.0597   -3.7082    0.0000 C   0  0  0  0  0  0  0  0  0  0  0  0
    0.9211   -1.5923    0.0000 C   0  0  0  0  0  0  0  0  0  0  0  0
    1.7313   -1.0038    0.0000 C   0  0  0  0  0  0  0  0  0  0  0  0
    1.7328   -0.0038    0.0000 C   0  0  0  0  0  0  0  0  0  0  0  0
    0.8675    0.4975    0.0000 C   0  0  0  0  0  0  0  0  0  0  0  0
    0.0000    0.0000    0.0000 C   0  0  0  0  0  0  0  0  0  0  0  0
   -0.8675    0.4975    0.0000 C   0  0  0  0  0  0  0  0  0  0  0  0
   -0.8675    1.5027    0.0000 C   0  0  0  0  0  0  0  0  0  0  0  0
    0.0000    2.0104    0.0000 N   0  0  0  0  0  0  0  0  0  0  0  0
    0.8675    1.5027    0.0000 C   0  0  0  0  0  0  0  0  0  0  0  0
    2.5388   -1.5938    0.0000 C   0  0  0  0  0  0  0  0  0  0  0  0
    4.5009   -3.9084    0.0000 C   0  0  0  0  0  0  0  0  0  0  0  0
    4.8118   -4.8588    0.0000 C   0  0  0  0  0  0  0  0  0  0  0  0
    5.7904   -5.0647    0.0000 C   0  0  0  0  0  0  0  0  0  0  0  0
    6.4580   -4.3202    0.0000 C   0  0  0  0  0  0  0  0  0  0  0  0
    6.1014   -6.0151    0.0000 C   0  0  0  0  0  0  0  0  0  0  0  0
  1  2  1  0  0  0  0
  2  3  2  0  0  0  0
  2  4  1  0  0  0  0
  4  5  1  1  0  0  0
  4 24  1  0  0  0  0
  4  6  1  0  0  0  0
  6  7  1  1  0  0  0
  6  8  1  0  0  0  0
  8 14  2  0  0  0  0
  8  9  1  0  0  0  0
  9 10  2  0  0  0  0
 10 11  1  0  0  0  0
 10 12  1  0  0  0  0
 12 13  2  0  0  0  0
 13 14  1  0  0  0  0
  6 15  1  0  0  0  0
 15 16  2  0  0  0  0
 16 17  1  0  0  0  0
 17 18  1  0  0  0  0
 18 23  2  0  0  0  0
 18 19  1  0  0  0  0
 19 20  2  0  0  0  0
 20 21  1  0  0  0  0
 21 22  2  0  0  0  0
 22 23  1  0  0  0  0
 16 24  1  0  0  0  0
  1 25  1  0  0  0  0
 25 26  1  0  0  0  0
 26 27  1  0  0  0  0
 27 28  1  0  0  0  0
 27 29  1  0  0  0  0
M  END
$$$$
DAR-DIA-43a-15
  -OEChem-03222016562D

 32 35  0     1  0  0  0  0  0999 V2000
    3.5223   -3.7025    0.0000 N   0  0  0  0  0  0  0  0  0  0  0  0
    3.2114   -2.7520    0.0000 C   0  0  0  0  0  0  0  0  0  0  0  0
    3.8790   -2.0075    0.0000 O   0  0  0  0  0  0  0  0  0  0  0  0
    2.2328   -2.5461    0.0000 C   0  0  2  0  0  0  0  0  0  0  0  0
    2.1290   -3.5407    0.0000 H   0  0  0  0  0  0  0  0  0  0  0  0
    1.2283   -2.5456    0.0000 C   0  0  2  0  0  0  0  0  0  0  0  0
    1.3318   -3.5403    0.0000 H   0  0  0  0  0  0  0  0  0  0  0  0
    0.2498   -2.7518    0.0000 C   0  0  0  0  0  0  0  0  0  0  0  0
   -0.4192   -2.0017    0.0000 C   0  0  0  0  0  0  0  0  0  0  0  0
   -1.4009   -2.2176    0.0000 C   0  0  0  0  0  0  0  0  0  0  0  0
   -2.0731   -1.4772    0.0000 Cl  0  0  0  0  0  0  0  0  0  0  0  0
   -1.7104   -3.1740    0.0000 C   0  0  0  0  0  0  0  0  0  0  0  0
   -1.0382   -3.9144    0.0000 C   0  0  0  0  0  0  0  0  0  0  0  0
   -0.0597   -3.7082    0.0000 C   0  0  0  0  0  0  0  0  0  0  0  0
    0.9211   -1.5923    0.0000 C   0  0  0  0  0  0  0  0  0  0  0  0
    1.7313   -1.0038    0.0000 C   0  0  0  0  0  0  0  0  0  0  0  0
    1.7328   -0.0038    0.0000 C   0  0  0  0  0  0  0  0  0  0  0  0
    0.8675    0.4975    0.0000 C   0  0  0  0  0  0  0  0  0  0  0  0
    0.0000    0.0000    0.0000 C   0  0  0  0  0  0  0  0  0  0  0  0
   -0.8675    0.4975    0.0000 C   0  0  0  0  0  0  0  0  0  0  0  0
   -0.8675    1.5027    0.0000 C   0  0  0  0  0  0  0  0  0  0  0  0
    0.0000    2.0104    0.0000 N   0  0  0  0  0  0  0  0  0  0  0  0
    0.8675    1.5027    0.0000 C   0  0  0  0  0  0  0  0  0  0  0  0
    2.5388   -1.5938    0.0000 C   0  0  0  0  0  0  0  0  0  0  0  0
    4.5009   -3.9084    0.0000 C   0  0  0  0  0  0  0  0  0  0  0  0
    4.8118   -4.8588    0.0000 C   0  0  0  0  0  0  0  0  0  0  0  0
    5.7904   -5.0647    0.0000 N   0  0  0  0  0  0  0  0  0  0  0  0
    6.1086   -6.0182    0.0000 C   0  0  0  0  0  0  0  0  0  0  0  0
    7.0923   -6.2252    0.0000 C   0  0  0  0  0  0  0  0  0  0  0  0
    7.7577   -5.4787    0.0000 C   0  0  0  0  0  0  0  0  0  0  0  0
    7.4495   -4.5273    0.0000 C   0  0  0  0  0  0  0  0  0  0  0  0
    6.4659   -4.3204    0.0000 C   0  0  0  0  0  0  0  0  0  0  0  0
  1  2  1  0  0  0  0
  2  3  2  0  0  0  0
  2  4  1  0  0  0  0
  4  5  1  1  0  0  0
  4 24  1  0  0  0  0
  4  6  1  0  0  0  0
  6  7  1  1  0  0  0
  6  8  1  0  0  0  0
  8 14  2  0  0  0  0
  8  9  1  0  0  0  0
  9 10  2  0  0  0  0
 10 11  1  0  0  0  0
 10 12  1  0  0  0  0
 12 13  2  0  0  0  0
 13 14  1  0  0  0  0
  6 15  1  0  0  0  0
 15 16  2  0  0  0  0
 16 17  1  0  0  0  0
 17 18  1  0  0  0  0
 18 23  2  0  0  0  0
 18 19  1  0  0  0  0
 19 20  2  0  0  0  0
 20 21  1  0  0  0  0
 21 22  2  0  0  0  0
 22 23  1  0  0  0  0
 16 24  1  0  0  0  0
  1 25  1  0  0  0  0
 25 26  1  0  0  0  0
 26 27  1  0  0  0  0
 27 32  1  0  0  0  0
 27 28  1  0  0  0  0
 28 29  1  0  0  0  0
 29 30  1  0  0  0  0
 30 31  1  0  0  0  0
 31 32  1  0  0  0  0
M  END
$$$$
DAR-DIA-43a-16
  -OEChem-03222016562D

 32 35  0     1  0  0  0  0  0999 V2000
    1.7335   -2.9975    0.0000 N   0  0  0  0  0  0  0  0  0  0  0  0
    1.7335   -1.9975    0.0000 C   0  0  0  0  0  0  0  0  0  0  0  0
    0.8675   -1.4975    0.0000 C   0  0  0  0  0  0  0  0  0  0  0  0
    0.8675   -0.4975    0.0000 N   0  0  0  0  0  0  0  0  0  0  0  0
    0.0000    0.0000    0.0000 C   0  0  0  0  0  0  0  0  0  0  0  0
   -0.0000    1.0052    0.0000 C   0  0  0  0  0  0  0  0  0  0  0  0
    0.8675    1.5129    0.0000 O   0  0  0  0  0  0  0  0  0  0  0  0
    1.7350    1.0052    0.0000 C   0  0  0  0  0  0  0  0  0  0  0  0
    1.7350    0.0000    0.0000 C   0  0  0  0  0  0  0  0  0  0  0  0
    2.5996   -3.4975    0.0000 C   0  0  0  0  0  0  0  0  0  0  0  0
    4.1151   -2.6225    0.0000 C   0  0  1  0  0  0  0  0  0  0  0  0
    3.5278   -1.8131    0.0000 H   0  0  0  0  0  0  0  0  0  0  0  0
    4.8603   -1.9532    0.0000 C   0  0  0  0  0  0  0  0  0  0  0  0
    5.7281   -2.4531    0.0000 C   0  0  0  0  0  0  0  0  0  0  0  0
    6.6417   -2.0466    0.0000 C   0  0  0  0  0  0  0  0  0  0  0  0
    6.7466   -1.0521    0.0000 C   0  0  0  0  0  0  0  0  0  0  0  0
    7.6644   -0.6422    0.0000 C   0  0  0  0  0  0  0  0  0  0  0  0
    7.7742    0.3569    0.0000 N   0  0  0  0  0  0  0  0  0  0  0  0
    6.9569    0.9420    0.0000 C   0  0  0  0  0  0  0  0  0  0  0  0
    6.0391    0.5321    0.0000 C   0  0  0  0  0  0  0  0  0  0  0  0
    5.9386   -0.4629    0.0000 C   0  0  0  0  0  0  0  0  0  0  0  0
    5.5185   -3.4309    0.0000 C   0  0  0  0  0  0  0  0  0  0  0  0
    4.5242   -3.5398    0.0000 C   0  0  1  0  0  0  0  0  0  0  0  0
    3.5738   -3.8507    0.0000 H   0  0  0  0  0  0  0  0  0  0  0  0
    4.7352   -4.5173    0.0000 C   0  0  0  0  0  0  0  0  0  0  0  0
    3.9884   -5.1901    0.0000 C   0  0  0  0  0  0  0  0  0  0  0  0
    4.1993   -6.1676    0.0000 C   0  0  0  0  0  0  0  0  0  0  0  0
    5.1496   -6.4792    0.0000 C   0  0  0  0  0  0  0  0  0  0  0  0
    5.8965   -5.8064    0.0000 C   0  0  0  0  0  0  0  0  0  0  0  0
    6.8467   -6.1180    0.0000 Cl  0  0  0  0  0  0  0  0  0  0  0  0
    5.6931   -4.8221    0.0000 C   0  0  0  0  0  0  0  0  0  0  0  0
    2.5996   -4.4975    0.0000 O   0  0  0  0  0  0  0  0  0  0  0  0
  1  2  1  0  0  0  0
  2  3  1  0  0  0  0
  3  4  1  0  0  0  0
  4  9  1  0  0  0  0
  4  5  1  0  0  0  0
  5  6  1  0  0  0  0
  6  7  1  0  0  0  0
  7  8  1  0  0  0  0
  8  9  1  0  0  0  0
  1 10  1  0  0  0  0
 10 11  1  0  0  0  0
 11 12  1  6  0  0  0
 11 23  1  0  0  0  0
 11 13  1  0  0  0  0
 13 14  1  0  0  0  0
 14 15  1  0  0  0  0
 15 16  1  0  0  0  0
 16 21  2  0  0  0  0
 16 17  1  0  0  0  0
 17 18  2  0  0  0  0
 18 19  1  0  0  0  0
 19 20  2  0  0  0  0
 20 21  1  0  0  0  0
 14 22  2  0  0  0  0
 22 23  1  0  0  0  0
 23 24  1  6  0  0  0
 23 25  1  0  0  0  0
 25 31  2  0  0  0  0
 25 26  1  0  0  0  0
 26 27  2  0  0  0  0
 27 28  1  0  0  0  0
 28 29  2  0  0  0  0
 29 30  1  0  0  0  0
 29 31  1  0  0  0  0
 10 32  2  0  0  0  0
M  END
$$$$
DAR-DIA-43a-17
  -OEChem-03222016562D

 33 36  0     1  0  0  0  0  0999 V2000
    0.0015    4.0129    0.0000 N   0  0  0  0  0  0  0  0  0  0  0  0
    0.0015    3.0129    0.0000 C   0  0  0  0  0  0  0  0  0  0  0  0
    0.8675    2.5129    0.0000 C   0  0  0  0  0  0  0  0  0  0  0  0
    0.8675    1.5129    0.0000 N   0  0  0  0  0  0  0  0  0  0  0  0
    0.0000    1.0052    0.0000 C   0  0  0  0  0  0  0  0  0  0  0  0
    0.0000    0.0000    0.0000 C   0  0  0  0  0  0  0  0  0  0  0  0
    0.8675   -0.4975    0.0000 N   0  0  0  0  0  0  0  0  0  0  0  0
    0.8675   -1.4975    0.0000 C   0  0  0  0  0  0  0  0  0  0  0  0
    1.7350    0.0000    0.0000 C   0  0  0  0  0  0  0  0  0  0  0  0
    1.7350    1.0052    0.0000 C   0  0  0  0  0  0  0  0  0  0  0  0
   -0.8646    4.5129    0.0000 C   0  0  0  0  0  0  0  0  0  0  0  0
   -2.3801    3.6379    0.0000 C   0  0  1  0  0  0  0  0  0  0  0  0
   -1.7928    2.8285    0.0000 H   0  0  0  0  0  0  0  0  0  0  0  0
   -3.1253    2.9686    0.0000 C   0  0  0  0  0  0  0  0  0  0  0  0
   -3.9931    3.4685    0.0000 C   0  0  0  0  0  0  0  0  0  0  0  0
   -4.9067    3.0620    0.0000 C   0  0  0  0  0  0  0  0  0  0  0  0
   -5.0116    2.0675    0.0000 C   0  0  0  0  0  0  0  0  0  0  0  0
   -5.9294    1.6576    0.0000 C   0  0  0  0  0  0  0  0  0  0  0  0
   -6.0392    0.6585    0.0000 N   0  0  0  0  0  0  0  0  0  0  0  0
   -5.2219    0.0734    0.0000 C   0  0  0  0  0  0  0  0  0  0  0  0
   -4.3041    0.4833    0.0000 C   0  0  0  0  0  0  0  0  0  0  0  0
   -4.2036    1.4783    0.0000 C   0  0  0  0  0  0  0  0  0  0  0  0
   -3.7835    4.4463    0.0000 C   0  0  0  0  0  0  0  0  0  0  0  0
   -2.7892    4.5552    0.0000 C   0  0  1  0  0  0  0  0  0  0  0  0
   -1.8388    4.8661    0.0000 H   0  0  0  0  0  0  0  0  0  0  0  0
   -3.0002    5.5327    0.0000 C   0  0  0  0  0  0  0  0  0  0  0  0
   -2.2534    6.2055    0.0000 C   0  0  0  0  0  0  0  0  0  0  0  0
   -2.4643    7.1830    0.0000 C   0  0  0  0  0  0  0  0  0  0  0  0
   -3.4146    7.4946    0.0000 C   0  0  0  0  0  0  0  0  0  0  0  0
   -4.1615    6.8218    0.0000 C   0  0  0  0  0  0  0  0  0  0  0  0
   -5.1117    7.1335    0.0000 Cl  0  0  0  0  0  0  0  0  0  0  0  0
   -3.9581    5.8375    0.0000 C   0  0  0  0  0  0  0  0  0  0  0  0
   -0.8646    5.5129    0.0000 O   0  0  0  0  0  0  0  0  0  0  0  0
  1  2  1  0  0  0  0
  2  3  1  0  0  0  0
  3  4  1  0  0  0  0
  4 10  1  0  0  0  0
  4  5  1  0  0  0  0
  5  6  1  0  0  0  0
  6  7  1  0  0  0  0
  7  8  1  0  0  0  0
  7  9  1  0  0  0  0
  9 10  1  0  0  0  0
  1 11  1  0  0  0  0
 11 12  1  0  0  0  0
 12 13  1  6  0  0  0
 12 24  1  0  0  0  0
 12 14  1  0  0  0  0
 14 15  1  0  0  0  0
 15 16  1  0  0  0  0
 16 17  1  0  0  0  0
 17 22  2  0  0  0  0
 17 18  1  0  0  0  0
 18 19  2  0  0  0  0
 19 20  1  0  0  0  0
 20 21  2  0  0  0  0
 21 22  1  0  0  0  0
 15 23  2  0  0  0  0
 23 24  1  0  0  0  0
 24 25  1  6  0  0  0
 24 26  1  0  0  0  0
 26 32  2  0  0  0  0
 26 27  1  0  0  0  0
 27 28  2  0  0  0  0
 28 29  1  0  0  0  0
 29 30  2  0  0  0  0
 30 31  1  0  0  0  0
 30 32  1  0  0  0  0
 11 33  2  0  0  0  0
M  END
$$$$
AMD-U.A-3d2-1
  -OEChem-03222016562D

 15 16  0     0  0  0  0  0  0999 V2000
    3.4735    0.0022    0.0000 C   0  0  0  0  0  0  0  0  0  0  0  0
    4.3394    0.5024    0.0000 C   0  0  0  0  0  0  0  0  0  0  0  0
    5.2056    0.0027    0.0000 O   0  0  0  0  0  0  0  0  0  0  0  0
    4.3391    1.5024    0.0000 N   0  0  0  0  0  0  0  0  0  0  0  0
    5.2050    2.0027    0.0000 N   0  0  0  0  0  0  0  0  0  0  0  0
    2.6012    0.5067    0.0000 C   0  0  0  0  0  0  0  0  0  0  0  0
    1.7358    0.0000    0.0000 C   0  0  0  0  0  0  0  0  0  0  0  0
    0.8679    0.5078    0.0000 C   0  0  0  0  0  0  0  0  0  0  0  0
    0.0000    0.0000    0.0000 C   0  0  0  0  0  0  0  0  0  0  0  0
   -0.8675    0.4975    0.0000 O   0  0  0  0  0  0  0  0  0  0  0  0
   -0.0000   -1.0057    0.0000 C   0  0  0  0  0  0  0  0  0  0  0  0
    0.8679   -1.5035    0.0000 C   0  0  0  0  0  0  0  0  0  0  0  0
    1.7371   -1.0057    0.0000 C   0  0  0  0  0  0  0  0  0  0  0  0
    2.6038   -1.5046    0.0000 C   0  0  0  0  0  0  0  0  0  0  0  0
    3.4748   -1.0035    0.0000 C   0  0  0  0  0  0  0  0  0  0  0  0
  1  2  1  0  0  0  0
  2  3  2  0  0  0  0
  2  4  1  0  0  0  0
  4  5  1  0  0  0  0
  1 15  1  0  0  0  0
  1  6  2  0  0  0  0
  6  7  1  0  0  0  0
  7 13  1  0  0  0  0
  7  8  2  0  0  0  0
  8  9  1  0  0  0  0
  9 10  1  0  0  0  0
  9 11  2  0  0  0  0
 11 12  1  0  0  0  0
 12 13  2  0  0  0  0
 13 14  1  0  0  0  0
 14 15  2  0  0  0  0
M  END
$$$$
AMD-U.A-3d2-2
  -OEChem-03222016562D

 19 20  0     0  0  0  0  0  0999 V2000
    0.8707   -0.4993    0.0000 C   0  0  0  0  0  0  0  0  0  0  0  0
    0.0000    0.0000    0.0000 C   0  0  0  0  0  0  0  0  0  0  0  0
   -0.8653   -0.5013    0.0000 O   0  0  0  0  0  0  0  0  0  0  0  0
   -0.8638   -1.5013    0.0000 C   0  0  0  0  0  0  0  0  0  0  0  0
    0.0000    1.0089    0.0000 C   0  0  0  0  0  0  0  0  0  0  0  0
    0.8707    1.5185    0.0000 C   0  0  0  0  0  0  0  0  0  0  0  0
    1.7414    1.0089    0.0000 C   0  0  0  0  0  0  0  0  0  0  0  0
    2.6125    1.5125    0.0000 N   0  0  0  0  0  0  0  0  0  0  0  0
    3.4848    1.0014    0.0000 C   0  0  0  0  0  0  0  0  0  0  0  0
    3.4805   -0.0073    0.0000 C   0  0  0  0  0  0  0  0  0  0  0  0
    2.6039   -0.5053    0.0000 C   0  0  0  0  0  0  0  0  0  0  0  0
    2.5983   -1.5053    0.0000 C   0  0  0  0  0  0  0  0  0  0  0  0
    3.4615   -2.0101    0.0000 N   0  0  0  0  0  0  0  0  0  0  0  0
    4.1131   -1.6387    0.0000 H   0  0  0  0  0  0  0  0  0  0  0  0
    3.4560   -3.0101    0.0000 N   0  0  0  0  0  0  0  0  0  0  0  0
    4.1034   -3.3887    0.0000 H   0  0  0  0  0  0  0  0  0  0  0  0
    2.8044   -3.3815    0.0000 H   0  0  0  0  0  0  0  0  0  0  0  0
    1.7295   -2.0004    0.0000 O   0  0  0  0  0  0  0  0  0  0  0  0
    1.7371   -0.0000    0.0000 C   0  0  0  0  0  0  0  0  0  0  0  0
  1 19  1  0  0  0  0
  1  2  2  0  0  0  0
  2  3  1  0  0  0  0
  3  4  1  0  0  0  0
  2  5  1  0  0  0  0
  5  6  2  0  0  0  0
  6  7  1  0  0  0  0
  7 19  1  0  0  0  0
  7  8  2  0  0  0  0
  8  9  1  0  0  0  0
  9 10  2  0  0  0  0
 10 11  1  0  0  0  0
 11 12  1  0  0  0  0
 12 13  1  0  0  0  0
 13 14  1  0  0  0  0
 13 15  1  0  0  0  0
 15 16  1  0  0  0  0
 15 17  1  0  0  0  0
 12 18  2  0  0  0  0
 11 19  2  0  0  0  0
M  END
$$$$
ANT-DIA-3c7-1
  -OEChem-03222016562D

 21 23  0     0  0  0  0  0  0999 V2000
    1.3638   -1.7932    0.0000 O   0  0  0  0  0  0  0  0  0  0  0  0
    2.3431   -1.9958    0.0000 C   0  0  0  0  0  0  0  0  0  0  0  0
    3.0082   -1.2491    0.0000 C   0  0  0  0  0  0  0  0  0  0  0  0
    2.6940   -0.2997    0.0000 C   0  0  0  0  0  0  0  0  0  0  0  0
    1.7405    0.0044    0.0000 C   0  0  0  0  0  0  0  0  0  0  0  0
    1.7350    1.0052    0.0000 C   0  0  0  0  0  0  0  0  0  0  0  0
    0.8675    1.5129    0.0000 N   0  0  0  0  0  0  0  0  0  0  0  0
    0.0000    1.0052    0.0000 C   0  0  0  0  0  0  0  0  0  0  0  0
    0.0000    0.0000    0.0000 C   0  0  0  0  0  0  0  0  0  0  0  0
    0.8675   -0.4975    0.0000 C   0  0  0  0  0  0  0  0  0  0  0  0
    2.6851    1.3196    0.0000 N   0  0  0  0  0  0  0  0  0  0  0  0
    3.2780    0.5133    0.0000 C   0  0  0  0  0  0  0  0  0  0  0  0
    2.6572   -2.9452    0.0000 N   0  0  0  0  0  0  0  0  0  0  0  0
    1.9921   -3.6920    0.0000 C   0  0  0  0  0  0  0  0  0  0  0  0
    2.3107   -4.6453    0.0000 C   0  0  0  0  0  0  0  0  0  0  0  0
    3.2903   -4.8465    0.0000 C   0  0  0  0  0  0  0  0  0  0  0  0
    4.2699   -5.0476    0.0000 N   0  0  0  0  0  0  0  0  0  0  0  0
    1.6456   -5.3921    0.0000 C   0  0  0  0  0  0  0  0  0  0  0  0
    0.6652   -5.1952    0.0000 C   0  0  0  0  0  0  0  0  0  0  0  0
    0.3466   -4.2419    0.0000 C   0  0  0  0  0  0  0  0  0  0  0  0
    1.0084   -3.4854    0.0000 C   0  0  0  0  0  0  0  0  0  0  0  0
  1  2  2  0  0  0  0
  2  3  1  0  0  0  0
  3  4  1  0  0  0  0
  4 12  2  0  0  0  0
  4  5  1  0  0  0  0
  5 10  2  0  0  0  0
  5  6  1  0  0  0  0
  6  7  2  0  0  0  0
  7  8  1  0  0  0  0
  8  9  2  0  0  0  0
  9 10  1  0  0  0  0
  6 11  1  0  0  0  0
 11 12  1  0  0  0  0
  2 13  1  0  0  0  0
 13 14  1  0  0  0  0
 14 21  2  0  0  0  0
 14 15  1  0  0  0  0
 15 16  1  0  0  0  0
 16 17  3  0  0  0  0
 15 18  2  0  0  0  0
 18 19  1  0  0  0  0
 19 20  2  0  0  0  0
 20 21  1  0  0  0  0
M  END
$$$$
ANT-DIA-3c7-2
  -OEChem-03222016562D

 18 19  0     0  0  0  0  0  0999 V2000
    0.8646   -1.5025    0.0000 O   0  0  0  0  0  0  0  0  0  0  0  0
    1.7313   -1.0038    0.0000 C   0  0  0  0  0  0  0  0  0  0  0  0
    1.7328   -0.0038    0.0000 C   0  0  0  0  0  0  0  0  0  0  0  0
    0.8675    0.4975    0.0000 C   0  0  0  0  0  0  0  0  0  0  0  0
    0.0000    0.0000    0.0000 C   0  0  0  0  0  0  0  0  0  0  0  0
   -0.8675    0.4975    0.0000 C   0  0  0  0  0  0  0  0  0  0  0  0
   -0.8675    1.5027    0.0000 C   0  0  0  0  0  0  0  0  0  0  0  0
    0.0000    2.0104    0.0000 N   0  0  0  0  0  0  0  0  0  0  0  0
    0.8675    1.5027    0.0000 C   0  0  0  0  0  0  0  0  0  0  0  0
    2.5966   -1.5050    0.0000 N   0  0  0  0  0  0  0  0  0  0  0  0
    2.5952   -2.5050    0.0000 C   0  0  0  0  0  0  0  0  0  0  0  0
    3.4665   -3.0063    0.0000 C   0  0  0  0  0  0  0  0  0  0  0  0
    4.3325   -2.5063    0.0000 C   0  0  0  0  0  0  0  0  0  0  0  0
    5.1985   -2.0062    0.0000 N   0  0  0  0  0  0  0  0  0  0  0  0
    3.4651   -4.0063    0.0000 C   0  0  0  0  0  0  0  0  0  0  0  0
    2.6012   -4.5102    0.0000 C   0  0  0  0  0  0  0  0  0  0  0  0
    1.7299   -4.0089    0.0000 C   0  0  0  0  0  0  0  0  0  0  0  0
    1.7225   -3.0037    0.0000 C   0  0  0  0  0  0  0  0  0  0  0  0
  1  2  2  0  0  0  0
  2  3  1  0  0  0  0
  3  4  1  0  0  0  0
  4  9  2  0  0  0  0
  4  5  1  0  0  0  0
  5  6  2  0  0  0  0
  6  7  1  0  0  0  0
  7  8  2  0  0  0  0
  8  9  1  0  0  0  0
  2 10  1  0  0  0  0
 10 11  1  0  0  0  0
 11 18  2  0  0  0  0
 11 12  1  0  0  0  0
 12 13  1  0  0  0  0
 13 14  3  0  0  0  0
 12 15  2  0  0  0  0
 15 16  1  0  0  0  0
 16 17  2  0  0  0  0
 17 18  1  0  0  0  0
M  END
$$$$
ANT-DIA-3c7-3
  -OEChem-03222016562D

 24 26  0     0  0  0  0  0  0999 V2000
    1.3638   -1.7932    0.0000 O   0  0  0  0  0  0  0  0  0  0  0  0
    2.3431   -1.9958    0.0000 C   0  0  0  0  0  0  0  0  0  0  0  0
    3.0082   -1.2491    0.0000 C   0  0  0  0  0  0  0  0  0  0  0  0
    2.6940   -0.2997    0.0000 C   0  0  0  0  0  0  0  0  0  0  0  0
    1.7405    0.0044    0.0000 C   0  0  0  0  0  0  0  0  0  0  0  0
    1.7350    1.0052    0.0000 C   0  0  0  0  0  0  0  0  0  0  0  0
    0.8675    1.5129    0.0000 N   0  0  0  0  0  0  0  0  0  0  0  0
    0.0000    1.0052    0.0000 C   0  0  0  0  0  0  0  0  0  0  0  0
    0.0000    0.0000    0.0000 C   0  0  0  0  0  0  0  0  0  0  0  0
    0.8675   -0.4975    0.0000 C   0  0  0  0  0  0  0  0  0  0  0  0
    2.6851    1.3196    0.0000 N   0  0  0  0  0  0  0  0  0  0  0  0
    3.2780    0.5133    0.0000 C   0  0  0  0  0  0  0  0  0  0  0  0
    2.6572   -2.9452    0.0000 N   0  0  0  0  0  0  0  0  0  0  0  0
    1.9921   -3.6920    0.0000 C   0  0  0  0  0  0  0  0  0  0  0  0
    1.0084   -3.4854    0.0000 C   0  0  0  0  0  0  0  0  0  0  0  0
    0.6956   -2.5355    0.0000 C   0  0  0  0  0  0  0  0  0  0  0  0
    0.3829   -1.5857    0.0000 N   0  0  0  0  0  0  0  0  0  0  0  0
    0.3432   -4.2321    0.0000 C   0  0  0  0  0  0  0  0  0  0  0  0
    0.6518   -5.1833    0.0000 C   0  0  0  0  0  0  0  0  0  0  0  0
    1.6356   -5.3899    0.0000 C   0  0  0  0  0  0  0  0  0  0  0  0
    1.9441   -6.3411    0.0000 N   0  0  0  0  0  0  0  0  0  0  0  0
    2.9222   -6.5495    0.0000 C   0  0  0  0  0  0  0  0  0  0  0  0
    3.2307   -7.5007    0.0000 C   0  0  0  0  0  0  0  0  0  0  0  0
    2.3107   -4.6453    0.0000 C   0  0  0  0  0  0  0  0  0  0  0  0
  1  2  2  0  0  0  0
  2  3  1  0  0  0  0
  3  4  1  0  0  0  0
  4 12  2  0  0  0  0
  4  5  1  0  0  0  0
  5 10  2  0  0  0  0
  5  6  1  0  0  0  0
  6  7  2  0  0  0  0
  7  8  1  0  0  0  0
  8  9  2  0  0  0  0
  9 10  1  0  0  0  0
  6 11  1  0  0  0  0
 11 12  1  0  0  0  0
  2 13  1  0  0  0  0
 13 14  1  0  0  0  0
 14 24  2  0  0  0  0
 14 15  1  0  0  0  0
 15 16  1  0  0  0  0
 16 17  3  0  0  0  0
 15 18  2  0  0  0  0
 18 19  1  0  0  0  0
 19 20  2  0  0  0  0
 20 21  1  0  0  0  0
 21 22  1  0  0  0  0
 22 23  1  0  0  0  0
 20 24  1  0  0  0  0
M  END
$$$$
ANT-DIA-3c7-4
  -OEChem-03222016562D

 19 20  0     0  0  0  0  0  0999 V2000
    0.8646   -1.5025    0.0000 O   0  0  0  0  0  0  0  0  0  0  0  0
    1.7313   -1.0038    0.0000 C   0  0  0  0  0  0  0  0  0  0  0  0
    1.7328   -0.0038    0.0000 N   0  0  0  0  0  0  0  0  0  0  0  0
    0.8675    0.4975    0.0000 C   0  0  0  0  0  0  0  0  0  0  0  0
    0.0000    0.0000    0.0000 C   0  0  0  0  0  0  0  0  0  0  0  0
   -0.8675    0.4975    0.0000 C   0  0  0  0  0  0  0  0  0  0  0  0
   -0.8675    1.5027    0.0000 C   0  0  0  0  0  0  0  0  0  0  0  0
    0.0000    2.0104    0.0000 N   0  0  0  0  0  0  0  0  0  0  0  0
    0.8675    1.5027    0.0000 C   0  0  0  0  0  0  0  0  0  0  0  0
    2.5966   -1.5050    0.0000 C   0  0  0  0  0  0  0  0  0  0  0  0
    2.7012   -2.5042    0.0000 O   0  0  0  0  0  0  0  0  0  0  0  0
    3.6805   -2.7088    0.0000 C   0  0  0  0  0  0  0  0  0  0  0  0
    4.0876   -3.6222    0.0000 C   0  0  0  0  0  0  0  0  0  0  0  0
    5.0822   -3.7263    0.0000 S   0  0  0  0  0  0  0  0  0  0  0  0
    5.1863   -2.7317    0.0000 O   0  0  0  0  0  0  0  0  0  0  0  0
    6.0767   -3.8304    0.0000 C   0  0  0  0  0  0  0  0  0  0  0  0
    4.9780   -4.7208    0.0000 O   0  0  0  0  0  0  0  0  0  0  0  0
    4.1828   -1.8441    0.0000 C   0  0  0  0  0  0  0  0  0  0  0  0
    3.5127   -1.0998    0.0000 C   0  0  0  0  0  0  0  0  0  0  0  0
  1  2  2  0  0  0  0
  2  3  1  0  0  0  0
  3  4  1  0  0  0  0
  4  9  2  0  0  0  0
  4  5  1  0  0  0  0
  5  6  2  0  0  0  0
  6  7  1  0  0  0  0
  7  8  2  0  0  0  0
  8  9  1  0  0  0  0
  2 10  1  0  0  0  0
 10 19  2  0  0  0  0
 10 11  1  0  0  0  0
 11 12  1  0  0  0  0
 12 13  1  0  0  0  0
 13 14  1  0  0  0  0
 14 15  2  0  0  0  0
 14 16  1  0  0  0  0
 14 17  2  0  0  0  0
 12 18  2  0  0  0  0
 18 19  1  0  0  0  0
M  END
$$$$
ANT-DIA-3c7-5
  -OEChem-03222016562D

 21 23  0     0  0  0  0  0  0999 V2000
    0.8646   -1.5025    0.0000 O   0  0  0  0  0  0  0  0  0  0  0  0
    1.7313   -1.0038    0.0000 C   0  0  0  0  0  0  0  0  0  0  0  0
    1.7328   -0.0038    0.0000 N   0  0  0  0  0  0  0  0  0  0  0  0
    0.8675    0.4975    0.0000 C   0  0  0  0  0  0  0  0  0  0  0  0
    0.0000    0.0000    0.0000 C   0  0  0  0  0  0  0  0  0  0  0  0
   -0.8675    0.4975    0.0000 C   0  0  0  0  0  0  0  0  0  0  0  0
   -0.8675    1.5027    0.0000 C   0  0  0  0  0  0  0  0  0  0  0  0
    0.0000    2.0104    0.0000 N   0  0  0  0  0  0  0  0  0  0  0  0
    0.8675    1.5027    0.0000 C   0  0  0  0  0  0  0  0  0  0  0  0
    2.5966   -1.5050    0.0000 C   0  0  0  0  0  0  0  0  0  0  0  0
    2.7012   -2.5042    0.0000 O   0  0  0  0  0  0  0  0  0  0  0  0
    3.6805   -2.7088    0.0000 C   0  0  0  0  0  0  0  0  0  0  0  0
    4.0876   -3.6222    0.0000 N   0  0  0  0  0  0  0  0  0  0  0  0
    3.5019   -4.4391    0.0000 C   0  0  0  0  0  0  0  0  0  0  0  0
    3.9112   -5.3572    0.0000 C   0  0  0  0  0  0  0  0  0  0  0  0
    4.9060   -5.4584    0.0000 C   0  0  0  0  0  0  0  0  0  0  0  0
    5.3132   -6.3718    0.0000 O   0  0  0  0  0  0  0  0  0  0  0  0
    5.4959   -4.6508    0.0000 C   0  0  0  0  0  0  0  0  0  0  0  0
    5.0866   -3.7327    0.0000 C   0  0  0  0  0  0  0  0  0  0  0  0
    4.1828   -1.8441    0.0000 C   0  0  0  0  0  0  0  0  0  0  0  0
    3.5127   -1.0998    0.0000 C   0  0  0  0  0  0  0  0  0  0  0  0
  1  2  2  0  0  0  0
  2  3  1  0  0  0  0
  3  4  1  0  0  0  0
  4  9  2  0  0  0  0
  4  5  1  0  0  0  0
  5  6  2  0  0  0  0
  6  7  1  0  0  0  0
  7  8  2  0  0  0  0
  8  9  1  0  0  0  0
  2 10  1  0  0  0  0
 10 21  2  0  0  0  0
 10 11  1  0  0  0  0
 11 12  1  0  0  0  0
 12 13  1  0  0  0  0
 13 19  1  0  0  0  0
 13 14  1  0  0  0  0
 14 15  1  0  0  0  0
 15 16  1  0  0  0  0
 16 17  1  0  0  0  0
 16 18  1  0  0  0  0
 18 19  1  0  0  0  0
 12 20  2  0  0  0  0
 20 21  1  0  0  0  0
M  END
$$$$
NIM-UNI-36e-1
  -OEChem-03222016562D

 19 21  0     1  0  0  0  0  0999 V2000
    0.8680   -1.5037    0.0000 N   0  0  0  0  0  0  0  0  0  0  0  0
    1.7360   -1.0071    0.0000 C   0  0  3  0  0  0  0  0  0  0  0  0
    1.7360   -0.0000    0.0000 C   0  0  3  0  0  0  0  0  0  0  0  0
    2.6938    0.3110    0.0000 N   0  0  0  0  0  0  0  0  0  0  0  0
    3.2858   -0.5036    0.0000 C   0  0  0  0  0  0  0  0  0  0  0  0
    2.6938   -1.3184    0.0000 N   0  0  0  0  0  0  0  0  0  0  0  0
    4.2858   -0.5035    0.0000 O   0  0  0  0  0  0  0  0  0  0  0  0
    3.2346    1.9753    0.0000 C   0  0  0  0  0  0  0  0  0  0  0  0
    4.2176    2.1857    0.0000 C   0  0  0  0  0  0  0  0  0  0  0  0
    4.5325    3.1403    0.0000 N   0  0  0  0  0  0  0  0  0  0  0  0
    3.8544    3.8823    0.0000 C   0  0  0  0  0  0  0  0  0  0  0  0
    2.8715    3.6719    0.0000 C   0  0  0  0  0  0  0  0  0  0  0  0
    2.5666    2.7195    0.0000 C   0  0  0  0  0  0  0  0  0  0  0  0
    0.8680    0.5079    0.0000 N   0  0  0  0  0  0  0  0  0  0  0  0
    0.8680    1.5079    0.0000 C   0  0  0  0  0  0  0  0  0  0  0  0
    1.7340    2.0079    0.0000 O   0  0  0  0  0  0  0  0  0  0  0  0
    0.0020    2.0079    0.0000 C   0  0  0  0  0  0  0  0  0  0  0  0
    0.0000    0.0000    0.0000 C   0  0  0  0  0  0  0  0  0  0  0  0
    0.0000   -1.0058    0.0000 C   0  0  0  0  0  0  0  0  0  0  0  0
  1 19  1  0  0  0  0
  1  2  1  0  0  0  0
  2  6  1  0  0  0  0
  2  3  1  0  0  0  0
  3  4  1  0  0  0  0
  4  5  1  0  0  0  0
  5  6  1  0  0  0  0
  5  7  2  0  0  0  0
  4  8  1  0  0  0  0
  8 13  2  0  0  0  0
  8  9  1  0  0  0  0
  9 10  2  0  0  0  0
 10 11  1  0  0  0  0
 11 12  2  0  0  0  0
 12 13  1  0  0  0  0
  3 14  1  0  0  0  0
 14 15  1  0  0  0  0
 15 16  2  0  0  0  0
 15 17  1  0  0  0  0
 14 18  1  0  0  0  0
 18 19  1  0  0  0  0
M  END
$$$$
NIM-UNI-36e-2
  -OEChem-03222016562D

 26 29  0     1  0  0  0  0  0999 V2000
    0.8680   -0.4979    0.0000 N   0  0  3  0  0  0  0  0  0  0  0  0
    0.0000    0.0000    0.0000 C   0  0  0  0  0  0  0  0  0  0  0  0
    0.0000    1.0058    0.0000 C   0  0  0  0  0  0  0  0  0  0  0  0
    0.8680    1.5137    0.0000 N   0  0  0  0  0  0  0  0  0  0  0  0
    0.8680    2.5137    0.0000 C   0  0  0  0  0  0  0  0  0  0  0  0
    0.0020    3.0137    0.0000 C   0  0  0  0  0  0  0  0  0  0  0  0
    1.7340    3.0137    0.0000 O   0  0  0  0  0  0  0  0  0  0  0  0
    1.7360    1.0058    0.0000 C   0  0  3  0  0  0  0  0  0  0  0  0
    2.6938    1.3168    0.0000 N   0  0  0  0  0  0  0  0  0  0  0  0
    3.2346    2.9811    0.0000 C   0  0  0  0  0  0  0  0  0  0  0  0
    2.5666    3.7253    0.0000 C   0  0  0  0  0  0  0  0  0  0  0  0
    2.8715    4.6777    0.0000 C   0  0  0  0  0  0  0  0  0  0  0  0
    3.8544    4.8881    0.0000 C   0  0  0  0  0  0  0  0  0  0  0  0
    4.5325    4.1461    0.0000 N   0  0  0  0  0  0  0  0  0  0  0  0
    4.2176    3.1915    0.0000 C   0  0  0  0  0  0  0  0  0  0  0  0
    3.2858    0.5022    0.0000 C   0  0  0  0  0  0  0  0  0  0  0  0
    4.2858    0.5023    0.0000 O   0  0  0  0  0  0  0  0  0  0  0  0
    2.6938   -0.3126    0.0000 N   0  0  0  0  0  0  0  0  0  0  0  0
    1.7360   -0.0013    0.0000 C   0  0  3  0  0  0  0  0  0  0  0  0
    0.8674   -1.4979    0.0000 C   0  0  0  0  0  0  0  0  0  0  0  0
    1.7332   -1.9984    0.0000 C   0  0  0  0  0  0  0  0  0  0  0  0
    2.6025   -1.4937    0.0000 C   0  0  0  0  0  0  0  0  0  0  0  0
    3.4683   -1.9942    0.0000 C   0  0  0  0  0  0  0  0  0  0  0  0
    3.4736   -2.9942    0.0000 C   0  0  0  0  0  0  0  0  0  0  0  0
    2.6043   -3.4989    0.0000 C   0  0  0  0  0  0  0  0  0  0  0  0
    1.7296   -3.0035    0.0000 C   0  0  0  0  0  0  0  0  0  0  0  0
  1 19  1  0  0  0  0
  1  2  1  0  0  0  0
  2  3  1  0  0  0  0
  3  4  1  0  0  0  0
  4  5  1  0  0  0  0
  5  6  1  0  0  0  0
  5  7  2  0  0  0  0
  4  8  1  0  0  0  0
  8 19  1  0  0  0  0
  8  9  1  0  0  0  0
  9 10  1  0  0  0  0
 10 15  2  0  0  0  0
 10 11  1  0  0  0  0
 11 12  2  0  0  0  0
 12 13  1  0  0  0  0
 13 14  2  0  0  0  0
 14 15  1  0  0  0  0
  9 16  1  0  0  0  0
 16 17  2  0  0  0  0
 16 18  1  0  0  0  0
 18 19  1  0  0  0  0
  1 20  1  0  0  0  0
 20 21  1  0  0  0  0
 21 26  2  0  0  0  0
 21 22  1  0  0  0  0
 22 23  2  0  0  0  0
 23 24  1  0  0  0  0
 24 25  2  0  0  0  0
 25 26  1  0  0  0  0
M  END
$$$$
NIM-UNI-36e-3
  -OEChem-03222016562D

 20 22  0     0  0  0  0  0  0999 V2000
    0.8680   -1.5037    0.0000 C   0  0  0  0  0  0  0  0  0  0  0  0
    1.7360   -1.0071    0.0000 C   0  0  0  0  0  0  0  0  0  0  0  0
    1.7360   -0.0000    0.0000 C   0  0  0  0  0  0  0  0  0  0  0  0
    2.6938    0.3110    0.0000 N   0  0  0  0  0  0  0  0  0  0  0  0
    3.2858   -0.5036    0.0000 C   0  0  0  0  0  0  0  0  0  0  0  0
    2.6938   -1.3184    0.0000 N   0  0  0  0  0  0  0  0  0  0  0  0
    4.2858   -0.5035    0.0000 O   0  0  0  0  0  0  0  0  0  0  0  0
    3.2346    1.9753    0.0000 C   0  0  0  0  0  0  0  0  0  0  0  0
    4.2176    2.1857    0.0000 C   0  0  0  0  0  0  0  0  0  0  0  0
    4.5325    3.1403    0.0000 N   0  0  0  0  0  0  0  0  0  0  0  0
    3.8544    3.8823    0.0000 C   0  0  0  0  0  0  0  0  0  0  0  0
    2.8715    3.6719    0.0000 C   0  0  0  0  0  0  0  0  0  0  0  0
    2.5666    2.7195    0.0000 C   0  0  0  0  0  0  0  0  0  0  0  0
    0.8680    0.5079    0.0000 C   0  0  0  0  0  0  0  0  0  0  0  0
    0.8680    1.5079    0.0000 C   0  0  0  0  0  0  0  0  0  0  0  0
    1.7340    2.0079    0.0000 O   0  0  0  0  0  0  0  0  0  0  0  0
    0.0020    2.0079    0.0000 C   0  0  0  0  0  0  0  0  0  0  0  0
    0.0000    0.0000    0.0000 C   0  0  0  0  0  0  0  0  0  0  0  0
    0.0000   -1.0058    0.0000 C   0  0  0  0  0  0  0  0  0  0  0  0
    0.8674   -2.5037    0.0000 Br  0  0  0  0  0  0  0  0  0  0  0  0
  1 19  2  0  0  0  0
  1  2  1  0  0  0  0
  2  6  1  0  0  0  0
  2  3  2  0  0  0  0
  3  4  1  0  0  0  0
  4  5  1  0  0  0  0
  5  6  1  0  0  0  0
  5  7  2  0  0  0  0
  4  8  1  0  0  0  0
  8 13  2  0  0  0  0
  8  9  1  0  0  0  0
  9 10  2  0  0  0  0
 10 11  1  0  0  0  0
 11 12  2  0  0  0  0
 12 13  1  0  0  0  0
  3 14  1  0  0  0  0
 14 15  1  0  0  0  0
 15 16  2  0  0  0  0
 15 17  1  0  0  0  0
 14 18  2  0  0  0  0
 18 19  1  0  0  0  0
  1 20  1  0  0  0  0
M  END
$$$$
NIM-UNI-36e-4
  -OEChem-03222016562D

 27 30  0     0  0  0  0  0  0999 V2000
    0.8680   -0.4979    0.0000 C   0  0  0  0  0  0  0  0  0  0  0  0
    0.0000    0.0000    0.0000 C   0  0  0  0  0  0  0  0  0  0  0  0
    0.0000    1.0058    0.0000 C   0  0  0  0  0  0  0  0  0  0  0  0
    0.8680    1.5137    0.0000 C   0  0  0  0  0  0  0  0  0  0  0  0
    0.8680    2.5137    0.0000 C   0  0  0  0  0  0  0  0  0  0  0  0
    0.0020    3.0137    0.0000 C   0  0  0  0  0  0  0  0  0  0  0  0
    1.7340    3.0137    0.0000 O   0  0  0  0  0  0  0  0  0  0  0  0
    1.7360    1.0058    0.0000 C   0  0  0  0  0  0  0  0  0  0  0  0
    2.6938    1.3168    0.0000 N   0  0  0  0  0  0  0  0  0  0  0  0
    3.2346    2.9811    0.0000 C   0  0  0  0  0  0  0  0  0  0  0  0
    2.5666    3.7253    0.0000 C   0  0  0  0  0  0  0  0  0  0  0  0
    2.8715    4.6777    0.0000 C   0  0  0  0  0  0  0  0  0  0  0  0
    3.8544    4.8881    0.0000 C   0  0  0  0  0  0  0  0  0  0  0  0
    4.5325    4.1461    0.0000 N   0  0  0  0  0  0  0  0  0  0  0  0
    4.2176    3.1915    0.0000 C   0  0  0  0  0  0  0  0  0  0  0  0
    3.2858    0.5022    0.0000 C   0  0  0  0  0  0  0  0  0  0  0  0
    4.2858    0.5023    0.0000 O   0  0  0  0  0  0  0  0  0  0  0  0
    2.6938   -0.3126    0.0000 N   0  0  0  0  0  0  0  0  0  0  0  0
    1.7360   -0.0013    0.0000 C   0  0  0  0  0  0  0  0  0  0  0  0
    0.8674   -1.4979    0.0000 C   0  0  0  0  0  0  0  0  0  0  0  0
    1.7332   -1.9984    0.0000 C   0  0  0  0  0  0  0  0  0  0  0  0
    2.6025   -1.4937    0.0000 C   0  0  0  0  0  0  0  0  0  0  0  0
    3.4683   -1.9942    0.0000 C   0  0  0  0  0  0  0  0  0  0  0  0
    3.4736   -2.9942    0.0000 C   0  0  0  0  0  0  0  0  0  0  0  0
    4.3415   -3.4909    0.0000 Br  0  0  0  0  0  0  0  0  0  0  0  0
    2.6043   -3.4989    0.0000 C   0  0  0  0  0  0  0  0  0  0  0  0
    1.7296   -3.0035    0.0000 C   0  0  0  0  0  0  0  0  0  0  0  0
  1 19  1  0  0  0  0
  1  2  2  0  0  0  0
  2  3  1  0  0  0  0
  3  4  2  0  0  0  0
  4  5  1  0  0  0  0
  5  6  1  0  0  0  0
  5  7  2  0  0  0  0
  4  8  1  0  0  0  0
  8 19  2  0  0  0  0
  8  9  1  0  0  0  0
  9 10  1  0  0  0  0
 10 15  2  0  0  0  0
 10 11  1  0  0  0  0
 11 12  2  0  0  0  0
 12 13  1  0  0  0  0
 13 14  2  0  0  0  0
 14 15  1  0  0  0  0
  9 16  1  0  0  0  0
 16 17  2  0  0  0  0
 16 18  1  0  0  0  0
 18 19  1  0  0  0  0
  1 20  1  0  0  0  0
 20 21  1  0  0  0  0
 21 27  2  0  0  0  0
 21 22  1  0  0  0  0
 22 23  2  0  0  0  0
 23 24  1  0  0  0  0
 24 25  1  0  0  0  0
 24 26  2  0  0  0  0
 26 27  1  0  0  0  0
M  END
$$$$
NIM-UNI-36e-5
  -OEChem-03222016562D

 21 23  0     0  0  0  0  0  0999 V2000
    0.8680   -0.4979    0.0000 C   0  0  0  0  0  0  0  0  0  0  0  0
    0.0000    0.0000    0.0000 C   0  0  0  0  0  0  0  0  0  0  0  0
    0.0000    1.0058    0.0000 C   0  0  0  0  0  0  0  0  0  0  0  0
    0.8680    1.5137    0.0000 C   0  0  0  0  0  0  0  0  0  0  0  0
    0.8680    2.5137    0.0000 C   0  0  0  0  0  0  0  0  0  0  0  0
    0.0020    3.0137    0.0000 C   0  0  0  0  0  0  0  0  0  0  0  0
    1.7340    3.0137    0.0000 O   0  0  0  0  0  0  0  0  0  0  0  0
    1.7360    1.0058    0.0000 C   0  0  0  0  0  0  0  0  0  0  0  0
    2.6938    1.3168    0.0000 N   0  0  0  0  0  0  0  0  0  0  0  0
    3.2346    2.9811    0.0000 C   0  0  0  0  0  0  0  0  0  0  0  0
    2.5666    3.7253    0.0000 C   0  0  0  0  0  0  0  0  0  0  0  0
    2.8715    4.6777    0.0000 C   0  0  0  0  0  0  0  0  0  0  0  0
    3.8544    4.8881    0.0000 C   0  0  0  0  0  0  0  0  0  0  0  0
    4.5325    4.1461    0.0000 N   0  0  0  0  0  0  0  0  0  0  0  0
    4.2176    3.1915    0.0000 C   0  0  0  0  0  0  0  0  0  0  0  0
    3.2858    0.5022    0.0000 C   0  0  0  0  0  0  0  0  0  0  0  0
    4.2858    0.5023    0.0000 O   0  0  0  0  0  0  0  0  0  0  0  0
    2.6938   -0.3126    0.0000 N   0  0  0  0  0  0  0  0  0  0  0  0
    1.7360   -0.0013    0.0000 C   0  0  0  0  0  0  0  0  0  0  0  0
    0.8674   -1.4979    0.0000 C   0  0  0  0  0  0  0  0  0  0  0  0
    0.8669   -2.4979    0.0000 N   0  0  0  0  0  0  0  0  0  0  0  0
  1 19  2  0  0  0  0
  1  2  1  0  0  0  0
  2  3  2  0  0  0  0
  3  4  1  0  0  0  0
  4  5  1  0  0  0  0
  5  6  1  0  0  0  0
  5  7  2  0  0  0  0
  4  8  2  0  0  0  0
  8 19  1  0  0  0  0
  8  9  1  0  0  0  0
  9 10  1  0  0  0  0
 10 15  2  0  0  0  0
 10 11  1  0  0  0  0
 11 12  2  0  0  0  0
 12 13  1  0  0  0  0
 13 14  2  0  0  0  0
 14 15  1  0  0  0  0
  9 16  1  0  0  0  0
 16 17  2  0  0  0  0
 16 18  1  0  0  0  0
 18 19  1  0  0  0  0
  1 20  1  0  0  0  0
 20 21  3  0  0  0  0
M  END
$$$$
PAT-GYR-359-1
  -OEChem-03222016562D

 18 19  0     0  0  0  0  0  0999 V2000
   -2.5995   -3.4950    0.0000 C   0  0  0  0  0  0  0  0  0  0  0  0
   -1.7313   -2.9987    0.0000 C   0  0  0  0  0  0  0  0  0  0  0  0
   -0.8646   -3.4975    0.0000 C   0  0  0  0  0  0  0  0  0  0  0  0
    0.0015   -2.9975    0.0000 C   0  0  0  0  0  0  0  0  0  0  0  0
    0.0015   -1.9975    0.0000 N   0  0  0  0  0  0  0  0  0  0  0  0
    0.8675   -1.4975    0.0000 C   0  0  0  0  0  0  0  0  0  0  0  0
    1.7335   -1.9975    0.0000 O   0  0  0  0  0  0  0  0  0  0  0  0
    0.8675   -0.4975    0.0000 N   0  0  0  0  0  0  0  0  0  0  0  0
    0.0000    0.0000    0.0000 C   0  0  0  0  0  0  0  0  0  0  0  0
   -0.0000    1.0052    0.0000 C   0  0  0  0  0  0  0  0  0  0  0  0
    0.8675    1.5129    0.0000 O   0  0  0  0  0  0  0  0  0  0  0  0
    1.7350    1.0052    0.0000 C   0  0  0  0  0  0  0  0  0  0  0  0
    1.7350    0.0000    0.0000 C   0  0  0  0  0  0  0  0  0  0  0  0
   -0.8660   -4.5027    0.0000 C   0  0  0  0  0  0  0  0  0  0  0  0
   -1.7342   -5.0091    0.0000 C   0  0  0  0  0  0  0  0  0  0  0  0
   -2.6010   -4.5002    0.0000 C   0  0  0  0  0  0  0  0  0  0  0  0
   -3.4692   -4.9964    0.0000 C   0  0  0  0  0  0  0  0  0  0  0  0
   -4.3374   -5.4925    0.0000 C   0  0  0  0  0  0  0  0  0  0  0  0
  1 16  1  0  0  0  0
  1  2  2  0  0  0  0
  2  3  1  0  0  0  0
  3  4  1  0  0  0  0
  4  5  1  0  0  0  0
  5  6  1  0  0  0  0
  6  7  2  0  0  0  0
  6  8  1  0  0  0  0
  8 13  1  0  0  0  0
  8  9  1  0  0  0  0
  9 10  1  0  0  0  0
 10 11  1  0  0  0  0
 11 12  1  0  0  0  0
 12 13  1  0  0  0  0
  3 14  2  0  0  0  0
 14 15  1  0  0  0  0
 15 16  2  0  0  0  0
 16 17  1  0  0  0  0
 17 18  3  0  0  0  0
M  END
$$$$
PAT-GYR-359-2
  -OEChem-03222016562D

 19 20  0     0  0  0  0  0  0999 V2000
   -2.5995   -3.4950    0.0000 C   0  0  0  0  0  0  0  0  0  0  0  0
   -1.7313   -2.9987    0.0000 C   0  0  0  0  0  0  0  0  0  0  0  0
   -0.8646   -3.4975    0.0000 C   0  0  0  0  0  0  0  0  0  0  0  0
    0.0015   -2.9975    0.0000 C   0  0  0  0  0  0  0  0  0  0  0  0
    0.0015   -1.9975    0.0000 N   0  0  0  0  0  0  0  0  0  0  0  0
    0.8675   -1.4975    0.0000 C   0  0  0  0  0  0  0  0  0  0  0  0
    1.7335   -1.9975    0.0000 O   0  0  0  0  0  0  0  0  0  0  0  0
    0.8675   -0.4975    0.0000 N   0  0  0  0  0  0  0  0  0  0  0  0
    0.0000    0.0000    0.0000 C   0  0  0  0  0  0  0  0  0  0  0  0
   -0.0000    1.0052    0.0000 C   0  0  0  0  0  0  0  0  0  0  0  0
    0.8675    1.5129    0.0000 O   0  0  0  0  0  0  0  0  0  0  0  0
    1.7350    1.0052    0.0000 C   0  0  0  0  0  0  0  0  0  0  0  0
    1.7350    0.0000    0.0000 C   0  0  0  0  0  0  0  0  0  0  0  0
   -0.8660   -4.5027    0.0000 C   0  0  0  0  0  0  0  0  0  0  0  0
   -1.7342   -5.0091    0.0000 C   0  0  0  0  0  0  0  0  0  0  0  0
   -2.6010   -4.5002    0.0000 C   0  0  0  0  0  0  0  0  0  0  0  0
   -3.4692   -4.9964    0.0000 C   0  0  0  0  0  0  0  0  0  0  0  0
   -4.3374   -5.4925    0.0000 C   0  0  0  0  0  0  0  0  0  0  0  0
   -5.2057   -5.9887    0.0000 Br  0  0  0  0  0  0  0  0  0  0  0  0
  1 16  1  0  0  0  0
  1  2  2  0  0  0  0
  2  3  1  0  0  0  0
  3  4  1  0  0  0  0
  4  5  1  0  0  0  0
  5  6  1  0  0  0  0
  6  7  2  0  0  0  0
  6  8  1  0  0  0  0
  8 13  1  0  0  0  0
  8  9  1  0  0  0  0
  9 10  1  0  0  0  0
 10 11  1  0  0  0  0
 11 12  1  0  0  0  0
 12 13  1  0  0  0  0
  3 14  2  0  0  0  0
 14 15  1  0  0  0  0
 15 16  2  0  0  0  0
 16 17  1  0  0  0  0
 17 18  3  0  0  0  0
 18 19  1  0  0  0  0
M  END
$$$$
PAT-GYR-359-3
  -OEChem-03222016562D

 22 23  0     0  0  0  0  0  0999 V2000
   -2.5995   -3.4950    0.0000 C   0  0  0  0  0  0  0  0  0  0  0  0
   -1.7313   -2.9987    0.0000 C   0  0  0  0  0  0  0  0  0  0  0  0
   -0.8646   -3.4975    0.0000 C   0  0  0  0  0  0  0  0  0  0  0  0
    0.0015   -2.9975    0.0000 C   0  0  0  0  0  0  0  0  0  0  0  0
    0.0015   -1.9975    0.0000 N   0  0  0  0  0  0  0  0  0  0  0  0
    0.8675   -1.4975    0.0000 C   0  0  0  0  0  0  0  0  0  0  0  0
    1.7335   -1.9975    0.0000 O   0  0  0  0  0  0  0  0  0  0  0  0
    0.8675   -0.4975    0.0000 N   0  0  0  0  0  0  0  0  0  0  0  0
    0.0000    0.0000    0.0000 C   0  0  0  0  0  0  0  0  0  0  0  0
   -0.0000    1.0052    0.0000 C   0  0  0  0  0  0  0  0  0  0  0  0
    0.8675    1.5129    0.0000 O   0  0  0  0  0  0  0  0  0  0  0  0
    1.7350    1.0052    0.0000 C   0  0  0  0  0  0  0  0  0  0  0  0
    1.7350    0.0000    0.0000 C   0  0  0  0  0  0  0  0  0  0  0  0
   -0.8660   -4.5027    0.0000 C   0  0  0  0  0  0  0  0  0  0  0  0
   -1.7342   -5.0091    0.0000 C   0  0  0  0  0  0  0  0  0  0  0  0
   -2.6010   -4.5002    0.0000 C   0  0  0  0  0  0  0  0  0  0  0  0
   -3.4692   -4.9964    0.0000 C   0  0  0  0  0  0  0  0  0  0  0  0
   -4.3374   -5.4925    0.0000 C   0  0  0  0  0  0  0  0  0  0  0  0
   -5.2057   -5.9887    0.0000 C   0  0  0  0  0  0  0  0  0  0  0  0
   -5.2101   -6.9887    0.0000 O   0  0  0  0  0  0  0  0  0  0  0  0
   -6.0783   -7.4849    0.0000 C   0  0  0  0  0  0  0  0  0  0  0  0
   -6.0695   -5.4849    0.0000 O   0  0  0  0  0  0  0  0  0  0  0  0
  1 16  1  0  0  0  0
  1  2  2  0  0  0  0
  2  3  1  0  0  0  0
  3  4  1  0  0  0  0
  4  5  1  0  0  0  0
  5  6  1  0  0  0  0
  6  7  2  0  0  0  0
  6  8  1  0  0  0  0
  8 13  1  0  0  0  0
  8  9  1  0  0  0  0
  9 10  1  0  0  0  0
 10 11  1  0  0  0  0
 11 12  1  0  0  0  0
 12 13  1  0  0  0  0
  3 14  2  0  0  0  0
 14 15  1  0  0  0  0
 15 16  2  0  0  0  0
 16 17  1  0  0  0  0
 17 18  3  0  0  0  0
 18 19  1  0  0  0  0
 19 20  1  0  0  0  0
 20 21  1  0  0  0  0
 19 22  2  0  0  0  0
M  END
$$$$
PAT-GYR-359-4
  -OEChem-03222016562D

 21 22  0     0  0  0  0  0  0999 V2000
   -2.5995   -3.4950    0.0000 C   0  0  0  0  0  0  0  0  0  0  0  0
   -1.7313   -2.9987    0.0000 C   0  0  0  0  0  0  0  0  0  0  0  0
   -0.8646   -3.4975    0.0000 C   0  0  0  0  0  0  0  0  0  0  0  0
    0.0015   -2.9975    0.0000 C   0  0  0  0  0  0  0  0  0  0  0  0
    0.0015   -1.9975    0.0000 N   0  0  0  0  0  0  0  0  0  0  0  0
    0.8675   -1.4975    0.0000 C   0  0  0  0  0  0  0  0  0  0  0  0
    1.7335   -1.9975    0.0000 O   0  0  0  0  0  0  0  0  0  0  0  0
    0.8675   -0.4975    0.0000 N   0  0  0  0  0  0  0  0  0  0  0  0
    0.0000    0.0000    0.0000 C   0  0  0  0  0  0  0  0  0  0  0  0
   -0.0000    1.0052    0.0000 C   0  0  0  0  0  0  0  0  0  0  0  0
    0.8675    1.5129    0.0000 O   0  0  0  0  0  0  0  0  0  0  0  0
    1.7350    1.0052    0.0000 C   0  0  0  0  0  0  0  0  0  0  0  0
    1.7350    0.0000    0.0000 C   0  0  0  0  0  0  0  0  0  0  0  0
   -0.8660   -4.5027    0.0000 C   0  0  0  0  0  0  0  0  0  0  0  0
   -1.7342   -5.0091    0.0000 C   0  0  0  0  0  0  0  0  0  0  0  0
   -2.6010   -4.5002    0.0000 C   0  0  0  0  0  0  0  0  0  0  0  0
   -3.4692   -4.9964    0.0000 C   0  0  0  0  0  0  0  0  0  0  0  0
   -4.3374   -5.4925    0.0000 C   0  0  0  0  0  0  0  0  0  0  0  0
   -5.2057   -5.9887    0.0000 C   0  0  0  0  0  0  0  0  0  0  0  0
   -5.2101   -6.9887    0.0000 N   0  0  0  0  0  0  0  0  0  0  0  0
   -6.0695   -5.4849    0.0000 O   0  0  0  0  0  0  0  0  0  0  0  0
  1 16  1  0  0  0  0
  1  2  2  0  0  0  0
  2  3  1  0  0  0  0
  3  4  1  0  0  0  0
  4  5  1  0  0  0  0
  5  6  1  0  0  0  0
  6  7  2  0  0  0  0
  6  8  1  0  0  0  0
  8 13  1  0  0  0  0
  8  9  1  0  0  0  0
  9 10  1  0  0  0  0
 10 11  1  0  0  0  0
 11 12  1  0  0  0  0
 12 13  1  0  0  0  0
  3 14  2  0  0  0  0
 14 15  1  0  0  0  0
 15 16  2  0  0  0  0
 16 17  1  0  0  0  0
 17 18  3  0  0  0  0
 18 19  1  0  0  0  0
 19 20  1  0  0  0  0
 19 21  2  0  0  0  0
M  END
$$$$
PAT-GYR-359-5
  -OEChem-03222016562D

 21 22  0     0  0  0  0  0  0999 V2000
   -2.5995   -3.4950    0.0000 C   0  0  0  0  0  0  0  0  0  0  0  0
   -1.7313   -2.9987    0.0000 C   0  0  0  0  0  0  0  0  0  0  0  0
   -0.8646   -3.4975    0.0000 C   0  0  0  0  0  0  0  0  0  0  0  0
    0.0015   -2.9975    0.0000 C   0  0  0  0  0  0  0  0  0  0  0  0
    0.0015   -1.9975    0.0000 N   0  0  0  0  0  0  0  0  0  0  0  0
    0.8675   -1.4975    0.0000 C   0  0  0  0  0  0  0  0  0  0  0  0
    1.7335   -1.9975    0.0000 O   0  0  0  0  0  0  0  0  0  0  0  0
    0.8675   -0.4975    0.0000 N   0  0  0  0  0  0  0  0  0  0  0  0
    0.0000    0.0000    0.0000 C   0  0  0  0  0  0  0  0  0  0  0  0
   -0.0000    1.0052    0.0000 C   0  0  0  0  0  0  0  0  0  0  0  0
    0.8675    1.5129    0.0000 O   0  0  0  0  0  0  0  0  0  0  0  0
    1.7350    1.0052    0.0000 C   0  0  0  0  0  0  0  0  0  0  0  0
    1.7350    0.0000    0.0000 C   0  0  0  0  0  0  0  0  0  0  0  0
   -0.8660   -4.5027    0.0000 C   0  0  0  0  0  0  0  0  0  0  0  0
   -1.7342   -5.0091    0.0000 C   0  0  0  0  0  0  0  0  0  0  0  0
   -2.6010   -4.5002    0.0000 C   0  0  0  0  0  0  0  0  0  0  0  0
   -3.4692   -4.9964    0.0000 C   0  0  0  0  0  0  0  0  0  0  0  0
   -4.3374   -5.4925    0.0000 C   0  0  0  0  0  0  0  0  0  0  0  0
   -5.2057   -5.9887    0.0000 C   0  0  0  0  0  0  0  0  0  0  0  0
   -5.2101   -6.9887    0.0000 C   0  0  0  0  0  0  0  0  0  0  0  0
   -6.0783   -7.4849    0.0000 O   0  0  0  0  0  0  0  0  0  0  0  0
  1 16  1  0  0  0  0
  1  2  2  0  0  0  0
  2  3  1  0  0  0  0
  3  4  1  0  0  0  0
  4  5  1  0  0  0  0
  5  6  1  0  0  0  0
  6  7  2  0  0  0  0
  6  8  1  0  0  0  0
  8 13  1  0  0  0  0
  8  9  1  0  0  0  0
  9 10  1  0  0  0  0
 10 11  1  0  0  0  0
 11 12  1  0  0  0  0
 12 13  1  0  0  0  0
  3 14  2  0  0  0  0
 14 15  1  0  0  0  0
 15 16  2  0  0  0  0
 16 17  1  0  0  0  0
 17 18  3  0  0  0  0
 18 19  1  0  0  0  0
 19 20  1  0  0  0  0
 20 21  1  0  0  0  0
M  END
$$$$
CAR-INS-33b-1
  -OEChem-03222016562D

 28 31  0     0  0  0  0  0  0999 V2000
    3.6190   -8.1822    0.0000 F   0  0  0  0  0  0  0  0  0  0  0  0
    3.3166   -7.2290    0.0000 C   0  0  0  0  0  0  0  0  0  0  0  0
    3.9966   -6.4887    0.0000 C   0  0  0  0  0  0  0  0  0  0  0  0
    3.6842   -5.5334    0.0000 C   0  0  0  0  0  0  0  0  0  0  0  0
    4.3542   -4.7910    0.0000 C   0  0  0  0  0  0  0  0  0  0  0  0
    4.0462   -3.8396    0.0000 N   0  0  0  0  0  0  0  0  0  0  0  0
    4.7152   -3.0894    0.0000 C   0  0  0  0  0  0  0  0  0  0  0  0
    4.4056   -2.1330    0.0000 C   0  0  0  0  0  0  0  0  0  0  0  0
    3.4271   -1.9269    0.0000 N   0  0  0  0  0  0  0  0  0  0  0  0
    3.1191   -0.9755    0.0000 C   0  0  0  0  0  0  0  0  0  0  0  0
    2.1412   -0.7665    0.0000 C   0  0  0  0  0  0  0  0  0  0  0  0
    1.8332    0.1849    0.0000 C   0  0  0  0  0  0  0  0  0  0  0  0
    0.8780    0.4964    0.0000 C   0  0  0  0  0  0  0  0  0  0  0  0
    0.0000    0.0000    0.0000 C   0  0  0  0  0  0  0  0  0  0  0  0
   -0.8635    0.5043    0.0000 C   0  0  0  0  0  0  0  0  0  0  0  0
   -0.8584    1.5098    0.0000 N   0  0  0  0  0  0  0  0  0  0  0  0
    0.0101    2.0110    0.0000 C   0  0  0  0  0  0  0  0  0  0  0  0
    0.8791    1.5011    0.0000 C   0  0  0  0  0  0  0  0  0  0  0  0
    1.8349    1.8105    0.0000 N   0  0  0  0  0  0  0  0  0  0  0  0
    2.4247    0.9971    0.0000 C   0  0  0  0  0  0  0  0  0  0  0  0
    1.4712   -1.5089    0.0000 O   0  0  0  0  0  0  0  0  0  0  0  0
    3.7890   -0.2331    0.0000 O   0  0  0  0  0  0  0  0  0  0  0  0
    2.7549   -2.6674    0.0000 C   0  0  0  0  0  0  0  0  0  0  0  0
    3.0645   -3.6237    0.0000 C   0  0  0  0  0  0  0  0  0  0  0  0
    5.3321   -5.0000    0.0000 O   0  0  0  0  0  0  0  0  0  0  0  0
    2.7018   -5.3204    0.0000 C   0  0  0  0  0  0  0  0  0  0  0  0
    2.0318   -6.0628    0.0000 C   0  0  0  0  0  0  0  0  0  0  0  0
    2.3342   -7.0160    0.0000 C   0  0  0  0  0  0  0  0  0  0  0  0
  1  2  1  0  0  0  0
  2 28  2  0  0  0  0
  2  3  1  0  0  0  0
  3  4  2  0  0  0  0
  4  5  1  0  0  0  0
  5  6  1  0  0  0  0
  6 24  1  0  0  0  0
  6  7  1  0  0  0  0
  7  8  1  0  0  0  0
  8  9  1  0  0  0  0
  9 10  1  0  0  0  0
 10 11  1  0  0  0  0
 11 12  1  0  0  0  0
 12 20  2  0  0  0  0
 12 13  1  0  0  0  0
 13 18  2  0  0  0  0
 13 14  1  0  0  0  0
 14 15  2  0  0  0  0
 15 16  1  0  0  0  0
 16 17  2  0  0  0  0
 17 18  1  0  0  0  0
 18 19  1  0  0  0  0
 19 20  1  0  0  0  0
 11 21  2  0  0  0  0
 10 22  2  0  0  0  0
  9 23  1  0  0  0  0
 23 24  1  0  0  0  0
  5 25  2  0  0  0  0
  4 26  1  0  0  0  0
 26 27  2  0  0  0  0
 27 28  1  0  0  0  0
M  END
$$$$
CAR-INS-33b-2
  -OEChem-03222016562D

 28 31  0     0  0  0  0  0  0999 V2000
    3.6190   -8.1822    0.0000 Cl  0  0  0  0  0  0  0  0  0  0  0  0
    3.3166   -7.2290    0.0000 C   0  0  0  0  0  0  0  0  0  0  0  0
    3.9966   -6.4887    0.0000 C   0  0  0  0  0  0  0  0  0  0  0  0
    3.6842   -5.5334    0.0000 C   0  0  0  0  0  0  0  0  0  0  0  0
    4.3542   -4.7910    0.0000 C   0  0  0  0  0  0  0  0  0  0  0  0
    4.0462   -3.8396    0.0000 N   0  0  0  0  0  0  0  0  0  0  0  0
    4.7152   -3.0894    0.0000 C   0  0  0  0  0  0  0  0  0  0  0  0
    4.4056   -2.1330    0.0000 C   0  0  0  0  0  0  0  0  0  0  0  0
    3.4271   -1.9269    0.0000 N   0  0  0  0  0  0  0  0  0  0  0  0
    3.1191   -0.9755    0.0000 C   0  0  0  0  0  0  0  0  0  0  0  0
    2.1412   -0.7665    0.0000 C   0  0  0  0  0  0  0  0  0  0  0  0
    1.8332    0.1849    0.0000 C   0  0  0  0  0  0  0  0  0  0  0  0
    0.8780    0.4964    0.0000 C   0  0  0  0  0  0  0  0  0  0  0  0
    0.0000    0.0000    0.0000 C   0  0  0  0  0  0  0  0  0  0  0  0
   -0.8635    0.5043    0.0000 C   0  0  0  0  0  0  0  0  0  0  0  0
   -0.8584    1.5098    0.0000 N   0  0  0  0  0  0  0  0  0  0  0  0
    0.0101    2.0110    0.0000 C   0  0  0  0  0  0  0  0  0  0  0  0
    0.8791    1.5011    0.0000 C   0  0  0  0  0  0  0  0  0  0  0  0
    1.8349    1.8105    0.0000 N   0  0  0  0  0  0  0  0  0  0  0  0
    2.4247    0.9971    0.0000 C   0  0  0  0  0  0  0  0  0  0  0  0
    1.4712   -1.5089    0.0000 O   0  0  0  0  0  0  0  0  0  0  0  0
    3.7890   -0.2331    0.0000 O   0  0  0  0  0  0  0  0  0  0  0  0
    2.7549   -2.6674    0.0000 C   0  0  0  0  0  0  0  0  0  0  0  0
    3.0645   -3.6237    0.0000 C   0  0  0  0  0  0  0  0  0  0  0  0
    5.3321   -5.0000    0.0000 O   0  0  0  0  0  0  0  0  0  0  0  0
    2.7018   -5.3204    0.0000 C   0  0  0  0  0  0  0  0  0  0  0  0
    2.0318   -6.0628    0.0000 C   0  0  0  0  0  0  0  0  0  0  0  0
    2.3342   -7.0160    0.0000 C   0  0  0  0  0  0  0  0  0  0  0  0
  1  2  1  0  0  0  0
  2 28  2  0  0  0  0
  2  3  1  0  0  0  0
  3  4  2  0  0  0  0
  4  5  1  0  0  0  0
  5  6  1  0  0  0  0
  6 24  1  0  0  0  0
  6  7  1  0  0  0  0
  7  8  1  0  0  0  0
  8  9  1  0  0  0  0
  9 10  1  0  0  0  0
 10 11  1  0  0  0  0
 11 12  1  0  0  0  0
 12 20  2  0  0  0  0
 12 13  1  0  0  0  0
 13 18  2  0  0  0  0
 13 14  1  0  0  0  0
 14 15  2  0  0  0  0
 15 16  1  0  0  0  0
 16 17  2  0  0  0  0
 17 18  1  0  0  0  0
 18 19  1  0  0  0  0
 19 20  1  0  0  0  0
 11 21  2  0  0  0  0
 10 22  2  0  0  0  0
  9 23  1  0  0  0  0
 23 24  1  0  0  0  0
  5 25  2  0  0  0  0
  4 26  1  0  0  0  0
 26 27  2  0  0  0  0
 27 28  1  0  0  0  0
M  END
$$$$
CAR-INS-33b-3
  -OEChem-03222016562D

 27 30  0     0  0  0  0  0  0999 V2000
    0.4933   -1.2999    0.0000 O   0  0  0  0  0  0  0  0  0  0  0  0
    1.4712   -1.5089    0.0000 C   0  0  0  0  0  0  0  0  0  0  0  0
    2.1412   -0.7665    0.0000 C   0  0  0  0  0  0  0  0  0  0  0  0
    1.8332    0.1849    0.0000 C   0  0  0  0  0  0  0  0  0  0  0  0
    0.8780    0.4964    0.0000 C   0  0  0  0  0  0  0  0  0  0  0  0
    0.0000    0.0000    0.0000 C   0  0  0  0  0  0  0  0  0  0  0  0
   -0.8635    0.5043    0.0000 C   0  0  0  0  0  0  0  0  0  0  0  0
   -0.8584    1.5098    0.0000 N   0  0  0  0  0  0  0  0  0  0  0  0
    0.0101    2.0110    0.0000 C   0  0  0  0  0  0  0  0  0  0  0  0
    0.8791    1.5011    0.0000 C   0  0  0  0  0  0  0  0  0  0  0  0
    1.8349    1.8105    0.0000 N   0  0  0  0  0  0  0  0  0  0  0  0
    2.4247    0.9971    0.0000 C   0  0  0  0  0  0  0  0  0  0  0  0
    3.1191   -0.9755    0.0000 O   0  0  0  0  0  0  0  0  0  0  0  0
    1.7792   -2.4603    0.0000 N   0  0  0  0  0  0  0  0  0  0  0  0
    1.1102   -3.2105    0.0000 C   0  0  0  0  0  0  0  0  0  0  0  0
    1.4198   -4.1668    0.0000 C   0  0  0  0  0  0  0  0  0  0  0  0
    2.3983   -4.3730    0.0000 N   0  0  0  0  0  0  0  0  0  0  0  0
    2.7063   -5.3244    0.0000 C   0  0  0  0  0  0  0  0  0  0  0  0
    3.6842   -5.5334    0.0000 C   0  0  0  0  0  0  0  0  0  0  0  0
    4.3554   -4.7851    0.0000 C   0  0  0  0  0  0  0  0  0  0  0  0
    5.3334   -4.9941    0.0000 C   0  0  0  0  0  0  0  0  0  0  0  0
    5.6469   -5.9437    0.0000 C   0  0  0  0  0  0  0  0  0  0  0  0
    4.9757   -6.6919    0.0000 C   0  0  0  0  0  0  0  0  0  0  0  0
    3.9909   -6.4906    0.0000 C   0  0  0  0  0  0  0  0  0  0  0  0
    2.0363   -6.0668    0.0000 O   0  0  0  0  0  0  0  0  0  0  0  0
    3.0704   -3.6325    0.0000 C   0  0  0  0  0  0  0  0  0  0  0  0
    2.7609   -2.6762    0.0000 C   0  0  0  0  0  0  0  0  0  0  0  0
  1  2  2  0  0  0  0
  2  3  1  0  0  0  0
  3  4  1  0  0  0  0
  4 12  2  0  0  0  0
  4  5  1  0  0  0  0
  5 10  2  0  0  0  0
  5  6  1  0  0  0  0
  6  7  2  0  0  0  0
  7  8  1  0  0  0  0
  8  9  2  0  0  0  0
  9 10  1  0  0  0  0
 10 11  1  0  0  0  0
 11 12  1  0  0  0  0
  3 13  2  0  0  0  0
  2 14  1  0  0  0  0
 14 27  1  0  0  0  0
 14 15  1  0  0  0  0
 15 16  1  0  0  0  0
 16 17  1  0  0  0  0
 17 18  1  0  0  0  0
 18 19  1  0  0  0  0
 19 24  2  0  0  0  0
 19 20  1  0  0  0  0
 20 21  2  0  0  0  0
 21 22  1  0  0  0  0
 22 23  2  0  0  0  0
 23 24  1  0  0  0  0
 18 25  2  0  0  0  0
 17 26  1  0  0  0  0
 26 27  1  0  0  0  0
M  END
$$$$
CAR-INS-33b-4
  -OEChem-03222016562D

 29 32  0     0  0  0  0  0  0999 V2000
   -0.8765   -1.4939    0.0000 C   0  0  0  0  0  0  0  0  0  0  0  0
   -0.0070   -1.0000    0.0000 O   0  0  0  0  0  0  0  0  0  0  0  0
    0.0000    0.0000    0.0000 C   0  0  0  0  0  0  0  0  0  0  0  0
    0.8780    0.4964    0.0000 C   0  0  0  0  0  0  0  0  0  0  0  0
    1.8332    0.1849    0.0000 C   0  0  0  0  0  0  0  0  0  0  0  0
    2.1412   -0.7665    0.0000 C   0  0  0  0  0  0  0  0  0  0  0  0
    3.1191   -0.9755    0.0000 C   0  0  0  0  0  0  0  0  0  0  0  0
    3.4271   -1.9269    0.0000 N   0  0  0  0  0  0  0  0  0  0  0  0
    2.7581   -2.6771    0.0000 C   0  0  0  0  0  0  0  0  0  0  0  0
    3.0676   -3.6334    0.0000 C   0  0  0  0  0  0  0  0  0  0  0  0
    4.0462   -3.8396    0.0000 N   0  0  0  0  0  0  0  0  0  0  0  0
    4.3542   -4.7910    0.0000 C   0  0  0  0  0  0  0  0  0  0  0  0
    5.3321   -5.0000    0.0000 C   0  0  0  0  0  0  0  0  0  0  0  0
    6.0033   -4.2517    0.0000 C   0  0  0  0  0  0  0  0  0  0  0  0
    6.9813   -4.4607    0.0000 C   0  0  0  0  0  0  0  0  0  0  0  0
    7.2948   -5.4103    0.0000 C   0  0  0  0  0  0  0  0  0  0  0  0
    6.6236   -6.1585    0.0000 C   0  0  0  0  0  0  0  0  0  0  0  0
    5.6388   -5.9572    0.0000 C   0  0  0  0  0  0  0  0  0  0  0  0
    3.6842   -5.5334    0.0000 O   0  0  0  0  0  0  0  0  0  0  0  0
    4.7183   -3.0991    0.0000 C   0  0  0  0  0  0  0  0  0  0  0  0
    4.4087   -2.1427    0.0000 C   0  0  0  0  0  0  0  0  0  0  0  0
    3.7890   -0.2331    0.0000 O   0  0  0  0  0  0  0  0  0  0  0  0
    1.4712   -1.5089    0.0000 O   0  0  0  0  0  0  0  0  0  0  0  0
    2.4247    0.9971    0.0000 C   0  0  0  0  0  0  0  0  0  0  0  0
    1.8349    1.8105    0.0000 N   0  0  0  0  0  0  0  0  0  0  0  0
    0.8791    1.5011    0.0000 C   0  0  0  0  0  0  0  0  0  0  0  0
    0.0101    2.0110    0.0000 C   0  0  0  0  0  0  0  0  0  0  0  0
   -0.8584    1.5098    0.0000 N   0  0  0  0  0  0  0  0  0  0  0  0
   -0.8635    0.5043    0.0000 C   0  0  0  0  0  0  0  0  0  0  0  0
  1  2  1  0  0  0  0
  2  3  1  0  0  0  0
  3 29  2  0  0  0  0
  3  4  1  0  0  0  0
  4 26  2  0  0  0  0
  4  5  1  0  0  0  0
  5  6  1  0  0  0  0
  6  7  1  0  0  0  0
  7  8  1  0  0  0  0
  8 21  1  0  0  0  0
  8  9  1  0  0  0  0
  9 10  1  0  0  0  0
 10 11  1  0  0  0  0
 11 12  1  0  0  0  0
 12 13  1  0  0  0  0
 13 18  2  0  0  0  0
 13 14  1  0  0  0  0
 14 15  2  0  0  0  0
 15 16  1  0  0  0  0
 16 17  2  0  0  0  0
 17 18  1  0  0  0  0
 12 19  2  0  0  0  0
 11 20  1  0  0  0  0
 20 21  1  0  0  0  0
  7 22  2  0  0  0  0
  6 23  2  0  0  0  0
  5 24  2  0  0  0  0
 24 25  1  0  0  0  0
 25 26  1  0  0  0  0
 26 27  1  0  0  0  0
 27 28  2  0  0  0  0
 28 29  1  0  0  0  0
M  END
$$$$
SAL-INS-316-1
  -OEChem-03222016562D

 33 37  0     0  0  0  0  0  0999 V2000
   -3.0915   -0.0398    0.0000 N   0  0  0  0  0  0  0  0  0  0  0  0
   -2.5039   -0.8547    0.0000 C   0  0  0  0  0  0  0  0  0  0  0  0
   -1.5039   -0.8592    0.0000 C   0  0  0  0  0  0  0  0  0  0  0  0
   -1.0000    0.0045    0.0000 C   0  0  0  0  0  0  0  0  0  0  0  0
    0.0000    0.0000    0.0000 C   0  0  0  0  0  0  0  0  0  0  0  0
    0.5915    0.8064    0.0000 C   0  0  0  0  0  0  0  0  0  0  0  0
    1.5413    0.4930    0.0000 C   0  0  0  0  0  0  0  0  0  0  0  0
    2.4944    0.7970    0.0000 S   0  0  0  0  0  0  0  0  0  0  0  0
    3.0782   -0.0149    0.0000 C   0  0  0  0  0  0  0  0  0  0  0  0
    4.0782   -0.0199    0.0000 N   0  0  0  0  0  0  0  0  0  0  0  0
    4.5825    0.8436    0.0000 C   0  0  0  0  0  0  0  0  0  0  0  0
    4.0868    1.7121    0.0000 O   0  0  0  0  0  0  0  0  0  0  0  0
    5.5825    0.8387    0.0000 N   0  0  0  0  0  0  0  0  0  0  0  0
    6.0868    1.7022    0.0000 C   0  0  0  0  0  0  0  0  0  0  0  0
    5.5886    2.5693    0.0000 C   0  0  0  0  0  0  0  0  0  0  0  0
    6.0955    3.4373    0.0000 C   0  0  0  0  0  0  0  0  0  0  0  0
    7.1006    3.4382    0.0000 N   0  0  0  0  0  0  0  0  0  0  0  0
    7.5937    2.5623    0.0000 C   0  0  0  0  0  0  0  0  0  0  0  0
    7.0868    1.6943    0.0000 N   0  0  0  0  0  0  0  0  0  0  0  0
    2.4863   -0.8210    0.0000 C   0  0  0  0  0  0  0  0  0  0  0  0
    2.7905   -1.7736    0.0000 C   0  0  0  0  0  0  0  0  0  0  0  0
    3.7676   -1.9865    0.0000 C   0  0  0  0  0  0  0  0  0  0  0  0
    4.4418   -1.2409    0.0000 C   0  0  0  0  0  0  0  0  0  0  0  0
    5.4189   -1.4537    0.0000 C   0  0  0  0  0  0  0  0  0  0  0  0
    5.7287   -2.4046    0.0000 C   0  0  0  0  0  0  0  0  0  0  0  0
    6.7067   -2.6131    0.0000 O   0  0  0  0  0  0  0  0  0  0  0  0
    5.0545   -3.1501    0.0000 C   0  0  0  0  0  0  0  0  0  0  0  0
    4.0705   -2.9449    0.0000 C   0  0  0  0  0  0  0  0  0  0  0  0
    1.5367   -0.5071    0.0000 C   0  0  0  0  0  0  0  0  0  0  0  0
    0.5842   -0.8118    0.0000 N   0  0  0  0  0  0  0  0  0  0  0  0
   -3.0971   -1.6618    0.0000 N   0  0  0  0  0  0  0  0  0  0  0  0
   -4.0486   -1.3493    0.0000 C   0  0  0  0  0  0  0  0  0  0  0  0
   -4.0429   -0.3493    0.0000 C   0  0  0  0  0  0  0  0  0  0  0  0
  1 33  1  0  0  0  0
  1  2  1  0  0  0  0
  2  3  1  0  0  0  0
  3  4  1  0  0  0  0
  4  5  1  0  0  0  0
  5 30  1  0  0  0  0
  5  6  2  0  0  0  0
  6  7  1  0  0  0  0
  7 29  2  0  0  0  0
  7  8  1  0  0  0  0
  8  9  1  0  0  0  0
  9 10  1  0  0  0  0
 10 11  1  0  0  0  0
 11 12  2  0  0  0  0
 11 13  1  0  0  0  0
 13 14  1  0  0  0  0
 14 19  1  0  0  0  0
 14 15  2  0  0  0  0
 15 16  1  0  0  0  0
 16 17  2  0  0  0  0
 17 18  1  0  0  0  0
 18 19  2  0  0  0  0
  9 20  2  0  0  0  0
 20 21  1  0  0  0  0
 21 22  1  0  0  0  0
 22 28  1  0  0  0  0
 22 23  1  0  0  0  0
 23 24  1  0  0  0  0
 24 25  1  0  0  0  0
 25 26  1  0  0  0  0
 25 27  1  0  0  0  0
 27 28  1  0  0  0  0
 20 29  1  0  0  0  0
 29 30  1  0  0  0  0
  2 31  2  0  0  0  0
 31 32  1  0  0  0  0
 32 33  2  0  0  0  0
M  END
$$$$
SAL-INS-316-2
  -OEChem-03222016562D

 25 28  0     0  0  0  0  0  0999 V2000
   -0.4016    3.7343    0.0000 N   0  0  0  0  0  0  0  0  0  0  0  0
   -0.9951    2.9237    0.0000 C   0  0  0  0  0  0  0  0  0  0  0  0
   -0.6904    1.9712    0.0000 C   0  0  0  0  0  0  0  0  0  0  0  0
    0.2868    1.7589    0.0000 C   0  0  0  0  0  0  0  0  0  0  0  0
    0.5915    0.8064    0.0000 C   0  0  0  0  0  0  0  0  0  0  0  0
    0.0000    0.0000    0.0000 C   0  0  0  0  0  0  0  0  0  0  0  0
    0.5842   -0.8118    0.0000 N   0  0  0  0  0  0  0  0  0  0  0  0
    1.5367   -0.5071    0.0000 C   0  0  0  0  0  0  0  0  0  0  0  0
    2.4863   -0.8210    0.0000 C   0  0  0  0  0  0  0  0  0  0  0  0
    3.0782   -0.0149    0.0000 C   0  0  0  0  0  0  0  0  0  0  0  0
    4.0782   -0.0199    0.0000 N   0  0  0  0  0  0  0  0  0  0  0  0
    4.5825    0.8436    0.0000 C   0  0  0  0  0  0  0  0  0  0  0  0
    4.0868    1.7121    0.0000 O   0  0  0  0  0  0  0  0  0  0  0  0
    5.5825    0.8387    0.0000 N   0  0  0  0  0  0  0  0  0  0  0  0
    6.0868    1.7022    0.0000 C   0  0  0  0  0  0  0  0  0  0  0  0
    5.5886    2.5693    0.0000 C   0  0  0  0  0  0  0  0  0  0  0  0
    6.0955    3.4373    0.0000 C   0  0  0  0  0  0  0  0  0  0  0  0
    7.1006    3.4382    0.0000 N   0  0  0  0  0  0  0  0  0  0  0  0
    7.5937    2.5623    0.0000 C   0  0  0  0  0  0  0  0  0  0  0  0
    7.0868    1.6943    0.0000 N   0  0  0  0  0  0  0  0  0  0  0  0
    2.4944    0.7970    0.0000 S   0  0  0  0  0  0  0  0  0  0  0  0
    1.5413    0.4930    0.0000 C   0  0  0  0  0  0  0  0  0  0  0  0
   -1.9460    3.2384    0.0000 N   0  0  0  0  0  0  0  0  0  0  0  0
   -1.9429    4.2399    0.0000 C   0  0  0  0  0  0  0  0  0  0  0  0
   -0.9900    4.5435    0.0000 C   0  0  0  0  0  0  0  0  0  0  0  0
  1 25  1  0  0  0  0
  1  2  1  0  0  0  0
  2  3  1  0  0  0  0
  3  4  1  0  0  0  0
  4  5  1  0  0  0  0
  5 22  1  0  0  0  0
  5  6  2  0  0  0  0
  6  7  1  0  0  0  0
  7  8  1  0  0  0  0
  8 22  2  0  0  0  0
  8  9  1  0  0  0  0
  9 10  2  0  0  0  0
 10 11  1  0  0  0  0
 11 12  1  0  0  0  0
 12 13  2  0  0  0  0
 12 14  1  0  0  0  0
 14 15  1  0  0  0  0
 15 20  1  0  0  0  0
 15 16  2  0  0  0  0
 16 17  1  0  0  0  0
 17 18  2  0  0  0  0
 18 19  1  0  0  0  0
 19 20  2  0  0  0  0
 10 21  1  0  0  0  0
 21 22  1  0  0  0  0
  2 23  2  0  0  0  0
 23 24  1  0  0  0  0
 24 25  2  0  0  0  0
M  END
$$$$
SAL-INS-316-3
  -OEChem-03222016562D

 26 29  0     0  0  0  0  0  0999 V2000
    0.5842   -0.8118    0.0000 N   0  0  0  0  0  0  0  0  0  0  0  0
    0.0000    0.0000    0.0000 C   0  0  0  0  0  0  0  0  0  0  0  0
    0.5915    0.8064    0.0000 C   0  0  0  0  0  0  0  0  0  0  0  0
    1.5413    0.4930    0.0000 C   0  0  0  0  0  0  0  0  0  0  0  0
    2.4944    0.7970    0.0000 S   0  0  0  0  0  0  0  0  0  0  0  0
    3.0782   -0.0149    0.0000 C   0  0  0  0  0  0  0  0  0  0  0  0
    4.0782   -0.0199    0.0000 N   0  0  0  0  0  0  0  0  0  0  0  0
    4.5825    0.8436    0.0000 C   0  0  0  0  0  0  0  0  0  0  0  0
    4.0868    1.7121    0.0000 O   0  0  0  0  0  0  0  0  0  0  0  0
    5.5825    0.8387    0.0000 N   0  0  0  0  0  0  0  0  0  0  0  0
    6.0868    1.7022    0.0000 C   0  0  0  0  0  0  0  0  0  0  0  0
    5.5886    2.5693    0.0000 C   0  0  0  0  0  0  0  0  0  0  0  0
    6.0955    3.4373    0.0000 C   0  0  0  0  0  0  0  0  0  0  0  0
    7.1006    3.4382    0.0000 N   0  0  0  0  0  0  0  0  0  0  0  0
    7.5937    2.5623    0.0000 C   0  0  0  0  0  0  0  0  0  0  0  0
    7.0868    1.6943    0.0000 N   0  0  0  0  0  0  0  0  0  0  0  0
    2.4863   -0.8210    0.0000 C   0  0  0  0  0  0  0  0  0  0  0  0
    2.7905   -1.7736    0.0000 C   0  0  0  0  0  0  0  0  0  0  0  0
    3.7676   -1.9865    0.0000 C   0  0  0  0  0  0  0  0  0  0  0  0
    4.4418   -1.2409    0.0000 C   0  0  0  0  0  0  0  0  0  0  0  0
    5.4189   -1.4537    0.0000 C   0  0  0  0  0  0  0  0  0  0  0  0
    5.7287   -2.4046    0.0000 C   0  0  0  0  0  0  0  0  0  0  0  0
    6.7067   -2.6131    0.0000 O   0  0  0  0  0  0  0  0  0  0  0  0
    5.0545   -3.1501    0.0000 C   0  0  0  0  0  0  0  0  0  0  0  0
    4.0705   -2.9449    0.0000 C   0  0  0  0  0  0  0  0  0  0  0  0
    1.5367   -0.5071    0.0000 C   0  0  0  0  0  0  0  0  0  0  0  0
  1 26  1  0  0  0  0
  1  2  1  0  0  0  0
  2  3  2  0  0  0  0
  3  4  1  0  0  0  0
  4 26  2  0  0  0  0
  4  5  1  0  0  0  0
  5  6  1  0  0  0  0
  6  7  1  0  0  0  0
  7  8  1  0  0  0  0
  8  9  2  0  0  0  0
  8 10  1  0  0  0  0
 10 11  1  0  0  0  0
 11 16  1  0  0  0  0
 11 12  2  0  0  0  0
 12 13  1  0  0  0  0
 13 14  2  0  0  0  0
 14 15  1  0  0  0  0
 15 16  2  0  0  0  0
  6 17  2  0  0  0  0
 17 18  1  0  0  0  0
 18 19  1  0  0  0  0
 19 25  1  0  0  0  0
 19 20  1  0  0  0  0
 20 21  1  0  0  0  0
 21 22  1  0  0  0  0
 22 23  1  0  0  0  0
 22 24  1  0  0  0  0
 24 25  1  0  0  0  0
 17 26  1  0  0  0  0
M  END
$$$$
SAL-INS-316-4
  -OEChem-03222016562D

 23 26  0     0  0  0  0  0  0999 V2000
   -1.9460    3.2384    0.0000 N   0  0  0  0  0  0  0  0  0  0  0  0
   -1.9429    4.2399    0.0000 C   0  0  0  0  0  0  0  0  0  0  0  0
   -0.9900    4.5435    0.0000 C   0  0  0  0  0  0  0  0  0  0  0  0
   -0.4016    3.7343    0.0000 N   0  0  0  0  0  0  0  0  0  0  0  0
   -0.9951    2.9237    0.0000 C   0  0  0  0  0  0  0  0  0  0  0  0
   -0.6904    1.9712    0.0000 C   0  0  0  0  0  0  0  0  0  0  0  0
    0.2868    1.7589    0.0000 C   0  0  0  0  0  0  0  0  0  0  0  0
    0.5915    0.8064    0.0000 C   0  0  0  0  0  0  0  0  0  0  0  0
    1.5413    0.4930    0.0000 C   0  0  0  0  0  0  0  0  0  0  0  0
    2.4944    0.7970    0.0000 S   0  0  0  0  0  0  0  0  0  0  0  0
    3.0782   -0.0149    0.0000 C   0  0  0  0  0  0  0  0  0  0  0  0
    2.4863   -0.8210    0.0000 C   0  0  0  0  0  0  0  0  0  0  0  0
    2.7905   -1.7736    0.0000 C   0  0  0  0  0  0  0  0  0  0  0  0
    3.7676   -1.9865    0.0000 C   0  0  0  0  0  0  0  0  0  0  0  0
    4.4418   -1.2409    0.0000 C   0  0  0  0  0  0  0  0  0  0  0  0
    5.4189   -1.4537    0.0000 C   0  0  0  0  0  0  0  0  0  0  0  0
    5.7287   -2.4046    0.0000 C   0  0  0  0  0  0  0  0  0  0  0  0
    6.7067   -2.6131    0.0000 O   0  0  0  0  0  0  0  0  0  0  0  0
    5.0545   -3.1501    0.0000 C   0  0  0  0  0  0  0  0  0  0  0  0
    4.0705   -2.9449    0.0000 C   0  0  0  0  0  0  0  0  0  0  0  0
    1.5367   -0.5071    0.0000 C   0  0  0  0  0  0  0  0  0  0  0  0
    0.5842   -0.8118    0.0000 N   0  0  0  0  0  0  0  0  0  0  0  0
    0.0000    0.0000    0.0000 C   0  0  0  0  0  0  0  0  0  0  0  0
  1  5  1  0  0  0  0
  1  2  1  0  0  0  0
  2  3  2  0  0  0  0
  3  4  1  0  0  0  0
  4  5  2  0  0  0  0
  5  6  1  0  0  0  0
  6  7  1  0  0  0  0
  7  8  1  0  0  0  0
  8 23  2  0  0  0  0
  8  9  1  0  0  0  0
  9 21  2  0  0  0  0
  9 10  1  0  0  0  0
 10 11  1  0  0  0  0
 11 12  2  0  0  0  0
 12 13  1  0  0  0  0
 13 14  1  0  0  0  0
 14 20  1  0  0  0  0
 14 15  1  0  0  0  0
 15 16  1  0  0  0  0
 16 17  1  0  0  0  0
 17 18  1  0  0  0  0
 17 19  1  0  0  0  0
 19 20  1  0  0  0  0
 12 21  1  0  0  0  0
 21 22  1  0  0  0  0
 22 23  1  0  0  0  0
M  END
$$$$
JOR-UNI-2fc-1
  -OEChem-03222016562D

 24 26  0     0  0  0  0  0  0999 V2000
    0.8646   -1.5025    0.0000 O   0  0  0  0  0  0  0  0  0  0  0  0
    1.7313   -1.0038    0.0000 C   0  0  0  0  0  0  0  0  0  0  0  0
    1.7328   -0.0038    0.0000 N   0  0  0  0  0  0  0  0  0  0  0  0
    0.8675    0.4975    0.0000 C   0  0  0  0  0  0  0  0  0  0  0  0
    0.8675    1.5027    0.0000 C   0  0  0  0  0  0  0  0  0  0  0  0
   -0.0000    2.0104    0.0000 N   0  0  0  0  0  0  0  0  0  0  0  0
   -0.8675    1.5027    0.0000 C   0  0  0  0  0  0  0  0  0  0  0  0
   -0.8675    0.4975    0.0000 C   0  0  0  0  0  0  0  0  0  0  0  0
    0.0000    0.0000    0.0000 C   0  0  0  0  0  0  0  0  0  0  0  0
    2.5966   -1.5050    0.0000 N   0  0  0  0  0  0  0  0  0  0  0  0
    3.4634   -1.0063    0.0000 C   0  0  0  0  0  0  0  0  0  0  0  0
    3.4648   -0.0063    0.0000 N   0  0  0  0  0  0  0  0  0  0  0  0
    2.5981    0.4925    0.0000 C   0  0  0  0  0  0  0  0  0  0  0  0
    2.5995    1.4977    0.0000 C   0  0  0  0  0  0  0  0  0  0  0  0
    3.4678    2.0041    0.0000 O   0  0  0  0  0  0  0  0  0  0  0  0
    4.3345    1.4952    0.0000 C   0  0  0  0  0  0  0  0  0  0  0  0
    4.3331    0.4900    0.0000 C   0  0  0  0  0  0  0  0  0  0  0  0
    2.5952   -2.5050    0.0000 C   0  0  0  0  0  0  0  0  0  0  0  0
    1.7225   -3.0038    0.0000 C   0  0  0  0  0  0  0  0  0  0  0  0
    1.7210   -4.0038    0.0000 C   0  0  0  0  0  0  0  0  0  0  0  0
    2.5833   -4.5101    0.0000 C   0  0  0  0  0  0  0  0  0  0  0  0
    3.4561   -4.0114    0.0000 C   0  0  0  0  0  0  0  0  0  0  0  0
    4.3184   -4.5177    0.0000 Cl  0  0  0  0  0  0  0  0  0  0  0  0
    3.4664   -3.0063    0.0000 C   0  0  0  0  0  0  0  0  0  0  0  0
  1  2  2  0  0  0  0
  2  3  1  0  0  0  0
  3  4  1  0  0  0  0
  4  9  2  0  0  0  0
  4  5  1  0  0  0  0
  5  6  2  0  0  0  0
  6  7  1  0  0  0  0
  7  8  2  0  0  0  0
  8  9  1  0  0  0  0
  2 10  1  0  0  0  0
 10 11  1  0  0  0  0
 11 12  1  0  0  0  0
 12 17  1  0  0  0  0
 12 13  1  0  0  0  0
 13 14  1  0  0  0  0
 14 15  1  0  0  0  0
 15 16  1  0  0  0  0
 16 17  1  0  0  0  0
 10 18  1  0  0  0  0
 18 24  2  0  0  0  0
 18 19  1  0  0  0  0
 19 20  2  0  0  0  0
 20 21  1  0  0  0  0
 21 22  2  0  0  0  0
 22 23  1  0  0  0  0
 22 24  1  0  0  0  0
M  END
$$$$
JOR-UNI-2fc-2
  -OEChem-03222016562D

 22 23  0     0  0  0  0  0  0999 V2000
    0.8646   -1.5025    0.0000 O   0  0  0  0  0  0  0  0  0  0  0  0
    1.7313   -1.0038    0.0000 C   0  0  0  0  0  0  0  0  0  0  0  0
    1.7328   -0.0038    0.0000 N   0  0  0  0  0  0  0  0  0  0  0  0
    0.8675    0.4975    0.0000 C   0  0  0  0  0  0  0  0  0  0  0  0
    0.8675    1.5027    0.0000 C   0  0  0  0  0  0  0  0  0  0  0  0
   -0.0000    2.0104    0.0000 N   0  0  0  0  0  0  0  0  0  0  0  0
   -0.8675    1.5027    0.0000 C   0  0  0  0  0  0  0  0  0  0  0  0
   -0.8675    0.4975    0.0000 C   0  0  0  0  0  0  0  0  0  0  0  0
    0.0000    0.0000    0.0000 C   0  0  0  0  0  0  0  0  0  0  0  0
    2.5966   -1.5050    0.0000 N   0  0  0  0  0  0  0  0  0  0  0  0
    3.4634   -1.0063    0.0000 C   0  0  0  0  0  0  0  0  0  0  0  0
    3.4648   -0.0063    0.0000 C   0  0  0  0  0  0  0  0  0  0  0  0
    4.3316    0.4925    0.0000 C   0  0  0  0  0  0  0  0  0  0  0  0
    4.3330    1.4925    0.0000 N   0  0  0  0  0  0  0  0  0  0  0  0
    5.1969   -0.0088    0.0000 N   0  0  0  0  0  0  0  0  0  0  0  0
    2.5952   -2.5050    0.0000 C   0  0  0  0  0  0  0  0  0  0  0  0
    1.7225   -3.0038    0.0000 C   0  0  0  0  0  0  0  0  0  0  0  0
    1.7210   -4.0038    0.0000 C   0  0  0  0  0  0  0  0  0  0  0  0
    2.5833   -4.5101    0.0000 C   0  0  0  0  0  0  0  0  0  0  0  0
    3.4561   -4.0114    0.0000 C   0  0  0  0  0  0  0  0  0  0  0  0
    4.3184   -4.5177    0.0000 Cl  0  0  0  0  0  0  0  0  0  0  0  0
    3.4664   -3.0063    0.0000 C   0  0  0  0  0  0  0  0  0  0  0  0
  1  2  2  0  0  0  0
  2  3  1  0  0  0  0
  3  4  1  0  0  0  0
  4  9  2  0  0  0  0
  4  5  1  0  0  0  0
  5  6  2  0  0  0  0
  6  7  1  0  0  0  0
  7  8  2  0  0  0  0
  8  9  1  0  0  0  0
  2 10  1  0  0  0  0
 10 11  1  0  0  0  0
 11 12  1  0  0  0  0
 12 13  1  0  0  0  0
 13 14  1  0  0  0  0
 13 15  2  0  0  0  0
 10 16  1  0  0  0  0
 16 22  2  0  0  0  0
 16 17  1  0  0  0  0
 17 18  2  0  0  0  0
 18 19  1  0  0  0  0
 19 20  2  0  0  0  0
 20 21  1  0  0  0  0
 20 22  1  0  0  0  0
M  END
$$$$
JOR-UNI-2fc-3
  -OEChem-03222016562D

 25 27  0     0  0  0  0  0  0999 V2000
    0.8646   -1.5025    0.0000 O   0  0  0  0  0  0  0  0  0  0  0  0
    1.7313   -1.0038    0.0000 C   0  0  0  0  0  0  0  0  0  0  0  0
    1.7328   -0.0038    0.0000 N   0  0  0  0  0  0  0  0  0  0  0  0
    0.8675    0.4975    0.0000 C   0  0  0  0  0  0  0  0  0  0  0  0
    0.8675    1.5027    0.0000 C   0  0  0  0  0  0  0  0  0  0  0  0
   -0.0000    2.0104    0.0000 N   0  0  0  0  0  0  0  0  0  0  0  0
   -0.8675    1.5027    0.0000 C   0  0  0  0  0  0  0  0  0  0  0  0
   -0.8675    0.4975    0.0000 C   0  0  0  0  0  0  0  0  0  0  0  0
    0.0000    0.0000    0.0000 C   0  0  0  0  0  0  0  0  0  0  0  0
    2.5966   -1.5050    0.0000 N   0  0  0  0  0  0  0  0  0  0  0  0
    3.4634   -1.0063    0.0000 C   0  0  0  0  0  0  0  0  0  0  0  0
    3.4648   -0.0063    0.0000 N   0  0  0  0  0  0  0  0  0  0  0  0
    4.3331    0.5002    0.0000 C   0  0  0  0  0  0  0  0  0  0  0  0
    4.3345    1.5054    0.0000 C   0  0  0  0  0  0  0  0  0  0  0  0
    3.4678    2.0041    0.0000 C   0  0  0  0  0  0  0  0  0  0  0  0
    3.4692    3.0041    0.0000 O   0  0  0  0  0  0  0  0  0  0  0  0
    2.5995    1.5079    0.0000 C   0  0  0  0  0  0  0  0  0  0  0  0
    2.5981    0.5027    0.0000 C   0  0  0  0  0  0  0  0  0  0  0  0
    2.5952   -2.5050    0.0000 C   0  0  0  0  0  0  0  0  0  0  0  0
    1.7225   -3.0038    0.0000 C   0  0  0  0  0  0  0  0  0  0  0  0
    1.7210   -4.0038    0.0000 C   0  0  0  0  0  0  0  0  0  0  0  0
    2.5833   -4.5101    0.0000 C   0  0  0  0  0  0  0  0  0  0  0  0
    3.4561   -4.0114    0.0000 C   0  0  0  0  0  0  0  0  0  0  0  0
    4.3184   -4.5177    0.0000 Cl  0  0  0  0  0  0  0  0  0  0  0  0
    3.4664   -3.0063    0.0000 C   0  0  0  0  0  0  0  0  0  0  0  0
  1  2  2  0  0  0  0
  2  3  1  0  0  0  0
  3  4  1  0  0  0  0
  4  9  2  0  0  0  0
  4  5  1  0  0  0  0
  5  6  2  0  0  0  0
  6  7  1  0  0  0  0
  7  8  2  0  0  0  0
  8  9  1  0  0  0  0
  2 10  1  0  0  0  0
 10 11  1  0  0  0  0
 11 12  1  0  0  0  0
 12 18  1  0  0  0  0
 12 13  1  0  0  0  0
 13 14  1  0  0  0  0
 14 15  1  0  0  0  0
 15 16  1  0  0  0  0
 15 17  1  0  0  0  0
 17 18  1  0  0  0  0
 10 19  1  0  0  0  0
 19 25  2  0  0  0  0
 19 20  1  0  0  0  0
 20 21  2  0  0  0  0
 21 22  1  0  0  0  0
 22 23  2  0  0  0  0
 23 24  1  0  0  0  0
 23 25  1  0  0  0  0
M  END
$$$$
JOR-UNI-2fc-4
  -OEChem-03222016562D

 24 26  0     0  0  0  0  0  0999 V2000
    0.8646   -1.5025    0.0000 O   0  0  0  0  0  0  0  0  0  0  0  0
    1.7313   -1.0038    0.0000 C   0  0  0  0  0  0  0  0  0  0  0  0
    1.7328   -0.0038    0.0000 N   0  0  0  0  0  0  0  0  0  0  0  0
    0.8675    0.4975    0.0000 C   0  0  0  0  0  0  0  0  0  0  0  0
    0.8675    1.5027    0.0000 C   0  0  0  0  0  0  0  0  0  0  0  0
   -0.0000    2.0104    0.0000 N   0  0  0  0  0  0  0  0  0  0  0  0
   -0.8675    1.5027    0.0000 C   0  0  0  0  0  0  0  0  0  0  0  0
   -0.8675    0.4975    0.0000 C   0  0  0  0  0  0  0  0  0  0  0  0
    0.0000    0.0000    0.0000 C   0  0  0  0  0  0  0  0  0  0  0  0
    2.5966   -1.5050    0.0000 N   0  0  0  0  0  0  0  0  0  0  0  0
    3.4634   -1.0063    0.0000 C   0  0  0  0  0  0  0  0  0  0  0  0
    3.4648   -0.0063    0.0000 N   0  0  0  0  0  0  0  0  0  0  0  0
    4.3331    0.5002    0.0000 C   0  0  0  0  0  0  0  0  0  0  0  0
    4.3345    1.5054    0.0000 C   0  0  0  0  0  0  0  0  0  0  0  0
    3.4678    2.0041    0.0000 N   0  0  0  0  0  0  0  0  0  0  0  0
    2.5995    1.5079    0.0000 C   0  0  0  0  0  0  0  0  0  0  0  0
    2.5981    0.5027    0.0000 C   0  0  0  0  0  0  0  0  0  0  0  0
    2.5952   -2.5050    0.0000 C   0  0  0  0  0  0  0  0  0  0  0  0
    1.7225   -3.0038    0.0000 C   0  0  0  0  0  0  0  0  0  0  0  0
    1.7210   -4.0038    0.0000 C   0  0  0  0  0  0  0  0  0  0  0  0
    2.5833   -4.5101    0.0000 C   0  0  0  0  0  0  0  0  0  0  0  0
    3.4561   -4.0114    0.0000 C   0  0  0  0  0  0  0  0  0  0  0  0
    4.3184   -4.5177    0.0000 Cl  0  0  0  0  0  0  0  0  0  0  0  0
    3.4664   -3.0063    0.0000 C   0  0  0  0  0  0  0  0  0  0  0  0
  1  2  2  0  0  0  0
  2  3  1  0  0  0  0
  3  4  1  0  0  0  0
  4  9  2  0  0  0  0
  4  5  1  0  0  0  0
  5  6  2  0  0  0  0
  6  7  1  0  0  0  0
  7  8  2  0  0  0  0
  8  9  1  0  0  0  0
  2 10  1  0  0  0  0
 10 11  1  0  0  0  0
 11 12  1  0  0  0  0
 12 17  1  0  0  0  0
 12 13  1  0  0  0  0
 13 14  1  0  0  0  0
 14 15  1  0  0  0  0
 15 16  1  0  0  0  0
 16 17  1  0  0  0  0
 10 18  1  0  0  0  0
 18 24  2  0  0  0  0
 18 19  1  0  0  0  0
 19 20  2  0  0  0  0
 20 21  1  0  0  0  0
 21 22  2  0  0  0  0
 22 23  1  0  0  0  0
 22 24  1  0  0  0  0
M  END
$$$$
JOR-UNI-2fc-5
  -OEChem-03222016562D

 25 27  0     0  0  0  0  0  0999 V2000
    0.8646   -1.5025    0.0000 O   0  0  0  0  0  0  0  0  0  0  0  0
    1.7313   -1.0038    0.0000 C   0  0  0  0  0  0  0  0  0  0  0  0
    1.7328   -0.0038    0.0000 N   0  0  0  0  0  0  0  0  0  0  0  0
    0.8675    0.4975    0.0000 C   0  0  0  0  0  0  0  0  0  0  0  0
    0.8675    1.5027    0.0000 C   0  0  0  0  0  0  0  0  0  0  0  0
   -0.0000    2.0104    0.0000 N   0  0  0  0  0  0  0  0  0  0  0  0
   -0.8675    1.5027    0.0000 C   0  0  0  0  0  0  0  0  0  0  0  0
   -0.8675    0.4975    0.0000 C   0  0  0  0  0  0  0  0  0  0  0  0
    0.0000    0.0000    0.0000 C   0  0  0  0  0  0  0  0  0  0  0  0
    2.5966   -1.5050    0.0000 N   0  0  0  0  0  0  0  0  0  0  0  0
    3.4634   -1.0063    0.0000 C   0  0  0  0  0  0  0  0  0  0  0  0
    3.4648   -0.0063    0.0000 N   0  0  0  0  0  0  0  0  0  0  0  0
    4.3331    0.5002    0.0000 C   0  0  0  0  0  0  0  0  0  0  0  0
    4.3345    1.5054    0.0000 C   0  0  0  0  0  0  0  0  0  0  0  0
    3.4678    2.0041    0.0000 N   0  0  0  0  0  0  0  0  0  0  0  0
    3.4692    3.0041    0.0000 C   0  0  0  0  0  0  0  0  0  0  0  0
    2.5995    1.5079    0.0000 C   0  0  0  0  0  0  0  0  0  0  0  0
    2.5981    0.5027    0.0000 C   0  0  0  0  0  0  0  0  0  0  0  0
    2.5952   -2.5050    0.0000 C   0  0  0  0  0  0  0  0  0  0  0  0
    1.7225   -3.0038    0.0000 C   0  0  0  0  0  0  0  0  0  0  0  0
    1.7210   -4.0038    0.0000 C   0  0  0  0  0  0  0  0  0  0  0  0
    2.5833   -4.5101    0.0000 C   0  0  0  0  0  0  0  0  0  0  0  0
    3.4561   -4.0114    0.0000 C   0  0  0  0  0  0  0  0  0  0  0  0
    4.3184   -4.5177    0.0000 Cl  0  0  0  0  0  0  0  0  0  0  0  0
    3.4664   -3.0063    0.0000 C   0  0  0  0  0  0  0  0  0  0  0  0
  1  2  2  0  0  0  0
  2  3  1  0  0  0  0
  3  4  1  0  0  0  0
  4  9  2  0  0  0  0
  4  5  1  0  0  0  0
  5  6  2  0  0  0  0
  6  7  1  0  0  0  0
  7  8  2  0  0  0  0
  8  9  1  0  0  0  0
  2 10  1  0  0  0  0
 10 11  1  0  0  0  0
 11 12  1  0  0  0  0
 12 18  1  0  0  0  0
 12 13  1  0  0  0  0
 13 14  1  0  0  0  0
 14 15  1  0  0  0  0
 15 16  1  0  0  0  0
 15 17  1  0  0  0  0
 17 18  1  0  0  0  0
 10 19  1  0  0  0  0
 19 25  2  0  0  0  0
 19 20  1  0  0  0  0
 20 21  2  0  0  0  0
 21 22  1  0  0  0  0
 22 23  2  0  0  0  0
 23 24  1  0  0  0  0
 23 25  1  0  0  0  0
M  END
$$$$
JOR-UNI-2fc-6
  -OEChem-03222016562D

 25 27  0     0  0  0  0  0  0999 V2000
    0.8646   -1.5025    0.0000 O   0  0  0  0  0  0  0  0  0  0  0  0
    1.7313   -1.0038    0.0000 C   0  0  0  0  0  0  0  0  0  0  0  0
    1.7328   -0.0038    0.0000 N   0  0  0  0  0  0  0  0  0  0  0  0
    0.8675    0.4975    0.0000 C   0  0  0  0  0  0  0  0  0  0  0  0
    0.8675    1.5027    0.0000 C   0  0  0  0  0  0  0  0  0  0  0  0
   -0.0000    2.0104    0.0000 N   0  0  0  0  0  0  0  0  0  0  0  0
   -0.8675    1.5027    0.0000 C   0  0  0  0  0  0  0  0  0  0  0  0
   -0.8675    0.4975    0.0000 C   0  0  0  0  0  0  0  0  0  0  0  0
    0.0000    0.0000    0.0000 C   0  0  0  0  0  0  0  0  0  0  0  0
    2.5966   -1.5050    0.0000 N   0  0  0  0  0  0  0  0  0  0  0  0
    3.4634   -1.0063    0.0000 C   0  0  0  0  0  0  0  0  0  0  0  0
    3.4648   -0.0063    0.0000 C   0  0  0  0  0  0  0  0  0  0  0  0
    4.3316    0.4925    0.0000 N   0  0  0  0  0  0  0  0  0  0  0  0
    4.3301    1.4925    0.0000 C   0  0  0  0  0  0  0  0  0  0  0  0
    5.2014    1.9938    0.0000 C   0  0  0  0  0  0  0  0  0  0  0  0
    6.0741    1.4951    0.0000 O   0  0  0  0  0  0  0  0  0  0  0  0
    6.0667    0.4900    0.0000 C   0  0  0  0  0  0  0  0  0  0  0  0
    5.1955   -0.0113    0.0000 C   0  0  0  0  0  0  0  0  0  0  0  0
    2.5952   -2.5050    0.0000 C   0  0  0  0  0  0  0  0  0  0  0  0
    1.7225   -3.0038    0.0000 C   0  0  0  0  0  0  0  0  0  0  0  0
    1.7210   -4.0038    0.0000 C   0  0  0  0  0  0  0  0  0  0  0  0
    2.5833   -4.5101    0.0000 C   0  0  0  0  0  0  0  0  0  0  0  0
    3.4561   -4.0114    0.0000 C   0  0  0  0  0  0  0  0  0  0  0  0
    4.3184   -4.5177    0.0000 Cl  0  0  0  0  0  0  0  0  0  0  0  0
    3.4664   -3.0063    0.0000 C   0  0  0  0  0  0  0  0  0  0  0  0
  1  2  2  0  0  0  0
  2  3  1  0  0  0  0
  3  4  1  0  0  0  0
  4  9  2  0  0  0  0
  4  5  1  0  0  0  0
  5  6  2  0  0  0  0
  6  7  1  0  0  0  0
  7  8  2  0  0  0  0
  8  9  1  0  0  0  0
  2 10  1  0  0  0  0
 10 11  1  0  0  0  0
 11 12  1  0  0  0  0
 12 13  1  0  0  0  0
 13 18  1  0  0  0  0
 13 14  1  0  0  0  0
 14 15  1  0  0  0  0
 15 16  1  0  0  0  0
 16 17  1  0  0  0  0
 17 18  1  0  0  0  0
 10 19  1  0  0  0  0
 19 25  2  0  0  0  0
 19 20  1  0  0  0  0
 20 21  2  0  0  0  0
 21 22  1  0  0  0  0
 22 23  2  0  0  0  0
 23 24  1  0  0  0  0
 23 25  1  0  0  0  0
M  END
$$$$
JOR-UNI-2fc-7
  -OEChem-03222016562D

 17 18  0     0  0  0  0  0  0999 V2000
    0.8646   -1.5025    0.0000 O   0  0  0  0  0  0  0  0  0  0  0  0
    1.7313   -1.0038    0.0000 C   0  0  0  0  0  0  0  0  0  0  0  0
    1.7328   -0.0038    0.0000 N   0  0  0  0  0  0  0  0  0  0  0  0
    0.8675    0.4975    0.0000 C   0  0  0  0  0  0  0  0  0  0  0  0
    0.8675    1.5027    0.0000 C   0  0  0  0  0  0  0  0  0  0  0  0
   -0.0000    2.0104    0.0000 N   0  0  0  0  0  0  0  0  0  0  0  0
   -0.8675    1.5027    0.0000 C   0  0  0  0  0  0  0  0  0  0  0  0
   -0.8675    0.4975    0.0000 C   0  0  0  0  0  0  0  0  0  0  0  0
    0.0000    0.0000    0.0000 C   0  0  0  0  0  0  0  0  0  0  0  0
    2.5966   -1.5050    0.0000 N   0  0  0  0  0  0  0  0  0  0  0  0
    2.5952   -2.5050    0.0000 C   0  0  0  0  0  0  0  0  0  0  0  0
    1.7225   -3.0038    0.0000 C   0  0  0  0  0  0  0  0  0  0  0  0
    1.7210   -4.0038    0.0000 C   0  0  0  0  0  0  0  0  0  0  0  0
    2.5833   -4.5101    0.0000 C   0  0  0  0  0  0  0  0  0  0  0  0
    3.4561   -4.0114    0.0000 C   0  0  0  0  0  0  0  0  0  0  0  0
    4.3184   -4.5177    0.0000 Cl  0  0  0  0  0  0  0  0  0  0  0  0
    3.4664   -3.0063    0.0000 C   0  0  0  0  0  0  0  0  0  0  0  0
  1  2  2  0  0  0  0
  2  3  1  0  0  0  0
  3  4  1  0  0  0  0
  4  9  2  0  0  0  0
  4  5  1  0  0  0  0
  5  6  2  0  0  0  0
  6  7  1  0  0  0  0
  7  8  2  0  0  0  0
  8  9  1  0  0  0  0
  2 10  1  0  0  0  0
 10 11  1  0  0  0  0
 11 17  2  0  0  0  0
 11 12  1  0  0  0  0
 12 13  2  0  0  0  0
 13 14  1  0  0  0  0
 14 15  2  0  0  0  0
 15 16  1  0  0  0  0
 15 17  1  0  0  0  0
M  END
$$$$
JOR-UNI-2fc-8
  -OEChem-03222016562D

 22 24  0     0  0  0  0  0  0999 V2000
    0.8646   -1.5025    0.0000 O   0  0  0  0  0  0  0  0  0  0  0  0
    1.7313   -1.0038    0.0000 C   0  0  0  0  0  0  0  0  0  0  0  0
    1.7328   -0.0038    0.0000 N   0  0  0  0  0  0  0  0  0  0  0  0
    0.8675    0.4975    0.0000 C   0  0  0  0  0  0  0  0  0  0  0  0
    0.8675    1.5027    0.0000 C   0  0  0  0  0  0  0  0  0  0  0  0
   -0.0000    2.0104    0.0000 N   0  0  0  0  0  0  0  0  0  0  0  0
   -0.8675    1.5027    0.0000 C   0  0  0  0  0  0  0  0  0  0  0  0
   -0.8675    0.4975    0.0000 C   0  0  0  0  0  0  0  0  0  0  0  0
    0.0000    0.0000    0.0000 C   0  0  0  0  0  0  0  0  0  0  0  0
    2.5966   -1.5050    0.0000 N   0  0  0  0  0  0  0  0  0  0  0  0
    3.4634   -1.0063    0.0000 C   0  0  0  0  0  0  0  0  0  0  0  0
    3.4648   -0.0063    0.0000 C   0  0  0  0  0  0  0  0  0  0  0  0
    4.3316    0.4925    0.0000 C   0  0  0  0  0  0  0  0  0  0  0  0
    5.3335    0.4921    0.0000 C   0  0  0  0  0  0  0  0  0  0  0  0
    4.8347    1.3589    0.0000 C   0  0  0  0  0  0  0  0  0  0  0  0
    2.5952   -2.5050    0.0000 C   0  0  0  0  0  0  0  0  0  0  0  0
    1.7225   -3.0038    0.0000 C   0  0  0  0  0  0  0  0  0  0  0  0
    1.7210   -4.0038    0.0000 C   0  0  0  0  0  0  0  0  0  0  0  0
    2.5833   -4.5101    0.0000 C   0  0  0  0  0  0  0  0  0  0  0  0
    3.4561   -4.0114    0.0000 C   0  0  0  0  0  0  0  0  0  0  0  0
    4.3184   -4.5177    0.0000 Cl  0  0  0  0  0  0  0  0  0  0  0  0
    3.4664   -3.0063    0.0000 C   0  0  0  0  0  0  0  0  0  0  0  0
  1  2  2  0  0  0  0
  2  3  1  0  0  0  0
  3  4  1  0  0  0  0
  4  9  2  0  0  0  0
  4  5  1  0  0  0  0
  5  6  2  0  0  0  0
  6  7  1  0  0  0  0
  7  8  2  0  0  0  0
  8  9  1  0  0  0  0
  2 10  1  0  0  0  0
 10 11  1  0  0  0  0
 11 12  1  0  0  0  0
 12 13  1  0  0  0  0
 13 15  1  0  0  0  0
 13 14  1  0  0  0  0
 14 15  1  0  0  0  0
 10 16  1  0  0  0  0
 16 22  2  0  0  0  0
 16 17  1  0  0  0  0
 17 18  2  0  0  0  0
 18 19  1  0  0  0  0
 19 20  2  0  0  0  0
 20 21  1  0  0  0  0
 20 22  1  0  0  0  0
M  END
$$$$
JOR-UNI-2fc-9
  -OEChem-03222016562D

 26 28  0     1  0  0  0  0  0999 V2000
    1.6983   -3.6216    0.0000 O   0  0  0  0  0  0  0  0  0  0  0  0
    1.2737   -2.7162    0.0000 C   0  0  0  0  0  0  0  0  0  0  0  0
    0.2774   -2.6312    0.0000 N   0  0  0  0  0  0  0  0  0  0  0  0
   -0.2945   -3.4516    0.0000 C   0  0  0  0  0  0  0  0  0  0  0  0
   -1.2961   -3.3676    0.0000 C   0  0  0  0  0  0  0  0  0  0  0  0
   -1.8745   -4.1896    0.0000 N   0  0  0  0  0  0  0  0  0  0  0  0
   -1.4411   -5.0965    0.0000 C   0  0  0  0  0  0  0  0  0  0  0  0
   -0.4394   -5.1805    0.0000 C   0  0  0  0  0  0  0  0  0  0  0  0
    0.1288   -4.3576    0.0000 C   0  0  0  0  0  0  0  0  0  0  0  0
    1.8455   -1.8958    0.0000 N   0  0  0  0  0  0  0  0  0  0  0  0
    1.4210   -0.9904    0.0000 C   0  0  0  0  0  0  0  0  0  0  0  0
    0.4246   -0.9054    0.0000 C   0  0  0  0  0  0  0  0  0  0  0  0
    0.0000    0.0000    0.0000 N   0  0  3  0  0  0  0  0  0  0  0  0
    0.6361    0.7760    0.0000 C   0  0  0  0  0  0  0  0  0  0  0  0
    0.4188    1.7552    0.0000 C   0  0  0  0  0  0  0  0  0  0  0  0
   -0.4840    2.2012    0.0000 O   0  0  0  0  0  0  0  0  0  0  0  0
   -1.3907    1.7794    0.0000 C   0  0  0  0  0  0  0  0  0  0  0  0
   -1.6255    0.8001    0.0000 C   0  0  0  0  0  0  0  0  0  0  0  0
   -1.0058    0.0072    0.0000 C   0  0  0  0  0  0  0  0  0  0  0  0
    2.8419   -1.9808    0.0000 C   0  0  0  0  0  0  0  0  0  0  0  0
    3.2660   -2.8921    0.0000 C   0  0  0  0  0  0  0  0  0  0  0  0
    4.2624   -2.9772    0.0000 C   0  0  0  0  0  0  0  0  0  0  0  0
    4.8390   -2.1601    0.0000 C   0  0  0  0  0  0  0  0  0  0  0  0
    4.4149   -1.2488    0.0000 C   0  0  0  0  0  0  0  0  0  0  0  0
    4.9916   -0.4318    0.0000 Cl  0  0  0  0  0  0  0  0  0  0  0  0
    3.4142   -1.1545    0.0000 C   0  0  0  0  0  0  0  0  0  0  0  0
  1  2  2  0  0  0  0
  2  3  1  0  0  0  0
  3  4  1  0  0  0  0
  4  9  2  0  0  0  0
  4  5  1  0  0  0  0
  5  6  2  0  0  0  0
  6  7  1  0  0  0  0
  7  8  2  0  0  0  0
  8  9  1  0  0  0  0
  2 10  1  0  0  0  0
 10 11  1  0  0  0  0
 11 12  1  0  0  0  0
 12 13  1  0  0  0  0
 13 19  1  0  0  0  0
 13 14  1  0  0  0  0
 14 15  1  0  0  0  0
 15 16  1  0  0  0  0
 16 17  1  0  0  0  0
 17 18  1  0  0  0  0
 18 19  1  0  0  0  0
 10 20  1  0  0  0  0
 20 26  2  0  0  0  0
 20 21  1  0  0  0  0
 21 22  2  0  0  0  0
 22 23  1  0  0  0  0
 23 24  2  0  0  0  0
 24 25  1  0  0  0  0
 24 26  1  0  0  0  0
M  END
$$$$
JOR-UNI-2fc-10
  -OEChem-03222016562D

 25 27  0     0  0  0  0  0  0999 V2000
    0.8646   -1.5025    0.0000 O   0  0  0  0  0  0  0  0  0  0  0  0
    1.7313   -1.0038    0.0000 C   0  0  0  0  0  0  0  0  0  0  0  0
    1.7328   -0.0038    0.0000 N   0  0  0  0  0  0  0  0  0  0  0  0
    0.8675    0.4975    0.0000 C   0  0  0  0  0  0  0  0  0  0  0  0
    0.8675    1.5027    0.0000 C   0  0  0  0  0  0  0  0  0  0  0  0
   -0.0000    2.0104    0.0000 N   0  0  0  0  0  0  0  0  0  0  0  0
   -0.8675    1.5027    0.0000 C   0  0  0  0  0  0  0  0  0  0  0  0
   -0.8675    0.4975    0.0000 C   0  0  0  0  0  0  0  0  0  0  0  0
    0.0000    0.0000    0.0000 C   0  0  0  0  0  0  0  0  0  0  0  0
    2.5966   -1.5050    0.0000 N   0  0  0  0  0  0  0  0  0  0  0  0
    3.4634   -1.0063    0.0000 C   0  0  0  0  0  0  0  0  0  0  0  0
    3.4648   -0.0063    0.0000 C   0  0  0  0  0  0  0  0  0  0  0  0
    4.3316    0.4925    0.0000 N   0  0  0  0  0  0  0  0  0  0  0  0
    5.2043   -0.0062    0.0000 C   0  0  0  0  0  0  0  0  0  0  0  0
    6.0756    0.4951    0.0000 C   0  0  0  0  0  0  0  0  0  0  0  0
    6.0741    1.4952    0.0000 N   0  3  0  0  0  0  0  0  0  0  0  0
    5.2102    1.9989    0.0000 C   0  0  0  0  0  0  0  0  0  0  0  0
    4.3390    1.4976    0.0000 C   0  0  0  0  0  0  0  0  0  0  0  0
    2.5952   -2.5050    0.0000 C   0  0  0  0  0  0  0  0  0  0  0  0
    1.7225   -3.0038    0.0000 C   0  0  0  0  0  0  0  0  0  0  0  0
    1.7210   -4.0038    0.0000 C   0  0  0  0  0  0  0  0  0  0  0  0
    2.5833   -4.5101    0.0000 C   0  0  0  0  0  0  0  0  0  0  0  0
    3.4561   -4.0114    0.0000 C   0  0  0  0  0  0  0  0  0  0  0  0
    4.3184   -4.5177    0.0000 Cl  0  0  0  0  0  0  0  0  0  0  0  0
    3.4664   -3.0063    0.0000 C   0  0  0  0  0  0  0  0  0  0  0  0
  1  2  2  0  0  0  0
  2  3  1  0  0  0  0
  3  4  1  0  0  0  0
  4  9  2  0  0  0  0
  4  5  1  0  0  0  0
  5  6  2  0  0  0  0
  6  7  1  0  0  0  0
  7  8  2  0  0  0  0
  8  9  1  0  0  0  0
  2 10  1  0  0  0  0
 10 11  1  0  0  0  0
 11 12  1  0  0  0  0
 12 13  1  0  0  0  0
 13 18  1  0  0  0  0
 13 14  1  0  0  0  0
 14 15  1  0  0  0  0
 15 16  1  0  0  0  0
 16 17  1  0  0  0  0
 17 18  1  0  0  0  0
 10 19  1  0  0  0  0
 19 25  2  0  0  0  0
 19 20  1  0  0  0  0
 20 21  2  0  0  0  0
 21 22  1  0  0  0  0
 22 23  2  0  0  0  0
 23 24  1  0  0  0  0
 23 25  1  0  0  0  0
M  CHG  1  16   1
M  END
$$$$
JOR-UNI-2fc-11
  -OEChem-03222016562D

 26 28  0     0  0  0  0  0  0999 V2000
    0.8646   -1.5025    0.0000 O   0  0  0  0  0  0  0  0  0  0  0  0
    1.7313   -1.0038    0.0000 C   0  0  0  0  0  0  0  0  0  0  0  0
    1.7328   -0.0038    0.0000 N   0  0  0  0  0  0  0  0  0  0  0  0
    0.8675    0.4975    0.0000 C   0  0  0  0  0  0  0  0  0  0  0  0
    0.8675    1.5027    0.0000 C   0  0  0  0  0  0  0  0  0  0  0  0
   -0.0000    2.0104    0.0000 N   0  0  0  0  0  0  0  0  0  0  0  0
   -0.8675    1.5027    0.0000 C   0  0  0  0  0  0  0  0  0  0  0  0
   -0.8675    0.4975    0.0000 C   0  0  0  0  0  0  0  0  0  0  0  0
    0.0000    0.0000    0.0000 C   0  0  0  0  0  0  0  0  0  0  0  0
    2.5966   -1.5050    0.0000 N   0  0  0  0  0  0  0  0  0  0  0  0
    3.4634   -1.0063    0.0000 C   0  0  0  0  0  0  0  0  0  0  0  0
    3.4648   -0.0063    0.0000 C   0  0  0  0  0  0  0  0  0  0  0  0
    4.3316    0.4925    0.0000 N   0  0  0  0  0  0  0  0  0  0  0  0
    5.2043   -0.0062    0.0000 C   0  0  0  0  0  0  0  0  0  0  0  0
    6.0756    0.4951    0.0000 C   0  0  0  0  0  0  0  0  0  0  0  0
    6.0741    1.4952    0.0000 N   0  0  0  0  0  0  0  0  0  0  0  0
    6.9409    1.9939    0.0000 C   0  0  0  0  0  0  0  0  0  0  0  0
    5.2102    1.9989    0.0000 C   0  0  0  0  0  0  0  0  0  0  0  0
    4.3390    1.4976    0.0000 C   0  0  0  0  0  0  0  0  0  0  0  0
    2.5952   -2.5050    0.0000 C   0  0  0  0  0  0  0  0  0  0  0  0
    1.7225   -3.0038    0.0000 C   0  0  0  0  0  0  0  0  0  0  0  0
    1.7210   -4.0038    0.0000 C   0  0  0  0  0  0  0  0  0  0  0  0
    2.5833   -4.5101    0.0000 C   0  0  0  0  0  0  0  0  0  0  0  0
    3.4561   -4.0114    0.0000 C   0  0  0  0  0  0  0  0  0  0  0  0
    4.3184   -4.5177    0.0000 Cl  0  0  0  0  0  0  0  0  0  0  0  0
    3.4664   -3.0063    0.0000 C   0  0  0  0  0  0  0  0  0  0  0  0
  1  2  2  0  0  0  0
  2  3  1  0  0  0  0
  3  4  1  0  0  0  0
  4  9  2  0  0  0  0
  4  5  1  0  0  0  0
  5  6  2  0  0  0  0
  6  7  1  0  0  0  0
  7  8  2  0  0  0  0
  8  9  1  0  0  0  0
  2 10  1  0  0  0  0
 10 11  1  0  0  0  0
 11 12  1  0  0  0  0
 12 13  1  0  0  0  0
 13 19  1  0  0  0  0
 13 14  1  0  0  0  0
 14 15  1  0  0  0  0
 15 16  1  0  0  0  0
 16 17  1  0  0  0  0
 16 18  1  0  0  0  0
 18 19  1  0  0  0  0
 10 20  1  0  0  0  0
 20 26  2  0  0  0  0
 20 21  1  0  0  0  0
 21 22  2  0  0  0  0
 22 23  1  0  0  0  0
 23 24  2  0  0  0  0
 24 25  1  0  0  0  0
 24 26  1  0  0  0  0
M  END
$$$$
JOR-UNI-2fc-12
  -OEChem-03222016562D

 25 27  0     0  0  0  0  0  0999 V2000
    0.8646   -1.5025    0.0000 O   0  0  0  0  0  0  0  0  0  0  0  0
    1.7313   -1.0038    0.0000 C   0  0  0  0  0  0  0  0  0  0  0  0
    1.7328   -0.0038    0.0000 N   0  0  0  0  0  0  0  0  0  0  0  0
    0.8675    0.4975    0.0000 C   0  0  0  0  0  0  0  0  0  0  0  0
    0.8675    1.5027    0.0000 C   0  0  0  0  0  0  0  0  0  0  0  0
   -0.0000    2.0104    0.0000 N   0  0  0  0  0  0  0  0  0  0  0  0
   -0.8675    1.5027    0.0000 C   0  0  0  0  0  0  0  0  0  0  0  0
   -0.8675    0.4975    0.0000 C   0  0  0  0  0  0  0  0  0  0  0  0
    0.0000    0.0000    0.0000 C   0  0  0  0  0  0  0  0  0  0  0  0
    2.5966   -1.5050    0.0000 N   0  0  0  0  0  0  0  0  0  0  0  0
    3.4634   -1.0063    0.0000 C   0  0  0  0  0  0  0  0  0  0  0  0
    3.4648   -0.0063    0.0000 C   0  0  0  0  0  0  0  0  0  0  0  0
    4.3316    0.4925    0.0000 C   0  0  0  0  0  0  0  0  0  0  0  0
    4.3301    1.4977    0.0000 C   0  0  0  0  0  0  0  0  0  0  0  0
    5.1968    1.9965    0.0000 C   0  0  0  0  0  0  0  0  0  0  0  0
    6.0651    1.5003    0.0000 C   0  0  0  0  0  0  0  0  0  0  0  0
    6.0666    0.4951    0.0000 C   0  0  0  0  0  0  0  0  0  0  0  0
    5.1999   -0.0139    0.0000 C   0  0  0  0  0  0  0  0  0  0  0  0
    2.5952   -2.5050    0.0000 C   0  0  0  0  0  0  0  0  0  0  0  0
    1.7225   -3.0038    0.0000 C   0  0  0  0  0  0  0  0  0  0  0  0
    1.7210   -4.0038    0.0000 C   0  0  0  0  0  0  0  0  0  0  0  0
    2.5833   -4.5101    0.0000 C   0  0  0  0  0  0  0  0  0  0  0  0
    3.4561   -4.0114    0.0000 C   0  0  0  0  0  0  0  0  0  0  0  0
    4.3184   -4.5177    0.0000 Cl  0  0  0  0  0  0  0  0  0  0  0  0
    3.4664   -3.0063    0.0000 C   0  0  0  0  0  0  0  0  0  0  0  0
  1  2  2  0  0  0  0
  2  3  1  0  0  0  0
  3  4  1  0  0  0  0
  4  9  2  0  0  0  0
  4  5  1  0  0  0  0
  5  6  2  0  0  0  0
  6  7  1  0  0  0  0
  7  8  2  0  0  0  0
  8  9  1  0  0  0  0
  2 10  1  0  0  0  0
 10 11  1  0  0  0  0
 11 12  1  0  0  0  0
 12 13  1  0  0  0  0
 13 18  1  0  0  0  0
 13 14  1  0  0  0  0
 14 15  1  0  0  0  0
 15 16  1  0  0  0  0
 16 17  1  0  0  0  0
 17 18  1  0  0  0  0
 10 19  1  0  0  0  0
 19 25  2  0  0  0  0
 19 20  1  0  0  0  0
 20 21  2  0  0  0  0
 21 22  1  0  0  0  0
 22 23  2  0  0  0  0
 23 24  1  0  0  0  0
 23 25  1  0  0  0  0
M  END
$$$$
JOR-UNI-2fc-13
  -OEChem-03222016562D

 26 28  0     0  0  0  0  0  0999 V2000
    0.8646   -1.5025    0.0000 O   0  0  0  0  0  0  0  0  0  0  0  0
    1.7313   -1.0038    0.0000 C   0  0  0  0  0  0  0  0  0  0  0  0
    1.7328   -0.0038    0.0000 N   0  0  0  0  0  0  0  0  0  0  0  0
    0.8675    0.4975    0.0000 C   0  0  0  0  0  0  0  0  0  0  0  0
    0.8675    1.5027    0.0000 C   0  0  0  0  0  0  0  0  0  0  0  0
   -0.0000    2.0104    0.0000 N   0  0  0  0  0  0  0  0  0  0  0  0
   -0.8675    1.5027    0.0000 C   0  0  0  0  0  0  0  0  0  0  0  0
   -0.8675    0.4975    0.0000 C   0  0  0  0  0  0  0  0  0  0  0  0
    0.0000    0.0000    0.0000 C   0  0  0  0  0  0  0  0  0  0  0  0
    2.5966   -1.5050    0.0000 N   0  0  0  0  0  0  0  0  0  0  0  0
    3.4634   -1.0063    0.0000 C   0  0  0  0  0  0  0  0  0  0  0  0
    3.4648   -0.0063    0.0000 C   0  0  0  0  0  0  0  0  0  0  0  0
    4.3316    0.4925    0.0000 N   0  0  0  0  0  0  0  0  0  0  0  0
    5.2043   -0.0062    0.0000 C   0  0  0  0  0  0  0  0  0  0  0  0
    6.0756    0.4951    0.0000 C   0  0  0  0  0  0  0  0  0  0  0  0
    6.0741    1.4952    0.0000 C   0  0  0  0  0  0  0  0  0  0  0  0
    6.9409    1.9939    0.0000 O   0  0  0  0  0  0  0  0  0  0  0  0
    5.2102    1.9989    0.0000 C   0  0  0  0  0  0  0  0  0  0  0  0
    4.3390    1.4976    0.0000 C   0  0  0  0  0  0  0  0  0  0  0  0
    2.5952   -2.5050    0.0000 C   0  0  0  0  0  0  0  0  0  0  0  0
    1.7225   -3.0038    0.0000 C   0  0  0  0  0  0  0  0  0  0  0  0
    1.7210   -4.0038    0.0000 C   0  0  0  0  0  0  0  0  0  0  0  0
    2.5833   -4.5101    0.0000 C   0  0  0  0  0  0  0  0  0  0  0  0
    3.4561   -4.0114    0.0000 C   0  0  0  0  0  0  0  0  0  0  0  0
    4.3184   -4.5177    0.0000 Cl  0  0  0  0  0  0  0  0  0  0  0  0
    3.4664   -3.0063    0.0000 C   0  0  0  0  0  0  0  0  0  0  0  0
  1  2  2  0  0  0  0
  2  3  1  0  0  0  0
  3  4  1  0  0  0  0
  4  9  2  0  0  0  0
  4  5  1  0  0  0  0
  5  6  2  0  0  0  0
  6  7  1  0  0  0  0
  7  8  2  0  0  0  0
  8  9  1  0  0  0  0
  2 10  1  0  0  0  0
 10 11  1  0  0  0  0
 11 12  1  0  0  0  0
 12 13  1  0  0  0  0
 13 19  1  0  0  0  0
 13 14  1  0  0  0  0
 14 15  1  0  0  0  0
 15 16  1  0  0  0  0
 16 17  1  0  0  0  0
 16 18  1  0  0  0  0
 18 19  1  0  0  0  0
 10 20  1  0  0  0  0
 20 26  2  0  0  0  0
 20 21  1  0  0  0  0
 21 22  2  0  0  0  0
 22 23  1  0  0  0  0
 23 24  2  0  0  0  0
 24 25  1  0  0  0  0
 24 26  1  0  0  0  0
M  END
$$$$
JOR-UNI-2fc-14
  -OEChem-03222016562D

 25 27  0     0  0  0  0  0  0999 V2000
    0.8646   -1.5025    0.0000 O   0  0  0  0  0  0  0  0  0  0  0  0
    1.7313   -1.0038    0.0000 C   0  0  0  0  0  0  0  0  0  0  0  0
    1.7328   -0.0038    0.0000 N   0  0  0  0  0  0  0  0  0  0  0  0
    0.8675    0.4975    0.0000 C   0  0  0  0  0  0  0  0  0  0  0  0
    0.8675    1.5027    0.0000 C   0  0  0  0  0  0  0  0  0  0  0  0
   -0.0000    2.0104    0.0000 N   0  0  0  0  0  0  0  0  0  0  0  0
   -0.8675    1.5027    0.0000 C   0  0  0  0  0  0  0  0  0  0  0  0
   -0.8675    0.4975    0.0000 C   0  0  0  0  0  0  0  0  0  0  0  0
    0.0000    0.0000    0.0000 C   0  0  0  0  0  0  0  0  0  0  0  0
    2.5966   -1.5050    0.0000 N   0  0  0  0  0  0  0  0  0  0  0  0
    3.4634   -1.0063    0.0000 C   0  0  0  0  0  0  0  0  0  0  0  0
    3.4648   -0.0063    0.0000 N   0  0  0  0  0  0  0  0  0  0  0  0
    4.3331    0.5002    0.0000 C   0  0  0  0  0  0  0  0  0  0  0  0
    4.3345    1.5054    0.0000 C   0  0  0  0  0  0  0  0  0  0  0  0
    3.4678    2.0041    0.0000 C   0  0  0  0  0  0  0  0  0  0  0  0
    3.4692    3.0041    0.0000 C   0  0  0  0  0  0  0  0  0  0  0  0
    2.5995    1.5079    0.0000 C   0  0  0  0  0  0  0  0  0  0  0  0
    2.5981    0.5027    0.0000 C   0  0  0  0  0  0  0  0  0  0  0  0
    2.5952   -2.5050    0.0000 C   0  0  0  0  0  0  0  0  0  0  0  0
    1.7225   -3.0038    0.0000 C   0  0  0  0  0  0  0  0  0  0  0  0
    1.7210   -4.0038    0.0000 C   0  0  0  0  0  0  0  0  0  0  0  0
    2.5833   -4.5101    0.0000 C   0  0  0  0  0  0  0  0  0  0  0  0
    3.4561   -4.0114    0.0000 C   0  0  0  0  0  0  0  0  0  0  0  0
    4.3184   -4.5177    0.0000 Cl  0  0  0  0  0  0  0  0  0  0  0  0
    3.4664   -3.0063    0.0000 C   0  0  0  0  0  0  0  0  0  0  0  0
  1  2  2  0  0  0  0
  2  3  1  0  0  0  0
  3  4  1  0  0  0  0
  4  9  2  0  0  0  0
  4  5  1  0  0  0  0
  5  6  2  0  0  0  0
  6  7  1  0  0  0  0
  7  8  2  0  0  0  0
  8  9  1  0  0  0  0
  2 10  1  0  0  0  0
 10 11  1  0  0  0  0
 11 12  1  0  0  0  0
 12 18  1  0  0  0  0
 12 13  1  0  0  0  0
 13 14  1  0  0  0  0
 14 15  1  0  0  0  0
 15 16  1  0  0  0  0
 15 17  1  0  0  0  0
 17 18  1  0  0  0  0
 10 19  1  0  0  0  0
 19 25  2  0  0  0  0
 19 20  1  0  0  0  0
 20 21  2  0  0  0  0
 21 22  1  0  0  0  0
 22 23  2  0  0  0  0
 23 24  1  0  0  0  0
 23 25  1  0  0  0  0
M  END
$$$$
JOR-UNI-2fc-15
  -OEChem-03222016562D

 26 28  0     0  0  0  0  0  0999 V2000
    0.8646   -1.5025    0.0000 O   0  0  0  0  0  0  0  0  0  0  0  0
    1.7313   -1.0038    0.0000 C   0  0  0  0  0  0  0  0  0  0  0  0
    1.7328   -0.0038    0.0000 N   0  0  0  0  0  0  0  0  0  0  0  0
    0.8675    0.4975    0.0000 C   0  0  0  0  0  0  0  0  0  0  0  0
    0.8675    1.5027    0.0000 C   0  0  0  0  0  0  0  0  0  0  0  0
   -0.0000    2.0104    0.0000 N   0  0  0  0  0  0  0  0  0  0  0  0
   -0.8675    1.5027    0.0000 C   0  0  0  0  0  0  0  0  0  0  0  0
   -0.8675    0.4975    0.0000 C   0  0  0  0  0  0  0  0  0  0  0  0
    0.0000    0.0000    0.0000 C   0  0  0  0  0  0  0  0  0  0  0  0
    2.5966   -1.5050    0.0000 N   0  0  0  0  0  0  0  0  0  0  0  0
    3.4634   -1.0063    0.0000 C   0  0  0  0  0  0  0  0  0  0  0  0
    3.4648   -0.0063    0.0000 C   0  0  0  0  0  0  0  0  0  0  0  0
    4.3316    0.4925    0.0000 N   0  0  0  0  0  0  0  0  0  0  0  0
    5.2043   -0.0062    0.0000 C   0  0  0  0  0  0  0  0  0  0  0  0
    6.0756    0.4951    0.0000 C   0  0  0  0  0  0  0  0  0  0  0  0
    6.0741    1.4952    0.0000 C   0  0  0  0  0  0  0  0  0  0  0  0
    6.9409    1.9939    0.0000 C   0  0  0  0  0  0  0  0  0  0  0  0
    5.2102    1.9989    0.0000 C   0  0  0  0  0  0  0  0  0  0  0  0
    4.3390    1.4976    0.0000 C   0  0  0  0  0  0  0  0  0  0  0  0
    2.5952   -2.5050    0.0000 C   0  0  0  0  0  0  0  0  0  0  0  0
    1.7225   -3.0038    0.0000 C   0  0  0  0  0  0  0  0  0  0  0  0
    1.7210   -4.0038    0.0000 C   0  0  0  0  0  0  0  0  0  0  0  0
    2.5833   -4.5101    0.0000 C   0  0  0  0  0  0  0  0  0  0  0  0
    3.4561   -4.0114    0.0000 C   0  0  0  0  0  0  0  0  0  0  0  0
    4.3184   -4.5177    0.0000 Cl  0  0  0  0  0  0  0  0  0  0  0  0
    3.4664   -3.0063    0.0000 C   0  0  0  0  0  0  0  0  0  0  0  0
  1  2  2  0  0  0  0
  2  3  1  0  0  0  0
  3  4  1  0  0  0  0
  4  9  2  0  0  0  0
  4  5  1  0  0  0  0
  5  6  2  0  0  0  0
  6  7  1  0  0  0  0
  7  8  2  0  0  0  0
  8  9  1  0  0  0  0
  2 10  1  0  0  0  0
 10 11  1  0  0  0  0
 11 12  1  0  0  0  0
 12 13  1  0  0  0  0
 13 19  1  0  0  0  0
 13 14  1  0  0  0  0
 14 15  1  0  0  0  0
 15 16  1  0  0  0  0
 16 17  1  0  0  0  0
 16 18  1  0  0  0  0
 18 19  1  0  0  0  0
 10 20  1  0  0  0  0
 20 26  2  0  0  0  0
 20 21  1  0  0  0  0
 21 22  2  0  0  0  0
 22 23  1  0  0  0  0
 23 24  2  0  0  0  0
 24 25  1  0  0  0  0
 24 26  1  0  0  0  0
M  END
$$$$
JOR-UNI-2fc-16
  -OEChem-03222016562D

 24 26  0     0  0  0  0  0  0999 V2000
    0.8646   -1.5025    0.0000 O   0  0  0  0  0  0  0  0  0  0  0  0
    1.7313   -1.0038    0.0000 C   0  0  0  0  0  0  0  0  0  0  0  0
    1.7328   -0.0038    0.0000 N   0  0  0  0  0  0  0  0  0  0  0  0
    0.8675    0.4975    0.0000 C   0  0  0  0  0  0  0  0  0  0  0  0
    0.8675    1.5027    0.0000 C   0  0  0  0  0  0  0  0  0  0  0  0
   -0.0000    2.0104    0.0000 N   0  0  0  0  0  0  0  0  0  0  0  0
   -0.8675    1.5027    0.0000 C   0  0  0  0  0  0  0  0  0  0  0  0
   -0.8675    0.4975    0.0000 C   0  0  0  0  0  0  0  0  0  0  0  0
    0.0000    0.0000    0.0000 C   0  0  0  0  0  0  0  0  0  0  0  0
    2.5966   -1.5050    0.0000 N   0  0  0  0  0  0  0  0  0  0  0  0
    3.4634   -1.0063    0.0000 C   0  0  0  0  0  0  0  0  0  0  0  0
    3.4648   -0.0063    0.0000 N   0  0  0  0  0  0  0  0  0  0  0  0
    4.3331    0.5002    0.0000 C   0  0  0  0  0  0  0  0  0  0  0  0
    4.3345    1.5054    0.0000 C   0  0  0  0  0  0  0  0  0  0  0  0
    3.4678    2.0041    0.0000 C   0  0  0  0  0  0  0  0  0  0  0  0
    2.5995    1.5079    0.0000 C   0  0  0  0  0  0  0  0  0  0  0  0
    2.5981    0.5027    0.0000 C   0  0  0  0  0  0  0  0  0  0  0  0
    2.5952   -2.5050    0.0000 C   0  0  0  0  0  0  0  0  0  0  0  0
    1.7225   -3.0038    0.0000 C   0  0  0  0  0  0  0  0  0  0  0  0
    1.7210   -4.0038    0.0000 C   0  0  0  0  0  0  0  0  0  0  0  0
    2.5833   -4.5101    0.0000 C   0  0  0  0  0  0  0  0  0  0  0  0
    3.4561   -4.0114    0.0000 C   0  0  0  0  0  0  0  0  0  0  0  0
    4.3184   -4.5177    0.0000 Cl  0  0  0  0  0  0  0  0  0  0  0  0
    3.4664   -3.0063    0.0000 C   0  0  0  0  0  0  0  0  0  0  0  0
  1  2  2  0  0  0  0
  2  3  1  0  0  0  0
  3  4  1  0  0  0  0
  4  9  2  0  0  0  0
  4  5  1  0  0  0  0
  5  6  2  0  0  0  0
  6  7  1  0  0  0  0
  7  8  2  0  0  0  0
  8  9  1  0  0  0  0
  2 10  1  0  0  0  0
 10 11  1  0  0  0  0
 11 12  1  0  0  0  0
 12 17  1  0  0  0  0
 12 13  1  0  0  0  0
 13 14  1  0  0  0  0
 14 15  1  0  0  0  0
 15 16  1  0  0  0  0
 16 17  1  0  0  0  0
 10 18  1  0  0  0  0
 18 24  2  0  0  0  0
 18 19  1  0  0  0  0
 19 20  2  0  0  0  0
 20 21  1  0  0  0  0
 21 22  2  0  0  0  0
 22 23  1  0  0  0  0
 22 24  1  0  0  0  0
M  END
$$$$
JOR-UNI-2fc-17
  -OEChem-03222016562D

 25 27  0     0  0  0  0  0  0999 V2000
    0.8646   -1.5025    0.0000 O   0  0  0  0  0  0  0  0  0  0  0  0
    1.7313   -1.0038    0.0000 C   0  0  0  0  0  0  0  0  0  0  0  0
    1.7328   -0.0038    0.0000 N   0  0  0  0  0  0  0  0  0  0  0  0
    0.8675    0.4975    0.0000 C   0  0  0  0  0  0  0  0  0  0  0  0
    0.8675    1.5027    0.0000 C   0  0  0  0  0  0  0  0  0  0  0  0
   -0.0000    2.0104    0.0000 N   0  0  0  0  0  0  0  0  0  0  0  0
   -0.8675    1.5027    0.0000 C   0  0  0  0  0  0  0  0  0  0  0  0
   -0.8675    0.4975    0.0000 C   0  0  0  0  0  0  0  0  0  0  0  0
    0.0000    0.0000    0.0000 C   0  0  0  0  0  0  0  0  0  0  0  0
    2.5966   -1.5050    0.0000 N   0  0  0  0  0  0  0  0  0  0  0  0
    3.4634   -1.0063    0.0000 C   0  0  0  0  0  0  0  0  0  0  0  0
    3.4648   -0.0063    0.0000 C   0  0  0  0  0  0  0  0  0  0  0  0
    4.3316    0.4925    0.0000 N   0  0  0  0  0  0  0  0  0  0  0  0
    5.2043   -0.0062    0.0000 C   0  0  0  0  0  0  0  0  0  0  0  0
    6.0756    0.4951    0.0000 C   0  0  0  0  0  0  0  0  0  0  0  0
    6.0741    1.4952    0.0000 C   0  0  0  0  0  0  0  0  0  0  0  0
    5.2102    1.9989    0.0000 C   0  0  0  0  0  0  0  0  0  0  0  0
    4.3390    1.4976    0.0000 C   0  0  0  0  0  0  0  0  0  0  0  0
    2.5952   -2.5050    0.0000 C   0  0  0  0  0  0  0  0  0  0  0  0
    1.7225   -3.0038    0.0000 C   0  0  0  0  0  0  0  0  0  0  0  0
    1.7210   -4.0038    0.0000 C   0  0  0  0  0  0  0  0  0  0  0  0
    2.5833   -4.5101    0.0000 C   0  0  0  0  0  0  0  0  0  0  0  0
    3.4561   -4.0114    0.0000 C   0  0  0  0  0  0  0  0  0  0  0  0
    4.3184   -4.5177    0.0000 Cl  0  0  0  0  0  0  0  0  0  0  0  0
    3.4664   -3.0063    0.0000 C   0  0  0  0  0  0  0  0  0  0  0  0
  1  2  2  0  0  0  0
  2  3  1  0  0  0  0
  3  4  1  0  0  0  0
  4  9  2  0  0  0  0
  4  5  1  0  0  0  0
  5  6  2  0  0  0  0
  6  7  1  0  0  0  0
  7  8  2  0  0  0  0
  8  9  1  0  0  0  0
  2 10  1  0  0  0  0
 10 11  1  0  0  0  0
 11 12  1  0  0  0  0
 12 13  1  0  0  0  0
 13 18  1  0  0  0  0
 13 14  1  0  0  0  0
 14 15  1  0  0  0  0
 15 16  1  0  0  0  0
 16 17  1  0  0  0  0
 17 18  1  0  0  0  0
 10 19  1  0  0  0  0
 19 25  2  0  0  0  0
 19 20  1  0  0  0  0
 20 21  2  0  0  0  0
 21 22  1  0  0  0  0
 22 23  2  0  0  0  0
 23 24  1  0  0  0  0
 23 25  1  0  0  0  0
M  END
$$$$
KIM-UNI-2ee-1
  -OEChem-03222016562D

 18 19  0     0  0  0  0  0  0999 V2000
    0.0000    1.0052    0.0000 C   0  0  0  0  0  0  0  0  0  0  0  0
    0.0000    0.0000    0.0000 C   0  0  0  0  0  0  0  0  0  0  0  0
    0.8675   -0.4975    0.0000 N   0  0  0  0  0  0  0  0  0  0  0  0
    0.8675   -1.4975    0.0000 C   0  0  0  0  0  0  0  0  0  0  0  0
    0.0015   -1.9975    0.0000 O   0  0  0  0  0  0  0  0  0  0  0  0
    1.7335   -1.9975    0.0000 C   0  0  0  0  0  0  0  0  0  0  0  0
    1.7350    0.0000    0.0000 C   0  0  0  0  0  0  0  0  0  0  0  0
    1.7350    1.0052    0.0000 C   0  0  0  0  0  0  0  0  0  0  0  0
    0.8675    1.5129    0.0000 N   0  0  0  0  0  0  0  0  0  0  0  0
    0.8675    2.5129    0.0000 C   0  0  0  0  0  0  0  0  0  0  0  0
    0.0015    3.0129    0.0000 C   0  0  0  0  0  0  0  0  0  0  0  0
    0.0044    4.0181    0.0000 C   0  0  0  0  0  0  0  0  0  0  0  0
   -0.8616    4.5182    0.0000 C   0  0  0  0  0  0  0  0  0  0  0  0
   -0.8586    5.5181    0.0000 O   0  0  0  0  0  0  0  0  0  0  0  0
   -1.7306    4.0232    0.0000 C   0  0  0  0  0  0  0  0  0  0  0  0
   -1.7335    3.0180    0.0000 C   0  0  0  0  0  0  0  0  0  0  0  0
   -2.6025    2.5231    0.0000 Cl  0  0  0  0  0  0  0  0  0  0  0  0
   -0.8675    2.5078    0.0000 C   0  0  0  0  0  0  0  0  0  0  0  0
  1  9  1  0  0  0  0
  1  2  1  0  0  0  0
  2  3  1  0  0  0  0
  3  4  1  0  0  0  0
  4  5  2  0  0  0  0
  4  6  1  0  0  0  0
  3  7  1  0  0  0  0
  7  8  1  0  0  0  0
  8  9  1  0  0  0  0
  9 10  1  0  0  0  0
 10 11  1  0  0  0  0
 11 18  1  0  0  0  0
 11 12  2  0  0  0  0
 12 13  1  0  0  0  0
 13 14  1  0  0  0  0
 13 15  2  0  0  0  0
 15 16  1  0  0  0  0
 16 17  1  0  0  0  0
 16 18  2  0  0  0  0
M  END
$$$$
ANN-UNI-263-1
  -OEChem-03222016562D

 16 17  0     0  0  0  0  0  0999 V2000
    2.6054    3.4976    0.0000 C   0  0  0  0  0  0  0  0  0  0  0  0
    1.7379    3.0001    0.0000 C   0  0  0  0  0  0  0  0  0  0  0  0
    1.7350    2.0001    0.0000 N   0  0  0  0  0  0  0  0  0  0  0  0
    0.8675    1.5027    0.0000 C   0  0  0  0  0  0  0  0  0  0  0  0
   -0.0000    2.0104    0.0000 N   0  0  0  0  0  0  0  0  0  0  0  0
   -0.8675    1.5027    0.0000 C   0  0  0  0  0  0  0  0  0  0  0  0
   -0.8675    0.4975    0.0000 C   0  0  0  0  0  0  0  0  0  0  0  0
   -1.7328   -0.0038    0.0000 C   0  0  0  0  0  0  0  0  0  0  0  0
   -2.6025    0.5001    0.0000 N   0  0  0  0  0  0  0  0  0  0  0  0
   -3.4678   -0.0114    0.0000 C   0  0  0  0  0  0  0  0  0  0  0  0
   -4.3375    0.4822    0.0000 O   0  0  0  0  0  0  0  0  0  0  0  0
   -3.4634   -1.0166    0.0000 C   0  0  0  0  0  0  0  0  0  0  0  0
   -2.5937   -1.5103    0.0000 C   0  0  0  0  0  0  0  0  0  0  0  0
   -1.7284   -1.0089    0.0000 C   0  0  0  0  0  0  0  0  0  0  0  0
    0.0000    0.0000    0.0000 C   0  0  0  0  0  0  0  0  0  0  0  0
    0.8675    0.4975    0.0000 C   0  0  0  0  0  0  0  0  0  0  0  0
  1  2  1  0  0  0  0
  2  3  1  0  0  0  0
  3  4  1  0  0  0  0
  4 16  2  0  0  0  0
  4  5  1  0  0  0  0
  5  6  2  0  0  0  0
  6  7  1  0  0  0  0
  7  8  1  0  0  0  0
  8 14  2  0  0  0  0
  8  9  1  0  0  0  0
  9 10  1  0  0  0  0
 10 11  2  0  0  0  0
 10 12  1  0  0  0  0
 12 13  2  0  0  0  0
 13 14  1  0  0  0  0
  7 15  2  0  0  0  0
 15 16  1  0  0  0  0
M  END
$$$$
ANN-UNI-263-2
  -OEChem-03222016562D

 14 15  0     0  0  0  0  0  0999 V2000
    2.6054    3.4976    0.0000 C   0  0  0  0  0  0  0  0  0  0  0  0
    1.7379    3.0001    0.0000 C   0  0  0  0  0  0  0  0  0  0  0  0
    1.7350    2.0001    0.0000 N   0  0  0  0  0  0  0  0  0  0  0  0
    0.8675    1.5027    0.0000 C   0  0  0  0  0  0  0  0  0  0  0  0
   -0.0000    2.0104    0.0000 N   0  0  0  0  0  0  0  0  0  0  0  0
   -0.8675    1.5027    0.0000 C   0  0  0  0  0  0  0  0  0  0  0  0
   -0.8675    0.4975    0.0000 C   0  0  0  0  0  0  0  0  0  0  0  0
   -1.7328   -0.0038    0.0000 C   0  0  0  0  0  0  0  0  0  0  0  0
   -1.8329   -0.9992    0.0000 O   0  0  0  0  0  0  0  0  0  0  0  0
   -2.8154   -1.2086    0.0000 C   0  0  0  0  0  0  0  0  0  0  0  0
   -3.3151   -0.3405    0.0000 N   0  0  0  0  0  0  0  0  0  0  0  0
   -2.6457    0.4045    0.0000 C   0  0  0  0  0  0  0  0  0  0  0  0
    0.0000    0.0000    0.0000 C   0  0  0  0  0  0  0  0  0  0  0  0
    0.8675    0.4975    0.0000 C   0  0  0  0  0  0  0  0  0  0  0  0
  1  2  1  0  0  0  0
  2  3  1  0  0  0  0
  3  4  1  0  0  0  0
  4 14  2  0  0  0  0
  4  5  1  0  0  0  0
  5  6  2  0  0  0  0
  6  7  1  0  0  0  0
  7  8  1  0  0  0  0
  8 12  2  0  0  0  0
  8  9  1  0  0  0  0
  9 10  1  0  0  0  0
 10 11  2  0  0  0  0
 11 12  1  0  0  0  0
  7 13  2  0  0  0  0
 13 14  1  0  0  0  0
M  END
$$$$
ANN-UNI-263-3
  -OEChem-03222016562D

 18 19  0     0  0  0  0  0  0999 V2000
    0.8646   -1.5025    0.0000 O   0  0  0  0  0  0  0  0  0  0  0  0
    1.7313   -1.0038    0.0000 C   0  0  0  0  0  0  0  0  0  0  0  0
    1.7328   -0.0038    0.0000 N   0  0  0  0  0  0  0  0  0  0  0  0
    0.8675    0.4975    0.0000 C   0  0  0  0  0  0  0  0  0  0  0  0
    0.8675    1.5027    0.0000 C   0  0  0  0  0  0  0  0  0  0  0  0
   -0.0000    2.0104    0.0000 N   0  0  0  0  0  0  0  0  0  0  0  0
   -0.8675    1.5027    0.0000 C   0  0  0  0  0  0  0  0  0  0  0  0
   -0.8675    0.4975    0.0000 C   0  0  0  0  0  0  0  0  0  0  0  0
    0.0000    0.0000    0.0000 C   0  0  0  0  0  0  0  0  0  0  0  0
    2.5966   -1.5050    0.0000 N   0  0  0  0  0  0  0  0  0  0  0  0
    2.5952   -2.5050    0.0000 C   0  0  0  0  0  0  0  0  0  0  0  0
    3.4665   -3.0063    0.0000 C   0  0  0  0  0  0  0  0  0  0  0  0
    3.4651   -4.0063    0.0000 C   0  0  0  0  0  0  0  0  0  0  0  0
    2.6012   -4.5102    0.0000 C   0  0  0  0  0  0  0  0  0  0  0  0
    2.6042   -5.5102    0.0000 C   0  0  0  0  0  0  0  0  0  0  0  0
    2.6071   -6.5101    0.0000 N   0  0  0  0  0  0  0  0  0  0  0  0
    1.7300   -4.0089    0.0000 C   0  0  0  0  0  0  0  0  0  0  0  0
    1.7225   -3.0037    0.0000 C   0  0  0  0  0  0  0  0  0  0  0  0
  1  2  2  0  0  0  0
  2  3  1  0  0  0  0
  3  4  1  0  0  0  0
  4  9  2  0  0  0  0
  4  5  1  0  0  0  0
  5  6  2  0  0  0  0
  6  7  1  0  0  0  0
  7  8  2  0  0  0  0
  8  9  1  0  0  0  0
  2 10  1  0  0  0  0
 10 11  1  0  0  0  0
 11 18  2  0  0  0  0
 11 12  1  0  0  0  0
 12 13  2  0  0  0  0
 13 14  1  0  0  0  0
 14 15  1  0  0  0  0
 15 16  3  0  0  0  0
 14 17  2  0  0  0  0
 17 18  1  0  0  0  0
M  END
$$$$
ANN-UNI-263-4
  -OEChem-03222016562D

 18 19  0     0  0  0  0  0  0999 V2000
    2.6010    1.4950    0.0000 O   0  0  0  0  0  0  0  0  0  0  0  0
    2.5995    0.4950    0.0000 C   0  0  0  0  0  0  0  0  0  0  0  0
    3.4648   -0.0063    0.0000 N   0  0  0  0  0  0  0  0  0  0  0  0
    4.3316    0.4925    0.0000 C   0  0  0  0  0  0  0  0  0  0  0  0
    5.1999   -0.0139    0.0000 C   0  0  0  0  0  0  0  0  0  0  0  0
    6.0666    0.4951    0.0000 C   0  0  0  0  0  0  0  0  0  0  0  0
    6.9348   -0.0011    0.0000 C   0  0  0  0  0  0  0  0  0  0  0  0
    7.8031   -0.4972    0.0000 N   0  0  0  0  0  0  0  0  0  0  0  0
    6.0651    1.5003    0.0000 C   0  0  0  0  0  0  0  0  0  0  0  0
    5.1968    1.9965    0.0000 C   0  0  0  0  0  0  0  0  0  0  0  0
    4.3301    1.4977    0.0000 C   0  0  0  0  0  0  0  0  0  0  0  0
    1.7328   -0.0038    0.0000 N   0  0  0  0  0  0  0  0  0  0  0  0
    0.8675    0.4975    0.0000 C   0  0  0  0  0  0  0  0  0  0  0  0
    0.8675    1.5027    0.0000 C   0  0  0  0  0  0  0  0  0  0  0  0
   -0.0000    2.0104    0.0000 N   0  0  0  0  0  0  0  0  0  0  0  0
   -0.8675    1.5027    0.0000 C   0  0  0  0  0  0  0  0  0  0  0  0
   -0.8675    0.4975    0.0000 C   0  0  0  0  0  0  0  0  0  0  0  0
    0.0000    0.0000    0.0000 C   0  0  0  0  0  0  0  0  0  0  0  0
  1  2  2  0  0  0  0
  2  3  1  0  0  0  0
  3  4  1  0  0  0  0
  4 11  2  0  0  0  0
  4  5  1  0  0  0  0
  5  6  2  0  0  0  0
  6  7  1  0  0  0  0
  7  8  3  0  0  0  0
  6  9  1  0  0  0  0
  9 10  2  0  0  0  0
 10 11  1  0  0  0  0
  2 12  1  0  0  0  0
 12 13  1  0  0  0  0
 13 18  2  0  0  0  0
 13 14  1  0  0  0  0
 14 15  2  0  0  0  0
 15 16  1  0  0  0  0
 16 17  2  0  0  0  0
 17 18  1  0  0  0  0
M  END
$$$$
ANN-UNI-263-5
  -OEChem-03222016562D

 18 19  0     0  0  0  0  0  0999 V2000
    0.8646   -1.5025    0.0000 O   0  0  0  0  0  0  0  0  0  0  0  0
    1.7313   -1.0038    0.0000 C   0  0  0  0  0  0  0  0  0  0  0  0
    1.7328   -0.0038    0.0000 N   0  0  0  0  0  0  0  0  0  0  0  0
    0.8675    0.4975    0.0000 C   0  0  0  0  0  0  0  0  0  0  0  0
    0.8675    1.5027    0.0000 C   0  0  0  0  0  0  0  0  0  0  0  0
   -0.0000    2.0104    0.0000 N   0  0  0  0  0  0  0  0  0  0  0  0
   -0.8675    1.5027    0.0000 C   0  0  0  0  0  0  0  0  0  0  0  0
   -0.8675    0.4975    0.0000 C   0  0  0  0  0  0  0  0  0  0  0  0
    0.0000    0.0000    0.0000 C   0  0  0  0  0  0  0  0  0  0  0  0
    2.5966   -1.5050    0.0000 C   0  0  0  0  0  0  0  0  0  0  0  0
    2.5952   -2.5050    0.0000 C   0  0  0  0  0  0  0  0  0  0  0  0
    1.7225   -3.0037    0.0000 C   0  0  0  0  0  0  0  0  0  0  0  0
    1.7300   -4.0089    0.0000 C   0  0  0  0  0  0  0  0  0  0  0  0
    0.8662   -4.5127    0.0000 C   0  0  0  0  0  0  0  0  0  0  0  0
    0.0024   -5.0166    0.0000 N   0  0  0  0  0  0  0  0  0  0  0  0
    2.6012   -4.5102    0.0000 C   0  0  0  0  0  0  0  0  0  0  0  0
    3.4651   -4.0063    0.0000 C   0  0  0  0  0  0  0  0  0  0  0  0
    3.4665   -3.0063    0.0000 C   0  0  0  0  0  0  0  0  0  0  0  0
  1  2  2  0  0  0  0
  2  3  1  0  0  0  0
  3  4  1  0  0  0  0
  4  9  2  0  0  0  0
  4  5  1  0  0  0  0
  5  6  2  0  0  0  0
  6  7  1  0  0  0  0
  7  8  2  0  0  0  0
  8  9  1  0  0  0  0
  2 10  1  0  0  0  0
 10 11  1  0  0  0  0
 11 18  2  0  0  0  0
 11 12  1  0  0  0  0
 12 13  2  0  0  0  0
 13 14  1  0  0  0  0
 14 15  3  0  0  0  0
 13 16  1  0  0  0  0
 16 17  2  0  0  0  0
 17 18  1  0  0  0  0
M  END
$$$$
ANN-UNI-263-6
  -OEChem-03222016562D

 20 21  0     0  0  0  0  0  0999 V2000
    3.4670   -0.0051    0.0000 C   0  0  0  0  0  0  0  0  0  0  0  0
    2.6025    0.4974    0.0000 O   0  0  0  0  0  0  0  0  0  0  0  0
    1.7350    0.0000    0.0000 C   0  0  0  0  0  0  0  0  0  0  0  0
    0.8675    0.5077    0.0000 C   0  0  0  0  0  0  0  0  0  0  0  0
    0.0000    0.0000    0.0000 C   0  0  0  0  0  0  0  0  0  0  0  0
   -0.8675    0.4974    0.0000 N   0  0  0  0  0  0  0  0  0  0  0  0
   -1.7320   -0.0051    0.0000 C   0  0  0  0  0  0  0  0  0  0  0  0
   -2.5995    0.4923    0.0000 N   0  0  0  0  0  0  0  0  0  0  0  0
   -3.4641   -0.0102    0.0000 C   0  0  0  0  0  0  0  0  0  0  0  0
   -4.3346    0.4924    0.0000 C   0  0  0  0  0  0  0  0  0  0  0  0
   -5.1991   -0.0205    0.0000 C   0  0  0  0  0  0  0  0  0  0  0  0
   -6.0695    0.4719    0.0000 C   0  0  0  0  0  0  0  0  0  0  0  0
   -6.9399    0.9642    0.0000 N   0  0  0  0  0  0  0  0  0  0  0  0
   -5.1931   -1.0256    0.0000 C   0  0  0  0  0  0  0  0  0  0  0  0
   -4.3227   -1.5180    0.0000 C   0  0  0  0  0  0  0  0  0  0  0  0
   -3.4582   -1.0154    0.0000 C   0  0  0  0  0  0  0  0  0  0  0  0
   -1.7291   -1.0051    0.0000 O   0  0  0  0  0  0  0  0  0  0  0  0
    0.0000   -1.0052    0.0000 C   0  0  0  0  0  0  0  0  0  0  0  0
    0.8675   -1.5027    0.0000 C   0  0  0  0  0  0  0  0  0  0  0  0
    1.7350   -1.0052    0.0000 C   0  0  0  0  0  0  0  0  0  0  0  0
  1  2  1  0  0  0  0
  2  3  1  0  0  0  0
  3 20  2  0  0  0  0
  3  4  1  0  0  0  0
  4  5  2  0  0  0  0
  5  6  1  0  0  0  0
  6  7  1  0  0  0  0
  7  8  1  0  0  0  0
  8  9  1  0  0  0  0
  9 16  2  0  0  0  0
  9 10  1  0  0  0  0
 10 11  2  0  0  0  0
 11 12  1  0  0  0  0
 12 13  3  0  0  0  0
 11 14  1  0  0  0  0
 14 15  2  0  0  0  0
 15 16  1  0  0  0  0
  7 17  2  0  0  0  0
  5 18  1  0  0  0  0
 18 19  2  0  0  0  0
 19 20  1  0  0  0  0
M  END
$$$$
ANN-UNI-263-7
  -OEChem-03222016562D

 22 24  0     1  0  0  0  0  0999 V2000
   -2.8076   -0.1399    0.0000 N   0  0  0  0  0  0  0  0  0  0  0  0
   -3.1197   -1.0899    0.0000 C   0  0  0  0  0  0  0  0  0  0  0  0
   -2.4530   -1.8353    0.0000 C   0  0  2  0  0  0  0  0  0  0  0  0
   -3.2635   -2.4211    0.0000 H   0  0  0  0  0  0  0  0  0  0  0  0
   -1.9536   -2.7034    0.0000 C   0  0  2  0  0  0  0  0  0  0  0  0
   -2.8681   -3.1080    0.0000 H   0  0  0  0  0  0  0  0  0  0  0  0
   -1.6476   -3.6554    0.0000 C   0  0  0  0  0  0  0  0  0  0  0  0
   -2.2398   -4.4632    0.0000 C   0  0  0  0  0  0  0  0  0  0  0  0
   -1.6512   -5.2774    0.0000 S   0  0  0  0  0  0  0  0  0  0  0  0
   -0.7003   -4.9667    0.0000 C   0  0  0  0  0  0  0  0  0  0  0  0
   -0.6957   -3.9667    0.0000 C   0  0  0  0  0  0  0  0  0  0  0  0
   -0.9730   -2.4989    0.0000 C   0  0  0  0  0  0  0  0  0  0  0  0
   -0.8660   -1.5000    0.0000 N   0  0  3  0  0  0  0  0  0  0  0  0
   -0.0000   -1.0000    0.0000 C   0  0  0  0  0  0  0  0  0  0  0  0
    0.0000    0.0000    0.0000 C   0  0  0  0  0  0  0  0  0  0  0  0
   -0.8675    0.4975    0.0000 C   0  0  0  0  0  0  0  0  0  0  0  0
   -0.8675    1.5027    0.0000 C   0  0  0  0  0  0  0  0  0  0  0  0
    0.0000    2.0104    0.0000 N   0  0  0  0  0  0  0  0  0  0  0  0
    0.8675    1.5027    0.0000 C   0  0  0  0  0  0  0  0  0  0  0  0
    0.8675    0.4975    0.0000 C   0  0  0  0  0  0  0  0  0  0  0  0
   -1.7808   -1.0949    0.0000 C   0  0  0  0  0  0  0  0  0  0  0  0
   -4.0985   -1.2946    0.0000 O   0  0  0  0  0  0  0  0  0  0  0  0
  1  2  1  0  0  0  0
  2  3  1  0  0  0  0
  3  4  1  6  0  0  0
  3 21  1  0  0  0  0
  3  5  1  0  0  0  0
  5  6  1  6  0  0  0
  5  7  1  0  0  0  0
  7 11  1  0  0  0  0
  7  8  2  0  0  0  0
  8  9  1  0  0  0  0
  9 10  1  0  0  0  0
 10 11  2  0  0  0  0
  5 12  1  0  0  0  0
 12 13  1  0  0  0  0
 13 14  1  0  0  0  0
 14 15  1  0  0  0  0
 15 20  2  0  0  0  0
 15 16  1  0  0  0  0
 16 17  2  0  0  0  0
 17 18  1  0  0  0  0
 18 19  2  0  0  0  0
 19 20  1  0  0  0  0
 13 21  1  0  0  0  0
  2 22  2  0  0  0  0
M  END
$$$$
DAR-DIA-23a-1
  -OEChem-03222016562D

 21 23  0     0  0  0  0  0  0999 V2000
    4.6525   -0.7049    0.0000 O   0  0  0  0  0  0  0  0  0  0  0  0
    3.9874   -1.4517    0.0000 C   0  0  0  0  0  0  0  0  0  0  0  0
    4.3016   -2.4011    0.0000 N   0  0  0  0  0  0  0  0  0  0  0  0
    5.2808   -2.6037    0.0000 C   0  0  0  0  0  0  0  0  0  0  0  0
    5.5938   -3.5588    0.0000 C   0  0  0  0  0  0  0  0  0  0  0  0
    6.5799   -3.7538    0.0000 C   0  0  0  0  0  0  0  0  0  0  0  0
    6.8996   -4.7013    0.0000 C   0  0  0  0  0  0  0  0  0  0  0  0
    7.2194   -5.6488    0.0000 N   0  0  0  0  0  0  0  0  0  0  0  0
    7.2462   -3.0012    0.0000 C   0  0  0  0  0  0  0  0  0  0  0  0
    6.9265   -2.0536    0.0000 C   0  0  0  0  0  0  0  0  0  0  0  0
    5.9472   -1.8511    0.0000 C   0  0  0  0  0  0  0  0  0  0  0  0
    3.0082   -1.2491    0.0000 C   0  0  0  0  0  0  0  0  0  0  0  0
    2.6940   -0.2997    0.0000 C   0  0  0  0  0  0  0  0  0  0  0  0
    1.7405    0.0044    0.0000 C   0  0  0  0  0  0  0  0  0  0  0  0
    1.7350    1.0052    0.0000 C   0  0  0  0  0  0  0  0  0  0  0  0
    0.8675    1.5129    0.0000 N   0  0  0  0  0  0  0  0  0  0  0  0
    0.0000    1.0052    0.0000 C   0  0  0  0  0  0  0  0  0  0  0  0
    0.0000    0.0000    0.0000 C   0  0  0  0  0  0  0  0  0  0  0  0
    0.8675   -0.4975    0.0000 C   0  0  0  0  0  0  0  0  0  0  0  0
    2.6851    1.3196    0.0000 N   0  0  0  0  0  0  0  0  0  0  0  0
    3.2780    0.5133    0.0000 C   0  0  0  0  0  0  0  0  0  0  0  0
  1  2  2  0  0  0  0
  2  3  1  0  0  0  0
  3  4  1  0  0  0  0
  4 11  2  0  0  0  0
  4  5  1  0  0  0  0
  5  6  2  0  0  0  0
  6  7  1  0  0  0  0
  7  8  3  0  0  0  0
  6  9  1  0  0  0  0
  9 10  2  0  0  0  0
 10 11  1  0  0  0  0
  2 12  1  0  0  0  0
 12 13  1  0  0  0  0
 13 21  2  0  0  0  0
 13 14  1  0  0  0  0
 14 19  2  0  0  0  0
 14 15  1  0  0  0  0
 15 16  2  0  0  0  0
 16 17  1  0  0  0  0
 17 18  2  0  0  0  0
 18 19  1  0  0  0  0
 15 20  1  0  0  0  0
 20 21  1  0  0  0  0
M  END
$$$$
DAR-DIA-23a-2
  -OEChem-03222016562D

 21 23  0     0  0  0  0  0  0999 V2000
    4.6525   -0.7049    0.0000 O   0  0  0  0  0  0  0  0  0  0  0  0
    3.9874   -1.4517    0.0000 C   0  0  0  0  0  0  0  0  0  0  0  0
    4.3016   -2.4011    0.0000 N   0  0  0  0  0  0  0  0  0  0  0  0
    5.2808   -2.6037    0.0000 C   0  0  0  0  0  0  0  0  0  0  0  0
    5.5964   -3.5526    0.0000 C   0  0  0  0  0  0  0  0  0  0  0  0
    6.5748   -3.7595    0.0000 C   0  0  0  0  0  0  0  0  0  0  0  0
    6.8862   -4.7098    0.0000 C   0  0  0  0  0  0  0  0  0  0  0  0
    7.1976   -5.6600    0.0000 N   0  0  0  0  0  0  0  0  0  0  0  0
    7.2444   -3.0098    0.0000 C   0  0  0  0  0  0  0  0  0  0  0  0
    6.9357   -2.0533    0.0000 N   0  0  0  0  0  0  0  0  0  0  0  0
    5.9505   -1.8540    0.0000 C   0  0  0  0  0  0  0  0  0  0  0  0
    3.0082   -1.2491    0.0000 C   0  0  0  0  0  0  0  0  0  0  0  0
    2.6940   -0.2997    0.0000 C   0  0  0  0  0  0  0  0  0  0  0  0
    1.7405    0.0044    0.0000 C   0  0  0  0  0  0  0  0  0  0  0  0
    1.7350    1.0052    0.0000 C   0  0  0  0  0  0  0  0  0  0  0  0
    0.8675    1.5129    0.0000 N   0  0  0  0  0  0  0  0  0  0  0  0
    0.0000    1.0052    0.0000 C   0  0  0  0  0  0  0  0  0  0  0  0
    0.0000    0.0000    0.0000 C   0  0  0  0  0  0  0  0  0  0  0  0
    0.8675   -0.4975    0.0000 C   0  0  0  0  0  0  0  0  0  0  0  0
    2.6851    1.3196    0.0000 N   0  0  0  0  0  0  0  0  0  0  0  0
    3.2780    0.5133    0.0000 C   0  0  0  0  0  0  0  0  0  0  0  0
  1  2  2  0  0  0  0
  2  3  1  0  0  0  0
  3  4  1  0  0  0  0
  4 11  2  0  0  0  0
  4  5  1  0  0  0  0
  5  6  2  0  0  0  0
  6  7  1  0  0  0  0
  7  8  3  0  0  0  0
  6  9  1  0  0  0  0
  9 10  2  0  0  0  0
 10 11  1  0  0  0  0
  2 12  1  0  0  0  0
 12 13  1  0  0  0  0
 13 21  2  0  0  0  0
 13 14  1  0  0  0  0
 14 19  2  0  0  0  0
 14 15  1  0  0  0  0
 15 16  2  0  0  0  0
 16 17  1  0  0  0  0
 17 18  2  0  0  0  0
 18 19  1  0  0  0  0
 15 20  1  0  0  0  0
 20 21  1  0  0  0  0
M  END
$$$$
DAR-DIA-23a-3
  -OEChem-03222016562D

 19 20  0     0  0  0  0  0  0999 V2000
   -0.8646   -1.5025    0.0000 O   0  0  0  0  0  0  0  0  0  0  0  0
   -1.7313   -1.0038    0.0000 C   0  0  0  0  0  0  0  0  0  0  0  0
   -2.5966   -1.5050    0.0000 N   0  0  0  0  0  0  0  0  0  0  0  0
   -2.5952   -2.5050    0.0000 C   0  0  0  0  0  0  0  0  0  0  0  0
   -3.4664   -3.0063    0.0000 C   0  0  0  0  0  0  0  0  0  0  0  0
   -3.4561   -4.0114    0.0000 C   0  0  0  0  0  0  0  0  0  0  0  0
   -4.3184   -4.5177    0.0000 C   0  0  0  0  0  0  0  0  0  0  0  0
   -5.1807   -5.0241    0.0000 N   0  0  0  0  0  0  0  0  0  0  0  0
   -2.5833   -4.5101    0.0000 C   0  0  0  0  0  0  0  0  0  0  0  0
   -1.7210   -4.0038    0.0000 C   0  0  0  0  0  0  0  0  0  0  0  0
   -1.7225   -3.0038    0.0000 C   0  0  0  0  0  0  0  0  0  0  0  0
   -1.7328   -0.0038    0.0000 C   0  0  0  0  0  0  0  0  0  0  0  0
   -0.8675    0.4975    0.0000 C   0  0  0  0  0  0  0  0  0  0  0  0
   -0.8675    1.5027    0.0000 C   0  0  0  0  0  0  0  0  0  0  0  0
    0.0000    2.0104    0.0000 N   0  0  0  0  0  0  0  0  0  0  0  0
    0.8675    1.5027    0.0000 C   0  0  0  0  0  0  0  0  0  0  0  0
    0.8675    0.4975    0.0000 C   0  0  0  0  0  0  0  0  0  0  0  0
    1.7328   -0.0038    0.0000 N   0  0  0  0  0  0  0  0  0  0  0  0
    0.0000    0.0000    0.0000 C   0  0  0  0  0  0  0  0  0  0  0  0
  1  2  2  0  0  0  0
  2  3  1  0  0  0  0
  3  4  1  0  0  0  0
  4 11  2  0  0  0  0
  4  5  1  0  0  0  0
  5  6  2  0  0  0  0
  6  7  1  0  0  0  0
  7  8  3  0  0  0  0
  6  9  1  0  0  0  0
  9 10  2  0  0  0  0
 10 11  1  0  0  0  0
  2 12  1  0  0  0  0
 12 13  1  0  0  0  0
 13 19  1  0  0  0  0
 13 14  2  0  0  0  0
 14 15  1  0  0  0  0
 15 16  2  0  0  0  0
 16 17  1  0  0  0  0
 17 18  1  0  0  0  0
 17 19  2  0  0  0  0
M  END
$$$$
DAR-DIA-23a-4
  -OEChem-03222016562D

 18 19  0     0  0  0  0  0  0999 V2000
    0.8646   -1.5025    0.0000 O   0  0  0  0  0  0  0  0  0  0  0  0
    1.7313   -1.0038    0.0000 C   0  0  0  0  0  0  0  0  0  0  0  0
    1.7328   -0.0038    0.0000 C   0  0  0  0  0  0  0  0  0  0  0  0
    0.8675    0.4975    0.0000 C   0  0  0  0  0  0  0  0  0  0  0  0
    0.0000    0.0000    0.0000 C   0  0  0  0  0  0  0  0  0  0  0  0
   -0.8675    0.4975    0.0000 C   0  0  0  0  0  0  0  0  0  0  0  0
   -0.8675    1.5027    0.0000 C   0  0  0  0  0  0  0  0  0  0  0  0
    0.0000    2.0104    0.0000 N   0  0  0  0  0  0  0  0  0  0  0  0
    0.8675    1.5027    0.0000 C   0  0  0  0  0  0  0  0  0  0  0  0
    2.5966   -1.5050    0.0000 N   0  0  0  0  0  0  0  0  0  0  0  0
    2.5952   -2.5050    0.0000 C   0  0  0  0  0  0  0  0  0  0  0  0
    1.7225   -3.0038    0.0000 C   0  0  0  0  0  0  0  0  0  0  0  0
    1.7210   -4.0038    0.0000 C   0  0  0  0  0  0  0  0  0  0  0  0
    2.5833   -4.5101    0.0000 C   0  0  0  0  0  0  0  0  0  0  0  0
    3.4561   -4.0114    0.0000 C   0  0  0  0  0  0  0  0  0  0  0  0
    4.3184   -4.5177    0.0000 C   0  0  0  0  0  0  0  0  0  0  0  0
    5.1807   -5.0241    0.0000 N   0  0  0  0  0  0  0  0  0  0  0  0
    3.4664   -3.0063    0.0000 C   0  0  0  0  0  0  0  0  0  0  0  0
  1  2  2  0  0  0  0
  2  3  1  0  0  0  0
  3  4  1  0  0  0  0
  4  9  2  0  0  0  0
  4  5  1  0  0  0  0
  5  6  2  0  0  0  0
  6  7  1  0  0  0  0
  7  8  2  0  0  0  0
  8  9  1  0  0  0  0
  2 10  1  0  0  0  0
 10 11  1  0  0  0  0
 11 18  2  0  0  0  0
 11 12  1  0  0  0  0
 12 13  2  0  0  0  0
 13 14  1  0  0  0  0
 14 15  2  0  0  0  0
 15 16  1  0  0  0  0
 16 17  3  0  0  0  0
 15 18  1  0  0  0  0
M  END
$$$$
DAR-DIA-23a-5
  -OEChem-03222016562D

 18 19  0     0  0  0  0  0  0999 V2000
    0.8646   -1.5025    0.0000 O   0  0  0  0  0  0  0  0  0  0  0  0
    1.7313   -1.0038    0.0000 C   0  0  0  0  0  0  0  0  0  0  0  0
    1.7328   -0.0038    0.0000 N   0  0  0  0  0  0  0  0  0  0  0  0
    0.8675    0.4975    0.0000 C   0  0  0  0  0  0  0  0  0  0  0  0
    0.0000    0.0000    0.0000 C   0  0  0  0  0  0  0  0  0  0  0  0
   -0.8675    0.4975    0.0000 C   0  0  0  0  0  0  0  0  0  0  0  0
   -0.8675    1.5027    0.0000 C   0  0  0  0  0  0  0  0  0  0  0  0
    0.0000    2.0104    0.0000 N   0  0  0  0  0  0  0  0  0  0  0  0
    0.8675    1.5027    0.0000 C   0  0  0  0  0  0  0  0  0  0  0  0
    2.5966   -1.5050    0.0000 N   0  0  0  0  0  0  0  0  0  0  0  0
    2.5952   -2.5050    0.0000 C   0  0  0  0  0  0  0  0  0  0  0  0
    1.7225   -3.0038    0.0000 C   0  0  0  0  0  0  0  0  0  0  0  0
    1.7210   -4.0038    0.0000 C   0  0  0  0  0  0  0  0  0  0  0  0
    2.5833   -4.5101    0.0000 C   0  0  0  0  0  0  0  0  0  0  0  0
    3.4561   -4.0114    0.0000 C   0  0  0  0  0  0  0  0  0  0  0  0
    4.3184   -4.5177    0.0000 C   0  0  0  0  0  0  0  0  0  0  0  0
    5.1807   -5.0241    0.0000 N   0  0  0  0  0  0  0  0  0  0  0  0
    3.4664   -3.0063    0.0000 C   0  0  0  0  0  0  0  0  0  0  0  0
  1  2  2  0  0  0  0
  2  3  1  0  0  0  0
  3  4  1  0  0  0  0
  4  9  2  0  0  0  0
  4  5  1  0  0  0  0
  5  6  2  0  0  0  0
  6  7  1  0  0  0  0
  7  8  2  0  0  0  0
  8  9  1  0  0  0  0
  2 10  1  0  0  0  0
 10 11  1  0  0  0  0
 11 18  2  0  0  0  0
 11 12  1  0  0  0  0
 12 13  2  0  0  0  0
 13 14  1  0  0  0  0
 14 15  2  0  0  0  0
 15 16  1  0  0  0  0
 16 17  3  0  0  0  0
 15 18  1  0  0  0  0
M  END
$$$$
DAR-DIA-23a-6
  -OEChem-03222016562D

 18 19  0     0  0  0  0  0  0999 V2000
    0.8646   -1.5025    0.0000 O   0  0  0  0  0  0  0  0  0  0  0  0
    1.7313   -1.0038    0.0000 C   0  0  0  0  0  0  0  0  0  0  0  0
    1.7328   -0.0038    0.0000 C   0  0  0  0  0  0  0  0  0  0  0  0
    0.8675    0.4975    0.0000 C   0  0  0  0  0  0  0  0  0  0  0  0
    0.0000    0.0000    0.0000 C   0  0  0  0  0  0  0  0  0  0  0  0
   -0.8675    0.4975    0.0000 C   0  0  0  0  0  0  0  0  0  0  0  0
   -0.8675    1.5027    0.0000 C   0  0  0  0  0  0  0  0  0  0  0  0
    0.0000    2.0104    0.0000 N   0  0  0  0  0  0  0  0  0  0  0  0
    0.8675    1.5027    0.0000 C   0  0  0  0  0  0  0  0  0  0  0  0
    2.5966   -1.5050    0.0000 N   0  0  0  0  0  0  0  0  0  0  0  0
    2.5952   -2.5050    0.0000 C   0  0  0  0  0  0  0  0  0  0  0  0
    3.4643   -3.0101    0.0000 C   0  0  0  0  0  0  0  0  0  0  0  0
    3.4673   -4.0153    0.0000 N   0  0  0  0  0  0  0  0  0  0  0  0
    2.5924   -4.5102    0.0000 C   0  0  0  0  0  0  0  0  0  0  0  0
    1.7233   -4.0050    0.0000 C   0  0  0  0  0  0  0  0  0  0  0  0
    0.8551   -4.5013    0.0000 C   0  0  0  0  0  0  0  0  0  0  0  0
   -0.0131   -4.9975    0.0000 N   0  0  0  0  0  0  0  0  0  0  0  0
    1.7291   -3.0050    0.0000 C   0  0  0  0  0  0  0  0  0  0  0  0
  1  2  2  0  0  0  0
  2  3  1  0  0  0  0
  3  4  1  0  0  0  0
  4  9  2  0  0  0  0
  4  5  1  0  0  0  0
  5  6  2  0  0  0  0
  6  7  1  0  0  0  0
  7  8  2  0  0  0  0
  8  9  1  0  0  0  0
  2 10  1  0  0  0  0
 10 11  1  0  0  0  0
 11 18  2  0  0  0  0
 11 12  1  0  0  0  0
 12 13  2  0  0  0  0
 13 14  1  0  0  0  0
 14 15  2  0  0  0  0
 15 16  1  0  0  0  0
 16 17  3  0  0  0  0
 15 18  1  0  0  0  0
M  END
$$$$
DAR-DIA-23a-7
  -OEChem-03222016562D

 19 20  0     0  0  0  0  0  0999 V2000
   -2.6010    1.4950    0.0000 O   0  0  0  0  0  0  0  0  0  0  0  0
   -2.5995    0.4950    0.0000 C   0  0  0  0  0  0  0  0  0  0  0  0
   -1.7328   -0.0038    0.0000 N   0  0  0  0  0  0  0  0  0  0  0  0
   -0.8675    0.4975    0.0000 C   0  0  0  0  0  0  0  0  0  0  0  0
    0.0000    0.0000    0.0000 C   0  0  0  0  0  0  0  0  0  0  0  0
    0.8675    0.4975    0.0000 C   0  0  0  0  0  0  0  0  0  0  0  0
    1.7328   -0.0038    0.0000 C   0  0  0  0  0  0  0  0  0  0  0  0
    2.5981   -0.5050    0.0000 N   0  0  0  0  0  0  0  0  0  0  0  0
    0.8675    1.5027    0.0000 C   0  0  0  0  0  0  0  0  0  0  0  0
   -0.0000    2.0104    0.0000 N   0  0  0  0  0  0  0  0  0  0  0  0
   -0.8675    1.5027    0.0000 C   0  0  0  0  0  0  0  0  0  0  0  0
   -3.4648   -0.0063    0.0000 C   0  0  0  0  0  0  0  0  0  0  0  0
   -4.3316    0.4925    0.0000 C   0  0  0  0  0  0  0  0  0  0  0  0
   -5.2021   -0.0101    0.0000 C   0  0  0  0  0  0  0  0  0  0  0  0
   -6.0756    0.4873    0.0000 N   0  0  0  0  0  0  0  0  0  0  0  0
   -6.0696    1.4924    0.0000 C   0  0  0  0  0  0  0  0  0  0  0  0
   -5.1991    1.9950    0.0000 C   0  0  0  0  0  0  0  0  0  0  0  0
   -5.1976    2.9950    0.0000 N   0  0  0  0  0  0  0  0  0  0  0  0
   -4.3345    1.4925    0.0000 C   0  0  0  0  0  0  0  0  0  0  0  0
  1  2  2  0  0  0  0
  2  3  1  0  0  0  0
  3  4  1  0  0  0  0
  4 11  2  0  0  0  0
  4  5  1  0  0  0  0
  5  6  2  0  0  0  0
  6  7  1  0  0  0  0
  7  8  3  0  0  0  0
  6  9  1  0  0  0  0
  9 10  2  0  0  0  0
 10 11  1  0  0  0  0
  2 12  1  0  0  0  0
 12 13  1  0  0  0  0
 13 19  2  0  0  0  0
 13 14  1  0  0  0  0
 14 15  2  0  0  0  0
 15 16  1  0  0  0  0
 16 17  2  0  0  0  0
 17 18  1  0  0  0  0
 17 19  1  0  0  0  0
M  END
$$$$
DAR-DIA-23a-8
  -OEChem-03222016562D

 19 20  0     0  0  0  0  0  0999 V2000
   -2.6010    1.4950    0.0000 O   0  0  0  0  0  0  0  0  0  0  0  0
   -2.5995    0.4950    0.0000 C   0  0  0  0  0  0  0  0  0  0  0  0
   -1.7328   -0.0038    0.0000 N   0  0  0  0  0  0  0  0  0  0  0  0
   -0.8675    0.4975    0.0000 C   0  0  0  0  0  0  0  0  0  0  0  0
    0.0000    0.0000    0.0000 C   0  0  0  0  0  0  0  0  0  0  0  0
    0.8675    0.4975    0.0000 C   0  0  0  0  0  0  0  0  0  0  0  0
    1.7328   -0.0038    0.0000 N   0  0  0  0  0  0  0  0  0  0  0  0
    0.8675    1.5027    0.0000 C   0  0  0  0  0  0  0  0  0  0  0  0
   -0.0000    2.0104    0.0000 N   0  0  0  0  0  0  0  0  0  0  0  0
   -0.8675    1.5027    0.0000 C   0  0  0  0  0  0  0  0  0  0  0  0
   -3.4648   -0.0063    0.0000 N   0  0  0  0  0  0  0  0  0  0  0  0
   -4.3316    0.4925    0.0000 C   0  0  0  0  0  0  0  0  0  0  0  0
   -4.3301    1.4977    0.0000 C   0  0  0  0  0  0  0  0  0  0  0  0
   -5.1968    1.9965    0.0000 C   0  0  0  0  0  0  0  0  0  0  0  0
   -6.0651    1.5003    0.0000 C   0  0  0  0  0  0  0  0  0  0  0  0
   -6.0666    0.4951    0.0000 C   0  0  0  0  0  0  0  0  0  0  0  0
   -6.9348   -0.0011    0.0000 C   0  0  0  0  0  0  0  0  0  0  0  0
   -7.8031   -0.4972    0.0000 N   0  0  0  0  0  0  0  0  0  0  0  0
   -5.1999   -0.0139    0.0000 C   0  0  0  0  0  0  0  0  0  0  0  0
  1  2  2  0  0  0  0
  2  3  1  0  0  0  0
  3  4  1  0  0  0  0
  4 10  2  0  0  0  0
  4  5  1  0  0  0  0
  5  6  2  0  0  0  0
  6  7  1  0  0  0  0
  6  8  1  0  0  0  0
  8  9  2  0  0  0  0
  9 10  1  0  0  0  0
  2 11  1  0  0  0  0
 11 12  1  0  0  0  0
 12 19  2  0  0  0  0
 12 13  1  0  0  0  0
 13 14  2  0  0  0  0
 14 15  1  0  0  0  0
 15 16  2  0  0  0  0
 16 17  1  0  0  0  0
 17 18  3  0  0  0  0
 16 19  1  0  0  0  0
M  END
$$$$
DAR-DIA-23a-9
  -OEChem-03222016562D

 19 20  0     0  0  0  0  0  0999 V2000
   -2.6010    1.4950    0.0000 O   0  0  0  0  0  0  0  0  0  0  0  0
   -2.5995    0.4950    0.0000 C   0  0  0  0  0  0  0  0  0  0  0  0
   -1.7328   -0.0038    0.0000 N   0  0  0  0  0  0  0  0  0  0  0  0
   -0.8675    0.4975    0.0000 C   0  0  0  0  0  0  0  0  0  0  0  0
    0.0000    0.0000    0.0000 C   0  0  0  0  0  0  0  0  0  0  0  0
    0.8675    0.4975    0.0000 C   0  0  0  0  0  0  0  0  0  0  0  0
    1.7328   -0.0038    0.0000 C   0  0  0  0  0  0  0  0  0  0  0  0
    2.5981   -0.5050    0.0000 N   0  0  0  0  0  0  0  0  0  0  0  0
    0.8675    1.5027    0.0000 C   0  0  0  0  0  0  0  0  0  0  0  0
   -0.0000    2.0104    0.0000 N   0  0  0  0  0  0  0  0  0  0  0  0
   -0.8675    1.5027    0.0000 C   0  0  0  0  0  0  0  0  0  0  0  0
   -3.4648   -0.0063    0.0000 N   0  0  0  0  0  0  0  0  0  0  0  0
   -4.3316    0.4925    0.0000 C   0  0  0  0  0  0  0  0  0  0  0  0
   -5.2021   -0.0101    0.0000 C   0  0  0  0  0  0  0  0  0  0  0  0
   -6.0756    0.4873    0.0000 N   0  0  0  0  0  0  0  0  0  0  0  0
   -6.0696    1.4924    0.0000 C   0  0  0  0  0  0  0  0  0  0  0  0
   -5.1991    1.9950    0.0000 C   0  0  0  0  0  0  0  0  0  0  0  0
   -5.1976    2.9950    0.0000 N   0  0  0  0  0  0  0  0  0  0  0  0
   -4.3345    1.4925    0.0000 C   0  0  0  0  0  0  0  0  0  0  0  0
  1  2  2  0  0  0  0
  2  3  1  0  0  0  0
  3  4  1  0  0  0  0
  4 11  2  0  0  0  0
  4  5  1  0  0  0  0
  5  6  2  0  0  0  0
  6  7  1  0  0  0  0
  7  8  3  0  0  0  0
  6  9  1  0  0  0  0
  9 10  2  0  0  0  0
 10 11  1  0  0  0  0
  2 12  1  0  0  0  0
 12 13  1  0  0  0  0
 13 19  2  0  0  0  0
 13 14  1  0  0  0  0
 14 15  2  0  0  0  0
 15 16  1  0  0  0  0
 16 17  2  0  0  0  0
 17 18  1  0  0  0  0
 17 19  1  0  0  0  0
M  END
$$$$
DAR-DIA-23a-10
  -OEChem-03222016562D

 21 23  0     0  0  0  0  0  0999 V2000
    1.3638   -1.7932    0.0000 O   0  0  0  0  0  0  0  0  0  0  0  0
    2.3431   -1.9958    0.0000 C   0  0  0  0  0  0  0  0  0  0  0  0
    3.0082   -1.2491    0.0000 N   0  0  0  0  0  0  0  0  0  0  0  0
    2.6940   -0.2997    0.0000 C   0  0  0  0  0  0  0  0  0  0  0  0
    3.2780    0.5133    0.0000 C   0  0  0  0  0  0  0  0  0  0  0  0
    2.6851    1.3196    0.0000 N   0  0  0  0  0  0  0  0  0  0  0  0
    1.7350    1.0052    0.0000 C   0  0  0  0  0  0  0  0  0  0  0  0
    0.8675    1.5129    0.0000 N   0  0  0  0  0  0  0  0  0  0  0  0
    0.0000    1.0052    0.0000 C   0  0  0  0  0  0  0  0  0  0  0  0
    0.0000    0.0000    0.0000 C   0  0  0  0  0  0  0  0  0  0  0  0
    0.8675   -0.4975    0.0000 C   0  0  0  0  0  0  0  0  0  0  0  0
    1.7405    0.0044    0.0000 C   0  0  0  0  0  0  0  0  0  0  0  0
    2.6572   -2.9452    0.0000 N   0  0  0  0  0  0  0  0  0  0  0  0
    1.9921   -3.6920    0.0000 C   0  0  0  0  0  0  0  0  0  0  0  0
    2.3065   -4.6467    0.0000 C   0  0  0  0  0  0  0  0  0  0  0  0
    1.6414   -5.4003    0.0000 N   0  0  0  0  0  0  0  0  0  0  0  0
    0.6586   -5.1894    0.0000 C   0  0  0  0  0  0  0  0  0  0  0  0
    0.3442   -4.2346    0.0000 C   0  0  0  0  0  0  0  0  0  0  0  0
   -0.6345   -4.0292    0.0000 C   0  0  0  0  0  0  0  0  0  0  0  0
   -1.6132   -3.8237    0.0000 N   0  0  0  0  0  0  0  0  0  0  0  0
    1.0125   -3.4908    0.0000 C   0  0  0  0  0  0  0  0  0  0  0  0
  1  2  2  0  0  0  0
  2  3  1  0  0  0  0
  3  4  1  0  0  0  0
  4 12  1  0  0  0  0
  4  5  2  0  0  0  0
  5  6  1  0  0  0  0
  6  7  1  0  0  0  0
  7 12  1  0  0  0  0
  7  8  2  0  0  0  0
  8  9  1  0  0  0  0
  9 10  2  0  0  0  0
 10 11  1  0  0  0  0
 11 12  2  0  0  0  0
  2 13  1  0  0  0  0
 13 14  1  0  0  0  0
 14 21  2  0  0  0  0
 14 15  1  0  0  0  0
 15 16  2  0  0  0  0
 16 17  1  0  0  0  0
 17 18  2  0  0  0  0
 18 19  1  0  0  0  0
 19 20  3  0  0  0  0
 18 21  1  0  0  0  0
M  END
$$$$
DAR-DIA-23a-11
  -OEChem-03222016562D

 21 23  0     0  0  0  0  0  0999 V2000
    1.3638   -1.7932    0.0000 O   0  0  0  0  0  0  0  0  0  0  0  0
    2.3431   -1.9958    0.0000 C   0  0  0  0  0  0  0  0  0  0  0  0
    3.0082   -1.2491    0.0000 N   0  0  0  0  0  0  0  0  0  0  0  0
    2.6940   -0.2997    0.0000 C   0  0  0  0  0  0  0  0  0  0  0  0
    3.2780    0.5133    0.0000 C   0  0  0  0  0  0  0  0  0  0  0  0
    2.6851    1.3196    0.0000 N   0  0  0  0  0  0  0  0  0  0  0  0
    1.7350    1.0052    0.0000 C   0  0  0  0  0  0  0  0  0  0  0  0
    0.8675    1.5129    0.0000 N   0  0  0  0  0  0  0  0  0  0  0  0
    0.0000    1.0052    0.0000 C   0  0  0  0  0  0  0  0  0  0  0  0
    0.0000    0.0000    0.0000 C   0  0  0  0  0  0  0  0  0  0  0  0
    0.8675   -0.4975    0.0000 C   0  0  0  0  0  0  0  0  0  0  0  0
    1.7405    0.0044    0.0000 C   0  0  0  0  0  0  0  0  0  0  0  0
    2.6572   -2.9452    0.0000 N   0  0  0  0  0  0  0  0  0  0  0  0
    1.9921   -3.6920    0.0000 C   0  0  0  0  0  0  0  0  0  0  0  0
    1.0084   -3.4854    0.0000 C   0  0  0  0  0  0  0  0  0  0  0  0
    0.3432   -4.2321    0.0000 C   0  0  0  0  0  0  0  0  0  0  0  0
    0.6518   -5.1833    0.0000 C   0  0  0  0  0  0  0  0  0  0  0  0
    1.6356   -5.3899    0.0000 C   0  0  0  0  0  0  0  0  0  0  0  0
    1.9441   -6.3411    0.0000 C   0  0  0  0  0  0  0  0  0  0  0  0
    2.2527   -7.2923    0.0000 N   0  0  0  0  0  0  0  0  0  0  0  0
    2.3107   -4.6453    0.0000 C   0  0  0  0  0  0  0  0  0  0  0  0
  1  2  2  0  0  0  0
  2  3  1  0  0  0  0
  3  4  1  0  0  0  0
  4 12  1  0  0  0  0
  4  5  2  0  0  0  0
  5  6  1  0  0  0  0
  6  7  1  0  0  0  0
  7 12  1  0  0  0  0
  7  8  2  0  0  0  0
  8  9  1  0  0  0  0
  9 10  2  0  0  0  0
 10 11  1  0  0  0  0
 11 12  2  0  0  0  0
  2 13  1  0  0  0  0
 13 14  1  0  0  0  0
 14 21  2  0  0  0  0
 14 15  1  0  0  0  0
 15 16  2  0  0  0  0
 16 17  1  0  0  0  0
 17 18  2  0  0  0  0
 18 19  1  0  0  0  0
 19 20  3  0  0  0  0
 18 21  1  0  0  0  0
M  END
$$$$
DAR-DIA-23a-12
  -OEChem-03222016562D

 20 22  0     0  0  0  0  0  0999 V2000
    1.3638   -1.7932    0.0000 O   0  0  0  0  0  0  0  0  0  0  0  0
    2.3431   -1.9958    0.0000 C   0  0  0  0  0  0  0  0  0  0  0  0
    3.0082   -1.2491    0.0000 C   0  0  0  0  0  0  0  0  0  0  0  0
    2.6940   -0.2997    0.0000 C   0  0  0  0  0  0  0  0  0  0  0  0
    3.2780    0.5133    0.0000 C   0  0  0  0  0  0  0  0  0  0  0  0
    2.6851    1.3196    0.0000 N   0  0  0  0  0  0  0  0  0  0  0  0
    1.7350    1.0052    0.0000 C   0  0  0  0  0  0  0  0  0  0  0  0
    0.8675    1.5129    0.0000 N   0  0  0  0  0  0  0  0  0  0  0  0
    0.0000    1.0052    0.0000 C   0  0  0  0  0  0  0  0  0  0  0  0
    0.0000    0.0000    0.0000 C   0  0  0  0  0  0  0  0  0  0  0  0
    0.8675   -0.4975    0.0000 C   0  0  0  0  0  0  0  0  0  0  0  0
    1.7405    0.0044    0.0000 C   0  0  0  0  0  0  0  0  0  0  0  0
    2.6572   -2.9452    0.0000 N   0  0  0  0  0  0  0  0  0  0  0  0
    1.9921   -3.6920    0.0000 C   0  0  0  0  0  0  0  0  0  0  0  0
    1.0084   -3.4854    0.0000 C   0  0  0  0  0  0  0  0  0  0  0  0
    0.3432   -4.2321    0.0000 C   0  0  0  0  0  0  0  0  0  0  0  0
    0.6518   -5.1833    0.0000 C   0  0  0  0  0  0  0  0  0  0  0  0
    1.6356   -5.3899    0.0000 C   0  0  0  0  0  0  0  0  0  0  0  0
    1.9441   -6.3411    0.0000 Cl  0  0  0  0  0  0  0  0  0  0  0  0
    2.3107   -4.6453    0.0000 C   0  0  0  0  0  0  0  0  0  0  0  0
  1  2  2  0  0  0  0
  2  3  1  0  0  0  0
  3  4  1  0  0  0  0
  4 12  1  0  0  0  0
  4  5  2  0  0  0  0
  5  6  1  0  0  0  0
  6  7  1  0  0  0  0
  7 12  1  0  0  0  0
  7  8  2  0  0  0  0
  8  9  1  0  0  0  0
  9 10  2  0  0  0  0
 10 11  1  0  0  0  0
 11 12  2  0  0  0  0
  2 13  1  0  0  0  0
 13 14  1  0  0  0  0
 14 20  2  0  0  0  0
 14 15  1  0  0  0  0
 15 16  2  0  0  0  0
 16 17  1  0  0  0  0
 17 18  2  0  0  0  0
 18 19  1  0  0  0  0
 18 20  1  0  0  0  0
M  END
$$$$
DAR-DIA-23a-13
  -OEChem-03222016562D

 18 19  0     0  0  0  0  0  0999 V2000
   -2.6010    1.4950    0.0000 O   0  0  0  0  0  0  0  0  0  0  0  0
   -2.5995    0.4950    0.0000 C   0  0  0  0  0  0  0  0  0  0  0  0
   -1.7328   -0.0038    0.0000 N   0  0  0  0  0  0  0  0  0  0  0  0
   -0.8675    0.4975    0.0000 C   0  0  0  0  0  0  0  0  0  0  0  0
    0.0000    0.0000    0.0000 C   0  0  0  0  0  0  0  0  0  0  0  0
    0.8675    0.4975    0.0000 C   0  0  0  0  0  0  0  0  0  0  0  0
    1.7328   -0.0038    0.0000 N   0  0  0  0  0  0  0  0  0  0  0  0
    0.8675    1.5027    0.0000 C   0  0  0  0  0  0  0  0  0  0  0  0
   -0.0000    2.0104    0.0000 N   0  0  0  0  0  0  0  0  0  0  0  0
   -0.8675    1.5027    0.0000 C   0  0  0  0  0  0  0  0  0  0  0  0
   -3.4648   -0.0063    0.0000 N   0  0  0  0  0  0  0  0  0  0  0  0
   -4.3316    0.4925    0.0000 C   0  0  0  0  0  0  0  0  0  0  0  0
   -4.3301    1.4977    0.0000 C   0  0  0  0  0  0  0  0  0  0  0  0
   -5.1968    1.9965    0.0000 C   0  0  0  0  0  0  0  0  0  0  0  0
   -6.0651    1.5003    0.0000 C   0  0  0  0  0  0  0  0  0  0  0  0
   -6.0666    0.4951    0.0000 C   0  0  0  0  0  0  0  0  0  0  0  0
   -6.9348   -0.0011    0.0000 Cl  0  0  0  0  0  0  0  0  0  0  0  0
   -5.1999   -0.0139    0.0000 C   0  0  0  0  0  0  0  0  0  0  0  0
  1  2  2  0  0  0  0
  2  3  1  0  0  0  0
  3  4  1  0  0  0  0
  4 10  2  0  0  0  0
  4  5  1  0  0  0  0
  5  6  2  0  0  0  0
  6  7  1  0  0  0  0
  6  8  1  0  0  0  0
  8  9  2  0  0  0  0
  9 10  1  0  0  0  0
  2 11  1  0  0  0  0
 11 12  1  0  0  0  0
 12 18  2  0  0  0  0
 12 13  1  0  0  0  0
 13 14  2  0  0  0  0
 14 15  1  0  0  0  0
 15 16  2  0  0  0  0
 16 17  1  0  0  0  0
 16 18  1  0  0  0  0
M  END
$$$$
DAR-DIA-23a-14
  -OEChem-03222016562D

 17 18  0     0  0  0  0  0  0999 V2000
    2.6010    1.4950    0.0000 O   0  0  0  0  0  0  0  0  0  0  0  0
    2.5995    0.4950    0.0000 C   0  0  0  0  0  0  0  0  0  0  0  0
    3.4648   -0.0063    0.0000 N   0  0  0  0  0  0  0  0  0  0  0  0
    4.3316    0.4925    0.0000 C   0  0  0  0  0  0  0  0  0  0  0  0
    5.1999   -0.0139    0.0000 C   0  0  0  0  0  0  0  0  0  0  0  0
    6.0666    0.4951    0.0000 C   0  0  0  0  0  0  0  0  0  0  0  0
    6.9348   -0.0011    0.0000 Cl  0  0  0  0  0  0  0  0  0  0  0  0
    6.0651    1.5003    0.0000 C   0  0  0  0  0  0  0  0  0  0  0  0
    5.1968    1.9965    0.0000 C   0  0  0  0  0  0  0  0  0  0  0  0
    4.3301    1.4977    0.0000 C   0  0  0  0  0  0  0  0  0  0  0  0
    1.7328   -0.0038    0.0000 N   0  0  0  0  0  0  0  0  0  0  0  0
    0.8675    0.4975    0.0000 C   0  0  0  0  0  0  0  0  0  0  0  0
    0.8675    1.5027    0.0000 C   0  0  0  0  0  0  0  0  0  0  0  0
   -0.0000    2.0104    0.0000 N   0  0  0  0  0  0  0  0  0  0  0  0
   -0.8675    1.5027    0.0000 C   0  0  0  0  0  0  0  0  0  0  0  0
   -0.8675    0.4975    0.0000 C   0  0  0  0  0  0  0  0  0  0  0  0
    0.0000    0.0000    0.0000 C   0  0  0  0  0  0  0  0  0  0  0  0
  1  2  2  0  0  0  0
  2  3  1  0  0  0  0
  3  4  1  0  0  0  0
  4 10  2  0  0  0  0
  4  5  1  0  0  0  0
  5  6  2  0  0  0  0
  6  7  1  0  0  0  0
  6  8  1  0  0  0  0
  8  9  2  0  0  0  0
  9 10  1  0  0  0  0
  2 11  1  0  0  0  0
 11 12  1  0  0  0  0
 12 17  2  0  0  0  0
 12 13  1  0  0  0  0
 13 14  2  0  0  0  0
 14 15  1  0  0  0  0
 15 16  2  0  0  0  0
 16 17  1  0  0  0  0
M  END
$$$$
DAR-DIA-23a-15
  -OEChem-03222016562D

 17 18  0     0  0  0  0  0  0999 V2000
    0.8646   -1.5025    0.0000 O   0  0  0  0  0  0  0  0  0  0  0  0
    1.7313   -1.0038    0.0000 C   0  0  0  0  0  0  0  0  0  0  0  0
    1.7328   -0.0038    0.0000 N   0  0  0  0  0  0  0  0  0  0  0  0
    0.8675    0.4975    0.0000 C   0  0  0  0  0  0  0  0  0  0  0  0
    0.0000    0.0000    0.0000 C   0  0  0  0  0  0  0  0  0  0  0  0
   -0.8675    0.4975    0.0000 C   0  0  0  0  0  0  0  0  0  0  0  0
   -0.8675    1.5027    0.0000 C   0  0  0  0  0  0  0  0  0  0  0  0
    0.0000    2.0104    0.0000 N   0  0  0  0  0  0  0  0  0  0  0  0
    0.8675    1.5027    0.0000 C   0  0  0  0  0  0  0  0  0  0  0  0
    2.5966   -1.5050    0.0000 N   0  0  0  0  0  0  0  0  0  0  0  0
    2.5952   -2.5050    0.0000 C   0  0  0  0  0  0  0  0  0  0  0  0
    3.4643   -3.0101    0.0000 C   0  0  0  0  0  0  0  0  0  0  0  0
    3.4673   -4.0153    0.0000 N   0  0  0  0  0  0  0  0  0  0  0  0
    2.5924   -4.5102    0.0000 C   0  0  0  0  0  0  0  0  0  0  0  0
    1.7233   -4.0050    0.0000 C   0  0  0  0  0  0  0  0  0  0  0  0
    0.8551   -4.5013    0.0000 Cl  0  0  0  0  0  0  0  0  0  0  0  0
    1.7291   -3.0050    0.0000 C   0  0  0  0  0  0  0  0  0  0  0  0
  1  2  2  0  0  0  0
  2  3  1  0  0  0  0
  3  4  1  0  0  0  0
  4  9  2  0  0  0  0
  4  5  1  0  0  0  0
  5  6  2  0  0  0  0
  6  7  1  0  0  0  0
  7  8  2  0  0  0  0
  8  9  1  0  0  0  0
  2 10  1  0  0  0  0
 10 11  1  0  0  0  0
 11 17  2  0  0  0  0
 11 12  1  0  0  0  0
 12 13  2  0  0  0  0
 13 14  1  0  0  0  0
 14 15  2  0  0  0  0
 15 16  1  0  0  0  0
 15 17  1  0  0  0  0
M  END
$$$$
DAR-DIA-23a-16
  -OEChem-03222016562D

 17 18  0     0  0  0  0  0  0999 V2000
   -2.6010    1.4950    0.0000 O   0  0  0  0  0  0  0  0  0  0  0  0
   -2.5995    0.4950    0.0000 C   0  0  0  0  0  0  0  0  0  0  0  0
   -1.7328   -0.0038    0.0000 C   0  0  0  0  0  0  0  0  0  0  0  0
   -0.8675    0.4975    0.0000 C   0  0  0  0  0  0  0  0  0  0  0  0
    0.0000    0.0000    0.0000 C   0  0  0  0  0  0  0  0  0  0  0  0
    0.8675    0.4975    0.0000 C   0  0  0  0  0  0  0  0  0  0  0  0
    1.7328   -0.0038    0.0000 Cl  0  0  0  0  0  0  0  0  0  0  0  0
    0.8675    1.5027    0.0000 C   0  0  0  0  0  0  0  0  0  0  0  0
   -0.0000    2.0104    0.0000 N   0  0  0  0  0  0  0  0  0  0  0  0
   -0.8675    1.5027    0.0000 C   0  0  0  0  0  0  0  0  0  0  0  0
   -3.4648   -0.0063    0.0000 N   0  0  0  0  0  0  0  0  0  0  0  0
   -4.3316    0.4925    0.0000 C   0  0  0  0  0  0  0  0  0  0  0  0
   -4.3345    1.4977    0.0000 C   0  0  0  0  0  0  0  0  0  0  0  0
   -5.2035    2.0028    0.0000 N   0  0  0  0  0  0  0  0  0  0  0  0
   -6.0695    1.4926    0.0000 C   0  0  0  0  0  0  0  0  0  0  0  0
   -6.0666    0.4874    0.0000 C   0  0  0  0  0  0  0  0  0  0  0  0
   -5.1977   -0.0075    0.0000 C   0  0  0  0  0  0  0  0  0  0  0  0
  1  2  2  0  0  0  0
  2  3  1  0  0  0  0
  3  4  1  0  0  0  0
  4 10  2  0  0  0  0
  4  5  1  0  0  0  0
  5  6  2  0  0  0  0
  6  7  1  0  0  0  0
  6  8  1  0  0  0  0
  8  9  2  0  0  0  0
  9 10  1  0  0  0  0
  2 11  1  0  0  0  0
 11 12  1  0  0  0  0
 12 17  2  0  0  0  0
 12 13  1  0  0  0  0
 13 14  2  0  0  0  0
 14 15  1  0  0  0  0
 15 16  2  0  0  0  0
 16 17  1  0  0  0  0
M  END
$$$$
DAR-DIA-23a-17
  -OEChem-03222016562D

 18 19  0     0  0  0  0  0  0999 V2000
    0.8646   -1.5025    0.0000 O   0  0  0  0  0  0  0  0  0  0  0  0
    1.7313   -1.0038    0.0000 C   0  0  0  0  0  0  0  0  0  0  0  0
    1.7328   -0.0038    0.0000 N   0  0  0  0  0  0  0  0  0  0  0  0
    0.8675    0.4975    0.0000 C   0  0  0  0  0  0  0  0  0  0  0  0
    0.0000    0.0000    0.0000 C   0  0  0  0  0  0  0  0  0  0  0  0
   -0.8675    0.4975    0.0000 C   0  0  0  0  0  0  0  0  0  0  0  0
   -0.8675    1.5027    0.0000 C   0  0  0  0  0  0  0  0  0  0  0  0
    0.0000    2.0104    0.0000 N   0  0  0  0  0  0  0  0  0  0  0  0
    0.8675    1.5027    0.0000 C   0  0  0  0  0  0  0  0  0  0  0  0
    2.5966   -1.5050    0.0000 C   0  0  0  0  0  0  0  0  0  0  0  0
    2.5952   -2.5050    0.0000 C   0  0  0  0  0  0  0  0  0  0  0  0
    3.4643   -3.0101    0.0000 C   0  0  0  0  0  0  0  0  0  0  0  0
    3.4673   -4.0153    0.0000 N   0  0  0  0  0  0  0  0  0  0  0  0
    2.5924   -4.5102    0.0000 C   0  0  0  0  0  0  0  0  0  0  0  0
    1.7233   -4.0050    0.0000 C   0  0  0  0  0  0  0  0  0  0  0  0
    0.8551   -4.5013    0.0000 C   0  0  0  0  0  0  0  0  0  0  0  0
   -0.0131   -4.9975    0.0000 N   0  0  0  0  0  0  0  0  0  0  0  0
    1.7291   -3.0050    0.0000 C   0  0  0  0  0  0  0  0  0  0  0  0
  1  2  2  0  0  0  0
  2  3  1  0  0  0  0
  3  4  1  0  0  0  0
  4  9  2  0  0  0  0
  4  5  1  0  0  0  0
  5  6  2  0  0  0  0
  6  7  1  0  0  0  0
  7  8  2  0  0  0  0
  8  9  1  0  0  0  0
  2 10  1  0  0  0  0
 10 11  1  0  0  0  0
 11 18  2  0  0  0  0
 11 12  1  0  0  0  0
 12 13  2  0  0  0  0
 13 14  1  0  0  0  0
 14 15  2  0  0  0  0
 15 16  1  0  0  0  0
 16 17  3  0  0  0  0
 15 18  1  0  0  0  0
M  END
$$$$
DAR-DIA-23a-18
  -OEChem-03222016562D

 22 24  0     0  0  0  0  0  0999 V2000
   -4.3408   -1.4939    0.0000 O   0  0  0  0  0  0  0  0  0  0  0  0
   -3.4742   -1.9929    0.0000 C   0  0  0  0  0  0  0  0  0  0  0  0
   -2.6087   -1.4920    0.0000 C   0  0  0  0  0  0  0  0  0  0  0  0
   -2.6098   -0.4920    0.0000 C   0  0  0  0  0  0  0  0  0  0  0  0
   -3.4805    0.0073    0.0000 C   0  0  0  0  0  0  0  0  0  0  0  0
   -3.4805    1.0162    0.0000 N   0  0  0  0  0  0  0  0  0  0  0  0
   -2.6098    1.5258    0.0000 C   0  0  0  0  0  0  0  0  0  0  0  0
   -1.7391    1.0162    0.0000 C   0  0  0  0  0  0  0  0  0  0  0  0
   -0.8680    1.5198    0.0000 N   0  0  0  0  0  0  0  0  0  0  0  0
    0.0043    1.0087    0.0000 C   0  0  0  0  0  0  0  0  0  0  0  0
    0.0000    0.0000    0.0000 C   0  0  0  0  0  0  0  0  0  0  0  0
   -0.8766   -0.4980    0.0000 C   0  0  0  0  0  0  0  0  0  0  0  0
   -1.7434    0.0073    0.0000 C   0  0  0  0  0  0  0  0  0  0  0  0
   -3.4732   -2.9929    0.0000 N   0  0  0  0  0  0  0  0  0  0  0  0
   -4.3386   -3.4939    0.0000 C   0  0  0  0  0  0  0  0  0  0  0  0
   -5.2082   -2.9896    0.0000 C   0  0  0  0  0  0  0  0  0  0  0  0
   -6.0738   -3.4905    0.0000 C   0  0  0  0  0  0  0  0  0  0  0  0
   -6.0785   -4.4905    0.0000 C   0  0  0  0  0  0  0  0  0  0  0  0
   -5.2090   -4.9948    0.0000 C   0  0  0  0  0  0  0  0  0  0  0  0
   -5.2138   -5.9948    0.0000 C   0  0  0  0  0  0  0  0  0  0  0  0
   -5.2186   -6.9947    0.0000 N   0  0  0  0  0  0  0  0  0  0  0  0
   -4.3346   -4.4990    0.0000 C   0  0  0  0  0  0  0  0  0  0  0  0
  1  2  2  0  0  0  0
  2  3  1  0  0  0  0
  3  4  1  0  0  0  0
  4 13  1  0  0  0  0
  4  5  2  0  0  0  0
  5  6  1  0  0  0  0
  6  7  2  0  0  0  0
  7  8  1  0  0  0  0
  8 13  1  0  0  0  0
  8  9  2  0  0  0  0
  9 10  1  0  0  0  0
 10 11  2  0  0  0  0
 11 12  1  0  0  0  0
 12 13  2  0  0  0  0
  2 14  1  0  0  0  0
 14 15  1  0  0  0  0
 15 22  2  0  0  0  0
 15 16  1  0  0  0  0
 16 17  2  0  0  0  0
 17 18  1  0  0  0  0
 18 19  2  0  0  0  0
 19 20  1  0  0  0  0
 20 21  3  0  0  0  0
 19 22  1  0  0  0  0
M  END
$$$$
DAR-DIA-23a-19
  -OEChem-03222016562D

 22 24  0     0  0  0  0  0  0999 V2000
    4.3303   -1.5149    0.0000 O   0  0  0  0  0  0  0  0  0  0  0  0
    3.4615   -2.0101    0.0000 C   0  0  0  0  0  0  0  0  0  0  0  0
    3.4560   -3.0101    0.0000 N   0  0  0  0  0  0  0  0  0  0  0  0
    4.3192   -3.5149    0.0000 C   0  0  0  0  0  0  0  0  0  0  0  0
    4.3106   -4.5200    0.0000 C   0  0  0  0  0  0  0  0  0  0  0  0
    5.1828   -5.0197    0.0000 C   0  0  0  0  0  0  0  0  0  0  0  0
    5.1831   -6.0197    0.0000 C   0  0  0  0  0  0  0  0  0  0  0  0
    5.1834   -7.0197    0.0000 N   0  0  0  0  0  0  0  0  0  0  0  0
    6.0546   -4.5194    0.0000 C   0  0  0  0  0  0  0  0  0  0  0  0
    6.0543   -3.5194    0.0000 C   0  0  0  0  0  0  0  0  0  0  0  0
    5.1910   -3.0146    0.0000 C   0  0  0  0  0  0  0  0  0  0  0  0
    2.5983   -1.5053    0.0000 C   0  0  0  0  0  0  0  0  0  0  0  0
    2.6039   -0.5053    0.0000 C   0  0  0  0  0  0  0  0  0  0  0  0
    1.7371    0.0000    0.0000 C   0  0  0  0  0  0  0  0  0  0  0  0
    1.7414    1.0089    0.0000 C   0  0  0  0  0  0  0  0  0  0  0  0
    0.8707    1.5185    0.0000 C   0  0  0  0  0  0  0  0  0  0  0  0
    0.0000    1.0089    0.0000 C   0  0  0  0  0  0  0  0  0  0  0  0
    0.0000    0.0000    0.0000 C   0  0  0  0  0  0  0  0  0  0  0  0
    0.8707   -0.4993    0.0000 C   0  0  0  0  0  0  0  0  0  0  0  0
    2.6125    1.5125    0.0000 C   0  0  0  0  0  0  0  0  0  0  0  0
    3.4848    1.0014    0.0000 N   0  0  0  0  0  0  0  0  0  0  0  0
    3.4805   -0.0073    0.0000 C   0  0  0  0  0  0  0  0  0  0  0  0
  1  2  2  0  0  0  0
  2  3  1  0  0  0  0
  3  4  1  0  0  0  0
  4 11  2  0  0  0  0
  4  5  1  0  0  0  0
  5  6  2  0  0  0  0
  6  7  1  0  0  0  0
  7  8  3  0  0  0  0
  6  9  1  0  0  0  0
  9 10  2  0  0  0  0
 10 11  1  0  0  0  0
  2 12  1  0  0  0  0
 12 13  1  0  0  0  0
 13 22  2  0  0  0  0
 13 14  1  0  0  0  0
 14 19  2  0  0  0  0
 14 15  1  0  0  0  0
 15 16  2  0  0  0  0
 16 17  1  0  0  0  0
 17 18  2  0  0  0  0
 18 19  1  0  0  0  0
 15 20  1  0  0  0  0
 20 21  2  0  0  0  0
 21 22  1  0  0  0  0
M  END
$$$$
DAR-DIA-23a-20
  -OEChem-03222016562D

 20 22  0     0  0  0  0  0  0999 V2000
    0.8663   -1.4956    0.0000 O   0  0  0  0  0  0  0  0  0  0  0  0
    1.7295   -2.0004    0.0000 C   0  0  0  0  0  0  0  0  0  0  0  0
    2.5983   -1.5053    0.0000 C   0  0  0  0  0  0  0  0  0  0  0  0
    2.6039   -0.5053    0.0000 C   0  0  0  0  0  0  0  0  0  0  0  0
    3.4805   -0.0073    0.0000 C   0  0  0  0  0  0  0  0  0  0  0  0
    3.4848    1.0014    0.0000 N   0  0  0  0  0  0  0  0  0  0  0  0
    2.6125    1.5125    0.0000 C   0  0  0  0  0  0  0  0  0  0  0  0
    1.7414    1.0089    0.0000 C   0  0  0  0  0  0  0  0  0  0  0  0
    0.8707    1.5185    0.0000 C   0  0  0  0  0  0  0  0  0  0  0  0
    0.0000    1.0089    0.0000 C   0  0  0  0  0  0  0  0  0  0  0  0
    0.0000    0.0000    0.0000 C   0  0  0  0  0  0  0  0  0  0  0  0
    0.8707   -0.4993    0.0000 C   0  0  0  0  0  0  0  0  0  0  0  0
    1.7371    0.0000    0.0000 C   0  0  0  0  0  0  0  0  0  0  0  0
    1.7239   -3.0004    0.0000 N   0  0  0  0  0  0  0  0  0  0  0  0
    0.8552   -3.4956    0.0000 C   0  0  0  0  0  0  0  0  0  0  0  0
    0.8525   -4.5008    0.0000 C   0  0  0  0  0  0  0  0  0  0  0  0
   -0.0163   -4.9960    0.0000 C   0  0  0  0  0  0  0  0  0  0  0  0
   -0.8825   -4.4962    0.0000 C   0  0  0  0  0  0  0  0  0  0  0  0
   -0.8798   -3.4910    0.0000 C   0  0  0  0  0  0  0  0  0  0  0  0
   -0.0110   -2.9856    0.0000 C   0  0  0  0  0  0  0  0  0  0  0  0
  1  2  2  0  0  0  0
  2  3  1  0  0  0  0
  3  4  1  0  0  0  0
  4 13  1  0  0  0  0
  4  5  2  0  0  0  0
  5  6  1  0  0  0  0
  6  7  2  0  0  0  0
  7  8  1  0  0  0  0
  8 13  1  0  0  0  0
  8  9  2  0  0  0  0
  9 10  1  0  0  0  0
 10 11  2  0  0  0  0
 11 12  1  0  0  0  0
 12 13  2  0  0  0  0
  2 14  1  0  0  0  0
 14 15  1  0  0  0  0
 15 20  2  0  0  0  0
 15 16  1  0  0  0  0
 16 17  2  0  0  0  0
 17 18  1  0  0  0  0
 18 19  2  0  0  0  0
 19 20  1  0  0  0  0
M  END
$$$$
TRY-UNI-1fd-1
  -OEChem-03222016562D

 22 23  0     0  0  0  0  0  0999 V2000
    2.6054    3.4976    0.0000 C   0  0  0  0  0  0  0  0  0  0  0  0
    1.7379    3.0001    0.0000 C   0  0  0  0  0  0  0  0  0  0  0  0
    1.7350    2.0001    0.0000 N   0  0  0  0  0  0  0  0  0  0  0  0
    0.8675    1.5027    0.0000 C   0  0  0  0  0  0  0  0  0  0  0  0
   -0.0000    2.0104    0.0000 N   0  0  0  0  0  0  0  0  0  0  0  0
   -0.8675    1.5027    0.0000 C   0  0  0  0  0  0  0  0  0  0  0  0
   -0.8675    0.4975    0.0000 C   0  0  0  0  0  0  0  0  0  0  0  0
   -1.7328   -0.0038    0.0000 C   0  0  0  0  0  0  0  0  0  0  0  0
   -2.5981   -0.5050    0.0000 N   0  0  0  0  0  0  0  0  0  0  0  0
    0.0000    0.0000    0.0000 C   0  0  0  0  0  0  0  0  0  0  0  0
    0.8675    0.4975    0.0000 C   0  0  0  0  0  0  0  0  0  0  0  0
    1.7328   -0.0038    0.0000 C   0  0  0  0  0  0  0  0  0  0  0  0
    2.5995    0.4950    0.0000 C   0  0  0  0  0  0  0  0  0  0  0  0
    2.6010    1.4950    0.0000 O   0  0  0  0  0  0  0  0  0  0  0  0
    3.4648   -0.0063    0.0000 N   0  0  0  0  0  0  0  0  0  0  0  0
    4.3316    0.4925    0.0000 C   0  0  0  0  0  0  0  0  0  0  0  0
    4.3345    1.4925    0.0000 C   0  0  0  0  0  0  0  0  0  0  0  0
    3.4685    1.9925    0.0000 C   0  0  0  0  0  0  0  0  0  0  0  0
    5.1991    1.9950    0.0000 C   0  0  0  0  0  0  0  0  0  0  0  0
    6.0696    1.4924    0.0000 C   0  0  0  0  0  0  0  0  0  0  0  0
    6.0756    0.4873    0.0000 N   0  0  0  0  0  0  0  0  0  0  0  0
    5.2021   -0.0101    0.0000 C   0  0  0  0  0  0  0  0  0  0  0  0
  1  2  1  0  0  0  0
  2  3  1  0  0  0  0
  3  4  1  0  0  0  0
  4 11  2  0  0  0  0
  4  5  1  0  0  0  0
  5  6  2  0  0  0  0
  6  7  1  0  0  0  0
  7  8  1  0  0  0  0
  8  9  3  0  0  0  0
  7 10  2  0  0  0  0
 10 11  1  0  0  0  0
 11 12  1  0  0  0  0
 12 13  1  0  0  0  0
 13 14  2  0  0  0  0
 13 15  1  0  0  0  0
 15 16  1  0  0  0  0
 16 22  2  0  0  0  0
 16 17  1  0  0  0  0
 17 18  1  0  0  0  0
 17 19  2  0  0  0  0
 19 20  1  0  0  0  0
 20 21  2  0  0  0  0
 21 22  1  0  0  0  0
M  END
$$$$
TRY-UNI-1fd-2
  -OEChem-03222016562D

 22 23  0     0  0  0  0  0  0999 V2000
    2.6054    3.4976    0.0000 C   0  0  0  0  0  0  0  0  0  0  0  0
    1.7379    3.0001    0.0000 C   0  0  0  0  0  0  0  0  0  0  0  0
    1.7350    2.0001    0.0000 N   0  0  0  0  0  0  0  0  0  0  0  0
    0.8675    1.5027    0.0000 C   0  0  0  0  0  0  0  0  0  0  0  0
   -0.0000    2.0104    0.0000 N   0  0  0  0  0  0  0  0  0  0  0  0
   -0.8675    1.5027    0.0000 C   0  0  0  0  0  0  0  0  0  0  0  0
   -0.8675    0.4975    0.0000 C   0  0  0  0  0  0  0  0  0  0  0  0
   -1.7328   -0.0038    0.0000 C   0  0  0  0  0  0  0  0  0  0  0  0
   -2.5981   -0.5050    0.0000 N   0  0  0  0  0  0  0  0  0  0  0  0
    0.0000    0.0000    0.0000 C   0  0  0  0  0  0  0  0  0  0  0  0
    0.8675    0.4975    0.0000 C   0  0  0  0  0  0  0  0  0  0  0  0
    1.7328   -0.0038    0.0000 N   0  0  0  0  0  0  0  0  0  0  0  0
    2.5995    0.4950    0.0000 C   0  0  0  0  0  0  0  0  0  0  0  0
    2.6010    1.4950    0.0000 O   0  0  0  0  0  0  0  0  0  0  0  0
    3.4648   -0.0063    0.0000 N   0  0  0  0  0  0  0  0  0  0  0  0
    4.3316    0.4925    0.0000 C   0  0  0  0  0  0  0  0  0  0  0  0
    4.3345    1.4925    0.0000 C   0  0  0  0  0  0  0  0  0  0  0  0
    3.4685    1.9925    0.0000 C   0  0  0  0  0  0  0  0  0  0  0  0
    5.1991    1.9950    0.0000 C   0  0  0  0  0  0  0  0  0  0  0  0
    6.0696    1.4924    0.0000 C   0  0  0  0  0  0  0  0  0  0  0  0
    6.0756    0.4873    0.0000 N   0  0  0  0  0  0  0  0  0  0  0  0
    5.2021   -0.0101    0.0000 C   0  0  0  0  0  0  0  0  0  0  0  0
  1  2  1  0  0  0  0
  2  3  1  0  0  0  0
  3  4  1  0  0  0  0
  4 11  2  0  0  0  0
  4  5  1  0  0  0  0
  5  6  2  0  0  0  0
  6  7  1  0  0  0  0
  7  8  1  0  0  0  0
  8  9  3  0  0  0  0
  7 10  2  0  0  0  0
 10 11  1  0  0  0  0
 11 12  1  0  0  0  0
 12 13  1  0  0  0  0
 13 14  2  0  0  0  0
 13 15  1  0  0  0  0
 15 16  1  0  0  0  0
 16 22  2  0  0  0  0
 16 17  1  0  0  0  0
 17 18  1  0  0  0  0
 17 19  2  0  0  0  0
 19 20  1  0  0  0  0
 20 21  2  0  0  0  0
 21 22  1  0  0  0  0
M  END
$$$$
TRY-UNI-1fd-3
  -OEChem-03222016562D

 26 27  0     0  0  0  0  0  0999 V2000
    0.8646   -1.5025    0.0000 O   0  0  0  0  0  0  0  0  0  0  0  0
    1.7313   -1.0038    0.0000 C   0  0  0  0  0  0  0  0  0  0  0  0
    1.7328   -0.0038    0.0000 N   0  0  0  0  0  0  0  0  0  0  0  0
    0.8675    0.4975    0.0000 C   0  0  0  0  0  0  0  0  0  0  0  0
    0.0000    0.0000    0.0000 C   0  0  0  0  0  0  0  0  0  0  0  0
   -0.8675    0.4975    0.0000 C   0  0  0  0  0  0  0  0  0  0  0  0
   -1.7328   -0.0038    0.0000 C   0  0  0  0  0  0  0  0  0  0  0  0
   -2.5981   -0.5050    0.0000 N   0  0  0  0  0  0  0  0  0  0  0  0
   -0.8675    1.5027    0.0000 C   0  0  0  0  0  0  0  0  0  0  0  0
    0.0000    2.0104    0.0000 N   0  0  0  0  0  0  0  0  0  0  0  0
    0.8675    1.5027    0.0000 C   0  0  0  0  0  0  0  0  0  0  0  0
    1.7350    2.0001    0.0000 C   0  0  0  0  0  0  0  0  0  0  0  0
    1.7379    3.0001    0.0000 C   0  0  0  0  0  0  0  0  0  0  0  0
    2.6054    3.4976    0.0000 N   0  0  0  0  0  0  0  0  0  0  0  0
    2.6084    4.4976    0.0000 S   0  0  0  0  0  0  0  0  0  0  0  0
    1.6084    4.5005    0.0000 O   0  0  0  0  0  0  0  0  0  0  0  0
    2.6113    5.4976    0.0000 C   0  0  0  0  0  0  0  0  0  0  0  0
    3.6084    4.4946    0.0000 O   0  0  0  0  0  0  0  0  0  0  0  0
    2.5966   -1.5050    0.0000 N   0  0  0  0  0  0  0  0  0  0  0  0
    2.5952   -2.5050    0.0000 C   0  0  0  0  0  0  0  0  0  0  0  0
    3.4598   -3.0075    0.0000 C   0  0  0  0  0  0  0  0  0  0  0  0
    4.3258   -2.5075    0.0000 C   0  0  0  0  0  0  0  0  0  0  0  0
    3.4627   -4.0076    0.0000 C   0  0  0  0  0  0  0  0  0  0  0  0
    2.5922   -4.5102    0.0000 C   0  0  0  0  0  0  0  0  0  0  0  0
    1.7187   -4.0127    0.0000 N   0  0  0  0  0  0  0  0  0  0  0  0
    1.7247   -3.0076    0.0000 C   0  0  0  0  0  0  0  0  0  0  0  0
  1  2  2  0  0  0  0
  2  3  1  0  0  0  0
  3  4  1  0  0  0  0
  4 11  2  0  0  0  0
  4  5  1  0  0  0  0
  5  6  2  0  0  0  0
  6  7  1  0  0  0  0
  7  8  3  0  0  0  0
  6  9  1  0  0  0  0
  9 10  2  0  0  0  0
 10 11  1  0  0  0  0
 11 12  1  0  0  0  0
 12 13  1  0  0  0  0
 13 14  1  0  0  0  0
 14 15  1  0  0  0  0
 15 16  2  0  0  0  0
 15 17  1  0  0  0  0
 15 18  2  0  0  0  0
  2 19  1  0  0  0  0
 19 20  1  0  0  0  0
 20 26  2  0  0  0  0
 20 21  1  0  0  0  0
 21 22  1  0  0  0  0
 21 23  2  0  0  0  0
 23 24  1  0  0  0  0
 24 25  2  0  0  0  0
 25 26  1  0  0  0  0
M  END
$$$$
TRY-UNI-1fd-4
  -OEChem-03222016562D

 21 23  0     0  0  0  0  0  0999 V2000
   -0.0000   -1.0000    0.0000 O   0  0  0  0  0  0  0  0  0  0  0  0
    0.0000    0.0000    0.0000 C   0  0  0  0  0  0  0  0  0  0  0  0
   -0.8675    0.4975    0.0000 C   0  0  0  0  0  0  0  0  0  0  0  0
   -0.8675    1.5027    0.0000 C   0  0  0  0  0  0  0  0  0  0  0  0
    0.0000    2.0104    0.0000 N   0  0  0  0  0  0  0  0  0  0  0  0
    0.8675    1.5027    0.0000 C   0  0  0  0  0  0  0  0  0  0  0  0
    0.8675    0.4975    0.0000 C   0  0  0  0  0  0  0  0  0  0  0  0
    0.0000    3.0104    0.0000 C   0  0  0  0  0  0  0  0  0  0  0  0
   -0.8660    3.5104    0.0000 C   0  0  0  0  0  0  0  0  0  0  0  0
   -1.7861    3.1008    0.0000 C   0  0  0  0  0  0  0  0  0  0  0  0
   -2.4599    3.8491    0.0000 C   0  0  0  0  0  0  0  0  0  0  0  0
   -3.4449    3.6458    0.0000 C   0  0  0  0  0  0  0  0  0  0  0  0
   -3.7500    2.6874    0.0000 C   0  0  0  0  0  0  0  0  0  0  0  0
   -3.0769    1.9400    0.0000 C   0  0  0  0  0  0  0  0  0  0  0  0
   -2.0988    2.1509    0.0000 C   0  0  0  0  0  0  0  0  0  0  0  0
   -3.3845    0.9885    0.0000 S   0  0  0  0  0  0  0  0  0  0  0  0
   -2.4330    0.6809    0.0000 O   0  0  0  0  0  0  0  0  0  0  0  0
   -3.6921    0.0370    0.0000 N   0  0  0  0  0  0  0  0  0  0  0  0
   -4.3361    1.2961    0.0000 O   0  0  0  0  0  0  0  0  0  0  0  0
   -1.9564    4.7212    0.0000 S   0  0  0  0  0  0  0  0  0  0  0  0
   -0.9713    4.5120    0.0000 C   0  0  0  0  0  0  0  0  0  0  0  0
  1  2  1  0  0  0  0
  2  7  1  0  0  0  0
  2  3  1  0  0  0  0
  3  4  1  0  0  0  0
  4  5  1  0  0  0  0
  5  6  1  0  0  0  0
  6  7  1  0  0  0  0
  5  8  1  0  0  0  0
  8  9  1  0  0  0  0
  9 21  2  0  0  0  0
  9 10  1  0  0  0  0
 10 15  2  0  0  0  0
 10 11  1  0  0  0  0
 11 12  2  0  0  0  0
 12 13  1  0  0  0  0
 13 14  2  0  0  0  0
 14 15  1  0  0  0  0
 14 16  1  0  0  0  0
 16 17  2  0  0  0  0
 16 18  1  0  0  0  0
 16 19  2  0  0  0  0
 11 20  1  0  0  0  0
 20 21  1  0  0  0  0
M  END
$$$$
TRY-UNI-1fd-5
  -OEChem-03222016562D

 21 23  0     0  0  0  0  0  0999 V2000
    1.3638   -1.7932    0.0000 O   0  0  0  0  0  0  0  0  0  0  0  0
    2.3431   -1.9958    0.0000 C   0  0  0  0  0  0  0  0  0  0  0  0
    3.0082   -1.2491    0.0000 C   0  0  0  0  0  0  0  0  0  0  0  0
    2.6940   -0.2997    0.0000 C   0  0  0  0  0  0  0  0  0  0  0  0
    1.7405    0.0044    0.0000 C   0  0  0  0  0  0  0  0  0  0  0  0
    0.8675   -0.4975    0.0000 C   0  0  0  0  0  0  0  0  0  0  0  0
    0.0000    0.0000    0.0000 C   0  0  0  0  0  0  0  0  0  0  0  0
    0.0000    1.0052    0.0000 C   0  0  0  0  0  0  0  0  0  0  0  0
    0.8675    1.5129    0.0000 N   0  0  0  0  0  0  0  0  0  0  0  0
    1.7350    1.0052    0.0000 C   0  0  0  0  0  0  0  0  0  0  0  0
    2.6851    1.3196    0.0000 N   0  0  0  0  0  0  0  0  0  0  0  0
    3.2780    0.5133    0.0000 C   0  0  0  0  0  0  0  0  0  0  0  0
    2.6572   -2.9452    0.0000 N   0  0  0  0  0  0  0  0  0  0  0  0
    1.9921   -3.6920    0.0000 C   0  0  0  0  0  0  0  0  0  0  0  0
    2.3063   -4.6413    0.0000 C   0  0  0  0  0  0  0  0  0  0  0  0
    1.6355   -5.3899    0.0000 C   0  0  0  0  0  0  0  0  0  0  0  0
    1.9598   -6.3414    0.0000 C   0  0  0  0  0  0  0  0  0  0  0  0
    1.2991   -7.0920    0.0000 Cl  0  0  0  0  0  0  0  0  0  0  0  0
    2.9447   -6.5421    0.0000 C   0  0  0  0  0  0  0  0  0  0  0  0
    3.6054   -5.7915    0.0000 C   0  0  0  0  0  0  0  0  0  0  0  0
    3.2912   -4.8421    0.0000 C   0  0  0  0  0  0  0  0  0  0  0  0
  1  2  2  0  0  0  0
  2  3  1  0  0  0  0
  3  4  1  0  0  0  0
  4 12  2  0  0  0  0
  4  5  1  0  0  0  0
  5 10  2  0  0  0  0
  5  6  1  0  0  0  0
  6  7  2  0  0  0  0
  7  8  1  0  0  0  0
  8  9  2  0  0  0  0
  9 10  1  0  0  0  0
 10 11  1  0  0  0  0
 11 12  1  0  0  0  0
  2 13  1  0  0  0  0
 13 14  1  0  0  0  0
 14 15  1  0  0  0  0
 15 21  2  0  0  0  0
 15 16  1  0  0  0  0
 16 17  2  0  0  0  0
 17 18  1  0  0  0  0
 17 19  1  0  0  0  0
 19 20  2  0  0  0  0
 20 21  1  0  0  0  0
M  END
$$$$
TRY-UNI-1fd-6
  -OEChem-03222016562D

 22 24  0     0  0  0  0  0  0999 V2000
    1.3638   -1.7932    0.0000 O   0  0  0  0  0  0  0  0  0  0  0  0
    2.3431   -1.9958    0.0000 C   0  0  0  0  0  0  0  0  0  0  0  0
    3.0082   -1.2491    0.0000 C   0  0  0  0  0  0  0  0  0  0  0  0
    2.6940   -0.2997    0.0000 C   0  0  0  0  0  0  0  0  0  0  0  0
    1.7405    0.0044    0.0000 C   0  0  0  0  0  0  0  0  0  0  0  0
    0.8675   -0.4975    0.0000 C   0  0  0  0  0  0  0  0  0  0  0  0
    0.0000    0.0000    0.0000 C   0  0  0  0  0  0  0  0  0  0  0  0
    0.0000    1.0052    0.0000 C   0  0  0  0  0  0  0  0  0  0  0  0
    0.8675    1.5129    0.0000 N   0  0  0  0  0  0  0  0  0  0  0  0
    1.7350    1.0052    0.0000 C   0  0  0  0  0  0  0  0  0  0  0  0
    2.6851    1.3196    0.0000 N   0  0  0  0  0  0  0  0  0  0  0  0
    3.2780    0.5133    0.0000 C   0  0  0  0  0  0  0  0  0  0  0  0
    2.6572   -2.9452    0.0000 N   0  0  0  0  0  0  0  0  0  0  0  0
    1.9921   -3.6920    0.0000 C   0  0  0  0  0  0  0  0  0  0  0  0
    2.3063   -4.6413    0.0000 C   0  0  0  0  0  0  0  0  0  0  0  0
    1.6355   -5.3899    0.0000 C   0  0  0  0  0  0  0  0  0  0  0  0
    1.9598   -6.3414    0.0000 C   0  0  0  0  0  0  0  0  0  0  0  0
    1.2991   -7.0920    0.0000 C   0  0  0  0  0  0  0  0  0  0  0  0
    0.6384   -7.8427    0.0000 N   0  0  0  0  0  0  0  0  0  0  0  0
    2.9447   -6.5421    0.0000 C   0  0  0  0  0  0  0  0  0  0  0  0
    3.6054   -5.7915    0.0000 C   0  0  0  0  0  0  0  0  0  0  0  0
    3.2912   -4.8421    0.0000 C   0  0  0  0  0  0  0  0  0  0  0  0
  1  2  2  0  0  0  0
  2  3  1  0  0  0  0
  3  4  1  0  0  0  0
  4 12  2  0  0  0  0
  4  5  1  0  0  0  0
  5 10  2  0  0  0  0
  5  6  1  0  0  0  0
  6  7  2  0  0  0  0
  7  8  1  0  0  0  0
  8  9  2  0  0  0  0
  9 10  1  0  0  0  0
 10 11  1  0  0  0  0
 11 12  1  0  0  0  0
  2 13  1  0  0  0  0
 13 14  1  0  0  0  0
 14 15  1  0  0  0  0
 15 22  2  0  0  0  0
 15 16  1  0  0  0  0
 16 17  2  0  0  0  0
 17 18  1  0  0  0  0
 18 19  3  0  0  0  0
 17 20  1  0  0  0  0
 20 21  2  0  0  0  0
 21 22  1  0  0  0  0
M  END
$$$$
TRY-UNI-1fd-7
  -OEChem-03222016562D

 21 23  0     0  0  0  0  0  0999 V2000
    1.3638   -1.7932    0.0000 O   0  0  0  0  0  0  0  0  0  0  0  0
    2.3431   -1.9958    0.0000 C   0  0  0  0  0  0  0  0  0  0  0  0
    3.0082   -1.2491    0.0000 C   0  0  0  0  0  0  0  0  0  0  0  0
    2.6940   -0.2997    0.0000 C   0  0  0  0  0  0  0  0  0  0  0  0
    1.7405    0.0044    0.0000 C   0  0  0  0  0  0  0  0  0  0  0  0
    0.8675   -0.4975    0.0000 C   0  0  0  0  0  0  0  0  0  0  0  0
    0.0000    0.0000    0.0000 C   0  0  0  0  0  0  0  0  0  0  0  0
    0.0000    1.0052    0.0000 C   0  0  0  0  0  0  0  0  0  0  0  0
    0.8675    1.5129    0.0000 N   0  0  0  0  0  0  0  0  0  0  0  0
    1.7350    1.0052    0.0000 C   0  0  0  0  0  0  0  0  0  0  0  0
    2.6851    1.3196    0.0000 N   0  0  0  0  0  0  0  0  0  0  0  0
    3.2780    0.5133    0.0000 C   0  0  0  0  0  0  0  0  0  0  0  0
    2.6572   -2.9452    0.0000 N   0  0  0  0  0  0  0  0  0  0  0  0
    1.9921   -3.6920    0.0000 C   0  0  0  0  0  0  0  0  0  0  0  0
    2.3063   -4.6413    0.0000 C   0  0  0  0  0  0  0  0  0  0  0  0
    3.2912   -4.8421    0.0000 C   0  0  0  0  0  0  0  0  0  0  0  0
    3.6054   -5.7915    0.0000 C   0  0  0  0  0  0  0  0  0  0  0  0
    2.9447   -6.5421    0.0000 C   0  0  0  0  0  0  0  0  0  0  0  0
    3.2630   -7.4901    0.0000 Cl  0  0  0  0  0  0  0  0  0  0  0  0
    1.9598   -6.3414    0.0000 C   0  0  0  0  0  0  0  0  0  0  0  0
    1.6355   -5.3899    0.0000 C   0  0  0  0  0  0  0  0  0  0  0  0
  1  2  2  0  0  0  0
  2  3  1  0  0  0  0
  3  4  1  0  0  0  0
  4 12  2  0  0  0  0
  4  5  1  0  0  0  0
  5 10  2  0  0  0  0
  5  6  1  0  0  0  0
  6  7  2  0  0  0  0
  7  8  1  0  0  0  0
  8  9  2  0  0  0  0
  9 10  1  0  0  0  0
 10 11  1  0  0  0  0
 11 12  1  0  0  0  0
  2 13  1  0  0  0  0
 13 14  1  0  0  0  0
 14 15  1  0  0  0  0
 15 21  2  0  0  0  0
 15 16  1  0  0  0  0
 16 17  2  0  0  0  0
 17 18  1  0  0  0  0
 18 19  1  0  0  0  0
 18 20  2  0  0  0  0
 20 21  1  0  0  0  0
M  END
$$$$
TRY-UNI-1fd-8
  -OEChem-03222016562D

 22 24  0     0  0  0  0  0  0999 V2000
    1.3638   -1.7932    0.0000 O   0  0  0  0  0  0  0  0  0  0  0  0
    2.3431   -1.9958    0.0000 C   0  0  0  0  0  0  0  0  0  0  0  0
    3.0082   -1.2491    0.0000 C   0  0  0  0  0  0  0  0  0  0  0  0
    2.6940   -0.2997    0.0000 C   0  0  0  0  0  0  0  0  0  0  0  0
    1.7405    0.0044    0.0000 C   0  0  0  0  0  0  0  0  0  0  0  0
    0.8675   -0.4975    0.0000 C   0  0  0  0  0  0  0  0  0  0  0  0
    0.0000    0.0000    0.0000 C   0  0  0  0  0  0  0  0  0  0  0  0
    0.0000    1.0052    0.0000 C   0  0  0  0  0  0  0  0  0  0  0  0
    0.8675    1.5129    0.0000 N   0  0  0  0  0  0  0  0  0  0  0  0
    1.7350    1.0052    0.0000 C   0  0  0  0  0  0  0  0  0  0  0  0
    2.6851    1.3196    0.0000 N   0  0  0  0  0  0  0  0  0  0  0  0
    3.2780    0.5133    0.0000 C   0  0  0  0  0  0  0  0  0  0  0  0
    2.6572   -2.9452    0.0000 N   0  0  0  0  0  0  0  0  0  0  0  0
    1.9921   -3.6920    0.0000 C   0  0  0  0  0  0  0  0  0  0  0  0
    2.3063   -4.6413    0.0000 C   0  0  0  0  0  0  0  0  0  0  0  0
    3.2912   -4.8421    0.0000 C   0  0  0  0  0  0  0  0  0  0  0  0
    3.6054   -5.7915    0.0000 C   0  0  0  0  0  0  0  0  0  0  0  0
    2.9447   -6.5421    0.0000 C   0  0  0  0  0  0  0  0  0  0  0  0
    3.2630   -7.4901    0.0000 C   0  0  0  0  0  0  0  0  0  0  0  0
    3.5814   -8.4381    0.0000 N   0  0  0  0  0  0  0  0  0  0  0  0
    1.9598   -6.3414    0.0000 C   0  0  0  0  0  0  0  0  0  0  0  0
    1.6355   -5.3899    0.0000 C   0  0  0  0  0  0  0  0  0  0  0  0
  1  2  2  0  0  0  0
  2  3  1  0  0  0  0
  3  4  1  0  0  0  0
  4 12  2  0  0  0  0
  4  5  1  0  0  0  0
  5 10  2  0  0  0  0
  5  6  1  0  0  0  0
  6  7  2  0  0  0  0
  7  8  1  0  0  0  0
  8  9  2  0  0  0  0
  9 10  1  0  0  0  0
 10 11  1  0  0  0  0
 11 12  1  0  0  0  0
  2 13  1  0  0  0  0
 13 14  1  0  0  0  0
 14 15  1  0  0  0  0
 15 22  2  0  0  0  0
 15 16  1  0  0  0  0
 16 17  2  0  0  0  0
 17 18  1  0  0  0  0
 18 19  1  0  0  0  0
 19 20  3  0  0  0  0
 18 21  2  0  0  0  0
 21 22  1  0  0  0  0
M  END
$$$$
TRY-UNI-1fd-9
  -OEChem-03222016562D

 21 23  0     0  0  0  0  0  0999 V2000
    1.3638   -1.7932    0.0000 O   0  0  0  0  0  0  0  0  0  0  0  0
    2.3431   -1.9958    0.0000 C   0  0  0  0  0  0  0  0  0  0  0  0
    3.0082   -1.2491    0.0000 C   0  0  0  0  0  0  0  0  0  0  0  0
    2.6940   -0.2997    0.0000 C   0  0  0  0  0  0  0  0  0  0  0  0
    1.7405    0.0044    0.0000 C   0  0  0  0  0  0  0  0  0  0  0  0
    0.8675   -0.4975    0.0000 C   0  0  0  0  0  0  0  0  0  0  0  0
    0.0000    0.0000    0.0000 C   0  0  0  0  0  0  0  0  0  0  0  0
    0.0000    1.0052    0.0000 C   0  0  0  0  0  0  0  0  0  0  0  0
    0.8675    1.5129    0.0000 N   0  0  0  0  0  0  0  0  0  0  0  0
    1.7350    1.0052    0.0000 C   0  0  0  0  0  0  0  0  0  0  0  0
    2.6851    1.3196    0.0000 N   0  0  0  0  0  0  0  0  0  0  0  0
    3.2780    0.5133    0.0000 C   0  0  0  0  0  0  0  0  0  0  0  0
    2.6572   -2.9452    0.0000 N   0  0  0  0  0  0  0  0  0  0  0  0
    1.9921   -3.6920    0.0000 C   0  0  0  0  0  0  0  0  0  0  0  0
    2.3063   -4.6413    0.0000 C   0  0  0  0  0  0  0  0  0  0  0  0
    3.2912   -4.8421    0.0000 C   0  0  0  0  0  0  0  0  0  0  0  0
    3.6054   -5.7915    0.0000 C   0  0  0  0  0  0  0  0  0  0  0  0
    4.5853   -5.9912    0.0000 Cl  0  0  0  0  0  0  0  0  0  0  0  0
    2.9447   -6.5421    0.0000 C   0  0  0  0  0  0  0  0  0  0  0  0
    1.9598   -6.3414    0.0000 C   0  0  0  0  0  0  0  0  0  0  0  0
    1.6355   -5.3899    0.0000 N   0  0  0  0  0  0  0  0  0  0  0  0
  1  2  2  0  0  0  0
  2  3  1  0  0  0  0
  3  4  1  0  0  0  0
  4 12  2  0  0  0  0
  4  5  1  0  0  0  0
  5 10  2  0  0  0  0
  5  6  1  0  0  0  0
  6  7  2  0  0  0  0
  7  8  1  0  0  0  0
  8  9  2  0  0  0  0
  9 10  1  0  0  0  0
 10 11  1  0  0  0  0
 11 12  1  0  0  0  0
  2 13  1  0  0  0  0
 13 14  1  0  0  0  0
 14 15  1  0  0  0  0
 15 21  2  0  0  0  0
 15 16  1  0  0  0  0
 16 17  2  0  0  0  0
 17 18  1  0  0  0  0
 17 19  1  0  0  0  0
 19 20  2  0  0  0  0
 20 21  1  0  0  0  0
M  END
$$$$
TRY-UNI-1fd-10
  -OEChem-03222016562D

 22 24  0     0  0  0  0  0  0999 V2000
    1.3638   -1.7932    0.0000 O   0  0  0  0  0  0  0  0  0  0  0  0
    2.3431   -1.9958    0.0000 C   0  0  0  0  0  0  0  0  0  0  0  0
    3.0082   -1.2491    0.0000 C   0  0  0  0  0  0  0  0  0  0  0  0
    2.6940   -0.2997    0.0000 C   0  0  0  0  0  0  0  0  0  0  0  0
    1.7405    0.0044    0.0000 C   0  0  0  0  0  0  0  0  0  0  0  0
    0.8675   -0.4975    0.0000 C   0  0  0  0  0  0  0  0  0  0  0  0
    0.0000    0.0000    0.0000 C   0  0  0  0  0  0  0  0  0  0  0  0
    0.0000    1.0052    0.0000 C   0  0  0  0  0  0  0  0  0  0  0  0
    0.8675    1.5129    0.0000 N   0  0  0  0  0  0  0  0  0  0  0  0
    1.7350    1.0052    0.0000 C   0  0  0  0  0  0  0  0  0  0  0  0
    2.6851    1.3196    0.0000 N   0  0  0  0  0  0  0  0  0  0  0  0
    3.2780    0.5133    0.0000 C   0  0  0  0  0  0  0  0  0  0  0  0
    2.6572   -2.9452    0.0000 N   0  0  0  0  0  0  0  0  0  0  0  0
    1.9921   -3.6920    0.0000 C   0  0  0  0  0  0  0  0  0  0  0  0
    2.3063   -4.6413    0.0000 C   0  0  0  0  0  0  0  0  0  0  0  0
    3.2912   -4.8421    0.0000 C   0  0  0  0  0  0  0  0  0  0  0  0
    3.6054   -5.7915    0.0000 C   0  0  0  0  0  0  0  0  0  0  0  0
    4.5853   -5.9912    0.0000 C   0  0  0  0  0  0  0  0  0  0  0  0
    5.5651   -6.1909    0.0000 N   0  0  0  0  0  0  0  0  0  0  0  0
    2.9447   -6.5421    0.0000 C   0  0  0  0  0  0  0  0  0  0  0  0
    1.9598   -6.3414    0.0000 C   0  0  0  0  0  0  0  0  0  0  0  0
    1.6355   -5.3899    0.0000 N   0  0  0  0  0  0  0  0  0  0  0  0
  1  2  2  0  0  0  0
  2  3  1  0  0  0  0
  3  4  1  0  0  0  0
  4 12  2  0  0  0  0
  4  5  1  0  0  0  0
  5 10  2  0  0  0  0
  5  6  1  0  0  0  0
  6  7  2  0  0  0  0
  7  8  1  0  0  0  0
  8  9  2  0  0  0  0
  9 10  1  0  0  0  0
 10 11  1  0  0  0  0
 11 12  1  0  0  0  0
  2 13  1  0  0  0  0
 13 14  1  0  0  0  0
 14 15  1  0  0  0  0
 15 22  2  0  0  0  0
 15 16  1  0  0  0  0
 16 17  2  0  0  0  0
 17 18  1  0  0  0  0
 18 19  3  0  0  0  0
 17 20  1  0  0  0  0
 20 21  2  0  0  0  0
 21 22  1  0  0  0  0
M  END
$$$$
TRY-UNI-1fd-11
  -OEChem-03222016562D

 21 23  0     0  0  0  0  0  0999 V2000
    1.3638   -1.7932    0.0000 O   0  0  0  0  0  0  0  0  0  0  0  0
    2.3431   -1.9958    0.0000 C   0  0  0  0  0  0  0  0  0  0  0  0
    3.0082   -1.2491    0.0000 C   0  0  0  0  0  0  0  0  0  0  0  0
    2.6940   -0.2997    0.0000 C   0  0  0  0  0  0  0  0  0  0  0  0
    1.7405    0.0044    0.0000 C   0  0  0  0  0  0  0  0  0  0  0  0
    0.8675   -0.4975    0.0000 C   0  0  0  0  0  0  0  0  0  0  0  0
    0.0000    0.0000    0.0000 C   0  0  0  0  0  0  0  0  0  0  0  0
    0.0000    1.0052    0.0000 C   0  0  0  0  0  0  0  0  0  0  0  0
    0.8675    1.5129    0.0000 N   0  0  0  0  0  0  0  0  0  0  0  0
    1.7350    1.0052    0.0000 C   0  0  0  0  0  0  0  0  0  0  0  0
    2.6851    1.3196    0.0000 N   0  0  0  0  0  0  0  0  0  0  0  0
    3.2780    0.5133    0.0000 C   0  0  0  0  0  0  0  0  0  0  0  0
    2.6572   -2.9452    0.0000 N   0  0  0  0  0  0  0  0  0  0  0  0
    1.9921   -3.6920    0.0000 C   0  0  0  0  0  0  0  0  0  0  0  0
    2.3063   -4.6413    0.0000 C   0  0  0  0  0  0  0  0  0  0  0  0
    3.2912   -4.8421    0.0000 C   0  0  0  0  0  0  0  0  0  0  0  0
    3.6054   -5.7915    0.0000 C   0  0  0  0  0  0  0  0  0  0  0  0
    2.9447   -6.5421    0.0000 C   0  0  0  0  0  0  0  0  0  0  0  0
    3.2630   -7.4901    0.0000 Cl  0  0  0  0  0  0  0  0  0  0  0  0
    1.9598   -6.3414    0.0000 C   0  0  0  0  0  0  0  0  0  0  0  0
    1.6355   -5.3899    0.0000 N   0  0  0  0  0  0  0  0  0  0  0  0
  1  2  2  0  0  0  0
  2  3  1  0  0  0  0
  3  4  1  0  0  0  0
  4 12  2  0  0  0  0
  4  5  1  0  0  0  0
  5 10  2  0  0  0  0
  5  6  1  0  0  0  0
  6  7  2  0  0  0  0
  7  8  1  0  0  0  0
  8  9  2  0  0  0  0
  9 10  1  0  0  0  0
 10 11  1  0  0  0  0
 11 12  1  0  0  0  0
  2 13  1  0  0  0  0
 13 14  1  0  0  0  0
 14 15  1  0  0  0  0
 15 21  2  0  0  0  0
 15 16  1  0  0  0  0
 16 17  2  0  0  0  0
 17 18  1  0  0  0  0
 18 19  1  0  0  0  0
 18 20  2  0  0  0  0
 20 21  1  0  0  0  0
M  END
$$$$
TRY-UNI-1fd-12
  -OEChem-03222016562D

 22 24  0     0  0  0  0  0  0999 V2000
    1.3638   -1.7932    0.0000 O   0  0  0  0  0  0  0  0  0  0  0  0
    2.3431   -1.9958    0.0000 C   0  0  0  0  0  0  0  0  0  0  0  0
    3.0082   -1.2491    0.0000 C   0  0  0  0  0  0  0  0  0  0  0  0
    2.6940   -0.2997    0.0000 C   0  0  0  0  0  0  0  0  0  0  0  0
    1.7405    0.0044    0.0000 C   0  0  0  0  0  0  0  0  0  0  0  0
    0.8675   -0.4975    0.0000 C   0  0  0  0  0  0  0  0  0  0  0  0
    0.0000    0.0000    0.0000 C   0  0  0  0  0  0  0  0  0  0  0  0
    0.0000    1.0052    0.0000 C   0  0  0  0  0  0  0  0  0  0  0  0
    0.8675    1.5129    0.0000 N   0  0  0  0  0  0  0  0  0  0  0  0
    1.7350    1.0052    0.0000 C   0  0  0  0  0  0  0  0  0  0  0  0
    2.6851    1.3196    0.0000 N   0  0  0  0  0  0  0  0  0  0  0  0
    3.2780    0.5133    0.0000 C   0  0  0  0  0  0  0  0  0  0  0  0
    2.6572   -2.9452    0.0000 N   0  0  0  0  0  0  0  0  0  0  0  0
    1.9921   -3.6920    0.0000 C   0  0  0  0  0  0  0  0  0  0  0  0
    2.3063   -4.6413    0.0000 C   0  0  0  0  0  0  0  0  0  0  0  0
    3.2912   -4.8421    0.0000 C   0  0  0  0  0  0  0  0  0  0  0  0
    3.6054   -5.7915    0.0000 C   0  0  0  0  0  0  0  0  0  0  0  0
    2.9447   -6.5421    0.0000 C   0  0  0  0  0  0  0  0  0  0  0  0
    3.2630   -7.4901    0.0000 C   0  0  0  0  0  0  0  0  0  0  0  0
    3.5814   -8.4381    0.0000 N   0  0  0  0  0  0  0  0  0  0  0  0
    1.9598   -6.3414    0.0000 C   0  0  0  0  0  0  0  0  0  0  0  0
    1.6355   -5.3899    0.0000 N   0  0  0  0  0  0  0  0  0  0  0  0
  1  2  2  0  0  0  0
  2  3  1  0  0  0  0
  3  4  1  0  0  0  0
  4 12  2  0  0  0  0
  4  5  1  0  0  0  0
  5 10  2  0  0  0  0
  5  6  1  0  0  0  0
  6  7  2  0  0  0  0
  7  8  1  0  0  0  0
  8  9  2  0  0  0  0
  9 10  1  0  0  0  0
 10 11  1  0  0  0  0
 11 12  1  0  0  0  0
  2 13  1  0  0  0  0
 13 14  1  0  0  0  0
 14 15  1  0  0  0  0
 15 22  2  0  0  0  0
 15 16  1  0  0  0  0
 16 17  2  0  0  0  0
 17 18  1  0  0  0  0
 18 19  1  0  0  0  0
 19 20  3  0  0  0  0
 18 21  2  0  0  0  0
 21 22  1  0  0  0  0
M  END
$$$$
SAL-INS-1ea-1
  -OEChem-03222016562D

 29 31  0     1  0  0  0  0  0999 V2000
    0.0015    4.0129    0.0000 Cl  0  0  0  0  0  0  0  0  0  0  0  0
    0.0015    3.0129    0.0000 C   0  0  0  0  0  0  0  0  0  0  0  0
    0.8675    2.5129    0.0000 C   0  0  0  0  0  0  0  0  0  0  0  0
    0.8675    1.5129    0.0000 N   0  0  0  0  0  0  0  0  0  0  0  0
    0.0000    1.0052    0.0000 C   0  0  0  0  0  0  0  0  0  0  0  0
    0.0000    0.0000    0.0000 C   0  0  0  0  0  0  0  0  0  0  0  0
    0.8675   -0.4975    0.0000 N   0  0  3  0  0  0  0  0  0  0  0  0
    0.8675   -1.4975    0.0000 S   0  0  0  0  0  0  0  0  0  0  0  0
    0.8675   -2.4975    0.0000 C   0  0  0  0  0  0  0  0  0  0  0  0
    1.7395   -2.9975    0.0000 C   0  0  0  0  0  0  0  0  0  0  0  0
    1.7396   -3.9976    0.0000 C   0  0  0  0  0  0  0  0  0  0  0  0
    0.8764   -4.5026    0.0000 C   0  0  0  0  0  0  0  0  0  0  0  0
    0.8808   -5.5026    0.0000 Cl  0  0  0  0  0  0  0  0  0  0  0  0
    0.0044   -4.0026    0.0000 C   0  0  0  0  0  0  0  0  0  0  0  0
   -0.0045   -2.9975    0.0000 C   0  0  0  0  0  0  0  0  0  0  0  0
    1.8675   -1.4975    0.0000 O   0  0  0  0  0  0  0  0  0  0  0  0
   -0.1325   -1.4975    0.0000 O   0  0  0  0  0  0  0  0  0  0  0  0
    1.7350    0.0000    0.0000 C   0  0  0  0  0  0  0  0  0  0  0  0
    1.7350    1.0052    0.0000 C   0  0  2  0  0  0  0  0  0  0  0  0
    2.0807    1.9435    0.0000 H   0  0  0  0  0  0  0  0  0  0  0  0
    2.7195    0.8296    0.0000 O   0  0  0  0  0  0  0  0  0  0  0  0
    3.3638    1.5944    0.0000 C   0  0  0  0  0  0  0  0  0  0  0  0
    3.0190    2.5386    0.0000 C   0  0  0  0  0  0  0  0  0  0  0  0
    3.6633    3.3035    0.0000 C   0  0  0  0  0  0  0  0  0  0  0  0
    4.6488    3.1336    0.0000 C   0  0  0  0  0  0  0  0  0  0  0  0
    5.2897    3.9012    0.0000 F   0  0  0  0  0  0  0  0  0  0  0  0
    4.9935    2.1894    0.0000 C   0  0  0  0  0  0  0  0  0  0  0  0
    4.3528    1.4150    0.0000 C   0  0  0  0  0  0  0  0  0  0  0  0
    1.7335    3.0129    0.0000 O   0  0  0  0  0  0  0  0  0  0  0  0
  1  2  1  0  0  0  0
  2  3  1  0  0  0  0
  3  4  1  0  0  0  0
  4 19  1  0  0  0  0
  4  5  1  0  0  0  0
  5  6  1  0  0  0  0
  6  7  1  0  0  0  0
  7  8  1  0  0  0  0
  8  9  1  0  0  0  0
  9 15  2  0  0  0  0
  9 10  1  0  0  0  0
 10 11  2  0  0  0  0
 11 12  1  0  0  0  0
 12 13  1  0  0  0  0
 12 14  2  0  0  0  0
 14 15  1  0  0  0  0
  8 16  2  0  0  0  0
  8 17  2  0  0  0  0
  7 18  1  0  0  0  0
 18 19  1  0  0  0  0
 19 20  1  6  0  0  0
 19 21  1  0  0  0  0
 21 22  1  0  0  0  0
 22 28  1  0  0  0  0
 22 23  2  0  0  0  0
 23 24  1  0  0  0  0
 24 25  2  0  0  0  0
 25 26  1  0  0  0  0
 25 27  1  0  0  0  0
 27 28  2  0  0  0  0
  3 29  2  0  0  0  0
M  END
$$$$
SAL-INS-1ea-2
  -OEChem-03222016562D

 28 30  0     1  0  0  0  0  0999 V2000
   -1.7335    4.0129    0.0000 Cl  0  0  0  0  0  0  0  0  0  0  0  0
   -1.7335    3.0129    0.0000 C   0  0  0  0  0  0  0  0  0  0  0  0
   -0.8675    2.5129    0.0000 C   0  0  0  0  0  0  0  0  0  0  0  0
   -0.0015    3.0129    0.0000 O   0  0  0  0  0  0  0  0  0  0  0  0
   -0.8675    1.5129    0.0000 N   0  0  0  0  0  0  0  0  0  0  0  0
    0.0000    1.0052    0.0000 C   0  0  1  0  0  0  0  0  0  0  0  0
    0.3457    1.9435    0.0000 H   0  0  0  0  0  0  0  0  0  0  0  0
    0.9845    0.8296    0.0000 O   0  0  0  0  0  0  0  0  0  0  0  0
    1.6288    1.5944    0.0000 C   0  0  0  0  0  0  0  0  0  0  0  0
    1.2840    2.5386    0.0000 C   0  0  0  0  0  0  0  0  0  0  0  0
    1.9283    3.3035    0.0000 C   0  0  0  0  0  0  0  0  0  0  0  0
    2.9138    3.1336    0.0000 C   0  0  0  0  0  0  0  0  0  0  0  0
    3.5547    3.9012    0.0000 F   0  0  0  0  0  0  0  0  0  0  0  0
    3.2585    2.1894    0.0000 C   0  0  0  0  0  0  0  0  0  0  0  0
    2.6178    1.4150    0.0000 C   0  0  0  0  0  0  0  0  0  0  0  0
    0.0000    0.0000    0.0000 C   0  0  0  0  0  0  0  0  0  0  0  0
   -0.8675   -0.4975    0.0000 N   0  0  3  0  0  0  0  0  0  0  0  0
   -0.8675   -1.4975    0.0000 S   0  0  0  0  0  0  0  0  0  0  0  0
    0.1325   -1.4975    0.0000 O   0  0  0  0  0  0  0  0  0  0  0  0
   -1.8675   -1.4975    0.0000 O   0  0  0  0  0  0  0  0  0  0  0  0
   -0.8675   -2.4975    0.0000 C   0  0  0  0  0  0  0  0  0  0  0  0
   -1.6797   -3.0888    0.0000 S   0  0  0  0  0  0  0  0  0  0  0  0
   -1.3658   -4.0387    0.0000 C   0  0  0  0  0  0  0  0  0  0  0  0
   -1.9521   -4.8488    0.0000 Cl  0  0  0  0  0  0  0  0  0  0  0  0
   -0.3658   -4.0400    0.0000 C   0  0  0  0  0  0  0  0  0  0  0  0
   -0.0577   -3.0870    0.0000 C   0  0  0  0  0  0  0  0  0  0  0  0
   -1.7350    0.0000    0.0000 C   0  0  0  0  0  0  0  0  0  0  0  0
   -1.7350    1.0052    0.0000 C   0  0  0  0  0  0  0  0  0  0  0  0
  1  2  1  0  0  0  0
  2  3  1  0  0  0  0
  3  4  2  0  0  0  0
  3  5  1  0  0  0  0
  5 28  1  0  0  0  0
  5  6  1  0  0  0  0
  6  7  1  6  0  0  0
  6  8  1  0  0  0  0
  8  9  1  0  0  0  0
  9 15  2  0  0  0  0
  9 10  1  0  0  0  0
 10 11  2  0  0  0  0
 11 12  1  0  0  0  0
 12 13  1  0  0  0  0
 12 14  2  0  0  0  0
 14 15  1  0  0  0  0
  6 16  1  0  0  0  0
 16 17  1  0  0  0  0
 17 18  1  0  0  0  0
 18 19  2  0  0  0  0
 18 20  2  0  0  0  0
 18 21  1  0  0  0  0
 21 26  2  0  0  0  0
 21 22  1  0  0  0  0
 22 23  1  0  0  0  0
 23 24  1  0  0  0  0
 23 25  2  0  0  0  0
 25 26  1  0  0  0  0
 17 27  1  0  0  0  0
 27 28  1  0  0  0  0
M  END
$$$$
SAL-INS-1ea-3
  -OEChem-03222016562D

 29 31  0     1  0  0  0  0  0999 V2000
    1.7335   -4.0027    0.0000 Cl  0  0  0  0  0  0  0  0  0  0  0  0
    1.7335   -3.0027    0.0000 C   0  0  0  0  0  0  0  0  0  0  0  0
    0.8675   -2.5027    0.0000 C   0  0  0  0  0  0  0  0  0  0  0  0
    0.0015   -3.0027    0.0000 O   0  0  0  0  0  0  0  0  0  0  0  0
    0.8675   -1.5027    0.0000 N   0  0  0  0  0  0  0  0  0  0  0  0
    0.0000   -1.0052    0.0000 C   0  0  0  0  0  0  0  0  0  0  0  0
    0.0000    0.0000    0.0000 C   0  0  0  0  0  0  0  0  0  0  0  0
    0.8675    0.5077    0.0000 N   0  0  3  0  0  0  0  0  0  0  0  0
    0.8675    2.2577    0.0000 S   0  0  0  0  0  0  0  0  0  0  0  0
   -0.1325    2.2577    0.0000 O   0  0  0  0  0  0  0  0  0  0  0  0
    1.8675    2.2577    0.0000 O   0  0  0  0  0  0  0  0  0  0  0  0
    0.8675    3.2577    0.0000 C   0  0  0  0  0  0  0  0  0  0  0  0
    1.6797    3.8490    0.0000 S   0  0  0  0  0  0  0  0  0  0  0  0
    1.3658    4.7989    0.0000 C   0  0  0  0  0  0  0  0  0  0  0  0
    1.9521    5.6090    0.0000 Cl  0  0  0  0  0  0  0  0  0  0  0  0
    0.3658    4.8002    0.0000 C   0  0  0  0  0  0  0  0  0  0  0  0
    0.0577    3.8472    0.0000 C   0  0  0  0  0  0  0  0  0  0  0  0
    1.7350   -0.0000    0.0000 C   0  0  1  0  0  0  0  0  0  0  0  0
    2.0807    0.9383    0.0000 H   0  0  0  0  0  0  0  0  0  0  0  0
    2.7195   -0.1756    0.0000 C   0  0  0  0  0  0  0  0  0  0  0  0
    3.3638    0.5892    0.0000 C   0  0  0  0  0  0  0  0  0  0  0  0
    4.3482    0.4136    0.0000 C   0  0  0  0  0  0  0  0  0  0  0  0
    4.9936    1.1843    0.0000 C   0  0  0  0  0  0  0  0  0  0  0  0
    4.6520    2.1241    0.0000 O   0  0  0  0  0  0  0  0  0  0  0  0
    5.9781    1.0087    0.0000 C   0  0  0  0  0  0  0  0  0  0  0  0
    6.3238    0.0703    0.0000 C   0  0  0  0  0  0  0  0  0  0  0  0
    5.6784   -0.7003    0.0000 C   0  0  0  0  0  0  0  0  0  0  0  0
    4.6874   -0.5326    0.0000 C   0  0  0  0  0  0  0  0  0  0  0  0
    1.7350   -1.0052    0.0000 C   0  0  0  0  0  0  0  0  0  0  0  0
  1  2  1  0  0  0  0
  2  3  1  0  0  0  0
  3  4  2  0  0  0  0
  3  5  1  0  0  0  0
  5 29  1  0  0  0  0
  5  6  1  0  0  0  0
  6  7  1  0  0  0  0
  7  8  1  0  0  0  0
  8  9  1  0  0  0  0
  9 10  2  0  0  0  0
  9 11  2  0  0  0  0
  9 12  1  0  0  0  0
 12 17  2  0  0  0  0
 12 13  1  0  0  0  0
 13 14  1  0  0  0  0
 14 15  1  0  0  0  0
 14 16  2  0  0  0  0
 16 17  1  0  0  0  0
  8 18  1  0  0  0  0
 18 19  1  6  0  0  0
 18 20  1  0  0  0  0
 20 21  1  0  0  0  0
 21 22  1  0  0  0  0
 22 28  2  0  0  0  0
 22 23  1  0  0  0  0
 23 24  1  0  0  0  0
 23 25  2  0  0  0  0
 25 26  1  0  0  0  0
 26 27  2  0  0  0  0
 27 28  1  0  0  0  0
 18 29  1  0  0  0  0
M  END
$$$$
SAL-INS-1ea-4
  -OEChem-03222016562D

 30 32  0     1  0  0  0  0  0999 V2000
   -0.0015   -4.0027    0.0000 Cl  0  0  0  0  0  0  0  0  0  0  0  0
   -0.0015   -3.0027    0.0000 C   0  0  0  0  0  0  0  0  0  0  0  0
   -0.8675   -2.5027    0.0000 C   0  0  0  0  0  0  0  0  0  0  0  0
   -0.8675   -1.5027    0.0000 N   0  0  0  0  0  0  0  0  0  0  0  0
    0.0000   -1.0052    0.0000 C   0  0  0  0  0  0  0  0  0  0  0  0
    0.0000    0.0000    0.0000 C   0  0  2  0  0  0  0  0  0  0  0  0
    0.3457    0.9383    0.0000 H   0  0  0  0  0  0  0  0  0  0  0  0
    0.9845   -0.1756    0.0000 C   0  0  0  0  0  0  0  0  0  0  0  0
    1.6288    0.5892    0.0000 C   0  0  0  0  0  0  0  0  0  0  0  0
    2.6132    0.4136    0.0000 C   0  0  0  0  0  0  0  0  0  0  0  0
    3.2586    1.1775    0.0000 C   0  0  0  0  0  0  0  0  0  0  0  0
    4.2439    1.0062    0.0000 C   0  0  0  0  0  0  0  0  0  0  0  0
    4.5872    0.0614    0.0000 C   0  0  0  0  0  0  0  0  0  0  0  0
    3.9453   -0.7120    0.0000 C   0  0  0  0  0  0  0  0  0  0  0  0
    2.9565   -0.5311    0.0000 C   0  0  0  0  0  0  0  0  0  0  0  0
    2.3111   -1.2950    0.0000 O   0  0  0  0  0  0  0  0  0  0  0  0
   -0.8675    0.5077    0.0000 N   0  0  3  0  0  0  0  0  0  0  0  0
   -0.8675    2.2577    0.0000 S   0  0  0  0  0  0  0  0  0  0  0  0
   -0.8675    3.2577    0.0000 C   0  0  0  0  0  0  0  0  0  0  0  0
   -1.7395    3.7577    0.0000 C   0  0  0  0  0  0  0  0  0  0  0  0
   -1.7396    4.7578    0.0000 C   0  0  0  0  0  0  0  0  0  0  0  0
   -0.8764    5.2628    0.0000 C   0  0  0  0  0  0  0  0  0  0  0  0
   -0.8808    6.2628    0.0000 Cl  0  0  0  0  0  0  0  0  0  0  0  0
   -0.0044    4.7628    0.0000 C   0  0  0  0  0  0  0  0  0  0  0  0
    0.0045    3.7577    0.0000 C   0  0  0  0  0  0  0  0  0  0  0  0
   -1.8675    2.2577    0.0000 O   0  0  0  0  0  0  0  0  0  0  0  0
    0.1325    2.2577    0.0000 O   0  0  0  0  0  0  0  0  0  0  0  0
   -1.7350   -0.0000    0.0000 C   0  0  0  0  0  0  0  0  0  0  0  0
   -1.7350   -1.0052    0.0000 C   0  0  0  0  0  0  0  0  0  0  0  0
   -1.7335   -3.0027    0.0000 O   0  0  0  0  0  0  0  0  0  0  0  0
  1  2  1  0  0  0  0
  2  3  1  0  0  0  0
  3  4  1  0  0  0  0
  4 29  1  0  0  0  0
  4  5  1  0  0  0  0
  5  6  1  0  0  0  0
  6  7  1  6  0  0  0
  6  8  1  0  0  0  0
  8  9  1  0  0  0  0
  9 10  1  0  0  0  0
 10 15  2  0  0  0  0
 10 11  1  0  0  0  0
 11 12  2  0  0  0  0
 12 13  1  0  0  0  0
 13 14  2  0  0  0  0
 14 15  1  0  0  0  0
 15 16  1  0  0  0  0
  6 17  1  0  0  0  0
 17 18  1  0  0  0  0
 18 19  1  0  0  0  0
 19 25  1  0  0  0  0
 19 20  2  0  0  0  0
 20 21  1  0  0  0  0
 21 22  2  0  0  0  0
 22 23  1  0  0  0  0
 22 24  1  0  0  0  0
 24 25  2  0  0  0  0
 18 26  2  0  0  0  0
 18 27  2  0  0  0  0
 17 28  1  0  0  0  0
 28 29  1  0  0  0  0
  3 30  2  0  0  0  0
M  END
$$$$
SAL-INS-1c7-1
  -OEChem-03222016562D

 27 29  0     1  0  0  0  0  0999 V2000
    5.2275    2.9921    0.0000 Cl  0  0  0  0  0  0  0  0  0  0  0  0
    4.3588    2.4968    0.0000 C   0  0  0  0  0  0  0  0  0  0  0  0
    4.3535    1.4968    0.0000 C   0  0  0  0  0  0  0  0  0  0  0  0
    3.4848    1.0014    0.0000 N   0  0  0  0  0  0  0  0  0  0  0  0
    2.6125    1.5125    0.0000 C   0  0  0  0  0  0  0  0  0  0  0  0
    1.7414    1.0089    0.0000 C   0  0  0  0  0  0  0  0  0  0  0  0
    1.7371   -0.0000    0.0000 C   0  0  0  0  0  0  0  0  0  0  0  0
    0.8707   -0.4993    0.0000 C   0  0  0  0  0  0  0  0  0  0  0  0
    0.0000    0.0000    0.0000 C   0  0  0  0  0  0  0  0  0  0  0  0
    0.0000    1.0089    0.0000 C   0  0  0  0  0  0  0  0  0  0  0  0
   -0.8675    1.5063    0.0000 C   0  0  0  0  0  0  0  0  0  0  0  0
   -1.7320    1.0038    0.0000 N   0  0  0  0  0  0  0  0  0  0  0  0
   -1.7291    0.0038    0.0000 C   0  0  0  0  0  0  0  0  0  0  0  0
   -2.5995    1.5012    0.0000 C   0  0  0  0  0  0  0  0  0  0  0  0
   -3.4641    0.9986    0.0000 C   0  0  0  0  0  0  0  0  0  0  0  0
   -2.6025    2.5012    0.0000 C   0  0  0  0  0  0  0  0  0  0  0  0
   -0.8705    2.5063    0.0000 O   0  0  0  0  0  0  0  0  0  0  0  0
    0.8707    1.5185    0.0000 C   0  0  0  0  0  0  0  0  0  0  0  0
    2.6039   -0.5053    0.0000 C   0  0  3  0  0  0  0  0  0  0  0  0
    2.5983   -1.5053    0.0000 C   0  0  0  0  0  0  0  0  0  0  0  0
    3.4675   -2.0102    0.0000 C   0  0  0  0  0  0  0  0  0  0  0  0
    3.4620   -3.0102    0.0000 C   0  0  0  0  0  0  0  0  0  0  0  0
    2.5961   -3.5104    0.0000 C   0  0  0  0  0  0  0  0  0  0  0  0
    1.7269   -3.0056    0.0000 C   0  0  0  0  0  0  0  0  0  0  0  0
    1.7236   -2.0004    0.0000 C   0  0  0  0  0  0  0  0  0  0  0  0
    3.4805   -0.0073    0.0000 C   0  0  0  0  0  0  0  0  0  0  0  0
    5.2168    0.9922    0.0000 O   0  0  0  0  0  0  0  0  0  0  0  0
  1  2  1  0  0  0  0
  2  3  1  0  0  0  0
  3  4  1  0  0  0  0
  4 26  1  0  0  0  0
  4  5  1  0  0  0  0
  5  6  1  0  0  0  0
  6 18  2  0  0  0  0
  6  7  1  0  0  0  0
  7  8  2  0  0  0  0
  8  9  1  0  0  0  0
  9 10  2  0  0  0  0
 10 11  1  0  0  0  0
 11 12  1  0  0  0  0
 12 13  1  0  0  0  0
 12 14  1  0  0  0  0
 14 15  1  0  0  0  0
 14 16  1  0  0  0  0
 11 17  2  0  0  0  0
 10 18  1  0  0  0  0
  7 19  1  0  0  0  0
 19 20  1  0  0  0  0
 20 25  2  0  0  0  0
 20 21  1  0  0  0  0
 21 22  2  0  0  0  0
 22 23  1  0  0  0  0
 23 24  2  0  0  0  0
 24 25  1  0  0  0  0
 19 26  1  0  0  0  0
  3 27  2  0  0  0  0
M  END
$$$$
SAL-INS-1c7-2
  -OEChem-03222016562D

 29 32  0     1  0  0  0  0  0999 V2000
    5.2275    2.9921    0.0000 Cl  0  0  0  0  0  0  0  0  0  0  0  0
    4.3588    2.4968    0.0000 C   0  0  0  0  0  0  0  0  0  0  0  0
    4.3535    1.4968    0.0000 C   0  0  0  0  0  0  0  0  0  0  0  0
    5.2168    0.9922    0.0000 O   0  0  0  0  0  0  0  0  0  0  0  0
    3.4848    1.0014    0.0000 N   0  0  0  0  0  0  0  0  0  0  0  0
    3.4805   -0.0073    0.0000 C   0  0  0  0  0  0  0  0  0  0  0  0
    2.6039   -0.5053    0.0000 C   0  0  3  0  0  0  0  0  0  0  0  0
    2.5983   -1.5053    0.0000 C   0  0  0  0  0  0  0  0  0  0  0  0
    3.4675   -2.0102    0.0000 C   0  0  0  0  0  0  0  0  0  0  0  0
    3.4620   -3.0102    0.0000 C   0  0  0  0  0  0  0  0  0  0  0  0
    2.5961   -3.5104    0.0000 C   0  0  0  0  0  0  0  0  0  0  0  0
    1.7269   -3.0056    0.0000 C   0  0  0  0  0  0  0  0  0  0  0  0
    1.7236   -2.0004    0.0000 C   0  0  0  0  0  0  0  0  0  0  0  0
    1.7371   -0.0000    0.0000 C   0  0  0  0  0  0  0  0  0  0  0  0
    0.8707   -0.4993    0.0000 C   0  0  0  0  0  0  0  0  0  0  0  0
    0.0000    0.0000    0.0000 C   0  0  0  0  0  0  0  0  0  0  0  0
    0.0000    1.0089    0.0000 C   0  0  0  0  0  0  0  0  0  0  0  0
    0.8707    1.5185    0.0000 C   0  0  0  0  0  0  0  0  0  0  0  0
    1.7414    1.0089    0.0000 C   0  0  0  0  0  0  0  0  0  0  0  0
    2.6125    1.5125    0.0000 C   0  0  0  0  0  0  0  0  0  0  0  0
   -0.8675    1.5063    0.0000 C   0  0  0  0  0  0  0  0  0  0  0  0
   -0.8705    2.5063    0.0000 O   0  0  0  0  0  0  0  0  0  0  0  0
   -1.7320    1.0038    0.0000 N   0  0  0  0  0  0  0  0  0  0  0  0
   -2.5995    1.5012    0.0000 C   0  0  0  0  0  0  0  0  0  0  0  0
   -3.5110    1.0888    0.0000 N   0  0  0  0  0  0  0  0  0  0  0  0
   -4.1848    1.8340    0.0000 C   0  0  0  0  0  0  0  0  0  0  0  0
   -3.6841    2.7015    0.0000 N   0  0  0  0  0  0  0  0  0  0  0  0
   -2.7039    2.4958    0.0000 C   0  0  0  0  0  0  0  0  0  0  0  0
   -1.7291    0.0038    0.0000 C   0  0  0  0  0  0  0  0  0  0  0  0
  1  2  1  0  0  0  0
  2  3  1  0  0  0  0
  3  4  2  0  0  0  0
  3  5  1  0  0  0  0
  5 20  1  0  0  0  0
  5  6  1  0  0  0  0
  6  7  1  0  0  0  0
  7  8  1  0  0  0  0
  8 13  2  0  0  0  0
  8  9  1  0  0  0  0
  9 10  2  0  0  0  0
 10 11  1  0  0  0  0
 11 12  2  0  0  0  0
 12 13  1  0  0  0  0
  7 14  1  0  0  0  0
 14 19  2  0  0  0  0
 14 15  1  0  0  0  0
 15 16  2  0  0  0  0
 16 17  1  0  0  0  0
 17 18  2  0  0  0  0
 18 19  1  0  0  0  0
 19 20  1  0  0  0  0
 17 21  1  0  0  0  0
 21 22  2  0  0  0  0
 21 23  1  0  0  0  0
 23 24  1  0  0  0  0
 24 28  2  0  0  0  0
 24 25  1  0  0  0  0
 25 26  2  0  0  0  0
 26 27  1  0  0  0  0
 27 28  1  0  0  0  0
 23 29  1  0  0  0  0
M  END
$$$$
SAL-INS-1c7-3
  -OEChem-03222016562D

 26 28  0     1  0  0  0  0  0999 V2000
    5.2275    2.9921    0.0000 Cl  0  0  0  0  0  0  0  0  0  0  0  0
    4.3588    2.4968    0.0000 C   0  0  0  0  0  0  0  0  0  0  0  0
    4.3535    1.4968    0.0000 C   0  0  0  0  0  0  0  0  0  0  0  0
    5.2168    0.9922    0.0000 O   0  0  0  0  0  0  0  0  0  0  0  0
    3.4848    1.0014    0.0000 N   0  0  0  0  0  0  0  0  0  0  0  0
    3.4805   -0.0073    0.0000 C   0  0  0  0  0  0  0  0  0  0  0  0
    2.6039   -0.5053    0.0000 C   0  0  3  0  0  0  0  0  0  0  0  0
    2.5983   -1.5053    0.0000 C   0  0  0  0  0  0  0  0  0  0  0  0
    1.7842   -2.0861    0.0000 C   0  0  0  0  0  0  0  0  0  0  0  0
    2.0880   -3.0404    0.0000 N   0  0  0  0  0  0  0  0  0  0  0  0
    3.0896   -3.0488    0.0000 C   0  0  0  0  0  0  0  0  0  0  0  0
    3.4062   -2.0953    0.0000 N   0  0  0  0  0  0  0  0  0  0  0  0
    1.7371   -0.0000    0.0000 C   0  0  0  0  0  0  0  0  0  0  0  0
    0.8707   -0.4993    0.0000 C   0  0  0  0  0  0  0  0  0  0  0  0
    0.0000    0.0000    0.0000 C   0  0  0  0  0  0  0  0  0  0  0  0
    0.0000    1.0089    0.0000 C   0  0  0  0  0  0  0  0  0  0  0  0
    0.8707    1.5185    0.0000 C   0  0  0  0  0  0  0  0  0  0  0  0
    1.7414    1.0089    0.0000 C   0  0  0  0  0  0  0  0  0  0  0  0
    2.6125    1.5125    0.0000 C   0  0  0  0  0  0  0  0  0  0  0  0
   -0.8675    1.5063    0.0000 C   0  0  0  0  0  0  0  0  0  0  0  0
   -0.8705    2.5063    0.0000 O   0  0  0  0  0  0  0  0  0  0  0  0
   -1.7320    1.0038    0.0000 N   0  0  0  0  0  0  0  0  0  0  0  0
   -2.5995    1.5012    0.0000 C   0  0  0  0  0  0  0  0  0  0  0  0
   -3.4641    0.9986    0.0000 C   0  0  0  0  0  0  0  0  0  0  0  0
   -2.6025    2.5012    0.0000 C   0  0  0  0  0  0  0  0  0  0  0  0
   -1.7291    0.0038    0.0000 C   0  0  0  0  0  0  0  0  0  0  0  0
  1  2  1  0  0  0  0
  2  3  1  0  0  0  0
  3  4  2  0  0  0  0
  3  5  1  0  0  0  0
  5 19  1  0  0  0  0
  5  6  1  0  0  0  0
  6  7  1  0  0  0  0
  7  8  1  0  0  0  0
  8 12  1  0  0  0  0
  8  9  2  0  0  0  0
  9 10  1  0  0  0  0
 10 11  1  0  0  0  0
 11 12  2  0  0  0  0
  7 13  1  0  0  0  0
 13 18  2  0  0  0  0
 13 14  1  0  0  0  0
 14 15  2  0  0  0  0
 15 16  1  0  0  0  0
 16 17  2  0  0  0  0
 17 18  1  0  0  0  0
 18 19  1  0  0  0  0
 16 20  1  0  0  0  0
 20 21  2  0  0  0  0
 20 22  1  0  0  0  0
 22 23  1  0  0  0  0
 23 24  1  0  0  0  0
 23 25  1  0  0  0  0
 22 26  1  0  0  0  0
M  END
$$$$
SAL-INS-1c7-4
  -OEChem-03222016562D

 28 31  0     1  0  0  0  0  0999 V2000
    5.2275    2.9921    0.0000 Cl  0  0  0  0  0  0  0  0  0  0  0  0
    4.3588    2.4968    0.0000 C   0  0  0  0  0  0  0  0  0  0  0  0
    4.3535    1.4968    0.0000 C   0  0  0  0  0  0  0  0  0  0  0  0
    3.4848    1.0014    0.0000 N   0  0  0  0  0  0  0  0  0  0  0  0
    2.6125    1.5125    0.0000 C   0  0  0  0  0  0  0  0  0  0  0  0
    1.7414    1.0089    0.0000 C   0  0  0  0  0  0  0  0  0  0  0  0
    1.7371   -0.0000    0.0000 C   0  0  0  0  0  0  0  0  0  0  0  0
    0.8707   -0.4993    0.0000 C   0  0  0  0  0  0  0  0  0  0  0  0
    0.0000    0.0000    0.0000 C   0  0  0  0  0  0  0  0  0  0  0  0
    0.0000    1.0089    0.0000 C   0  0  0  0  0  0  0  0  0  0  0  0
   -0.8675    1.5063    0.0000 C   0  0  0  0  0  0  0  0  0  0  0  0
   -1.7320    1.0038    0.0000 N   0  0  0  0  0  0  0  0  0  0  0  0
   -1.7291    0.0038    0.0000 C   0  0  0  0  0  0  0  0  0  0  0  0
   -2.5995    1.5012    0.0000 C   0  0  0  0  0  0  0  0  0  0  0  0
   -2.7039    2.4958    0.0000 C   0  0  0  0  0  0  0  0  0  0  0  0
   -3.6841    2.7015    0.0000 N   0  0  0  0  0  0  0  0  0  0  0  0
   -4.1848    1.8340    0.0000 C   0  0  0  0  0  0  0  0  0  0  0  0
   -3.5110    1.0888    0.0000 N   0  0  0  0  0  0  0  0  0  0  0  0
   -0.8705    2.5063    0.0000 O   0  0  0  0  0  0  0  0  0  0  0  0
    0.8707    1.5185    0.0000 C   0  0  0  0  0  0  0  0  0  0  0  0
    2.6039   -0.5053    0.0000 C   0  0  3  0  0  0  0  0  0  0  0  0
    2.5983   -1.5053    0.0000 C   0  0  0  0  0  0  0  0  0  0  0  0
    1.7842   -2.0861    0.0000 C   0  0  0  0  0  0  0  0  0  0  0  0
    2.0880   -3.0404    0.0000 N   0  0  0  0  0  0  0  0  0  0  0  0
    3.0896   -3.0488    0.0000 C   0  0  0  0  0  0  0  0  0  0  0  0
    3.4062   -2.0953    0.0000 N   0  0  0  0  0  0  0  0  0  0  0  0
    3.4805   -0.0073    0.0000 C   0  0  0  0  0  0  0  0  0  0  0  0
    5.2168    0.9922    0.0000 O   0  0  0  0  0  0  0  0  0  0  0  0
  1  2  1  0  0  0  0
  2  3  1  0  0  0  0
  3  4  1  0  0  0  0
  4 27  1  0  0  0  0
  4  5  1  0  0  0  0
  5  6  1  0  0  0  0
  6 20  2  0  0  0  0
  6  7  1  0  0  0  0
  7  8  2  0  0  0  0
  8  9  1  0  0  0  0
  9 10  2  0  0  0  0
 10 11  1  0  0  0  0
 11 12  1  0  0  0  0
 12 13  1  0  0  0  0
 12 14  1  0  0  0  0
 14 18  1  0  0  0  0
 14 15  2  0  0  0  0
 15 16  1  0  0  0  0
 16 17  1  0  0  0  0
 17 18  2  0  0  0  0
 11 19  2  0  0  0  0
 10 20  1  0  0  0  0
  7 21  1  0  0  0  0
 21 22  1  0  0  0  0
 22 26  1  0  0  0  0
 22 23  2  0  0  0  0
 23 24  1  0  0  0  0
 24 25  1  0  0  0  0
 25 26  2  0  0  0  0
 21 27  1  0  0  0  0
  3 28  2  0  0  0  0
M  END
$$$$
SAL-INS-1c7-5
  -OEChem-03222016562D

 27 30  0     1  0  0  0  0  0999 V2000
    6.9670    2.9838    0.0000 Cl  0  0  0  0  0  0  0  0  0  0  0  0
    6.0982    2.4886    0.0000 C   0  0  0  0  0  0  0  0  0  0  0  0
    6.0926    1.4886    0.0000 C   0  0  0  0  0  0  0  0  0  0  0  0
    5.2238    0.9935    0.0000 N   0  0  0  0  0  0  0  0  0  0  0  0
    4.3538    1.5034    0.0000 C   0  0  0  0  0  0  0  0  0  0  0  0
    3.4848    1.0015    0.0000 C   0  0  0  0  0  0  0  0  0  0  0  0
    3.4802   -0.0049    0.0000 C   0  0  0  0  0  0  0  0  0  0  0  0
    2.6040   -0.5053    0.0000 C   0  0  0  0  0  0  0  0  0  0  0  0
    1.7372    0.0000    0.0000 C   0  0  0  0  0  0  0  0  0  0  0  0
    0.8707   -0.4993    0.0000 C   0  0  0  0  0  0  0  0  0  0  0  0
    0.0000    0.0000    0.0000 C   0  0  0  0  0  0  0  0  0  0  0  0
   -0.0000    1.0089    0.0000 C   0  0  0  0  0  0  0  0  0  0  0  0
    0.8707    1.5184    0.0000 C   0  0  0  0  0  0  0  0  0  0  0  0
    0.8707    2.5184    0.0000 N   0  3  0  0  0  0  0  0  0  0  0  0
    0.0047    3.0184    0.0000 O   0  5  0  0  0  0  0  0  0  0  0  0
    1.7367    3.0184    0.0000 O   0  0  0  0  0  0  0  0  0  0  0  0
    1.7414    1.0089    0.0000 C   0  0  0  0  0  0  0  0  0  0  0  0
    2.6125    1.5125    0.0000 C   0  0  0  0  0  0  0  0  0  0  0  0
    4.3445   -0.5092    0.0000 C   0  0  3  0  0  0  0  0  0  0  0  0
    4.3385   -1.5092    0.0000 C   0  0  0  0  0  0  0  0  0  0  0  0
    5.2075   -2.0144    0.0000 C   0  0  0  0  0  0  0  0  0  0  0  0
    5.2015   -3.0145    0.0000 C   0  0  0  0  0  0  0  0  0  0  0  0
    4.3354   -3.5143    0.0000 C   0  0  0  0  0  0  0  0  0  0  0  0
    3.4664   -3.0091    0.0000 C   0  0  0  0  0  0  0  0  0  0  0  0
    3.4635   -2.0039    0.0000 C   0  0  0  0  0  0  0  0  0  0  0  0
    5.2191   -0.0129    0.0000 C   0  0  0  0  0  0  0  0  0  0  0  0
    6.9558    0.9838    0.0000 O   0  0  0  0  0  0  0  0  0  0  0  0
  1  2  1  0  0  0  0
  2  3  1  0  0  0  0
  3  4  1  0  0  0  0
  4 26  1  0  0  0  0
  4  5  1  0  0  0  0
  5  6  1  0  0  0  0
  6 18  2  0  0  0  0
  6  7  1  0  0  0  0
  7  8  2  0  0  0  0
  8  9  1  0  0  0  0
  9 17  1  0  0  0  0
  9 10  2  0  0  0  0
 10 11  1  0  0  0  0
 11 12  2  0  0  0  0
 12 13  1  0  0  0  0
 13 14  1  0  0  0  0
 14 15  1  0  0  0  0
 14 16  2  0  0  0  0
 13 17  2  0  0  0  0
 17 18  1  0  0  0  0
  7 19  1  0  0  0  0
 19 20  1  0  0  0  0
 20 25  2  0  0  0  0
 20 21  1  0  0  0  0
 21 22  2  0  0  0  0
 22 23  1  0  0  0  0
 23 24  2  0  0  0  0
 24 25  1  0  0  0  0
 19 26  1  0  0  0  0
  3 27  2  0  0  0  0
M  CHG  2  14   1  15  -1
M  END
$$$$
SAL-INS-1c7-6
  -OEChem-03222016562D

 26 29  0     1  0  0  0  0  0999 V2000
    6.9670    2.9838    0.0000 Cl  0  0  0  0  0  0  0  0  0  0  0  0
    6.0982    2.4886    0.0000 C   0  0  0  0  0  0  0  0  0  0  0  0
    6.0926    1.4886    0.0000 C   0  0  0  0  0  0  0  0  0  0  0  0
    6.9558    0.9838    0.0000 O   0  0  0  0  0  0  0  0  0  0  0  0
    5.2238    0.9935    0.0000 N   0  0  0  0  0  0  0  0  0  0  0  0
    5.2191   -0.0129    0.0000 C   0  0  0  0  0  0  0  0  0  0  0  0
    4.3445   -0.5092    0.0000 C   0  0  3  0  0  0  0  0  0  0  0  0
    4.3385   -1.5092    0.0000 C   0  0  0  0  0  0  0  0  0  0  0  0
    3.5241   -2.0896    0.0000 C   0  0  0  0  0  0  0  0  0  0  0  0
    3.8275   -3.0441    0.0000 N   0  0  0  0  0  0  0  0  0  0  0  0
    4.8291   -3.0529    0.0000 C   0  0  0  0  0  0  0  0  0  0  0  0
    5.1461   -2.0996    0.0000 N   0  0  0  0  0  0  0  0  0  0  0  0
    3.4802   -0.0049    0.0000 C   0  0  0  0  0  0  0  0  0  0  0  0
    2.6040   -0.5053    0.0000 C   0  0  0  0  0  0  0  0  0  0  0  0
    1.7372    0.0000    0.0000 C   0  0  0  0  0  0  0  0  0  0  0  0
    1.7414    1.0089    0.0000 C   0  0  0  0  0  0  0  0  0  0  0  0
    2.6125    1.5125    0.0000 C   0  0  0  0  0  0  0  0  0  0  0  0
    3.4848    1.0015    0.0000 C   0  0  0  0  0  0  0  0  0  0  0  0
    4.3538    1.5034    0.0000 C   0  0  0  0  0  0  0  0  0  0  0  0
    0.8707    1.5184    0.0000 C   0  0  0  0  0  0  0  0  0  0  0  0
    0.8707    2.5184    0.0000 N   0  3  0  0  0  0  0  0  0  0  0  0
    1.7367    3.0184    0.0000 O   0  0  0  0  0  0  0  0  0  0  0  0
    0.0047    3.0184    0.0000 O   0  5  0  0  0  0  0  0  0  0  0  0
    0.0000    1.0089    0.0000 C   0  0  0  0  0  0  0  0  0  0  0  0
    0.0000    0.0000    0.0000 C   0  0  0  0  0  0  0  0  0  0  0  0
    0.8707   -0.4993    0.0000 C   0  0  0  0  0  0  0  0  0  0  0  0
  1  2  1  0  0  0  0
  2  3  1  0  0  0  0
  3  4  2  0  0  0  0
  3  5  1  0  0  0  0
  5 19  1  0  0  0  0
  5  6  1  0  0  0  0
  6  7  1  0  0  0  0
  7  8  1  0  0  0  0
  8 12  1  0  0  0  0
  8  9  2  0  0  0  0
  9 10  1  0  0  0  0
 10 11  1  0  0  0  0
 11 12  2  0  0  0  0
  7 13  1  0  0  0  0
 13 18  2  0  0  0  0
 13 14  1  0  0  0  0
 14 15  2  0  0  0  0
 15 26  1  0  0  0  0
 15 16  1  0  0  0  0
 16 17  2  0  0  0  0
 17 18  1  0  0  0  0
 18 19  1  0  0  0  0
 16 20  1  0  0  0  0
 20 21  1  0  0  0  0
 21 22  2  0  0  0  0
 21 23  1  0  0  0  0
 20 24  2  0  0  0  0
 24 25  1  0  0  0  0
 25 26  2  0  0  0  0
M  CHG  2  21   1  23  -1
M  END
$$$$
SAL-INS-1c7-7
  -OEChem-03222016562D

 26 28  0     1  0  0  0  0  0999 V2000
    4.5710   -0.4001    0.0000 C   0  0  0  0  0  0  0  0  0  0  0  0
    3.5759   -0.4990    0.0000 C   0  0  0  0  0  0  0  0  0  0  0  0
    2.9920    0.3192    0.0000 C   0  0  0  0  0  0  0  0  0  0  0  0
    1.9927    0.2108    0.0000 C   0  0  0  0  0  0  0  0  0  0  0  0
    1.4047    1.0197    0.0000 C   0  0  0  0  0  0  0  0  0  0  0  0
    1.8112    1.9333    0.0000 C   0  0  0  0  0  0  0  0  0  0  0  0
    2.8111    2.0358    0.0000 C   0  0  0  0  0  0  0  0  0  0  0  0
    3.2176    2.9495    0.0000 C   0  0  0  0  0  0  0  0  0  0  0  0
    2.6343    3.7617    0.0000 C   0  0  0  0  0  0  0  0  0  0  0  0
    1.6344    3.6593    0.0000 C   0  0  0  0  0  0  0  0  0  0  0  0
    1.2177    2.7446    0.0000 C   0  0  0  0  0  0  0  0  0  0  0  0
    1.5815   -0.7064    0.0000 C   0  0  0  0  0  0  0  0  0  0  0  0
    0.5868   -0.8097    0.0000 N   0  0  0  0  0  0  0  0  0  0  0  0
    0.1790   -1.7228    0.0000 C   0  0  0  0  0  0  0  0  0  0  0  0
    0.7658   -2.5325    0.0000 C   0  0  0  0  0  0  0  0  0  0  0  0
    0.3580   -3.4456    0.0000 Cl  0  0  0  0  0  0  0  0  0  0  0  0
   -0.8156   -1.8261    0.0000 O   0  0  0  0  0  0  0  0  0  0  0  0
    0.0000    0.0000    0.0000 C   0  0  3  0  0  0  0  0  0  0  0  0
   -1.0015    0.0000    0.0000 C   0  0  0  0  0  0  0  0  0  0  0  0
   -1.3080    0.9519    0.0000 C   0  0  0  0  0  0  0  0  0  0  0  0
   -0.5007    1.5428    0.0000 S   0  0  0  0  0  0  0  0  0  0  0  0
   -1.1715    2.2845    0.0000 O   0  0  0  0  0  0  0  0  0  0  0  0
    0.1678    2.2865    0.0000 O   0  0  0  0  0  0  0  0  0  0  0  0
    0.3118    0.9519    0.0000 C   0  0  0  0  0  0  0  0  0  0  0  0
    2.1695   -1.5153    0.0000 C   0  0  0  0  0  0  0  0  0  0  0  0
    3.1646   -1.4162    0.0000 C   0  0  0  0  0  0  0  0  0  0  0  0
  1  2  1  0  0  0  0
  2 26  2  0  0  0  0
  2  3  1  0  0  0  0
  3  4  2  0  0  0  0
  4  5  1  0  0  0  0
  5  6  1  0  0  0  0
  6 11  1  0  0  0  0
  6  7  2  0  0  0  0
  7  8  1  0  0  0  0
  8  9  2  0  0  0  0
  9 10  1  0  0  0  0
 10 11  2  0  0  0  0
  4 12  1  0  0  0  0
 12 13  1  0  0  0  0
 13 14  1  0  0  0  0
 14 15  1  0  0  0  0
 15 16  1  0  0  0  0
 14 17  2  0  0  0  0
 13 18  1  0  0  0  0
 18 24  1  0  0  0  0
 18 19  1  0  0  0  0
 19 20  2  0  0  0  0
 20 21  1  0  0  0  0
 21 22  2  0  0  0  0
 21 23  2  0  0  0  0
 21 24  1  0  0  0  0
 12 25  2  0  0  0  0
 25 26  1  0  0  0  0
M  END
$$$$
SAL-INS-1c7-8
  -OEChem-03222016562D

 26 28  0     1  0  0  0  0  0999 V2000
   -1.0427   -4.4684    0.0000 F   0  0  0  0  0  0  0  0  0  0  0  0
   -0.6389   -3.5536    0.0000 C   0  0  0  0  0  0  0  0  0  0  0  0
    0.3608   -3.4482    0.0000 C   0  0  0  0  0  0  0  0  0  0  0  0
    0.7647   -2.5334    0.0000 C   0  0  0  0  0  0  0  0  0  0  0  0
    0.1790   -1.7228    0.0000 C   0  0  0  0  0  0  0  0  0  0  0  0
    0.5868   -0.8097    0.0000 N   0  0  0  0  0  0  0  0  0  0  0  0
    0.0000    0.0000    0.0000 C   0  0  3  0  0  0  0  0  0  0  0  0
    0.3118    0.9519    0.0000 C   0  0  0  0  0  0  0  0  0  0  0  0
   -0.5007    1.5428    0.0000 S   0  0  0  0  0  0  0  0  0  0  0  0
   -1.1715    2.2845    0.0000 O   0  0  0  0  0  0  0  0  0  0  0  0
    0.1678    2.2865    0.0000 O   0  0  0  0  0  0  0  0  0  0  0  0
   -1.3080    0.9519    0.0000 C   0  0  0  0  0  0  0  0  0  0  0  0
   -1.0015    0.0000    0.0000 C   0  0  0  0  0  0  0  0  0  0  0  0
    1.5815   -0.7064    0.0000 C   0  0  0  0  0  0  0  0  0  0  0  0
    2.1683   -1.5161    0.0000 O   0  0  0  0  0  0  0  0  0  0  0  0
    1.9893    0.2067    0.0000 C   0  0  0  0  0  0  0  0  0  0  0  0
    2.9839    0.3100    0.0000 Cl  0  0  0  0  0  0  0  0  0  0  0  0
   -0.8207   -1.8281    0.0000 C   0  0  0  0  0  0  0  0  0  0  0  0
   -1.4063   -1.0175    0.0000 C   0  0  0  0  0  0  0  0  0  0  0  0
   -2.4011   -1.1194    0.0000 C   0  0  0  0  0  0  0  0  0  0  0  0
   -2.8097   -2.0378    0.0000 C   0  0  0  0  0  0  0  0  0  0  0  0
   -3.8045   -2.1397    0.0000 C   0  0  0  0  0  0  0  0  0  0  0  0
   -4.3949   -1.3325    0.0000 C   0  0  0  0  0  0  0  0  0  0  0  0
   -3.9863   -0.4141    0.0000 C   0  0  0  0  0  0  0  0  0  0  0  0
   -2.9873   -0.3029    0.0000 C   0  0  0  0  0  0  0  0  0  0  0  0
   -1.2347   -2.7440    0.0000 C   0  0  0  0  0  0  0  0  0  0  0  0
  1  2  1  0  0  0  0
  2 26  2  0  0  0  0
  2  3  1  0  0  0  0
  3  4  2  0  0  0  0
  4  5  1  0  0  0  0
  5  6  1  0  0  0  0
  6  7  1  0  0  0  0
  7 13  1  0  0  0  0
  7  8  1  0  0  0  0
  8  9  1  0  0  0  0
  9 10  2  0  0  0  0
  9 11  2  0  0  0  0
  9 12  1  0  0  0  0
 12 13  2  0  0  0  0
  6 14  1  0  0  0  0
 14 15  2  0  0  0  0
 14 16  1  0  0  0  0
 16 17  1  0  0  0  0
  5 18  2  0  0  0  0
 18 19  1  0  0  0  0
 19 20  1  0  0  0  0
 20 25  2  0  0  0  0
 20 21  1  0  0  0  0
 21 22  2  0  0  0  0
 22 23  1  0  0  0  0
 23 24  2  0  0  0  0
 24 25  1  0  0  0  0
 18 26  1  0  0  0  0
M  END
$$$$
SAL-INS-1c7-9
  -OEChem-03222016562D

 25 27  0     1  0  0  0  0  0999 V2000
    0.1099    3.6124    0.0000 C   0  0  0  0  0  0  0  0  0  0  0  0
   -0.6290    2.9385    0.0000 C   0  0  0  0  0  0  0  0  0  0  0  0
   -1.5860    3.2459    0.0000 C   0  0  0  0  0  0  0  0  0  0  0  0
   -2.3250    2.5721    0.0000 C   0  0  0  0  0  0  0  0  0  0  0  0
   -2.1166    1.5940    0.0000 C   0  0  0  0  0  0  0  0  0  0  0  0
   -2.8584    0.9235    0.0000 N   0  0  0  0  0  0  0  0  0  0  0  0
   -2.6486   -0.0543    0.0000 C   0  0  3  0  0  0  0  0  0  0  0  0
   -3.3183   -0.7992    0.0000 C   0  0  0  0  0  0  0  0  0  0  0  0
   -2.8137   -1.6679    0.0000 S   0  0  0  0  0  0  0  0  0  0  0  0
   -2.4996   -2.6173    0.0000 O   0  0  0  0  0  0  0  0  0  0  0  0
   -3.7256   -2.0782    0.0000 O   0  0  0  0  0  0  0  0  0  0  0  0
   -1.8365   -1.4534    0.0000 C   0  0  0  0  0  0  0  0  0  0  0  0
   -1.7324   -0.4588    0.0000 C   0  0  0  0  0  0  0  0  0  0  0  0
   -3.8101    1.2306    0.0000 C   0  0  0  0  0  0  0  0  0  0  0  0
   -4.0199    2.2084    0.0000 O   0  0  0  0  0  0  0  0  0  0  0  0
   -4.5519    0.5601    0.0000 C   0  0  0  0  0  0  0  0  0  0  0  0
   -5.5036    0.8673    0.0000 Cl  0  0  0  0  0  0  0  0  0  0  0  0
   -1.1595    1.2867    0.0000 C   0  0  0  0  0  0  0  0  0  0  0  0
   -0.9512    0.3086    0.0000 C   0  0  0  0  0  0  0  0  0  0  0  0
    0.0000    0.0000    0.0000 C   0  0  0  0  0  0  0  0  0  0  0  0
    0.8073    0.5909    0.0000 N   0  0  0  0  0  0  0  0  0  0  0  0
    1.6198   -0.0000    0.0000 C   0  0  0  0  0  0  0  0  0  0  0  0
    1.3080   -0.9519    0.0000 N   0  0  0  0  0  0  0  0  0  0  0  0
    0.3065   -0.9519    0.0000 C   0  0  0  0  0  0  0  0  0  0  0  0
   -0.4109    1.9574    0.0000 C   0  0  0  0  0  0  0  0  0  0  0  0
  1  2  1  0  0  0  0
  2 25  2  0  0  0  0
  2  3  1  0  0  0  0
  3  4  2  0  0  0  0
  4  5  1  0  0  0  0
  5  6  1  0  0  0  0
  6  7  1  0  0  0  0
  7 13  1  0  0  0  0
  7  8  1  0  0  0  0
  8  9  1  0  0  0  0
  9 10  2  0  0  0  0
  9 11  2  0  0  0  0
  9 12  1  0  0  0  0
 12 13  2  0  0  0  0
  6 14  1  0  0  0  0
 14 15  2  0  0  0  0
 14 16  1  0  0  0  0
 16 17  1  0  0  0  0
  5 18  2  0  0  0  0
 18 19  1  0  0  0  0
 19 20  1  0  0  0  0
 20 24  2  0  0  0  0
 20 21  1  0  0  0  0
 21 22  2  0  0  0  0
 22 23  1  0  0  0  0
 23 24  1  0  0  0  0
 18 25  1  0  0  0  0
M  END
$$$$
SAL-INS-1c7-10
  -OEChem-03222016562D

 25 27  0     1  0  0  0  0  0999 V2000
    0.1099    3.6124    0.0000 F   0  0  0  0  0  0  0  0  0  0  0  0
   -0.6290    2.9385    0.0000 C   0  0  0  0  0  0  0  0  0  0  0  0
   -0.4109    1.9574    0.0000 C   0  0  0  0  0  0  0  0  0  0  0  0
   -1.1595    1.2867    0.0000 C   0  0  0  0  0  0  0  0  0  0  0  0
   -0.9512    0.3086    0.0000 C   0  0  0  0  0  0  0  0  0  0  0  0
    0.0000    0.0000    0.0000 C   0  0  0  0  0  0  0  0  0  0  0  0
    0.3065   -0.9519    0.0000 C   0  0  0  0  0  0  0  0  0  0  0  0
    1.3080   -0.9519    0.0000 N   0  0  0  0  0  0  0  0  0  0  0  0
    1.6198   -0.0000    0.0000 C   0  0  0  0  0  0  0  0  0  0  0  0
    0.8073    0.5909    0.0000 N   0  0  0  0  0  0  0  0  0  0  0  0
   -2.1166    1.5940    0.0000 C   0  0  0  0  0  0  0  0  0  0  0  0
   -2.8584    0.9235    0.0000 N   0  0  0  0  0  0  0  0  0  0  0  0
   -3.8101    1.2307    0.0000 C   0  0  0  0  0  0  0  0  0  0  0  0
   -4.0199    2.2084    0.0000 C   0  0  0  0  0  0  0  0  0  0  0  0
   -4.9715    2.5156    0.0000 Cl  0  0  0  0  0  0  0  0  0  0  0  0
   -4.5519    0.5601    0.0000 O   0  0  0  0  0  0  0  0  0  0  0  0
   -2.6486   -0.0543    0.0000 C   0  0  3  0  0  0  0  0  0  0  0  0
   -3.3182   -0.7990    0.0000 C   0  0  0  0  0  0  0  0  0  0  0  0
   -2.8153   -1.6634    0.0000 C   0  0  0  0  0  0  0  0  0  0  0  0
   -1.8361   -1.4581    0.0000 S   0  0  0  0  0  0  0  0  0  0  0  0
   -1.7330   -2.4528    0.0000 O   0  0  0  0  0  0  0  0  0  0  0  0
   -0.8361   -1.4582    0.0000 O   0  0  0  0  0  0  0  0  0  0  0  0
   -1.7323   -0.4588    0.0000 C   0  0  0  0  0  0  0  0  0  0  0  0
   -2.3250    2.5721    0.0000 C   0  0  0  0  0  0  0  0  0  0  0  0
   -1.5860    3.2459    0.0000 C   0  0  0  0  0  0  0  0  0  0  0  0
  1  2  1  0  0  0  0
  2 25  2  0  0  0  0
  2  3  1  0  0  0  0
  3  4  2  0  0  0  0
  4  5  1  0  0  0  0
  5  6  1  0  0  0  0
  6 10  1  0  0  0  0
  6  7  2  0  0  0  0
  7  8  1  0  0  0  0
  8  9  1  0  0  0  0
  9 10  2  0  0  0  0
  4 11  1  0  0  0  0
 11 12  1  0  0  0  0
 12 13  1  0  0  0  0
 13 14  1  0  0  0  0
 14 15  1  0  0  0  0
 13 16  2  0  0  0  0
 12 17  1  0  0  0  0
 17 23  1  0  0  0  0
 17 18  1  0  0  0  0
 18 19  2  0  0  0  0
 19 20  1  0  0  0  0
 20 21  2  0  0  0  0
 20 22  2  0  0  0  0
 20 23  1  0  0  0  0
 11 24  2  0  0  0  0
 24 25  1  0  0  0  0
M  END
$$$$
SAL-INS-1c7-11
  -OEChem-03222016562D

 23 25  0     1  0  0  0  0  0999 V2000
    1.7335   -4.0027    0.0000 Cl  0  0  0  0  0  0  0  0  0  0  0  0
    1.7335   -3.0027    0.0000 C   0  0  0  0  0  0  0  0  0  0  0  0
    0.8675   -2.5027    0.0000 C   0  0  0  0  0  0  0  0  0  0  0  0
    0.8675   -1.5027    0.0000 N   0  0  0  0  0  0  0  0  0  0  0  0
    0.0000   -1.0052    0.0000 C   0  0  0  0  0  0  0  0  0  0  0  0
    0.0000    0.0000    0.0000 C   0  0  0  0  0  0  0  0  0  0  0  0
    0.8675    0.5077    0.0000 N   0  0  3  0  0  0  0  0  0  0  0  0
    0.8675    1.5077    0.0000 C   0  0  0  0  0  0  0  0  0  0  0  0
    0.0015    2.0077    0.0000 C   0  0  0  0  0  0  0  0  0  0  0  0
   -0.1045    3.0067    0.0000 S   0  0  0  0  0  0  0  0  0  0  0  0
   -1.0841    3.2099    0.0000 C   0  0  0  0  0  0  0  0  0  0  0  0
   -1.4925    4.1227    0.0000 Br  0  0  0  0  0  0  0  0  0  0  0  0
   -1.5852    2.3445    0.0000 C   0  0  0  0  0  0  0  0  0  0  0  0
   -0.9140    1.6012    0.0000 C   0  0  0  0  0  0  0  0  0  0  0  0
    1.7350   -0.0000    0.0000 C   0  0  3  0  0  0  0  0  0  0  0  0
    2.6025    0.4974    0.0000 C   0  0  0  0  0  0  0  0  0  0  0  0
    2.6025    1.5026    0.0000 C   0  0  0  0  0  0  0  0  0  0  0  0
    3.4700    2.0001    0.0000 C   0  0  0  0  0  0  0  0  0  0  0  0
    4.3375    1.5026    0.0000 C   0  0  0  0  0  0  0  0  0  0  0  0
    4.3375    0.4974    0.0000 C   0  0  0  0  0  0  0  0  0  0  0  0
    3.4700   -0.0103    0.0000 C   0  0  0  0  0  0  0  0  0  0  0  0
    1.7350   -1.0052    0.0000 C   0  0  0  0  0  0  0  0  0  0  0  0
    0.0015   -3.0027    0.0000 O   0  0  0  0  0  0  0  0  0  0  0  0
  1  2  1  0  0  0  0
  2  3  1  0  0  0  0
  3  4  1  0  0  0  0
  4 22  1  0  0  0  0
  4  5  1  0  0  0  0
  5  6  1  0  0  0  0
  6  7  1  0  0  0  0
  7  8  1  0  0  0  0
  8  9  1  0  0  0  0
  9 14  2  0  0  0  0
  9 10  1  0  0  0  0
 10 11  1  0  0  0  0
 11 12  1  0  0  0  0
 11 13  2  0  0  0  0
 13 14  1  0  0  0  0
  7 15  1  0  0  0  0
 15 16  1  0  0  0  0
 16 21  1  0  0  0  0
 16 17  2  0  0  0  0
 17 18  1  0  0  0  0
 18 19  2  0  0  0  0
 19 20  1  0  0  0  0
 20 21  2  0  0  0  0
 15 22  1  0  0  0  0
  3 23  2  0  0  0  0
M  END
$$$$
SAL-INS-1c7-12
  -OEChem-03222016562D

 22 24  0     1  0  0  0  0  0999 V2000
   -0.0015   -4.0027    0.0000 Cl  0  0  0  0  0  0  0  0  0  0  0  0
   -0.0015   -3.0027    0.0000 C   0  0  0  0  0  0  0  0  0  0  0  0
   -0.8675   -2.5027    0.0000 C   0  0  0  0  0  0  0  0  0  0  0  0
   -1.7335   -3.0027    0.0000 O   0  0  0  0  0  0  0  0  0  0  0  0
   -0.8675   -1.5027    0.0000 N   0  0  0  0  0  0  0  0  0  0  0  0
    0.0000   -1.0052    0.0000 C   0  0  0  0  0  0  0  0  0  0  0  0
    0.0000    0.0000    0.0000 C   0  0  3  0  0  0  0  0  0  0  0  0
    0.8675    0.4974    0.0000 C   0  0  0  0  0  0  0  0  0  0  0  0
    0.9719    1.4924    0.0000 N   0  0  0  0  0  0  0  0  0  0  0  0
    1.9554    1.6975    0.0000 C   0  0  0  0  0  0  0  0  0  0  0  0
    2.4512    0.8272    0.0000 N   0  0  0  0  0  0  0  0  0  0  0  0
    1.7786    0.0852    0.0000 C   0  0  0  0  0  0  0  0  0  0  0  0
   -0.8675    0.5077    0.0000 N   0  0  3  0  0  0  0  0  0  0  0  0
   -0.8675    1.5077    0.0000 C   0  0  0  0  0  0  0  0  0  0  0  0
   -1.7335    2.0077    0.0000 C   0  0  0  0  0  0  0  0  0  0  0  0
   -1.8350    3.0026    0.0000 C   0  0  0  0  0  0  0  0  0  0  0  0
   -2.8145    3.2112    0.0000 C   0  0  0  0  0  0  0  0  0  0  0  0
   -3.3178    2.3452    0.0000 C   0  0  0  0  0  0  0  0  0  0  0  0
   -4.3125    2.2425    0.0000 Br  0  0  0  0  0  0  0  0  0  0  0  0
   -2.6462    1.5980    0.0000 S   0  0  0  0  0  0  0  0  0  0  0  0
   -1.7350   -0.0000    0.0000 C   0  0  0  0  0  0  0  0  0  0  0  0
   -1.7350   -1.0052    0.0000 C   0  0  0  0  0  0  0  0  0  0  0  0
  1  2  1  0  0  0  0
  2  3  1  0  0  0  0
  3  4  2  0  0  0  0
  3  5  1  0  0  0  0
  5 22  1  0  0  0  0
  5  6  1  0  0  0  0
  6  7  1  0  0  0  0
  7  8  1  0  0  0  0
  8 12  2  0  0  0  0
  8  9  1  0  0  0  0
  9 10  1  0  0  0  0
 10 11  2  0  0  0  0
 11 12  1  0  0  0  0
  7 13  1  0  0  0  0
 13 14  1  0  0  0  0
 14 15  1  0  0  0  0
 15 20  1  0  0  0  0
 15 16  2  0  0  0  0
 16 17  1  0  0  0  0
 17 18  2  0  0  0  0
 18 19  1  0  0  0  0
 18 20  1  0  0  0  0
 13 21  1  0  0  0  0
 21 22  1  0  0  0  0
M  END
$$$$
ANT-LOU-17a-1
  -OEChem-03222016562D

 24 25  0     0  0  0  0  0  0999 V2000
   -1.7350   -0.0000    0.0000 C   0  0  0  0  0  0  0  0  0  0  0  0
   -0.8675   -0.4975    0.0000 C   0  0  0  0  0  0  0  0  0  0  0  0
   -0.8675   -1.4975    0.0000 O   0  0  0  0  0  0  0  0  0  0  0  0
    0.0000    0.0000    0.0000 C   0  0  0  0  0  0  0  0  0  0  0  0
    0.8653   -0.5013    0.0000 O   0  0  0  0  0  0  0  0  0  0  0  0
   -0.0000    1.0052    0.0000 C   0  0  0  0  0  0  0  0  0  0  0  0
    0.8675    1.5026    0.0000 O   0  0  0  0  0  0  0  0  0  0  0  0
   -0.8675    1.5129    0.0000 C   0  0  0  0  0  0  0  0  0  0  0  0
   -1.7350    1.0052    0.0000 C   0  0  0  0  0  0  0  0  0  0  0  0
   -2.6025    1.5026    0.0000 N   0  0  0  0  0  0  0  0  0  0  0  0
   -3.4670    1.0001    0.0000 C   0  0  0  0  0  0  0  0  0  0  0  0
   -4.3345    1.4975    0.0000 C   0  0  0  0  0  0  0  0  0  0  0  0
   -5.1991    0.9950    0.0000 N   0  0  0  0  0  0  0  0  0  0  0  0
   -6.0666    1.4924    0.0000 C   0  0  0  0  0  0  0  0  0  0  0  0
   -6.0666    2.4976    0.0000 C   0  0  0  0  0  0  0  0  0  0  0  0
   -6.9341    2.9951    0.0000 C   0  0  0  0  0  0  0  0  0  0  0  0
   -6.9341    3.9951    0.0000 O   0  0  0  0  0  0  0  0  0  0  0  0
   -7.8016    2.4976    0.0000 C   0  0  0  0  0  0  0  0  0  0  0  0
   -8.6669    2.9989    0.0000 O   0  0  0  0  0  0  0  0  0  0  0  0
   -7.8016    1.4924    0.0000 C   0  0  0  0  0  0  0  0  0  0  0  0
   -8.6691    0.9950    0.0000 O   0  0  0  0  0  0  0  0  0  0  0  0
   -6.9341    0.9847    0.0000 C   0  0  0  0  0  0  0  0  0  0  0  0
   -4.3375    2.4975    0.0000 O   0  0  0  0  0  0  0  0  0  0  0  0
   -3.4641    0.0001    0.0000 O   0  0  0  0  0  0  0  0  0  0  0  0
  1  9  1  0  0  0  0
  1  2  2  0  0  0  0
  2  3  1  0  0  0  0
  2  4  1  0  0  0  0
  4  5  1  0  0  0  0
  4  6  2  0  0  0  0
  6  7  1  0  0  0  0
  6  8  1  0  0  0  0
  8  9  2  0  0  0  0
  9 10  1  0  0  0  0
 10 11  1  0  0  0  0
 11 12  1  0  0  0  0
 12 13  1  0  0  0  0
 13 14  1  0  0  0  0
 14 22  1  0  0  0  0
 14 15  2  0  0  0  0
 15 16  1  0  0  0  0
 16 17  1  0  0  0  0
 16 18  2  0  0  0  0
 18 19  1  0  0  0  0
 18 20  1  0  0  0  0
 20 21  1  0  0  0  0
 20 22  2  0  0  0  0
 12 23  2  0  0  0  0
 11 24  2  0  0  0  0
M  END
$$$$
ANT-LOU-17a-2
  -OEChem-03222016562D

 30 31  0     0  0  0  0  0  0999 V2000
   -1.7350   -0.0000    0.0000 C   0  0  0  0  0  0  0  0  0  0  0  0
   -0.8675   -0.4975    0.0000 C   0  0  0  0  0  0  0  0  0  0  0  0
   -0.8675   -1.4975    0.0000 O   0  0  0  0  0  0  0  0  0  0  0  0
   -0.0015   -1.9975    0.0000 C   0  0  0  0  0  0  0  0  0  0  0  0
    0.0000    0.0000    0.0000 C   0  0  0  0  0  0  0  0  0  0  0  0
    0.8653   -0.5013    0.0000 O   0  0  0  0  0  0  0  0  0  0  0  0
    1.7320   -0.0025    0.0000 C   0  0  0  0  0  0  0  0  0  0  0  0
   -0.0000    1.0052    0.0000 C   0  0  0  0  0  0  0  0  0  0  0  0
    0.8675    1.5026    0.0000 O   0  0  0  0  0  0  0  0  0  0  0  0
    0.8704    2.5026    0.0000 C   0  0  0  0  0  0  0  0  0  0  0  0
   -0.8675    1.5129    0.0000 C   0  0  0  0  0  0  0  0  0  0  0  0
   -1.7350    1.0052    0.0000 C   0  0  0  0  0  0  0  0  0  0  0  0
   -2.6025    1.5026    0.0000 N   0  0  0  0  0  0  0  0  0  0  0  0
   -3.4670    1.0001    0.0000 C   0  0  0  0  0  0  0  0  0  0  0  0
   -4.3345    1.4975    0.0000 C   0  0  0  0  0  0  0  0  0  0  0  0
   -5.1991    0.9950    0.0000 N   0  0  0  0  0  0  0  0  0  0  0  0
   -6.0666    1.4924    0.0000 C   0  0  0  0  0  0  0  0  0  0  0  0
   -6.0666    2.4976    0.0000 C   0  0  0  0  0  0  0  0  0  0  0  0
   -6.9341    2.9951    0.0000 C   0  0  0  0  0  0  0  0  0  0  0  0
   -6.9341    3.9951    0.0000 O   0  0  0  0  0  0  0  0  0  0  0  0
   -7.8001    4.4951    0.0000 C   0  0  0  0  0  0  0  0  0  0  0  0
   -7.8016    2.4976    0.0000 C   0  0  0  0  0  0  0  0  0  0  0  0
   -8.6669    2.9989    0.0000 O   0  0  0  0  0  0  0  0  0  0  0  0
   -9.5336    2.5001    0.0000 C   0  0  0  0  0  0  0  0  0  0  0  0
   -7.8016    1.4924    0.0000 C   0  0  0  0  0  0  0  0  0  0  0  0
   -8.6691    0.9950    0.0000 O   0  0  0  0  0  0  0  0  0  0  0  0
   -8.6720   -0.0050    0.0000 C   0  0  0  0  0  0  0  0  0  0  0  0
   -6.9341    0.9847    0.0000 C   0  0  0  0  0  0  0  0  0  0  0  0
   -4.3375    2.4975    0.0000 O   0  0  0  0  0  0  0  0  0  0  0  0
   -3.4641    0.0001    0.0000 O   0  0  0  0  0  0  0  0  0  0  0  0
  1 12  1  0  0  0  0
  1  2  2  0  0  0  0
  2  3  1  0  0  0  0
  3  4  1  0  0  0  0
  2  5  1  0  0  0  0
  5  6  1  0  0  0  0
  6  7  1  0  0  0  0
  5  8  2  0  0  0  0
  8  9  1  0  0  0  0
  9 10  1  0  0  0  0
  8 11  1  0  0  0  0
 11 12  2  0  0  0  0
 12 13  1  0  0  0  0
 13 14  1  0  0  0  0
 14 15  1  0  0  0  0
 15 16  1  0  0  0  0
 16 17  1  0  0  0  0
 17 28  1  0  0  0  0
 17 18  2  0  0  0  0
 18 19  1  0  0  0  0
 19 20  1  0  0  0  0
 20 21  1  0  0  0  0
 19 22  2  0  0  0  0
 22 23  1  0  0  0  0
 23 24  1  0  0  0  0
 22 25  1  0  0  0  0
 25 26  1  0  0  0  0
 26 27  1  0  0  0  0
 25 28  2  0  0  0  0
 15 29  2  0  0  0  0
 14 30  2  0  0  0  0
M  END
$$$$
ANT-LOU-17a-3
  -OEChem-03222016562D

 20 20  0     0  0  0  0  0  0999 V2000
   -1.7350   -0.0000    0.0000 C   0  0  0  0  0  0  0  0  0  0  0  0
   -0.8675   -0.4975    0.0000 C   0  0  0  0  0  0  0  0  0  0  0  0
   -0.8675   -1.4975    0.0000 O   0  0  0  0  0  0  0  0  0  0  0  0
   -0.0015   -1.9975    0.0000 C   0  0  0  0  0  0  0  0  0  0  0  0
    0.0000    0.0000    0.0000 C   0  0  0  0  0  0  0  0  0  0  0  0
    0.8653   -0.5013    0.0000 O   0  0  0  0  0  0  0  0  0  0  0  0
    1.7320   -0.0025    0.0000 C   0  0  0  0  0  0  0  0  0  0  0  0
   -0.0000    1.0052    0.0000 C   0  0  0  0  0  0  0  0  0  0  0  0
    0.8675    1.5026    0.0000 O   0  0  0  0  0  0  0  0  0  0  0  0
    0.8704    2.5026    0.0000 C   0  0  0  0  0  0  0  0  0  0  0  0
   -0.8675    1.5129    0.0000 C   0  0  0  0  0  0  0  0  0  0  0  0
   -1.7350    1.0052    0.0000 C   0  0  0  0  0  0  0  0  0  0  0  0
   -2.6025    1.5026    0.0000 N   0  0  0  0  0  0  0  0  0  0  0  0
   -3.4670    1.0001    0.0000 C   0  0  0  0  0  0  0  0  0  0  0  0
   -4.3345    1.4975    0.0000 C   0  0  0  0  0  0  0  0  0  0  0  0
   -5.1991    0.9950    0.0000 O   0  0  0  0  0  0  0  0  0  0  0  0
   -6.0666    1.4924    0.0000 C   0  0  0  0  0  0  0  0  0  0  0  0
   -6.9311    0.9899    0.0000 C   0  0  0  0  0  0  0  0  0  0  0  0
   -4.3375    2.4975    0.0000 O   0  0  0  0  0  0  0  0  0  0  0  0
   -3.4641    0.0001    0.0000 O   0  0  0  0  0  0  0  0  0  0  0  0
  1 12  1  0  0  0  0
  1  2  2  0  0  0  0
  2  3  1  0  0  0  0
  3  4  1  0  0  0  0
  2  5  1  0  0  0  0
  5  6  1  0  0  0  0
  6  7  1  0  0  0  0
  5  8  2  0  0  0  0
  8  9  1  0  0  0  0
  9 10  1  0  0  0  0
  8 11  1  0  0  0  0
 11 12  2  0  0  0  0
 12 13  1  0  0  0  0
 13 14  1  0  0  0  0
 14 15  1  0  0  0  0
 15 16  1  0  0  0  0
 16 17  1  0  0  0  0
 17 18  1  0  0  0  0
 15 19  2  0  0  0  0
 14 20  2  0  0  0  0
M  END
$$$$
AGN-NEW-051-1
  -OEChem-03222016562D

 33 35  0     0  0  0  0  0  0999 V2000
    1.7379    3.0001    0.0000 C   0  0  0  0  0  0  0  0  0  0  0  0
    1.7350    2.0001    0.0000 N   0  0  0  0  0  0  0  0  0  0  0  0
    0.8675    1.5027    0.0000 C   0  0  0  0  0  0  0  0  0  0  0  0
    0.8675    0.4975    0.0000 C   0  0  0  0  0  0  0  0  0  0  0  0
    0.0000    0.0000    0.0000 C   0  0  0  0  0  0  0  0  0  0  0  0
   -0.0000   -1.0000    0.0000 C   0  0  0  0  0  0  0  0  0  0  0  0
   -0.8675    0.4975    0.0000 C   0  0  0  0  0  0  0  0  0  0  0  0
   -0.8675    1.5027    0.0000 C   0  0  0  0  0  0  0  0  0  0  0  0
    0.0000    2.0104    0.0000 N   0  0  0  0  0  0  0  0  0  0  0  0
    2.5995    1.4976    0.0000 C   0  0  0  0  0  0  0  0  0  0  0  0
    2.5966    0.4976    0.0000 N   0  0  0  0  0  0  0  0  0  0  0  0
    3.4611   -0.0050    0.0000 C   0  0  0  0  0  0  0  0  0  0  0  0
    3.4596   -1.0102    0.0000 C   0  0  0  0  0  0  0  0  0  0  0  0
    2.5914   -1.5063    0.0000 C   0  0  0  0  0  0  0  0  0  0  0  0
    2.5869   -2.5063    0.0000 C   0  0  0  0  0  0  0  0  0  0  0  0
    4.3264   -1.5192    0.0000 N   0  0  0  0  0  0  0  0  0  0  0  0
    5.1946   -1.0128    0.0000 C   0  0  0  0  0  0  0  0  0  0  0  0
    5.1961   -0.0076    0.0000 C   0  0  0  0  0  0  0  0  0  0  0  0
    6.0622    0.4924    0.0000 C   0  0  0  0  0  0  0  0  0  0  0  0
    4.3294    0.4912    0.0000 C   0  0  0  0  0  0  0  0  0  0  0  0
    4.3309    1.4912    0.0000 C   0  0  0  0  0  0  0  0  0  0  0  0
    5.1977    1.9899    0.0000 C   0  0  0  0  0  0  0  0  0  0  0  0
    5.1992    2.9899    0.0000 N   0  0  0  0  0  0  0  0  0  0  0  0
    6.0659    3.4886    0.0000 C   0  0  0  0  0  0  0  0  0  0  0  0
    6.0674    4.4886    0.0000 C   0  0  0  0  0  0  0  0  0  0  0  0
    6.9342    4.9873    0.0000 N   0  0  0  0  0  0  0  0  0  0  0  0
    6.9416    5.9925    0.0000 C   0  0  0  0  0  0  0  0  0  0  0  0
    7.8129    6.4938    0.0000 C   0  0  0  0  0  0  0  0  0  0  0  0
    8.6768    5.9899    0.0000 N   0  0  0  0  0  0  0  0  0  0  0  0
    8.6782    4.9899    0.0000 C   0  0  0  0  0  0  0  0  0  0  0  0
    7.8069    4.4886    0.0000 C   0  0  0  0  0  0  0  0  0  0  0  0
    6.9312    2.9873    0.0000 O   0  0  0  0  0  0  0  0  0  0  0  0
    3.4670    1.9950    0.0000 O   0  0  0  0  0  0  0  0  0  0  0  0
  1  2  1  0  0  0  0
  2  3  1  0  0  0  0
  3  9  2  0  0  0  0
  3  4  1  0  0  0  0
  4  5  2  0  0  0  0
  5  6  1  0  0  0  0
  5  7  1  0  0  0  0
  7  8  2  0  0  0  0
  8  9  1  0  0  0  0
  2 10  1  0  0  0  0
 10 11  1  0  0  0  0
 11 12  1  0  0  0  0
 12 20  1  0  0  0  0
 12 13  2  0  0  0  0
 13 14  1  0  0  0  0
 14 15  2  0  0  0  0
 13 16  1  0  0  0  0
 16 17  2  0  0  0  0
 17 18  1  0  0  0  0
 18 19  1  0  0  0  0
 18 20  2  0  0  0  0
 20 21  1  0  0  0  0
 21 22  1  0  0  0  0
 22 23  1  0  0  0  0
 23 24  1  0  0  0  0
 24 25  1  0  0  0  0
 25 26  1  0  0  0  0
 26 31  1  0  0  0  0
 26 27  1  0  0  0  0
 27 28  1  0  0  0  0
 28 29  1  0  0  0  0
 29 30  1  0  0  0  0
 30 31  1  0  0  0  0
 24 32  2  0  0  0  0
 10 33  2  0  0  0  0
M  END
$$$$
AGN-NEW-051-2
  -OEChem-03222016562D

 39 42  0     0  0  0  0  0  0999 V2000
   -0.0000   -1.0000    0.0000 C   0  0  0  0  0  0  0  0  0  0  0  0
    0.0000    0.0000    0.0000 C   0  0  0  0  0  0  0  0  0  0  0  0
   -0.8675    0.4975    0.0000 C   0  0  0  0  0  0  0  0  0  0  0  0
   -0.8675    1.5027    0.0000 C   0  0  0  0  0  0  0  0  0  0  0  0
    0.0000    2.0104    0.0000 N   0  0  0  0  0  0  0  0  0  0  0  0
    0.8675    1.5027    0.0000 C   0  0  0  0  0  0  0  0  0  0  0  0
    1.7350    2.0001    0.0000 N   0  0  0  0  0  0  0  0  0  0  0  0
    1.7379    3.0001    0.0000 C   0  0  0  0  0  0  0  0  0  0  0  0
    0.8734    3.5027    0.0000 N   0  0  0  0  0  0  0  0  0  0  0  0
    0.8764    4.5027    0.0000 C   0  0  0  0  0  0  0  0  0  0  0  0
    1.7476    5.0040    0.0000 C   0  0  0  0  0  0  0  0  0  0  0  0
    2.6114    4.5001    0.0000 C   0  0  0  0  0  0  0  0  0  0  0  0
    3.4797    4.9963    0.0000 C   0  0  0  0  0  0  0  0  0  0  0  0
    1.7551    6.0091    0.0000 N   0  0  0  0  0  0  0  0  0  0  0  0
    0.8824    6.5078    0.0000 C   0  0  0  0  0  0  0  0  0  0  0  0
    0.0111    6.0065    0.0000 C   0  0  0  0  0  0  0  0  0  0  0  0
   -0.8549    6.5066    0.0000 C   0  0  0  0  0  0  0  0  0  0  0  0
    0.0125    5.0065    0.0000 C   0  0  0  0  0  0  0  0  0  0  0  0
   -0.8543    4.5078    0.0000 C   0  0  0  0  0  0  0  0  0  0  0  0
   -1.7195    5.0091    0.0000 C   0  0  0  0  0  0  0  0  0  0  0  0
   -2.5863    4.5104    0.0000 N   0  0  0  0  0  0  0  0  0  0  0  0
   -3.4516    5.0117    0.0000 C   0  0  0  0  0  0  0  0  0  0  0  0
   -4.3184    4.5130    0.0000 C   0  0  0  0  0  0  0  0  0  0  0  0
   -5.1836    5.0143    0.0000 N   0  0  0  0  0  0  0  0  0  0  0  0
   -6.0578    4.5182    0.0000 C   0  0  0  0  0  0  0  0  0  0  0  0
   -6.9276    5.0221    0.0000 C   0  0  0  0  0  0  0  0  0  0  0  0
   -6.9232    6.0221    0.0000 N   0  0  0  0  0  0  0  0  0  0  0  0
   -6.0578    6.5233    0.0000 C   0  0  0  0  0  0  0  0  0  0  0  0
   -5.1881    6.0194    0.0000 C   0  0  0  0  0  0  0  0  0  0  0  0
   -3.4501    6.0117    0.0000 O   0  0  0  0  0  0  0  0  0  0  0  0
    2.6054    3.4976    0.0000 O   0  0  0  0  0  0  0  0  0  0  0  0
    2.5995    1.4976    0.0000 C   0  0  0  0  0  0  0  0  0  0  0  0
    3.4670    1.9950    0.0000 N   0  0  0  0  0  0  0  0  0  0  0  0
    3.4671    2.9951    0.0000 C   0  0  0  0  0  0  0  0  0  0  0  0
    4.3391    3.4951    0.0000 C   0  0  0  0  0  0  0  0  0  0  0  0
    5.2111    2.9951    0.0000 O   0  0  0  0  0  0  0  0  0  0  0  0
    5.2022    1.9900    0.0000 C   0  0  0  0  0  0  0  0  0  0  0  0
    4.3302    1.4900    0.0000 C   0  0  0  0  0  0  0  0  0  0  0  0
    0.8675    0.4975    0.0000 C   0  0  0  0  0  0  0  0  0  0  0  0
  1  2  1  0  0  0  0
  2 39  2  0  0  0  0
  2  3  1  0  0  0  0
  3  4  2  0  0  0  0
  4  5  1  0  0  0  0
  5  6  2  0  0  0  0
  6  7  1  0  0  0  0
  7  8  1  0  0  0  0
  8  9  1  0  0  0  0
  9 10  1  0  0  0  0
 10 18  1  0  0  0  0
 10 11  2  0  0  0  0
 11 12  1  0  0  0  0
 12 13  2  0  0  0  0
 11 14  1  0  0  0  0
 14 15  2  0  0  0  0
 15 16  1  0  0  0  0
 16 17  1  0  0  0  0
 16 18  2  0  0  0  0
 18 19  1  0  0  0  0
 19 20  1  0  0  0  0
 20 21  1  0  0  0  0
 21 22  1  0  0  0  0
 22 23  1  0  0  0  0
 23 24  1  0  0  0  0
 24 29  1  0  0  0  0
 24 25  1  0  0  0  0
 25 26  1  0  0  0  0
 26 27  1  0  0  0  0
 27 28  1  0  0  0  0
 28 29  1  0  0  0  0
 22 30  2  0  0  0  0
  8 31  2  0  0  0  0
  7 32  1  0  0  0  0
 32 33  1  0  0  0  0
 33 38  1  0  0  0  0
 33 34  1  0  0  0  0
 34 35  1  0  0  0  0
 35 36  1  0  0  0  0
 36 37  1  0  0  0  0
 37 38  1  0  0  0  0
  6 39  1  0  0  0  0
M  END
$$$$
AGN-NEW-051-3
  -OEChem-03222016562D

 33 35  0     0  0  0  0  0  0999 V2000
    1.7379    3.0001    0.0000 C   0  0  0  0  0  0  0  0  0  0  0  0
    1.7350    2.0001    0.0000 N   0  0  0  0  0  0  0  0  0  0  0  0
    0.8675    1.5027    0.0000 C   0  0  0  0  0  0  0  0  0  0  0  0
    0.8675    0.4975    0.0000 C   0  0  0  0  0  0  0  0  0  0  0  0
    0.0000    0.0000    0.0000 C   0  0  0  0  0  0  0  0  0  0  0  0
   -0.0000   -1.0000    0.0000 C   0  0  0  0  0  0  0  0  0  0  0  0
   -0.8675    0.4975    0.0000 C   0  0  0  0  0  0  0  0  0  0  0  0
   -0.8675    1.5027    0.0000 C   0  0  0  0  0  0  0  0  0  0  0  0
    0.0000    2.0104    0.0000 N   0  0  0  0  0  0  0  0  0  0  0  0
    2.5995    1.4976    0.0000 C   0  0  0  0  0  0  0  0  0  0  0  0
    2.5966    0.4976    0.0000 N   0  0  0  0  0  0  0  0  0  0  0  0
    3.4611   -0.0050    0.0000 C   0  0  0  0  0  0  0  0  0  0  0  0
    3.4596   -1.0102    0.0000 C   0  0  0  0  0  0  0  0  0  0  0  0
    2.5914   -1.5063    0.0000 C   0  0  0  0  0  0  0  0  0  0  0  0
    1.7231   -2.0024    0.0000 C   0  0  0  0  0  0  0  0  0  0  0  0
    4.3264   -1.5192    0.0000 N   0  0  0  0  0  0  0  0  0  0  0  0
    5.1946   -1.0128    0.0000 C   0  0  0  0  0  0  0  0  0  0  0  0
    5.1961   -0.0076    0.0000 C   0  0  0  0  0  0  0  0  0  0  0  0
    6.0622    0.4924    0.0000 C   0  0  0  0  0  0  0  0  0  0  0  0
    4.3294    0.4912    0.0000 C   0  0  0  0  0  0  0  0  0  0  0  0
    4.3309    1.4912    0.0000 C   0  0  0  0  0  0  0  0  0  0  0  0
    5.1977    1.9899    0.0000 C   0  0  0  0  0  0  0  0  0  0  0  0
    5.1992    2.9899    0.0000 N   0  0  0  0  0  0  0  0  0  0  0  0
    6.0659    3.4886    0.0000 C   0  0  0  0  0  0  0  0  0  0  0  0
    6.0674    4.4886    0.0000 C   0  0  0  0  0  0  0  0  0  0  0  0
    6.9342    4.9873    0.0000 N   0  0  0  0  0  0  0  0  0  0  0  0
    6.9416    5.9925    0.0000 C   0  0  0  0  0  0  0  0  0  0  0  0
    7.8129    6.4938    0.0000 C   0  0  0  0  0  0  0  0  0  0  0  0
    8.6768    5.9899    0.0000 N   0  0  0  0  0  0  0  0  0  0  0  0
    8.6782    4.9899    0.0000 C   0  0  0  0  0  0  0  0  0  0  0  0
    7.8069    4.4886    0.0000 C   0  0  0  0  0  0  0  0  0  0  0  0
    6.9312    2.9873    0.0000 O   0  0  0  0  0  0  0  0  0  0  0  0
    3.4670    1.9950    0.0000 O   0  0  0  0  0  0  0  0  0  0  0  0
  1  2  1  0  0  0  0
  2  3  1  0  0  0  0
  3  9  2  0  0  0  0
  3  4  1  0  0  0  0
  4  5  2  0  0  0  0
  5  6  1  0  0  0  0
  5  7  1  0  0  0  0
  7  8  2  0  0  0  0
  8  9  1  0  0  0  0
  2 10  1  0  0  0  0
 10 11  1  0  0  0  0
 11 12  1  0  0  0  0
 12 20  1  0  0  0  0
 12 13  2  0  0  0  0
 13 14  1  0  0  0  0
 14 15  3  0  0  0  0
 13 16  1  0  0  0  0
 16 17  2  0  0  0  0
 17 18  1  0  0  0  0
 18 19  1  0  0  0  0
 18 20  2  0  0  0  0
 20 21  1  0  0  0  0
 21 22  1  0  0  0  0
 22 23  1  0  0  0  0
 23 24  1  0  0  0  0
 24 25  1  0  0  0  0
 25 26  1  0  0  0  0
 26 31  1  0  0  0  0
 26 27  1  0  0  0  0
 27 28  1  0  0  0  0
 28 29  1  0  0  0  0
 29 30  1  0  0  0  0
 30 31  1  0  0  0  0
 24 32  2  0  0  0  0
 10 33  2  0  0  0  0
M  END
$$$$
AGN-NEW-051-4
  -OEChem-03222016562D

 39 42  0     0  0  0  0  0  0999 V2000
   -0.0000   -1.0000    0.0000 C   0  0  0  0  0  0  0  0  0  0  0  0
    0.0000    0.0000    0.0000 C   0  0  0  0  0  0  0  0  0  0  0  0
   -0.8675    0.4975    0.0000 C   0  0  0  0  0  0  0  0  0  0  0  0
   -0.8675    1.5027    0.0000 C   0  0  0  0  0  0  0  0  0  0  0  0
    0.0000    2.0104    0.0000 N   0  0  0  0  0  0  0  0  0  0  0  0
    0.8675    1.5027    0.0000 C   0  0  0  0  0  0  0  0  0  0  0  0
    1.7350    2.0001    0.0000 N   0  0  0  0  0  0  0  0  0  0  0  0
    1.7379    3.0001    0.0000 C   0  0  0  0  0  0  0  0  0  0  0  0
    0.8734    3.5027    0.0000 N   0  0  0  0  0  0  0  0  0  0  0  0
    0.8764    4.5027    0.0000 C   0  0  0  0  0  0  0  0  0  0  0  0
    1.7476    5.0040    0.0000 C   0  0  0  0  0  0  0  0  0  0  0  0
    2.6114    4.5001    0.0000 C   0  0  0  0  0  0  0  0  0  0  0  0
    3.4752    3.9963    0.0000 C   0  0  0  0  0  0  0  0  0  0  0  0
    1.7551    6.0091    0.0000 N   0  0  0  0  0  0  0  0  0  0  0  0
    0.8824    6.5078    0.0000 C   0  0  0  0  0  0  0  0  0  0  0  0
    0.0111    6.0065    0.0000 C   0  0  0  0  0  0  0  0  0  0  0  0
   -0.8549    6.5066    0.0000 C   0  0  0  0  0  0  0  0  0  0  0  0
    0.0125    5.0065    0.0000 C   0  0  0  0  0  0  0  0  0  0  0  0
   -0.8543    4.5078    0.0000 C   0  0  0  0  0  0  0  0  0  0  0  0
   -1.7195    5.0091    0.0000 C   0  0  0  0  0  0  0  0  0  0  0  0
   -2.5863    4.5104    0.0000 N   0  0  0  0  0  0  0  0  0  0  0  0
   -3.4516    5.0117    0.0000 C   0  0  0  0  0  0  0  0  0  0  0  0
   -4.3184    4.5130    0.0000 C   0  0  0  0  0  0  0  0  0  0  0  0
   -5.1836    5.0143    0.0000 N   0  0  0  0  0  0  0  0  0  0  0  0
   -6.0578    4.5182    0.0000 C   0  0  0  0  0  0  0  0  0  0  0  0
   -6.9276    5.0221    0.0000 C   0  0  0  0  0  0  0  0  0  0  0  0
   -6.9232    6.0221    0.0000 N   0  0  0  0  0  0  0  0  0  0  0  0
   -6.0578    6.5233    0.0000 C   0  0  0  0  0  0  0  0  0  0  0  0
   -5.1881    6.0194    0.0000 C   0  0  0  0  0  0  0  0  0  0  0  0
   -3.4501    6.0117    0.0000 O   0  0  0  0  0  0  0  0  0  0  0  0
    2.6054    3.4976    0.0000 O   0  0  0  0  0  0  0  0  0  0  0  0
    2.5995    1.4976    0.0000 C   0  0  0  0  0  0  0  0  0  0  0  0
    3.4670    1.9950    0.0000 N   0  0  0  0  0  0  0  0  0  0  0  0
    3.4671    2.9951    0.0000 C   0  0  0  0  0  0  0  0  0  0  0  0
    4.3391    3.4951    0.0000 C   0  0  0  0  0  0  0  0  0  0  0  0
    5.2111    2.9951    0.0000 O   0  0  0  0  0  0  0  0  0  0  0  0
    5.2022    1.9900    0.0000 C   0  0  0  0  0  0  0  0  0  0  0  0
    4.3302    1.4900    0.0000 C   0  0  0  0  0  0  0  0  0  0  0  0
    0.8675    0.4975    0.0000 C   0  0  0  0  0  0  0  0  0  0  0  0
  1  2  1  0  0  0  0
  2 39  2  0  0  0  0
  2  3  1  0  0  0  0
  3  4  2  0  0  0  0
  4  5  1  0  0  0  0
  5  6  2  0  0  0  0
  6  7  1  0  0  0  0
  7  8  1  0  0  0  0
  8  9  1  0  0  0  0
  9 10  1  0  0  0  0
 10 18  1  0  0  0  0
 10 11  2  0  0  0  0
 11 12  1  0  0  0  0
 12 13  3  0  0  0  0
 11 14  1  0  0  0  0
 14 15  2  0  0  0  0
 15 16  1  0  0  0  0
 16 17  1  0  0  0  0
 16 18  2  0  0  0  0
 18 19  1  0  0  0  0
 19 20  1  0  0  0  0
 20 21  1  0  0  0  0
 21 22  1  0  0  0  0
 22 23  1  0  0  0  0
 23 24  1  0  0  0  0
 24 29  1  0  0  0  0
 24 25  1  0  0  0  0
 25 26  1  0  0  0  0
 26 27  1  0  0  0  0
 27 28  1  0  0  0  0
 28 29  1  0  0  0  0
 22 30  2  0  0  0  0
  8 31  2  0  0  0  0
  7 32  1  0  0  0  0
 32 33  1  0  0  0  0
 33 38  1  0  0  0  0
 33 34  1  0  0  0  0
 34 35  1  0  0  0  0
 35 36  1  0  0  0  0
 36 37  1  0  0  0  0
 37 38  1  0  0  0  0
  6 39  1  0  0  0  0
M  END
$$$$
ANT-DIA-045-1
  -OEChem-03222016562D

 16 17  0     1  0  0  0  0  0999 V2000
    0.0000    0.0000    0.0000 C   0  0  0  0  0  0  0  0  0  0  0  0
   -0.3065    0.9519    0.0000 C   0  0  0  0  0  0  0  0  0  0  0  0
    0.5008    1.5428    0.0000 S   0  0  0  0  0  0  0  0  0  0  0  0
    1.3133    0.9519    0.0000 C   0  0  0  0  0  0  0  0  0  0  0  0
    1.0015    0.0000    0.0000 C   0  0  0  0  0  0  0  0  0  0  0  0
    1.5883   -0.8097    0.0000 C   0  0  2  0  0  0  0  0  0  0  0  0
    0.7220   -1.3092    0.0000 H   0  0  0  0  0  0  0  0  0  0  0  0
    2.3339   -0.1409    0.0000 C   0  0  0  0  0  0  0  0  0  0  0  0
    3.2014   -0.6412    0.0000 C   0  0  0  0  0  0  0  0  0  0  0  0
    2.9913   -1.6189    0.0000 C   0  0  0  0  0  0  0  0  0  0  0  0
    1.9969   -1.7273    0.0000 C   0  0  2  0  0  0  0  0  0  0  0  0
    1.0463   -2.0376    0.0000 H   0  0  0  0  0  0  0  0  0  0  0  0
    2.2074   -2.7049    0.0000 C   0  0  0  0  0  0  0  0  0  0  0  0
    3.1593   -3.0114    0.0000 N   0  0  0  0  0  0  0  0  0  0  0  0
    3.9007   -2.3403    0.0000 C   0  0  0  0  0  0  0  0  0  0  0  0
    1.4660   -3.3760    0.0000 O   0  0  0  0  0  0  0  0  0  0  0  0
  1  5  1  0  0  0  0
  1  2  2  0  0  0  0
  2  3  1  0  0  0  0
  3  4  1  0  0  0  0
  4  5  2  0  0  0  0
  5  6  1  0  0  0  0
  6  7  1  1  0  0  0
  6 11  1  0  0  0  0
  6  8  1  0  0  0  0
  8  9  1  0  0  0  0
  9 10  1  0  0  0  0
 10 11  1  0  0  0  0
 11 12  1  1  0  0  0
 11 13  1  0  0  0  0
 13 14  1  0  0  0  0
 14 15  1  0  0  0  0
 13 16  2  0  0  0  0
M  END
$$$$
ANT-DIA-045-2
  -OEChem-03222016562D

 19 20  0     1  0  0  0  0  0999 V2000
    0.0000    0.0000    0.0000 C   0  0  0  0  0  0  0  0  0  0  0  0
    1.0015   -0.0000    0.0000 C   0  0  0  0  0  0  0  0  0  0  0  0
    1.5883   -0.8097    0.0000 C   0  0  1  0  0  0  0  0  0  0  0  0
    2.3331   -0.1424    0.0000 H   0  0  0  0  0  0  0  0  0  0  0  0
    2.3323   -1.4846    0.0000 C   0  0  1  0  0  0  0  0  0  0  0  0
    2.9236   -0.6782    0.0000 H   0  0  0  0  0  0  0  0  0  0  0  0
    3.1958   -1.9889    0.0000 C   0  0  0  0  0  0  0  0  0  0  0  0
    3.1908   -2.9889    0.0000 O   0  0  0  0  0  0  0  0  0  0  0  0
    4.0643   -1.4933    0.0000 N   0  0  0  0  0  0  0  0  0  0  0  0
    4.9278   -1.9976    0.0000 C   0  0  0  0  0  0  0  0  0  0  0  0
    5.7963   -1.5019    0.0000 C   0  0  0  0  0  0  0  0  0  0  0  0
    6.6598   -2.0062    0.0000 O   0  0  0  0  0  0  0  0  0  0  0  0
    7.5284   -1.5106    0.0000 C   0  0  0  0  0  0  0  0  0  0  0  0
    1.9197   -2.3973    0.0000 C   0  0  0  0  0  0  0  0  0  0  0  0
    0.9242   -2.2893    0.0000 C   0  0  0  0  0  0  0  0  0  0  0  0
    0.7221   -1.3099    0.0000 C   0  0  0  0  0  0  0  0  0  0  0  0
    1.3133    0.9519    0.0000 C   0  0  0  0  0  0  0  0  0  0  0  0
    0.5008    1.5428    0.0000 S   0  0  0  0  0  0  0  0  0  0  0  0
   -0.3065    0.9519    0.0000 C   0  0  0  0  0  0  0  0  0  0  0  0
  1 19  2  0  0  0  0
  1  2  1  0  0  0  0
  2  3  1  0  0  0  0
  3  4  1  6  0  0  0
  3 16  1  0  0  0  0
  3  5  1  0  0  0  0
  5  6  1  6  0  0  0
  5  7  1  0  0  0  0
  7  8  2  0  0  0  0
  7  9  1  0  0  0  0
  9 10  1  0  0  0  0
 10 11  1  0  0  0  0
 11 12  1  0  0  0  0
 12 13  1  0  0  0  0
  5 14  1  0  0  0  0
 14 15  1  0  0  0  0
 15 16  1  0  0  0  0
  2 17  2  0  0  0  0
 17 18  1  0  0  0  0
 18 19  1  0  0  0  0
M  END
$$$$
ANT-DIA-045-3
  -OEChem-03222016562D

 21 23  0     1  0  0  0  0  0999 V2000
   -4.3503   -1.6849    0.0000 C   0  0  0  0  0  0  0  0  0  0  0  0
   -5.2611   -2.0978    0.0000 C   0  0  0  0  0  0  0  0  0  0  0  0
   -5.1560   -3.0927    0.0000 S   0  0  0  0  0  0  0  0  0  0  0  0
   -4.1724   -3.2971    0.0000 C   0  0  0  0  0  0  0  0  0  0  0  0
   -3.6772   -2.4265    0.0000 C   0  0  0  0  0  0  0  0  0  0  0  0
   -2.6832   -2.3167    0.0000 C   0  0  2  0  0  0  0  0  0  0  0  0
   -2.8956   -1.3395    0.0000 H   0  0  0  0  0  0  0  0  0  0  0  0
   -2.6773   -3.3183    0.0000 C   0  0  0  0  0  0  0  0  0  0  0  0
   -1.7238   -3.6243    0.0000 C   0  0  0  0  0  0  0  0  0  0  0  0
   -1.1411   -2.8116    0.0000 C   0  0  0  0  0  0  0  0  0  0  0  0
   -1.7291   -2.0025    0.0000 C   0  0  2  0  0  0  0  0  0  0  0  0
   -2.1384   -1.0901    0.0000 H   0  0  0  0  0  0  0  0  0  0  0  0
   -0.8638   -1.5013    0.0000 C   0  0  0  0  0  0  0  0  0  0  0  0
   -0.8653   -0.5013    0.0000 N   0  0  0  0  0  0  0  0  0  0  0  0
    0.0000    0.0000    0.0000 C   0  0  0  0  0  0  0  0  0  0  0  0
   -0.0000    1.0052    0.0000 C   0  0  0  0  0  0  0  0  0  0  0  0
    0.8675    1.5129    0.0000 N   0  0  0  0  0  0  0  0  0  0  0  0
    1.7350    1.0052    0.0000 C   0  0  0  0  0  0  0  0  0  0  0  0
    1.7350    0.0000    0.0000 N   0  0  0  0  0  0  0  0  0  0  0  0
    0.8675   -0.4975    0.0000 C   0  0  0  0  0  0  0  0  0  0  0  0
    0.0029   -2.0000    0.0000 O   0  0  0  0  0  0  0  0  0  0  0  0
  1  5  1  0  0  0  0
  1  2  2  0  0  0  0
  2  3  1  0  0  0  0
  3  4  1  0  0  0  0
  4  5  2  0  0  0  0
  5  6  1  0  0  0  0
  6  7  1  6  0  0  0
  6 11  1  0  0  0  0
  6  8  1  0  0  0  0
  8  9  1  0  0  0  0
  9 10  1  0  0  0  0
 10 11  1  0  0  0  0
 11 12  1  6  0  0  0
 11 13  1  0  0  0  0
 13 14  1  0  0  0  0
 14 15  1  0  0  0  0
 15 20  1  0  0  0  0
 15 16  2  0  0  0  0
 16 17  1  0  0  0  0
 17 18  2  0  0  0  0
 18 19  1  0  0  0  0
 19 20  2  0  0  0  0
 13 21  2  0  0  0  0
M  END
$$$$
ANT-DIA-045-4
  -OEChem-03222016562D

 22 24  0     1  0  0  0  0  0999 V2000
    6.6669    0.0127    0.0000 C   0  0  0  0  0  0  0  0  0  0  0  0
    5.6654    0.0106    0.0000 C   0  0  0  0  0  0  0  0  0  0  0  0
    5.0769    0.8191    0.0000 C   0  0  1  0  0  0  0  0  0  0  0  0
    4.3335    0.1503    0.0000 H   0  0  0  0  0  0  0  0  0  0  0  0
    4.3316    1.4925    0.0000 C   0  0  1  0  0  0  0  0  0  0  0  0
    3.7419    0.6848    0.0000 H   0  0  0  0  0  0  0  0  0  0  0  0
    3.4670    1.9950    0.0000 C   0  0  0  0  0  0  0  0  0  0  0  0
    3.4700    2.9950    0.0000 O   0  0  0  0  0  0  0  0  0  0  0  0
    2.5995    1.4976    0.0000 N   0  0  0  0  0  0  0  0  0  0  0  0
    1.7350    2.0001    0.0000 C   0  0  0  0  0  0  0  0  0  0  0  0
    0.8675    1.5027    0.0000 C   0  0  0  0  0  0  0  0  0  0  0  0
    0.8675    0.4975    0.0000 C   0  0  0  0  0  0  0  0  0  0  0  0
    0.0000    0.0000    0.0000 C   0  0  0  0  0  0  0  0  0  0  0  0
   -0.8675    0.4975    0.0000 C   0  0  0  0  0  0  0  0  0  0  0  0
   -0.8675    1.5027    0.0000 C   0  0  0  0  0  0  0  0  0  0  0  0
    0.0000    2.0104    0.0000 N   0  0  0  0  0  0  0  0  0  0  0  0
    4.7423    2.4060    0.0000 C   0  0  0  0  0  0  0  0  0  0  0  0
    5.7380    2.3001    0.0000 C   0  0  0  0  0  0  0  0  0  0  0  0
    5.9421    1.3211    0.0000 C   0  0  0  0  0  0  0  0  0  0  0  0
    5.3555   -0.9419    0.0000 C   0  0  0  0  0  0  0  0  0  0  0  0
    6.1693   -1.5312    0.0000 S   0  0  0  0  0  0  0  0  0  0  0  0
    6.9753   -0.9386    0.0000 C   0  0  0  0  0  0  0  0  0  0  0  0
  1 22  2  0  0  0  0
  1  2  1  0  0  0  0
  2  3  1  0  0  0  0
  3  4  1  6  0  0  0
  3 19  1  0  0  0  0
  3  5  1  0  0  0  0
  5  6  1  6  0  0  0
  5  7  1  0  0  0  0
  7  8  2  0  0  0  0
  7  9  1  0  0  0  0
  9 10  1  0  0  0  0
 10 11  1  0  0  0  0
 11 16  1  0  0  0  0
 11 12  2  0  0  0  0
 12 13  1  0  0  0  0
 13 14  2  0  0  0  0
 14 15  1  0  0  0  0
 15 16  2  0  0  0  0
  5 17  1  0  0  0  0
 17 18  1  0  0  0  0
 18 19  1  0  0  0  0
  2 20  2  0  0  0  0
 20 21  1  0  0  0  0
 21 22  1  0  0  0  0
M  END
$$$$
ANT-DIA-045-5
  -OEChem-03222016562D

 22 24  0     1  0  0  0  0  0999 V2000
    2.4854   -5.2675    0.0000 C   0  0  0  0  0  0  0  0  0  0  0  0
    1.9816   -4.4020    0.0000 C   0  0  0  0  0  0  0  0  0  0  0  0
    2.3862   -3.4875    0.0000 C   0  0  1  0  0  0  0  0  0  0  0  0
    1.4348   -3.1795    0.0000 H   0  0  0  0  0  0  0  0  0  0  0  0
    2.5952   -2.5050    0.0000 C   0  0  1  0  0  0  0  0  0  0  0  0
    1.6008   -2.3997    0.0000 H   0  0  0  0  0  0  0  0  0  0  0  0
    2.5966   -1.5050    0.0000 C   0  0  0  0  0  0  0  0  0  0  0  0
    3.4634   -1.0063    0.0000 O   0  0  0  0  0  0  0  0  0  0  0  0
    1.7313   -1.0038    0.0000 N   0  0  0  0  0  0  0  0  0  0  0  0
    1.7328   -0.0038    0.0000 C   0  0  0  0  0  0  0  0  0  0  0  0
    0.8675    0.4975    0.0000 C   0  0  0  0  0  0  0  0  0  0  0  0
    0.0000    0.0000    0.0000 C   0  0  0  0  0  0  0  0  0  0  0  0
   -0.8675    0.4975    0.0000 C   0  0  0  0  0  0  0  0  0  0  0  0
   -0.8675    1.5027    0.0000 C   0  0  0  0  0  0  0  0  0  0  0  0
    0.0000    2.0104    0.0000 N   0  0  0  0  0  0  0  0  0  0  0  0
    0.8675    1.5027    0.0000 C   0  0  0  0  0  0  0  0  0  0  0  0
    3.5916   -2.4024    0.0000 C   0  0  0  0  0  0  0  0  0  0  0  0
    3.9990   -3.3171    0.0000 C   0  0  0  0  0  0  0  0  0  0  0  0
    3.2542   -3.9845    0.0000 C   0  0  0  0  0  0  0  0  0  0  0  0
    1.0021   -4.6114    0.0000 C   0  0  0  0  0  0  0  0  0  0  0  0
    0.9001   -5.6108    0.0000 S   0  0  0  0  0  0  0  0  0  0  0  0
    1.8169   -6.0113    0.0000 C   0  0  0  0  0  0  0  0  0  0  0  0
  1 22  2  0  0  0  0
  1  2  1  0  0  0  0
  2  3  1  0  0  0  0
  3  4  1  6  0  0  0
  3 19  1  0  0  0  0
  3  5  1  0  0  0  0
  5  6  1  6  0  0  0
  5  7  1  0  0  0  0
  7  8  2  0  0  0  0
  7  9  1  0  0  0  0
  9 10  1  0  0  0  0
 10 11  1  0  0  0  0
 11 16  2  0  0  0  0
 11 12  1  0  0  0  0
 12 13  2  0  0  0  0
 13 14  1  0  0  0  0
 14 15  2  0  0  0  0
 15 16  1  0  0  0  0
  5 17  1  0  0  0  0
 17 18  1  0  0  0  0
 18 19  1  0  0  0  0
  2 20  2  0  0  0  0
 20 21  1  0  0  0  0
 21 22  1  0  0  0  0
M  END
$$$$
DAR-DIA-033-1
  -OEChem-03222016562D

 28 30  0     0  0  0  0  0  0999 V2000
    3.4648   -0.0063    0.0000 O   0  0  0  0  0  0  0  0  0  0  0  0
    2.5995    0.4950    0.0000 C   0  0  0  0  0  0  0  0  0  0  0  0
    1.7328   -0.0038    0.0000 N   0  0  0  0  0  0  0  0  0  0  0  0
    0.8675    0.4975    0.0000 C   0  0  0  0  0  0  0  0  0  0  0  0
    0.8675    1.5027    0.0000 C   0  0  0  0  0  0  0  0  0  0  0  0
   -0.0000    2.0104    0.0000 N   0  0  0  0  0  0  0  0  0  0  0  0
   -0.8675    1.5027    0.0000 C   0  0  0  0  0  0  0  0  0  0  0  0
   -0.8675    0.4975    0.0000 C   0  0  0  0  0  0  0  0  0  0  0  0
    0.0000    0.0000    0.0000 C   0  0  0  0  0  0  0  0  0  0  0  0
    0.0000   -1.0000    0.0000 C   0  0  0  0  0  0  0  0  0  0  0  0
    0.8660   -1.5000    0.0000 C   0  0  0  0  0  0  0  0  0  0  0  0
    0.8660   -2.5000    0.0000 N   0  0  0  0  0  0  0  0  0  0  0  0
    1.7321   -3.0000    0.0000 C   0  0  0  0  0  0  0  0  0  0  0  0
    2.5981   -2.5000    0.0000 O   0  0  0  0  0  0  0  0  0  0  0  0
    1.7321   -4.0000    0.0000 N   0  0  0  0  0  0  0  0  0  0  0  0
    2.5981   -4.5000    0.0000 C   0  0  0  0  0  0  0  0  0  0  0  0
    3.4671   -3.9948    0.0000 C   0  0  0  0  0  0  0  0  0  0  0  0
    4.3332   -4.4948    0.0000 C   0  0  0  0  0  0  0  0  0  0  0  0
    4.3390   -5.4948    0.0000 C   0  0  0  0  0  0  0  0  0  0  0  0
    3.4700   -6.0000    0.0000 C   0  0  0  0  0  0  0  0  0  0  0  0
    2.5951   -5.5051    0.0000 C   0  0  0  0  0  0  0  0  0  0  0  0
    2.6010    1.4950    0.0000 N   0  0  0  0  0  0  0  0  0  0  0  0
    3.4677    1.9937    0.0000 C   0  0  0  0  0  0  0  0  0  0  0  0
    3.4662    2.9989    0.0000 C   0  0  0  0  0  0  0  0  0  0  0  0
    4.3330    3.4977    0.0000 C   0  0  0  0  0  0  0  0  0  0  0  0
    5.2012    3.0015    0.0000 C   0  0  0  0  0  0  0  0  0  0  0  0
    5.2027    1.9963    0.0000 C   0  0  0  0  0  0  0  0  0  0  0  0
    4.3360    1.4873    0.0000 C   0  0  0  0  0  0  0  0  0  0  0  0
  1  2  2  0  0  0  0
  2  3  1  0  0  0  0
  3  4  1  0  0  0  0
  4  9  2  0  0  0  0
  4  5  1  0  0  0  0
  5  6  2  0  0  0  0
  6  7  1  0  0  0  0
  7  8  2  0  0  0  0
  8  9  1  0  0  0  0
  9 10  1  0  0  0  0
 10 11  1  0  0  0  0
 11 12  1  0  0  0  0
 12 13  1  0  0  0  0
 13 14  2  0  0  0  0
 13 15  1  0  0  0  0
 15 16  1  0  0  0  0
 16 21  1  0  0  0  0
 16 17  1  0  0  0  0
 17 18  1  0  0  0  0
 18 19  1  0  0  0  0
 19 20  1  0  0  0  0
 20 21  1  0  0  0  0
  2 22  1  0  0  0  0
 22 23  1  0  0  0  0
 23 28  2  0  0  0  0
 23 24  1  0  0  0  0
 24 25  2  0  0  0  0
 25 26  1  0  0  0  0
 26 27  2  0  0  0  0
 27 28  1  0  0  0  0
M  END
$$$$
DAR-DIA-033-2
  -OEChem-03222016562D

 28 30  0     0  0  0  0  0  0999 V2000
    2.6010    1.4950    0.0000 O   0  0  0  0  0  0  0  0  0  0  0  0
    2.5995    0.4950    0.0000 C   0  0  0  0  0  0  0  0  0  0  0  0
    3.4648   -0.0063    0.0000 N   0  0  0  0  0  0  0  0  0  0  0  0
    4.3316    0.4925    0.0000 C   0  0  0  0  0  0  0  0  0  0  0  0
    4.3301    1.4977    0.0000 C   0  0  0  0  0  0  0  0  0  0  0  0
    5.1968    1.9965    0.0000 C   0  0  0  0  0  0  0  0  0  0  0  0
    6.0651    1.5003    0.0000 C   0  0  0  0  0  0  0  0  0  0  0  0
    6.0666    0.4951    0.0000 C   0  0  0  0  0  0  0  0  0  0  0  0
    5.1999   -0.0139    0.0000 C   0  0  0  0  0  0  0  0  0  0  0  0
    1.7328   -0.0038    0.0000 C   0  0  0  0  0  0  0  0  0  0  0  0
    0.8675    0.4975    0.0000 C   0  0  0  0  0  0  0  0  0  0  0  0
    0.0000    0.0000    0.0000 C   0  0  0  0  0  0  0  0  0  0  0  0
   -0.0000   -1.0000    0.0000 C   0  0  0  0  0  0  0  0  0  0  0  0
    0.8660   -1.5000    0.0000 C   0  0  0  0  0  0  0  0  0  0  0  0
    0.8660   -2.5000    0.0000 N   0  0  0  0  0  0  0  0  0  0  0  0
    1.7321   -3.0000    0.0000 C   0  0  0  0  0  0  0  0  0  0  0  0
    1.7321   -4.0000    0.0000 N   0  0  0  0  0  0  0  0  0  0  0  0
    2.5981   -4.5000    0.0000 C   0  0  0  0  0  0  0  0  0  0  0  0
    3.4671   -3.9948    0.0000 C   0  0  0  0  0  0  0  0  0  0  0  0
    4.3332   -4.4948    0.0000 C   0  0  0  0  0  0  0  0  0  0  0  0
    4.3390   -5.4948    0.0000 C   0  0  0  0  0  0  0  0  0  0  0  0
    3.4700   -6.0000    0.0000 C   0  0  0  0  0  0  0  0  0  0  0  0
    2.5951   -5.5051    0.0000 C   0  0  0  0  0  0  0  0  0  0  0  0
    2.5981   -2.5000    0.0000 O   0  0  0  0  0  0  0  0  0  0  0  0
   -0.8675    0.4975    0.0000 C   0  0  0  0  0  0  0  0  0  0  0  0
   -0.8675    1.5027    0.0000 C   0  0  0  0  0  0  0  0  0  0  0  0
    0.0000    2.0104    0.0000 N   0  0  0  0  0  0  0  0  0  0  0  0
    0.8675    1.5027    0.0000 C   0  0  0  0  0  0  0  0  0  0  0  0
  1  2  2  0  0  0  0
  2  3  1  0  0  0  0
  3  4  1  0  0  0  0
  4  9  2  0  0  0  0
  4  5  1  0  0  0  0
  5  6  2  0  0  0  0
  6  7  1  0  0  0  0
  7  8  2  0  0  0  0
  8  9  1  0  0  0  0
  2 10  1  0  0  0  0
 10 11  1  0  0  0  0
 11 28  2  0  0  0  0
 11 12  1  0  0  0  0
 12 13  1  0  0  0  0
 13 14  1  0  0  0  0
 14 15  1  0  0  0  0
 15 16  1  0  0  0  0
 16 17  1  0  0  0  0
 17 18  1  0  0  0  0
 18 23  1  0  0  0  0
 18 19  1  0  0  0  0
 19 20  1  0  0  0  0
 20 21  1  0  0  0  0
 21 22  1  0  0  0  0
 22 23  1  0  0  0  0
 16 24  2  0  0  0  0
 12 25  2  0  0  0  0
 25 26  1  0  0  0  0
 26 27  2  0  0  0  0
 27 28  1  0  0  0  0
M  END
$$$$
DAR-DIA-033-3
  -OEChem-03222016562D

 29 31  0     0  0  0  0  0  0999 V2000
    2.6010    1.4950    0.0000 O   0  0  0  0  0  0  0  0  0  0  0  0
    2.5995    0.4950    0.0000 C   0  0  0  0  0  0  0  0  0  0  0  0
    3.4648   -0.0063    0.0000 N   0  0  0  0  0  0  0  0  0  0  0  0
    4.3316    0.4925    0.0000 C   0  0  0  0  0  0  0  0  0  0  0  0
    5.1999   -0.0140    0.0000 C   0  0  0  0  0  0  0  0  0  0  0  0
    6.0667    0.4848    0.0000 C   0  0  0  0  0  0  0  0  0  0  0  0
    6.0740    1.4848    0.0000 C   0  0  0  0  0  0  0  0  0  0  0  0
    5.2057    1.9912    0.0000 C   0  0  0  0  0  0  0  0  0  0  0  0
    5.2131    2.9912    0.0000 Cl  0  0  0  0  0  0  0  0  0  0  0  0
    4.3301    1.4976    0.0000 C   0  0  0  0  0  0  0  0  0  0  0  0
    1.7328   -0.0038    0.0000 N   0  0  0  0  0  0  0  0  0  0  0  0
    0.8675    0.4975    0.0000 C   0  0  0  0  0  0  0  0  0  0  0  0
    0.0000    0.0000    0.0000 C   0  0  0  0  0  0  0  0  0  0  0  0
   -0.0000   -1.0000    0.0000 C   0  0  0  0  0  0  0  0  0  0  0  0
    0.8660   -1.5000    0.0000 C   0  0  0  0  0  0  0  0  0  0  0  0
    0.8660   -2.5000    0.0000 N   0  0  0  0  0  0  0  0  0  0  0  0
    1.7321   -3.0000    0.0000 C   0  0  0  0  0  0  0  0  0  0  0  0
    1.7321   -4.0000    0.0000 N   0  0  0  0  0  0  0  0  0  0  0  0
    2.5981   -4.5000    0.0000 C   0  0  0  0  0  0  0  0  0  0  0  0
    3.4671   -3.9948    0.0000 C   0  0  0  0  0  0  0  0  0  0  0  0
    4.3332   -4.4948    0.0000 C   0  0  0  0  0  0  0  0  0  0  0  0
    4.3390   -5.4948    0.0000 C   0  0  0  0  0  0  0  0  0  0  0  0
    3.4700   -6.0000    0.0000 C   0  0  0  0  0  0  0  0  0  0  0  0
    2.5951   -5.5051    0.0000 C   0  0  0  0  0  0  0  0  0  0  0  0
    2.5981   -2.5000    0.0000 O   0  0  0  0  0  0  0  0  0  0  0  0
   -0.8675    0.4975    0.0000 C   0  0  0  0  0  0  0  0  0  0  0  0
   -0.8675    1.5027    0.0000 C   0  0  0  0  0  0  0  0  0  0  0  0
    0.0000    2.0104    0.0000 N   0  0  0  0  0  0  0  0  0  0  0  0
    0.8675    1.5027    0.0000 C   0  0  0  0  0  0  0  0  0  0  0  0
  1  2  2  0  0  0  0
  2  3  1  0  0  0  0
  3  4  1  0  0  0  0
  4 10  2  0  0  0  0
  4  5  1  0  0  0  0
  5  6  2  0  0  0  0
  6  7  1  0  0  0  0
  7  8  2  0  0  0  0
  8  9  1  0  0  0  0
  8 10  1  0  0  0  0
  2 11  1  0  0  0  0
 11 12  1  0  0  0  0
 12 29  2  0  0  0  0
 12 13  1  0  0  0  0
 13 14  1  0  0  0  0
 14 15  1  0  0  0  0
 15 16  1  0  0  0  0
 16 17  1  0  0  0  0
 17 18  1  0  0  0  0
 18 19  1  0  0  0  0
 19 24  1  0  0  0  0
 19 20  1  0  0  0  0
 20 21  1  0  0  0  0
 21 22  1  0  0  0  0
 22 23  1  0  0  0  0
 23 24  1  0  0  0  0
 17 25  2  0  0  0  0
 13 26  2  0  0  0  0
 26 27  1  0  0  0  0
 27 28  2  0  0  0  0
 28 29  1  0  0  0  0
M  END
$$$$
DAR-DIA-033-4
  -OEChem-03222016562D

 30 32  0     0  0  0  0  0  0999 V2000
    2.6010    1.4950    0.0000 O   0  0  0  0  0  0  0  0  0  0  0  0
    2.5995    0.4950    0.0000 C   0  0  0  0  0  0  0  0  0  0  0  0
    3.4648   -0.0063    0.0000 N   0  0  0  0  0  0  0  0  0  0  0  0
    4.3316    0.4925    0.0000 C   0  0  0  0  0  0  0  0  0  0  0  0
    5.1999   -0.0140    0.0000 C   0  0  0  0  0  0  0  0  0  0  0  0
    6.0667    0.4848    0.0000 C   0  0  0  0  0  0  0  0  0  0  0  0
    6.0740    1.4848    0.0000 C   0  0  0  0  0  0  0  0  0  0  0  0
    5.2057    1.9912    0.0000 C   0  0  0  0  0  0  0  0  0  0  0  0
    5.2131    2.9912    0.0000 C   0  0  0  0  0  0  0  0  0  0  0  0
    5.2204    3.9911    0.0000 N   0  0  0  0  0  0  0  0  0  0  0  0
    4.3301    1.4976    0.0000 C   0  0  0  0  0  0  0  0  0  0  0  0
    1.7328   -0.0038    0.0000 N   0  0  0  0  0  0  0  0  0  0  0  0
    0.8675    0.4975    0.0000 C   0  0  0  0  0  0  0  0  0  0  0  0
    0.0000    0.0000    0.0000 C   0  0  0  0  0  0  0  0  0  0  0  0
   -0.0000   -1.0000    0.0000 C   0  0  0  0  0  0  0  0  0  0  0  0
    0.8660   -1.5000    0.0000 C   0  0  0  0  0  0  0  0  0  0  0  0
    0.8660   -2.5000    0.0000 N   0  0  0  0  0  0  0  0  0  0  0  0
    1.7321   -3.0000    0.0000 C   0  0  0  0  0  0  0  0  0  0  0  0
    1.7321   -4.0000    0.0000 N   0  0  0  0  0  0  0  0  0  0  0  0
    2.5981   -4.5000    0.0000 C   0  0  0  0  0  0  0  0  0  0  0  0
    3.4671   -3.9948    0.0000 C   0  0  0  0  0  0  0  0  0  0  0  0
    4.3332   -4.4948    0.0000 C   0  0  0  0  0  0  0  0  0  0  0  0
    4.3390   -5.4948    0.0000 C   0  0  0  0  0  0  0  0  0  0  0  0
    3.4700   -6.0000    0.0000 C   0  0  0  0  0  0  0  0  0  0  0  0
    2.5951   -5.5051    0.0000 C   0  0  0  0  0  0  0  0  0  0  0  0
    2.5981   -2.5000    0.0000 O   0  0  0  0  0  0  0  0  0  0  0  0
   -0.8675    0.4975    0.0000 C   0  0  0  0  0  0  0  0  0  0  0  0
   -0.8675    1.5027    0.0000 C   0  0  0  0  0  0  0  0  0  0  0  0
    0.0000    2.0104    0.0000 N   0  0  0  0  0  0  0  0  0  0  0  0
    0.8675    1.5027    0.0000 C   0  0  0  0  0  0  0  0  0  0  0  0
  1  2  2  0  0  0  0
  2  3  1  0  0  0  0
  3  4  1  0  0  0  0
  4 11  2  0  0  0  0
  4  5  1  0  0  0  0
  5  6  2  0  0  0  0
  6  7  1  0  0  0  0
  7  8  2  0  0  0  0
  8  9  1  0  0  0  0
  9 10  3  0  0  0  0
  8 11  1  0  0  0  0
  2 12  1  0  0  0  0
 12 13  1  0  0  0  0
 13 30  2  0  0  0  0
 13 14  1  0  0  0  0
 14 15  1  0  0  0  0
 15 16  1  0  0  0  0
 16 17  1  0  0  0  0
 17 18  1  0  0  0  0
 18 19  1  0  0  0  0
 19 20  1  0  0  0  0
 20 25  1  0  0  0  0
 20 21  1  0  0  0  0
 21 22  1  0  0  0  0
 22 23  1  0  0  0  0
 23 24  1  0  0  0  0
 24 25  1  0  0  0  0
 18 26  2  0  0  0  0
 14 27  2  0  0  0  0
 27 28  1  0  0  0  0
 28 29  2  0  0  0  0
 29 30  1  0  0  0  0
M  END
$$$$
DAR-DIA-033-5
  -OEChem-03222016562D

 28 30  0     0  0  0  0  0  0999 V2000
    3.4648   -0.0063    0.0000 O   0  0  0  0  0  0  0  0  0  0  0  0
    2.5995    0.4950    0.0000 C   0  0  0  0  0  0  0  0  0  0  0  0
    1.7328   -0.0038    0.0000 N   0  0  0  0  0  0  0  0  0  0  0  0
    0.8675    0.4975    0.0000 C   0  0  0  0  0  0  0  0  0  0  0  0
    0.8675    1.5027    0.0000 C   0  0  0  0  0  0  0  0  0  0  0  0
   -0.0000    2.0104    0.0000 N   0  0  0  0  0  0  0  0  0  0  0  0
   -0.8675    1.5027    0.0000 C   0  0  0  0  0  0  0  0  0  0  0  0
   -0.8675    0.4975    0.0000 C   0  0  0  0  0  0  0  0  0  0  0  0
    0.0000    0.0000    0.0000 C   0  0  0  0  0  0  0  0  0  0  0  0
    0.0000   -1.0000    0.0000 C   0  0  0  0  0  0  0  0  0  0  0  0
    0.8660   -1.5000    0.0000 C   0  0  0  0  0  0  0  0  0  0  0  0
    0.8660   -2.5000    0.0000 N   0  0  0  0  0  0  0  0  0  0  0  0
    1.7321   -3.0000    0.0000 C   0  0  0  0  0  0  0  0  0  0  0  0
    2.5981   -2.5000    0.0000 O   0  0  0  0  0  0  0  0  0  0  0  0
    1.7321   -4.0000    0.0000 N   0  0  0  0  0  0  0  0  0  0  0  0
    2.5981   -4.5000    0.0000 C   0  0  0  0  0  0  0  0  0  0  0  0
    3.4671   -3.9948    0.0000 C   0  0  0  0  0  0  0  0  0  0  0  0
    4.3332   -4.4948    0.0000 C   0  0  0  0  0  0  0  0  0  0  0  0
    4.3390   -5.4948    0.0000 C   0  0  0  0  0  0  0  0  0  0  0  0
    3.4700   -6.0000    0.0000 C   0  0  0  0  0  0  0  0  0  0  0  0
    2.5951   -5.5051    0.0000 C   0  0  0  0  0  0  0  0  0  0  0  0
    2.6010    1.4950    0.0000 C   0  0  0  0  0  0  0  0  0  0  0  0
    3.4677    1.9937    0.0000 C   0  0  0  0  0  0  0  0  0  0  0  0
    3.4662    2.9989    0.0000 C   0  0  0  0  0  0  0  0  0  0  0  0
    4.3330    3.4977    0.0000 C   0  0  0  0  0  0  0  0  0  0  0  0
    5.2012    3.0015    0.0000 C   0  0  0  0  0  0  0  0  0  0  0  0
    5.2027    1.9963    0.0000 C   0  0  0  0  0  0  0  0  0  0  0  0
    4.3360    1.4873    0.0000 C   0  0  0  0  0  0  0  0  0  0  0  0
  1  2  2  0  0  0  0
  2  3  1  0  0  0  0
  3  4  1  0  0  0  0
  4  9  1  0  0  0  0
  4  5  2  0  0  0  0
  5  6  1  0  0  0  0
  6  7  2  0  0  0  0
  7  8  1  0  0  0  0
  8  9  2  0  0  0  0
  9 10  1  0  0  0  0
 10 11  1  0  0  0  0
 11 12  1  0  0  0  0
 12 13  1  0  0  0  0
 13 14  2  0  0  0  0
 13 15  1  0  0  0  0
 15 16  1  0  0  0  0
 16 21  1  0  0  0  0
 16 17  1  0  0  0  0
 17 18  1  0  0  0  0
 18 19  1  0  0  0  0
 19 20  1  0  0  0  0
 20 21  1  0  0  0  0
  2 22  1  0  0  0  0
 22 23  1  0  0  0  0
 23 28  1  0  0  0  0
 23 24  1  0  0  0  0
 24 25  1  0  0  0  0
 25 26  1  0  0  0  0
 26 27  1  0  0  0  0
 27 28  1  0  0  0  0
M  END
$$$$
DAR-DIA-033-6
  -OEChem-03222016562D

 29 31  0     0  0  0  0  0  0999 V2000
    2.5996    2.5129    0.0000 O   0  0  0  0  0  0  0  0  0  0  0  0
    1.7335    3.0129    0.0000 C   0  0  0  0  0  0  0  0  0  0  0  0
    0.8675    2.5129    0.0000 C   0  0  0  0  0  0  0  0  0  0  0  0
    0.8675    1.5129    0.0000 N   0  0  0  0  0  0  0  0  0  0  0  0
    0.0000    1.0052    0.0000 C   0  0  0  0  0  0  0  0  0  0  0  0
    0.0000    0.0000    0.0000 C   0  0  0  0  0  0  0  0  0  0  0  0
    0.8675   -0.4975    0.0000 N   0  0  0  0  0  0  0  0  0  0  0  0
    0.8675   -1.4975    0.0000 C   0  0  0  0  0  0  0  0  0  0  0  0
    1.7350    0.0000    0.0000 C   0  0  0  0  0  0  0  0  0  0  0  0
    1.7350    1.0052    0.0000 C   0  0  0  0  0  0  0  0  0  0  0  0
    1.7335    4.0129    0.0000 N   0  0  0  0  0  0  0  0  0  0  0  0
    2.5996    4.5129    0.0000 C   0  0  0  0  0  0  0  0  0  0  0  0
    2.6010    5.5129    0.0000 C   0  0  0  0  0  0  0  0  0  0  0  0
    1.7343    6.0117    0.0000 C   0  0  0  0  0  0  0  0  0  0  0  0
    0.8690    5.5104    0.0000 C   0  0  0  0  0  0  0  0  0  0  0  0
    0.0022    6.0092    0.0000 N   0  0  0  0  0  0  0  0  0  0  0  0
   -0.8631    5.5079    0.0000 C   0  0  0  0  0  0  0  0  0  0  0  0
   -1.7298    6.0066    0.0000 N   0  0  0  0  0  0  0  0  0  0  0  0
   -2.5951    5.5054    0.0000 C   0  0  0  0  0  0  0  0  0  0  0  0
   -2.5907    4.5002    0.0000 C   0  0  0  0  0  0  0  0  0  0  0  0
   -3.4560    3.9989    0.0000 C   0  0  0  0  0  0  0  0  0  0  0  0
   -4.3257    4.4926    0.0000 C   0  0  0  0  0  0  0  0  0  0  0  0
   -4.3301    5.4978    0.0000 C   0  0  0  0  0  0  0  0  0  0  0  0
   -3.4649    6.0093    0.0000 C   0  0  0  0  0  0  0  0  0  0  0  0
   -0.8616    4.5079    0.0000 O   0  0  0  0  0  0  0  0  0  0  0  0
    3.4649    6.0167    0.0000 C   0  0  0  0  0  0  0  0  0  0  0  0
    4.3361    5.5154    0.0000 C   0  0  0  0  0  0  0  0  0  0  0  0
    4.3435    4.5103    0.0000 N   0  0  0  0  0  0  0  0  0  0  0  0
    3.4708    4.0116    0.0000 C   0  0  0  0  0  0  0  0  0  0  0  0
  1  2  2  0  0  0  0
  2  3  1  0  0  0  0
  3  4  1  0  0  0  0
  4 10  1  0  0  0  0
  4  5  1  0  0  0  0
  5  6  1  0  0  0  0
  6  7  1  0  0  0  0
  7  8  1  0  0  0  0
  7  9  1  0  0  0  0
  9 10  1  0  0  0  0
  2 11  1  0  0  0  0
 11 12  1  0  0  0  0
 12 29  2  0  0  0  0
 12 13  1  0  0  0  0
 13 14  1  0  0  0  0
 14 15  1  0  0  0  0
 15 16  1  0  0  0  0
 16 17  1  0  0  0  0
 17 18  1  0  0  0  0
 18 19  1  0  0  0  0
 19 24  1  0  0  0  0
 19 20  1  0  0  0  0
 20 21  1  0  0  0  0
 21 22  1  0  0  0  0
 22 23  1  0  0  0  0
 23 24  1  0  0  0  0
 17 25  2  0  0  0  0
 13 26  2  0  0  0  0
 26 27  1  0  0  0  0
 27 28  2  0  0  0  0
 28 29  1  0  0  0  0
M  END
$$$$
DAR-DIA-033-7
  -OEChem-03222016562D

 28 30  0     0  0  0  0  0  0999 V2000
    3.4648   -0.0063    0.0000 O   0  0  0  0  0  0  0  0  0  0  0  0
    2.5995    0.4950    0.0000 C   0  0  0  0  0  0  0  0  0  0  0  0
    1.7328   -0.0038    0.0000 N   0  0  0  0  0  0  0  0  0  0  0  0
    0.8675    0.4975    0.0000 C   0  0  0  0  0  0  0  0  0  0  0  0
    0.8675    1.5027    0.0000 C   0  0  0  0  0  0  0  0  0  0  0  0
   -0.0000    2.0104    0.0000 N   0  0  0  0  0  0  0  0  0  0  0  0
   -0.8675    1.5027    0.0000 C   0  0  0  0  0  0  0  0  0  0  0  0
   -0.8675    0.4975    0.0000 C   0  0  0  0  0  0  0  0  0  0  0  0
    0.0000    0.0000    0.0000 C   0  0  0  0  0  0  0  0  0  0  0  0
    0.0000   -1.0000    0.0000 C   0  0  0  0  0  0  0  0  0  0  0  0
    0.8660   -1.5000    0.0000 C   0  0  0  0  0  0  0  0  0  0  0  0
    0.8660   -2.5000    0.0000 N   0  0  0  0  0  0  0  0  0  0  0  0
    1.7321   -3.0000    0.0000 C   0  0  0  0  0  0  0  0  0  0  0  0
    2.5981   -2.5000    0.0000 O   0  0  0  0  0  0  0  0  0  0  0  0
    1.7321   -4.0000    0.0000 N   0  0  0  0  0  0  0  0  0  0  0  0
    2.5981   -4.5000    0.0000 C   0  0  0  0  0  0  0  0  0  0  0  0
    3.4671   -3.9948    0.0000 C   0  0  0  0  0  0  0  0  0  0  0  0
    4.3332   -4.4948    0.0000 C   0  0  0  0  0  0  0  0  0  0  0  0
    4.3390   -5.4948    0.0000 C   0  0  0  0  0  0  0  0  0  0  0  0
    3.4700   -6.0000    0.0000 C   0  0  0  0  0  0  0  0  0  0  0  0
    2.5951   -5.5051    0.0000 C   0  0  0  0  0  0  0  0  0  0  0  0
    2.6010    1.4950    0.0000 C   0  0  0  0  0  0  0  0  0  0  0  0
    3.4677    1.9937    0.0000 C   0  0  0  0  0  0  0  0  0  0  0  0
    3.4662    2.9989    0.0000 C   0  0  0  0  0  0  0  0  0  0  0  0
    4.3330    3.4977    0.0000 C   0  0  0  0  0  0  0  0  0  0  0  0
    5.2012    3.0015    0.0000 C   0  0  0  0  0  0  0  0  0  0  0  0
    5.2027    1.9963    0.0000 C   0  0  0  0  0  0  0  0  0  0  0  0
    4.3360    1.4873    0.0000 C   0  0  0  0  0  0  0  0  0  0  0  0
  1  2  2  0  0  0  0
  2  3  1  0  0  0  0
  3  4  1  0  0  0  0
  4  9  1  0  0  0  0
  4  5  2  0  0  0  0
  5  6  1  0  0  0  0
  6  7  2  0  0  0  0
  7  8  1  0  0  0  0
  8  9  2  0  0  0  0
  9 10  1  0  0  0  0
 10 11  1  0  0  0  0
 11 12  1  0  0  0  0
 12 13  1  0  0  0  0
 13 14  2  0  0  0  0
 13 15  1  0  0  0  0
 15 16  1  0  0  0  0
 16 21  1  0  0  0  0
 16 17  1  0  0  0  0
 17 18  1  0  0  0  0
 18 19  1  0  0  0  0
 19 20  1  0  0  0  0
 20 21  1  0  0  0  0
  2 22  1  0  0  0  0
 22 23  1  0  0  0  0
 23 28  2  0  0  0  0
 23 24  1  0  0  0  0
 24 25  2  0  0  0  0
 25 26  1  0  0  0  0
 26 27  2  0  0  0  0
 27 28  1  0  0  0  0
M  END
$$$$
DAR-DIA-033-8
  -OEChem-03222016562D

 28 30  0     0  0  0  0  0  0999 V2000
    2.6010    1.4950    0.0000 O   0  0  0  0  0  0  0  0  0  0  0  0
    2.5995    0.4950    0.0000 C   0  0  0  0  0  0  0  0  0  0  0  0
    3.4648   -0.0063    0.0000 C   0  0  0  0  0  0  0  0  0  0  0  0
    4.3316    0.4925    0.0000 C   0  0  0  0  0  0  0  0  0  0  0  0
    4.3301    1.4977    0.0000 C   0  0  0  0  0  0  0  0  0  0  0  0
    5.1968    1.9965    0.0000 C   0  0  0  0  0  0  0  0  0  0  0  0
    6.0651    1.5003    0.0000 C   0  0  0  0  0  0  0  0  0  0  0  0
    6.0666    0.4951    0.0000 C   0  0  0  0  0  0  0  0  0  0  0  0
    5.1999   -0.0139    0.0000 C   0  0  0  0  0  0  0  0  0  0  0  0
    1.7328   -0.0038    0.0000 N   0  0  0  0  0  0  0  0  0  0  0  0
    0.8675    0.4975    0.0000 C   0  0  0  0  0  0  0  0  0  0  0  0
    0.0000    0.0000    0.0000 C   0  0  0  0  0  0  0  0  0  0  0  0
   -0.0000   -1.0000    0.0000 C   0  0  0  0  0  0  0  0  0  0  0  0
    0.8660   -1.5000    0.0000 C   0  0  0  0  0  0  0  0  0  0  0  0
    0.8660   -2.5000    0.0000 N   0  0  0  0  0  0  0  0  0  0  0  0
    1.7321   -3.0000    0.0000 C   0  0  0  0  0  0  0  0  0  0  0  0
    1.7321   -4.0000    0.0000 N   0  0  0  0  0  0  0  0  0  0  0  0
    0.8646   -4.5077    0.0000 C   0  0  0  0  0  0  0  0  0  0  0  0
    0.8646   -5.5129    0.0000 C   0  0  0  0  0  0  0  0  0  0  0  0
    1.7321   -6.0104    0.0000 N   0  0  0  0  0  0  0  0  0  0  0  0
    1.7321   -7.0104    0.0000 C   0  0  0  0  0  0  0  0  0  0  0  0
    2.5996   -5.5129    0.0000 C   0  0  0  0  0  0  0  0  0  0  0  0
    2.5996   -4.5077    0.0000 C   0  0  0  0  0  0  0  0  0  0  0  0
    2.5981   -2.5000    0.0000 O   0  0  0  0  0  0  0  0  0  0  0  0
   -0.8675    0.4975    0.0000 C   0  0  0  0  0  0  0  0  0  0  0  0
   -0.8675    1.5027    0.0000 C   0  0  0  0  0  0  0  0  0  0  0  0
    0.0000    2.0104    0.0000 N   0  0  0  0  0  0  0  0  0  0  0  0
    0.8675    1.5027    0.0000 C   0  0  0  0  0  0  0  0  0  0  0  0
  1  2  2  0  0  0  0
  2  3  1  0  0  0  0
  3  4  1  0  0  0  0
  4  9  2  0  0  0  0
  4  5  1  0  0  0  0
  5  6  2  0  0  0  0
  6  7  1  0  0  0  0
  7  8  2  0  0  0  0
  8  9  1  0  0  0  0
  2 10  1  0  0  0  0
 10 11  1  0  0  0  0
 11 28  2  0  0  0  0
 11 12  1  0  0  0  0
 12 13  1  0  0  0  0
 13 14  1  0  0  0  0
 14 15  1  0  0  0  0
 15 16  1  0  0  0  0
 16 17  1  0  0  0  0
 17 23  1  0  0  0  0
 17 18  1  0  0  0  0
 18 19  1  0  0  0  0
 19 20  1  0  0  0  0
 20 21  1  0  0  0  0
 20 22  1  0  0  0  0
 22 23  1  0  0  0  0
 16 24  2  0  0  0  0
 12 25  2  0  0  0  0
 25 26  1  0  0  0  0
 26 27  2  0  0  0  0
 27 28  1  0  0  0  0
M  END
$$$$
DAR-DIA-033-9
  -OEChem-03222016562D

 27 29  0     0  0  0  0  0  0999 V2000
    2.6010    1.4950    0.0000 O   0  0  0  0  0  0  0  0  0  0  0  0
    2.5995    0.4950    0.0000 C   0  0  0  0  0  0  0  0  0  0  0  0
    1.7328   -0.0038    0.0000 N   0  0  0  0  0  0  0  0  0  0  0  0
    0.8675    0.4975    0.0000 C   0  0  0  0  0  0  0  0  0  0  0  0
    0.8675    1.5027    0.0000 C   0  0  0  0  0  0  0  0  0  0  0  0
   -0.0000    2.0104    0.0000 N   0  0  0  0  0  0  0  0  0  0  0  0
   -0.8675    1.5027    0.0000 C   0  0  0  0  0  0  0  0  0  0  0  0
   -0.8675    0.4975    0.0000 C   0  0  0  0  0  0  0  0  0  0  0  0
    0.0000    0.0000    0.0000 C   0  0  0  0  0  0  0  0  0  0  0  0
    0.0000   -1.0000    0.0000 C   0  0  0  0  0  0  0  0  0  0  0  0
    0.8660   -1.5000    0.0000 C   0  0  0  0  0  0  0  0  0  0  0  0
    0.8660   -2.5000    0.0000 N   0  0  0  0  0  0  0  0  0  0  0  0
    1.7321   -3.0000    0.0000 C   0  0  0  0  0  0  0  0  0  0  0  0
    2.5981   -2.5000    0.0000 O   0  0  0  0  0  0  0  0  0  0  0  0
    1.7321   -4.0000    0.0000 N   0  0  0  0  0  0  0  0  0  0  0  0
    0.8646   -4.5077    0.0000 C   0  0  0  0  0  0  0  0  0  0  0  0
    0.8646   -5.5129    0.0000 C   0  0  0  0  0  0  0  0  0  0  0  0
    1.7321   -6.0104    0.0000 C   0  0  0  0  0  0  0  0  0  0  0  0
    2.5996   -5.5129    0.0000 C   0  0  0  0  0  0  0  0  0  0  0  0
    2.5996   -4.5077    0.0000 C   0  0  0  0  0  0  0  0  0  0  0  0
    3.4648   -0.0063    0.0000 C   0  0  0  0  0  0  0  0  0  0  0  0
    4.3316    0.4925    0.0000 C   0  0  0  0  0  0  0  0  0  0  0  0
    5.1999   -0.0139    0.0000 C   0  0  0  0  0  0  0  0  0  0  0  0
    6.0667    0.4848    0.0000 C   0  0  0  0  0  0  0  0  0  0  0  0
    6.0740    1.4848    0.0000 C   0  0  0  0  0  0  0  0  0  0  0  0
    5.2057    1.9912    0.0000 C   0  0  0  0  0  0  0  0  0  0  0  0
    4.3301    1.4976    0.0000 C   0  0  0  0  0  0  0  0  0  0  0  0
  1  2  2  0  0  0  0
  2  3  1  0  0  0  0
  3  4  1  0  0  0  0
  4  9  1  0  0  0  0
  4  5  2  0  0  0  0
  5  6  1  0  0  0  0
  6  7  2  0  0  0  0
  7  8  1  0  0  0  0
  8  9  2  0  0  0  0
  9 10  1  0  0  0  0
 10 11  1  0  0  0  0
 11 12  1  0  0  0  0
 12 13  1  0  0  0  0
 13 14  2  0  0  0  0
 13 15  1  0  0  0  0
 15 20  1  0  0  0  0
 15 16  1  0  0  0  0
 16 17  1  0  0  0  0
 17 18  1  0  0  0  0
 18 19  1  0  0  0  0
 19 20  1  0  0  0  0
  2 21  1  0  0  0  0
 21 22  1  0  0  0  0
 22 27  2  0  0  0  0
 22 23  1  0  0  0  0
 23 24  2  0  0  0  0
 24 25  1  0  0  0  0
 25 26  2  0  0  0  0
 26 27  1  0  0  0  0
M  END
$$$$
DAR-DIA-033-10
  -OEChem-03222016562D

 27 29  0     0  0  0  0  0  0999 V2000
    2.6010    1.4950    0.0000 O   0  0  0  0  0  0  0  0  0  0  0  0
    2.5995    0.4950    0.0000 C   0  0  0  0  0  0  0  0  0  0  0  0
    3.4648   -0.0063    0.0000 C   0  0  0  0  0  0  0  0  0  0  0  0
    4.3316    0.4925    0.0000 C   0  0  0  0  0  0  0  0  0  0  0  0
    4.3301    1.4977    0.0000 C   0  0  0  0  0  0  0  0  0  0  0  0
    5.1968    1.9965    0.0000 C   0  0  0  0  0  0  0  0  0  0  0  0
    6.0651    1.5003    0.0000 C   0  0  0  0  0  0  0  0  0  0  0  0
    6.0666    0.4951    0.0000 C   0  0  0  0  0  0  0  0  0  0  0  0
    5.1999   -0.0139    0.0000 C   0  0  0  0  0  0  0  0  0  0  0  0
    1.7328   -0.0038    0.0000 N   0  0  0  0  0  0  0  0  0  0  0  0
    0.8675    0.4975    0.0000 C   0  0  0  0  0  0  0  0  0  0  0  0
    0.0000    0.0000    0.0000 C   0  0  0  0  0  0  0  0  0  0  0  0
   -0.0000   -1.0000    0.0000 C   0  0  0  0  0  0  0  0  0  0  0  0
    0.8660   -1.5000    0.0000 C   0  0  0  0  0  0  0  0  0  0  0  0
    0.8660   -2.5000    0.0000 N   0  0  0  0  0  0  0  0  0  0  0  0
    1.7321   -3.0000    0.0000 C   0  0  0  0  0  0  0  0  0  0  0  0
    1.7321   -4.0000    0.0000 N   0  0  0  0  0  0  0  0  0  0  0  0
    2.5996   -4.4975    0.0000 C   0  0  0  0  0  0  0  0  0  0  0  0
    2.5996   -5.5027    0.0000 C   0  0  0  0  0  0  0  0  0  0  0  0
    1.7320   -6.0104    0.0000 O   0  0  0  0  0  0  0  0  0  0  0  0
    0.8646   -5.5027    0.0000 C   0  0  0  0  0  0  0  0  0  0  0  0
    0.8646   -4.4975    0.0000 C   0  0  0  0  0  0  0  0  0  0  0  0
    2.5981   -2.5000    0.0000 O   0  0  0  0  0  0  0  0  0  0  0  0
   -0.8675    0.4975    0.0000 C   0  0  0  0  0  0  0  0  0  0  0  0
   -0.8675    1.5027    0.0000 C   0  0  0  0  0  0  0  0  0  0  0  0
    0.0000    2.0104    0.0000 N   0  0  0  0  0  0  0  0  0  0  0  0
    0.8675    1.5027    0.0000 C   0  0  0  0  0  0  0  0  0  0  0  0
  1  2  2  0  0  0  0
  2  3  1  0  0  0  0
  3  4  1  0  0  0  0
  4  9  2  0  0  0  0
  4  5  1  0  0  0  0
  5  6  2  0  0  0  0
  6  7  1  0  0  0  0
  7  8  2  0  0  0  0
  8  9  1  0  0  0  0
  2 10  1  0  0  0  0
 10 11  1  0  0  0  0
 11 27  2  0  0  0  0
 11 12  1  0  0  0  0
 12 13  1  0  0  0  0
 13 14  1  0  0  0  0
 14 15  1  0  0  0  0
 15 16  1  0  0  0  0
 16 17  1  0  0  0  0
 17 22  1  0  0  0  0
 17 18  1  0  0  0  0
 18 19  1  0  0  0  0
 19 20  1  0  0  0  0
 20 21  1  0  0  0  0
 21 22  1  0  0  0  0
 16 23  2  0  0  0  0
 12 24  2  0  0  0  0
 24 25  1  0  0  0  0
 25 26  2  0  0  0  0
 26 27  1  0  0  0  0
M  END
$$$$
DAR-DIA-033-11
  -OEChem-03222016562D

 27 29  0     0  0  0  0  0  0999 V2000
    2.6010    1.4950    0.0000 O   0  0  0  0  0  0  0  0  0  0  0  0
    2.5995    0.4950    0.0000 C   0  0  0  0  0  0  0  0  0  0  0  0
    3.4648   -0.0063    0.0000 N   0  0  0  0  0  0  0  0  0  0  0  0
    4.3316    0.4925    0.0000 C   0  0  0  0  0  0  0  0  0  0  0  0
    4.3301    1.4977    0.0000 C   0  0  0  0  0  0  0  0  0  0  0  0
    5.1968    1.9965    0.0000 C   0  0  0  0  0  0  0  0  0  0  0  0
    6.0651    1.5003    0.0000 C   0  0  0  0  0  0  0  0  0  0  0  0
    6.0666    0.4951    0.0000 C   0  0  0  0  0  0  0  0  0  0  0  0
    5.1999   -0.0139    0.0000 C   0  0  0  0  0  0  0  0  0  0  0  0
    1.7328   -0.0038    0.0000 N   0  0  0  0  0  0  0  0  0  0  0  0
    0.8675    0.4975    0.0000 C   0  0  0  0  0  0  0  0  0  0  0  0
    0.0000    0.0000    0.0000 C   0  0  0  0  0  0  0  0  0  0  0  0
   -0.0000   -1.0000    0.0000 C   0  0  0  0  0  0  0  0  0  0  0  0
    0.8660   -1.5000    0.0000 C   0  0  0  0  0  0  0  0  0  0  0  0
    0.8660   -2.5000    0.0000 N   0  0  0  0  0  0  0  0  0  0  0  0
    1.7321   -3.0000    0.0000 C   0  0  0  0  0  0  0  0  0  0  0  0
    1.7321   -4.0000    0.0000 N   0  0  0  0  0  0  0  0  0  0  0  0
    0.8646   -4.5077    0.0000 C   0  0  0  0  0  0  0  0  0  0  0  0
    0.8646   -5.5129    0.0000 C   0  0  0  0  0  0  0  0  0  0  0  0
    1.7321   -6.0104    0.0000 C   0  0  0  0  0  0  0  0  0  0  0  0
    2.5996   -5.5129    0.0000 C   0  0  0  0  0  0  0  0  0  0  0  0
    2.5996   -4.5077    0.0000 C   0  0  0  0  0  0  0  0  0  0  0  0
    2.5981   -2.5000    0.0000 O   0  0  0  0  0  0  0  0  0  0  0  0
   -0.8675    0.4975    0.0000 C   0  0  0  0  0  0  0  0  0  0  0  0
   -0.8675    1.5027    0.0000 C   0  0  0  0  0  0  0  0  0  0  0  0
    0.0000    2.0104    0.0000 N   0  0  0  0  0  0  0  0  0  0  0  0
    0.8675    1.5027    0.0000 C   0  0  0  0  0  0  0  0  0  0  0  0
  1  2  2  0  0  0  0
  2  3  1  0  0  0  0
  3  4  1  0  0  0  0
  4  9  2  0  0  0  0
  4  5  1  0  0  0  0
  5  6  2  0  0  0  0
  6  7  1  0  0  0  0
  7  8  2  0  0  0  0
  8  9  1  0  0  0  0
  2 10  1  0  0  0  0
 10 11  1  0  0  0  0
 11 27  2  0  0  0  0
 11 12  1  0  0  0  0
 12 13  1  0  0  0  0
 13 14  1  0  0  0  0
 14 15  1  0  0  0  0
 15 16  1  0  0  0  0
 16 17  1  0  0  0  0
 17 22  1  0  0  0  0
 17 18  1  0  0  0  0
 18 19  1  0  0  0  0
 19 20  1  0  0  0  0
 20 21  1  0  0  0  0
 21 22  1  0  0  0  0
 16 23  2  0  0  0  0
 12 24  2  0  0  0  0
 24 25  1  0  0  0  0
 25 26  2  0  0  0  0
 26 27  1  0  0  0  0
M  END
$$$$
DAR-DIA-033-12
  -OEChem-03222016562D

 29 32  0     0  0  0  0  0  0999 V2000
    6.6547    1.5431    0.0000 C   0  0  0  0  0  0  0  0  0  0  0  0
    5.9896    0.7964    0.0000 N   0  0  0  0  0  0  0  0  0  0  0  0
    6.2998   -0.1598    0.0000 C   0  0  0  0  0  0  0  0  0  0  0  0
    5.6312   -0.9104    0.0000 C   0  0  0  0  0  0  0  0  0  0  0  0
    4.6525   -0.7049    0.0000 N   0  0  0  0  0  0  0  0  0  0  0  0
    3.9874   -1.4517    0.0000 C   0  0  0  0  0  0  0  0  0  0  0  0
    3.0082   -1.2491    0.0000 C   0  0  0  0  0  0  0  0  0  0  0  0
    2.6940   -0.2997    0.0000 C   0  0  0  0  0  0  0  0  0  0  0  0
    1.7405    0.0044    0.0000 C   0  0  0  0  0  0  0  0  0  0  0  0
    1.7350    1.0052    0.0000 C   0  0  0  0  0  0  0  0  0  0  0  0
    0.8675    1.5129    0.0000 N   0  0  0  0  0  0  0  0  0  0  0  0
    0.0000    1.0052    0.0000 C   0  0  0  0  0  0  0  0  0  0  0  0
    0.0000    0.0000    0.0000 C   0  0  0  0  0  0  0  0  0  0  0  0
    0.8675   -0.4975    0.0000 C   0  0  0  0  0  0  0  0  0  0  0  0
    0.8680   -1.4975    0.0000 N   0  0  0  0  0  0  0  0  0  0  0  0
    0.0023   -1.9980    0.0000 C   0  0  0  0  0  0  0  0  0  0  0  0
   -0.8640   -1.4984    0.0000 O   0  0  0  0  0  0  0  0  0  0  0  0
    0.0028   -2.9980    0.0000 N   0  0  0  0  0  0  0  0  0  0  0  0
   -0.8629   -3.4984    0.0000 C   0  0  0  0  0  0  0  0  0  0  0  0
   -1.7323   -2.9937    0.0000 C   0  0  0  0  0  0  0  0  0  0  0  0
   -2.5981   -3.4942    0.0000 C   0  0  0  0  0  0  0  0  0  0  0  0
   -2.6034   -4.4942    0.0000 C   0  0  0  0  0  0  0  0  0  0  0  0
   -1.7341   -4.9989    0.0000 C   0  0  0  0  0  0  0  0  0  0  0  0
   -0.8594   -4.5036    0.0000 C   0  0  0  0  0  0  0  0  0  0  0  0
    2.6851    1.3196    0.0000 N   0  0  0  0  0  0  0  0  0  0  0  0
    3.2780    0.5133    0.0000 C   0  0  0  0  0  0  0  0  0  0  0  0
    4.3016   -2.4011    0.0000 O   0  0  0  0  0  0  0  0  0  0  0  0
    4.3356    0.2436    0.0000 C   0  0  0  0  0  0  0  0  0  0  0  0
    5.0041    0.9942    0.0000 C   0  0  0  0  0  0  0  0  0  0  0  0
  1  2  1  0  0  0  0
  2 29  1  0  0  0  0
  2  3  1  0  0  0  0
  3  4  1  0  0  0  0
  4  5  1  0  0  0  0
  5  6  1  0  0  0  0
  6  7  1  0  0  0  0
  7  8  1  0  0  0  0
  8 26  2  0  0  0  0
  8  9  1  0  0  0  0
  9 14  2  0  0  0  0
  9 10  1  0  0  0  0
 10 11  2  0  0  0  0
 11 12  1  0  0  0  0
 12 13  2  0  0  0  0
 13 14  1  0  0  0  0
 14 15  1  0  0  0  0
 15 16  1  0  0  0  0
 16 17  2  0  0  0  0
 16 18  1  0  0  0  0
 18 19  1  0  0  0  0
 19 24  1  0  0  0  0
 19 20  1  0  0  0  0
 20 21  1  0  0  0  0
 21 22  1  0  0  0  0
 22 23  1  0  0  0  0
 23 24  1  0  0  0  0
 10 25  1  0  0  0  0
 25 26  1  0  0  0  0
  6 27  2  0  0  0  0
  5 28  1  0  0  0  0
 28 29  1  0  0  0  0
M  END
$$$$
DAR-DIA-033-13
  -OEChem-03222016562D

 29 32  0     0  0  0  0  0  0999 V2000
    4.6525   -0.7049    0.0000 C   0  0  0  0  0  0  0  0  0  0  0  0
    5.6318   -0.9075    0.0000 C   0  0  0  0  0  0  0  0  0  0  0  0
    6.2981   -0.1549    0.0000 C   0  0  0  0  0  0  0  0  0  0  0  0
    7.2774   -0.3575    0.0000 C   0  0  0  0  0  0  0  0  0  0  0  0
    7.5971   -1.3051    0.0000 C   0  0  0  0  0  0  0  0  0  0  0  0
    6.9308   -2.0577    0.0000 C   0  0  0  0  0  0  0  0  0  0  0  0
    5.9447   -1.8627    0.0000 C   0  0  0  0  0  0  0  0  0  0  0  0
    3.9874   -1.4517    0.0000 C   0  0  0  0  0  0  0  0  0  0  0  0
    4.3016   -2.4011    0.0000 O   0  0  0  0  0  0  0  0  0  0  0  0
    3.0082   -1.2491    0.0000 N   0  0  0  0  0  0  0  0  0  0  0  0
    2.6940   -0.2997    0.0000 C   0  0  0  0  0  0  0  0  0  0  0  0
    3.2780    0.5133    0.0000 C   0  0  0  0  0  0  0  0  0  0  0  0
    2.6851    1.3196    0.0000 N   0  0  0  0  0  0  0  0  0  0  0  0
    1.7350    1.0052    0.0000 C   0  0  0  0  0  0  0  0  0  0  0  0
    0.8675    1.5129    0.0000 N   0  0  0  0  0  0  0  0  0  0  0  0
    0.0000    1.0052    0.0000 C   0  0  0  0  0  0  0  0  0  0  0  0
    0.0000    0.0000    0.0000 C   0  0  0  0  0  0  0  0  0  0  0  0
    0.8675   -0.4975    0.0000 C   0  0  0  0  0  0  0  0  0  0  0  0
    1.7405    0.0044    0.0000 C   0  0  0  0  0  0  0  0  0  0  0  0
    0.8680   -1.4975    0.0000 N   0  0  0  0  0  0  0  0  0  0  0  0
    0.0023   -1.9980    0.0000 C   0  0  0  0  0  0  0  0  0  0  0  0
    0.0028   -2.9980    0.0000 N   0  0  0  0  0  0  0  0  0  0  0  0
   -0.8629   -3.4984    0.0000 C   0  0  0  0  0  0  0  0  0  0  0  0
   -1.7323   -2.9937    0.0000 C   0  0  0  0  0  0  0  0  0  0  0  0
   -2.5981   -3.4942    0.0000 C   0  0  0  0  0  0  0  0  0  0  0  0
   -2.6034   -4.4942    0.0000 C   0  0  0  0  0  0  0  0  0  0  0  0
   -1.7341   -4.9989    0.0000 C   0  0  0  0  0  0  0  0  0  0  0  0
   -0.8594   -4.5036    0.0000 C   0  0  0  0  0  0  0  0  0  0  0  0
   -0.8640   -1.4984    0.0000 O   0  0  0  0  0  0  0  0  0  0  0  0
  1  2  1  0  0  0  0
  2  7  1  0  0  0  0
  2  3  2  0  0  0  0
  3  4  1  0  0  0  0
  4  5  2  0  0  0  0
  5  6  1  0  0  0  0
  6  7  2  0  0  0  0
  1  8  1  0  0  0  0
  8  9  2  0  0  0  0
  8 10  1  0  0  0  0
 10 11  1  0  0  0  0
 11 19  1  0  0  0  0
 11 12  2  0  0  0  0
 12 13  1  0  0  0  0
 13 14  1  0  0  0  0
 14 19  1  0  0  0  0
 14 15  2  0  0  0  0
 15 16  1  0  0  0  0
 16 17  2  0  0  0  0
 17 18  1  0  0  0  0
 18 19  2  0  0  0  0
 18 20  1  0  0  0  0
 20 21  1  0  0  0  0
 21 22  1  0  0  0  0
 22 23  1  0  0  0  0
 23 28  1  0  0  0  0
 23 24  1  0  0  0  0
 24 25  1  0  0  0  0
 25 26  1  0  0  0  0
 26 27  1  0  0  0  0
 27 28  1  0  0  0  0
 21 29  2  0  0  0  0
M  END
$$$$
DAR-DIA-033-14
  -OEChem-03222016562D

 28 31  0     0  0  0  0  0  0999 V2000
    4.3016   -2.4011    0.0000 C   0  0  0  0  0  0  0  0  0  0  0  0
    3.9874   -1.4517    0.0000 C   0  0  0  0  0  0  0  0  0  0  0  0
    3.0082   -1.2491    0.0000 N   0  0  0  0  0  0  0  0  0  0  0  0
    2.6940   -0.2997    0.0000 C   0  0  0  0  0  0  0  0  0  0  0  0
    1.7405    0.0044    0.0000 C   0  0  0  0  0  0  0  0  0  0  0  0
    1.7350    1.0052    0.0000 C   0  0  0  0  0  0  0  0  0  0  0  0
    0.8675    1.5129    0.0000 N   0  0  0  0  0  0  0  0  0  0  0  0
    0.0000    1.0052    0.0000 C   0  0  0  0  0  0  0  0  0  0  0  0
    0.0000    0.0000    0.0000 C   0  0  0  0  0  0  0  0  0  0  0  0
    0.8675   -0.4975    0.0000 C   0  0  0  0  0  0  0  0  0  0  0  0
    0.8680   -1.4975    0.0000 N   0  0  0  0  0  0  0  0  0  0  0  0
    0.0023   -1.9980    0.0000 C   0  0  0  0  0  0  0  0  0  0  0  0
   -0.8640   -1.4984    0.0000 O   0  0  0  0  0  0  0  0  0  0  0  0
    0.0028   -2.9980    0.0000 C   0  0  0  0  0  0  0  0  0  0  0  0
   -0.8689   -3.4985    0.0000 C   0  0  0  0  0  0  0  0  0  0  0  0
   -0.8684   -4.4985    0.0000 C   0  0  0  0  0  0  0  0  0  0  0  0
   -0.0050   -5.0031    0.0000 C   0  0  0  0  0  0  0  0  0  0  0  0
    0.8667   -4.5026    0.0000 C   0  0  0  0  0  0  0  0  0  0  0  0
    0.8750   -3.4975    0.0000 C   0  0  0  0  0  0  0  0  0  0  0  0
    2.6851    1.3196    0.0000 N   0  0  0  0  0  0  0  0  0  0  0  0
    3.2780    0.5133    0.0000 C   0  0  0  0  0  0  0  0  0  0  0  0
    4.6525   -0.7049    0.0000 O   0  0  0  0  0  0  0  0  0  0  0  0
    5.2808   -2.6037    0.0000 C   0  0  0  0  0  0  0  0  0  0  0  0
    5.9472   -1.8511    0.0000 C   0  0  0  0  0  0  0  0  0  0  0  0
    6.9265   -2.0536    0.0000 C   0  0  0  0  0  0  0  0  0  0  0  0
    7.2462   -3.0012    0.0000 C   0  0  0  0  0  0  0  0  0  0  0  0
    6.5799   -3.7538    0.0000 C   0  0  0  0  0  0  0  0  0  0  0  0
    5.5938   -3.5588    0.0000 C   0  0  0  0  0  0  0  0  0  0  0  0
  1  2  1  0  0  0  0
  2  3  1  0  0  0  0
  3  4  1  0  0  0  0
  4 21  2  0  0  0  0
  4  5  1  0  0  0  0
  5 10  2  0  0  0  0
  5  6  1  0  0  0  0
  6  7  2  0  0  0  0
  7  8  1  0  0  0  0
  8  9  2  0  0  0  0
  9 10  1  0  0  0  0
 10 11  1  0  0  0  0
 11 12  1  0  0  0  0
 12 13  2  0  0  0  0
 12 14  1  0  0  0  0
 14 19  1  0  0  0  0
 14 15  1  0  0  0  0
 15 16  1  0  0  0  0
 16 17  1  0  0  0  0
 17 18  1  0  0  0  0
 18 19  1  0  0  0  0
  6 20  1  0  0  0  0
 20 21  1  0  0  0  0
  2 22  2  0  0  0  0
  1 23  1  0  0  0  0
 23 28  2  0  0  0  0
 23 24  1  0  0  0  0
 24 25  2  0  0  0  0
 25 26  1  0  0  0  0
 26 27  2  0  0  0  0
 27 28  1  0  0  0  0
M  END
$$$$
DAR-DIA-033-15
  -OEChem-03222016562D

 19 20  0     0  0  0  0  0  0999 V2000
    2.6010    1.4950    0.0000 O   0  0  0  0  0  0  0  0  0  0  0  0
    2.5995    0.4950    0.0000 C   0  0  0  0  0  0  0  0  0  0  0  0
    1.7328   -0.0038    0.0000 C   0  0  0  0  0  0  0  0  0  0  0  0
    0.8675    0.4975    0.0000 C   0  0  0  0  0  0  0  0  0  0  0  0
    0.8675    1.5027    0.0000 C   0  0  0  0  0  0  0  0  0  0  0  0
   -0.0000    2.0104    0.0000 N   0  0  0  0  0  0  0  0  0  0  0  0
   -0.8675    1.5027    0.0000 C   0  0  0  0  0  0  0  0  0  0  0  0
   -0.8675    0.4975    0.0000 C   0  0  0  0  0  0  0  0  0  0  0  0
    0.0000    0.0000    0.0000 C   0  0  0  0  0  0  0  0  0  0  0  0
    0.0000   -1.0000    0.0000 C   0  0  0  0  0  0  0  0  0  0  0  0
    0.8660   -1.5000    0.0000 C   0  0  0  0  0  0  0  0  0  0  0  0
    0.8660   -2.5000    0.0000 N   0  0  0  0  0  0  0  0  0  0  0  0
    3.4648   -0.0063    0.0000 N   0  0  0  0  0  0  0  0  0  0  0  0
    4.3316    0.4925    0.0000 C   0  0  0  0  0  0  0  0  0  0  0  0
    5.1999   -0.0139    0.0000 C   0  0  0  0  0  0  0  0  0  0  0  0
    6.0667    0.4848    0.0000 C   0  0  0  0  0  0  0  0  0  0  0  0
    6.0740    1.4848    0.0000 C   0  0  0  0  0  0  0  0  0  0  0  0
    5.2057    1.9912    0.0000 C   0  0  0  0  0  0  0  0  0  0  0  0
    4.3301    1.4976    0.0000 C   0  0  0  0  0  0  0  0  0  0  0  0
  1  2  2  0  0  0  0
  2  3  1  0  0  0  0
  3  4  1  0  0  0  0
  4  9  1  0  0  0  0
  4  5  2  0  0  0  0
  5  6  1  0  0  0  0
  6  7  2  0  0  0  0
  7  8  1  0  0  0  0
  8  9  2  0  0  0  0
  9 10  1  0  0  0  0
 10 11  1  0  0  0  0
 11 12  1  0  0  0  0
  2 13  1  0  0  0  0
 13 14  1  0  0  0  0
 14 19  2  0  0  0  0
 14 15  1  0  0  0  0
 15 16  2  0  0  0  0
 16 17  1  0  0  0  0
 17 18  2  0  0  0  0
 18 19  1  0  0  0  0
M  END
$$$$
