DAR-DIA-fc9-1
  -OEChem-03232022352D

 18 20  0     0  0  0  0  0  0999 V2000
    2.8642    1.3789    0.0000 O   0  0  0  0  0  0  0  0  0  0  0  0
    2.6520    0.4017    0.0000 C   0  0  0  0  0  0  0  0  0  0  0  0
    3.3182   -0.3463    0.0000 N   0  0  0  0  0  0  0  0  0  0  0  0
    4.3132   -0.2459    0.0000 C   0  0  0  0  0  0  0  0  0  0  0  0
    4.7232    0.6719    0.0000 C   0  0  0  0  0  0  0  0  0  0  0  0
    5.7181    0.7723    0.0000 C   0  0  0  0  0  0  0  0  0  0  0  0
    6.3073   -0.0357    0.0000 C   0  0  0  0  0  0  0  0  0  0  0  0
    5.8973   -0.9535    0.0000 C   0  0  0  0  0  0  0  0  0  0  0  0
    4.8982   -1.0632    0.0000 C   0  0  0  0  0  0  0  0  0  0  0  0
    2.8149   -1.2121    0.0000 C   0  0  0  0  0  0  0  0  0  0  0  0
    1.8379   -0.9987    0.0000 C   0  0  0  0  0  0  0  0  0  0  0  0
    1.7328   -0.0038    0.0000 N   0  0  0  0  0  0  0  0  0  0  0  0
    0.8675    0.4975    0.0000 C   0  0  0  0  0  0  0  0  0  0  0  0
    0.0000    0.0000    0.0000 C   0  0  0  0  0  0  0  0  0  0  0  0
   -0.8675    0.4975    0.0000 C   0  0  0  0  0  0  0  0  0  0  0  0
   -0.8675    1.5027    0.0000 C   0  0  0  0  0  0  0  0  0  0  0  0
    0.0000    2.0104    0.0000 N   0  0  0  0  0  0  0  0  0  0  0  0
    0.8675    1.5027    0.0000 C   0  0  0  0  0  0  0  0  0  0  0  0
  1  2  2  0  0  0  0
  2 12  1  0  0  0  0
  2  3  1  0  0  0  0
  3  4  1  0  0  0  0
  4  9  2  0  0  0  0
  4  5  1  0  0  0  0
  5  6  2  0  0  0  0
  6  7  1  0  0  0  0
  7  8  2  0  0  0  0
  8  9  1  0  0  0  0
  3 10  1  0  0  0  0
 10 11  1  0  0  0  0
 11 12  1  0  0  0  0
 12 13  1  0  0  0  0
 13 18  2  0  0  0  0
 13 14  1  0  0  0  0
 14 15  2  0  0  0  0
 15 16  1  0  0  0  0
 16 17  2  0  0  0  0
 17 18  1  0  0  0  0
M  END
$$$$
DAR-DIA-fc9-2
  -OEChem-03232022352D

 19 21  0     1  0  0  0  0  0999 V2000
    2.6025    1.5026    0.0000 O   0  0  0  0  0  0  0  0  0  0  0  0
    1.7350    1.0052    0.0000 C   0  0  0  0  0  0  0  0  0  0  0  0
    1.7350    0.0000    0.0000 N   0  0  0  0  0  0  0  0  0  0  0  0
    0.8675   -0.4975    0.0000 C   0  0  3  0  0  0  0  0  0  0  0  0
    0.8675   -1.4975    0.0000 C   0  0  0  0  0  0  0  0  0  0  0  0
    1.7328   -1.9988    0.0000 C   0  0  0  0  0  0  0  0  0  0  0  0
    1.7372   -2.9988    0.0000 C   0  0  0  0  0  0  0  0  0  0  0  0
    0.8674   -3.5027    0.0000 C   0  0  0  0  0  0  0  0  0  0  0  0
   -0.0068   -3.0065    0.0000 N   0  0  0  0  0  0  0  0  0  0  0  0
   -0.0023   -2.0014    0.0000 C   0  0  0  0  0  0  0  0  0  0  0  0
    0.0000    0.0000    0.0000 C   0  0  0  0  0  0  0  0  0  0  0  0
   -0.0000    1.0052    0.0000 C   0  0  0  0  0  0  0  0  0  0  0  0
    0.8675    1.5129    0.0000 N   0  0  0  0  0  0  0  0  0  0  0  0
    0.8675    2.5129    0.0000 C   0  0  0  0  0  0  0  0  0  0  0  0
   -0.0045    3.0129    0.0000 C   0  0  0  0  0  0  0  0  0  0  0  0
   -0.0046    4.0130    0.0000 C   0  0  0  0  0  0  0  0  0  0  0  0
    0.8586    4.5180    0.0000 C   0  0  0  0  0  0  0  0  0  0  0  0
    1.7306    4.0180    0.0000 C   0  0  0  0  0  0  0  0  0  0  0  0
    1.7395    3.0129    0.0000 C   0  0  0  0  0  0  0  0  0  0  0  0
  1  2  2  0  0  0  0
  2 13  1  0  0  0  0
  2  3  1  0  0  0  0
  3  4  1  0  0  0  0
  4  5  1  0  0  0  0
  5 10  2  0  0  0  0
  5  6  1  0  0  0  0
  6  7  2  0  0  0  0
  7  8  1  0  0  0  0
  8  9  2  0  0  0  0
  9 10  1  0  0  0  0
  4 11  1  0  0  0  0
 11 12  1  0  0  0  0
 12 13  1  0  0  0  0
 13 14  1  0  0  0  0
 14 19  2  0  0  0  0
 14 15  1  0  0  0  0
 15 16  2  0  0  0  0
 16 17  1  0  0  0  0
 17 18  2  0  0  0  0
 18 19  1  0  0  0  0
M  END
$$$$
DAR-DIA-fc9-3
  -OEChem-03232022352D

 18 20  0     0  0  0  0  0  0999 V2000
    2.8642    1.3789    0.0000 O   0  0  0  0  0  0  0  0  0  0  0  0
    2.6520    0.4017    0.0000 C   0  0  0  0  0  0  0  0  0  0  0  0
    3.3182   -0.3463    0.0000 N   0  0  0  0  0  0  0  0  0  0  0  0
    4.3132   -0.2459    0.0000 C   0  0  0  0  0  0  0  0  0  0  0  0
    4.7232    0.6719    0.0000 C   0  0  0  0  0  0  0  0  0  0  0  0
    5.7181    0.7723    0.0000 C   0  0  0  0  0  0  0  0  0  0  0  0
    6.3073   -0.0357    0.0000 C   0  0  0  0  0  0  0  0  0  0  0  0
    5.8973   -0.9535    0.0000 C   0  0  0  0  0  0  0  0  0  0  0  0
    4.8982   -1.0632    0.0000 C   0  0  0  0  0  0  0  0  0  0  0  0
    2.8149   -1.2121    0.0000 C   0  0  0  0  0  0  0  0  0  0  0  0
    1.8379   -0.9987    0.0000 C   0  0  0  0  0  0  0  0  0  0  0  0
    1.7328   -0.0038    0.0000 N   0  0  0  0  0  0  0  0  0  0  0  0
    0.8675    0.4975    0.0000 C   0  0  0  0  0  0  0  0  0  0  0  0
    0.0000    0.0000    0.0000 C   0  0  0  0  0  0  0  0  0  0  0  0
   -0.8675    0.4975    0.0000 C   0  0  0  0  0  0  0  0  0  0  0  0
   -0.8675    1.5027    0.0000 C   0  0  0  0  0  0  0  0  0  0  0  0
    0.0000    2.0104    0.0000 N   0  0  0  0  0  0  0  0  0  0  0  0
    0.8675    1.5027    0.0000 C   0  0  0  0  0  0  0  0  0  0  0  0
  1  2  2  0  0  0  0
  2 12  1  0  0  0  0
  2  3  1  0  0  0  0
  3  4  1  0  0  0  0
  4  9  2  0  0  0  0
  4  5  1  0  0  0  0
  5  6  2  0  0  0  0
  6  7  1  0  0  0  0
  7  8  2  0  0  0  0
  8  9  1  0  0  0  0
  3 10  1  0  0  0  0
 10 11  2  0  0  0  0
 11 12  1  0  0  0  0
 12 13  1  0  0  0  0
 13 18  2  0  0  0  0
 13 14  1  0  0  0  0
 14 15  2  0  0  0  0
 15 16  1  0  0  0  0
 16 17  2  0  0  0  0
 17 18  1  0  0  0  0
M  END
$$$$
DAR-DIA-fc9-4
  -OEChem-03232022352D

 19 21  0     1  0  0  0  0  0999 V2000
    1.7350    2.0001    0.0000 O   0  0  0  0  0  0  0  0  0  0  0  0
    0.8675    1.5027    0.0000 C   0  0  0  0  0  0  0  0  0  0  0  0
    0.8675    0.4975    0.0000 C   0  0  0  0  0  0  0  0  0  0  0  0
    0.0000    0.0000    0.0000 C   0  0  3  0  0  0  0  0  0  0  0  0
   -0.0000   -1.0000    0.0000 C   0  0  0  0  0  0  0  0  0  0  0  0
    0.8653   -1.5013    0.0000 C   0  0  0  0  0  0  0  0  0  0  0  0
    0.8697   -2.5013    0.0000 C   0  0  0  0  0  0  0  0  0  0  0  0
   -0.0001   -3.0052    0.0000 C   0  0  0  0  0  0  0  0  0  0  0  0
   -0.8743   -2.5090    0.0000 N   0  0  0  0  0  0  0  0  0  0  0  0
   -0.8698   -1.5039    0.0000 C   0  0  0  0  0  0  0  0  0  0  0  0
   -0.8675    0.4975    0.0000 C   0  0  0  0  0  0  0  0  0  0  0  0
   -0.8675    1.5027    0.0000 C   0  0  0  0  0  0  0  0  0  0  0  0
    0.0000    2.0104    0.0000 N   0  0  0  0  0  0  0  0  0  0  0  0
    0.0000    3.0104    0.0000 C   0  0  0  0  0  0  0  0  0  0  0  0
   -0.8720    3.5104    0.0000 C   0  0  0  0  0  0  0  0  0  0  0  0
   -0.8721    4.5105    0.0000 C   0  0  0  0  0  0  0  0  0  0  0  0
   -0.0089    5.0155    0.0000 C   0  0  0  0  0  0  0  0  0  0  0  0
    0.8631    4.5155    0.0000 C   0  0  0  0  0  0  0  0  0  0  0  0
    0.8720    3.5104    0.0000 C   0  0  0  0  0  0  0  0  0  0  0  0
  1  2  2  0  0  0  0
  2 13  1  0  0  0  0
  2  3  1  0  0  0  0
  3  4  1  0  0  0  0
  4  5  1  0  0  0  0
  5 10  2  0  0  0  0
  5  6  1  0  0  0  0
  6  7  2  0  0  0  0
  7  8  1  0  0  0  0
  8  9  2  0  0  0  0
  9 10  1  0  0  0  0
  4 11  1  0  0  0  0
 11 12  1  0  0  0  0
 12 13  1  0  0  0  0
 13 14  1  0  0  0  0
 14 19  2  0  0  0  0
 14 15  1  0  0  0  0
 15 16  2  0  0  0  0
 16 17  1  0  0  0  0
 17 18  2  0  0  0  0
 18 19  1  0  0  0  0
M  END
$$$$
DAR-DIA-fc9-5
  -OEChem-03232022352D

 19 21  0     1  0  0  0  0  0999 V2000
    0.8675    1.5026    0.0000 O   0  0  0  0  0  0  0  0  0  0  0  0
    0.0000    1.0052    0.0000 C   0  0  0  0  0  0  0  0  0  0  0  0
    0.0000    0.0000    0.0000 C   0  0  0  0  0  0  0  0  0  0  0  0
   -0.8675   -0.4975    0.0000 N   0  0  3  0  0  0  0  0  0  0  0  0
   -0.8675   -1.4975    0.0000 C   0  0  0  0  0  0  0  0  0  0  0  0
   -0.0022   -1.9988    0.0000 C   0  0  0  0  0  0  0  0  0  0  0  0
    0.0022   -2.9988    0.0000 C   0  0  0  0  0  0  0  0  0  0  0  0
   -0.8676   -3.5027    0.0000 C   0  0  0  0  0  0  0  0  0  0  0  0
   -1.7418   -3.0065    0.0000 N   0  0  0  0  0  0  0  0  0  0  0  0
   -1.7373   -2.0014    0.0000 C   0  0  0  0  0  0  0  0  0  0  0  0
   -1.7350    0.0000    0.0000 C   0  0  0  0  0  0  0  0  0  0  0  0
   -1.7350    1.0052    0.0000 C   0  0  0  0  0  0  0  0  0  0  0  0
   -0.8675    1.5129    0.0000 N   0  0  0  0  0  0  0  0  0  0  0  0
   -0.8675    2.5129    0.0000 C   0  0  0  0  0  0  0  0  0  0  0  0
   -1.7395    3.0129    0.0000 C   0  0  0  0  0  0  0  0  0  0  0  0
   -1.7396    4.0130    0.0000 C   0  0  0  0  0  0  0  0  0  0  0  0
   -0.8764    4.5180    0.0000 C   0  0  0  0  0  0  0  0  0  0  0  0
   -0.0044    4.0180    0.0000 C   0  0  0  0  0  0  0  0  0  0  0  0
    0.0045    3.0129    0.0000 C   0  0  0  0  0  0  0  0  0  0  0  0
  1  2  2  0  0  0  0
  2 13  1  0  0  0  0
  2  3  1  0  0  0  0
  3  4  1  0  0  0  0
  4  5  1  0  0  0  0
  5 10  2  0  0  0  0
  5  6  1  0  0  0  0
  6  7  2  0  0  0  0
  7  8  1  0  0  0  0
  8  9  2  0  0  0  0
  9 10  1  0  0  0  0
  4 11  1  0  0  0  0
 11 12  1  0  0  0  0
 12 13  1  0  0  0  0
 13 14  1  0  0  0  0
 14 19  2  0  0  0  0
 14 15  1  0  0  0  0
 15 16  2  0  0  0  0
 16 17  1  0  0  0  0
 17 18  2  0  0  0  0
 18 19  1  0  0  0  0
M  END
$$$$
DAR-DIA-fc9-6
  -OEChem-03232022352D

 19 21  0     0  0  0  0  0  0999 V2000
    2.6025    1.5026    0.0000 O   0  0  0  0  0  0  0  0  0  0  0  0
    1.7350    1.0052    0.0000 C   0  0  0  0  0  0  0  0  0  0  0  0
    0.8675    1.5129    0.0000 N   0  0  0  0  0  0  0  0  0  0  0  0
    0.8675    2.5129    0.0000 C   0  0  0  0  0  0  0  0  0  0  0  0
   -0.0045    3.0129    0.0000 C   0  0  0  0  0  0  0  0  0  0  0  0
   -0.0046    4.0130    0.0000 C   0  0  0  0  0  0  0  0  0  0  0  0
    0.8586    4.5180    0.0000 C   0  0  0  0  0  0  0  0  0  0  0  0
    1.7306    4.0180    0.0000 C   0  0  0  0  0  0  0  0  0  0  0  0
    1.7395    3.0129    0.0000 C   0  0  0  0  0  0  0  0  0  0  0  0
    0.0000    1.0052    0.0000 C   0  0  0  0  0  0  0  0  0  0  0  0
    0.0000    0.0000    0.0000 C   0  0  0  0  0  0  0  0  0  0  0  0
    0.8675   -0.4975    0.0000 C   0  0  0  0  0  0  0  0  0  0  0  0
    1.7350    0.0000    0.0000 N   0  0  0  0  0  0  0  0  0  0  0  0
    2.6003   -0.5013    0.0000 C   0  0  0  0  0  0  0  0  0  0  0  0
    3.4678   -0.0038    0.0000 C   0  0  0  0  0  0  0  0  0  0  0  0
    4.3353   -0.5013    0.0000 C   0  0  0  0  0  0  0  0  0  0  0  0
    4.3353   -1.5065    0.0000 C   0  0  0  0  0  0  0  0  0  0  0  0
    3.4678   -2.0142    0.0000 N   0  0  0  0  0  0  0  0  0  0  0  0
    2.6003   -1.5065    0.0000 C   0  0  0  0  0  0  0  0  0  0  0  0
  1  2  2  0  0  0  0
  2 13  1  0  0  0  0
  2  3  1  0  0  0  0
  3  4  1  0  0  0  0
  4  9  2  0  0  0  0
  4  5  1  0  0  0  0
  5  6  2  0  0  0  0
  6  7  1  0  0  0  0
  7  8  2  0  0  0  0
  8  9  1  0  0  0  0
  3 10  1  0  0  0  0
 10 11  1  0  0  0  0
 11 12  1  0  0  0  0
 12 13  1  0  0  0  0
 13 14  1  0  0  0  0
 14 19  2  0  0  0  0
 14 15  1  0  0  0  0
 15 16  2  0  0  0  0
 16 17  1  0  0  0  0
 17 18  2  0  0  0  0
 18 19  1  0  0  0  0
M  END
$$$$
DAR-DIA-fc9-7
  -OEChem-03232022352D

 19 21  0     1  0  0  0  0  0999 V2000
    1.7350    2.0001    0.0000 O   0  0  0  0  0  0  0  0  0  0  0  0
    0.8675    1.5027    0.0000 C   0  0  0  0  0  0  0  0  0  0  0  0
    0.8675    0.4975    0.0000 C   0  0  3  0  0  0  0  0  0  0  0  0
    1.7328   -0.0038    0.0000 C   0  0  0  0  0  0  0  0  0  0  0  0
    2.6026    0.5001    0.0000 C   0  0  0  0  0  0  0  0  0  0  0  0
    3.4679   -0.0011    0.0000 C   0  0  0  0  0  0  0  0  0  0  0  0
    3.4723   -1.0011    0.0000 C   0  0  0  0  0  0  0  0  0  0  0  0
    2.6026   -1.5050    0.0000 C   0  0  0  0  0  0  0  0  0  0  0  0
    1.7284   -1.0089    0.0000 C   0  0  0  0  0  0  0  0  0  0  0  0
    0.0000    0.0000    0.0000 C   0  0  0  0  0  0  0  0  0  0  0  0
   -0.8675    0.4975    0.0000 C   0  0  0  0  0  0  0  0  0  0  0  0
   -0.8675    1.5027    0.0000 C   0  0  0  0  0  0  0  0  0  0  0  0
    0.0000    2.0104    0.0000 N   0  0  0  0  0  0  0  0  0  0  0  0
    0.0000    3.0104    0.0000 C   0  0  0  0  0  0  0  0  0  0  0  0
   -0.8653    3.5117    0.0000 C   0  0  0  0  0  0  0  0  0  0  0  0
   -0.8697    4.5117    0.0000 C   0  0  0  0  0  0  0  0  0  0  0  0
    0.0001    5.0156    0.0000 C   0  0  0  0  0  0  0  0  0  0  0  0
    0.8743    4.5194    0.0000 N   0  0  0  0  0  0  0  0  0  0  0  0
    0.8698    3.5143    0.0000 C   0  0  0  0  0  0  0  0  0  0  0  0
  1  2  2  0  0  0  0
  2 13  1  0  0  0  0
  2  3  1  0  0  0  0
  3  4  1  0  0  0  0
  4  9  2  0  0  0  0
  4  5  1  0  0  0  0
  5  6  2  0  0  0  0
  6  7  1  0  0  0  0
  7  8  2  0  0  0  0
  8  9  1  0  0  0  0
  3 10  1  0  0  0  0
 10 11  1  0  0  0  0
 11 12  1  0  0  0  0
 12 13  1  0  0  0  0
 13 14  1  0  0  0  0
 14 19  2  0  0  0  0
 14 15  1  0  0  0  0
 15 16  2  0  0  0  0
 16 17  1  0  0  0  0
 17 18  2  0  0  0  0
 18 19  1  0  0  0  0
M  END
$$$$
DAR-DIA-fc9-8
  -OEChem-03232022352D

 19 21  0     1  0  0  0  0  0999 V2000
    0.8653   -0.5013    0.0000 O   0  0  0  0  0  0  0  0  0  0  0  0
    0.0000    0.0000    0.0000 C   0  0  0  0  0  0  0  0  0  0  0  0
   -0.0000    1.0052    0.0000 C   0  0  3  0  0  0  0  0  0  0  0  0
    0.8675    1.5026    0.0000 C   0  0  0  0  0  0  0  0  0  0  0  0
    0.8675    2.5078    0.0000 C   0  0  0  0  0  0  0  0  0  0  0  0
    1.7350    3.0053    0.0000 C   0  0  0  0  0  0  0  0  0  0  0  0
    2.6025    2.5078    0.0000 C   0  0  0  0  0  0  0  0  0  0  0  0
    2.6025    1.5026    0.0000 C   0  0  0  0  0  0  0  0  0  0  0  0
    1.7350    0.9949    0.0000 C   0  0  0  0  0  0  0  0  0  0  0  0
   -0.8675    1.5129    0.0000 O   0  0  0  0  0  0  0  0  0  0  0  0
   -1.7350    1.0052    0.0000 C   0  0  0  0  0  0  0  0  0  0  0  0
   -1.7350   -0.0000    0.0000 C   0  0  0  0  0  0  0  0  0  0  0  0
   -0.8675   -0.4975    0.0000 N   0  0  0  0  0  0  0  0  0  0  0  0
   -0.8675   -1.4975    0.0000 C   0  0  0  0  0  0  0  0  0  0  0  0
   -0.0022   -1.9988    0.0000 C   0  0  0  0  0  0  0  0  0  0  0  0
    0.0022   -2.9988    0.0000 C   0  0  0  0  0  0  0  0  0  0  0  0
   -0.8676   -3.5027    0.0000 C   0  0  0  0  0  0  0  0  0  0  0  0
   -1.7418   -3.0065    0.0000 N   0  0  0  0  0  0  0  0  0  0  0  0
   -1.7373   -2.0014    0.0000 C   0  0  0  0  0  0  0  0  0  0  0  0
  1  2  2  0  0  0  0
  2 13  1  0  0  0  0
  2  3  1  0  0  0  0
  3  4  1  0  0  0  0
  4  9  2  0  0  0  0
  4  5  1  0  0  0  0
  5  6  2  0  0  0  0
  6  7  1  0  0  0  0
  7  8  2  0  0  0  0
  8  9  1  0  0  0  0
  3 10  1  0  0  0  0
 10 11  1  0  0  0  0
 11 12  1  0  0  0  0
 12 13  1  0  0  0  0
 13 14  1  0  0  0  0
 14 19  2  0  0  0  0
 14 15  1  0  0  0  0
 15 16  2  0  0  0  0
 16 17  1  0  0  0  0
 17 18  2  0  0  0  0
 18 19  1  0  0  0  0
M  END
$$$$
DAR-DIA-fc9-9
  -OEChem-03232022352D

 19 20  0     0  0  0  0  0  0999 V2000
    3.4648   -0.0063    0.0000 C   0  0  0  0  0  0  0  0  0  0  0  0
    2.5995    0.4950    0.0000 C   0  0  0  0  0  0  0  0  0  0  0  0
    2.6010    1.4950    0.0000 O   0  0  0  0  0  0  0  0  0  0  0  0
    1.7328   -0.0038    0.0000 N   0  0  0  0  0  0  0  0  0  0  0  0
    1.7313   -1.0038    0.0000 C   0  0  0  0  0  0  0  0  0  0  0  0
    0.8646   -1.5025    0.0000 O   0  0  0  0  0  0  0  0  0  0  0  0
    2.5966   -1.5050    0.0000 N   0  0  0  0  0  0  0  0  0  0  0  0
    2.5952   -2.5050    0.0000 C   0  0  0  0  0  0  0  0  0  0  0  0
    3.4665   -3.0063    0.0000 C   0  0  0  0  0  0  0  0  0  0  0  0
    3.4651   -4.0063    0.0000 C   0  0  0  0  0  0  0  0  0  0  0  0
    2.6012   -4.5102    0.0000 C   0  0  0  0  0  0  0  0  0  0  0  0
    1.7299   -4.0089    0.0000 C   0  0  0  0  0  0  0  0  0  0  0  0
    1.7225   -3.0037    0.0000 C   0  0  0  0  0  0  0  0  0  0  0  0
    0.8675    0.4975    0.0000 C   0  0  0  0  0  0  0  0  0  0  0  0
    0.0000    0.0000    0.0000 C   0  0  0  0  0  0  0  0  0  0  0  0
   -0.8675    0.4975    0.0000 C   0  0  0  0  0  0  0  0  0  0  0  0
   -0.8675    1.5027    0.0000 C   0  0  0  0  0  0  0  0  0  0  0  0
    0.0000    2.0104    0.0000 N   0  0  0  0  0  0  0  0  0  0  0  0
    0.8675    1.5027    0.0000 C   0  0  0  0  0  0  0  0  0  0  0  0
  1  2  1  0  0  0  0
  2  3  2  0  0  0  0
  2  4  1  0  0  0  0
  4  5  1  0  0  0  0
  5  6  2  0  0  0  0
  5  7  1  0  0  0  0
  7  8  1  0  0  0  0
  8 13  2  0  0  0  0
  8  9  1  0  0  0  0
  9 10  2  0  0  0  0
 10 11  1  0  0  0  0
 11 12  2  0  0  0  0
 12 13  1  0  0  0  0
  4 14  1  0  0  0  0
 14 19  2  0  0  0  0
 14 15  1  0  0  0  0
 15 16  2  0  0  0  0
 16 17  1  0  0  0  0
 17 18  2  0  0  0  0
 18 19  1  0  0  0  0
M  END
$$$$
DAR-DIA-fc9-10
  -OEChem-03232022352D

 20 22  0     0  0  0  0  0  0999 V2000
    2.1744    2.3995    0.0000 O   0  0  0  0  0  0  0  0  0  0  0  0
    1.3964    1.7712    0.0000 C   0  0  0  0  0  0  0  0  0  0  0  0
    1.6250    0.7911    0.0000 N   0  0  0  0  0  0  0  0  0  0  0  0
    2.6009    0.5727    0.0000 C   0  0  0  0  0  0  0  0  0  0  0  0
    3.2793    1.3144    0.0000 C   0  0  0  0  0  0  0  0  0  0  0  0
    4.2552    1.0961    0.0000 C   0  0  0  0  0  0  0  0  0  0  0  0
    4.5595    0.1435    0.0000 C   0  0  0  0  0  0  0  0  0  0  0  0
    3.8811   -0.5982    0.0000 C   0  0  0  0  0  0  0  0  0  0  0  0
    2.8984   -0.3874    0.0000 C   0  0  0  0  0  0  0  0  0  0  0  0
    1.0000    0.0014    0.0000 C   0  0  0  0  0  0  0  0  0  0  0  0
    0.0000    0.0000    0.0000 C   0  0  0  0  0  0  0  0  0  0  0  0
   -0.6316    0.7845    0.0000 C   0  0  0  0  0  0  0  0  0  0  0  0
   -0.4166    1.7644    0.0000 C   0  0  0  0  0  0  0  0  0  0  0  0
    0.4868    2.2008    0.0000 N   0  0  0  0  0  0  0  0  0  0  0  0
    0.4824    3.2008    0.0000 C   0  0  0  0  0  0  0  0  0  0  0  0
   -0.3851    3.6983    0.0000 C   0  0  0  0  0  0  0  0  0  0  0  0
   -0.3938    4.6983    0.0000 C   0  0  0  0  0  0  0  0  0  0  0  0
    0.4737    5.2059    0.0000 C   0  0  0  0  0  0  0  0  0  0  0  0
    1.3501    4.7136    0.0000 N   0  0  0  0  0  0  0  0  0  0  0  0
    1.3500    3.7085    0.0000 C   0  0  0  0  0  0  0  0  0  0  0  0
  1  2  2  0  0  0  0
  2 14  1  0  0  0  0
  2  3  1  0  0  0  0
  3  4  1  0  0  0  0
  4  9  2  0  0  0  0
  4  5  1  0  0  0  0
  5  6  2  0  0  0  0
  6  7  1  0  0  0  0
  7  8  2  0  0  0  0
  8  9  1  0  0  0  0
  3 10  1  0  0  0  0
 10 11  1  0  0  0  0
 11 12  1  0  0  0  0
 12 13  1  0  0  0  0
 13 14  1  0  0  0  0
 14 15  1  0  0  0  0
 15 20  2  0  0  0  0
 15 16  1  0  0  0  0
 16 17  2  0  0  0  0
 17 18  1  0  0  0  0
 18 19  2  0  0  0  0
 19 20  1  0  0  0  0
M  END
$$$$
DAR-DIA-fc9-11
  -OEChem-03232022352D

 20 22  0     1  0  0  0  0  0999 V2000
    2.8056    1.6149    0.0000 O   0  0  0  0  0  0  0  0  0  0  0  0
    2.0276    0.9866    0.0000 C   0  0  0  0  0  0  0  0  0  0  0  0
    2.2562    0.0066    0.0000 C   0  0  0  0  0  0  0  0  0  0  0  0
    1.6314   -0.7830    0.0000 N   0  0  3  0  0  0  0  0  0  0  0  0
    2.0676   -1.6829    0.0000 C   0  0  0  0  0  0  0  0  0  0  0  0
    3.0704   -1.7525    0.0000 C   0  0  0  0  0  0  0  0  0  0  0  0
    3.5066   -2.6523    0.0000 C   0  0  0  0  0  0  0  0  0  0  0  0
    2.9502   -3.4833    0.0000 C   0  0  0  0  0  0  0  0  0  0  0  0
    1.9474   -3.4137    0.0000 C   0  0  0  0  0  0  0  0  0  0  0  0
    1.5010   -2.5131    0.0000 C   0  0  0  0  0  0  0  0  0  0  0  0
    0.6314   -0.7843    0.0000 C   0  0  0  0  0  0  0  0  0  0  0  0
    0.0000    0.0000    0.0000 C   0  0  0  0  0  0  0  0  0  0  0  0
    0.2149    0.9798    0.0000 C   0  0  0  0  0  0  0  0  0  0  0  0
    1.1181    1.4161    0.0000 N   0  0  0  0  0  0  0  0  0  0  0  0
    1.1137    2.4161    0.0000 C   0  0  0  0  0  0  0  0  0  0  0  0
    0.2462    2.9135    0.0000 C   0  0  0  0  0  0  0  0  0  0  0  0
    0.2374    3.9135    0.0000 C   0  0  0  0  0  0  0  0  0  0  0  0
    1.1050    4.4212    0.0000 C   0  0  0  0  0  0  0  0  0  0  0  0
    1.9813    3.9289    0.0000 N   0  0  0  0  0  0  0  0  0  0  0  0
    1.9813    2.9238    0.0000 C   0  0  0  0  0  0  0  0  0  0  0  0
  1  2  2  0  0  0  0
  2 14  1  0  0  0  0
  2  3  1  0  0  0  0
  3  4  1  0  0  0  0
  4  5  1  0  0  0  0
  5 10  2  0  0  0  0
  5  6  1  0  0  0  0
  6  7  2  0  0  0  0
  7  8  1  0  0  0  0
  8  9  2  0  0  0  0
  9 10  1  0  0  0  0
  4 11  1  0  0  0  0
 11 12  1  0  0  0  0
 12 13  1  0  0  0  0
 13 14  1  0  0  0  0
 14 15  1  0  0  0  0
 15 20  2  0  0  0  0
 15 16  1  0  0  0  0
 16 17  2  0  0  0  0
 17 18  1  0  0  0  0
 18 19  2  0  0  0  0
 19 20  1  0  0  0  0
M  END
$$$$
DAR-DIA-fc9-12
  -OEChem-03232022352D

 19 21  0     1  0  0  0  0  0999 V2000
    1.7350    2.0001    0.0000 O   0  0  0  0  0  0  0  0  0  0  0  0
    0.8675    1.5027    0.0000 C   0  0  0  0  0  0  0  0  0  0  0  0
    0.8675    0.4975    0.0000 C   0  0  3  0  0  0  0  0  0  0  0  0
    1.7328   -0.0038    0.0000 C   0  0  0  0  0  0  0  0  0  0  0  0
    2.6026    0.5001    0.0000 C   0  0  0  0  0  0  0  0  0  0  0  0
    3.4679   -0.0011    0.0000 C   0  0  0  0  0  0  0  0  0  0  0  0
    3.4723   -1.0011    0.0000 C   0  0  0  0  0  0  0  0  0  0  0  0
    2.6026   -1.5050    0.0000 C   0  0  0  0  0  0  0  0  0  0  0  0
    1.7284   -1.0089    0.0000 C   0  0  0  0  0  0  0  0  0  0  0  0
    0.0000    0.0000    0.0000 C   0  0  0  0  0  0  0  0  0  0  0  0
   -0.8675    0.4975    0.0000 C   0  0  0  0  0  0  0  0  0  0  0  0
   -0.8675    1.5027    0.0000 C   0  0  0  0  0  0  0  0  0  0  0  0
    0.0000    2.0104    0.0000 N   0  0  0  0  0  0  0  0  0  0  0  0
    0.0000    3.0104    0.0000 C   0  0  0  0  0  0  0  0  0  0  0  0
   -0.8653    3.5117    0.0000 C   0  0  0  0  0  0  0  0  0  0  0  0
   -0.8697    4.5117    0.0000 C   0  0  0  0  0  0  0  0  0  0  0  0
    0.0001    5.0156    0.0000 C   0  0  0  0  0  0  0  0  0  0  0  0
    0.8743    4.5194    0.0000 N   0  0  0  0  0  0  0  0  0  0  0  0
    0.8698    3.5143    0.0000 C   0  0  0  0  0  0  0  0  0  0  0  0
  1  2  2  0  0  0  0
  2 13  1  0  0  0  0
  2  3  1  0  0  0  0
  3  4  1  0  0  0  0
  4  9  2  0  0  0  0
  4  5  1  0  0  0  0
  5  6  2  0  0  0  0
  6  7  1  0  0  0  0
  7  8  2  0  0  0  0
  8  9  1  0  0  0  0
  3 10  1  0  0  0  0
 10 11  2  0  0  0  0
 11 12  1  0  0  0  0
 12 13  1  0  0  0  0
 13 14  1  0  0  0  0
 14 19  2  0  0  0  0
 14 15  1  0  0  0  0
 15 16  2  0  0  0  0
 16 17  1  0  0  0  0
 17 18  2  0  0  0  0
 18 19  1  0  0  0  0
M  END
$$$$
DAR-DIA-fc9-13
  -OEChem-03232022352D

 20 22  0     1  0  0  0  0  0999 V2000
    2.8056    1.6149    0.0000 O   0  0  0  0  0  0  0  0  0  0  0  0
    2.0276    0.9866    0.0000 C   0  0  0  0  0  0  0  0  0  0  0  0
    2.2562    0.0066    0.0000 C   0  0  0  0  0  0  0  0  0  0  0  0
    1.6314   -0.7830    0.0000 N   0  0  3  0  0  0  0  0  0  0  0  0
    2.0676   -1.6829    0.0000 C   0  0  0  0  0  0  0  0  0  0  0  0
    3.0704   -1.7525    0.0000 C   0  0  0  0  0  0  0  0  0  0  0  0
    3.5066   -2.6523    0.0000 C   0  0  0  0  0  0  0  0  0  0  0  0
    2.9502   -3.4833    0.0000 C   0  0  0  0  0  0  0  0  0  0  0  0
    1.9474   -3.4137    0.0000 C   0  0  0  0  0  0  0  0  0  0  0  0
    1.5010   -2.5131    0.0000 C   0  0  0  0  0  0  0  0  0  0  0  0
    0.6314   -0.7843    0.0000 C   0  0  0  0  0  0  0  0  0  0  0  0
    0.0000    0.0000    0.0000 C   0  0  0  0  0  0  0  0  0  0  0  0
    0.2149    0.9798    0.0000 C   0  0  0  0  0  0  0  0  0  0  0  0
    1.1181    1.4161    0.0000 N   0  0  0  0  0  0  0  0  0  0  0  0
    1.1137    2.4161    0.0000 C   0  0  0  0  0  0  0  0  0  0  0  0
    0.2462    2.9135    0.0000 C   0  0  0  0  0  0  0  0  0  0  0  0
    0.2374    3.9135    0.0000 C   0  0  0  0  0  0  0  0  0  0  0  0
    1.1050    4.4212    0.0000 C   0  0  0  0  0  0  0  0  0  0  0  0
    1.9813    3.9289    0.0000 N   0  0  0  0  0  0  0  0  0  0  0  0
    1.9813    2.9238    0.0000 C   0  0  0  0  0  0  0  0  0  0  0  0
  1  2  2  0  0  0  0
  2 14  1  0  0  0  0
  2  3  1  0  0  0  0
  3  4  1  0  0  0  0
  4  5  1  0  0  0  0
  5 10  2  0  0  0  0
  5  6  1  0  0  0  0
  6  7  2  0  0  0  0
  7  8  1  0  0  0  0
  8  9  2  0  0  0  0
  9 10  1  0  0  0  0
  4 11  1  0  0  0  0
 11 12  1  0  0  0  0
 12 13  1  0  0  0  0
 13 14  1  0  0  0  0
 14 15  1  0  0  0  0
 15 20  2  0  0  0  0
 15 16  1  0  0  0  0
 16 17  2  0  0  0  0
 17 18  1  0  0  0  0
 18 19  2  0  0  0  0
 19 20  1  0  0  0  0
M  END
$$$$
DAR-DIA-fc9-14
  -OEChem-03232022352D

 22 24  0     0  0  0  0  0  0999 V2000
    2.5966   -1.5050    0.0000 O   0  0  0  0  0  0  0  0  0  0  0  0
    1.7313   -1.0038    0.0000 C   0  0  0  0  0  0  0  0  0  0  0  0
    0.8646   -1.5025    0.0000 N   0  0  0  0  0  0  0  0  0  0  0  0
    0.8631   -2.5025    0.0000 C   0  0  0  0  0  0  0  0  0  0  0  0
    1.7344   -3.0038    0.0000 C   0  0  0  0  0  0  0  0  0  0  0  0
    1.7330   -4.0038    0.0000 C   0  0  0  0  0  0  0  0  0  0  0  0
    0.8692   -4.5076    0.0000 C   0  0  0  0  0  0  0  0  0  0  0  0
   -0.0021   -4.0064    0.0000 C   0  0  0  0  0  0  0  0  0  0  0  0
   -0.0095   -3.0012    0.0000 C   0  0  0  0  0  0  0  0  0  0  0  0
    1.7328   -0.0038    0.0000 N   0  0  0  0  0  0  0  0  0  0  0  0
    0.8675    0.4975    0.0000 C   0  0  0  0  0  0  0  0  0  0  0  0
    0.0000    0.0000    0.0000 C   0  0  0  0  0  0  0  0  0  0  0  0
   -0.8675    0.4975    0.0000 C   0  0  0  0  0  0  0  0  0  0  0  0
   -0.8675    1.5027    0.0000 C   0  0  0  0  0  0  0  0  0  0  0  0
    0.0000    2.0104    0.0000 N   0  0  0  0  0  0  0  0  0  0  0  0
    0.8675    1.5027    0.0000 C   0  0  0  0  0  0  0  0  0  0  0  0
    2.5995    0.4950    0.0000 C   0  0  0  0  0  0  0  0  0  0  0  0
    2.5980    1.5002    0.0000 C   0  0  0  0  0  0  0  0  0  0  0  0
    3.4648    1.9990    0.0000 C   0  0  0  0  0  0  0  0  0  0  0  0
    4.3330    1.5028    0.0000 C   0  0  0  0  0  0  0  0  0  0  0  0
    4.3345    0.4976    0.0000 C   0  0  0  0  0  0  0  0  0  0  0  0
    3.4678   -0.0114    0.0000 N   0  0  0  0  0  0  0  0  0  0  0  0
  1  2  2  0  0  0  0
  2  3  1  0  0  0  0
  3  4  1  0  0  0  0
  4  9  2  0  0  0  0
  4  5  1  0  0  0  0
  5  6  2  0  0  0  0
  6  7  1  0  0  0  0
  7  8  2  0  0  0  0
  8  9  1  0  0  0  0
  2 10  1  0  0  0  0
 10 11  1  0  0  0  0
 11 16  2  0  0  0  0
 11 12  1  0  0  0  0
 12 13  2  0  0  0  0
 13 14  1  0  0  0  0
 14 15  2  0  0  0  0
 15 16  1  0  0  0  0
 10 17  1  0  0  0  0
 17 22  2  0  0  0  0
 17 18  1  0  0  0  0
 18 19  2  0  0  0  0
 19 20  1  0  0  0  0
 20 21  2  0  0  0  0
 21 22  1  0  0  0  0
M  END
$$$$
AGN-NEW-fad-1
  -OEChem-03232022352D

 36 39  0     0  0  0  0  0  0999 V2000
    0.8675   -2.4975    0.0000 C   0  0  0  0  0  0  0  0  0  0  0  0
    0.8675   -1.4975    0.0000 C   0  0  0  0  0  0  0  0  0  0  0  0
    0.8675   -0.4975    0.0000 C   0  0  0  0  0  0  0  0  0  0  0  0
    0.0000    0.0000    0.0000 C   0  0  0  0  0  0  0  0  0  0  0  0
   -0.0000    1.0052    0.0000 C   0  0  0  0  0  0  0  0  0  0  0  0
    0.8675    1.5129    0.0000 N   0  0  0  0  0  0  0  0  0  0  0  0
    1.7350    1.0052    0.0000 C   0  0  0  0  0  0  0  0  0  0  0  0
    2.6025    1.5026    0.0000 C   0  0  0  0  0  0  0  0  0  0  0  0
    2.6054    2.5026    0.0000 N   0  0  0  0  0  0  0  0  0  0  0  0
    3.4729    3.0001    0.0000 C   0  0  0  0  0  0  0  0  0  0  0  0
    3.4759    4.0001    0.0000 O   0  0  0  0  0  0  0  0  0  0  0  0
    4.3375    2.4975    0.0000 N   0  0  0  0  0  0  0  0  0  0  0  0
    5.2050    2.9950    0.0000 C   0  0  0  0  0  0  0  0  0  0  0  0
    6.0703    2.4937    0.0000 C   0  0  0  0  0  0  0  0  0  0  0  0
    6.0659    1.4937    0.0000 C   0  0  0  0  0  0  0  0  0  0  0  0
    5.1977    0.9975    0.0000 N   0  0  0  0  0  0  0  0  0  0  0  0
    4.3353    1.5038    0.0000 C   0  0  0  0  0  0  0  0  0  0  0  0
    3.4626    1.0050    0.0000 C   0  0  0  0  0  0  0  0  0  0  0  0
    3.4522   -0.0000    0.0000 O   0  0  0  0  0  0  0  0  0  0  0  0
    4.3234   -0.5013    0.0000 C   0  0  0  0  0  0  0  0  0  0  0  0
    5.1962   -0.0025    0.0000 C   0  0  0  0  0  0  0  0  0  0  0  0
    6.9400    2.9873    0.0000 C   0  0  0  0  0  0  0  0  0  0  0  0
    6.9444    3.9925    0.0000 C   0  0  0  0  0  0  0  0  0  0  0  0
    6.0791    4.5040    0.0000 N   0  0  0  0  0  0  0  0  0  0  0  0
    5.2094    4.0002    0.0000 C   0  0  0  0  0  0  0  0  0  0  0  0
    4.3441    4.5014    0.0000 C   0  0  0  0  0  0  0  0  0  0  0  0
    1.7409    3.0052    0.0000 C   0  0  0  0  0  0  0  0  0  0  0  0
    0.8704    2.5026    0.0000 N   0  0  0  0  0  0  0  0  0  0  0  0
    0.0059    3.0154    0.0000 C   0  0  0  0  0  0  0  0  0  0  0  0
    0.0119    4.0206    0.0000 C   0  0  0  0  0  0  0  0  0  0  0  0
    0.8823    4.5130    0.0000 C   0  0  0  0  0  0  0  0  0  0  0  0
    0.8882    5.5130    0.0000 C   0  0  0  0  0  0  0  0  0  0  0  0
    1.7571    6.0078    0.0000 C   0  0  0  0  0  0  0  0  0  0  0  0
    0.0251    6.0181    0.0000 C   0  0  0  0  0  0  0  0  0  0  0  0
    1.7468    4.0104    0.0000 N   0  0  0  0  0  0  0  0  0  0  0  0
    1.7350    0.0000    0.0000 N   0  0  0  0  0  0  0  0  0  0  0  0
  1  2  3  0  0  0  0
  2  3  1  0  0  0  0
  3 36  2  0  0  0  0
  3  4  1  0  0  0  0
  4  5  2  0  0  0  0
  5  6  1  0  0  0  0
  6  7  2  0  0  0  0
  7  8  1  0  0  0  0
  8  9  1  0  0  0  0
  9 10  1  0  0  0  0
 10 11  2  0  0  0  0
 10 12  1  0  0  0  0
 12 13  1  0  0  0  0
 13 25  2  0  0  0  0
 13 14  1  0  0  0  0
 14 15  1  0  0  0  0
 15 16  1  0  0  0  0
 16 21  1  0  0  0  0
 16 17  1  0  0  0  0
 17 18  1  0  0  0  0
 18 19  1  0  0  0  0
 19 20  1  0  0  0  0
 20 21  1  0  0  0  0
 14 22  2  0  0  0  0
 22 23  1  0  0  0  0
 23 24  2  0  0  0  0
 24 25  1  0  0  0  0
 25 26  1  0  0  0  0
  9 27  1  0  0  0  0
 27 35  2  0  0  0  0
 27 28  1  0  0  0  0
 28 29  2  0  0  0  0
 29 30  1  0  0  0  0
 30 31  2  0  0  0  0
 31 32  1  0  0  0  0
 32 33  1  0  0  0  0
 32 34  1  0  0  0  0
 31 35  1  0  0  0  0
  7 36  1  0  0  0  0
M  END
$$$$
AGN-NEW-fad-2
  -OEChem-03232022352D

 36 39  0     0  0  0  0  0  0999 V2000
   -2.6025    2.4976    0.0000 C   0  0  0  0  0  0  0  0  0  0  0  0
   -1.7350    2.0001    0.0000 C   0  0  0  0  0  0  0  0  0  0  0  0
   -0.8675    1.5027    0.0000 C   0  0  0  0  0  0  0  0  0  0  0  0
   -0.8675    0.4975    0.0000 C   0  0  0  0  0  0  0  0  0  0  0  0
    0.0000    0.0000    0.0000 C   0  0  0  0  0  0  0  0  0  0  0  0
    0.8675    0.4975    0.0000 C   0  0  0  0  0  0  0  0  0  0  0  0
    0.8675    1.5027    0.0000 C   0  0  0  0  0  0  0  0  0  0  0  0
    1.7350    2.0001    0.0000 C   0  0  0  0  0  0  0  0  0  0  0  0
    2.5995    1.4976    0.0000 N   0  0  0  0  0  0  0  0  0  0  0  0
    3.4670    1.9950    0.0000 C   0  0  0  0  0  0  0  0  0  0  0  0
    4.3316    1.4925    0.0000 O   0  0  0  0  0  0  0  0  0  0  0  0
    3.4700    2.9950    0.0000 N   0  0  0  0  0  0  0  0  0  0  0  0
    4.3375    3.4925    0.0000 C   0  0  0  0  0  0  0  0  0  0  0  0
    4.3419    4.4925    0.0000 C   0  0  0  0  0  0  0  0  0  0  0  0
    3.4766    4.9938    0.0000 C   0  0  0  0  0  0  0  0  0  0  0  0
    2.6098    4.4951    0.0000 N   0  0  0  0  0  0  0  0  0  0  0  0
    2.6112    3.4951    0.0000 C   0  0  0  0  0  0  0  0  0  0  0  0
    1.7400    2.9938    0.0000 C   0  0  0  0  0  0  0  0  0  0  0  0
    0.8673    3.4925    0.0000 O   0  0  0  0  0  0  0  0  0  0  0  0
    0.8747    4.4976    0.0000 C   0  0  0  0  0  0  0  0  0  0  0  0
    1.7460    4.9989    0.0000 C   0  0  0  0  0  0  0  0  0  0  0  0
    5.2072    4.9937    0.0000 C   0  0  0  0  0  0  0  0  0  0  0  0
    6.0770    4.4898    0.0000 C   0  0  0  0  0  0  0  0  0  0  0  0
    6.0814    3.4847    0.0000 N   0  0  0  0  0  0  0  0  0  0  0  0
    5.2073    2.9886    0.0000 C   0  0  0  0  0  0  0  0  0  0  0  0
    5.2028    1.9886    0.0000 C   0  0  0  0  0  0  0  0  0  0  0  0
    2.5966    0.4976    0.0000 C   0  0  0  0  0  0  0  0  0  0  0  0
    1.7232    0.0002    0.0000 N   0  0  0  0  0  0  0  0  0  0  0  0
    1.7291   -1.0050    0.0000 C   0  0  0  0  0  0  0  0  0  0  0  0
    2.5996   -1.5076    0.0000 C   0  0  0  0  0  0  0  0  0  0  0  0
    3.4642   -1.0050    0.0000 C   0  0  0  0  0  0  0  0  0  0  0  0
    4.3302   -1.5050    0.0000 C   0  0  0  0  0  0  0  0  0  0  0  0
    5.1963   -1.0050    0.0000 C   0  0  0  0  0  0  0  0  0  0  0  0
    4.3302   -2.5050    0.0000 C   0  0  0  0  0  0  0  0  0  0  0  0
    3.4671   -0.0050    0.0000 N   0  0  0  0  0  0  0  0  0  0  0  0
   -0.0000    2.0104    0.0000 N   0  0  0  0  0  0  0  0  0  0  0  0
  1  2  3  0  0  0  0
  2  3  1  0  0  0  0
  3 36  2  0  0  0  0
  3  4  1  0  0  0  0
  4  5  2  0  0  0  0
  5  6  1  0  0  0  0
  6  7  2  0  0  0  0
  7  8  1  0  0  0  0
  8  9  1  0  0  0  0
  9 10  1  0  0  0  0
 10 11  2  0  0  0  0
 10 12  1  0  0  0  0
 12 13  1  0  0  0  0
 13 25  2  0  0  0  0
 13 14  1  0  0  0  0
 14 15  1  0  0  0  0
 15 16  1  0  0  0  0
 16 21  1  0  0  0  0
 16 17  1  0  0  0  0
 17 18  1  0  0  0  0
 18 19  1  0  0  0  0
 19 20  1  0  0  0  0
 20 21  1  0  0  0  0
 14 22  2  0  0  0  0
 22 23  1  0  0  0  0
 23 24  2  0  0  0  0
 24 25  1  0  0  0  0
 25 26  1  0  0  0  0
  9 27  1  0  0  0  0
 27 35  2  0  0  0  0
 27 28  1  0  0  0  0
 28 29  2  0  0  0  0
 29 30  1  0  0  0  0
 30 31  2  0  0  0  0
 31 32  1  0  0  0  0
 32 33  1  0  0  0  0
 32 34  1  0  0  0  0
 31 35  1  0  0  0  0
  7 36  1  0  0  0  0
M  END
$$$$
DAV-AUT-fa2-1
  -OEChem-03232022352D

 24 26  0     1  0  0  0  0  0999 V2000
   -1.5233   -1.2607    0.0000 C   0  0  0  0  0  0  0  0  0  0  0  0
   -0.8766   -0.4980    0.0000 C   0  0  1  0  0  0  0  0  0  0  0  0
    0.2402   -1.8453    0.0000 H   0  0  0  0  0  0  0  0  0  0  0  0
   -1.7434    0.0073    0.0000 C   0  0  0  0  0  0  0  0  0  0  0  0
   -2.6098   -0.4920    0.0000 C   0  0  0  0  0  0  0  0  0  0  0  0
   -3.4805    0.0073    0.0000 N   0  0  0  0  0  0  0  0  0  0  0  0
   -3.4805    1.0162    0.0000 C   0  0  0  0  0  0  0  0  0  0  0  0
   -4.3480    1.5136    0.0000 S   0  0  1  0  0  0  0  0  0  0  0  0
   -5.2155    2.0111    0.0000 C   0  0  0  0  0  0  0  0  0  0  0  0
   -4.8454    0.6461    0.0000 N   0  0  0  0  0  0  0  0  0  0  0  0
   -3.8506    2.3811    0.0000 O   0  0  0  0  0  0  0  0  0  0  0  0
   -2.6098    1.5258    0.0000 C   0  0  0  0  0  0  0  0  0  0  0  0
   -1.7391    1.0162    0.0000 C   0  0  0  0  0  0  0  0  0  0  0  0
   -0.8680    1.5198    0.0000 N   0  0  3  0  0  0  0  0  0  0  0  0
   -0.8651    2.5198    0.0000 C   0  0  0  0  0  0  0  0  0  0  0  0
   -1.7311    3.0198    0.0000 C   0  0  0  0  0  0  0  0  0  0  0  0
   -1.7282    4.0250    0.0000 C   0  0  0  0  0  0  0  0  0  0  0  0
   -0.8592    4.5302    0.0000 O   0  0  0  0  0  0  0  0  0  0  0  0
    0.0068    4.0200    0.0000 C   0  0  0  0  0  0  0  0  0  0  0  0
    0.0039    3.0148    0.0000 C   0  0  0  0  0  0  0  0  0  0  0  0
    0.0043    1.0087    0.0000 C   0  0  0  0  0  0  0  0  0  0  0  0
    0.0000    0.0000    0.0000 C   0  0  0  0  0  0  0  0  0  0  0  0
    0.9857    0.1686    0.0000 F   0  0  0  0  0  0  0  0  0  0  0  0
    0.3363   -0.9417    0.0000 F   0  0  0  0  0  0  0  0  0  0  0  0
  1  2  1  0  0  0  0
  2  3  1  6  0  0  0
  2 22  1  0  0  0  0
  2  4  1  0  0  0  0
  4 13  2  0  0  0  0
  4  5  1  0  0  0  0
  5  6  2  0  0  0  0
  6  7  1  0  0  0  0
  7  8  1  0  0  0  0
  8  9  1  6  0  0  0
  8 10  2  0  0  0  0
  8 11  2  0  0  0  0
  7 12  2  0  0  0  0
 12 13  1  0  0  0  0
 13 14  1  0  0  0  0
 14 15  1  0  0  0  0
 15 20  1  0  0  0  0
 15 16  1  0  0  0  0
 16 17  1  0  0  0  0
 17 18  1  0  0  0  0
 18 19  1  0  0  0  0
 19 20  1  0  0  0  0
 14 21  1  0  0  0  0
 21 22  1  0  0  0  0
 22 23  1  0  0  0  0
 22 24  1  0  0  0  0
M  END
$$$$
DAV-AUT-fa2-2
  -OEChem-03232022352D

 25 27  0     1  0  0  0  0  0999 V2000
   -1.5233   -1.2607    0.0000 C   0  0  0  0  0  0  0  0  0  0  0  0
   -0.8766   -0.4980    0.0000 C   0  0  1  0  0  0  0  0  0  0  0  0
    0.2402   -1.8453    0.0000 H   0  0  0  0  0  0  0  0  0  0  0  0
   -1.7434    0.0073    0.0000 C   0  0  0  0  0  0  0  0  0  0  0  0
   -1.7391    1.0162    0.0000 C   0  0  0  0  0  0  0  0  0  0  0  0
   -2.6098    1.5258    0.0000 C   0  0  0  0  0  0  0  0  0  0  0  0
   -3.4805    1.0162    0.0000 C   0  0  0  0  0  0  0  0  0  0  0  0
   -4.3480    1.5136    0.0000 S   0  0  1  0  0  0  0  0  0  0  0  0
   -5.2155    2.0111    0.0000 C   0  0  0  0  0  0  0  0  0  0  0  0
   -4.8454    0.6461    0.0000 N   0  0  0  0  0  0  0  0  0  0  0  0
   -3.8506    2.3811    0.0000 O   0  0  0  0  0  0  0  0  0  0  0  0
   -3.4805    0.0073    0.0000 N   0  0  0  0  0  0  0  0  0  0  0  0
   -2.6098   -0.4920    0.0000 C   0  0  0  0  0  0  0  0  0  0  0  0
   -2.6087   -1.4920    0.0000 F   0  0  0  0  0  0  0  0  0  0  0  0
   -0.8680    1.5198    0.0000 N   0  0  3  0  0  0  0  0  0  0  0  0
   -0.8651    2.5198    0.0000 C   0  0  0  0  0  0  0  0  0  0  0  0
   -1.7311    3.0198    0.0000 C   0  0  0  0  0  0  0  0  0  0  0  0
   -1.7282    4.0250    0.0000 C   0  0  0  0  0  0  0  0  0  0  0  0
   -0.8592    4.5302    0.0000 O   0  0  0  0  0  0  0  0  0  0  0  0
    0.0068    4.0200    0.0000 C   0  0  0  0  0  0  0  0  0  0  0  0
    0.0039    3.0148    0.0000 C   0  0  0  0  0  0  0  0  0  0  0  0
    0.0043    1.0087    0.0000 C   0  0  0  0  0  0  0  0  0  0  0  0
    0.0000    0.0000    0.0000 C   0  0  0  0  0  0  0  0  0  0  0  0
    0.9857    0.1686    0.0000 F   0  0  0  0  0  0  0  0  0  0  0  0
    0.3363   -0.9417    0.0000 F   0  0  0  0  0  0  0  0  0  0  0  0
  1  2  1  0  0  0  0
  2  3  1  6  0  0  0
  2 23  1  0  0  0  0
  2  4  1  0  0  0  0
  4 13  2  0  0  0  0
  4  5  1  0  0  0  0
  5  6  2  0  0  0  0
  6  7  1  0  0  0  0
  7  8  1  0  0  0  0
  8  9  1  6  0  0  0
  8 10  2  0  0  0  0
  8 11  2  0  0  0  0
  7 12  2  0  0  0  0
 12 13  1  0  0  0  0
 13 14  1  0  0  0  0
  5 15  1  0  0  0  0
 15 16  1  0  0  0  0
 16 21  1  0  0  0  0
 16 17  1  0  0  0  0
 17 18  1  0  0  0  0
 18 19  1  0  0  0  0
 19 20  1  0  0  0  0
 20 21  1  0  0  0  0
 15 22  1  0  0  0  0
 22 23  1  0  0  0  0
 23 24  1  0  0  0  0
 23 25  1  0  0  0  0
M  END
$$$$
DAV-AUT-fa2-3
  -OEChem-03232022352D

 24 26  0     1  0  0  0  0  0999 V2000
    3.7207   -1.8526    0.0000 C   0  0  0  0  0  0  0  0  0  0  0  0
    2.6039   -0.5053    0.0000 C   0  0  0  0  0  0  0  0  0  0  0  0
    1.9572   -1.2680    0.0000 C   0  0  0  0  0  0  0  0  0  0  0  0
    1.7371   -0.0000    0.0000 C   0  0  0  0  0  0  0  0  0  0  0  0
    0.8707   -0.4993    0.0000 C   0  0  0  0  0  0  0  0  0  0  0  0
    0.0000    0.0000    0.0000 C   0  0  0  0  0  0  0  0  0  0  0  0
    0.0000    1.0089    0.0000 C   0  0  0  0  0  0  0  0  0  0  0  0
   -0.8675    1.5063    0.0000 S   0  0  1  0  0  0  0  0  0  0  0  0
   -1.7350    2.0038    0.0000 C   0  0  0  0  0  0  0  0  0  0  0  0
   -1.3649    0.6388    0.0000 N   0  0  0  0  0  0  0  0  0  0  0  0
   -0.3701    2.3738    0.0000 O   0  0  0  0  0  0  0  0  0  0  0  0
    0.8707    1.5185    0.0000 C   0  0  0  0  0  0  0  0  0  0  0  0
    1.7414    1.0089    0.0000 C   0  0  0  0  0  0  0  0  0  0  0  0
    2.6125    1.5125    0.0000 N   0  0  3  0  0  0  0  0  0  0  0  0
    2.6154    2.5125    0.0000 C   0  0  0  0  0  0  0  0  0  0  0  0
    1.7494    3.0125    0.0000 C   0  0  0  0  0  0  0  0  0  0  0  0
    1.7523    4.0177    0.0000 C   0  0  0  0  0  0  0  0  0  0  0  0
    2.6213    4.5229    0.0000 O   0  0  0  0  0  0  0  0  0  0  0  0
    3.4873    4.0127    0.0000 C   0  0  0  0  0  0  0  0  0  0  0  0
    3.4844    3.0075    0.0000 C   0  0  0  0  0  0  0  0  0  0  0  0
    3.4848    1.0014    0.0000 C   0  0  0  0  0  0  0  0  0  0  0  0
    3.4805   -0.0073    0.0000 C   0  0  0  0  0  0  0  0  0  0  0  0
    4.4662    0.1613    0.0000 F   0  0  0  0  0  0  0  0  0  0  0  0
    3.8168   -0.9490    0.0000 F   0  0  0  0  0  0  0  0  0  0  0  0
  1  2  1  0  0  0  0
  2 22  1  0  0  0  0
  2  3  1  0  0  0  0
  2  4  1  0  0  0  0
  4 13  2  0  0  0  0
  4  5  1  0  0  0  0
  5  6  2  0  0  0  0
  6  7  1  0  0  0  0
  7  8  1  0  0  0  0
  8  9  1  6  0  0  0
  8 10  2  0  0  0  0
  8 11  2  0  0  0  0
  7 12  2  0  0  0  0
 12 13  1  0  0  0  0
 13 14  1  0  0  0  0
 14 15  1  0  0  0  0
 15 20  1  0  0  0  0
 15 16  1  0  0  0  0
 16 17  1  0  0  0  0
 17 18  1  0  0  0  0
 18 19  1  0  0  0  0
 19 20  1  0  0  0  0
 14 21  1  0  0  0  0
 21 22  1  0  0  0  0
 22 23  1  0  0  0  0
 22 24  1  0  0  0  0
M  END
$$$$
DAV-AUT-fa2-4
  -OEChem-03232022352D

 24 26  0     1  0  0  0  0  0999 V2000
    1.9572   -1.2680    0.0000 C   0  0  0  0  0  0  0  0  0  0  0  0
    2.6039   -0.5053    0.0000 C   0  0  1  0  0  0  0  0  0  0  0  0
    3.7207   -1.8526    0.0000 H   0  0  0  0  0  0  0  0  0  0  0  0
    1.7371   -0.0000    0.0000 C   0  0  0  0  0  0  0  0  0  0  0  0
    0.8707   -0.4993    0.0000 C   0  0  0  0  0  0  0  0  0  0  0  0
    0.0000    0.0000    0.0000 C   0  0  0  0  0  0  0  0  0  0  0  0
    0.0000    1.0089    0.0000 C   0  0  0  0  0  0  0  0  0  0  0  0
   -0.8675    1.5063    0.0000 S   0  0  1  0  0  0  0  0  0  0  0  0
   -1.7350    2.0038    0.0000 C   0  0  0  0  0  0  0  0  0  0  0  0
   -1.3649    0.6388    0.0000 N   0  0  0  0  0  0  0  0  0  0  0  0
   -0.3701    2.3738    0.0000 O   0  0  0  0  0  0  0  0  0  0  0  0
    0.8707    1.5185    0.0000 C   0  0  0  0  0  0  0  0  0  0  0  0
    1.7414    1.0089    0.0000 C   0  0  0  0  0  0  0  0  0  0  0  0
    2.6125    1.5125    0.0000 N   0  0  3  0  0  0  0  0  0  0  0  0
    2.6154    2.5125    0.0000 C   0  0  0  0  0  0  0  0  0  0  0  0
    1.7494    3.0125    0.0000 C   0  0  0  0  0  0  0  0  0  0  0  0
    1.7523    4.0177    0.0000 C   0  0  0  0  0  0  0  0  0  0  0  0
    2.6213    4.5229    0.0000 O   0  0  0  0  0  0  0  0  0  0  0  0
    3.4873    4.0127    0.0000 C   0  0  0  0  0  0  0  0  0  0  0  0
    3.4844    3.0075    0.0000 C   0  0  0  0  0  0  0  0  0  0  0  0
    3.4848    1.0014    0.0000 C   0  0  0  0  0  0  0  0  0  0  0  0
    3.4805   -0.0073    0.0000 C   0  0  0  0  0  0  0  0  0  0  0  0
    4.4662    0.1613    0.0000 F   0  0  0  0  0  0  0  0  0  0  0  0
    3.8168   -0.9490    0.0000 F   0  0  0  0  0  0  0  0  0  0  0  0
  1  2  1  0  0  0  0
  2  3  1  6  0  0  0
  2 22  1  0  0  0  0
  2  4  1  0  0  0  0
  4 13  2  0  0  0  0
  4  5  1  0  0  0  0
  5  6  2  0  0  0  0
  6  7  1  0  0  0  0
  7  8  1  0  0  0  0
  8  9  1  6  0  0  0
  8 10  2  0  0  0  0
  8 11  2  0  0  0  0
  7 12  2  0  0  0  0
 12 13  1  0  0  0  0
 13 14  1  0  0  0  0
 14 15  1  0  0  0  0
 15 20  1  0  0  0  0
 15 16  1  0  0  0  0
 16 17  1  0  0  0  0
 17 18  1  0  0  0  0
 18 19  1  0  0  0  0
 19 20  1  0  0  0  0
 14 21  1  0  0  0  0
 21 22  1  0  0  0  0
 22 23  1  0  0  0  0
 22 24  1  0  0  0  0
M  END
$$$$
DAV-AUT-fa2-5
  -OEChem-03232022352D

 25 27  0     1  0  0  0  0  0999 V2000
    1.9572   -1.2680    0.0000 C   0  0  0  0  0  0  0  0  0  0  0  0
    2.6039   -0.5053    0.0000 C   0  0  1  0  0  0  0  0  0  0  0  0
    3.7207   -1.8526    0.0000 H   0  0  0  0  0  0  0  0  0  0  0  0
    1.7371   -0.0000    0.0000 C   0  0  0  0  0  0  0  0  0  0  0  0
    0.8707   -0.4993    0.0000 C   0  0  0  0  0  0  0  0  0  0  0  0
    0.8718   -1.4993    0.0000 F   0  0  0  0  0  0  0  0  0  0  0  0
    0.0000    0.0000    0.0000 C   0  0  0  0  0  0  0  0  0  0  0  0
    0.0000    1.0089    0.0000 C   0  0  0  0  0  0  0  0  0  0  0  0
   -0.8675    1.5063    0.0000 S   0  0  1  0  0  0  0  0  0  0  0  0
   -1.7350    2.0038    0.0000 C   0  0  0  0  0  0  0  0  0  0  0  0
   -1.3649    0.6388    0.0000 N   0  0  0  0  0  0  0  0  0  0  0  0
   -0.3701    2.3738    0.0000 O   0  0  0  0  0  0  0  0  0  0  0  0
    0.8707    1.5185    0.0000 C   0  0  0  0  0  0  0  0  0  0  0  0
    1.7414    1.0089    0.0000 C   0  0  0  0  0  0  0  0  0  0  0  0
    2.6125    1.5125    0.0000 N   0  0  3  0  0  0  0  0  0  0  0  0
    2.6154    2.5125    0.0000 C   0  0  0  0  0  0  0  0  0  0  0  0
    1.7494    3.0125    0.0000 C   0  0  0  0  0  0  0  0  0  0  0  0
    1.7523    4.0177    0.0000 C   0  0  0  0  0  0  0  0  0  0  0  0
    2.6213    4.5229    0.0000 O   0  0  0  0  0  0  0  0  0  0  0  0
    3.4873    4.0127    0.0000 C   0  0  0  0  0  0  0  0  0  0  0  0
    3.4844    3.0075    0.0000 C   0  0  0  0  0  0  0  0  0  0  0  0
    3.4848    1.0014    0.0000 C   0  0  0  0  0  0  0  0  0  0  0  0
    3.4805   -0.0073    0.0000 C   0  0  0  0  0  0  0  0  0  0  0  0
    4.4662    0.1613    0.0000 F   0  0  0  0  0  0  0  0  0  0  0  0
    3.8168   -0.9490    0.0000 F   0  0  0  0  0  0  0  0  0  0  0  0
  1  2  1  0  0  0  0
  2  3  1  6  0  0  0
  2 23  1  0  0  0  0
  2  4  1  0  0  0  0
  4 14  2  0  0  0  0
  4  5  1  0  0  0  0
  5  6  1  0  0  0  0
  5  7  2  0  0  0  0
  7  8  1  0  0  0  0
  8  9  1  0  0  0  0
  9 10  1  6  0  0  0
  9 11  2  0  0  0  0
  9 12  2  0  0  0  0
  8 13  2  0  0  0  0
 13 14  1  0  0  0  0
 14 15  1  0  0  0  0
 15 16  1  0  0  0  0
 16 21  1  0  0  0  0
 16 17  1  0  0  0  0
 17 18  1  0  0  0  0
 18 19  1  0  0  0  0
 19 20  1  0  0  0  0
 20 21  1  0  0  0  0
 15 22  1  0  0  0  0
 22 23  1  0  0  0  0
 23 24  1  0  0  0  0
 23 25  1  0  0  0  0
M  END
$$$$
ADA-UNI-f8e-1
  -OEChem-03232022352D

 24 25  0     1  0  0  0  0  0999 V2000
    5.1896   -5.0088    0.0000 C   0  0  0  0  0  0  0  0  0  0  0  0
    5.1911   -4.0088    0.0000 S   0  0  0  0  0  0  0  0  0  0  0  0
    4.1911   -4.0073    0.0000 O   0  0  0  0  0  0  0  0  0  0  0  0
    6.1911   -4.0102    0.0000 O   0  0  0  0  0  0  0  0  0  0  0  0
    5.1925   -3.0088    0.0000 N   0  0  0  0  0  0  0  0  0  0  0  0
    4.3272   -2.5075    0.0000 C   0  0  0  0  0  0  0  0  0  0  0  0
    4.3287   -1.5075    0.0000 C   0  0  0  0  0  0  0  0  0  0  0  0
    3.4634   -1.0063    0.0000 O   0  0  0  0  0  0  0  0  0  0  0  0
    3.4648   -0.0063    0.0000 C   0  0  3  0  0  0  0  0  0  0  0  0
    2.5995    0.4950    0.0000 C   0  0  0  0  0  0  0  0  0  0  0  0
    2.6010    1.4950    0.0000 O   0  0  0  0  0  0  0  0  0  0  0  0
    1.7328   -0.0038    0.0000 N   0  0  0  0  0  0  0  0  0  0  0  0
    0.8675    0.4975    0.0000 C   0  0  0  0  0  0  0  0  0  0  0  0
    0.0000    0.0000    0.0000 C   0  0  0  0  0  0  0  0  0  0  0  0
   -0.8675    0.4975    0.0000 C   0  0  0  0  0  0  0  0  0  0  0  0
   -0.8675    1.5027    0.0000 C   0  0  0  0  0  0  0  0  0  0  0  0
    0.0000    2.0104    0.0000 N   0  0  0  0  0  0  0  0  0  0  0  0
    0.8675    1.5027    0.0000 C   0  0  0  0  0  0  0  0  0  0  0  0
    4.3316    0.4925    0.0000 C   0  0  0  0  0  0  0  0  0  0  0  0
    4.3301    1.4977    0.0000 C   0  0  0  0  0  0  0  0  0  0  0  0
    5.1968    1.9965    0.0000 C   0  0  0  0  0  0  0  0  0  0  0  0
    6.0651    1.5003    0.0000 C   0  0  0  0  0  0  0  0  0  0  0  0
    6.0666    0.4951    0.0000 C   0  0  0  0  0  0  0  0  0  0  0  0
    5.1999   -0.0139    0.0000 C   0  0  0  0  0  0  0  0  0  0  0  0
  1  2  1  0  0  0  0
  2  3  2  0  0  0  0
  2  4  2  0  0  0  0
  2  5  1  0  0  0  0
  5  6  1  0  0  0  0
  6  7  1  0  0  0  0
  7  8  1  0  0  0  0
  8  9  1  0  0  0  0
  9 10  1  0  0  0  0
 10 11  2  0  0  0  0
 10 12  1  0  0  0  0
 12 13  1  0  0  0  0
 13 18  2  0  0  0  0
 13 14  1  0  0  0  0
 14 15  2  0  0  0  0
 15 16  1  0  0  0  0
 16 17  2  0  0  0  0
 17 18  1  0  0  0  0
  9 19  1  0  0  0  0
 19 24  2  0  0  0  0
 19 20  1  0  0  0  0
 20 21  2  0  0  0  0
 21 22  1  0  0  0  0
 22 23  2  0  0  0  0
 23 24  1  0  0  0  0
M  END
$$$$
ADA-UNI-f8e-2
  -OEChem-03232022352D

 23 24  0     1  0  0  0  0  0999 V2000
    0.8617   -3.5025    0.0000 C   0  0  0  0  0  0  0  0  0  0  0  0
    1.7284   -3.0038    0.0000 S   0  0  0  0  0  0  0  0  0  0  0  0
    1.2297   -2.1370    0.0000 O   0  0  0  0  0  0  0  0  0  0  0  0
    2.2272   -3.8705    0.0000 O   0  0  0  0  0  0  0  0  0  0  0  0
    2.5952   -2.5050    0.0000 N   0  0  0  0  0  0  0  0  0  0  0  0
    2.5966   -1.5050    0.0000 C   0  0  0  0  0  0  0  0  0  0  0  0
    3.4634   -1.0063    0.0000 C   0  0  0  0  0  0  0  0  0  0  0  0
    3.4648   -0.0063    0.0000 C   0  0  3  0  0  0  0  0  0  0  0  0
    2.5995    0.4950    0.0000 C   0  0  0  0  0  0  0  0  0  0  0  0
    2.6010    1.4950    0.0000 O   0  0  0  0  0  0  0  0  0  0  0  0
    1.7328   -0.0038    0.0000 N   0  0  0  0  0  0  0  0  0  0  0  0
    0.8675    0.4975    0.0000 C   0  0  0  0  0  0  0  0  0  0  0  0
    0.0000    0.0000    0.0000 C   0  0  0  0  0  0  0  0  0  0  0  0
   -0.8675    0.4975    0.0000 C   0  0  0  0  0  0  0  0  0  0  0  0
   -0.8675    1.5027    0.0000 C   0  0  0  0  0  0  0  0  0  0  0  0
    0.0000    2.0104    0.0000 N   0  0  0  0  0  0  0  0  0  0  0  0
    0.8675    1.5027    0.0000 C   0  0  0  0  0  0  0  0  0  0  0  0
    4.3316    0.4925    0.0000 C   0  0  0  0  0  0  0  0  0  0  0  0
    4.3301    1.4977    0.0000 C   0  0  0  0  0  0  0  0  0  0  0  0
    5.1968    1.9965    0.0000 C   0  0  0  0  0  0  0  0  0  0  0  0
    6.0651    1.5003    0.0000 C   0  0  0  0  0  0  0  0  0  0  0  0
    6.0666    0.4951    0.0000 C   0  0  0  0  0  0  0  0  0  0  0  0
    5.1999   -0.0139    0.0000 C   0  0  0  0  0  0  0  0  0  0  0  0
  1  2  1  0  0  0  0
  2  3  2  0  0  0  0
  2  4  2  0  0  0  0
  2  5  1  0  0  0  0
  5  6  1  0  0  0  0
  6  7  1  0  0  0  0
  7  8  1  0  0  0  0
  8  9  1  0  0  0  0
  9 10  2  0  0  0  0
  9 11  1  0  0  0  0
 11 12  1  0  0  0  0
 12 17  2  0  0  0  0
 12 13  1  0  0  0  0
 13 14  2  0  0  0  0
 14 15  1  0  0  0  0
 15 16  2  0  0  0  0
 16 17  1  0  0  0  0
  8 18  1  0  0  0  0
 18 23  2  0  0  0  0
 18 19  1  0  0  0  0
 19 20  2  0  0  0  0
 20 21  1  0  0  0  0
 21 22  2  0  0  0  0
 22 23  1  0  0  0  0
M  END
$$$$
ADA-UNI-f8e-3
  -OEChem-03232022352D

 24 26  0     1  0  0  0  0  0999 V2000
    0.9939   -3.8587    0.0000 C   0  0  0  0  0  0  0  0  0  0  0  0
    1.7604   -3.2165    0.0000 S   0  0  0  0  0  0  0  0  0  0  0  0
    1.1182   -2.4500    0.0000 O   0  0  0  0  0  0  0  0  0  0  0  0
    2.4026   -3.9830    0.0000 O   0  0  0  0  0  0  0  0  0  0  0  0
    2.5269   -2.5743    0.0000 N   0  0  0  0  0  0  0  0  0  0  0  0
    2.3540   -1.5893    0.0000 C   0  0  0  0  0  0  0  0  0  0  0  0
    3.1205   -0.9471    0.0000 C   0  0  3  0  0  0  0  0  0  0  0  0
    4.1071   -0.7728    0.0000 C   0  0  0  0  0  0  0  0  0  0  0  0
    3.4648   -0.0063    0.0000 C   0  0  3  0  0  0  0  0  0  0  0  0
    2.5995    0.4950    0.0000 C   0  0  0  0  0  0  0  0  0  0  0  0
    2.6010    1.4950    0.0000 O   0  0  0  0  0  0  0  0  0  0  0  0
    1.7328   -0.0038    0.0000 N   0  0  0  0  0  0  0  0  0  0  0  0
    0.8675    0.4975    0.0000 C   0  0  0  0  0  0  0  0  0  0  0  0
    0.0000    0.0000    0.0000 C   0  0  0  0  0  0  0  0  0  0  0  0
   -0.8675    0.4975    0.0000 C   0  0  0  0  0  0  0  0  0  0  0  0
   -0.8675    1.5027    0.0000 C   0  0  0  0  0  0  0  0  0  0  0  0
    0.0000    2.0104    0.0000 N   0  0  0  0  0  0  0  0  0  0  0  0
    0.8675    1.5027    0.0000 C   0  0  0  0  0  0  0  0  0  0  0  0
    4.1085    0.7591    0.0000 C   0  0  0  0  0  0  0  0  0  0  0  0
    3.7629    1.7030    0.0000 C   0  0  0  0  0  0  0  0  0  0  0  0
    4.4065    2.4684    0.0000 C   0  0  0  0  0  0  0  0  0  0  0  0
    5.3922    2.2994    0.0000 C   0  0  0  0  0  0  0  0  0  0  0  0
    5.7377    1.3555    0.0000 C   0  0  0  0  0  0  0  0  0  0  0  0
    5.0976    0.5805    0.0000 C   0  0  0  0  0  0  0  0  0  0  0  0
  1  2  1  0  0  0  0
  2  3  2  0  0  0  0
  2  4  2  0  0  0  0
  2  5  1  0  0  0  0
  5  6  1  0  0  0  0
  6  7  1  0  0  0  0
  7  9  1  0  0  0  0
  7  8  1  0  0  0  0
  8  9  1  0  0  0  0
  9 10  1  0  0  0  0
 10 11  2  0  0  0  0
 10 12  1  0  0  0  0
 12 13  1  0  0  0  0
 13 18  2  0  0  0  0
 13 14  1  0  0  0  0
 14 15  2  0  0  0  0
 15 16  1  0  0  0  0
 16 17  2  0  0  0  0
 17 18  1  0  0  0  0
  9 19  1  0  0  0  0
 19 24  2  0  0  0  0
 19 20  1  0  0  0  0
 20 21  2  0  0  0  0
 21 22  1  0  0  0  0
 22 23  2  0  0  0  0
 23 24  1  0  0  0  0
M  END
$$$$
ADA-UNI-f8e-4
  -OEChem-03232022352D

 21 22  0     1  0  0  0  0  0999 V2000
    5.1911   -4.0088    0.0000 C   0  0  0  0  0  0  0  0  0  0  0  0
    5.1925   -3.0088    0.0000 N   0  0  0  0  0  0  0  0  0  0  0  0
    4.3272   -2.5075    0.0000 C   0  0  0  0  0  0  0  0  0  0  0  0
    4.3287   -1.5075    0.0000 C   0  0  0  0  0  0  0  0  0  0  0  0
    3.4634   -1.0063    0.0000 O   0  0  0  0  0  0  0  0  0  0  0  0
    3.4648   -0.0063    0.0000 C   0  0  3  0  0  0  0  0  0  0  0  0
    2.5995    0.4950    0.0000 C   0  0  0  0  0  0  0  0  0  0  0  0
    2.6010    1.4950    0.0000 O   0  0  0  0  0  0  0  0  0  0  0  0
    1.7328   -0.0038    0.0000 N   0  0  0  0  0  0  0  0  0  0  0  0
    0.8675    0.4975    0.0000 C   0  0  0  0  0  0  0  0  0  0  0  0
    0.0000    0.0000    0.0000 C   0  0  0  0  0  0  0  0  0  0  0  0
   -0.8675    0.4975    0.0000 C   0  0  0  0  0  0  0  0  0  0  0  0
   -0.8675    1.5027    0.0000 C   0  0  0  0  0  0  0  0  0  0  0  0
    0.0000    2.0104    0.0000 N   0  0  0  0  0  0  0  0  0  0  0  0
    0.8675    1.5027    0.0000 C   0  0  0  0  0  0  0  0  0  0  0  0
    4.3316    0.4925    0.0000 C   0  0  0  0  0  0  0  0  0  0  0  0
    4.3301    1.4977    0.0000 C   0  0  0  0  0  0  0  0  0  0  0  0
    5.1968    1.9965    0.0000 C   0  0  0  0  0  0  0  0  0  0  0  0
    6.0651    1.5003    0.0000 C   0  0  0  0  0  0  0  0  0  0  0  0
    6.0666    0.4951    0.0000 C   0  0  0  0  0  0  0  0  0  0  0  0
    5.1999   -0.0139    0.0000 C   0  0  0  0  0  0  0  0  0  0  0  0
  1  2  1  0  0  0  0
  2  3  1  0  0  0  0
  3  4  1  0  0  0  0
  4  5  1  0  0  0  0
  5  6  1  0  0  0  0
  6  7  1  0  0  0  0
  7  8  2  0  0  0  0
  7  9  1  0  0  0  0
  9 10  1  0  0  0  0
 10 15  2  0  0  0  0
 10 11  1  0  0  0  0
 11 12  2  0  0  0  0
 12 13  1  0  0  0  0
 13 14  2  0  0  0  0
 14 15  1  0  0  0  0
  6 16  1  0  0  0  0
 16 21  2  0  0  0  0
 16 17  1  0  0  0  0
 17 18  2  0  0  0  0
 18 19  1  0  0  0  0
 19 20  2  0  0  0  0
 20 21  1  0  0  0  0
M  END
$$$$
ADA-UNI-f8e-5
  -OEChem-03232022352D

 20 21  0     1  0  0  0  0  0999 V2000
    1.7284   -3.0038    0.0000 C   0  0  0  0  0  0  0  0  0  0  0  0
    2.5952   -2.5050    0.0000 N   0  0  0  0  0  0  0  0  0  0  0  0
    2.5966   -1.5050    0.0000 C   0  0  0  0  0  0  0  0  0  0  0  0
    3.4634   -1.0063    0.0000 C   0  0  0  0  0  0  0  0  0  0  0  0
    3.4648   -0.0063    0.0000 C   0  0  3  0  0  0  0  0  0  0  0  0
    2.5995    0.4950    0.0000 C   0  0  0  0  0  0  0  0  0  0  0  0
    2.6010    1.4950    0.0000 O   0  0  0  0  0  0  0  0  0  0  0  0
    1.7328   -0.0038    0.0000 N   0  0  0  0  0  0  0  0  0  0  0  0
    0.8675    0.4975    0.0000 C   0  0  0  0  0  0  0  0  0  0  0  0
    0.0000    0.0000    0.0000 C   0  0  0  0  0  0  0  0  0  0  0  0
   -0.8675    0.4975    0.0000 C   0  0  0  0  0  0  0  0  0  0  0  0
   -0.8675    1.5027    0.0000 C   0  0  0  0  0  0  0  0  0  0  0  0
    0.0000    2.0104    0.0000 N   0  0  0  0  0  0  0  0  0  0  0  0
    0.8675    1.5027    0.0000 C   0  0  0  0  0  0  0  0  0  0  0  0
    4.3316    0.4925    0.0000 C   0  0  0  0  0  0  0  0  0  0  0  0
    4.3301    1.4977    0.0000 C   0  0  0  0  0  0  0  0  0  0  0  0
    5.1968    1.9965    0.0000 C   0  0  0  0  0  0  0  0  0  0  0  0
    6.0651    1.5003    0.0000 C   0  0  0  0  0  0  0  0  0  0  0  0
    6.0666    0.4951    0.0000 C   0  0  0  0  0  0  0  0  0  0  0  0
    5.1999   -0.0139    0.0000 C   0  0  0  0  0  0  0  0  0  0  0  0
  1  2  1  0  0  0  0
  2  3  1  0  0  0  0
  3  4  1  0  0  0  0
  4  5  1  0  0  0  0
  5  6  1  0  0  0  0
  6  7  2  0  0  0  0
  6  8  1  0  0  0  0
  8  9  1  0  0  0  0
  9 14  2  0  0  0  0
  9 10  1  0  0  0  0
 10 11  2  0  0  0  0
 11 12  1  0  0  0  0
 12 13  2  0  0  0  0
 13 14  1  0  0  0  0
  5 15  1  0  0  0  0
 15 20  2  0  0  0  0
 15 16  1  0  0  0  0
 16 17  2  0  0  0  0
 17 18  1  0  0  0  0
 18 19  2  0  0  0  0
 19 20  1  0  0  0  0
M  END
$$$$
ADA-UNI-f8e-6
  -OEChem-03232022352D

 21 23  0     1  0  0  0  0  0999 V2000
    1.7604   -3.2165    0.0000 C   0  0  0  0  0  0  0  0  0  0  0  0
    2.5269   -2.5743    0.0000 N   0  0  0  0  0  0  0  0  0  0  0  0
    2.3540   -1.5893    0.0000 C   0  0  0  0  0  0  0  0  0  0  0  0
    3.1205   -0.9471    0.0000 C   0  0  3  0  0  0  0  0  0  0  0  0
    4.1071   -0.7728    0.0000 C   0  0  0  0  0  0  0  0  0  0  0  0
    3.4648   -0.0063    0.0000 C   0  0  3  0  0  0  0  0  0  0  0  0
    2.5995    0.4950    0.0000 C   0  0  0  0  0  0  0  0  0  0  0  0
    2.6010    1.4950    0.0000 O   0  0  0  0  0  0  0  0  0  0  0  0
    1.7328   -0.0038    0.0000 N   0  0  0  0  0  0  0  0  0  0  0  0
    0.8675    0.4975    0.0000 C   0  0  0  0  0  0  0  0  0  0  0  0
    0.0000    0.0000    0.0000 C   0  0  0  0  0  0  0  0  0  0  0  0
   -0.8675    0.4975    0.0000 C   0  0  0  0  0  0  0  0  0  0  0  0
   -0.8675    1.5027    0.0000 C   0  0  0  0  0  0  0  0  0  0  0  0
    0.0000    2.0104    0.0000 N   0  0  0  0  0  0  0  0  0  0  0  0
    0.8675    1.5027    0.0000 C   0  0  0  0  0  0  0  0  0  0  0  0
    4.1085    0.7591    0.0000 C   0  0  0  0  0  0  0  0  0  0  0  0
    3.7629    1.7030    0.0000 C   0  0  0  0  0  0  0  0  0  0  0  0
    4.4065    2.4684    0.0000 C   0  0  0  0  0  0  0  0  0  0  0  0
    5.3922    2.2994    0.0000 C   0  0  0  0  0  0  0  0  0  0  0  0
    5.7377    1.3555    0.0000 C   0  0  0  0  0  0  0  0  0  0  0  0
    5.0976    0.5805    0.0000 C   0  0  0  0  0  0  0  0  0  0  0  0
  1  2  1  0  0  0  0
  2  3  1  0  0  0  0
  3  4  1  0  0  0  0
  4  6  1  0  0  0  0
  4  5  1  0  0  0  0
  5  6  1  0  0  0  0
  6  7  1  0  0  0  0
  7  8  2  0  0  0  0
  7  9  1  0  0  0  0
  9 10  1  0  0  0  0
 10 15  2  0  0  0  0
 10 11  1  0  0  0  0
 11 12  2  0  0  0  0
 12 13  1  0  0  0  0
 13 14  2  0  0  0  0
 14 15  1  0  0  0  0
  6 16  1  0  0  0  0
 16 21  2  0  0  0  0
 16 17  1  0  0  0  0
 17 18  2  0  0  0  0
 18 19  1  0  0  0  0
 19 20  2  0  0  0  0
 20 21  1  0  0  0  0
M  END
$$$$
ADA-UNI-f8e-7
  -OEChem-03232022352D

 25 26  0     1  0  0  0  0  0999 V2000
    5.1896   -5.0088    0.0000 C   0  0  0  0  0  0  0  0  0  0  0  0
    5.1911   -4.0088    0.0000 S   0  0  0  0  0  0  0  0  0  0  0  0
    4.1911   -4.0073    0.0000 O   0  0  0  0  0  0  0  0  0  0  0  0
    6.1911   -4.0102    0.0000 O   0  0  0  0  0  0  0  0  0  0  0  0
    5.1925   -3.0088    0.0000 N   0  0  0  0  0  0  0  0  0  0  0  0
    4.3272   -2.5075    0.0000 C   0  0  0  0  0  0  0  0  0  0  0  0
    4.3287   -1.5075    0.0000 C   0  0  0  0  0  0  0  0  0  0  0  0
    3.4634   -1.0063    0.0000 O   0  0  0  0  0  0  0  0  0  0  0  0
    3.4648   -0.0063    0.0000 C   0  0  3  0  0  0  0  0  0  0  0  0
    2.5995    0.4950    0.0000 C   0  0  0  0  0  0  0  0  0  0  0  0
    2.6010    1.4950    0.0000 O   0  0  0  0  0  0  0  0  0  0  0  0
    1.7328   -0.0038    0.0000 N   0  0  0  0  0  0  0  0  0  0  0  0
    0.8675    0.4975    0.0000 C   0  0  0  0  0  0  0  0  0  0  0  0
    0.0000    0.0000    0.0000 C   0  0  0  0  0  0  0  0  0  0  0  0
   -0.8675    0.4975    0.0000 C   0  0  0  0  0  0  0  0  0  0  0  0
   -0.8675    1.5027    0.0000 C   0  0  0  0  0  0  0  0  0  0  0  0
    0.0000    2.0104    0.0000 N   0  0  0  0  0  0  0  0  0  0  0  0
    0.8675    1.5027    0.0000 C   0  0  0  0  0  0  0  0  0  0  0  0
    4.3316    0.4925    0.0000 C   0  0  0  0  0  0  0  0  0  0  0  0
    5.1999   -0.0140    0.0000 C   0  0  0  0  0  0  0  0  0  0  0  0
    6.0667    0.4848    0.0000 C   0  0  0  0  0  0  0  0  0  0  0  0
    6.0740    1.4848    0.0000 C   0  0  0  0  0  0  0  0  0  0  0  0
    5.2057    1.9912    0.0000 C   0  0  0  0  0  0  0  0  0  0  0  0
    5.2131    2.9912    0.0000 Cl  0  0  0  0  0  0  0  0  0  0  0  0
    4.3301    1.4976    0.0000 C   0  0  0  0  0  0  0  0  0  0  0  0
  1  2  1  0  0  0  0
  2  3  2  0  0  0  0
  2  4  2  0  0  0  0
  2  5  1  0  0  0  0
  5  6  1  0  0  0  0
  6  7  1  0  0  0  0
  7  8  1  0  0  0  0
  8  9  1  0  0  0  0
  9 10  1  0  0  0  0
 10 11  2  0  0  0  0
 10 12  1  0  0  0  0
 12 13  1  0  0  0  0
 13 18  2  0  0  0  0
 13 14  1  0  0  0  0
 14 15  2  0  0  0  0
 15 16  1  0  0  0  0
 16 17  2  0  0  0  0
 17 18  1  0  0  0  0
  9 19  1  0  0  0  0
 19 25  2  0  0  0  0
 19 20  1  0  0  0  0
 20 21  2  0  0  0  0
 21 22  1  0  0  0  0
 22 23  2  0  0  0  0
 23 24  1  0  0  0  0
 23 25  1  0  0  0  0
M  END
$$$$
ADA-UNI-f8e-8
  -OEChem-03232022352D

 24 25  0     1  0  0  0  0  0999 V2000
    0.8617   -3.5025    0.0000 C   0  0  0  0  0  0  0  0  0  0  0  0
    1.7284   -3.0038    0.0000 S   0  0  0  0  0  0  0  0  0  0  0  0
    1.2297   -2.1370    0.0000 O   0  0  0  0  0  0  0  0  0  0  0  0
    2.2272   -3.8705    0.0000 O   0  0  0  0  0  0  0  0  0  0  0  0
    2.5952   -2.5050    0.0000 N   0  0  0  0  0  0  0  0  0  0  0  0
    2.5966   -1.5050    0.0000 C   0  0  0  0  0  0  0  0  0  0  0  0
    3.4634   -1.0063    0.0000 C   0  0  0  0  0  0  0  0  0  0  0  0
    3.4648   -0.0063    0.0000 C   0  0  3  0  0  0  0  0  0  0  0  0
    2.5995    0.4950    0.0000 C   0  0  0  0  0  0  0  0  0  0  0  0
    2.6010    1.4950    0.0000 O   0  0  0  0  0  0  0  0  0  0  0  0
    1.7328   -0.0038    0.0000 N   0  0  0  0  0  0  0  0  0  0  0  0
    0.8675    0.4975    0.0000 C   0  0  0  0  0  0  0  0  0  0  0  0
    0.0000    0.0000    0.0000 C   0  0  0  0  0  0  0  0  0  0  0  0
   -0.8675    0.4975    0.0000 C   0  0  0  0  0  0  0  0  0  0  0  0
   -0.8675    1.5027    0.0000 C   0  0  0  0  0  0  0  0  0  0  0  0
    0.0000    2.0104    0.0000 N   0  0  0  0  0  0  0  0  0  0  0  0
    0.8675    1.5027    0.0000 C   0  0  0  0  0  0  0  0  0  0  0  0
    4.3316    0.4925    0.0000 C   0  0  0  0  0  0  0  0  0  0  0  0
    5.1999   -0.0140    0.0000 C   0  0  0  0  0  0  0  0  0  0  0  0
    6.0667    0.4848    0.0000 C   0  0  0  0  0  0  0  0  0  0  0  0
    6.0740    1.4848    0.0000 C   0  0  0  0  0  0  0  0  0  0  0  0
    5.2057    1.9912    0.0000 C   0  0  0  0  0  0  0  0  0  0  0  0
    5.2131    2.9912    0.0000 Cl  0  0  0  0  0  0  0  0  0  0  0  0
    4.3301    1.4976    0.0000 C   0  0  0  0  0  0  0  0  0  0  0  0
  1  2  1  0  0  0  0
  2  3  2  0  0  0  0
  2  4  2  0  0  0  0
  2  5  1  0  0  0  0
  5  6  1  0  0  0  0
  6  7  1  0  0  0  0
  7  8  1  0  0  0  0
  8  9  1  0  0  0  0
  9 10  2  0  0  0  0
  9 11  1  0  0  0  0
 11 12  1  0  0  0  0
 12 17  2  0  0  0  0
 12 13  1  0  0  0  0
 13 14  2  0  0  0  0
 14 15  1  0  0  0  0
 15 16  2  0  0  0  0
 16 17  1  0  0  0  0
  8 18  1  0  0  0  0
 18 24  2  0  0  0  0
 18 19  1  0  0  0  0
 19 20  2  0  0  0  0
 20 21  1  0  0  0  0
 21 22  2  0  0  0  0
 22 23  1  0  0  0  0
 22 24  1  0  0  0  0
M  END
$$$$
ADA-UNI-f8e-9
  -OEChem-03232022352D

 25 27  0     1  0  0  0  0  0999 V2000
    0.9939   -3.8587    0.0000 C   0  0  0  0  0  0  0  0  0  0  0  0
    1.7604   -3.2165    0.0000 S   0  0  0  0  0  0  0  0  0  0  0  0
    1.1182   -2.4500    0.0000 O   0  0  0  0  0  0  0  0  0  0  0  0
    2.4026   -3.9830    0.0000 O   0  0  0  0  0  0  0  0  0  0  0  0
    2.5269   -2.5743    0.0000 N   0  0  0  0  0  0  0  0  0  0  0  0
    2.3540   -1.5893    0.0000 C   0  0  0  0  0  0  0  0  0  0  0  0
    3.1205   -0.9471    0.0000 C   0  0  3  0  0  0  0  0  0  0  0  0
    4.1071   -0.7728    0.0000 C   0  0  0  0  0  0  0  0  0  0  0  0
    3.4648   -0.0063    0.0000 C   0  0  3  0  0  0  0  0  0  0  0  0
    2.5995    0.4950    0.0000 C   0  0  0  0  0  0  0  0  0  0  0  0
    2.6010    1.4950    0.0000 O   0  0  0  0  0  0  0  0  0  0  0  0
    1.7328   -0.0038    0.0000 N   0  0  0  0  0  0  0  0  0  0  0  0
    0.8675    0.4975    0.0000 C   0  0  0  0  0  0  0  0  0  0  0  0
    0.0000    0.0000    0.0000 C   0  0  0  0  0  0  0  0  0  0  0  0
   -0.8675    0.4975    0.0000 C   0  0  0  0  0  0  0  0  0  0  0  0
   -0.8675    1.5027    0.0000 C   0  0  0  0  0  0  0  0  0  0  0  0
    0.0000    2.0104    0.0000 N   0  0  0  0  0  0  0  0  0  0  0  0
    0.8675    1.5027    0.0000 C   0  0  0  0  0  0  0  0  0  0  0  0
    4.1085    0.7591    0.0000 C   0  0  0  0  0  0  0  0  0  0  0  0
    5.0977    0.5805    0.0000 C   0  0  0  0  0  0  0  0  0  0  0  0
    5.7414    1.3459    0.0000 C   0  0  0  0  0  0  0  0  0  0  0  0
    5.4059    2.2879    0.0000 C   0  0  0  0  0  0  0  0  0  0  0  0
    4.4166    2.4665    0.0000 C   0  0  0  0  0  0  0  0  0  0  0  0
    4.0812    3.4085    0.0000 Cl  0  0  0  0  0  0  0  0  0  0  0  0
    3.7629    1.7030    0.0000 C   0  0  0  0  0  0  0  0  0  0  0  0
  1  2  1  0  0  0  0
  2  3  2  0  0  0  0
  2  4  2  0  0  0  0
  2  5  1  0  0  0  0
  5  6  1  0  0  0  0
  6  7  1  0  0  0  0
  7  9  1  0  0  0  0
  7  8  1  0  0  0  0
  8  9  1  0  0  0  0
  9 10  1  0  0  0  0
 10 11  2  0  0  0  0
 10 12  1  0  0  0  0
 12 13  1  0  0  0  0
 13 18  2  0  0  0  0
 13 14  1  0  0  0  0
 14 15  2  0  0  0  0
 15 16  1  0  0  0  0
 16 17  2  0  0  0  0
 17 18  1  0  0  0  0
  9 19  1  0  0  0  0
 19 25  2  0  0  0  0
 19 20  1  0  0  0  0
 20 21  2  0  0  0  0
 21 22  1  0  0  0  0
 22 23  2  0  0  0  0
 23 24  1  0  0  0  0
 23 25  1  0  0  0  0
M  END
$$$$
ADA-UNI-f8e-10
  -OEChem-03232022352D

 22 23  0     1  0  0  0  0  0999 V2000
    5.1911   -4.0088    0.0000 C   0  0  0  0  0  0  0  0  0  0  0  0
    5.1925   -3.0088    0.0000 N   0  0  0  0  0  0  0  0  0  0  0  0
    4.3272   -2.5075    0.0000 C   0  0  0  0  0  0  0  0  0  0  0  0
    4.3287   -1.5075    0.0000 C   0  0  0  0  0  0  0  0  0  0  0  0
    3.4634   -1.0063    0.0000 O   0  0  0  0  0  0  0  0  0  0  0  0
    3.4648   -0.0063    0.0000 C   0  0  3  0  0  0  0  0  0  0  0  0
    2.5995    0.4950    0.0000 C   0  0  0  0  0  0  0  0  0  0  0  0
    2.6010    1.4950    0.0000 O   0  0  0  0  0  0  0  0  0  0  0  0
    1.7328   -0.0038    0.0000 N   0  0  0  0  0  0  0  0  0  0  0  0
    0.8675    0.4975    0.0000 C   0  0  0  0  0  0  0  0  0  0  0  0
    0.0000    0.0000    0.0000 C   0  0  0  0  0  0  0  0  0  0  0  0
   -0.8675    0.4975    0.0000 C   0  0  0  0  0  0  0  0  0  0  0  0
   -0.8675    1.5027    0.0000 C   0  0  0  0  0  0  0  0  0  0  0  0
    0.0000    2.0104    0.0000 N   0  0  0  0  0  0  0  0  0  0  0  0
    0.8675    1.5027    0.0000 C   0  0  0  0  0  0  0  0  0  0  0  0
    4.3316    0.4925    0.0000 C   0  0  0  0  0  0  0  0  0  0  0  0
    5.1999   -0.0140    0.0000 C   0  0  0  0  0  0  0  0  0  0  0  0
    6.0667    0.4848    0.0000 C   0  0  0  0  0  0  0  0  0  0  0  0
    6.0740    1.4848    0.0000 C   0  0  0  0  0  0  0  0  0  0  0  0
    5.2057    1.9912    0.0000 C   0  0  0  0  0  0  0  0  0  0  0  0
    5.2131    2.9912    0.0000 Cl  0  0  0  0  0  0  0  0  0  0  0  0
    4.3301    1.4976    0.0000 C   0  0  0  0  0  0  0  0  0  0  0  0
  1  2  1  0  0  0  0
  2  3  1  0  0  0  0
  3  4  1  0  0  0  0
  4  5  1  0  0  0  0
  5  6  1  0  0  0  0
  6  7  1  0  0  0  0
  7  8  2  0  0  0  0
  7  9  1  0  0  0  0
  9 10  1  0  0  0  0
 10 15  2  0  0  0  0
 10 11  1  0  0  0  0
 11 12  2  0  0  0  0
 12 13  1  0  0  0  0
 13 14  2  0  0  0  0
 14 15  1  0  0  0  0
  6 16  1  0  0  0  0
 16 22  2  0  0  0  0
 16 17  1  0  0  0  0
 17 18  2  0  0  0  0
 18 19  1  0  0  0  0
 19 20  2  0  0  0  0
 20 21  1  0  0  0  0
 20 22  1  0  0  0  0
M  END
$$$$
ADA-UNI-f8e-11
  -OEChem-03232022352D

 21 22  0     1  0  0  0  0  0999 V2000
    1.7284   -3.0038    0.0000 C   0  0  0  0  0  0  0  0  0  0  0  0
    2.5952   -2.5050    0.0000 N   0  0  0  0  0  0  0  0  0  0  0  0
    2.5966   -1.5050    0.0000 C   0  0  0  0  0  0  0  0  0  0  0  0
    3.4634   -1.0063    0.0000 C   0  0  0  0  0  0  0  0  0  0  0  0
    3.4648   -0.0063    0.0000 C   0  0  3  0  0  0  0  0  0  0  0  0
    2.5995    0.4950    0.0000 C   0  0  0  0  0  0  0  0  0  0  0  0
    2.6010    1.4950    0.0000 O   0  0  0  0  0  0  0  0  0  0  0  0
    1.7328   -0.0038    0.0000 N   0  0  0  0  0  0  0  0  0  0  0  0
    0.8675    0.4975    0.0000 C   0  0  0  0  0  0  0  0  0  0  0  0
    0.0000    0.0000    0.0000 C   0  0  0  0  0  0  0  0  0  0  0  0
   -0.8675    0.4975    0.0000 C   0  0  0  0  0  0  0  0  0  0  0  0
   -0.8675    1.5027    0.0000 C   0  0  0  0  0  0  0  0  0  0  0  0
    0.0000    2.0104    0.0000 N   0  0  0  0  0  0  0  0  0  0  0  0
    0.8675    1.5027    0.0000 C   0  0  0  0  0  0  0  0  0  0  0  0
    4.3316    0.4925    0.0000 C   0  0  0  0  0  0  0  0  0  0  0  0
    5.1999   -0.0140    0.0000 C   0  0  0  0  0  0  0  0  0  0  0  0
    6.0667    0.4848    0.0000 C   0  0  0  0  0  0  0  0  0  0  0  0
    6.0740    1.4848    0.0000 C   0  0  0  0  0  0  0  0  0  0  0  0
    5.2057    1.9912    0.0000 C   0  0  0  0  0  0  0  0  0  0  0  0
    5.2131    2.9912    0.0000 Cl  0  0  0  0  0  0  0  0  0  0  0  0
    4.3301    1.4976    0.0000 C   0  0  0  0  0  0  0  0  0  0  0  0
  1  2  1  0  0  0  0
  2  3  1  0  0  0  0
  3  4  1  0  0  0  0
  4  5  1  0  0  0  0
  5  6  1  0  0  0  0
  6  7  2  0  0  0  0
  6  8  1  0  0  0  0
  8  9  1  0  0  0  0
  9 14  2  0  0  0  0
  9 10  1  0  0  0  0
 10 11  2  0  0  0  0
 11 12  1  0  0  0  0
 12 13  2  0  0  0  0
 13 14  1  0  0  0  0
  5 15  1  0  0  0  0
 15 21  2  0  0  0  0
 15 16  1  0  0  0  0
 16 17  2  0  0  0  0
 17 18  1  0  0  0  0
 18 19  2  0  0  0  0
 19 20  1  0  0  0  0
 19 21  1  0  0  0  0
M  END
$$$$
ADA-UNI-f8e-12
  -OEChem-03232022352D

 22 24  0     1  0  0  0  0  0999 V2000
    1.7604   -3.2165    0.0000 C   0  0  0  0  0  0  0  0  0  0  0  0
    2.5269   -2.5743    0.0000 N   0  0  0  0  0  0  0  0  0  0  0  0
    2.3540   -1.5893    0.0000 C   0  0  0  0  0  0  0  0  0  0  0  0
    3.1205   -0.9471    0.0000 C   0  0  3  0  0  0  0  0  0  0  0  0
    4.1071   -0.7728    0.0000 C   0  0  0  0  0  0  0  0  0  0  0  0
    3.4648   -0.0063    0.0000 C   0  0  3  0  0  0  0  0  0  0  0  0
    2.5995    0.4950    0.0000 C   0  0  0  0  0  0  0  0  0  0  0  0
    2.6010    1.4950    0.0000 O   0  0  0  0  0  0  0  0  0  0  0  0
    1.7328   -0.0038    0.0000 N   0  0  0  0  0  0  0  0  0  0  0  0
    0.8675    0.4975    0.0000 C   0  0  0  0  0  0  0  0  0  0  0  0
    0.0000    0.0000    0.0000 C   0  0  0  0  0  0  0  0  0  0  0  0
   -0.8675    0.4975    0.0000 C   0  0  0  0  0  0  0  0  0  0  0  0
   -0.8675    1.5027    0.0000 C   0  0  0  0  0  0  0  0  0  0  0  0
    0.0000    2.0104    0.0000 N   0  0  0  0  0  0  0  0  0  0  0  0
    0.8675    1.5027    0.0000 C   0  0  0  0  0  0  0  0  0  0  0  0
    4.1085    0.7591    0.0000 C   0  0  0  0  0  0  0  0  0  0  0  0
    5.0977    0.5805    0.0000 C   0  0  0  0  0  0  0  0  0  0  0  0
    5.7414    1.3459    0.0000 C   0  0  0  0  0  0  0  0  0  0  0  0
    5.4059    2.2879    0.0000 C   0  0  0  0  0  0  0  0  0  0  0  0
    4.4166    2.4665    0.0000 C   0  0  0  0  0  0  0  0  0  0  0  0
    4.0812    3.4085    0.0000 Cl  0  0  0  0  0  0  0  0  0  0  0  0
    3.7629    1.7030    0.0000 C   0  0  0  0  0  0  0  0  0  0  0  0
  1  2  1  0  0  0  0
  2  3  1  0  0  0  0
  3  4  1  0  0  0  0
  4  6  1  0  0  0  0
  4  5  1  0  0  0  0
  5  6  1  0  0  0  0
  6  7  1  0  0  0  0
  7  8  2  0  0  0  0
  7  9  1  0  0  0  0
  9 10  1  0  0  0  0
 10 15  2  0  0  0  0
 10 11  1  0  0  0  0
 11 12  2  0  0  0  0
 12 13  1  0  0  0  0
 13 14  2  0  0  0  0
 14 15  1  0  0  0  0
  6 16  1  0  0  0  0
 16 22  2  0  0  0  0
 16 17  1  0  0  0  0
 17 18  2  0  0  0  0
 18 19  1  0  0  0  0
 19 20  2  0  0  0  0
 20 21  1  0  0  0  0
 20 22  1  0  0  0  0
M  END
$$$$
DUN-NEW-f8c-1
  -OEChem-03232022352D

 22 24  0     1  0  0  0  0  0999 V2000
   -1.6463    0.5381    0.0000 N   0  0  0  0  0  0  0  0  0  0  0  0
   -0.9785   -0.2062    0.0000 C   0  0  0  0  0  0  0  0  0  0  0  0
   -1.2892   -1.1567    0.0000 O   0  0  0  0  0  0  0  0  0  0  0  0
    0.0000    0.0000    0.0000 C   0  0  2  0  0  0  0  0  0  0  0  0
    0.1036   -0.9946    0.0000 H   0  0  0  0  0  0  0  0  0  0  0  0
   -0.3065    0.9519    0.0000 C   0  0  0  0  0  0  0  0  0  0  0  0
    0.5008    1.5428    0.0000 N   0  0  3  0  0  0  0  0  0  0  0  0
    0.4993    2.5428    0.0000 C   0  0  0  0  0  0  0  0  0  0  0  0
   -0.3690    3.0390    0.0000 C   0  0  0  0  0  0  0  0  0  0  0  0
   -0.3705    4.0442    0.0000 C   0  0  0  0  0  0  0  0  0  0  0  0
    0.4962    4.5532    0.0000 O   0  0  0  0  0  0  0  0  0  0  0  0
    1.3645    4.0468    0.0000 C   0  0  0  0  0  0  0  0  0  0  0  0
    1.3660    3.0416    0.0000 C   0  0  0  0  0  0  0  0  0  0  0  0
    1.3133    0.9519    0.0000 C   0  0  0  0  0  0  0  0  0  0  0  0
    1.0015    0.0000    0.0000 C   0  0  1  0  0  0  0  0  0  0  0  0
    0.8962   -0.9944    0.0000 H   0  0  0  0  0  0  0  0  0  0  0  0
    1.9793   -0.2095    0.0000 C   0  0  0  0  0  0  0  0  0  0  0  0
    2.6509    0.5385    0.0000 C   0  0  0  0  0  0  0  0  0  0  0  0
    3.6288    0.3290    0.0000 C   0  0  0  0  0  0  0  0  0  0  0  0
    3.9418   -0.6207    0.0000 C   0  0  0  0  0  0  0  0  0  0  0  0
    3.2703   -1.3686    0.0000 C   0  0  0  0  0  0  0  0  0  0  0  0
    2.2856   -1.1668    0.0000 C   0  0  0  0  0  0  0  0  0  0  0  0
  1  2  1  0  0  0  0
  2  3  2  0  0  0  0
  2  4  1  0  0  0  0
  4  5  1  1  0  0  0
  4 15  1  0  0  0  0
  4  6  1  0  0  0  0
  6  7  1  0  0  0  0
  7  8  1  0  0  0  0
  8 13  1  0  0  0  0
  8  9  1  0  0  0  0
  9 10  1  0  0  0  0
 10 11  1  0  0  0  0
 11 12  1  0  0  0  0
 12 13  1  0  0  0  0
  7 14  1  0  0  0  0
 14 15  1  0  0  0  0
 15 16  1  6  0  0  0
 15 17  1  0  0  0  0
 17 22  2  0  0  0  0
 17 18  1  0  0  0  0
 18 19  2  0  0  0  0
 19 20  1  0  0  0  0
 20 21  2  0  0  0  0
 21 22  1  0  0  0  0
M  END
$$$$
DUN-NEW-f8c-2
  -OEChem-03232022352D

 25 27  0     1  0  0  0  0  0999 V2000
    1.2832    7.1652    0.0000 N   0  0  0  0  0  0  0  0  0  0  0  0
    1.4954    6.1880    0.0000 C   0  0  0  0  0  0  0  0  0  0  0  0
    2.4479    5.8832    0.0000 O   0  0  0  0  0  0  0  0  0  0  0  0
    0.7553    5.5156    0.0000 C   0  0  3  0  0  0  0  0  0  0  0  0
   -0.2256    5.7185    0.0000 C   0  0  0  0  0  0  0  0  0  0  0  0
   -0.7237    4.8497    0.0000 C   0  0  0  0  0  0  0  0  0  0  0  0
   -0.0504    4.1103    0.0000 C   0  0  0  0  0  0  0  0  0  0  0  0
    0.8638    4.5168    0.0000 N   0  0  3  0  0  0  0  0  0  0  0  0
    1.7306    4.0181    0.0000 C   0  0  0  0  0  0  0  0  0  0  0  0
    2.5966    4.5182    0.0000 C   0  0  0  0  0  0  0  0  0  0  0  0
    3.4656    4.0232    0.0000 C   0  0  0  0  0  0  0  0  0  0  0  0
    3.4685    3.0180    0.0000 C   0  0  0  0  0  0  0  0  0  0  0  0
    2.6025    2.5078    0.0000 C   0  0  0  0  0  0  0  0  0  0  0  0
    1.7335    3.0129    0.0000 C   0  0  0  0  0  0  0  0  0  0  0  0
    0.8675    2.5129    0.0000 C   0  0  0  0  0  0  0  0  0  0  0  0
    0.8675    1.5129    0.0000 N   0  0  0  0  0  0  0  0  0  0  0  0
    0.0000    1.0052    0.0000 C   0  0  0  0  0  0  0  0  0  0  0  0
    0.0000    0.0000    0.0000 C   0  0  0  0  0  0  0  0  0  0  0  0
    0.8675   -0.4975    0.0000 N   0  0  0  0  0  0  0  0  0  0  0  0
    0.8675   -1.4975    0.0000 C   0  0  0  0  0  0  0  0  0  0  0  0
    0.0015   -1.9975    0.0000 O   0  0  0  0  0  0  0  0  0  0  0  0
    1.7335   -1.9975    0.0000 C   0  0  0  0  0  0  0  0  0  0  0  0
    1.7335   -2.9975    0.0000 Cl  0  0  0  0  0  0  0  0  0  0  0  0
    1.7350    0.0000    0.0000 C   0  0  0  0  0  0  0  0  0  0  0  0
    1.7350    1.0052    0.0000 C   0  0  0  0  0  0  0  0  0  0  0  0
  1  2  1  0  0  0  0
  2  3  2  0  0  0  0
  2  4  1  0  0  0  0
  4  8  1  0  0  0  0
  4  5  1  0  0  0  0
  5  6  1  0  0  0  0
  6  7  1  0  0  0  0
  7  8  1  0  0  0  0
  8  9  1  0  0  0  0
  9 14  2  0  0  0  0
  9 10  1  0  0  0  0
 10 11  2  0  0  0  0
 11 12  1  0  0  0  0
 12 13  2  0  0  0  0
 13 14  1  0  0  0  0
 14 15  1  0  0  0  0
 15 16  1  0  0  0  0
 16 25  1  0  0  0  0
 16 17  1  0  0  0  0
 17 18  1  0  0  0  0
 18 19  1  0  0  0  0
 19 20  1  0  0  0  0
 20 21  2  0  0  0  0
 20 22  1  0  0  0  0
 22 23  1  0  0  0  0
 19 24  1  0  0  0  0
 24 25  1  0  0  0  0
M  END
$$$$
DUN-NEW-f8c-3
  -OEChem-03232022352D

 24 26  0     1  0  0  0  0  0999 V2000
   -2.9537    4.1990    0.0000 N   0  0  0  0  0  0  0  0  0  0  0  0
   -2.0013    3.8943    0.0000 C   0  0  0  0  0  0  0  0  0  0  0  0
   -1.2611    4.5667    0.0000 O   0  0  0  0  0  0  0  0  0  0  0  0
   -1.7890    2.9170    0.0000 C   0  0  3  0  0  0  0  0  0  0  0  0
   -2.4552    2.1690    0.0000 C   0  0  0  0  0  0  0  0  0  0  0  0
   -1.9518    1.3032    0.0000 C   0  0  0  0  0  0  0  0  0  0  0  0
   -0.9749    1.5167    0.0000 C   0  0  0  0  0  0  0  0  0  0  0  0
   -0.8698    2.5116    0.0000 N   0  0  3  0  0  0  0  0  0  0  0  0
   -0.0045    3.0129    0.0000 C   0  0  0  0  0  0  0  0  0  0  0  0
   -0.0046    4.0130    0.0000 C   0  0  0  0  0  0  0  0  0  0  0  0
    0.8586    4.5180    0.0000 C   0  0  0  0  0  0  0  0  0  0  0  0
    1.7306    4.0180    0.0000 C   0  0  0  0  0  0  0  0  0  0  0  0
    1.7395    3.0129    0.0000 C   0  0  0  0  0  0  0  0  0  0  0  0
    0.8675    2.5129    0.0000 C   0  0  0  0  0  0  0  0  0  0  0  0
    0.8675    1.5129    0.0000 N   0  0  0  0  0  0  0  0  0  0  0  0
    0.0000    1.0052    0.0000 C   0  0  0  0  0  0  0  0  0  0  0  0
    0.0000    0.0000    0.0000 C   0  0  0  0  0  0  0  0  0  0  0  0
    0.8675   -0.4975    0.0000 N   0  0  0  0  0  0  0  0  0  0  0  0
    0.8675   -1.4975    0.0000 C   0  0  0  0  0  0  0  0  0  0  0  0
    0.0015   -1.9975    0.0000 O   0  0  0  0  0  0  0  0  0  0  0  0
    1.7335   -1.9975    0.0000 C   0  0  0  0  0  0  0  0  0  0  0  0
    1.7335   -2.9975    0.0000 Cl  0  0  0  0  0  0  0  0  0  0  0  0
    1.7350    0.0000    0.0000 C   0  0  0  0  0  0  0  0  0  0  0  0
    1.7350    1.0052    0.0000 C   0  0  0  0  0  0  0  0  0  0  0  0
  1  2  1  0  0  0  0
  2  3  2  0  0  0  0
  2  4  1  0  0  0  0
  4  8  1  0  0  0  0
  4  5  1  0  0  0  0
  5  6  1  0  0  0  0
  6  7  1  0  0  0  0
  7  8  1  0  0  0  0
  8  9  1  0  0  0  0
  9 14  2  0  0  0  0
  9 10  1  0  0  0  0
 10 11  2  0  0  0  0
 11 12  1  0  0  0  0
 12 13  2  0  0  0  0
 13 14  1  0  0  0  0
 14 15  1  0  0  0  0
 15 24  1  0  0  0  0
 15 16  1  0  0  0  0
 16 17  1  0  0  0  0
 17 18  1  0  0  0  0
 18 19  1  0  0  0  0
 19 20  2  0  0  0  0
 19 21  1  0  0  0  0
 21 22  1  0  0  0  0
 18 23  1  0  0  0  0
 23 24  1  0  0  0  0
M  END
$$$$
DUN-NEW-f8c-4
  -OEChem-03232022352D

 26 28  0     0  0  0  0  0  0999 V2000
    1.7340    5.0138    0.0000 C   0  0  0  0  0  0  0  0  0  0  0  0
    0.8680    4.5138    0.0000 S   0  0  0  0  0  0  0  0  0  0  0  0
    1.3680    3.6478    0.0000 O   0  0  0  0  0  0  0  0  0  0  0  0
    0.3680    5.3798    0.0000 O   0  0  0  0  0  0  0  0  0  0  0  0
    0.0020    4.0138    0.0000 N   0  0  0  0  0  0  0  0  0  0  0  0
    0.0020    3.0138    0.0000 C   0  0  0  0  0  0  0  0  0  0  0  0
    0.8680    2.5138    0.0000 C   0  0  0  0  0  0  0  0  0  0  0  0
    0.8680    1.5138    0.0000 C   0  0  0  0  0  0  0  0  0  0  0  0
    0.0000    1.0058    0.0000 C   0  0  0  0  0  0  0  0  0  0  0  0
    0.0000    0.0000    0.0000 C   0  0  0  0  0  0  0  0  0  0  0  0
    0.8680   -0.4978    0.0000 C   0  0  0  0  0  0  0  0  0  0  0  0
    1.7360   -0.0012    0.0000 C   0  0  0  0  0  0  0  0  0  0  0  0
    2.6938   -0.3125    0.0000 C   0  0  0  0  0  0  0  0  0  0  0  0
    3.2858    0.5023    0.0000 C   0  0  0  0  0  0  0  0  0  0  0  0
    2.6938    1.3169    0.0000 N   0  0  0  0  0  0  0  0  0  0  0  0
    3.0028    2.2680    0.0000 C   0  0  0  0  0  0  0  0  0  0  0  0
    3.9810    2.4759    0.0000 C   0  0  0  0  0  0  0  0  0  0  0  0
    4.6501    1.7327    0.0000 O   0  0  0  0  0  0  0  0  0  0  0  0
    4.2900    3.4269    0.0000 N   0  0  0  0  0  0  0  0  0  0  0  0
    5.2681    3.6349    0.0000 C   0  0  0  0  0  0  0  0  0  0  0  0
    5.9383    2.8927    0.0000 C   0  0  0  0  0  0  0  0  0  0  0  0
    6.9174    3.0964    0.0000 C   0  0  0  0  0  0  0  0  0  0  0  0
    7.2294    4.0519    0.0000 C   0  0  0  0  0  0  0  0  0  0  0  0
    6.5623    4.8038    0.0000 N   0  0  0  0  0  0  0  0  0  0  0  0
    5.5801    4.5904    0.0000 C   0  0  0  0  0  0  0  0  0  0  0  0
    1.7360    1.0058    0.0000 C   0  0  0  0  0  0  0  0  0  0  0  0
  1  2  1  0  0  0  0
  2  3  2  0  0  0  0
  2  4  2  0  0  0  0
  2  5  1  0  0  0  0
  5  6  1  0  0  0  0
  6  7  1  0  0  0  0
  7  8  1  0  0  0  0
  8 26  2  0  0  0  0
  8  9  1  0  0  0  0
  9 10  2  0  0  0  0
 10 11  1  0  0  0  0
 11 12  2  0  0  0  0
 12 26  1  0  0  0  0
 12 13  1  0  0  0  0
 13 14  2  0  0  0  0
 14 15  1  0  0  0  0
 15 16  1  0  0  0  0
 16 17  1  0  0  0  0
 17 18  2  0  0  0  0
 17 19  1  0  0  0  0
 19 20  1  0  0  0  0
 20 25  2  0  0  0  0
 20 21  1  0  0  0  0
 21 22  2  0  0  0  0
 22 23  1  0  0  0  0
 23 24  2  0  0  0  0
 24 25  1  0  0  0  0
 15 26  1  0  0  0  0
M  END
$$$$
DUN-NEW-f8c-5
  -OEChem-03232022352D

 32 34  0     0  0  0  0  0  0999 V2000
    5.5770   -3.5816    0.0000 C   0  0  0  0  0  0  0  0  0  0  0  0
    5.2680   -2.6306    0.0000 C   0  0  0  0  0  0  0  0  0  0  0  0
    5.9372   -1.8874    0.0000 O   0  0  0  0  0  0  0  0  0  0  0  0
    4.2899   -2.4226    0.0000 N   0  0  0  0  0  0  0  0  0  0  0  0
    3.9809   -1.4715    0.0000 C   0  0  0  0  0  0  0  0  0  0  0  0
    3.0028   -1.2636    0.0000 C   0  0  0  0  0  0  0  0  0  0  0  0
    2.6938   -0.3125    0.0000 C   0  0  0  0  0  0  0  0  0  0  0  0
    3.2858    0.5023    0.0000 C   0  0  0  0  0  0  0  0  0  0  0  0
    2.6938    1.3169    0.0000 N   0  0  0  0  0  0  0  0  0  0  0  0
    3.0028    2.2680    0.0000 C   0  0  0  0  0  0  0  0  0  0  0  0
    3.9810    2.4759    0.0000 C   0  0  0  0  0  0  0  0  0  0  0  0
    4.6501    1.7327    0.0000 O   0  0  0  0  0  0  0  0  0  0  0  0
    4.2900    3.4269    0.0000 C   0  0  0  0  0  0  0  0  0  0  0  0
    5.2681    3.6349    0.0000 C   0  0  0  0  0  0  0  0  0  0  0  0
    5.9383    2.8927    0.0000 C   0  0  0  0  0  0  0  0  0  0  0  0
    6.9174    3.0964    0.0000 C   0  0  0  0  0  0  0  0  0  0  0  0
    7.2294    4.0519    0.0000 C   0  0  0  0  0  0  0  0  0  0  0  0
    6.5623    4.8038    0.0000 N   0  0  0  0  0  0  0  0  0  0  0  0
    5.5801    4.5904    0.0000 C   0  0  0  0  0  0  0  0  0  0  0  0
    1.7360    1.0058    0.0000 C   0  0  0  0  0  0  0  0  0  0  0  0
    0.8680    1.5138    0.0000 C   0  0  0  0  0  0  0  0  0  0  0  0
    0.8680    2.5138    0.0000 C   0  0  0  0  0  0  0  0  0  0  0  0
    0.0020    3.0138    0.0000 C   0  0  0  0  0  0  0  0  0  0  0  0
    0.0020    4.0138    0.0000 N   0  0  0  0  0  0  0  0  0  0  0  0
   -0.8641    4.5138    0.0000 S   0  0  0  0  0  0  0  0  0  0  0  0
   -1.7301    5.0138    0.0000 C   0  0  0  0  0  0  0  0  0  0  0  0
   -1.3641    3.6478    0.0000 O   0  0  0  0  0  0  0  0  0  0  0  0
   -0.3640    5.3798    0.0000 O   0  0  0  0  0  0  0  0  0  0  0  0
    0.0000    1.0058    0.0000 C   0  0  0  0  0  0  0  0  0  0  0  0
    0.0000    0.0000    0.0000 C   0  0  0  0  0  0  0  0  0  0  0  0
    0.8680   -0.4978    0.0000 C   0  0  0  0  0  0  0  0  0  0  0  0
    1.7360   -0.0012    0.0000 C   0  0  0  0  0  0  0  0  0  0  0  0
  1  2  1  0  0  0  0
  2  3  2  0  0  0  0
  2  4  1  0  0  0  0
  4  5  1  0  0  0  0
  5  6  1  0  0  0  0
  6  7  1  0  0  0  0
  7 32  1  0  0  0  0
  7  8  2  0  0  0  0
  8  9  1  0  0  0  0
  9 10  1  0  0  0  0
 10 11  1  0  0  0  0
 11 12  2  0  0  0  0
 11 13  1  0  0  0  0
 13 14  1  0  0  0  0
 14 19  2  0  0  0  0
 14 15  1  0  0  0  0
 15 16  2  0  0  0  0
 16 17  1  0  0  0  0
 17 18  2  0  0  0  0
 18 19  1  0  0  0  0
  9 20  1  0  0  0  0
 20 32  2  0  0  0  0
 20 21  1  0  0  0  0
 21 22  1  0  0  0  0
 22 23  1  0  0  0  0
 23 24  1  0  0  0  0
 24 25  1  0  0  0  0
 25 26  1  0  0  0  0
 25 27  2  0  0  0  0
 25 28  2  0  0  0  0
 21 29  2  0  0  0  0
 29 30  1  0  0  0  0
 30 31  2  0  0  0  0
 31 32  1  0  0  0  0
M  END
$$$$
DUN-NEW-f8c-6
  -OEChem-03232022352D

 28 31  0     0  0  0  0  0  0999 V2000
    5.5770   -3.5816    0.0000 C   0  0  0  0  0  0  0  0  0  0  0  0
    5.2680   -2.6306    0.0000 C   0  0  0  0  0  0  0  0  0  0  0  0
    5.9372   -1.8874    0.0000 O   0  0  0  0  0  0  0  0  0  0  0  0
    4.2899   -2.4226    0.0000 N   0  0  0  0  0  0  0  0  0  0  0  0
    3.9809   -1.4715    0.0000 C   0  0  0  0  0  0  0  0  0  0  0  0
    3.0028   -1.2636    0.0000 C   0  0  0  0  0  0  0  0  0  0  0  0
    2.6938   -0.3125    0.0000 C   0  0  0  0  0  0  0  0  0  0  0  0
    3.2858    0.5023    0.0000 C   0  0  0  0  0  0  0  0  0  0  0  0
    2.6938    1.3169    0.0000 N   0  0  0  0  0  0  0  0  0  0  0  0
    3.0028    2.2680    0.0000 C   0  0  0  0  0  0  0  0  0  0  0  0
    2.3337    3.0111    0.0000 C   0  0  0  0  0  0  0  0  0  0  0  0
    1.3555    2.8032    0.0000 O   0  0  0  0  0  0  0  0  0  0  0  0
    2.6427    3.9622    0.0000 N   0  0  0  0  0  0  0  0  0  0  0  0
    1.9735    4.7053    0.0000 C   0  0  0  0  0  0  0  0  0  0  0  0
    2.1817    5.6844    0.0000 C   0  0  0  0  0  0  0  0  0  0  0  0
    1.3148    6.1846    0.0000 N   0  0  0  0  0  0  0  0  0  0  0  0
    0.5710    5.5149    0.0000 C   0  0  0  0  0  0  0  0  0  0  0  0
   -0.4273    5.6313    0.0000 N   0  0  0  0  0  0  0  0  0  0  0  0
   -1.0177    4.8178    0.0000 C   0  0  0  0  0  0  0  0  0  0  0  0
   -0.6139    3.8973    0.0000 C   0  0  0  0  0  0  0  0  0  0  0  0
    0.3804    3.7903    0.0000 C   0  0  0  0  0  0  0  0  0  0  0  0
    0.9782    4.6007    0.0000 C   0  0  0  0  0  0  0  0  0  0  0  0
    1.7360    1.0058    0.0000 C   0  0  0  0  0  0  0  0  0  0  0  0
    0.8680    1.5138    0.0000 C   0  0  0  0  0  0  0  0  0  0  0  0
    0.0000    1.0058    0.0000 C   0  0  0  0  0  0  0  0  0  0  0  0
    0.0000    0.0000    0.0000 C   0  0  0  0  0  0  0  0  0  0  0  0
    0.8680   -0.4978    0.0000 C   0  0  0  0  0  0  0  0  0  0  0  0
    1.7360   -0.0012    0.0000 C   0  0  0  0  0  0  0  0  0  0  0  0
  1  2  1  0  0  0  0
  2  3  2  0  0  0  0
  2  4  1  0  0  0  0
  4  5  1  0  0  0  0
  5  6  1  0  0  0  0
  6  7  1  0  0  0  0
  7 28  1  0  0  0  0
  7  8  2  0  0  0  0
  8  9  1  0  0  0  0
  9 10  1  0  0  0  0
 10 11  1  0  0  0  0
 11 12  2  0  0  0  0
 11 13  1  0  0  0  0
 13 14  1  0  0  0  0
 14 22  1  0  0  0  0
 14 15  2  0  0  0  0
 15 16  1  0  0  0  0
 16 17  1  0  0  0  0
 17 22  2  0  0  0  0
 17 18  1  0  0  0  0
 18 19  2  0  0  0  0
 19 20  1  0  0  0  0
 20 21  2  0  0  0  0
 21 22  1  0  0  0  0
  9 23  1  0  0  0  0
 23 28  2  0  0  0  0
 23 24  1  0  0  0  0
 24 25  2  0  0  0  0
 25 26  1  0  0  0  0
 26 27  2  0  0  0  0
 27 28  1  0  0  0  0
M  END
$$$$
DUN-NEW-f8c-7
  -OEChem-03232022352D

 28 31  0     0  0  0  0  0  0999 V2000
    2.2825    5.6564    0.0000 C   0  0  0  0  0  0  0  0  0  0  0  0
    1.9735    4.7053    0.0000 C   0  0  0  0  0  0  0  0  0  0  0  0
    0.9954    4.4974    0.0000 O   0  0  0  0  0  0  0  0  0  0  0  0
    2.6427    3.9622    0.0000 N   0  0  0  0  0  0  0  0  0  0  0  0
    2.3337    3.0111    0.0000 C   0  0  0  0  0  0  0  0  0  0  0  0
    3.0028    2.2680    0.0000 C   0  0  0  0  0  0  0  0  0  0  0  0
    2.6938    1.3169    0.0000 N   0  0  0  0  0  0  0  0  0  0  0  0
    3.2858    0.5023    0.0000 C   0  0  0  0  0  0  0  0  0  0  0  0
    2.6938   -0.3125    0.0000 C   0  0  0  0  0  0  0  0  0  0  0  0
    3.0028   -1.2636    0.0000 C   0  0  0  0  0  0  0  0  0  0  0  0
    3.9809   -1.4715    0.0000 C   0  0  0  0  0  0  0  0  0  0  0  0
    4.6501   -0.7284    0.0000 O   0  0  0  0  0  0  0  0  0  0  0  0
    4.2899   -2.4226    0.0000 N   0  0  0  0  0  0  0  0  0  0  0  0
    5.2680   -2.6306    0.0000 C   0  0  0  0  0  0  0  0  0  0  0  0
    5.6751   -3.5451    0.0000 C   0  0  0  0  0  0  0  0  0  0  0  0
    6.6704   -3.4402    0.0000 N   0  0  0  0  0  0  0  0  0  0  0  0
    6.8785   -2.4613    0.0000 C   0  0  0  0  0  0  0  0  0  0  0  0
    7.7547   -1.9686    0.0000 N   0  0  0  0  0  0  0  0  0  0  0  0
    7.7542   -0.9635    0.0000 C   0  0  0  0  0  0  0  0  0  0  0  0
    6.8865   -0.4561    0.0000 C   0  0  0  0  0  0  0  0  0  0  0  0
    6.0191   -0.9539    0.0000 C   0  0  0  0  0  0  0  0  0  0  0  0
    6.0118   -1.9609    0.0000 C   0  0  0  0  0  0  0  0  0  0  0  0
    1.7360   -0.0012    0.0000 C   0  0  0  0  0  0  0  0  0  0  0  0
    0.8680   -0.4978    0.0000 C   0  0  0  0  0  0  0  0  0  0  0  0
    0.0000    0.0000    0.0000 C   0  0  0  0  0  0  0  0  0  0  0  0
    0.0000    1.0058    0.0000 C   0  0  0  0  0  0  0  0  0  0  0  0
    0.8680    1.5138    0.0000 C   0  0  0  0  0  0  0  0  0  0  0  0
    1.7360    1.0058    0.0000 C   0  0  0  0  0  0  0  0  0  0  0  0
  1  2  1  0  0  0  0
  2  3  2  0  0  0  0
  2  4  1  0  0  0  0
  4  5  1  0  0  0  0
  5  6  1  0  0  0  0
  6  7  1  0  0  0  0
  7 28  1  0  0  0  0
  7  8  1  0  0  0  0
  8  9  2  0  0  0  0
  9 10  1  0  0  0  0
 10 11  1  0  0  0  0
 11 12  2  0  0  0  0
 11 13  1  0  0  0  0
 13 14  1  0  0  0  0
 14 22  1  0  0  0  0
 14 15  2  0  0  0  0
 15 16  1  0  0  0  0
 16 17  1  0  0  0  0
 17 22  2  0  0  0  0
 17 18  1  0  0  0  0
 18 19  2  0  0  0  0
 19 20  1  0  0  0  0
 20 21  2  0  0  0  0
 21 22  1  0  0  0  0
  9 23  1  0  0  0  0
 23 28  2  0  0  0  0
 23 24  1  0  0  0  0
 24 25  2  0  0  0  0
 25 26  1  0  0  0  0
 26 27  2  0  0  0  0
 27 28  1  0  0  0  0
M  END
$$$$
DUN-NEW-f8c-8
  -OEChem-03232022352D

 25 27  0     0  0  0  0  0  0999 V2000
    5.5770   -3.5816    0.0000 C   0  0  0  0  0  0  0  0  0  0  0  0
    5.2680   -2.6306    0.0000 C   0  0  0  0  0  0  0  0  0  0  0  0
    5.9372   -1.8874    0.0000 O   0  0  0  0  0  0  0  0  0  0  0  0
    4.2899   -2.4226    0.0000 N   0  0  0  0  0  0  0  0  0  0  0  0
    3.9809   -1.4715    0.0000 C   0  0  0  0  0  0  0  0  0  0  0  0
    3.0028   -1.2636    0.0000 C   0  0  0  0  0  0  0  0  0  0  0  0
    2.6938   -0.3125    0.0000 C   0  0  0  0  0  0  0  0  0  0  0  0
    3.2858    0.5023    0.0000 C   0  0  0  0  0  0  0  0  0  0  0  0
    2.6938    1.3169    0.0000 N   0  0  0  0  0  0  0  0  0  0  0  0
    3.0028    2.2680    0.0000 C   0  0  0  0  0  0  0  0  0  0  0  0
    2.3337    3.0111    0.0000 C   0  0  0  0  0  0  0  0  0  0  0  0
    1.3555    2.8032    0.0000 O   0  0  0  0  0  0  0  0  0  0  0  0
    2.6427    3.9622    0.0000 N   0  0  0  0  0  0  0  0  0  0  0  0
    1.9735    4.7053    0.0000 C   0  0  0  0  0  0  0  0  0  0  0  0
    0.9951    4.4988    0.0000 C   0  0  0  0  0  0  0  0  0  0  0  0
    0.3227    5.2390    0.0000 C   0  0  0  0  0  0  0  0  0  0  0  0
    0.6319    6.1955    0.0000 C   0  0  0  0  0  0  0  0  0  0  0  0
    1.6135    6.4117    0.0000 N   0  0  0  0  0  0  0  0  0  0  0  0
    2.2828    5.6618    0.0000 C   0  0  0  0  0  0  0  0  0  0  0  0
    1.7360    1.0058    0.0000 C   0  0  0  0  0  0  0  0  0  0  0  0
    0.8680    1.5138    0.0000 C   0  0  0  0  0  0  0  0  0  0  0  0
    0.0000    1.0058    0.0000 C   0  0  0  0  0  0  0  0  0  0  0  0
    0.0000    0.0000    0.0000 C   0  0  0  0  0  0  0  0  0  0  0  0
    0.8680   -0.4978    0.0000 C   0  0  0  0  0  0  0  0  0  0  0  0
    1.7360   -0.0012    0.0000 C   0  0  0  0  0  0  0  0  0  0  0  0
  1  2  1  0  0  0  0
  2  3  2  0  0  0  0
  2  4  1  0  0  0  0
  4  5  1  0  0  0  0
  5  6  1  0  0  0  0
  6  7  1  0  0  0  0
  7 25  1  0  0  0  0
  7  8  2  0  0  0  0
  8  9  1  0  0  0  0
  9 10  1  0  0  0  0
 10 11  1  0  0  0  0
 11 12  2  0  0  0  0
 11 13  1  0  0  0  0
 13 14  1  0  0  0  0
 14 19  2  0  0  0  0
 14 15  1  0  0  0  0
 15 16  2  0  0  0  0
 16 17  1  0  0  0  0
 17 18  2  0  0  0  0
 18 19  1  0  0  0  0
  9 20  1  0  0  0  0
 20 25  2  0  0  0  0
 20 21  1  0  0  0  0
 21 22  2  0  0  0  0
 22 23  1  0  0  0  0
 23 24  2  0  0  0  0
 24 25  1  0  0  0  0
M  END
$$$$
DUN-NEW-f8c-9
  -OEChem-03232022352D

 25 27  0     0  0  0  0  0  0999 V2000
    2.2825    5.6564    0.0000 C   0  0  0  0  0  0  0  0  0  0  0  0
    1.9735    4.7053    0.0000 C   0  0  0  0  0  0  0  0  0  0  0  0
    0.9954    4.4974    0.0000 O   0  0  0  0  0  0  0  0  0  0  0  0
    2.6427    3.9622    0.0000 N   0  0  0  0  0  0  0  0  0  0  0  0
    2.3337    3.0111    0.0000 C   0  0  0  0  0  0  0  0  0  0  0  0
    3.0028    2.2680    0.0000 C   0  0  0  0  0  0  0  0  0  0  0  0
    2.6938    1.3169    0.0000 N   0  0  0  0  0  0  0  0  0  0  0  0
    3.2858    0.5023    0.0000 C   0  0  0  0  0  0  0  0  0  0  0  0
    2.6938   -0.3125    0.0000 C   0  0  0  0  0  0  0  0  0  0  0  0
    3.0028   -1.2636    0.0000 C   0  0  0  0  0  0  0  0  0  0  0  0
    3.9809   -1.4715    0.0000 C   0  0  0  0  0  0  0  0  0  0  0  0
    4.6501   -0.7284    0.0000 O   0  0  0  0  0  0  0  0  0  0  0  0
    4.2899   -2.4226    0.0000 N   0  0  0  0  0  0  0  0  0  0  0  0
    5.2680   -2.6306    0.0000 C   0  0  0  0  0  0  0  0  0  0  0  0
    5.9383   -1.8884    0.0000 C   0  0  0  0  0  0  0  0  0  0  0  0
    6.9173   -2.0921    0.0000 C   0  0  0  0  0  0  0  0  0  0  0  0
    7.2293   -3.0477    0.0000 C   0  0  0  0  0  0  0  0  0  0  0  0
    6.5622   -3.7995    0.0000 N   0  0  0  0  0  0  0  0  0  0  0  0
    5.5800   -3.5861    0.0000 C   0  0  0  0  0  0  0  0  0  0  0  0
    1.7360   -0.0012    0.0000 C   0  0  0  0  0  0  0  0  0  0  0  0
    0.8680   -0.4978    0.0000 C   0  0  0  0  0  0  0  0  0  0  0  0
    0.0000    0.0000    0.0000 C   0  0  0  0  0  0  0  0  0  0  0  0
    0.0000    1.0058    0.0000 C   0  0  0  0  0  0  0  0  0  0  0  0
    0.8680    1.5138    0.0000 C   0  0  0  0  0  0  0  0  0  0  0  0
    1.7360    1.0058    0.0000 C   0  0  0  0  0  0  0  0  0  0  0  0
  1  2  1  0  0  0  0
  2  3  2  0  0  0  0
  2  4  1  0  0  0  0
  4  5  1  0  0  0  0
  5  6  1  0  0  0  0
  6  7  1  0  0  0  0
  7 25  1  0  0  0  0
  7  8  1  0  0  0  0
  8  9  2  0  0  0  0
  9 10  1  0  0  0  0
 10 11  1  0  0  0  0
 11 12  2  0  0  0  0
 11 13  1  0  0  0  0
 13 14  1  0  0  0  0
 14 19  2  0  0  0  0
 14 15  1  0  0  0  0
 15 16  2  0  0  0  0
 16 17  1  0  0  0  0
 17 18  2  0  0  0  0
 18 19  1  0  0  0  0
  9 20  1  0  0  0  0
 20 25  2  0  0  0  0
 20 21  1  0  0  0  0
 21 22  2  0  0  0  0
 22 23  1  0  0  0  0
 23 24  2  0  0  0  0
 24 25  1  0  0  0  0
M  END
$$$$
DUN-NEW-f8c-10
  -OEChem-03232022352D

 22 23  0     0  0  0  0  0  0999 V2000
    5.5770   -3.5816    0.0000 C   0  0  0  0  0  0  0  0  0  0  0  0
    5.2680   -2.6306    0.0000 C   0  0  0  0  0  0  0  0  0  0  0  0
    5.9372   -1.8874    0.0000 O   0  0  0  0  0  0  0  0  0  0  0  0
    4.2899   -2.4226    0.0000 N   0  0  0  0  0  0  0  0  0  0  0  0
    3.9809   -1.4715    0.0000 C   0  0  0  0  0  0  0  0  0  0  0  0
    3.0028   -1.2636    0.0000 C   0  0  0  0  0  0  0  0  0  0  0  0
    2.6938   -0.3125    0.0000 C   0  0  0  0  0  0  0  0  0  0  0  0
    3.2858    0.5023    0.0000 C   0  0  0  0  0  0  0  0  0  0  0  0
    2.6938    1.3169    0.0000 N   0  0  0  0  0  0  0  0  0  0  0  0
    1.7360    1.0058    0.0000 C   0  0  0  0  0  0  0  0  0  0  0  0
    0.8680    1.5138    0.0000 C   0  0  0  0  0  0  0  0  0  0  0  0
    0.8680    2.5138    0.0000 C   0  0  0  0  0  0  0  0  0  0  0  0
    0.0020    3.0138    0.0000 C   0  0  0  0  0  0  0  0  0  0  0  0
    0.0020    4.0138    0.0000 N   0  0  0  0  0  0  0  0  0  0  0  0
   -0.8641    4.5138    0.0000 S   0  0  0  0  0  0  0  0  0  0  0  0
   -1.7301    5.0138    0.0000 C   0  0  0  0  0  0  0  0  0  0  0  0
   -1.3641    3.6478    0.0000 O   0  0  0  0  0  0  0  0  0  0  0  0
   -0.3640    5.3798    0.0000 O   0  0  0  0  0  0  0  0  0  0  0  0
    0.0000    1.0058    0.0000 C   0  0  0  0  0  0  0  0  0  0  0  0
    0.0000    0.0000    0.0000 C   0  0  0  0  0  0  0  0  0  0  0  0
    0.8680   -0.4978    0.0000 C   0  0  0  0  0  0  0  0  0  0  0  0
    1.7360   -0.0012    0.0000 C   0  0  0  0  0  0  0  0  0  0  0  0
  1  2  1  0  0  0  0
  2  3  2  0  0  0  0
  2  4  1  0  0  0  0
  4  5  1  0  0  0  0
  5  6  1  0  0  0  0
  6  7  1  0  0  0  0
  7 22  1  0  0  0  0
  7  8  2  0  0  0  0
  8  9  1  0  0  0  0
  9 10  1  0  0  0  0
 10 22  2  0  0  0  0
 10 11  1  0  0  0  0
 11 12  1  0  0  0  0
 12 13  1  0  0  0  0
 13 14  1  0  0  0  0
 14 15  1  0  0  0  0
 15 16  1  0  0  0  0
 15 17  2  0  0  0  0
 15 18  2  0  0  0  0
 11 19  2  0  0  0  0
 19 20  1  0  0  0  0
 20 21  2  0  0  0  0
 21 22  1  0  0  0  0
M  END
$$$$
DUN-NEW-f8c-11
  -OEChem-03232022352D

 23 25  0     0  0  0  0  0  0999 V2000
    5.5770   -3.5816    0.0000 C   0  0  0  0  0  0  0  0  0  0  0  0
    5.2680   -2.6306    0.0000 C   0  0  0  0  0  0  0  0  0  0  0  0
    5.9372   -1.8874    0.0000 O   0  0  0  0  0  0  0  0  0  0  0  0
    4.2899   -2.4226    0.0000 N   0  0  0  0  0  0  0  0  0  0  0  0
    3.9809   -1.4715    0.0000 C   0  0  0  0  0  0  0  0  0  0  0  0
    3.0028   -1.2636    0.0000 C   0  0  0  0  0  0  0  0  0  0  0  0
    2.6938   -0.3125    0.0000 C   0  0  0  0  0  0  0  0  0  0  0  0
    3.2858    0.5023    0.0000 C   0  0  0  0  0  0  0  0  0  0  0  0
    2.6938    1.3169    0.0000 N   0  0  0  0  0  0  0  0  0  0  0  0
    1.7360    1.0058    0.0000 C   0  0  0  0  0  0  0  0  0  0  0  0
    0.8680    1.5138    0.0000 C   0  0  0  0  0  0  0  0  0  0  0  0
    0.8680    2.5138    0.0000 C   0  0  0  0  0  0  0  0  0  0  0  0
    0.0020    3.0138    0.0000 N   0  0  0  0  0  0  0  0  0  0  0  0
   -0.0040    4.0189    0.0000 C   0  0  0  0  0  0  0  0  0  0  0  0
   -0.8745    4.5215    0.0000 C   0  0  0  0  0  0  0  0  0  0  0  0
   -1.7391    4.0190    0.0000 C   0  0  0  0  0  0  0  0  0  0  0  0
   -2.6051    4.5190    0.0000 O   0  0  0  0  0  0  0  0  0  0  0  0
   -1.7420    3.0190    0.0000 C   0  0  0  0  0  0  0  0  0  0  0  0
   -0.8715    2.5164    0.0000 C   0  0  0  0  0  0  0  0  0  0  0  0
    0.0000    1.0058    0.0000 C   0  0  0  0  0  0  0  0  0  0  0  0
    0.0000    0.0000    0.0000 C   0  0  0  0  0  0  0  0  0  0  0  0
    0.8680   -0.4978    0.0000 C   0  0  0  0  0  0  0  0  0  0  0  0
    1.7360   -0.0012    0.0000 C   0  0  0  0  0  0  0  0  0  0  0  0
  1  2  1  0  0  0  0
  2  3  2  0  0  0  0
  2  4  1  0  0  0  0
  4  5  1  0  0  0  0
  5  6  1  0  0  0  0
  6  7  1  0  0  0  0
  7 23  1  0  0  0  0
  7  8  2  0  0  0  0
  8  9  1  0  0  0  0
  9 10  1  0  0  0  0
 10 23  2  0  0  0  0
 10 11  1  0  0  0  0
 11 12  1  0  0  0  0
 12 13  1  0  0  0  0
 13 19  1  0  0  0  0
 13 14  1  0  0  0  0
 14 15  1  0  0  0  0
 15 16  1  0  0  0  0
 16 17  1  0  0  0  0
 16 18  1  0  0  0  0
 18 19  1  0  0  0  0
 11 20  2  0  0  0  0
 20 21  1  0  0  0  0
 21 22  2  0  0  0  0
 22 23  1  0  0  0  0
M  END
$$$$
DUN-NEW-f8c-12
  -OEChem-03232022352D

 17 18  0     0  0  0  0  0  0999 V2000
    5.5770   -3.5816    0.0000 C   0  0  0  0  0  0  0  0  0  0  0  0
    5.2680   -2.6306    0.0000 C   0  0  0  0  0  0  0  0  0  0  0  0
    5.9372   -1.8874    0.0000 O   0  0  0  0  0  0  0  0  0  0  0  0
    4.2899   -2.4226    0.0000 N   0  0  0  0  0  0  0  0  0  0  0  0
    3.9809   -1.4715    0.0000 C   0  0  0  0  0  0  0  0  0  0  0  0
    3.0028   -1.2636    0.0000 C   0  0  0  0  0  0  0  0  0  0  0  0
    2.6938   -0.3125    0.0000 C   0  0  0  0  0  0  0  0  0  0  0  0
    3.2858    0.5023    0.0000 C   0  0  0  0  0  0  0  0  0  0  0  0
    2.6938    1.3169    0.0000 N   0  0  0  0  0  0  0  0  0  0  0  0
    1.7360    1.0058    0.0000 C   0  0  0  0  0  0  0  0  0  0  0  0
    0.8680    1.5138    0.0000 C   0  0  0  0  0  0  0  0  0  0  0  0
    0.0000    1.0058    0.0000 C   0  0  0  0  0  0  0  0  0  0  0  0
    0.0000    0.0000    0.0000 C   0  0  0  0  0  0  0  0  0  0  0  0
   -0.8653   -0.5013    0.0000 C   0  0  0  0  0  0  0  0  0  0  0  0
   -1.7306   -1.0025    0.0000 N   0  0  0  0  0  0  0  0  0  0  0  0
    0.8680   -0.4978    0.0000 C   0  0  0  0  0  0  0  0  0  0  0  0
    1.7360   -0.0012    0.0000 C   0  0  0  0  0  0  0  0  0  0  0  0
  1  2  1  0  0  0  0
  2  3  2  0  0  0  0
  2  4  1  0  0  0  0
  4  5  1  0  0  0  0
  5  6  1  0  0  0  0
  6  7  1  0  0  0  0
  7 17  1  0  0  0  0
  7  8  2  0  0  0  0
  8  9  1  0  0  0  0
  9 10  1  0  0  0  0
 10 17  2  0  0  0  0
 10 11  1  0  0  0  0
 11 12  2  0  0  0  0
 12 13  1  0  0  0  0
 13 14  1  0  0  0  0
 14 15  3  0  0  0  0
 13 16  2  0  0  0  0
 16 17  1  0  0  0  0
M  END
$$$$
DUN-NEW-f8c-13
  -OEChem-03232022352D

 24 26  0     0  0  0  0  0  0999 V2000
    5.5770   -3.5816    0.0000 C   0  0  0  0  0  0  0  0  0  0  0  0
    5.2680   -2.6306    0.0000 C   0  0  0  0  0  0  0  0  0  0  0  0
    5.9372   -1.8874    0.0000 O   0  0  0  0  0  0  0  0  0  0  0  0
    4.2899   -2.4226    0.0000 N   0  0  0  0  0  0  0  0  0  0  0  0
    3.9809   -1.4715    0.0000 C   0  0  0  0  0  0  0  0  0  0  0  0
    3.0028   -1.2636    0.0000 C   0  0  0  0  0  0  0  0  0  0  0  0
    2.6938   -0.3125    0.0000 C   0  0  0  0  0  0  0  0  0  0  0  0
    3.2858    0.5023    0.0000 C   0  0  0  0  0  0  0  0  0  0  0  0
    2.6938    1.3169    0.0000 N   0  0  0  0  0  0  0  0  0  0  0  0
    3.0028    2.2680    0.0000 C   0  0  0  0  0  0  0  0  0  0  0  0
    2.3337    3.0111    0.0000 C   0  0  0  0  0  0  0  0  0  0  0  0
    1.3555    2.8032    0.0000 O   0  0  0  0  0  0  0  0  0  0  0  0
    2.6427    3.9622    0.0000 N   0  0  0  0  0  0  0  0  0  0  0  0
    1.9714    4.7034    0.0000 C   0  0  0  0  0  0  0  0  0  0  0  0
    2.2820    5.6594    0.0000 C   0  0  0  0  0  0  0  0  0  0  0  0
    3.2639    5.8742    0.0000 O   0  0  0  0  0  0  0  0  0  0  0  0
    3.9321    5.1233    0.0000 C   0  0  0  0  0  0  0  0  0  0  0  0
    3.6214    4.1672    0.0000 C   0  0  0  0  0  0  0  0  0  0  0  0
    1.7360    1.0058    0.0000 C   0  0  0  0  0  0  0  0  0  0  0  0
    0.8680    1.5138    0.0000 C   0  0  0  0  0  0  0  0  0  0  0  0
    0.0000    1.0058    0.0000 C   0  0  0  0  0  0  0  0  0  0  0  0
    0.0000    0.0000    0.0000 C   0  0  0  0  0  0  0  0  0  0  0  0
    0.8680   -0.4978    0.0000 C   0  0  0  0  0  0  0  0  0  0  0  0
    1.7360   -0.0012    0.0000 C   0  0  0  0  0  0  0  0  0  0  0  0
  1  2  1  0  0  0  0
  2  3  2  0  0  0  0
  2  4  1  0  0  0  0
  4  5  1  0  0  0  0
  5  6  1  0  0  0  0
  6  7  1  0  0  0  0
  7 24  1  0  0  0  0
  7  8  2  0  0  0  0
  8  9  1  0  0  0  0
  9 10  1  0  0  0  0
 10 11  1  0  0  0  0
 11 12  2  0  0  0  0
 11 13  1  0  0  0  0
 13 18  1  0  0  0  0
 13 14  1  0  0  0  0
 14 15  1  0  0  0  0
 15 16  1  0  0  0  0
 16 17  1  0  0  0  0
 17 18  1  0  0  0  0
  9 19  1  0  0  0  0
 19 24  2  0  0  0  0
 19 20  1  0  0  0  0
 20 21  2  0  0  0  0
 21 22  1  0  0  0  0
 22 23  2  0  0  0  0
 23 24  1  0  0  0  0
M  END
$$$$
DUN-NEW-f8c-14
  -OEChem-03232022352D

 21 22  0     1  0  0  0  0  0999 V2000
    5.2208    5.0049    0.0000 C   0  0  0  0  0  0  0  0  0  0  0  0
    4.3533    4.5074    0.0000 S   0  0  0  0  0  0  0  0  0  0  0  0
    4.8508    3.6400    0.0000 O   0  0  0  0  0  0  0  0  0  0  0  0
    3.8558    5.3749    0.0000 O   0  0  0  0  0  0  0  0  0  0  0  0
    3.4858    4.0100    0.0000 N   0  0  0  0  0  0  0  0  0  0  0  0
    3.4829    3.0100    0.0000 C   0  0  0  0  0  0  0  0  0  0  0  0
    2.6154    2.5125    0.0000 C   0  0  0  0  0  0  0  0  0  0  0  0
    2.6125    1.5125    0.0000 N   0  0  3  0  0  0  0  0  0  0  0  0
    3.4848    1.0014    0.0000 C   0  0  0  0  0  0  0  0  0  0  0  0
    3.4805   -0.0073    0.0000 C   0  0  0  0  0  0  0  0  0  0  0  0
    2.6039   -0.5053    0.0000 C   0  0  0  0  0  0  0  0  0  0  0  0
    1.7371   -0.0000    0.0000 C   0  0  0  0  0  0  0  0  0  0  0  0
    0.8707   -0.4993    0.0000 C   0  0  0  0  0  0  0  0  0  0  0  0
    0.0000    0.0000    0.0000 C   0  0  0  0  0  0  0  0  0  0  0  0
    0.0000    1.0089    0.0000 C   0  0  0  0  0  0  0  0  0  0  0  0
   -0.8675    1.5063    0.0000 S   0  0  0  0  0  0  0  0  0  0  0  0
   -1.7350    2.0038    0.0000 N   0  0  0  0  0  0  0  0  0  0  0  0
   -1.3649    0.6388    0.0000 O   0  0  0  0  0  0  0  0  0  0  0  0
   -0.3701    2.3738    0.0000 O   0  0  0  0  0  0  0  0  0  0  0  0
    0.8707    1.5185    0.0000 C   0  0  0  0  0  0  0  0  0  0  0  0
    1.7414    1.0089    0.0000 C   0  0  0  0  0  0  0  0  0  0  0  0
  1  2  1  0  0  0  0
  2  3  2  0  0  0  0
  2  4  2  0  0  0  0
  2  5  1  0  0  0  0
  5  6  1  0  0  0  0
  6  7  1  0  0  0  0
  7  8  1  0  0  0  0
  8 21  1  0  0  0  0
  8  9  1  0  0  0  0
  9 10  1  0  0  0  0
 10 11  1  0  0  0  0
 11 12  1  0  0  0  0
 12 21  2  0  0  0  0
 12 13  1  0  0  0  0
 13 14  2  0  0  0  0
 14 15  1  0  0  0  0
 15 16  1  0  0  0  0
 16 17  1  0  0  0  0
 16 18  2  0  0  0  0
 16 19  2  0  0  0  0
 15 20  2  0  0  0  0
 20 21  1  0  0  0  0
M  END
$$$$
DUN-NEW-f8c-15
  -OEChem-03232022352D

 26 29  0     0  0  0  0  0  0999 V2000
    1.7340    4.0138    0.0000 O   0  0  0  0  0  0  0  0  0  0  0  0
    1.7340    3.0138    0.0000 C   0  0  0  0  0  0  0  0  0  0  0  0
    2.6001    2.5138    0.0000 C   0  0  0  0  0  0  0  0  0  0  0  0
    3.4661    3.0138    0.0000 C   0  0  0  0  0  0  0  0  0  0  0  0
    3.4675    4.0138    0.0000 C   0  0  0  0  0  0  0  0  0  0  0  0
    4.3314    4.5176    0.0000 C   0  0  0  0  0  0  0  0  0  0  0  0
    5.2027    4.0163    0.0000 C   0  0  0  0  0  0  0  0  0  0  0  0
    5.2100    3.0112    0.0000 N   0  0  0  0  0  0  0  0  0  0  0  0
    4.3373    2.5125    0.0000 C   0  0  0  0  0  0  0  0  0  0  0  0
    0.8680    2.5138    0.0000 N   0  0  0  0  0  0  0  0  0  0  0  0
    0.8680    1.5138    0.0000 C   0  0  0  0  0  0  0  0  0  0  0  0
    0.0000    1.0058    0.0000 C   0  0  0  0  0  0  0  0  0  0  0  0
    0.0000    0.0000    0.0000 C   0  0  0  0  0  0  0  0  0  0  0  0
    0.8680   -0.4978    0.0000 C   0  0  0  0  0  0  0  0  0  0  0  0
    1.7360   -0.0012    0.0000 C   0  0  0  0  0  0  0  0  0  0  0  0
    2.6938   -0.3125    0.0000 C   0  0  0  0  0  0  0  0  0  0  0  0
    3.2858    0.5023    0.0000 C   0  0  0  0  0  0  0  0  0  0  0  0
    2.6938    1.3169    0.0000 N   0  0  0  0  0  0  0  0  0  0  0  0
    1.7360    1.0058    0.0000 C   0  0  0  0  0  0  0  0  0  0  0  0
    0.0020    3.0138    0.0000 C   0  0  0  0  0  0  0  0  0  0  0  0
   -0.8671    2.5086    0.0000 C   0  0  0  0  0  0  0  0  0  0  0  0
   -1.7331    3.0086    0.0000 C   0  0  0  0  0  0  0  0  0  0  0  0
   -1.7390    4.0086    0.0000 C   0  0  0  0  0  0  0  0  0  0  0  0
   -2.6072    4.5048    0.0000 O   0  0  0  0  0  0  0  0  0  0  0  0
   -0.8700    4.5138    0.0000 C   0  0  0  0  0  0  0  0  0  0  0  0
    0.0049    4.0189    0.0000 C   0  0  0  0  0  0  0  0  0  0  0  0
  1  2  2  0  0  0  0
  2  3  1  0  0  0  0
  3  4  1  0  0  0  0
  4  9  2  0  0  0  0
  4  5  1  0  0  0  0
  5  6  2  0  0  0  0
  6  7  1  0  0  0  0
  7  8  2  0  0  0  0
  8  9  1  0  0  0  0
  2 10  1  0  0  0  0
 10 11  1  0  0  0  0
 11 19  2  0  0  0  0
 11 12  1  0  0  0  0
 12 13  2  0  0  0  0
 13 14  1  0  0  0  0
 14 15  2  0  0  0  0
 15 19  1  0  0  0  0
 15 16  1  0  0  0  0
 16 17  2  0  0  0  0
 17 18  1  0  0  0  0
 18 19  1  0  0  0  0
 10 20  1  0  0  0  0
 20 26  1  0  0  0  0
 20 21  1  0  0  0  0
 21 22  1  0  0  0  0
 22 23  1  0  0  0  0
 23 24  1  0  0  0  0
 23 25  1  0  0  0  0
 25 26  1  0  0  0  0
M  END
$$$$
DUN-NEW-f8c-16
  -OEChem-03232022352D

 26 29  0     0  0  0  0  0  0999 V2000
    1.7340    4.0138    0.0000 O   0  0  0  0  0  0  0  0  0  0  0  0
    1.7340    3.0138    0.0000 C   0  0  0  0  0  0  0  0  0  0  0  0
    2.6001    2.5138    0.0000 N   0  0  0  0  0  0  0  0  0  0  0  0
    3.4661    3.0138    0.0000 C   0  0  0  0  0  0  0  0  0  0  0  0
    3.4675    4.0138    0.0000 C   0  0  0  0  0  0  0  0  0  0  0  0
    4.3314    4.5176    0.0000 C   0  0  0  0  0  0  0  0  0  0  0  0
    5.2027    4.0163    0.0000 C   0  0  0  0  0  0  0  0  0  0  0  0
    5.2100    3.0112    0.0000 N   0  0  0  0  0  0  0  0  0  0  0  0
    4.3373    2.5125    0.0000 C   0  0  0  0  0  0  0  0  0  0  0  0
    0.8680    2.5138    0.0000 N   0  0  0  0  0  0  0  0  0  0  0  0
    0.8680    1.5138    0.0000 C   0  0  0  0  0  0  0  0  0  0  0  0
    0.0000    1.0058    0.0000 C   0  0  0  0  0  0  0  0  0  0  0  0
    0.0000    0.0000    0.0000 C   0  0  0  0  0  0  0  0  0  0  0  0
    0.8680   -0.4978    0.0000 C   0  0  0  0  0  0  0  0  0  0  0  0
    1.7360   -0.0012    0.0000 C   0  0  0  0  0  0  0  0  0  0  0  0
    2.6938   -0.3125    0.0000 C   0  0  0  0  0  0  0  0  0  0  0  0
    3.2858    0.5023    0.0000 C   0  0  0  0  0  0  0  0  0  0  0  0
    2.6938    1.3169    0.0000 N   0  0  0  0  0  0  0  0  0  0  0  0
    1.7360    1.0058    0.0000 C   0  0  0  0  0  0  0  0  0  0  0  0
    0.0020    3.0138    0.0000 C   0  0  0  0  0  0  0  0  0  0  0  0
   -0.8671    2.5086    0.0000 C   0  0  0  0  0  0  0  0  0  0  0  0
   -1.7331    3.0086    0.0000 C   0  0  0  0  0  0  0  0  0  0  0  0
   -1.7390    4.0086    0.0000 C   0  0  0  0  0  0  0  0  0  0  0  0
   -2.6072    4.5048    0.0000 O   0  0  0  0  0  0  0  0  0  0  0  0
   -0.8700    4.5138    0.0000 C   0  0  0  0  0  0  0  0  0  0  0  0
    0.0049    4.0189    0.0000 C   0  0  0  0  0  0  0  0  0  0  0  0
  1  2  2  0  0  0  0
  2  3  1  0  0  0  0
  3  4  1  0  0  0  0
  4  9  2  0  0  0  0
  4  5  1  0  0  0  0
  5  6  2  0  0  0  0
  6  7  1  0  0  0  0
  7  8  2  0  0  0  0
  8  9  1  0  0  0  0
  2 10  1  0  0  0  0
 10 11  1  0  0  0  0
 11 19  2  0  0  0  0
 11 12  1  0  0  0  0
 12 13  2  0  0  0  0
 13 14  1  0  0  0  0
 14 15  2  0  0  0  0
 15 19  1  0  0  0  0
 15 16  1  0  0  0  0
 16 17  2  0  0  0  0
 17 18  1  0  0  0  0
 18 19  1  0  0  0  0
 10 20  1  0  0  0  0
 20 26  1  0  0  0  0
 20 21  1  0  0  0  0
 21 22  1  0  0  0  0
 22 23  1  0  0  0  0
 23 24  1  0  0  0  0
 23 25  1  0  0  0  0
 25 26  1  0  0  0  0
M  END
$$$$
DUN-NEW-f8c-17
  -OEChem-03232022352D

 27 30  0     0  0  0  0  0  0999 V2000
    3.0028    2.2680    0.0000 C   0  0  0  0  0  0  0  0  0  0  0  0
    2.6938    1.3169    0.0000 N   0  0  0  0  0  0  0  0  0  0  0  0
    3.2858    0.5023    0.0000 C   0  0  0  0  0  0  0  0  0  0  0  0
    2.6938   -0.3125    0.0000 C   0  0  0  0  0  0  0  0  0  0  0  0
    1.7360   -0.0012    0.0000 C   0  0  0  0  0  0  0  0  0  0  0  0
    0.8680   -0.4978    0.0000 C   0  0  0  0  0  0  0  0  0  0  0  0
    0.0000    0.0000    0.0000 C   0  0  0  0  0  0  0  0  0  0  0  0
    0.0000    1.0058    0.0000 C   0  0  0  0  0  0  0  0  0  0  0  0
    0.8680    1.5138    0.0000 C   0  0  0  0  0  0  0  0  0  0  0  0
    0.8680    3.2638    0.0000 N   0  0  0  0  0  0  0  0  0  0  0  0
    1.7340    3.7638    0.0000 C   0  0  0  0  0  0  0  0  0  0  0  0
    2.6001    3.2638    0.0000 O   0  0  0  0  0  0  0  0  0  0  0  0
    1.7340    4.7638    0.0000 N   0  0  0  0  0  0  0  0  0  0  0  0
    2.6001    5.2638    0.0000 C   0  0  0  0  0  0  0  0  0  0  0  0
    2.6015    6.2638    0.0000 C   0  0  0  0  0  0  0  0  0  0  0  0
    3.4654    6.7676    0.0000 C   0  0  0  0  0  0  0  0  0  0  0  0
    4.3366    6.2663    0.0000 C   0  0  0  0  0  0  0  0  0  0  0  0
    4.3440    5.2612    0.0000 N   0  0  0  0  0  0  0  0  0  0  0  0
    3.4713    4.7625    0.0000 C   0  0  0  0  0  0  0  0  0  0  0  0
    0.0020    3.7638    0.0000 C   0  0  0  0  0  0  0  0  0  0  0  0
    0.0049    4.7690    0.0000 C   0  0  0  0  0  0  0  0  0  0  0  0
   -0.8611    5.2691    0.0000 C   0  0  0  0  0  0  0  0  0  0  0  0
   -1.7301    4.7741    0.0000 C   0  0  0  0  0  0  0  0  0  0  0  0
   -2.5939    5.2779    0.0000 O   0  0  0  0  0  0  0  0  0  0  0  0
   -1.7330    3.7689    0.0000 C   0  0  0  0  0  0  0  0  0  0  0  0
   -0.8670    3.2587    0.0000 C   0  0  0  0  0  0  0  0  0  0  0  0
    1.7360    1.0058    0.0000 C   0  0  0  0  0  0  0  0  0  0  0  0
  1  2  1  0  0  0  0
  2 27  1  0  0  0  0
  2  3  1  0  0  0  0
  3  4  2  0  0  0  0
  4  5  1  0  0  0  0
  5 27  2  0  0  0  0
  5  6  1  0  0  0  0
  6  7  2  0  0  0  0
  7  8  1  0  0  0  0
  8  9  2  0  0  0  0
  9 10  1  0  0  0  0
 10 11  1  0  0  0  0
 11 12  2  0  0  0  0
 11 13  1  0  0  0  0
 13 14  1  0  0  0  0
 14 19  2  0  0  0  0
 14 15  1  0  0  0  0
 15 16  2  0  0  0  0
 16 17  1  0  0  0  0
 17 18  2  0  0  0  0
 18 19  1  0  0  0  0
 10 20  1  0  0  0  0
 20 26  1  0  0  0  0
 20 21  1  0  0  0  0
 21 22  1  0  0  0  0
 22 23  1  0  0  0  0
 23 24  1  0  0  0  0
 23 25  1  0  0  0  0
 25 26  1  0  0  0  0
  9 27  1  0  0  0  0
M  END
$$$$
DUN-NEW-f8c-18
  -OEChem-03232022352D

 27 30  0     0  0  0  0  0  0999 V2000
    3.0028    2.2680    0.0000 C   0  0  0  0  0  0  0  0  0  0  0  0
    2.6938    1.3169    0.0000 N   0  0  0  0  0  0  0  0  0  0  0  0
    3.2858    0.5023    0.0000 C   0  0  0  0  0  0  0  0  0  0  0  0
    2.6938   -0.3125    0.0000 C   0  0  0  0  0  0  0  0  0  0  0  0
    1.7360   -0.0012    0.0000 C   0  0  0  0  0  0  0  0  0  0  0  0
    0.8680   -0.4978    0.0000 C   0  0  0  0  0  0  0  0  0  0  0  0
    0.0000    0.0000    0.0000 C   0  0  0  0  0  0  0  0  0  0  0  0
    0.0000    1.0058    0.0000 C   0  0  0  0  0  0  0  0  0  0  0  0
    0.8680    1.5138    0.0000 C   0  0  0  0  0  0  0  0  0  0  0  0
    0.8680    3.2638    0.0000 N   0  0  0  0  0  0  0  0  0  0  0  0
    1.7340    3.7638    0.0000 C   0  0  0  0  0  0  0  0  0  0  0  0
    2.6001    3.2638    0.0000 O   0  0  0  0  0  0  0  0  0  0  0  0
    1.7340    4.7638    0.0000 C   0  0  0  0  0  0  0  0  0  0  0  0
    2.6001    5.2638    0.0000 C   0  0  0  0  0  0  0  0  0  0  0  0
    2.6015    6.2638    0.0000 C   0  0  0  0  0  0  0  0  0  0  0  0
    3.4654    6.7676    0.0000 C   0  0  0  0  0  0  0  0  0  0  0  0
    4.3366    6.2663    0.0000 C   0  0  0  0  0  0  0  0  0  0  0  0
    4.3440    5.2612    0.0000 N   0  0  0  0  0  0  0  0  0  0  0  0
    3.4713    4.7625    0.0000 C   0  0  0  0  0  0  0  0  0  0  0  0
    0.0020    3.7638    0.0000 C   0  0  0  0  0  0  0  0  0  0  0  0
    0.0049    4.7690    0.0000 C   0  0  0  0  0  0  0  0  0  0  0  0
   -0.8611    5.2691    0.0000 C   0  0  0  0  0  0  0  0  0  0  0  0
   -1.7301    4.7741    0.0000 C   0  0  0  0  0  0  0  0  0  0  0  0
   -2.5939    5.2779    0.0000 O   0  0  0  0  0  0  0  0  0  0  0  0
   -1.7330    3.7689    0.0000 C   0  0  0  0  0  0  0  0  0  0  0  0
   -0.8670    3.2587    0.0000 C   0  0  0  0  0  0  0  0  0  0  0  0
    1.7360    1.0058    0.0000 C   0  0  0  0  0  0  0  0  0  0  0  0
  1  2  1  0  0  0  0
  2 27  1  0  0  0  0
  2  3  1  0  0  0  0
  3  4  2  0  0  0  0
  4  5  1  0  0  0  0
  5 27  2  0  0  0  0
  5  6  1  0  0  0  0
  6  7  2  0  0  0  0
  7  8  1  0  0  0  0
  8  9  2  0  0  0  0
  9 10  1  0  0  0  0
 10 11  1  0  0  0  0
 11 12  2  0  0  0  0
 11 13  1  0  0  0  0
 13 14  1  0  0  0  0
 14 19  2  0  0  0  0
 14 15  1  0  0  0  0
 15 16  2  0  0  0  0
 16 17  1  0  0  0  0
 17 18  2  0  0  0  0
 18 19  1  0  0  0  0
 10 20  1  0  0  0  0
 20 26  1  0  0  0  0
 20 21  1  0  0  0  0
 21 22  1  0  0  0  0
 22 23  1  0  0  0  0
 23 24  1  0  0  0  0
 23 25  1  0  0  0  0
 25 26  1  0  0  0  0
  9 27  1  0  0  0  0
M  END
$$$$
DUN-NEW-f8c-19
  -OEChem-03232022352D

 27 29  0     0  0  0  0  0  0999 V2000
    3.0028    2.2680    0.0000 C   0  0  0  0  0  0  0  0  0  0  0  0
    2.6938    1.3169    0.0000 N   0  0  0  0  0  0  0  0  0  0  0  0
    3.2858    0.5023    0.0000 C   0  0  0  0  0  0  0  0  0  0  0  0
    2.6938   -0.3125    0.0000 C   0  0  0  0  0  0  0  0  0  0  0  0
    1.7360   -0.0012    0.0000 C   0  0  0  0  0  0  0  0  0  0  0  0
    0.8680   -0.4978    0.0000 C   0  0  0  0  0  0  0  0  0  0  0  0
    0.0000    0.0000    0.0000 C   0  0  0  0  0  0  0  0  0  0  0  0
    0.0000    1.0058    0.0000 C   0  0  0  0  0  0  0  0  0  0  0  0
    0.8680    1.5138    0.0000 C   0  0  0  0  0  0  0  0  0  0  0  0
    0.8680    2.5138    0.0000 N   0  0  0  0  0  0  0  0  0  0  0  0
    1.7340    3.0138    0.0000 C   0  0  0  0  0  0  0  0  0  0  0  0
    1.7340    4.0138    0.0000 C   0  0  0  0  0  0  0  0  0  0  0  0
    2.6001    4.5138    0.0000 N   0  0  0  0  0  0  0  0  0  0  0  0
    2.6001    5.5138    0.0000 S   0  0  0  0  0  0  0  0  0  0  0  0
    2.6001    6.5138    0.0000 C   0  0  0  0  0  0  0  0  0  0  0  0
    1.6001    5.5138    0.0000 O   0  0  0  0  0  0  0  0  0  0  0  0
    3.6001    5.5138    0.0000 O   0  0  0  0  0  0  0  0  0  0  0  0
    0.0020    3.0138    0.0000 C   0  0  0  0  0  0  0  0  0  0  0  0
   -0.8641    2.5138    0.0000 O   0  0  0  0  0  0  0  0  0  0  0  0
    0.0020    4.0138    0.0000 C   0  0  0  0  0  0  0  0  0  0  0  0
   -0.8640    4.5138    0.0000 C   0  0  0  0  0  0  0  0  0  0  0  0
   -0.8655    5.5138    0.0000 C   0  0  0  0  0  0  0  0  0  0  0  0
   -1.7294    6.0176    0.0000 C   0  0  0  0  0  0  0  0  0  0  0  0
   -2.6006    5.5163    0.0000 C   0  0  0  0  0  0  0  0  0  0  0  0
   -2.6080    4.5112    0.0000 N   0  0  0  0  0  0  0  0  0  0  0  0
   -1.7353    4.0125    0.0000 C   0  0  0  0  0  0  0  0  0  0  0  0
    1.7360    1.0058    0.0000 C   0  0  0  0  0  0  0  0  0  0  0  0
  1  2  1  0  0  0  0
  2 27  1  0  0  0  0
  2  3  1  0  0  0  0
  3  4  2  0  0  0  0
  4  5  1  0  0  0  0
  5 27  2  0  0  0  0
  5  6  1  0  0  0  0
  6  7  2  0  0  0  0
  7  8  1  0  0  0  0
  8  9  2  0  0  0  0
  9 10  1  0  0  0  0
 10 11  1  0  0  0  0
 11 12  1  0  0  0  0
 12 13  1  0  0  0  0
 13 14  1  0  0  0  0
 14 15  1  0  0  0  0
 14 16  2  0  0  0  0
 14 17  2  0  0  0  0
 10 18  1  0  0  0  0
 18 19  2  0  0  0  0
 18 20  1  0  0  0  0
 20 21  1  0  0  0  0
 21 26  2  0  0  0  0
 21 22  1  0  0  0  0
 22 23  2  0  0  0  0
 23 24  1  0  0  0  0
 24 25  2  0  0  0  0
 25 26  1  0  0  0  0
  9 27  1  0  0  0  0
M  END
$$$$
DUN-NEW-f8c-20
  -OEChem-03232022352D

 26 28  0     0  0  0  0  0  0999 V2000
   -0.8641    6.5138    0.0000 C   0  0  0  0  0  0  0  0  0  0  0  0
   -0.8641    5.5138    0.0000 S   0  0  0  0  0  0  0  0  0  0  0  0
    0.1359    5.5138    0.0000 O   0  0  0  0  0  0  0  0  0  0  0  0
   -1.8641    5.5138    0.0000 O   0  0  0  0  0  0  0  0  0  0  0  0
   -0.8641    4.5138    0.0000 N   0  0  0  0  0  0  0  0  0  0  0  0
    0.0020    4.0138    0.0000 C   0  0  0  0  0  0  0  0  0  0  0  0
    0.0020    3.0138    0.0000 C   0  0  0  0  0  0  0  0  0  0  0  0
    0.8680    2.5138    0.0000 N   0  0  0  0  0  0  0  0  0  0  0  0
    1.7340    3.0138    0.0000 C   0  0  0  0  0  0  0  0  0  0  0  0
    2.6001    2.5138    0.0000 O   0  0  0  0  0  0  0  0  0  0  0  0
    1.7340    4.0138    0.0000 C   0  0  0  0  0  0  0  0  0  0  0  0
    2.6001    4.5138    0.0000 C   0  0  0  0  0  0  0  0  0  0  0  0
    2.6015    5.5138    0.0000 C   0  0  0  0  0  0  0  0  0  0  0  0
    3.4654    6.0176    0.0000 C   0  0  0  0  0  0  0  0  0  0  0  0
    4.3366    5.5163    0.0000 C   0  0  0  0  0  0  0  0  0  0  0  0
    4.3440    4.5112    0.0000 N   0  0  0  0  0  0  0  0  0  0  0  0
    3.4713    4.0125    0.0000 C   0  0  0  0  0  0  0  0  0  0  0  0
    0.8680    1.5138    0.0000 C   0  0  0  0  0  0  0  0  0  0  0  0
    0.0000    1.0058    0.0000 C   0  0  0  0  0  0  0  0  0  0  0  0
    0.0000    0.0000    0.0000 C   0  0  0  0  0  0  0  0  0  0  0  0
    0.8680   -0.4978    0.0000 C   0  0  0  0  0  0  0  0  0  0  0  0
    1.7360   -0.0012    0.0000 C   0  0  0  0  0  0  0  0  0  0  0  0
    2.6938   -0.3125    0.0000 C   0  0  0  0  0  0  0  0  0  0  0  0
    3.2858    0.5023    0.0000 C   0  0  0  0  0  0  0  0  0  0  0  0
    2.6938    1.3169    0.0000 N   0  0  0  0  0  0  0  0  0  0  0  0
    1.7360    1.0058    0.0000 C   0  0  0  0  0  0  0  0  0  0  0  0
  1  2  1  0  0  0  0
  2  3  2  0  0  0  0
  2  4  2  0  0  0  0
  2  5  1  0  0  0  0
  5  6  1  0  0  0  0
  6  7  1  0  0  0  0
  7  8  1  0  0  0  0
  8  9  1  0  0  0  0
  9 10  2  0  0  0  0
  9 11  1  0  0  0  0
 11 12  1  0  0  0  0
 12 17  2  0  0  0  0
 12 13  1  0  0  0  0
 13 14  2  0  0  0  0
 14 15  1  0  0  0  0
 15 16  2  0  0  0  0
 16 17  1  0  0  0  0
  8 18  1  0  0  0  0
 18 26  2  0  0  0  0
 18 19  1  0  0  0  0
 19 20  2  0  0  0  0
 20 21  1  0  0  0  0
 21 22  2  0  0  0  0
 22 26  1  0  0  0  0
 22 23  1  0  0  0  0
 23 24  2  0  0  0  0
 24 25  1  0  0  0  0
 25 26  1  0  0  0  0
M  END
$$$$
DUN-NEW-f8c-21
  -OEChem-03232022352D

 21 22  0     0  0  0  0  0  0999 V2000
    5.5770   -3.5816    0.0000 C   0  0  0  0  0  0  0  0  0  0  0  0
    5.2680   -2.6306    0.0000 C   0  0  0  0  0  0  0  0  0  0  0  0
    5.9372   -1.8874    0.0000 O   0  0  0  0  0  0  0  0  0  0  0  0
    4.2899   -2.4226    0.0000 N   0  0  0  0  0  0  0  0  0  0  0  0
    3.9809   -1.4715    0.0000 C   0  0  0  0  0  0  0  0  0  0  0  0
    3.0028   -1.2636    0.0000 C   0  0  0  0  0  0  0  0  0  0  0  0
    2.6938   -0.3125    0.0000 C   0  0  0  0  0  0  0  0  0  0  0  0
    3.2858    0.5023    0.0000 C   0  0  0  0  0  0  0  0  0  0  0  0
    2.6938    1.3169    0.0000 N   0  0  0  0  0  0  0  0  0  0  0  0
    1.7360    1.0058    0.0000 C   0  0  0  0  0  0  0  0  0  0  0  0
    0.8680    1.5138    0.0000 C   0  0  0  0  0  0  0  0  0  0  0  0
    0.8680    2.5138    0.0000 C   0  0  0  0  0  0  0  0  0  0  0  0
    0.0020    3.0138    0.0000 N   0  0  0  0  0  0  0  0  0  0  0  0
    0.0020    4.0138    0.0000 C   0  0  0  0  0  0  0  0  0  0  0  0
    0.8680    4.5138    0.0000 O   0  0  0  0  0  0  0  0  0  0  0  0
   -0.8641    4.5138    0.0000 C   0  0  0  0  0  0  0  0  0  0  0  0
   -0.8640    5.5138    0.0000 Cl  0  0  0  0  0  0  0  0  0  0  0  0
    0.0000    1.0058    0.0000 C   0  0  0  0  0  0  0  0  0  0  0  0
    0.0000    0.0000    0.0000 C   0  0  0  0  0  0  0  0  0  0  0  0
    0.8680   -0.4978    0.0000 C   0  0  0  0  0  0  0  0  0  0  0  0
    1.7360   -0.0012    0.0000 C   0  0  0  0  0  0  0  0  0  0  0  0
  1  2  1  0  0  0  0
  2  3  2  0  0  0  0
  2  4  1  0  0  0  0
  4  5  1  0  0  0  0
  5  6  1  0  0  0  0
  6  7  1  0  0  0  0
  7 21  1  0  0  0  0
  7  8  2  0  0  0  0
  8  9  1  0  0  0  0
  9 10  1  0  0  0  0
 10 21  2  0  0  0  0
 10 11  1  0  0  0  0
 11 12  1  0  0  0  0
 12 13  1  0  0  0  0
 13 14  1  0  0  0  0
 14 15  2  0  0  0  0
 14 16  1  0  0  0  0
 16 17  1  0  0  0  0
 11 18  2  0  0  0  0
 18 19  1  0  0  0  0
 19 20  2  0  0  0  0
 20 21  1  0  0  0  0
M  END
$$$$
DUN-NEW-f8c-22
  -OEChem-03232022352D

 20 21  0     1  0  0  0  0  0999 V2000
    0.8675    4.2629    0.0000 C   0  0  0  0  0  0  0  0  0  0  0  0
    0.8675    3.2629    0.0000 S   0  0  0  0  0  0  0  0  0  0  0  0
    1.8675    3.2629    0.0000 O   0  0  0  0  0  0  0  0  0  0  0  0
   -0.1325    3.2629    0.0000 O   0  0  0  0  0  0  0  0  0  0  0  0
    0.8675    1.5129    0.0000 N   0  0  3  0  0  0  0  0  0  0  0  0
    0.0000    1.0052    0.0000 C   0  0  0  0  0  0  0  0  0  0  0  0
    0.0000    0.0000    0.0000 C   0  0  0  0  0  0  0  0  0  0  0  0
    0.8675   -0.4975    0.0000 N   0  0  0  0  0  0  0  0  0  0  0  0
    0.8675   -1.4975    0.0000 C   0  0  0  0  0  0  0  0  0  0  0  0
    0.0015   -1.9975    0.0000 O   0  0  0  0  0  0  0  0  0  0  0  0
    1.7335   -1.9975    0.0000 C   0  0  0  0  0  0  0  0  0  0  0  0
    1.7335   -2.9975    0.0000 Cl  0  0  0  0  0  0  0  0  0  0  0  0
    1.7350    0.0000    0.0000 C   0  0  0  0  0  0  0  0  0  0  0  0
    1.7350    1.0052    0.0000 C   0  0  3  0  0  0  0  0  0  0  0  0
    2.6025    1.5026    0.0000 C   0  0  0  0  0  0  0  0  0  0  0  0
    2.6025    2.5078    0.0000 C   0  0  0  0  0  0  0  0  0  0  0  0
    3.4700    3.0053    0.0000 C   0  0  0  0  0  0  0  0  0  0  0  0
    4.3375    2.5078    0.0000 C   0  0  0  0  0  0  0  0  0  0  0  0
    4.3375    1.5026    0.0000 C   0  0  0  0  0  0  0  0  0  0  0  0
    3.4700    0.9949    0.0000 C   0  0  0  0  0  0  0  0  0  0  0  0
  1  2  1  0  0  0  0
  2  3  2  0  0  0  0
  2  4  2  0  0  0  0
  2  5  1  0  0  0  0
  5 14  1  0  0  0  0
  5  6  1  0  0  0  0
  6  7  1  0  0  0  0
  7  8  1  0  0  0  0
  8  9  1  0  0  0  0
  9 10  2  0  0  0  0
  9 11  1  0  0  0  0
 11 12  1  0  0  0  0
  8 13  1  0  0  0  0
 13 14  1  0  0  0  0
 14 15  1  0  0  0  0
 15 20  2  0  0  0  0
 15 16  1  0  0  0  0
 16 17  2  0  0  0  0
 17 18  1  0  0  0  0
 18 19  2  0  0  0  0
 19 20  1  0  0  0  0
M  END
$$$$
DUN-NEW-f8c-23
  -OEChem-03232022352D

 26 28  0     0  0  0  0  0  0999 V2000
    4.2857    2.2344    0.0000 O   0  0  0  0  0  0  0  0  0  0  0  0
    4.7857    1.3684    0.0000 C   0  0  0  0  0  0  0  0  0  0  0  0
    5.7857    1.3685    0.0000 C   0  0  0  0  0  0  0  0  0  0  0  0
    6.2857    2.2345    0.0000 Cl  0  0  0  0  0  0  0  0  0  0  0  0
    4.2858    0.5024    0.0000 N   0  0  0  0  0  0  0  0  0  0  0  0
    3.2858    0.5023    0.0000 C   0  0  0  0  0  0  0  0  0  0  0  0
    2.6938   -0.3125    0.0000 N   0  0  0  0  0  0  0  0  0  0  0  0
    1.7360   -0.0012    0.0000 C   0  0  0  0  0  0  0  0  0  0  0  0
    0.8680   -0.4978    0.0000 C   0  0  0  0  0  0  0  0  0  0  0  0
    0.8675   -1.4978    0.0000 S   0  0  0  0  0  0  0  0  0  0  0  0
    1.8675   -1.4983    0.0000 O   0  0  0  0  0  0  0  0  0  0  0  0
   -0.1325   -1.4973    0.0000 O   0  0  0  0  0  0  0  0  0  0  0  0
    0.8670   -2.4978    0.0000 N   0  0  0  0  0  0  0  0  0  0  0  0
    1.7327   -2.9983    0.0000 C   0  0  0  0  0  0  0  0  0  0  0  0
    1.7322   -3.9983    0.0000 C   0  0  0  0  0  0  0  0  0  0  0  0
    2.5980   -4.4987    0.0000 C   0  0  0  0  0  0  0  0  0  0  0  0
    3.4673   -3.9940    0.0000 C   0  0  0  0  0  0  0  0  0  0  0  0
    4.3331   -4.4944    0.0000 C   0  0  0  0  0  0  0  0  0  0  0  0
    4.3384   -5.4944    0.0000 C   0  0  0  0  0  0  0  0  0  0  0  0
    3.4691   -5.9991    0.0000 C   0  0  0  0  0  0  0  0  0  0  0  0
    2.5945   -5.5038    0.0000 C   0  0  0  0  0  0  0  0  0  0  0  0
    0.0000    0.0000    0.0000 C   0  0  0  0  0  0  0  0  0  0  0  0
    0.0000    1.0058    0.0000 C   0  0  0  0  0  0  0  0  0  0  0  0
    0.8680    1.5138    0.0000 C   0  0  0  0  0  0  0  0  0  0  0  0
    1.7360    1.0058    0.0000 C   0  0  0  0  0  0  0  0  0  0  0  0
    2.6938    1.3169    0.0000 S   0  0  0  0  0  0  0  0  0  0  0  0
  1  2  2  0  0  0  0
  2  3  1  0  0  0  0
  3  4  1  0  0  0  0
  2  5  1  0  0  0  0
  5  6  1  0  0  0  0
  6 26  1  0  0  0  0
  6  7  2  0  0  0  0
  7  8  1  0  0  0  0
  8 25  2  0  0  0  0
  8  9  1  0  0  0  0
  9 10  1  0  0  0  0
 10 11  2  0  0  0  0
 10 12  2  0  0  0  0
 10 13  1  0  0  0  0
 13 14  1  0  0  0  0
 14 15  1  0  0  0  0
 15 16  1  0  0  0  0
 16 21  2  0  0  0  0
 16 17  1  0  0  0  0
 17 18  2  0  0  0  0
 18 19  1  0  0  0  0
 19 20  2  0  0  0  0
 20 21  1  0  0  0  0
  9 22  2  0  0  0  0
 22 23  1  0  0  0  0
 23 24  2  0  0  0  0
 24 25  1  0  0  0  0
 25 26  1  0  0  0  0
M  END
$$$$
DUN-NEW-f8c-24
  -OEChem-03232022352D

 26 28  0     0  0  0  0  0  0999 V2000
    5.5770   -3.5816    0.0000 C   0  0  0  0  0  0  0  0  0  0  0  0
    5.2680   -2.6306    0.0000 C   0  0  0  0  0  0  0  0  0  0  0  0
    5.9372   -1.8874    0.0000 O   0  0  0  0  0  0  0  0  0  0  0  0
    4.2899   -2.4226    0.0000 N   0  0  0  0  0  0  0  0  0  0  0  0
    3.9809   -1.4715    0.0000 C   0  0  0  0  0  0  0  0  0  0  0  0
    3.0028   -1.2636    0.0000 C   0  0  0  0  0  0  0  0  0  0  0  0
    2.6938   -0.3125    0.0000 C   0  0  0  0  0  0  0  0  0  0  0  0
    3.2858    0.5023    0.0000 C   0  0  0  0  0  0  0  0  0  0  0  0
    2.6938    1.3169    0.0000 N   0  0  0  0  0  0  0  0  0  0  0  0
    1.7360    1.0058    0.0000 C   0  0  0  0  0  0  0  0  0  0  0  0
    0.8680    1.5138    0.0000 C   0  0  0  0  0  0  0  0  0  0  0  0
    0.8680    2.5138    0.0000 C   0  0  0  0  0  0  0  0  0  0  0  0
    0.0020    3.0138    0.0000 N   0  0  0  0  0  0  0  0  0  0  0  0
   -0.0040    4.0189    0.0000 C   0  0  0  0  0  0  0  0  0  0  0  0
   -0.8745    4.5215    0.0000 C   0  0  0  0  0  0  0  0  0  0  0  0
   -1.7391    4.0190    0.0000 N   0  0  0  0  0  0  0  0  0  0  0  0
   -2.6051    4.5190    0.0000 C   0  0  0  0  0  0  0  0  0  0  0  0
   -2.6051    5.5190    0.0000 O   0  0  0  0  0  0  0  0  0  0  0  0
   -3.4711    4.0190    0.0000 C   0  0  0  0  0  0  0  0  0  0  0  0
   -4.3372    4.5190    0.0000 Cl  0  0  0  0  0  0  0  0  0  0  0  0
   -1.7420    3.0190    0.0000 C   0  0  0  0  0  0  0  0  0  0  0  0
   -0.8715    2.5164    0.0000 C   0  0  0  0  0  0  0  0  0  0  0  0
    0.0000    1.0058    0.0000 C   0  0  0  0  0  0  0  0  0  0  0  0
    0.0000    0.0000    0.0000 C   0  0  0  0  0  0  0  0  0  0  0  0
    0.8680   -0.4978    0.0000 C   0  0  0  0  0  0  0  0  0  0  0  0
    1.7360   -0.0012    0.0000 C   0  0  0  0  0  0  0  0  0  0  0  0
  1  2  1  0  0  0  0
  2  3  2  0  0  0  0
  2  4  1  0  0  0  0
  4  5  1  0  0  0  0
  5  6  1  0  0  0  0
  6  7  1  0  0  0  0
  7 26  1  0  0  0  0
  7  8  2  0  0  0  0
  8  9  1  0  0  0  0
  9 10  1  0  0  0  0
 10 26  2  0  0  0  0
 10 11  1  0  0  0  0
 11 12  1  0  0  0  0
 12 13  1  0  0  0  0
 13 22  1  0  0  0  0
 13 14  1  0  0  0  0
 14 15  1  0  0  0  0
 15 16  1  0  0  0  0
 16 17  1  0  0  0  0
 17 18  2  0  0  0  0
 17 19  1  0  0  0  0
 19 20  1  0  0  0  0
 16 21  1  0  0  0  0
 21 22  1  0  0  0  0
 11 23  2  0  0  0  0
 23 24  1  0  0  0  0
 24 25  2  0  0  0  0
 25 26  1  0  0  0  0
M  END
$$$$
DUN-NEW-f8c-25
  -OEChem-03232022352D

 24 25  0     1  0  0  0  0  0999 V2000
   -0.8660   -3.5000    0.0000 C   0  0  0  0  0  0  0  0  0  0  0  0
   -0.8660   -2.5000    0.0000 S   0  0  0  0  0  0  0  0  0  0  0  0
   -1.8660   -2.5000    0.0000 O   0  0  0  0  0  0  0  0  0  0  0  0
    0.1340   -2.5000    0.0000 O   0  0  0  0  0  0  0  0  0  0  0  0
   -0.8660   -1.5000    0.0000 N   0  0  3  0  0  0  0  0  0  0  0  0
   -1.7321   -1.0000    0.0000 C   0  0  0  0  0  0  0  0  0  0  0  0
   -2.5981   -1.5000    0.0000 C   0  0  0  0  0  0  0  0  0  0  0  0
   -3.4641   -1.0000    0.0000 C   0  0  0  0  0  0  0  0  0  0  0  0
   -4.3331   -1.5052    0.0000 C   0  0  0  0  0  0  0  0  0  0  0  0
   -5.1992   -1.0052    0.0000 C   0  0  0  0  0  0  0  0  0  0  0  0
   -5.2051   -0.0052    0.0000 C   0  0  0  0  0  0  0  0  0  0  0  0
   -4.3360    0.5000    0.0000 C   0  0  0  0  0  0  0  0  0  0  0  0
   -3.4611    0.0051    0.0000 C   0  0  0  0  0  0  0  0  0  0  0  0
   -0.0000   -1.0000    0.0000 C   0  0  0  0  0  0  0  0  0  0  0  0
    0.0000    0.0000    0.0000 C   0  0  0  0  0  0  0  0  0  0  0  0
   -0.8675    0.4975    0.0000 C   0  0  0  0  0  0  0  0  0  0  0  0
   -0.8675    1.5027    0.0000 C   0  0  0  0  0  0  0  0  0  0  0  0
    0.0000    2.0104    0.0000 N   0  0  0  0  0  0  0  0  0  0  0  0
    0.0000    3.0104    0.0000 C   0  0  0  0  0  0  0  0  0  0  0  0
    0.8660    3.5104    0.0000 O   0  0  0  0  0  0  0  0  0  0  0  0
   -0.8660    3.5104    0.0000 C   0  0  0  0  0  0  0  0  0  0  0  0
   -0.8660    4.5104    0.0000 Cl  0  0  0  0  0  0  0  0  0  0  0  0
    0.8675    1.5027    0.0000 C   0  0  0  0  0  0  0  0  0  0  0  0
    0.8675    0.4975    0.0000 C   0  0  0  0  0  0  0  0  0  0  0  0
  1  2  1  0  0  0  0
  2  3  2  0  0  0  0
  2  4  2  0  0  0  0
  2  5  1  0  0  0  0
  5  6  1  0  0  0  0
  6  7  1  0  0  0  0
  7  8  1  0  0  0  0
  8 13  2  0  0  0  0
  8  9  1  0  0  0  0
  9 10  2  0  0  0  0
 10 11  1  0  0  0  0
 11 12  2  0  0  0  0
 12 13  1  0  0  0  0
  5 14  1  0  0  0  0
 14 15  1  0  0  0  0
 15 24  1  0  0  0  0
 15 16  1  0  0  0  0
 16 17  1  0  0  0  0
 17 18  1  0  0  0  0
 18 19  1  0  0  0  0
 19 20  2  0  0  0  0
 19 21  1  0  0  0  0
 21 22  1  0  0  0  0
 18 23  1  0  0  0  0
 23 24  1  0  0  0  0
M  END
$$$$
CHR-SOS-f73-1
  -OEChem-03232022352D

 22 24  0     0  0  0  0  0  0999 V2000
    2.6010    1.4950    0.0000 O   0  0  0  0  0  0  0  0  0  0  0  0
    2.5995    0.4950    0.0000 C   0  0  0  0  0  0  0  0  0  0  0  0
    3.4648   -0.0063    0.0000 C   0  0  0  0  0  0  0  0  0  0  0  0
    4.3316    0.4925    0.0000 C   0  0  0  0  0  0  0  0  0  0  0  0
    4.6704   -0.4484    0.0000 C   0  0  0  0  0  0  0  0  0  0  0  0
    4.0194   -1.2143    0.0000 C   0  0  0  0  0  0  0  0  0  0  0  0
    4.3582   -2.1552    0.0000 C   0  0  0  0  0  0  0  0  0  0  0  0
    5.3413   -2.3380    0.0000 C   0  0  0  0  0  0  0  0  0  0  0  0
    5.9924   -1.5721    0.0000 C   0  0  0  0  0  0  0  0  0  0  0  0
    5.6602   -0.6234    0.0000 C   0  0  0  0  0  0  0  0  0  0  0  0
    5.3225    0.6617    0.0000 C   0  0  0  0  0  0  0  0  0  0  0  0
    5.6668    1.6006    0.0000 C   0  0  0  0  0  0  0  0  0  0  0  0
    5.0304    2.3719    0.0000 C   0  0  0  0  0  0  0  0  0  0  0  0
    4.0395    2.2027    0.0000 C   0  0  0  0  0  0  0  0  0  0  0  0
    3.6851    1.2621    0.0000 C   0  0  0  0  0  0  0  0  0  0  0  0
    1.7328   -0.0038    0.0000 N   0  0  0  0  0  0  0  0  0  0  0  0
    0.8675    0.4975    0.0000 C   0  0  0  0  0  0  0  0  0  0  0  0
    0.0000    0.0000    0.0000 C   0  0  0  0  0  0  0  0  0  0  0  0
   -0.8675    0.4975    0.0000 C   0  0  0  0  0  0  0  0  0  0  0  0
   -0.8675    1.5027    0.0000 C   0  0  0  0  0  0  0  0  0  0  0  0
    0.0000    2.0104    0.0000 N   0  0  0  0  0  0  0  0  0  0  0  0
    0.8675    1.5027    0.0000 C   0  0  0  0  0  0  0  0  0  0  0  0
  1  2  2  0  0  0  0
  2  3  1  0  0  0  0
  3  4  1  0  0  0  0
  4 15  1  0  0  0  0
  4  5  1  0  0  0  0
  5 10  2  0  0  0  0
  5  6  1  0  0  0  0
  6  7  2  0  0  0  0
  7  8  1  0  0  0  0
  8  9  2  0  0  0  0
  9 10  1  0  0  0  0
  4 11  1  0  0  0  0
 11 12  1  0  0  0  0
 12 13  1  0  0  0  0
 13 14  1  0  0  0  0
 14 15  1  0  0  0  0
  2 16  1  0  0  0  0
 16 17  1  0  0  0  0
 17 22  2  0  0  0  0
 17 18  1  0  0  0  0
 18 19  2  0  0  0  0
 19 20  1  0  0  0  0
 20 21  2  0  0  0  0
 21 22  1  0  0  0  0
M  END
$$$$
CHR-SOS-f73-2
  -OEChem-03232022352D

 22 24  0     0  0  0  0  0  0999 V2000
    2.4104   -1.8855    0.0000 O   0  0  0  0  0  0  0  0  0  0  0  0
    1.4262   -1.7085    0.0000 C   0  0  0  0  0  0  0  0  0  0  0  0
    1.0874   -0.7676    0.0000 C   0  0  0  0  0  0  0  0  0  0  0  0
    1.7328   -0.0038    0.0000 C   0  0  0  0  0  0  0  0  0  0  0  0
    0.8675    0.4975    0.0000 C   0  0  0  0  0  0  0  0  0  0  0  0
    0.0000    0.0000    0.0000 C   0  0  0  0  0  0  0  0  0  0  0  0
   -0.8675    0.4975    0.0000 C   0  0  0  0  0  0  0  0  0  0  0  0
   -0.8675    1.5027    0.0000 C   0  0  0  0  0  0  0  0  0  0  0  0
    0.0000    2.0104    0.0000 N   0  0  0  0  0  0  0  0  0  0  0  0
    0.8675    1.5027    0.0000 C   0  0  0  0  0  0  0  0  0  0  0  0
    2.0761    0.9410    0.0000 C   0  0  0  0  0  0  0  0  0  0  0  0
    3.0614    1.1123    0.0000 C   0  0  0  0  0  0  0  0  0  0  0  0
    3.7068    0.3484    0.0000 C   0  0  0  0  0  0  0  0  0  0  0  0
    3.3635   -0.5963    0.0000 C   0  0  0  0  0  0  0  0  0  0  0  0
    2.3747   -0.7772    0.0000 C   0  0  0  0  0  0  0  0  0  0  0  0
    0.7808   -2.4723    0.0000 N   0  0  0  0  0  0  0  0  0  0  0  0
    1.1196   -3.4132    0.0000 C   0  0  0  0  0  0  0  0  0  0  0  0
    0.4753   -4.1780    0.0000 C   0  0  0  0  0  0  0  0  0  0  0  0
    0.8100   -5.1203    0.0000 C   0  0  0  0  0  0  0  0  0  0  0  0
    1.7991   -5.2997    0.0000 C   0  0  0  0  0  0  0  0  0  0  0  0
    2.4534   -4.5367    0.0000 N   0  0  0  0  0  0  0  0  0  0  0  0
    2.1087   -3.5925    0.0000 C   0  0  0  0  0  0  0  0  0  0  0  0
  1  2  2  0  0  0  0
  2  3  1  0  0  0  0
  3  4  1  0  0  0  0
  4 15  1  0  0  0  0
  4  5  1  0  0  0  0
  5 10  2  0  0  0  0
  5  6  1  0  0  0  0
  6  7  2  0  0  0  0
  7  8  1  0  0  0  0
  8  9  2  0  0  0  0
  9 10  1  0  0  0  0
  4 11  1  0  0  0  0
 11 12  1  0  0  0  0
 12 13  1  0  0  0  0
 13 14  1  0  0  0  0
 14 15  1  0  0  0  0
  2 16  1  0  0  0  0
 16 17  1  0  0  0  0
 17 22  2  0  0  0  0
 17 18  1  0  0  0  0
 18 19  2  0  0  0  0
 19 20  1  0  0  0  0
 20 21  2  0  0  0  0
 21 22  1  0  0  0  0
M  END
$$$$
CHR-SOS-f73-3
  -OEChem-03232022352D

 22 24  0     0  0  0  0  0  0999 V2000
    6.0840   -2.9910    0.0000 C   0  0  0  0  0  0  0  0  0  0  0  0
    5.1842   -2.5548    0.0000 C   0  0  0  0  0  0  0  0  0  0  0  0
    5.0069   -1.5689    0.0000 N   0  0  0  0  0  0  0  0  0  0  0  0
    4.0151   -1.4305    0.0000 C   0  0  0  0  0  0  0  0  0  0  0  0
    3.5799   -2.3309    0.0000 C   0  0  0  0  0  0  0  0  0  0  0  0
    2.5952   -2.5050    0.0000 C   0  0  0  0  0  0  0  0  0  0  0  0
    2.5966   -1.5050    0.0000 C   0  0  0  0  0  0  0  0  0  0  0  0
    1.7313   -1.0038    0.0000 C   0  0  0  0  0  0  0  0  0  0  0  0
    0.8646   -1.5025    0.0000 O   0  0  0  0  0  0  0  0  0  0  0  0
    1.7328   -0.0038    0.0000 N   0  0  0  0  0  0  0  0  0  0  0  0
    0.8675    0.4975    0.0000 C   0  0  0  0  0  0  0  0  0  0  0  0
    0.0000    0.0000    0.0000 C   0  0  0  0  0  0  0  0  0  0  0  0
   -0.8675    0.4975    0.0000 C   0  0  0  0  0  0  0  0  0  0  0  0
   -0.8675    1.5027    0.0000 C   0  0  0  0  0  0  0  0  0  0  0  0
    0.0000    2.0104    0.0000 N   0  0  0  0  0  0  0  0  0  0  0  0
    0.8675    1.5027    0.0000 C   0  0  0  0  0  0  0  0  0  0  0  0
    1.6059   -2.3271    0.0000 C   0  0  0  0  0  0  0  0  0  0  0  0
    0.9627   -3.0928    0.0000 C   0  0  0  0  0  0  0  0  0  0  0  0
    1.2988   -4.0347    0.0000 C   0  0  0  0  0  0  0  0  0  0  0  0
    2.2881   -4.2126    0.0000 C   0  0  0  0  0  0  0  0  0  0  0  0
    2.9413   -3.4487    0.0000 C   0  0  0  0  0  0  0  0  0  0  0  0
    4.2978   -3.0277    0.0000 S   0  0  0  0  0  0  0  0  0  0  0  0
  1  2  1  0  0  0  0
  2 22  1  0  0  0  0
  2  3  2  0  0  0  0
  3  4  1  0  0  0  0
  4  5  2  0  0  0  0
  5  6  1  0  0  0  0
  6 21  1  0  0  0  0
  6  7  1  0  0  0  0
  7  8  1  0  0  0  0
  8  9  2  0  0  0  0
  8 10  1  0  0  0  0
 10 11  1  0  0  0  0
 11 16  2  0  0  0  0
 11 12  1  0  0  0  0
 12 13  2  0  0  0  0
 13 14  1  0  0  0  0
 14 15  2  0  0  0  0
 15 16  1  0  0  0  0
  6 17  1  0  0  0  0
 17 18  1  0  0  0  0
 18 19  1  0  0  0  0
 19 20  1  0  0  0  0
 20 21  1  0  0  0  0
  5 22  1  0  0  0  0
M  END
$$$$
CHR-SOS-f73-4
  -OEChem-03232022352D

 21 23  0     0  0  0  0  0  0999 V2000
    2.6010    1.4950    0.0000 O   0  0  0  0  0  0  0  0  0  0  0  0
    2.5995    0.4950    0.0000 C   0  0  0  0  0  0  0  0  0  0  0  0
    3.4648   -0.0063    0.0000 C   0  0  0  0  0  0  0  0  0  0  0  0
    4.3316    0.4925    0.0000 C   0  0  0  0  0  0  0  0  0  0  0  0
    4.7376   -0.4214    0.0000 C   0  0  0  0  0  0  0  0  0  0  0  0
    4.1437   -1.2324    0.0000 C   0  0  0  0  0  0  0  0  0  0  0  0
    4.5497   -2.1463    0.0000 C   0  0  0  0  0  0  0  0  0  0  0  0
    5.5435   -2.2575    0.0000 C   0  0  0  0  0  0  0  0  0  0  0  0
    6.1374   -1.4465    0.0000 C   0  0  0  0  0  0  0  0  0  0  0  0
    5.7375   -0.5243    0.0000 C   0  0  0  0  0  0  0  0  0  0  0  0
    5.2843    0.8018    0.0000 C   0  0  0  0  0  0  0  0  0  0  0  0
    5.2867    1.8032    0.0000 C   0  0  0  0  0  0  0  0  0  0  0  0
    4.3356    2.1121    0.0000 C   0  0  0  0  0  0  0  0  0  0  0  0
    3.7429    1.3063    0.0000 C   0  0  0  0  0  0  0  0  0  0  0  0
    1.7328   -0.0038    0.0000 N   0  0  0  0  0  0  0  0  0  0  0  0
    0.8675    0.4975    0.0000 C   0  0  0  0  0  0  0  0  0  0  0  0
    0.0000    0.0000    0.0000 C   0  0  0  0  0  0  0  0  0  0  0  0
   -0.8675    0.4975    0.0000 C   0  0  0  0  0  0  0  0  0  0  0  0
   -0.8675    1.5027    0.0000 C   0  0  0  0  0  0  0  0  0  0  0  0
    0.0000    2.0104    0.0000 N   0  0  0  0  0  0  0  0  0  0  0  0
    0.8675    1.5027    0.0000 C   0  0  0  0  0  0  0  0  0  0  0  0
  1  2  2  0  0  0  0
  2  3  1  0  0  0  0
  3  4  1  0  0  0  0
  4 14  1  0  0  0  0
  4  5  1  0  0  0  0
  5 10  2  0  0  0  0
  5  6  1  0  0  0  0
  6  7  2  0  0  0  0
  7  8  1  0  0  0  0
  8  9  2  0  0  0  0
  9 10  1  0  0  0  0
  4 11  1  0  0  0  0
 11 12  1  0  0  0  0
 12 13  1  0  0  0  0
 13 14  1  0  0  0  0
  2 15  1  0  0  0  0
 15 16  1  0  0  0  0
 16 21  2  0  0  0  0
 16 17  1  0  0  0  0
 17 18  2  0  0  0  0
 18 19  1  0  0  0  0
 19 20  2  0  0  0  0
 20 21  1  0  0  0  0
M  END
$$$$
CHR-SOS-f73-5
  -OEChem-03232022352D

 21 23  0     0  0  0  0  0  0999 V2000
    2.5448   -1.8315    0.0000 O   0  0  0  0  0  0  0  0  0  0  0  0
    1.5504   -1.7262    0.0000 C   0  0  0  0  0  0  0  0  0  0  0  0
    1.1444   -0.8123    0.0000 C   0  0  0  0  0  0  0  0  0  0  0  0
    1.7328   -0.0038    0.0000 C   0  0  0  0  0  0  0  0  0  0  0  0
    0.8675    0.4975    0.0000 C   0  0  0  0  0  0  0  0  0  0  0  0
    0.0000    0.0000    0.0000 C   0  0  0  0  0  0  0  0  0  0  0  0
   -0.8675    0.4975    0.0000 C   0  0  0  0  0  0  0  0  0  0  0  0
   -0.8675    1.5027    0.0000 C   0  0  0  0  0  0  0  0  0  0  0  0
    0.0000    2.0104    0.0000 N   0  0  0  0  0  0  0  0  0  0  0  0
    0.8675    1.5027    0.0000 C   0  0  0  0  0  0  0  0  0  0  0  0
    2.1421    0.9104    0.0000 C   0  0  0  0  0  0  0  0  0  0  0  0
    3.1380    0.8059    0.0000 C   0  0  0  0  0  0  0  0  0  0  0  0
    3.3436   -0.1727    0.0000 C   0  0  0  0  0  0  0  0  0  0  0  0
    2.4791   -0.6760    0.0000 C   0  0  0  0  0  0  0  0  0  0  0  0
    0.9619   -2.5347    0.0000 N   0  0  0  0  0  0  0  0  0  0  0  0
    1.3679   -3.4486    0.0000 C   0  0  0  0  0  0  0  0  0  0  0  0
    0.7806   -4.2580    0.0000 C   0  0  0  0  0  0  0  0  0  0  0  0
    1.1826   -5.1737    0.0000 C   0  0  0  0  0  0  0  0  0  0  0  0
    2.1821   -5.2810    0.0000 C   0  0  0  0  0  0  0  0  0  0  0  0
    2.7795   -4.4727    0.0000 N   0  0  0  0  0  0  0  0  0  0  0  0
    2.3674   -3.5559    0.0000 C   0  0  0  0  0  0  0  0  0  0  0  0
  1  2  2  0  0  0  0
  2  3  1  0  0  0  0
  3  4  1  0  0  0  0
  4 14  1  0  0  0  0
  4  5  1  0  0  0  0
  5 10  2  0  0  0  0
  5  6  1  0  0  0  0
  6  7  2  0  0  0  0
  7  8  1  0  0  0  0
  8  9  2  0  0  0  0
  9 10  1  0  0  0  0
  4 11  1  0  0  0  0
 11 12  1  0  0  0  0
 12 13  1  0  0  0  0
 13 14  1  0  0  0  0
  2 15  1  0  0  0  0
 15 16  1  0  0  0  0
 16 21  2  0  0  0  0
 16 17  1  0  0  0  0
 17 18  2  0  0  0  0
 18 19  1  0  0  0  0
 19 20  2  0  0  0  0
 20 21  1  0  0  0  0
M  END
$$$$
CHR-SOS-f73-6
  -OEChem-03232022352D

 21 23  0     0  0  0  0  0  0999 V2000
    6.0397   -3.2422    0.0000 C   0  0  0  0  0  0  0  0  0  0  0  0
    5.1738   -2.7420    0.0000 C   0  0  0  0  0  0  0  0  0  0  0  0
    5.0684   -1.7459    0.0000 N   0  0  0  0  0  0  0  0  0  0  0  0
    4.0891   -1.5360    0.0000 C   0  0  0  0  0  0  0  0  0  0  0  0
    3.5899   -2.4026    0.0000 C   0  0  0  0  0  0  0  0  0  0  0  0
    2.5952   -2.5050    0.0000 C   0  0  0  0  0  0  0  0  0  0  0  0
    2.5966   -1.5050    0.0000 C   0  0  0  0  0  0  0  0  0  0  0  0
    1.7313   -1.0038    0.0000 C   0  0  0  0  0  0  0  0  0  0  0  0
    0.8646   -1.5025    0.0000 O   0  0  0  0  0  0  0  0  0  0  0  0
    1.7328   -0.0038    0.0000 N   0  0  0  0  0  0  0  0  0  0  0  0
    0.8675    0.4975    0.0000 C   0  0  0  0  0  0  0  0  0  0  0  0
    0.0000    0.0000    0.0000 C   0  0  0  0  0  0  0  0  0  0  0  0
   -0.8675    0.4975    0.0000 C   0  0  0  0  0  0  0  0  0  0  0  0
   -0.8675    1.5027    0.0000 C   0  0  0  0  0  0  0  0  0  0  0  0
    0.0000    2.0104    0.0000 N   0  0  0  0  0  0  0  0  0  0  0  0
    0.8675    1.5027    0.0000 C   0  0  0  0  0  0  0  0  0  0  0  0
    1.5991   -2.3995    0.0000 C   0  0  0  0  0  0  0  0  0  0  0  0
    1.1890   -3.3131    0.0000 C   0  0  0  0  0  0  0  0  0  0  0  0
    1.9319   -3.9825    0.0000 C   0  0  0  0  0  0  0  0  0  0  0  0
    2.8013   -3.4881    0.0000 C   0  0  0  0  0  0  0  0  0  0  0  0
    4.2555   -3.1495    0.0000 S   0  0  0  0  0  0  0  0  0  0  0  0
  1  2  1  0  0  0  0
  2 21  1  0  0  0  0
  2  3  2  0  0  0  0
  3  4  1  0  0  0  0
  4  5  2  0  0  0  0
  5  6  1  0  0  0  0
  6 20  1  0  0  0  0
  6  7  1  0  0  0  0
  7  8  1  0  0  0  0
  8  9  2  0  0  0  0
  8 10  1  0  0  0  0
 10 11  1  0  0  0  0
 11 16  2  0  0  0  0
 11 12  1  0  0  0  0
 12 13  2  0  0  0  0
 13 14  1  0  0  0  0
 14 15  2  0  0  0  0
 15 16  1  0  0  0  0
  6 17  1  0  0  0  0
 17 18  1  0  0  0  0
 18 19  1  0  0  0  0
 19 20  1  0  0  0  0
  5 21  1  0  0  0  0
M  END
$$$$
NAU-LAT-ec9-1
  -OEChem-03232022352D

 22 24  0     0  0  0  0  0  0999 V2000
   -1.7292   -2.0025    0.0000 C   0  0  0  0  0  0  0  0  0  0  0  0
   -0.8639   -1.5013    0.0000 C   0  0  0  0  0  0  0  0  0  0  0  0
    0.0029   -2.0000    0.0000 O   0  0  0  0  0  0  0  0  0  0  0  0
   -0.8653   -0.5013    0.0000 N   0  0  0  0  0  0  0  0  0  0  0  0
    0.0000    0.0000    0.0000 C   0  0  0  0  0  0  0  0  0  0  0  0
    0.0000    1.0057    0.0000 C   0  0  0  0  0  0  0  0  0  0  0  0
    0.8680    1.5138    0.0000 C   0  0  0  0  0  0  0  0  0  0  0  0
    1.7374    1.0057    0.0000 C   0  0  0  0  0  0  0  0  0  0  0  0
    2.6052    1.5109    0.0000 O   0  0  0  0  0  0  0  0  0  0  0  0
    3.4774    1.0034    0.0000 C   0  0  0  0  0  0  0  0  0  0  0  0
    4.3446    1.5014    0.0000 C   0  0  0  0  0  0  0  0  0  0  0  0
    4.3440    2.5066    0.0000 C   0  0  0  0  0  0  0  0  0  0  0  0
    5.2112    3.0046    0.0000 C   0  0  0  0  0  0  0  0  0  0  0  0
    6.0790    2.5076    0.0000 C   0  0  0  0  0  0  0  0  0  0  0  0
    6.0796    1.5024    0.0000 C   0  0  0  0  0  0  0  0  0  0  0  0
    5.2124    0.9942    0.0000 C   0  0  0  0  0  0  0  0  0  0  0  0
    3.4761   -0.0036    0.0000 C   0  0  0  0  0  0  0  0  0  0  0  0
    4.3408   -0.5059    0.0000 O   0  0  0  0  0  0  0  0  0  0  0  0
    2.6026   -0.5032    0.0000 C   0  0  0  0  0  0  0  0  0  0  0  0
    2.5998   -1.5032    0.0000 O   0  0  0  0  0  0  0  0  0  0  0  0
    1.7360   -0.0012    0.0000 C   0  0  0  0  0  0  0  0  0  0  0  0
    0.8680   -0.4978    0.0000 C   0  0  0  0  0  0  0  0  0  0  0  0
  1  2  1  0  0  0  0
  2  3  2  0  0  0  0
  2  4  1  0  0  0  0
  4  5  1  0  0  0  0
  5 22  2  0  0  0  0
  5  6  1  0  0  0  0
  6  7  2  0  0  0  0
  7  8  1  0  0  0  0
  8 21  2  0  0  0  0
  8  9  1  0  0  0  0
  9 10  1  0  0  0  0
 10 11  1  0  0  0  0
 11 16  2  0  0  0  0
 11 12  1  0  0  0  0
 12 13  2  0  0  0  0
 13 14  1  0  0  0  0
 14 15  2  0  0  0  0
 15 16  1  0  0  0  0
 10 17  2  0  0  0  0
 17 18  1  0  0  0  0
 17 19  1  0  0  0  0
 19 20  2  0  0  0  0
 19 21  1  0  0  0  0
 21 22  1  0  0  0  0
M  END
$$$$
NAU-LAT-ec9-2
  -OEChem-03232022352D

 21 23  0     0  0  0  0  0  0999 V2000
    4.2858    0.5024    0.0000 O   0  0  0  0  0  0  0  0  0  0  0  0
    3.2858    0.5023    0.0000 C   0  0  0  0  0  0  0  0  0  0  0  0
    2.6938    1.3169    0.0000 N   0  0  0  0  0  0  0  0  0  0  0  0
    1.7360    1.0058    0.0000 C   0  0  0  0  0  0  0  0  0  0  0  0
    1.7360   -0.0012    0.0000 C   0  0  0  0  0  0  0  0  0  0  0  0
    0.8680   -0.4978    0.0000 C   0  0  0  0  0  0  0  0  0  0  0  0
    0.0000    0.0000    0.0000 C   0  0  0  0  0  0  0  0  0  0  0  0
   -0.8653   -0.5013    0.0000 C   0  0  0  0  0  0  0  0  0  0  0  0
   -0.8610   -1.5013    0.0000 C   0  0  0  0  0  0  0  0  0  0  0  0
   -1.7308   -2.0051    0.0000 C   0  0  0  0  0  0  0  0  0  0  0  0
   -2.6049   -1.5090    0.0000 N   0  0  0  0  0  0  0  0  0  0  0  0
   -2.6004   -0.5038    0.0000 C   0  0  0  0  0  0  0  0  0  0  0  0
   -1.7306    0.0000    0.0000 C   0  0  0  0  0  0  0  0  0  0  0  0
   -0.0000    1.0058    0.0000 C   0  0  0  0  0  0  0  0  0  0  0  0
    0.8680    1.5138    0.0000 C   0  0  0  0  0  0  0  0  0  0  0  0
    0.8680    2.5138    0.0000 C   0  0  0  0  0  0  0  0  0  0  0  0
   -0.1320    2.5138    0.0000 F   0  0  0  0  0  0  0  0  0  0  0  0
    1.8680    2.5138    0.0000 F   0  0  0  0  0  0  0  0  0  0  0  0
    0.8680    3.5138    0.0000 F   0  0  0  0  0  0  0  0  0  0  0  0
    2.6938   -0.3125    0.0000 C   0  0  0  0  0  0  0  0  0  0  0  0
    3.0028   -1.2636    0.0000 O   0  0  0  0  0  0  0  0  0  0  0  0
  1  2  2  0  0  0  0
  2 20  1  0  0  0  0
  2  3  1  0  0  0  0
  3  4  1  0  0  0  0
  4 15  2  0  0  0  0
  4  5  1  0  0  0  0
  5  6  2  0  0  0  0
  6  7  1  0  0  0  0
  7  8  1  0  0  0  0
  8 13  2  0  0  0  0
  8  9  1  0  0  0  0
  9 10  2  0  0  0  0
 10 11  1  0  0  0  0
 11 12  2  0  0  0  0
 12 13  1  0  0  0  0
  7 14  2  0  0  0  0
 14 15  1  0  0  0  0
 15 16  1  0  0  0  0
 16 17  1  0  0  0  0
 16 18  1  0  0  0  0
 16 19  1  0  0  0  0
  5 20  1  0  0  0  0
 20 21  2  0  0  0  0
M  END
$$$$
NAU-LAT-ec9-3
  -OEChem-03232022352D

 26 29  0     0  0  0  0  0  0999 V2000
   -3.4735   -5.0007    0.0000 C   0  0  0  0  0  0  0  0  0  0  0  0
   -2.6072   -4.5012    0.0000 N   0  0  0  0  0  0  0  0  0  0  0  0
   -1.7340   -4.9991    0.0000 C   0  0  0  0  0  0  0  0  0  0  0  0
   -0.8632   -4.4969    0.0000 C   0  0  0  0  0  0  0  0  0  0  0  0
   -0.8656   -3.4969    0.0000 N   0  0  0  0  0  0  0  0  0  0  0  0
    0.0007   -2.9973    0.0000 C   0  0  0  0  0  0  0  0  0  0  0  0
    0.8664   -3.4978    0.0000 O   0  0  0  0  0  0  0  0  0  0  0  0
    0.0012   -1.9973    0.0000 C   0  0  0  0  0  0  0  0  0  0  0  0
    0.8675   -1.4978    0.0000 O   0  0  0  0  0  0  0  0  0  0  0  0
    0.8680   -0.4978    0.0000 C   0  0  0  0  0  0  0  0  0  0  0  0
    0.0000    0.0000    0.0000 C   0  0  0  0  0  0  0  0  0  0  0  0
   -0.0000    1.0058    0.0000 C   0  0  0  0  0  0  0  0  0  0  0  0
    0.8680    1.5138    0.0000 C   0  0  0  0  0  0  0  0  0  0  0  0
    1.7360    1.0058    0.0000 C   0  0  0  0  0  0  0  0  0  0  0  0
    1.7360   -0.0012    0.0000 C   0  0  0  0  0  0  0  0  0  0  0  0
    2.6938   -0.3126    0.0000 C   0  0  0  0  0  0  0  0  0  0  0  0
    3.2858    0.5021    0.0000 N   0  0  0  0  0  0  0  0  0  0  0  0
    2.6939    1.3169    0.0000 N   0  0  0  0  0  0  0  0  0  0  0  0
    3.0030    2.2679    0.0000 C   0  0  0  0  0  0  0  0  0  0  0  0
    2.3283    3.0130    0.0000 C   0  0  0  0  0  0  0  0  0  0  0  0
    2.6374    3.9641    0.0000 C   0  0  0  0  0  0  0  0  0  0  0  0
    3.6143    4.1776    0.0000 C   0  0  0  0  0  0  0  0  0  0  0  0
    4.2891    3.4325    0.0000 C   0  0  0  0  0  0  0  0  0  0  0  0
    3.9868    2.4739    0.0000 C   0  0  0  0  0  0  0  0  0  0  0  0
   -1.7299   -2.9939    0.0000 C   0  0  0  0  0  0  0  0  0  0  0  0
   -2.6007   -3.4961    0.0000 C   0  0  0  0  0  0  0  0  0  0  0  0
  1  2  1  0  0  0  0
  2 26  1  0  0  0  0
  2  3  1  0  0  0  0
  3  4  1  0  0  0  0
  4  5  1  0  0  0  0
  5  6  1  0  0  0  0
  6  7  2  0  0  0  0
  6  8  1  0  0  0  0
  8  9  1  0  0  0  0
  9 10  1  0  0  0  0
 10 15  2  0  0  0  0
 10 11  1  0  0  0  0
 11 12  2  0  0  0  0
 12 13  1  0  0  0  0
 13 14  2  0  0  0  0
 14 18  1  0  0  0  0
 14 15  1  0  0  0  0
 15 16  1  0  0  0  0
 16 17  2  0  0  0  0
 17 18  1  0  0  0  0
 18 19  1  0  0  0  0
 19 24  2  0  0  0  0
 19 20  1  0  0  0  0
 20 21  2  0  0  0  0
 21 22  1  0  0  0  0
 22 23  2  0  0  0  0
 23 24  1  0  0  0  0
  5 25  1  0  0  0  0
 25 26  1  0  0  0  0
M  END
$$$$
NAU-LAT-ec9-4
  -OEChem-03232022352D

 28 31  0     0  0  0  0  0  0999 V2000
    3.0028   -1.2636    0.0000 O   0  0  0  0  0  0  0  0  0  0  0  0
    2.6938   -0.3125    0.0000 C   0  0  0  0  0  0  0  0  0  0  0  0
    3.2858    0.5023    0.0000 C   0  0  0  0  0  0  0  0  0  0  0  0
    4.2858    0.5024    0.0000 O   0  0  0  0  0  0  0  0  0  0  0  0
    2.6938    1.3169    0.0000 N   0  0  0  0  0  0  0  0  0  0  0  0
    3.0028    2.2680    0.0000 C   0  0  0  0  0  0  0  0  0  0  0  0
    2.3337    3.0111    0.0000 C   0  0  0  0  0  0  0  0  0  0  0  0
    2.6427    3.9622    0.0000 N   0  0  0  0  0  0  0  0  0  0  0  0
    2.0537    4.7760    0.0000 N   0  0  0  0  0  0  0  0  0  0  0  0
    2.6456    5.5840    0.0000 N   0  0  0  0  0  0  0  0  0  0  0  0
    3.5976    5.2731    0.0000 N   0  0  0  0  0  0  0  0  0  0  0  0
    3.5935    4.2731    0.0000 C   0  0  0  0  0  0  0  0  0  0  0  0
    4.4019    3.6845    0.0000 S   0  0  0  0  0  0  0  0  0  0  0  0
    4.9905    4.4928    0.0000 O   0  0  0  0  0  0  0  0  0  0  0  0
    3.8132    2.8761    0.0000 O   0  0  0  0  0  0  0  0  0  0  0  0
    5.2102    3.0958    0.0000 C   0  0  0  0  0  0  0  0  0  0  0  0
    6.1242    3.5015    0.0000 C   0  0  0  0  0  0  0  0  0  0  0  0
    6.2275    4.5014    0.0000 C   0  0  0  0  0  0  0  0  0  0  0  0
    7.1415    4.9072    0.0000 C   0  0  0  0  0  0  0  0  0  0  0  0
    7.9533    4.3232    0.0000 C   0  0  0  0  0  0  0  0  0  0  0  0
    7.8501    3.3233    0.0000 C   0  0  0  0  0  0  0  0  0  0  0  0
    6.9350    2.9074    0.0000 C   0  0  0  0  0  0  0  0  0  0  0  0
    1.7360    1.0058    0.0000 C   0  0  0  0  0  0  0  0  0  0  0  0
    0.8680    1.5138    0.0000 C   0  0  0  0  0  0  0  0  0  0  0  0
    0.0000    1.0058    0.0000 C   0  0  0  0  0  0  0  0  0  0  0  0
    0.0000    0.0000    0.0000 C   0  0  0  0  0  0  0  0  0  0  0  0
    0.8680   -0.4978    0.0000 C   0  0  0  0  0  0  0  0  0  0  0  0
    1.7360   -0.0012    0.0000 C   0  0  0  0  0  0  0  0  0  0  0  0
  1  2  2  0  0  0  0
  2 28  1  0  0  0  0
  2  3  1  0  0  0  0
  3  4  2  0  0  0  0
  3  5  1  0  0  0  0
  5  6  1  0  0  0  0
  6  7  1  0  0  0  0
  7  8  1  0  0  0  0
  8 12  1  0  0  0  0
  8  9  1  0  0  0  0
  9 10  2  0  0  0  0
 10 11  1  0  0  0  0
 11 12  2  0  0  0  0
 12 13  1  0  0  0  0
 13 14  2  0  0  0  0
 13 15  2  0  0  0  0
 13 16  1  0  0  0  0
 16 17  1  0  0  0  0
 17 22  2  0  0  0  0
 17 18  1  0  0  0  0
 18 19  2  0  0  0  0
 19 20  1  0  0  0  0
 20 21  2  0  0  0  0
 21 22  1  0  0  0  0
  5 23  1  0  0  0  0
 23 28  2  0  0  0  0
 23 24  1  0  0  0  0
 24 25  2  0  0  0  0
 25 26  1  0  0  0  0
 26 27  2  0  0  0  0
 27 28  1  0  0  0  0
M  END
$$$$
NAU-LAT-ec9-5
  -OEChem-03232022352D

 23 26  0     1  0  0  0  0  0999 V2000
    5.0358    0.5024    0.0000 O   0  0  0  0  0  0  0  0  0  0  0  0
    3.2858    0.5023    0.0000 C   0  0  0  0  0  0  0  0  0  0  0  0
    2.6938    1.3169    0.0000 N   0  0  0  0  0  0  0  0  0  0  0  0
    1.7360    1.0058    0.0000 C   0  0  0  0  0  0  0  0  0  0  0  0
    0.8680    1.5138    0.0000 C   0  0  0  0  0  0  0  0  0  0  0  0
    0.0000    1.0058    0.0000 C   0  0  0  0  0  0  0  0  0  0  0  0
    0.0000    0.0000    0.0000 C   0  0  0  0  0  0  0  0  0  0  0  0
    0.8680   -0.4978    0.0000 C   0  0  0  0  0  0  0  0  0  0  0  0
    1.7360   -0.0012    0.0000 C   0  0  0  0  0  0  0  0  0  0  0  0
    2.6938   -0.3125    0.0000 C   0  0  3  0  0  0  0  0  0  0  0  0
    3.5598   -0.8125    0.0000 C   0  0  0  0  0  0  0  0  0  0  0  0
    4.4289   -0.3074    0.0000 C   0  0  0  0  0  0  0  0  0  0  0  0
    5.2949   -0.8074    0.0000 C   0  0  0  0  0  0  0  0  0  0  0  0
    5.3007   -1.8074    0.0000 C   0  0  0  0  0  0  0  0  0  0  0  0
    4.4317   -2.3126    0.0000 C   0  0  0  0  0  0  0  0  0  0  0  0
    3.5568   -1.8177    0.0000 C   0  0  0  0  0  0  0  0  0  0  0  0
    1.9819   -1.9112    0.0000 C   0  0  0  0  0  0  0  0  0  0  0  0
    2.5685   -2.7211    0.0000 C   0  0  0  0  0  0  0  0  0  0  0  0
    2.1657   -3.6364    0.0000 C   0  0  0  0  0  0  0  0  0  0  0  0
    1.1661   -3.7429    0.0000 C   0  0  0  0  0  0  0  0  0  0  0  0
    0.5694   -2.9340    0.0000 C   0  0  0  0  0  0  0  0  0  0  0  0
    0.9824   -2.0176    0.0000 C   0  0  0  0  0  0  0  0  0  0  0  0
    0.3958   -1.2077    0.0000 O   0  0  0  0  0  0  0  0  0  0  0  0
  1  2  2  0  0  0  0
  2 10  1  0  0  0  0
  2  3  1  0  0  0  0
  3  4  1  0  0  0  0
  4  9  2  0  0  0  0
  4  5  1  0  0  0  0
  5  6  2  0  0  0  0
  6  7  1  0  0  0  0
  7  8  2  0  0  0  0
  8  9  1  0  0  0  0
  9 10  1  0  0  0  0
 10 11  1  0  0  0  0
 11 16  2  0  0  0  0
 11 12  1  0  0  0  0
 12 13  2  0  0  0  0
 13 14  1  0  0  0  0
 14 15  2  0  0  0  0
 15 16  1  0  0  0  0
 10 17  1  0  0  0  0
 17 22  2  0  0  0  0
 17 18  1  0  0  0  0
 18 19  2  0  0  0  0
 19 20  1  0  0  0  0
 20 21  2  0  0  0  0
 21 22  1  0  0  0  0
 22 23  1  0  0  0  0
M  END
$$$$
NAU-LAT-ec9-6
  -OEChem-03232022352D

 31 35  0     0  0  0  0  0  0999 V2000
    7.8212   -2.5004    0.0000 O   0  0  0  0  0  0  0  0  0  0  0  0
    6.9101   -2.0880    0.0000 C   0  0  0  0  0  0  0  0  0  0  0  0
    6.0975   -2.6709    0.0000 O   0  0  0  0  0  0  0  0  0  0  0  0
    6.8117   -1.0929    0.0000 C   0  0  0  0  0  0  0  0  0  0  0  0
    5.8947   -0.6811    0.0000 C   0  0  0  0  0  0  0  0  0  0  0  0
    5.7962    0.3140    0.0000 C   0  0  0  0  0  0  0  0  0  0  0  0
    6.6054    0.9016    0.0000 C   0  0  0  0  0  0  0  0  0  0  0  0
    6.5026    1.8963    0.0000 C   0  0  0  0  0  0  0  0  0  0  0  0
    5.5898    2.3046    0.0000 N   0  0  0  0  0  0  0  0  0  0  0  0
    4.7222    1.8043    0.0000 C   0  0  0  0  0  0  0  0  0  0  0  0
    3.9812    2.4757    0.0000 C   0  0  0  0  0  0  0  0  0  0  0  0
    3.0030    2.2679    0.0000 C   0  0  0  0  0  0  0  0  0  0  0  0
    2.6939    1.3169    0.0000 N   0  0  0  0  0  0  0  0  0  0  0  0
    3.2858    0.5021    0.0000 N   0  0  0  0  0  0  0  0  0  0  0  0
    2.6938   -0.3126    0.0000 C   0  0  0  0  0  0  0  0  0  0  0  0
    3.0027   -1.2637    0.0000 C   0  0  0  0  0  0  0  0  0  0  0  0
    3.9865   -1.4699    0.0000 C   0  0  0  0  0  0  0  0  0  0  0  0
    4.2955   -2.4210    0.0000 C   0  0  0  0  0  0  0  0  0  0  0  0
    3.6306   -3.1680    0.0000 C   0  0  0  0  0  0  0  0  0  0  0  0
    2.6468   -2.9618    0.0000 C   0  0  0  0  0  0  0  0  0  0  0  0
    2.3278   -2.0086    0.0000 C   0  0  0  0  0  0  0  0  0  0  0  0
    1.7360   -0.0012    0.0000 C   0  0  0  0  0  0  0  0  0  0  0  0
    0.8680   -0.4978    0.0000 C   0  0  0  0  0  0  0  0  0  0  0  0
    0.0000    0.0000    0.0000 C   0  0  0  0  0  0  0  0  0  0  0  0
   -0.0000    1.0058    0.0000 C   0  0  0  0  0  0  0  0  0  0  0  0
    0.8680    1.5138    0.0000 C   0  0  0  0  0  0  0  0  0  0  0  0
    1.7360    1.0058    0.0000 C   0  0  0  0  0  0  0  0  0  0  0  0
    4.3854    3.3908    0.0000 N   0  0  0  0  0  0  0  0  0  0  0  0
    5.3844    3.2849    0.0000 N   0  0  0  0  0  0  0  0  0  0  0  0
    7.5224    0.4899    0.0000 C   0  0  0  0  0  0  0  0  0  0  0  0
    7.6302   -0.5095    0.0000 C   0  0  0  0  0  0  0  0  0  0  0  0
  1  2  2  0  0  0  0
  2  3  1  0  0  0  0
  2  4  1  0  0  0  0
  4 31  2  0  0  0  0
  4  5  1  0  0  0  0
  5  6  2  0  0  0  0
  6  7  1  0  0  0  0
  7  8  1  0  0  0  0
  8  9  1  0  0  0  0
  9 29  1  0  0  0  0
  9 10  1  0  0  0  0
 10 11  2  0  0  0  0
 11 12  1  0  0  0  0
 12 13  1  0  0  0  0
 13 27  1  0  0  0  0
 13 14  1  0  0  0  0
 14 15  2  0  0  0  0
 15 16  1  0  0  0  0
 16 21  2  0  0  0  0
 16 17  1  0  0  0  0
 17 18  2  0  0  0  0
 18 19  1  0  0  0  0
 19 20  2  0  0  0  0
 20 21  1  0  0  0  0
 15 22  1  0  0  0  0
 22 27  2  0  0  0  0
 22 23  1  0  0  0  0
 23 24  2  0  0  0  0
 24 25  1  0  0  0  0
 25 26  2  0  0  0  0
 26 27  1  0  0  0  0
 11 28  1  0  0  0  0
 28 29  2  0  0  0  0
  7 30  2  0  0  0  0
 30 31  1  0  0  0  0
M  END
$$$$
NAU-LAT-ec9-7
  -OEChem-03232022352D

 31 36  0     0  0  0  0  0  0999 V2000
   -2.0467   -2.4231    0.0000 O   0  0  0  0  0  0  0  0  0  0  0  0
   -2.2533   -1.4447    0.0000 C   0  0  0  0  0  0  0  0  0  0  0  0
   -1.5832   -0.7024    0.0000 N   0  0  0  0  0  0  0  0  0  0  0  0
   -0.5888   -0.8082    0.0000 C   0  0  0  0  0  0  0  0  0  0  0  0
    0.0000    0.0000    0.0000 C   0  0  0  0  0  0  0  0  0  0  0  0
   -0.3065    0.9518    0.0000 C   0  0  0  0  0  0  0  0  0  0  0  0
    0.5008    1.5426    0.0000 N   0  0  0  0  0  0  0  0  0  0  0  0
    0.4993    2.5426    0.0000 C   0  0  0  0  0  0  0  0  0  0  0  0
   -0.3675    3.0413    0.0000 C   0  0  0  0  0  0  0  0  0  0  0  0
   -1.2358    2.5348    0.0000 C   0  0  0  0  0  0  0  0  0  0  0  0
   -2.1026    3.0334    0.0000 C   0  0  0  0  0  0  0  0  0  0  0  0
   -2.1100    4.0334    0.0000 C   0  0  0  0  0  0  0  0  0  0  0  0
   -1.2417    4.5399    0.0000 C   0  0  0  0  0  0  0  0  0  0  0  0
   -0.3661    4.0464    0.0000 C   0  0  0  0  0  0  0  0  0  0  0  0
    1.3133    0.9518    0.0000 N   0  0  0  0  0  0  0  0  0  0  0  0
    1.0015    0.0000    0.0000 N   0  0  0  0  0  0  0  0  0  0  0  0
   -2.0821    0.1643    0.0000 C   0  0  0  0  0  0  0  0  0  0  0  0
   -1.7718    1.1149    0.0000 C   0  0  0  0  0  0  0  0  0  0  0  0
   -2.4400    1.8589    0.0000 C   0  0  0  0  0  0  0  0  0  0  0  0
   -3.4184    1.6523    0.0000 C   0  0  0  0  0  0  0  0  0  0  0  0
   -3.7287    0.7017    0.0000 C   0  0  0  0  0  0  0  0  0  0  0  0
   -3.0605   -0.0424    0.0000 C   0  0  0  0  0  0  0  0  0  0  0  0
   -3.1663   -1.0367    0.0000 C   0  0  0  0  0  0  0  0  0  0  0  0
   -4.0794   -0.6288    0.0000 O   0  0  0  0  0  0  0  0  0  0  0  0
   -4.7495   -1.3711    0.0000 C   0  0  0  0  0  0  0  0  0  0  0  0
   -5.7495   -1.3698    0.0000 C   0  0  0  0  0  0  0  0  0  0  0  0
   -6.2506   -2.2351    0.0000 C   0  0  0  0  0  0  0  0  0  0  0  0
   -5.7517   -3.1018    0.0000 C   0  0  0  0  0  0  0  0  0  0  0  0
   -4.7517   -3.1031    0.0000 C   0  0  0  0  0  0  0  0  0  0  0  0
   -4.2506   -2.2378    0.0000 C   0  0  0  0  0  0  0  0  0  0  0  0
   -3.2722   -2.0311    0.0000 O   0  0  0  0  0  0  0  0  0  0  0  0
  1  2  2  0  0  0  0
  2 23  1  0  0  0  0
  2  3  1  0  0  0  0
  3  4  1  0  0  0  0
  4  5  1  0  0  0  0
  5 16  1  0  0  0  0
  5  6  2  0  0  0  0
  6  7  1  0  0  0  0
  7  8  1  0  0  0  0
  8  9  1  0  0  0  0
  9 14  2  0  0  0  0
  9 10  1  0  0  0  0
 10 11  2  0  0  0  0
 11 12  1  0  0  0  0
 12 13  2  0  0  0  0
 13 14  1  0  0  0  0
  7 15  1  0  0  0  0
 15 16  2  0  0  0  0
  3 17  1  0  0  0  0
 17 22  2  0  0  0  0
 17 18  1  0  0  0  0
 18 19  2  0  0  0  0
 19 20  1  0  0  0  0
 20 21  2  0  0  0  0
 21 22  1  0  0  0  0
 22 23  1  0  0  0  0
 23 31  1  0  0  0  0
 23 24  1  0  0  0  0
 24 25  1  0  0  0  0
 25 30  2  0  0  0  0
 25 26  1  0  0  0  0
 26 27  2  0  0  0  0
 27 28  1  0  0  0  0
 28 29  2  0  0  0  0
 29 30  1  0  0  0  0
 30 31  1  0  0  0  0
M  END
$$$$
JOH-MSK-ec6-1
  -OEChem-03232022352D

 20 21  0     1  0  0  0  0  0999 V2000
   -1.7320   -0.0025    0.0000 C   0  0  0  0  0  0  0  0  0  0  0  0
   -0.8653   -0.5013    0.0000 O   0  0  0  0  0  0  0  0  0  0  0  0
    0.0000    0.0000    0.0000 C   0  0  0  0  0  0  0  0  0  0  0  0
    0.8680   -0.4978    0.0000 C   0  0  0  0  0  0  0  0  0  0  0  0
    1.7360   -0.0012    0.0000 C   0  0  0  0  0  0  0  0  0  0  0  0
    2.6938   -0.3125    0.0000 C   0  0  0  0  0  0  0  0  0  0  0  0
    3.0028   -1.2636    0.0000 C   0  0  1  0  0  0  0  0  0  0  0  0
    3.9538   -0.9546    0.0000 H   0  0  0  0  0  0  0  0  0  0  0  0
    2.0517   -1.5725    0.0000 C   0  0  0  0  0  0  0  0  0  0  0  0
    3.3117   -2.2146    0.0000 C   0  0  0  0  0  0  0  0  0  0  0  0
    4.2899   -2.4226    0.0000 N   0  0  0  0  0  0  0  0  0  0  0  0
    4.5989   -3.3737    0.0000 C   0  0  0  0  0  0  0  0  0  0  0  0
    5.5770   -3.5816    0.0000 C   0  0  0  0  0  0  0  0  0  0  0  0
    3.9297   -4.1168    0.0000 O   0  0  0  0  0  0  0  0  0  0  0  0
    3.2858    0.5023    0.0000 C   0  0  0  0  0  0  0  0  0  0  0  0
    2.6938    1.3169    0.0000 N   0  0  0  0  0  0  0  0  0  0  0  0
    1.7360    1.0058    0.0000 C   0  0  0  0  0  0  0  0  0  0  0  0
    0.8680    1.5138    0.0000 C   0  0  0  0  0  0  0  0  0  0  0  0
    0.0000    1.0058    0.0000 C   0  0  0  0  0  0  0  0  0  0  0  0
   -0.8675    1.5032    0.0000 Cl  0  0  0  0  0  0  0  0  0  0  0  0
  1  2  1  0  0  0  0
  2  3  1  0  0  0  0
  3 19  2  0  0  0  0
  3  4  1  0  0  0  0
  4  5  2  0  0  0  0
  5 17  1  0  0  0  0
  5  6  1  0  0  0  0
  6  7  1  0  0  0  0
  7  8  1  1  0  0  0
  7  9  1  0  0  0  0
  7 10  1  0  0  0  0
 10 11  1  0  0  0  0
 11 12  1  0  0  0  0
 12 13  1  0  0  0  0
 12 14  2  0  0  0  0
  6 15  2  0  0  0  0
 15 16  1  0  0  0  0
 16 17  1  0  0  0  0
 17 18  2  0  0  0  0
 18 19  1  0  0  0  0
 19 20  1  0  0  0  0
M  END
$$$$
JOH-MSK-ec6-2
  -OEChem-03232022352D

 20 22  0     1  0  0  0  0  0999 V2000
   -0.9217   -5.6063    0.0000 C   0  0  0  0  0  0  0  0  0  0  0  0
   -0.4216   -4.7403    0.0000 C   0  0  0  0  0  0  0  0  0  0  0  0
   -0.9215   -3.8742    0.0000 C   0  0  0  0  0  0  0  0  0  0  0  0
   -1.9215   -3.8741    0.0000 O   0  0  0  0  0  0  0  0  0  0  0  0
   -0.4215   -3.0082    0.0000 N   0  0  0  0  0  0  0  0  0  0  0  0
   -0.9214   -2.1422    0.0000 C   0  0  0  0  0  0  0  0  0  0  0  0
   -0.4214   -1.2762    0.0000 C   0  0  0  0  0  0  0  0  0  0  0  0
   -0.9213   -0.4101    0.0000 C   0  0  2  0  0  0  0  0  0  0  0  0
   -1.7304   -0.9978    0.0000 H   0  0  0  0  0  0  0  0  0  0  0  0
    0.0000    0.0000    0.0000 C   0  0  0  0  0  0  0  0  0  0  0  0
   -0.1055    1.0028    0.0000 C   0  0  0  0  0  0  0  0  0  0  0  0
   -1.0917    1.2125    0.0000 C   0  0  0  0  0  0  0  0  0  0  0  0
   -1.5931    2.0865    0.0000 C   0  0  0  0  0  0  0  0  0  0  0  0
   -2.6014    2.0865    0.0000 C   0  0  0  0  0  0  0  0  0  0  0  0
   -3.1084    1.2125    0.0000 C   0  0  0  0  0  0  0  0  0  0  0  0
   -2.6042    0.3489    0.0000 C   0  0  0  0  0  0  0  0  0  0  0  0
   -1.5959    0.3392    0.0000 C   0  0  0  0  0  0  0  0  0  0  0  0
   -3.2698   -0.3975    0.0000 C   0  0  0  0  0  0  0  0  0  0  0  0
   -4.1854    0.0047    0.0000 C   0  0  0  0  0  0  0  0  0  0  0  0
   -4.0855    0.9998    0.0000 O   0  0  0  0  0  0  0  0  0  0  0  0
  1  2  1  0  0  0  0
  2  3  1  0  0  0  0
  3  4  2  0  0  0  0
  3  5  1  0  0  0  0
  5  6  1  0  0  0  0
  6  7  1  0  0  0  0
  7  8  1  0  0  0  0
  8  9  1  6  0  0  0
  8 17  1  0  0  0  0
  8 10  1  0  0  0  0
 10 11  1  0  0  0  0
 11 12  1  0  0  0  0
 12 17  2  0  0  0  0
 12 13  1  0  0  0  0
 13 14  2  0  0  0  0
 14 15  1  0  0  0  0
 15 20  1  0  0  0  0
 15 16  2  0  0  0  0
 16 17  1  0  0  0  0
 16 18  1  0  0  0  0
 18 19  1  0  0  0  0
 19 20  1  0  0  0  0
M  END
$$$$
JOH-MSK-ec6-3
  -OEChem-03232022352D

 18 19  0     0  0  0  0  0  0999 V2000
   -0.8704    2.5032    0.0000 C   0  0  0  0  0  0  0  0  0  0  0  0
   -0.8675    1.5032    0.0000 O   0  0  0  0  0  0  0  0  0  0  0  0
    0.0000    1.0057    0.0000 C   0  0  0  0  0  0  0  0  0  0  0  0
    0.0000    0.0000    0.0000 C   0  0  0  0  0  0  0  0  0  0  0  0
    0.8679   -0.4978    0.0000 C   0  0  0  0  0  0  0  0  0  0  0  0
    1.7371   -0.0000    0.0000 C   0  0  0  0  0  0  0  0  0  0  0  0
    2.6038   -0.4989    0.0000 C   0  0  0  0  0  0  0  0  0  0  0  0
    3.4748    0.0022    0.0000 C   0  0  0  0  0  0  0  0  0  0  0  0
    3.4735    1.0079    0.0000 C   0  0  0  0  0  0  0  0  0  0  0  0
    2.6012    1.5124    0.0000 C   0  0  0  0  0  0  0  0  0  0  0  0
    2.5985    2.5124    0.0000 C   0  0  0  0  0  0  0  0  0  0  0  0
    1.7312    3.0101    0.0000 C   0  0  0  0  0  0  0  0  0  0  0  0
    1.7285    4.0101    0.0000 N   0  0  0  0  0  0  0  0  0  0  0  0
    0.8611    4.5078    0.0000 C   0  0  0  0  0  0  0  0  0  0  0  0
    0.8585    5.5078    0.0000 C   0  0  0  0  0  0  0  0  0  0  0  0
   -0.0035    4.0055    0.0000 O   0  0  0  0  0  0  0  0  0  0  0  0
    1.7358    1.0057    0.0000 C   0  0  0  0  0  0  0  0  0  0  0  0
    0.8679    1.5135    0.0000 C   0  0  0  0  0  0  0  0  0  0  0  0
  1  2  1  0  0  0  0
  2  3  1  0  0  0  0
  3 18  2  0  0  0  0
  3  4  1  0  0  0  0
  4  5  2  0  0  0  0
  5  6  1  0  0  0  0
  6 17  2  0  0  0  0
  6  7  1  0  0  0  0
  7  8  2  0  0  0  0
  8  9  1  0  0  0  0
  9 10  2  0  0  0  0
 10 11  1  0  0  0  0
 11 12  1  0  0  0  0
 12 13  1  0  0  0  0
 13 14  1  0  0  0  0
 14 15  1  0  0  0  0
 14 16  2  0  0  0  0
 10 17  1  0  0  0  0
 17 18  1  0  0  0  0
M  END
$$$$
JOH-MSK-ec6-4
  -OEChem-03232022352D

 20 22  0     1  0  0  0  0  0999 V2000
    5.1073   -4.3897    0.0000 C   0  0  0  0  0  0  0  0  0  0  0  0
    4.4644   -3.6238    0.0000 C   0  0  0  0  0  0  0  0  0  0  0  0
    3.4796   -3.7977    0.0000 C   0  0  0  0  0  0  0  0  0  0  0  0
    3.1378   -4.7374    0.0000 O   0  0  0  0  0  0  0  0  0  0  0  0
    2.8367   -3.0318    0.0000 N   0  0  0  0  0  0  0  0  0  0  0  0
    1.8519   -3.2056    0.0000 C   0  0  0  0  0  0  0  0  0  0  0  0
    1.2090   -2.4397    0.0000 C   0  0  2  0  0  0  0  0  0  0  0  0
    0.3427   -2.9392    0.0000 H   0  0  0  0  0  0  0  0  0  0  0  0
    1.8523   -1.6716    0.0000 C   0  0  0  0  0  0  0  0  0  0  0  0
    0.8675   -1.4978    0.0000 C   0  0  1  0  0  0  0  0  0  0  0  0
   -0.1175   -1.6706    0.0000 H   0  0  0  0  0  0  0  0  0  0  0  0
    0.8680   -0.4978    0.0000 C   0  0  0  0  0  0  0  0  0  0  0  0
    0.0000    0.0000    0.0000 C   0  0  0  0  0  0  0  0  0  0  0  0
   -0.0000    1.0058    0.0000 C   0  0  0  0  0  0  0  0  0  0  0  0
    0.8680    1.5138    0.0000 C   0  0  0  0  0  0  0  0  0  0  0  0
    1.7360    1.0058    0.0000 C   0  0  0  0  0  0  0  0  0  0  0  0
    1.7360   -0.0012    0.0000 C   0  0  0  0  0  0  0  0  0  0  0  0
    2.6938   -0.3125    0.0000 C   0  0  0  0  0  0  0  0  0  0  0  0
    3.2858    0.5023    0.0000 C   0  0  0  0  0  0  0  0  0  0  0  0
    2.6938    1.3169    0.0000 O   0  0  0  0  0  0  0  0  0  0  0  0
  1  2  1  0  0  0  0
  2  3  1  0  0  0  0
  3  4  2  0  0  0  0
  3  5  1  0  0  0  0
  5  6  1  0  0  0  0
  7  6  1  1  0  0  0
  7  8  1  6  0  0  0
  7 10  1  0  0  0  0
  7  9  1  0  0  0  0
  9 10  1  0  0  0  0
 10 11  1  1  0  0  0
 10 12  1  6  0  0  0
 12 17  2  0  0  0  0
 12 13  1  0  0  0  0
 13 14  2  0  0  0  0
 14 15  1  0  0  0  0
 15 16  2  0  0  0  0
 16 20  1  0  0  0  0
 16 17  1  0  0  0  0
 17 18  1  0  0  0  0
 18 19  1  0  0  0  0
 19 20  1  0  0  0  0
M  END
$$$$
WAR-XCH-eb7-1
  -OEChem-03232022352D

 18 19  0     0  0  0  0  0  0999 V2000
    0.0024   -5.0166    0.0000 N   0  0  0  0  0  0  0  0  0  0  0  0
    0.8662   -4.5127    0.0000 C   0  0  0  0  0  0  0  0  0  0  0  0
    1.7299   -4.0089    0.0000 C   0  0  0  0  0  0  0  0  0  0  0  0
    2.6012   -4.5102    0.0000 C   0  0  0  0  0  0  0  0  0  0  0  0
    3.4651   -4.0063    0.0000 C   0  0  0  0  0  0  0  0  0  0  0  0
    3.4665   -3.0063    0.0000 C   0  0  0  0  0  0  0  0  0  0  0  0
    2.5952   -2.5050    0.0000 C   0  0  0  0  0  0  0  0  0  0  0  0
    2.5966   -1.5050    0.0000 N   0  0  0  0  0  0  0  0  0  0  0  0
    1.7313   -1.0038    0.0000 C   0  0  0  0  0  0  0  0  0  0  0  0
    0.8646   -1.5025    0.0000 O   0  0  0  0  0  0  0  0  0  0  0  0
    1.7328   -0.0038    0.0000 N   0  0  0  0  0  0  0  0  0  0  0  0
    0.8675    0.4975    0.0000 C   0  0  0  0  0  0  0  0  0  0  0  0
    0.0000    0.0000    0.0000 C   0  0  0  0  0  0  0  0  0  0  0  0
   -0.8675    0.4975    0.0000 C   0  0  0  0  0  0  0  0  0  0  0  0
   -0.8675    1.5027    0.0000 C   0  0  0  0  0  0  0  0  0  0  0  0
    0.0000    2.0104    0.0000 N   0  0  0  0  0  0  0  0  0  0  0  0
    0.8675    1.5027    0.0000 C   0  0  0  0  0  0  0  0  0  0  0  0
    1.7225   -3.0037    0.0000 C   0  0  0  0  0  0  0  0  0  0  0  0
  1  2  3  0  0  0  0
  2  3  1  0  0  0  0
  3 18  2  0  0  0  0
  3  4  1  0  0  0  0
  4  5  2  0  0  0  0
  5  6  1  0  0  0  0
  6  7  2  0  0  0  0
  7  8  1  0  0  0  0
  8  9  1  0  0  0  0
  9 10  2  0  0  0  0
  9 11  1  0  0  0  0
 11 12  1  0  0  0  0
 12 17  2  0  0  0  0
 12 13  1  0  0  0  0
 13 14  2  0  0  0  0
 14 15  1  0  0  0  0
 15 16  2  0  0  0  0
 16 17  1  0  0  0  0
  7 18  1  0  0  0  0
M  END
$$$$
WAR-XCH-eb7-2
  -OEChem-03232022352D

 19 20  0     0  0  0  0  0  0999 V2000
    0.0024   -5.0166    0.0000 N   0  0  0  0  0  0  0  0  0  0  0  0
    0.8662   -4.5127    0.0000 C   0  0  0  0  0  0  0  0  0  0  0  0
    1.7299   -4.0089    0.0000 C   0  0  0  0  0  0  0  0  0  0  0  0
    2.6012   -4.5102    0.0000 C   0  0  0  0  0  0  0  0  0  0  0  0
    3.4651   -4.0063    0.0000 C   0  0  0  0  0  0  0  0  0  0  0  0
    4.3318   -4.5050    0.0000 Cl  0  0  0  0  0  0  0  0  0  0  0  0
    3.4665   -3.0063    0.0000 C   0  0  0  0  0  0  0  0  0  0  0  0
    2.5952   -2.5050    0.0000 C   0  0  0  0  0  0  0  0  0  0  0  0
    2.5966   -1.5050    0.0000 N   0  0  0  0  0  0  0  0  0  0  0  0
    1.7313   -1.0038    0.0000 C   0  0  0  0  0  0  0  0  0  0  0  0
    0.8646   -1.5025    0.0000 O   0  0  0  0  0  0  0  0  0  0  0  0
    1.7328   -0.0038    0.0000 N   0  0  0  0  0  0  0  0  0  0  0  0
    0.8675    0.4975    0.0000 C   0  0  0  0  0  0  0  0  0  0  0  0
    0.0000    0.0000    0.0000 C   0  0  0  0  0  0  0  0  0  0  0  0
   -0.8675    0.4975    0.0000 C   0  0  0  0  0  0  0  0  0  0  0  0
   -0.8675    1.5027    0.0000 C   0  0  0  0  0  0  0  0  0  0  0  0
    0.0000    2.0104    0.0000 N   0  0  0  0  0  0  0  0  0  0  0  0
    0.8675    1.5027    0.0000 C   0  0  0  0  0  0  0  0  0  0  0  0
    1.7225   -3.0037    0.0000 C   0  0  0  0  0  0  0  0  0  0  0  0
  1  2  3  0  0  0  0
  2  3  1  0  0  0  0
  3 19  2  0  0  0  0
  3  4  1  0  0  0  0
  4  5  2  0  0  0  0
  5  6  1  0  0  0  0
  5  7  1  0  0  0  0
  7  8  2  0  0  0  0
  8  9  1  0  0  0  0
  9 10  1  0  0  0  0
 10 11  2  0  0  0  0
 10 12  1  0  0  0  0
 12 13  1  0  0  0  0
 13 18  2  0  0  0  0
 13 14  1  0  0  0  0
 14 15  2  0  0  0  0
 15 16  1  0  0  0  0
 16 17  2  0  0  0  0
 17 18  1  0  0  0  0
  8 19  1  0  0  0  0
M  END
$$$$
WAR-XCH-eb7-3
  -OEChem-03232022352D

 18 19  0     0  0  0  0  0  0999 V2000
    0.8646   -1.5025    0.0000 O   0  0  0  0  0  0  0  0  0  0  0  0
    1.7313   -1.0038    0.0000 C   0  0  0  0  0  0  0  0  0  0  0  0
    1.7328   -0.0038    0.0000 N   0  0  0  0  0  0  0  0  0  0  0  0
    0.8675    0.4975    0.0000 C   0  0  0  0  0  0  0  0  0  0  0  0
    0.0000    0.0000    0.0000 C   0  0  0  0  0  0  0  0  0  0  0  0
   -0.8675    0.4975    0.0000 C   0  0  0  0  0  0  0  0  0  0  0  0
   -0.8675    1.5027    0.0000 C   0  0  0  0  0  0  0  0  0  0  0  0
    0.0000    2.0104    0.0000 N   0  0  0  0  0  0  0  0  0  0  0  0
    0.8675    1.5027    0.0000 C   0  0  0  0  0  0  0  0  0  0  0  0
    2.5966   -1.5050    0.0000 N   0  0  0  0  0  0  0  0  0  0  0  0
    2.5952   -2.5050    0.0000 C   0  0  0  0  0  0  0  0  0  0  0  0
    1.7225   -3.0038    0.0000 C   0  0  0  0  0  0  0  0  0  0  0  0
    1.7210   -4.0038    0.0000 C   0  0  0  0  0  0  0  0  0  0  0  0
    0.8527   -4.5000    0.0000 Cl  0  0  0  0  0  0  0  0  0  0  0  0
    2.5833   -4.5101    0.0000 C   0  0  0  0  0  0  0  0  0  0  0  0
    3.4561   -4.0114    0.0000 C   0  0  0  0  0  0  0  0  0  0  0  0
    4.3184   -4.5177    0.0000 Cl  0  0  0  0  0  0  0  0  0  0  0  0
    3.4664   -3.0063    0.0000 C   0  0  0  0  0  0  0  0  0  0  0  0
  1  2  2  0  0  0  0
  2  3  1  0  0  0  0
  3  4  1  0  0  0  0
  4  9  2  0  0  0  0
  4  5  1  0  0  0  0
  5  6  2  0  0  0  0
  6  7  1  0  0  0  0
  7  8  2  0  0  0  0
  8  9  1  0  0  0  0
  2 10  1  0  0  0  0
 10 11  1  0  0  0  0
 11 18  2  0  0  0  0
 11 12  1  0  0  0  0
 12 13  2  0  0  0  0
 13 14  1  0  0  0  0
 13 15  1  0  0  0  0
 15 16  2  0  0  0  0
 16 17  1  0  0  0  0
 16 18  1  0  0  0  0
M  END
$$$$
WAR-XCH-eb7-4
  -OEChem-03232022352D

 18 19  0     0  0  0  0  0  0999 V2000
    0.8646   -1.5025    0.0000 O   0  0  0  0  0  0  0  0  0  0  0  0
    1.7313   -1.0038    0.0000 C   0  0  0  0  0  0  0  0  0  0  0  0
    1.7328   -0.0038    0.0000 N   0  0  0  0  0  0  0  0  0  0  0  0
    0.8675    0.4975    0.0000 C   0  0  0  0  0  0  0  0  0  0  0  0
    0.0000    0.0000    0.0000 C   0  0  0  0  0  0  0  0  0  0  0  0
   -0.8675    0.4975    0.0000 C   0  0  0  0  0  0  0  0  0  0  0  0
   -0.8675    1.5027    0.0000 C   0  0  0  0  0  0  0  0  0  0  0  0
    0.0000    2.0104    0.0000 N   0  0  0  0  0  0  0  0  0  0  0  0
    0.8675    1.5027    0.0000 C   0  0  0  0  0  0  0  0  0  0  0  0
    2.5966   -1.5050    0.0000 N   0  0  0  0  0  0  0  0  0  0  0  0
    2.5952   -2.5050    0.0000 C   0  0  0  0  0  0  0  0  0  0  0  0
    1.7225   -3.0038    0.0000 C   0  0  0  0  0  0  0  0  0  0  0  0
    1.7210   -4.0038    0.0000 C   0  0  0  0  0  0  0  0  0  0  0  0
    0.8527   -4.5000    0.0000 O   0  0  0  0  0  0  0  0  0  0  0  0
    2.5833   -4.5101    0.0000 C   0  0  0  0  0  0  0  0  0  0  0  0
    3.4561   -4.0114    0.0000 C   0  0  0  0  0  0  0  0  0  0  0  0
    4.3184   -4.5177    0.0000 Cl  0  0  0  0  0  0  0  0  0  0  0  0
    3.4664   -3.0063    0.0000 C   0  0  0  0  0  0  0  0  0  0  0  0
  1  2  2  0  0  0  0
  2  3  1  0  0  0  0
  3  4  1  0  0  0  0
  4  9  2  0  0  0  0
  4  5  1  0  0  0  0
  5  6  2  0  0  0  0
  6  7  1  0  0  0  0
  7  8  2  0  0  0  0
  8  9  1  0  0  0  0
  2 10  1  0  0  0  0
 10 11  1  0  0  0  0
 11 18  2  0  0  0  0
 11 12  1  0  0  0  0
 12 13  2  0  0  0  0
 13 14  1  0  0  0  0
 13 15  1  0  0  0  0
 15 16  2  0  0  0  0
 16 17  1  0  0  0  0
 16 18  1  0  0  0  0
M  END
$$$$
WAR-XCH-eb7-5
  -OEChem-03232022352D

 18 19  0     0  0  0  0  0  0999 V2000
    0.8662   -4.5127    0.0000 C   0  0  0  0  0  0  0  0  0  0  0  0
    1.7299   -4.0089    0.0000 C   0  0  0  0  0  0  0  0  0  0  0  0
    2.6012   -4.5102    0.0000 C   0  0  0  0  0  0  0  0  0  0  0  0
    3.4651   -4.0063    0.0000 C   0  0  0  0  0  0  0  0  0  0  0  0
    4.3318   -4.5050    0.0000 Cl  0  0  0  0  0  0  0  0  0  0  0  0
    3.4665   -3.0063    0.0000 C   0  0  0  0  0  0  0  0  0  0  0  0
    2.5952   -2.5050    0.0000 C   0  0  0  0  0  0  0  0  0  0  0  0
    2.5966   -1.5050    0.0000 N   0  0  0  0  0  0  0  0  0  0  0  0
    1.7313   -1.0038    0.0000 C   0  0  0  0  0  0  0  0  0  0  0  0
    0.8646   -1.5025    0.0000 O   0  0  0  0  0  0  0  0  0  0  0  0
    1.7328   -0.0038    0.0000 N   0  0  0  0  0  0  0  0  0  0  0  0
    0.8675    0.4975    0.0000 C   0  0  0  0  0  0  0  0  0  0  0  0
    0.0000    0.0000    0.0000 C   0  0  0  0  0  0  0  0  0  0  0  0
   -0.8675    0.4975    0.0000 C   0  0  0  0  0  0  0  0  0  0  0  0
   -0.8675    1.5027    0.0000 C   0  0  0  0  0  0  0  0  0  0  0  0
    0.0000    2.0104    0.0000 N   0  0  0  0  0  0  0  0  0  0  0  0
    0.8675    1.5027    0.0000 C   0  0  0  0  0  0  0  0  0  0  0  0
    1.7225   -3.0037    0.0000 C   0  0  0  0  0  0  0  0  0  0  0  0
  1  2  1  0  0  0  0
  2 18  2  0  0  0  0
  2  3  1  0  0  0  0
  3  4  2  0  0  0  0
  4  5  1  0  0  0  0
  4  6  1  0  0  0  0
  6  7  2  0  0  0  0
  7  8  1  0  0  0  0
  8  9  1  0  0  0  0
  9 10  2  0  0  0  0
  9 11  1  0  0  0  0
 11 12  1  0  0  0  0
 12 17  2  0  0  0  0
 12 13  1  0  0  0  0
 13 14  2  0  0  0  0
 14 15  1  0  0  0  0
 15 16  2  0  0  0  0
 16 17  1  0  0  0  0
  7 18  1  0  0  0  0
M  END
$$$$
WAR-XCH-eb7-6
  -OEChem-03232022352D

 17 18  0     0  0  0  0  0  0999 V2000
    0.8662   -4.5127    0.0000 C   0  0  0  0  0  0  0  0  0  0  0  0
    1.7299   -4.0089    0.0000 C   0  0  0  0  0  0  0  0  0  0  0  0
    2.6012   -4.5102    0.0000 C   0  0  0  0  0  0  0  0  0  0  0  0
    3.4651   -4.0063    0.0000 C   0  0  0  0  0  0  0  0  0  0  0  0
    3.4665   -3.0063    0.0000 C   0  0  0  0  0  0  0  0  0  0  0  0
    2.5952   -2.5050    0.0000 C   0  0  0  0  0  0  0  0  0  0  0  0
    2.5966   -1.5050    0.0000 N   0  0  0  0  0  0  0  0  0  0  0  0
    1.7313   -1.0038    0.0000 C   0  0  0  0  0  0  0  0  0  0  0  0
    0.8646   -1.5025    0.0000 O   0  0  0  0  0  0  0  0  0  0  0  0
    1.7328   -0.0038    0.0000 N   0  0  0  0  0  0  0  0  0  0  0  0
    0.8675    0.4975    0.0000 C   0  0  0  0  0  0  0  0  0  0  0  0
    0.0000    0.0000    0.0000 C   0  0  0  0  0  0  0  0  0  0  0  0
   -0.8675    0.4975    0.0000 C   0  0  0  0  0  0  0  0  0  0  0  0
   -0.8675    1.5027    0.0000 C   0  0  0  0  0  0  0  0  0  0  0  0
    0.0000    2.0104    0.0000 N   0  0  0  0  0  0  0  0  0  0  0  0
    0.8675    1.5027    0.0000 C   0  0  0  0  0  0  0  0  0  0  0  0
    1.7225   -3.0037    0.0000 C   0  0  0  0  0  0  0  0  0  0  0  0
  1  2  1  0  0  0  0
  2 17  2  0  0  0  0
  2  3  1  0  0  0  0
  3  4  2  0  0  0  0
  4  5  1  0  0  0  0
  5  6  2  0  0  0  0
  6  7  1  0  0  0  0
  7  8  1  0  0  0  0
  8  9  2  0  0  0  0
  8 10  1  0  0  0  0
 10 11  1  0  0  0  0
 11 16  2  0  0  0  0
 11 12  1  0  0  0  0
 12 13  2  0  0  0  0
 13 14  1  0  0  0  0
 14 15  2  0  0  0  0
 15 16  1  0  0  0  0
  6 17  1  0  0  0  0
M  END
$$$$
WAR-XCH-eb7-7
  -OEChem-03232022352D

 17 18  0     0  0  0  0  0  0999 V2000
    0.8646   -1.5025    0.0000 O   0  0  0  0  0  0  0  0  0  0  0  0
    1.7313   -1.0038    0.0000 C   0  0  0  0  0  0  0  0  0  0  0  0
    1.7328   -0.0038    0.0000 N   0  0  0  0  0  0  0  0  0  0  0  0
    0.8675    0.4975    0.0000 C   0  0  0  0  0  0  0  0  0  0  0  0
    0.0000    0.0000    0.0000 C   0  0  0  0  0  0  0  0  0  0  0  0
   -0.8675    0.4975    0.0000 C   0  0  0  0  0  0  0  0  0  0  0  0
   -0.8675    1.5027    0.0000 C   0  0  0  0  0  0  0  0  0  0  0  0
    0.0000    2.0104    0.0000 N   0  0  0  0  0  0  0  0  0  0  0  0
    0.8675    1.5027    0.0000 C   0  0  0  0  0  0  0  0  0  0  0  0
    2.5966   -1.5050    0.0000 N   0  0  0  0  0  0  0  0  0  0  0  0
    2.5952   -2.5050    0.0000 C   0  0  0  0  0  0  0  0  0  0  0  0
    1.7225   -3.0038    0.0000 C   0  0  0  0  0  0  0  0  0  0  0  0
    1.7210   -4.0038    0.0000 C   0  0  0  0  0  0  0  0  0  0  0  0
    2.5833   -4.5101    0.0000 C   0  0  0  0  0  0  0  0  0  0  0  0
    3.4561   -4.0114    0.0000 C   0  0  0  0  0  0  0  0  0  0  0  0
    4.3184   -4.5177    0.0000 Cl  0  0  0  0  0  0  0  0  0  0  0  0
    3.4664   -3.0063    0.0000 C   0  0  0  0  0  0  0  0  0  0  0  0
  1  2  2  0  0  0  0
  2  3  1  0  0  0  0
  3  4  1  0  0  0  0
  4  9  2  0  0  0  0
  4  5  1  0  0  0  0
  5  6  2  0  0  0  0
  6  7  1  0  0  0  0
  7  8  2  0  0  0  0
  8  9  1  0  0  0  0
  2 10  1  0  0  0  0
 10 11  1  0  0  0  0
 11 17  2  0  0  0  0
 11 12  1  0  0  0  0
 12 13  2  0  0  0  0
 13 14  1  0  0  0  0
 14 15  2  0  0  0  0
 15 16  1  0  0  0  0
 15 17  1  0  0  0  0
M  END
$$$$
GIA-UNK-eaa-1
  -OEChem-03232022352D

 22 24  0     0  0  0  0  0  0999 V2000
    0.0015    3.0129    0.0000 O   0  0  0  0  0  0  0  0  0  0  0  0
    0.8675    2.5129    0.0000 C   0  0  0  0  0  0  0  0  0  0  0  0
    1.7335    3.0129    0.0000 C   0  0  0  0  0  0  0  0  0  0  0  0
    1.7306    4.0181    0.0000 C   0  0  0  0  0  0  0  0  0  0  0  0
    2.5966    4.5182    0.0000 C   0  0  0  0  0  0  0  0  0  0  0  0
    3.4656    4.0232    0.0000 C   0  0  0  0  0  0  0  0  0  0  0  0
    3.4685    3.0180    0.0000 C   0  0  0  0  0  0  0  0  0  0  0  0
    2.6025    2.5078    0.0000 C   0  0  0  0  0  0  0  0  0  0  0  0
    0.8675    1.5129    0.0000 N   0  0  0  0  0  0  0  0  0  0  0  0
    0.0000    1.0052    0.0000 C   0  0  0  0  0  0  0  0  0  0  0  0
    0.0000    0.0000    0.0000 C   0  0  0  0  0  0  0  0  0  0  0  0
    0.8675   -0.4975    0.0000 N   0  0  0  0  0  0  0  0  0  0  0  0
    0.8675   -1.4975    0.0000 C   0  0  0  0  0  0  0  0  0  0  0  0
    0.0015   -1.9975    0.0000 O   0  0  0  0  0  0  0  0  0  0  0  0
    1.7335   -1.9975    0.0000 C   0  0  0  0  0  0  0  0  0  0  0  0
    2.5981   -1.4950    0.0000 C   0  0  0  0  0  0  0  0  0  0  0  0
    3.4687   -1.9976    0.0000 C   0  0  0  0  0  0  0  0  0  0  0  0
    3.4746   -3.0027    0.0000 O   0  0  0  0  0  0  0  0  0  0  0  0
    2.6012   -3.5001    0.0000 C   0  0  0  0  0  0  0  0  0  0  0  0
    1.7306   -2.9975    0.0000 C   0  0  0  0  0  0  0  0  0  0  0  0
    1.7350    0.0000    0.0000 C   0  0  0  0  0  0  0  0  0  0  0  0
    1.7350    1.0052    0.0000 C   0  0  0  0  0  0  0  0  0  0  0  0
  1  2  2  0  0  0  0
  2  3  1  0  0  0  0
  3  8  2  0  0  0  0
  3  4  1  0  0  0  0
  4  5  2  0  0  0  0
  5  6  1  0  0  0  0
  6  7  2  0  0  0  0
  7  8  1  0  0  0  0
  2  9  1  0  0  0  0
  9 22  1  0  0  0  0
  9 10  1  0  0  0  0
 10 11  1  0  0  0  0
 11 12  1  0  0  0  0
 12 13  1  0  0  0  0
 13 14  2  0  0  0  0
 13 15  1  0  0  0  0
 15 20  1  0  0  0  0
 15 16  1  0  0  0  0
 16 17  1  0  0  0  0
 17 18  1  0  0  0  0
 18 19  1  0  0  0  0
 19 20  1  0  0  0  0
 12 21  1  0  0  0  0
 21 22  1  0  0  0  0
M  END
$$$$
GIA-UNK-eaa-2
  -OEChem-03232022352D

 23 25  0     0  0  0  0  0  0999 V2000
    0.2232    5.2881    0.0000 O   0  0  0  0  0  0  0  0  0  0  0  0
    0.8675    4.5233    0.0000 S   0  0  0  0  0  0  0  0  0  0  0  0
    1.5118    5.2881    0.0000 O   0  0  0  0  0  0  0  0  0  0  0  0
    0.0000    4.0156    0.0000 C   0  0  0  0  0  0  0  0  0  0  0  0
    0.0000    3.0104    0.0000 C   0  0  0  0  0  0  0  0  0  0  0  0
    0.8675    2.5129    0.0000 C   0  0  0  0  0  0  0  0  0  0  0  0
    0.8675    1.5129    0.0000 N   0  0  0  0  0  0  0  0  0  0  0  0
    0.0000    1.0052    0.0000 C   0  0  0  0  0  0  0  0  0  0  0  0
    0.0000    0.0000    0.0000 C   0  0  0  0  0  0  0  0  0  0  0  0
    0.8675   -0.4975    0.0000 N   0  0  0  0  0  0  0  0  0  0  0  0
    0.8675   -1.4975    0.0000 S   0  0  0  0  0  0  0  0  0  0  0  0
    1.8675   -1.4975    0.0000 O   0  0  0  0  0  0  0  0  0  0  0  0
   -0.1325   -1.4975    0.0000 O   0  0  0  0  0  0  0  0  0  0  0  0
    0.8675   -2.4975    0.0000 C   0  0  0  0  0  0  0  0  0  0  0  0
    1.7395   -2.9975    0.0000 C   0  0  0  0  0  0  0  0  0  0  0  0
    1.7396   -3.9976    0.0000 C   0  0  0  0  0  0  0  0  0  0  0  0
    0.8764   -4.5026    0.0000 C   0  0  0  0  0  0  0  0  0  0  0  0
    0.0044   -4.0026    0.0000 C   0  0  0  0  0  0  0  0  0  0  0  0
   -0.0045   -2.9975    0.0000 C   0  0  0  0  0  0  0  0  0  0  0  0
    1.7350    0.0000    0.0000 C   0  0  0  0  0  0  0  0  0  0  0  0
    1.7350    1.0052    0.0000 C   0  0  0  0  0  0  0  0  0  0  0  0
    1.7350    3.0104    0.0000 C   0  0  0  0  0  0  0  0  0  0  0  0
    1.7350    4.0156    0.0000 C   0  0  0  0  0  0  0  0  0  0  0  0
  1  2  2  0  0  0  0
  2 23  1  0  0  0  0
  2  3  2  0  0  0  0
  2  4  1  0  0  0  0
  4  5  1  0  0  0  0
  5  6  1  0  0  0  0
  6  7  1  0  0  0  0
  7 21  1  0  0  0  0
  7  8  1  0  0  0  0
  8  9  1  0  0  0  0
  9 10  1  0  0  0  0
 10 11  1  0  0  0  0
 11 12  2  0  0  0  0
 11 13  2  0  0  0  0
 11 14  1  0  0  0  0
 14 19  2  0  0  0  0
 14 15  1  0  0  0  0
 15 16  2  0  0  0  0
 16 17  1  0  0  0  0
 17 18  2  0  0  0  0
 18 19  1  0  0  0  0
 10 20  1  0  0  0  0
 20 21  1  0  0  0  0
  6 22  1  0  0  0  0
 22 23  1  0  0  0  0
M  END
$$$$
GIA-UNK-eaa-3
  -OEChem-03232022352D

 23 25  0     0  0  0  0  0  0999 V2000
   -0.8660   -1.5000    0.0000 O   0  0  0  0  0  0  0  0  0  0  0  0
   -0.0000   -1.0000    0.0000 C   0  0  0  0  0  0  0  0  0  0  0  0
    0.0000    0.0000    0.0000 C   0  0  0  0  0  0  0  0  0  0  0  0
   -0.8675    0.4975    0.0000 C   0  0  0  0  0  0  0  0  0  0  0  0
   -0.8675    1.5027    0.0000 C   0  0  0  0  0  0  0  0  0  0  0  0
    0.0000    2.0104    0.0000 N   0  0  0  0  0  0  0  0  0  0  0  0
    0.0000    3.0104    0.0000 S   0  0  0  0  0  0  0  0  0  0  0  0
   -1.0000    3.0104    0.0000 O   0  0  0  0  0  0  0  0  0  0  0  0
    1.0000    3.0104    0.0000 O   0  0  0  0  0  0  0  0  0  0  0  0
    0.0000    4.0104    0.0000 C   0  0  0  0  0  0  0  0  0  0  0  0
   -0.8720    4.5104    0.0000 C   0  0  0  0  0  0  0  0  0  0  0  0
   -0.8721    5.5105    0.0000 C   0  0  0  0  0  0  0  0  0  0  0  0
   -0.0089    6.0155    0.0000 C   0  0  0  0  0  0  0  0  0  0  0  0
    0.8631    5.5155    0.0000 C   0  0  0  0  0  0  0  0  0  0  0  0
    0.8720    4.5104    0.0000 C   0  0  0  0  0  0  0  0  0  0  0  0
    0.8675    1.5027    0.0000 C   0  0  0  0  0  0  0  0  0  0  0  0
    0.8675    0.4975    0.0000 C   0  0  0  0  0  0  0  0  0  0  0  0
    0.8660   -1.5000    0.0000 N   0  0  0  0  0  0  0  0  0  0  0  0
    1.7306   -0.9975    0.0000 C   0  0  0  0  0  0  0  0  0  0  0  0
    2.6012   -1.5001    0.0000 C   0  0  0  0  0  0  0  0  0  0  0  0
    2.6071   -2.5052    0.0000 O   0  0  0  0  0  0  0  0  0  0  0  0
    1.7337   -3.0026    0.0000 C   0  0  0  0  0  0  0  0  0  0  0  0
    0.8631   -2.5000    0.0000 C   0  0  0  0  0  0  0  0  0  0  0  0
  1  2  2  0  0  0  0
  2  3  1  0  0  0  0
  3 17  1  0  0  0  0
  3  4  1  0  0  0  0
  4  5  1  0  0  0  0
  5  6  1  0  0  0  0
  6  7  1  0  0  0  0
  7  8  2  0  0  0  0
  7  9  2  0  0  0  0
  7 10  1  0  0  0  0
 10 15  2  0  0  0  0
 10 11  1  0  0  0  0
 11 12  2  0  0  0  0
 12 13  1  0  0  0  0
 13 14  2  0  0  0  0
 14 15  1  0  0  0  0
  6 16  1  0  0  0  0
 16 17  1  0  0  0  0
  2 18  1  0  0  0  0
 18 23  1  0  0  0  0
 18 19  1  0  0  0  0
 19 20  1  0  0  0  0
 20 21  1  0  0  0  0
 21 22  1  0  0  0  0
 22 23  1  0  0  0  0
M  END
$$$$
CHR-SOS-e96-1
  -OEChem-03232022352D

 26 28  0     0  0  0  0  0  0999 V2000
    6.5077   -4.4424    0.0000 N   0  0  0  0  0  0  0  0  0  0  0  0
    5.8600   -3.6805    0.0000 S   0  0  0  0  0  0  0  0  0  0  0  0
    5.0981   -4.3282    0.0000 O   0  0  0  0  0  0  0  0  0  0  0  0
    6.6219   -3.0328    0.0000 O   0  0  0  0  0  0  0  0  0  0  0  0
    5.2123   -2.9186    0.0000 C   0  0  0  0  0  0  0  0  0  0  0  0
    5.5528   -1.9728    0.0000 C   0  0  0  0  0  0  0  0  0  0  0  0
    4.9052   -1.2109    0.0000 C   0  0  0  0  0  0  0  0  0  0  0  0
    3.9204   -1.3851    0.0000 C   0  0  0  0  0  0  0  0  0  0  0  0
    3.5799   -2.3309    0.0000 C   0  0  0  0  0  0  0  0  0  0  0  0
    2.5952   -2.5050    0.0000 C   0  0  0  0  0  0  0  0  0  0  0  0
    2.5966   -1.5050    0.0000 C   0  0  0  0  0  0  0  0  0  0  0  0
    1.7313   -1.0038    0.0000 C   0  0  0  0  0  0  0  0  0  0  0  0
    0.8646   -1.5025    0.0000 O   0  0  0  0  0  0  0  0  0  0  0  0
    1.7328   -0.0038    0.0000 N   0  0  0  0  0  0  0  0  0  0  0  0
    0.8675    0.4975    0.0000 C   0  0  0  0  0  0  0  0  0  0  0  0
    0.0000    0.0000    0.0000 C   0  0  0  0  0  0  0  0  0  0  0  0
   -0.8675    0.4975    0.0000 C   0  0  0  0  0  0  0  0  0  0  0  0
   -0.8675    1.5027    0.0000 C   0  0  0  0  0  0  0  0  0  0  0  0
    0.0000    2.0104    0.0000 N   0  0  0  0  0  0  0  0  0  0  0  0
    0.8675    1.5027    0.0000 C   0  0  0  0  0  0  0  0  0  0  0  0
    1.6059   -2.3271    0.0000 C   0  0  0  0  0  0  0  0  0  0  0  0
    0.9627   -3.0928    0.0000 C   0  0  0  0  0  0  0  0  0  0  0  0
    1.2988   -4.0347    0.0000 C   0  0  0  0  0  0  0  0  0  0  0  0
    2.2881   -4.2126    0.0000 C   0  0  0  0  0  0  0  0  0  0  0  0
    2.9413   -3.4487    0.0000 C   0  0  0  0  0  0  0  0  0  0  0  0
    4.2241   -3.1024    0.0000 C   0  0  0  0  0  0  0  0  0  0  0  0
  1  2  1  0  0  0  0
  2  3  2  0  0  0  0
  2  4  2  0  0  0  0
  2  5  1  0  0  0  0
  5 26  2  0  0  0  0
  5  6  1  0  0  0  0
  6  7  2  0  0  0  0
  7  8  1  0  0  0  0
  8  9  2  0  0  0  0
  9 10  1  0  0  0  0
 10 25  1  0  0  0  0
 10 11  1  0  0  0  0
 11 12  1  0  0  0  0
 12 13  2  0  0  0  0
 12 14  1  0  0  0  0
 14 15  1  0  0  0  0
 15 20  2  0  0  0  0
 15 16  1  0  0  0  0
 16 17  2  0  0  0  0
 17 18  1  0  0  0  0
 18 19  2  0  0  0  0
 19 20  1  0  0  0  0
 10 21  1  0  0  0  0
 21 22  1  0  0  0  0
 22 23  1  0  0  0  0
 23 24  1  0  0  0  0
 24 25  1  0  0  0  0
  9 26  1  0  0  0  0
M  END
$$$$
CHR-SOS-e96-2
  -OEChem-03232022352D

 25 27  0     0  0  0  0  0  0999 V2000
    6.3573   -4.7204    0.0000 N   0  0  0  0  0  0  0  0  0  0  0  0
    5.7664   -3.9137    0.0000 S   0  0  0  0  0  0  0  0  0  0  0  0
    4.9596   -4.5045    0.0000 O   0  0  0  0  0  0  0  0  0  0  0  0
    6.5732   -3.3228    0.0000 O   0  0  0  0  0  0  0  0  0  0  0  0
    5.1755   -3.1069    0.0000 C   0  0  0  0  0  0  0  0  0  0  0  0
    5.5836   -2.1882    0.0000 C   0  0  0  0  0  0  0  0  0  0  0  0
    4.9928   -1.3814    0.0000 C   0  0  0  0  0  0  0  0  0  0  0  0
    3.9980   -1.4839    0.0000 C   0  0  0  0  0  0  0  0  0  0  0  0
    3.5899   -2.4026    0.0000 C   0  0  0  0  0  0  0  0  0  0  0  0
    2.5952   -2.5050    0.0000 C   0  0  0  0  0  0  0  0  0  0  0  0
    2.5966   -1.5050    0.0000 C   0  0  0  0  0  0  0  0  0  0  0  0
    1.7313   -1.0038    0.0000 C   0  0  0  0  0  0  0  0  0  0  0  0
    0.8646   -1.5025    0.0000 O   0  0  0  0  0  0  0  0  0  0  0  0
    1.7328   -0.0038    0.0000 N   0  0  0  0  0  0  0  0  0  0  0  0
    0.8675    0.4975    0.0000 C   0  0  0  0  0  0  0  0  0  0  0  0
    0.0000    0.0000    0.0000 C   0  0  0  0  0  0  0  0  0  0  0  0
   -0.8675    0.4975    0.0000 C   0  0  0  0  0  0  0  0  0  0  0  0
   -0.8675    1.5027    0.0000 C   0  0  0  0  0  0  0  0  0  0  0  0
    0.0000    2.0104    0.0000 N   0  0  0  0  0  0  0  0  0  0  0  0
    0.8675    1.5027    0.0000 C   0  0  0  0  0  0  0  0  0  0  0  0
    1.5991   -2.3995    0.0000 C   0  0  0  0  0  0  0  0  0  0  0  0
    1.1890   -3.3131    0.0000 C   0  0  0  0  0  0  0  0  0  0  0  0
    1.9319   -3.9825    0.0000 C   0  0  0  0  0  0  0  0  0  0  0  0
    2.8013   -3.4881    0.0000 C   0  0  0  0  0  0  0  0  0  0  0  0
    4.1766   -3.2187    0.0000 C   0  0  0  0  0  0  0  0  0  0  0  0
  1  2  1  0  0  0  0
  2  3  2  0  0  0  0
  2  4  2  0  0  0  0
  2  5  1  0  0  0  0
  5 25  2  0  0  0  0
  5  6  1  0  0  0  0
  6  7  2  0  0  0  0
  7  8  1  0  0  0  0
  8  9  2  0  0  0  0
  9 10  1  0  0  0  0
 10 24  1  0  0  0  0
 10 11  1  0  0  0  0
 11 12  1  0  0  0  0
 12 13  2  0  0  0  0
 12 14  1  0  0  0  0
 14 15  1  0  0  0  0
 15 20  2  0  0  0  0
 15 16  1  0  0  0  0
 16 17  2  0  0  0  0
 17 18  1  0  0  0  0
 18 19  2  0  0  0  0
 19 20  1  0  0  0  0
 10 21  1  0  0  0  0
 21 22  1  0  0  0  0
 22 23  1  0  0  0  0
 23 24  1  0  0  0  0
  9 25  1  0  0  0  0
M  END
$$$$
CHR-SOS-e96-3
  -OEChem-03232022352D

 24 26  0     0  0  0  0  0  0999 V2000
    6.1067   -5.0993    0.0000 N   0  0  0  0  0  0  0  0  0  0  0  0
    5.6029   -4.2355    0.0000 S   0  0  0  0  0  0  0  0  0  0  0  0
    4.7391   -4.7393    0.0000 O   0  0  0  0  0  0  0  0  0  0  0  0
    6.4667   -3.7316    0.0000 O   0  0  0  0  0  0  0  0  0  0  0  0
    5.0990   -3.3717    0.0000 C   0  0  0  0  0  0  0  0  0  0  0  0
    5.6003   -2.5004    0.0000 C   0  0  0  0  0  0  0  0  0  0  0  0
    5.0965   -1.6366    0.0000 C   0  0  0  0  0  0  0  0  0  0  0  0
    4.0965   -1.6352    0.0000 C   0  0  0  0  0  0  0  0  0  0  0  0
    3.5952   -2.5065    0.0000 C   0  0  0  0  0  0  0  0  0  0  0  0
    2.5952   -2.5050    0.0000 C   0  0  0  0  0  0  0  0  0  0  0  0
    2.5966   -1.5050    0.0000 C   0  0  0  0  0  0  0  0  0  0  0  0
    1.7313   -1.0038    0.0000 C   0  0  0  0  0  0  0  0  0  0  0  0
    0.8646   -1.5025    0.0000 O   0  0  0  0  0  0  0  0  0  0  0  0
    1.7328   -0.0038    0.0000 N   0  0  0  0  0  0  0  0  0  0  0  0
    0.8675    0.4975    0.0000 C   0  0  0  0  0  0  0  0  0  0  0  0
    0.0000    0.0000    0.0000 C   0  0  0  0  0  0  0  0  0  0  0  0
   -0.8675    0.4975    0.0000 C   0  0  0  0  0  0  0  0  0  0  0  0
   -0.8675    1.5027    0.0000 C   0  0  0  0  0  0  0  0  0  0  0  0
    0.0000    2.0104    0.0000 N   0  0  0  0  0  0  0  0  0  0  0  0
    0.8675    1.5027    0.0000 C   0  0  0  0  0  0  0  0  0  0  0  0
    2.5937   -3.5050    0.0000 C   0  0  0  0  0  0  0  0  0  0  0  0
    1.5937   -3.5036    0.0000 C   0  0  0  0  0  0  0  0  0  0  0  0
    1.5952   -2.5036    0.0000 C   0  0  0  0  0  0  0  0  0  0  0  0
    4.0939   -3.3791    0.0000 C   0  0  0  0  0  0  0  0  0  0  0  0
  1  2  1  0  0  0  0
  2  3  2  0  0  0  0
  2  4  2  0  0  0  0
  2  5  1  0  0  0  0
  5 24  2  0  0  0  0
  5  6  1  0  0  0  0
  6  7  2  0  0  0  0
  7  8  1  0  0  0  0
  8  9  2  0  0  0  0
  9 10  1  0  0  0  0
 10 23  1  0  0  0  0
 10 11  1  0  0  0  0
 11 12  1  0  0  0  0
 12 13  2  0  0  0  0
 12 14  1  0  0  0  0
 14 15  1  0  0  0  0
 15 20  2  0  0  0  0
 15 16  1  0  0  0  0
 16 17  2  0  0  0  0
 17 18  1  0  0  0  0
 18 19  2  0  0  0  0
 19 20  1  0  0  0  0
 10 21  1  0  0  0  0
 21 22  1  0  0  0  0
 22 23  1  0  0  0  0
  9 24  1  0  0  0  0
M  END
$$$$
CHR-SOS-e96-4
  -OEChem-03232022352D

 27 29  0     0  0  0  0  0  0999 V2000
   -0.0000   -1.0000    0.0000 C   0  0  0  0  0  0  0  0  0  0  0  0
    0.0000    0.0000    0.0000 C   0  0  0  0  0  0  0  0  0  0  0  0
   -0.8675    0.4975    0.0000 C   0  0  0  0  0  0  0  0  0  0  0  0
   -0.8675    1.5027    0.0000 C   0  0  0  0  0  0  0  0  0  0  0  0
    0.0000    2.0104    0.0000 N   0  0  0  0  0  0  0  0  0  0  0  0
    0.8675    1.5027    0.0000 C   0  0  0  0  0  0  0  0  0  0  0  0
    0.8675    0.4975    0.0000 C   0  0  0  0  0  0  0  0  0  0  0  0
    1.7328   -0.0038    0.0000 N   0  0  0  0  0  0  0  0  0  0  0  0
    2.5995    0.4950    0.0000 C   0  0  0  0  0  0  0  0  0  0  0  0
    3.4648   -0.0063    0.0000 O   0  0  0  0  0  0  0  0  0  0  0  0
    2.6010    1.4950    0.0000 C   0  0  0  0  0  0  0  0  0  0  0  0
    3.4678    1.9937    0.0000 C   0  0  0  0  0  0  0  0  0  0  0  0
    2.8246    2.7594    0.0000 C   0  0  0  0  0  0  0  0  0  0  0  0
    1.8352    2.5815    0.0000 C   0  0  0  0  0  0  0  0  0  0  0  0
    1.1920    3.3472    0.0000 C   0  0  0  0  0  0  0  0  0  0  0  0
    1.5281    4.2890    0.0000 C   0  0  0  0  0  0  0  0  0  0  0  0
    2.5174    4.4670    0.0000 C   0  0  0  0  0  0  0  0  0  0  0  0
    2.8534    5.4089    0.0000 S   0  0  0  0  0  0  0  0  0  0  0  0
    3.1893    6.3508    0.0000 N   0  0  0  0  0  0  0  0  0  0  0  0
    3.7952    5.0729    0.0000 O   0  0  0  0  0  0  0  0  0  0  0  0
    1.9115    5.7449    0.0000 O   0  0  0  0  0  0  0  0  0  0  0  0
    3.1706    3.7031    0.0000 C   0  0  0  0  0  0  0  0  0  0  0  0
    4.1120    2.7654    0.0000 C   0  0  0  0  0  0  0  0  0  0  0  0
    5.0967    2.5913    0.0000 C   0  0  0  0  0  0  0  0  0  0  0  0
    5.4438    1.6534    0.0000 C   0  0  0  0  0  0  0  0  0  0  0  0
    4.7996    0.8818    0.0000 C   0  0  0  0  0  0  0  0  0  0  0  0
    3.8083    1.0480    0.0000 C   0  0  0  0  0  0  0  0  0  0  0  0
  1  2  1  0  0  0  0
  2  7  2  0  0  0  0
  2  3  1  0  0  0  0
  3  4  2  0  0  0  0
  4  5  1  0  0  0  0
  5  6  2  0  0  0  0
  6  7  1  0  0  0  0
  7  8  1  0  0  0  0
  8  9  1  0  0  0  0
  9 10  2  0  0  0  0
  9 11  1  0  0  0  0
 11 12  1  0  0  0  0
 12 27  1  0  0  0  0
 12 13  1  0  0  0  0
 13 22  2  0  0  0  0
 13 14  1  0  0  0  0
 14 15  2  0  0  0  0
 15 16  1  0  0  0  0
 16 17  2  0  0  0  0
 17 18  1  0  0  0  0
 18 19  1  0  0  0  0
 18 20  2  0  0  0  0
 18 21  2  0  0  0  0
 17 22  1  0  0  0  0
 12 23  1  0  0  0  0
 23 24  1  0  0  0  0
 24 25  1  0  0  0  0
 25 26  1  0  0  0  0
 26 27  1  0  0  0  0
M  END
$$$$
CHR-SOS-e96-5
  -OEChem-03232022352D

 26 28  0     0  0  0  0  0  0999 V2000
   -0.0000   -1.0000    0.0000 C   0  0  0  0  0  0  0  0  0  0  0  0
    0.0000    0.0000    0.0000 C   0  0  0  0  0  0  0  0  0  0  0  0
   -0.8675    0.4975    0.0000 C   0  0  0  0  0  0  0  0  0  0  0  0
   -0.8675    1.5027    0.0000 C   0  0  0  0  0  0  0  0  0  0  0  0
    0.0000    2.0104    0.0000 N   0  0  0  0  0  0  0  0  0  0  0  0
    0.8675    1.5027    0.0000 C   0  0  0  0  0  0  0  0  0  0  0  0
    0.8675    0.4975    0.0000 C   0  0  0  0  0  0  0  0  0  0  0  0
    1.7328   -0.0038    0.0000 N   0  0  0  0  0  0  0  0  0  0  0  0
    2.5995    0.4950    0.0000 C   0  0  0  0  0  0  0  0  0  0  0  0
    3.4648   -0.0063    0.0000 O   0  0  0  0  0  0  0  0  0  0  0  0
    2.6010    1.4950    0.0000 C   0  0  0  0  0  0  0  0  0  0  0  0
    3.4678    1.9937    0.0000 C   0  0  0  0  0  0  0  0  0  0  0  0
    2.8817    2.8040    0.0000 C   0  0  0  0  0  0  0  0  0  0  0  0
    1.8821    2.6980    0.0000 C   0  0  0  0  0  0  0  0  0  0  0  0
    1.2959    3.5083    0.0000 C   0  0  0  0  0  0  0  0  0  0  0  0
    1.6992    4.4234    0.0000 C   0  0  0  0  0  0  0  0  0  0  0  0
    2.6988    4.5293    0.0000 C   0  0  0  0  0  0  0  0  0  0  0  0
    3.1021    5.4444    0.0000 S   0  0  0  0  0  0  0  0  0  0  0  0
    3.5053    6.3595    0.0000 N   0  0  0  0  0  0  0  0  0  0  0  0
    4.0172    5.0411    0.0000 O   0  0  0  0  0  0  0  0  0  0  0  0
    2.1870    5.8477    0.0000 O   0  0  0  0  0  0  0  0  0  0  0  0
    3.2951    3.7201    0.0000 C   0  0  0  0  0  0  0  0  0  0  0  0
    4.2139    2.6619    0.0000 C   0  0  0  0  0  0  0  0  0  0  0  0
    5.0810    2.1608    0.0000 C   0  0  0  0  0  0  0  0  0  0  0  0
    4.8700    1.1833    0.0000 C   0  0  0  0  0  0  0  0  0  0  0  0
    3.8756    1.0758    0.0000 C   0  0  0  0  0  0  0  0  0  0  0  0
  1  2  1  0  0  0  0
  2  7  2  0  0  0  0
  2  3  1  0  0  0  0
  3  4  2  0  0  0  0
  4  5  1  0  0  0  0
  5  6  2  0  0  0  0
  6  7  1  0  0  0  0
  7  8  1  0  0  0  0
  8  9  1  0  0  0  0
  9 10  2  0  0  0  0
  9 11  1  0  0  0  0
 11 12  1  0  0  0  0
 12 26  1  0  0  0  0
 12 13  1  0  0  0  0
 13 22  2  0  0  0  0
 13 14  1  0  0  0  0
 14 15  2  0  0  0  0
 15 16  1  0  0  0  0
 16 17  2  0  0  0  0
 17 18  1  0  0  0  0
 18 19  1  0  0  0  0
 18 20  2  0  0  0  0
 18 21  2  0  0  0  0
 17 22  1  0  0  0  0
 12 23  1  0  0  0  0
 23 24  1  0  0  0  0
 24 25  1  0  0  0  0
 25 26  1  0  0  0  0
M  END
$$$$
CHR-SOS-e96-6
  -OEChem-03232022352D

 25 27  0     0  0  0  0  0  0999 V2000
   -0.0000   -1.0000    0.0000 C   0  0  0  0  0  0  0  0  0  0  0  0
    0.0000    0.0000    0.0000 C   0  0  0  0  0  0  0  0  0  0  0  0
   -0.8675    0.4975    0.0000 C   0  0  0  0  0  0  0  0  0  0  0  0
   -0.8675    1.5027    0.0000 C   0  0  0  0  0  0  0  0  0  0  0  0
    0.0000    2.0104    0.0000 N   0  0  0  0  0  0  0  0  0  0  0  0
    0.8675    1.5027    0.0000 C   0  0  0  0  0  0  0  0  0  0  0  0
    0.8675    0.4975    0.0000 C   0  0  0  0  0  0  0  0  0  0  0  0
    1.7328   -0.0038    0.0000 N   0  0  0  0  0  0  0  0  0  0  0  0
    2.5995    0.4950    0.0000 C   0  0  0  0  0  0  0  0  0  0  0  0
    3.4648   -0.0063    0.0000 O   0  0  0  0  0  0  0  0  0  0  0  0
    2.6010    1.4950    0.0000 C   0  0  0  0  0  0  0  0  0  0  0  0
    3.4678    1.9937    0.0000 C   0  0  0  0  0  0  0  0  0  0  0  0
    2.9690    2.8605    0.0000 C   0  0  0  0  0  0  0  0  0  0  0  0
    1.9638    2.8590    0.0000 C   0  0  0  0  0  0  0  0  0  0  0  0
    1.4650    3.7257    0.0000 C   0  0  0  0  0  0  0  0  0  0  0  0
    1.9612    4.5940    0.0000 C   0  0  0  0  0  0  0  0  0  0  0  0
    2.9664    4.5955    0.0000 C   0  0  0  0  0  0  0  0  0  0  0  0
    3.4625    5.4637    0.0000 S   0  0  0  0  0  0  0  0  0  0  0  0
    3.9587    6.3320    0.0000 N   0  0  0  0  0  0  0  0  0  0  0  0
    4.3308    4.9676    0.0000 O   0  0  0  0  0  0  0  0  0  0  0  0
    2.5943    5.9599    0.0000 O   0  0  0  0  0  0  0  0  0  0  0  0
    3.4754    3.7287    0.0000 C   0  0  0  0  0  0  0  0  0  0  0  0
    3.9665    1.1270    0.0000 C   0  0  0  0  0  0  0  0  0  0  0  0
    4.8332    1.6257    0.0000 C   0  0  0  0  0  0  0  0  0  0  0  0
    4.3345    2.4925    0.0000 C   0  0  0  0  0  0  0  0  0  0  0  0
  1  2  1  0  0  0  0
  2  7  2  0  0  0  0
  2  3  1  0  0  0  0
  3  4  2  0  0  0  0
  4  5  1  0  0  0  0
  5  6  2  0  0  0  0
  6  7  1  0  0  0  0
  7  8  1  0  0  0  0
  8  9  1  0  0  0  0
  9 10  2  0  0  0  0
  9 11  1  0  0  0  0
 11 12  1  0  0  0  0
 12 25  1  0  0  0  0
 12 13  1  0  0  0  0
 13 22  2  0  0  0  0
 13 14  1  0  0  0  0
 14 15  2  0  0  0  0
 15 16  1  0  0  0  0
 16 17  2  0  0  0  0
 17 18  1  0  0  0  0
 18 19  1  0  0  0  0
 18 20  2  0  0  0  0
 18 21  2  0  0  0  0
 17 22  1  0  0  0  0
 12 23  1  0  0  0  0
 23 24  1  0  0  0  0
 24 25  1  0  0  0  0
M  END
$$$$
ELE-IMP-dfb-1
  -OEChem-03232022352D

 23 24  0     0  0  0  0  0  0999 V2000
    5.5770   -3.5816    0.0000 C   0  0  0  0  0  0  0  0  0  0  0  0
    5.2680   -2.6306    0.0000 C   0  0  0  0  0  0  0  0  0  0  0  0
    5.9372   -1.8874    0.0000 O   0  0  0  0  0  0  0  0  0  0  0  0
    4.2899   -2.4226    0.0000 N   0  0  0  0  0  0  0  0  0  0  0  0
    3.9809   -1.4715    0.0000 C   0  0  0  0  0  0  0  0  0  0  0  0
    3.0028   -1.2636    0.0000 C   0  0  0  0  0  0  0  0  0  0  0  0
    2.6938   -0.3125    0.0000 C   0  0  0  0  0  0  0  0  0  0  0  0
    3.2858    0.5023    0.0000 C   0  0  0  0  0  0  0  0  0  0  0  0
    2.6938    1.3169    0.0000 N   0  0  0  0  0  0  0  0  0  0  0  0
    1.7360    1.0058    0.0000 C   0  0  0  0  0  0  0  0  0  0  0  0
    0.8680    1.5138    0.0000 C   0  0  0  0  0  0  0  0  0  0  0  0
    0.8680    2.5138    0.0000 C   0  0  0  0  0  0  0  0  0  0  0  0
    0.0020    3.0138    0.0000 C   0  0  0  0  0  0  0  0  0  0  0  0
    0.0020    4.0138    0.0000 N   0  0  0  0  0  0  0  0  0  0  0  0
   -0.8641    4.5138    0.0000 S   0  0  0  0  0  0  0  0  0  0  0  0
   -1.7301    5.0138    0.0000 C   0  0  0  0  0  0  0  0  0  0  0  0
   -1.3641    3.6478    0.0000 O   0  0  0  0  0  0  0  0  0  0  0  0
   -0.3640    5.3798    0.0000 O   0  0  0  0  0  0  0  0  0  0  0  0
    0.0000    1.0058    0.0000 C   0  0  0  0  0  0  0  0  0  0  0  0
    0.0000    0.0000    0.0000 C   0  0  0  0  0  0  0  0  0  0  0  0
   -0.8653   -0.5013    0.0000 F   0  0  0  0  0  0  0  0  0  0  0  0
    0.8680   -0.4978    0.0000 C   0  0  0  0  0  0  0  0  0  0  0  0
    1.7360   -0.0012    0.0000 C   0  0  0  0  0  0  0  0  0  0  0  0
  1  2  1  0  0  0  0
  2  3  2  0  0  0  0
  2  4  1  0  0  0  0
  4  5  1  0  0  0  0
  5  6  1  0  0  0  0
  6  7  1  0  0  0  0
  7 23  1  0  0  0  0
  7  8  2  0  0  0  0
  8  9  1  0  0  0  0
  9 10  1  0  0  0  0
 10 23  2  0  0  0  0
 10 11  1  0  0  0  0
 11 12  1  0  0  0  0
 12 13  1  0  0  0  0
 13 14  1  0  0  0  0
 14 15  1  0  0  0  0
 15 16  1  0  0  0  0
 15 17  2  0  0  0  0
 15 18  2  0  0  0  0
 11 19  2  0  0  0  0
 19 20  1  0  0  0  0
 20 21  1  0  0  0  0
 20 22  2  0  0  0  0
 22 23  1  0  0  0  0
M  END
$$$$
ELE-IMP-dfb-2
  -OEChem-03232022352D

 22 23  0     0  0  0  0  0  0999 V2000
    5.5770   -3.5816    0.0000 C   0  0  0  0  0  0  0  0  0  0  0  0
    5.2680   -2.6306    0.0000 C   0  0  0  0  0  0  0  0  0  0  0  0
    5.9372   -1.8874    0.0000 O   0  0  0  0  0  0  0  0  0  0  0  0
    4.2899   -2.4226    0.0000 N   0  0  0  0  0  0  0  0  0  0  0  0
    3.9809   -1.4715    0.0000 C   0  0  0  0  0  0  0  0  0  0  0  0
    3.0028   -1.2636    0.0000 C   0  0  0  0  0  0  0  0  0  0  0  0
    2.6938   -0.3125    0.0000 C   0  0  0  0  0  0  0  0  0  0  0  0
    3.2858    0.5023    0.0000 C   0  0  0  0  0  0  0  0  0  0  0  0
    2.6938    1.3169    0.0000 N   0  0  0  0  0  0  0  0  0  0  0  0
    1.7360    1.0058    0.0000 C   0  0  0  0  0  0  0  0  0  0  0  0
    0.8680    1.5138    0.0000 C   0  0  0  0  0  0  0  0  0  0  0  0
    0.8680    2.5138    0.0000 C   0  0  0  0  0  0  0  0  0  0  0  0
    0.0020    3.0138    0.0000 C   0  0  0  0  0  0  0  0  0  0  0  0
    0.0020    4.0138    0.0000 N   0  0  0  0  0  0  0  0  0  0  0  0
   -0.8641    4.5138    0.0000 S   0  0  0  0  0  0  0  0  0  0  0  0
   -1.7301    5.0138    0.0000 C   0  0  0  0  0  0  0  0  0  0  0  0
   -1.3641    3.6478    0.0000 O   0  0  0  0  0  0  0  0  0  0  0  0
   -0.3640    5.3798    0.0000 O   0  0  0  0  0  0  0  0  0  0  0  0
    0.0000    1.0058    0.0000 C   0  0  0  0  0  0  0  0  0  0  0  0
    0.0000    0.0000    0.0000 C   0  0  0  0  0  0  0  0  0  0  0  0
    0.8680   -0.4978    0.0000 C   0  0  0  0  0  0  0  0  0  0  0  0
    1.7360   -0.0012    0.0000 C   0  0  0  0  0  0  0  0  0  0  0  0
  1  2  1  0  0  0  0
  2  3  2  0  0  0  0
  2  4  1  0  0  0  0
  4  5  1  0  0  0  0
  5  6  1  0  0  0  0
  6  7  1  0  0  0  0
  7 22  1  0  0  0  0
  7  8  2  0  0  0  0
  8  9  1  0  0  0  0
  9 10  1  0  0  0  0
 10 22  2  0  0  0  0
 10 11  1  0  0  0  0
 11 12  1  0  0  0  0
 12 13  1  0  0  0  0
 13 14  1  0  0  0  0
 14 15  1  0  0  0  0
 15 16  1  0  0  0  0
 15 17  2  0  0  0  0
 15 18  2  0  0  0  0
 11 19  2  0  0  0  0
 19 20  1  0  0  0  0
 20 21  2  0  0  0  0
 21 22  1  0  0  0  0
M  END
$$$$
ELE-IMP-dfb-3
  -OEChem-03232022352D

 23 25  0     0  0  0  0  0  0999 V2000
    6.2682    0.4288    0.0000 C   0  0  0  0  0  0  0  0  0  0  0  0
    5.5979    1.1709    0.0000 C   0  0  0  0  0  0  0  0  0  0  0  0
    5.9055    2.1225    0.0000 O   0  0  0  0  0  0  0  0  0  0  0  0
    4.6201    0.9615    0.0000 N   0  0  0  0  0  0  0  0  0  0  0  0
    4.3095    0.0013    0.0000 C   0  0  0  0  0  0  0  0  0  0  0  0
    3.3258   -0.2052    0.0000 C   0  0  0  0  0  0  0  0  0  0  0  0
    2.6563    0.5419    0.0000 C   0  0  0  0  0  0  0  0  0  0  0  0
    2.9705    1.4970    0.0000 C   0  0  0  0  0  0  0  0  0  0  0  0
    2.1552    2.0893    0.0000 N   0  0  0  0  0  0  0  0  0  0  0  0
    1.3429    1.4971    0.0000 C   0  0  0  0  0  0  0  0  0  0  0  0
    0.3605    1.7075    0.0000 C   0  0  0  0  0  0  0  0  0  0  0  0
    0.0530    2.6591    0.0000 C   0  0  0  0  0  0  0  0  0  0  0  0
   -0.9248    2.8685    0.0000 C   0  0  0  0  0  0  0  0  0  0  0  0
   -1.2323    3.8201    0.0000 N   0  0  0  0  0  0  0  0  0  0  0  0
   -2.2101    4.0296    0.0000 S   0  0  0  0  0  0  0  0  0  0  0  0
   -3.1879    4.2391    0.0000 C   0  0  0  0  0  0  0  0  0  0  0  0
   -2.4196    3.0518    0.0000 O   0  0  0  0  0  0  0  0  0  0  0  0
   -2.0006    5.0074    0.0000 O   0  0  0  0  0  0  0  0  0  0  0  0
   -0.3143    0.9606    0.0000 C   0  0  0  0  0  0  0  0  0  0  0  0
    0.0000    0.0000    0.0000 C   0  0  0  0  0  0  0  0  0  0  0  0
    0.9816   -0.2059    0.0000 C   0  0  0  0  0  0  0  0  0  0  0  0
    1.6513    0.5386    0.0000 C   0  0  0  0  0  0  0  0  0  0  0  0
    3.9487    1.7045    0.0000 C   0  0  0  0  0  0  0  0  0  0  0  0
  1  2  1  0  0  0  0
  2  3  2  0  0  0  0
  2  4  1  0  0  0  0
  4 23  1  0  0  0  0
  4  5  1  0  0  0  0
  5  6  1  0  0  0  0
  6  7  1  0  0  0  0
  7 22  1  0  0  0  0
  7  8  2  0  0  0  0
  8  9  1  0  0  0  0
  9 10  1  0  0  0  0
 10 22  2  0  0  0  0
 10 11  1  0  0  0  0
 11 12  1  0  0  0  0
 12 13  1  0  0  0  0
 13 14  1  0  0  0  0
 14 15  1  0  0  0  0
 15 16  1  0  0  0  0
 15 17  2  0  0  0  0
 15 18  2  0  0  0  0
 11 19  2  0  0  0  0
 19 20  1  0  0  0  0
 20 21  2  0  0  0  0
 21 22  1  0  0  0  0
  8 23  1  0  0  0  0
M  END
$$$$
ELE-IMP-dfb-4
  -OEChem-03232022352D

 24 26  0     1  0  0  0  0  0999 V2000
    1.7565    5.8368    0.0000 C   0  0  0  0  0  0  0  0  0  0  0  0
    1.0862    5.0947    0.0000 S   0  0  0  0  0  0  0  0  0  0  0  0
    1.8283    4.4244    0.0000 O   0  0  0  0  0  0  0  0  0  0  0  0
    0.3441    5.7651    0.0000 O   0  0  0  0  0  0  0  0  0  0  0  0
    0.4159    4.3527    0.0000 N   0  0  0  0  0  0  0  0  0  0  0  0
    0.7234    3.4011    0.0000 C   0  0  0  0  0  0  0  0  0  0  0  0
    0.0530    2.6591    0.0000 C   0  0  0  0  0  0  0  0  0  0  0  0
    0.3605    1.7075    0.0000 C   0  0  0  0  0  0  0  0  0  0  0  0
   -0.3143    0.9606    0.0000 C   0  0  0  0  0  0  0  0  0  0  0  0
    0.0000    0.0000    0.0000 C   0  0  0  0  0  0  0  0  0  0  0  0
    0.9816   -0.2059    0.0000 C   0  0  0  0  0  0  0  0  0  0  0  0
    1.6513    0.5386    0.0000 C   0  0  0  0  0  0  0  0  0  0  0  0
    2.6563    0.5419    0.0000 C   0  0  0  0  0  0  0  0  0  0  0  0
    2.9705    1.4970    0.0000 C   0  0  0  0  0  0  0  0  0  0  0  0
    2.1552    2.0893    0.0000 N   0  0  0  0  0  0  0  0  0  0  0  0
    1.3429    1.4971    0.0000 C   0  0  0  0  0  0  0  0  0  0  0  0
    3.9487    1.7045    0.0000 C   0  0  0  0  0  0  0  0  0  0  0  0
    4.6201    0.9615    0.0000 N   0  0  3  0  0  0  0  0  0  0  0  0
    5.5979    1.1709    0.0000 S   0  0  0  0  0  0  0  0  0  0  0  0
    6.5758    1.3803    0.0000 C   0  0  0  0  0  0  0  0  0  0  0  0
    5.3885    2.1487    0.0000 O   0  0  0  0  0  0  0  0  0  0  0  0
    5.8073    0.1931    0.0000 O   0  0  0  0  0  0  0  0  0  0  0  0
    4.3095    0.0013    0.0000 C   0  0  0  0  0  0  0  0  0  0  0  0
    3.3258   -0.2052    0.0000 C   0  0  0  0  0  0  0  0  0  0  0  0
  1  2  1  0  0  0  0
  2  3  2  0  0  0  0
  2  4  2  0  0  0  0
  2  5  1  0  0  0  0
  5  6  1  0  0  0  0
  6  7  1  0  0  0  0
  7  8  1  0  0  0  0
  8 16  2  0  0  0  0
  8  9  1  0  0  0  0
  9 10  2  0  0  0  0
 10 11  1  0  0  0  0
 11 12  2  0  0  0  0
 12 16  1  0  0  0  0
 12 13  1  0  0  0  0
 13 24  1  0  0  0  0
 13 14  2  0  0  0  0
 14 15  1  0  0  0  0
 15 16  1  0  0  0  0
 14 17  1  0  0  0  0
 17 18  1  0  0  0  0
 18 19  1  0  0  0  0
 19 20  1  0  0  0  0
 19 21  2  0  0  0  0
 19 22  2  0  0  0  0
 18 23  1  0  0  0  0
 23 24  1  0  0  0  0
M  END
$$$$
ELE-IMP-dfb-5
  -OEChem-03232022352D

 23 24  0     0  0  0  0  0  0999 V2000
    1.3042   -4.4440    0.0000 C   0  0  0  0  0  0  0  0  0  0  0  0
    1.9734   -3.7009    0.0000 S   0  0  0  0  0  0  0  0  0  0  0  0
    1.2303   -3.0317    0.0000 O   0  0  0  0  0  0  0  0  0  0  0  0
    2.7165   -4.3700    0.0000 O   0  0  0  0  0  0  0  0  0  0  0  0
    2.6426   -2.9578    0.0000 N   0  0  0  0  0  0  0  0  0  0  0  0
    2.3336   -2.0067    0.0000 C   0  0  0  0  0  0  0  0  0  0  0  0
    3.0028   -1.2636    0.0000 C   0  0  0  0  0  0  0  0  0  0  0  0
    2.6938   -0.3125    0.0000 C   0  0  0  0  0  0  0  0  0  0  0  0
    3.2858    0.5023    0.0000 C   0  0  0  0  0  0  0  0  0  0  0  0
    2.6938    1.3169    0.0000 N   0  0  0  0  0  0  0  0  0  0  0  0
    1.7360    1.0058    0.0000 C   0  0  0  0  0  0  0  0  0  0  0  0
    0.8680    1.5138    0.0000 C   0  0  0  0  0  0  0  0  0  0  0  0
    0.8680    2.5138    0.0000 C   0  0  0  0  0  0  0  0  0  0  0  0
    0.0020    3.0138    0.0000 C   0  0  0  0  0  0  0  0  0  0  0  0
    0.0020    4.0138    0.0000 N   0  0  0  0  0  0  0  0  0  0  0  0
   -0.8641    4.5138    0.0000 S   0  0  0  0  0  0  0  0  0  0  0  0
   -1.7301    5.0138    0.0000 C   0  0  0  0  0  0  0  0  0  0  0  0
   -1.3641    3.6478    0.0000 O   0  0  0  0  0  0  0  0  0  0  0  0
   -0.3640    5.3798    0.0000 O   0  0  0  0  0  0  0  0  0  0  0  0
    0.0000    1.0058    0.0000 C   0  0  0  0  0  0  0  0  0  0  0  0
    0.0000    0.0000    0.0000 C   0  0  0  0  0  0  0  0  0  0  0  0
    0.8680   -0.4978    0.0000 C   0  0  0  0  0  0  0  0  0  0  0  0
    1.7360   -0.0012    0.0000 C   0  0  0  0  0  0  0  0  0  0  0  0
  1  2  1  0  0  0  0
  2  3  2  0  0  0  0
  2  4  2  0  0  0  0
  2  5  1  0  0  0  0
  5  6  1  0  0  0  0
  6  7  1  0  0  0  0
  7  8  1  0  0  0  0
  8 23  1  0  0  0  0
  8  9  2  0  0  0  0
  9 10  1  0  0  0  0
 10 11  1  0  0  0  0
 11 23  2  0  0  0  0
 11 12  1  0  0  0  0
 12 13  1  0  0  0  0
 13 14  1  0  0  0  0
 14 15  1  0  0  0  0
 15 16  1  0  0  0  0
 16 17  1  0  0  0  0
 16 18  2  0  0  0  0
 16 19  2  0  0  0  0
 12 20  2  0  0  0  0
 20 21  1  0  0  0  0
 21 22  2  0  0  0  0
 22 23  1  0  0  0  0
M  END
$$$$
ELE-IMP-dfb-6
  -OEChem-03232022352D

 14 15  0     0  0  0  0  0  0999 V2000
    5.2858    0.5024    0.0000 N   0  0  0  0  0  0  0  0  0  0  0  0
    4.2858    0.5024    0.0000 S   0  0  0  0  0  0  0  0  0  0  0  0
    4.2859   -0.4976    0.0000 O   0  0  0  0  0  0  0  0  0  0  0  0
    4.2857    1.5024    0.0000 O   0  0  0  0  0  0  0  0  0  0  0  0
    3.2858    0.5023    0.0000 C   0  0  0  0  0  0  0  0  0  0  0  0
    2.6938   -0.3125    0.0000 C   0  0  0  0  0  0  0  0  0  0  0  0
    1.7360   -0.0012    0.0000 C   0  0  0  0  0  0  0  0  0  0  0  0
    0.8680   -0.4978    0.0000 C   0  0  0  0  0  0  0  0  0  0  0  0
    0.0000    0.0000    0.0000 C   0  0  0  0  0  0  0  0  0  0  0  0
   -0.8653   -0.5013    0.0000 F   0  0  0  0  0  0  0  0  0  0  0  0
    0.0000    1.0058    0.0000 C   0  0  0  0  0  0  0  0  0  0  0  0
    0.8680    1.5138    0.0000 C   0  0  0  0  0  0  0  0  0  0  0  0
    1.7360    1.0058    0.0000 C   0  0  0  0  0  0  0  0  0  0  0  0
    2.6938    1.3169    0.0000 N   0  0  0  0  0  0  0  0  0  0  0  0
  1  2  1  0  0  0  0
  2  3  2  0  0  0  0
  2  4  2  0  0  0  0
  2  5  1  0  0  0  0
  5 14  1  0  0  0  0
  5  6  2  0  0  0  0
  6  7  1  0  0  0  0
  7 13  2  0  0  0  0
  7  8  1  0  0  0  0
  8  9  2  0  0  0  0
  9 10  1  0  0  0  0
  9 11  1  0  0  0  0
 11 12  2  0  0  0  0
 12 13  1  0  0  0  0
 13 14  1  0  0  0  0
M  END
$$$$
ANT-STE-dbb-1
  -OEChem-03232022352D

 24 26  0     0  0  0  0  0  0999 V2000
    7.6995    2.0021    0.0000 C   0  0  0  0  0  0  0  0  0  0  0  0
    7.2983    2.9180    0.0000 O   0  0  0  0  0  0  0  0  0  0  0  0
    6.3044    3.0286    0.0000 C   0  0  0  0  0  0  0  0  0  0  0  0
    5.7111    2.2172    0.0000 C   0  0  0  0  0  0  0  0  0  0  0  0
    4.7172    2.3276    0.0000 C   0  0  0  0  0  0  0  0  0  0  0  0
    4.3106    3.2413    0.0000 C   0  0  0  0  0  0  0  0  0  0  0  0
    3.3162    3.3474    0.0000 N   0  0  0  0  0  0  0  0  0  0  0  0
    2.6458    2.6034    0.0000 C   0  0  0  0  0  0  0  0  0  0  0  0
    1.7335    3.0129    0.0000 C   0  0  0  0  0  0  0  0  0  0  0  0
    0.8675    2.5129    0.0000 C   0  0  0  0  0  0  0  0  0  0  0  0
    0.8675    1.5129    0.0000 N   0  0  0  0  0  0  0  0  0  0  0  0
    0.0000    1.0052    0.0000 C   0  0  0  0  0  0  0  0  0  0  0  0
    0.0000    0.0000    0.0000 C   0  0  0  0  0  0  0  0  0  0  0  0
    0.8675   -0.4975    0.0000 N   0  0  0  0  0  0  0  0  0  0  0  0
    0.8675   -1.4975    0.0000 C   0  0  0  0  0  0  0  0  0  0  0  0
    0.0015   -1.9975    0.0000 O   0  0  0  0  0  0  0  0  0  0  0  0
    1.7335   -1.9975    0.0000 C   0  0  0  0  0  0  0  0  0  0  0  0
    1.7335   -2.9975    0.0000 Cl  0  0  0  0  0  0  0  0  0  0  0  0
    1.7350    0.0000    0.0000 C   0  0  0  0  0  0  0  0  0  0  0  0
    1.7350    1.0052    0.0000 C   0  0  0  0  0  0  0  0  0  0  0  0
    1.8351    4.0081    0.0000 N   0  0  0  0  0  0  0  0  0  0  0  0
    2.8179    4.2162    0.0000 N   0  0  0  0  0  0  0  0  0  0  0  0
    4.9039    4.0527    0.0000 C   0  0  0  0  0  0  0  0  0  0  0  0
    5.9038    3.9504    0.0000 C   0  0  0  0  0  0  0  0  0  0  0  0
  1  2  1  0  0  0  0
  2  3  1  0  0  0  0
  3 24  2  0  0  0  0
  3  4  1  0  0  0  0
  4  5  2  0  0  0  0
  5  6  1  0  0  0  0
  6  7  1  0  0  0  0
  7 22  1  0  0  0  0
  7  8  1  0  0  0  0
  8  9  2  0  0  0  0
  9 10  1  0  0  0  0
 10 11  1  0  0  0  0
 11 20  1  0  0  0  0
 11 12  1  0  0  0  0
 12 13  1  0  0  0  0
 13 14  1  0  0  0  0
 14 15  1  0  0  0  0
 15 16  2  0  0  0  0
 15 17  1  0  0  0  0
 17 18  1  0  0  0  0
 14 19  1  0  0  0  0
 19 20  1  0  0  0  0
  9 21  1  0  0  0  0
 21 22  2  0  0  0  0
  6 23  2  0  0  0  0
 23 24  1  0  0  0  0
M  END
$$$$
ANT-STE-dbb-2
  -OEChem-03232022352D

 24 26  0     0  0  0  0  0  0999 V2000
    5.5419    0.5000    0.0000 C   0  0  0  0  0  0  0  0  0  0  0  0
    6.1262    1.3115    0.0000 O   0  0  0  0  0  0  0  0  0  0  0  0
    5.7156    2.2233    0.0000 C   0  0  0  0  0  0  0  0  0  0  0  0
    6.3053    3.0373    0.0000 C   0  0  0  0  0  0  0  0  0  0  0  0
    5.8947    3.9492    0.0000 C   0  0  0  0  0  0  0  0  0  0  0  0
    4.9003    4.0553    0.0000 C   0  0  0  0  0  0  0  0  0  0  0  0
    4.3106    3.2413    0.0000 C   0  0  0  0  0  0  0  0  0  0  0  0
    3.3162    3.3474    0.0000 N   0  0  0  0  0  0  0  0  0  0  0  0
    2.6458    2.6034    0.0000 C   0  0  0  0  0  0  0  0  0  0  0  0
    1.7335    3.0129    0.0000 C   0  0  0  0  0  0  0  0  0  0  0  0
    0.8675    2.5129    0.0000 C   0  0  0  0  0  0  0  0  0  0  0  0
    0.8675    1.5129    0.0000 N   0  0  0  0  0  0  0  0  0  0  0  0
    0.0000    1.0052    0.0000 C   0  0  0  0  0  0  0  0  0  0  0  0
    0.0000    0.0000    0.0000 C   0  0  0  0  0  0  0  0  0  0  0  0
    0.8675   -0.4975    0.0000 N   0  0  0  0  0  0  0  0  0  0  0  0
    0.8675   -1.4975    0.0000 C   0  0  0  0  0  0  0  0  0  0  0  0
    0.0015   -1.9975    0.0000 O   0  0  0  0  0  0  0  0  0  0  0  0
    1.7335   -1.9975    0.0000 C   0  0  0  0  0  0  0  0  0  0  0  0
    1.7335   -2.9975    0.0000 Cl  0  0  0  0  0  0  0  0  0  0  0  0
    1.7350    0.0000    0.0000 C   0  0  0  0  0  0  0  0  0  0  0  0
    1.7350    1.0052    0.0000 C   0  0  0  0  0  0  0  0  0  0  0  0
    1.8351    4.0081    0.0000 N   0  0  0  0  0  0  0  0  0  0  0  0
    2.8179    4.2162    0.0000 N   0  0  0  0  0  0  0  0  0  0  0  0
    4.7152    2.3212    0.0000 C   0  0  0  0  0  0  0  0  0  0  0  0
  1  2  1  0  0  0  0
  2  3  1  0  0  0  0
  3 24  2  0  0  0  0
  3  4  1  0  0  0  0
  4  5  2  0  0  0  0
  5  6  1  0  0  0  0
  6  7  2  0  0  0  0
  7  8  1  0  0  0  0
  8 23  1  0  0  0  0
  8  9  1  0  0  0  0
  9 10  2  0  0  0  0
 10 11  1  0  0  0  0
 11 12  1  0  0  0  0
 12 21  1  0  0  0  0
 12 13  1  0  0  0  0
 13 14  1  0  0  0  0
 14 15  1  0  0  0  0
 15 16  1  0  0  0  0
 16 17  2  0  0  0  0
 16 18  1  0  0  0  0
 18 19  1  0  0  0  0
 15 20  1  0  0  0  0
 20 21  1  0  0  0  0
 10 22  1  0  0  0  0
 22 23  2  0  0  0  0
  7 24  1  0  0  0  0
M  END
$$$$
ANT-STE-dbb-3
  -OEChem-03232022352D

 24 26  0     0  0  0  0  0  0999 V2000
    5.0816    5.7778    0.0000 C   0  0  0  0  0  0  0  0  0  0  0  0
    4.4937    4.9689    0.0000 O   0  0  0  0  0  0  0  0  0  0  0  0
    4.9003    4.0553    0.0000 C   0  0  0  0  0  0  0  0  0  0  0  0
    5.8947    3.9492    0.0000 C   0  0  0  0  0  0  0  0  0  0  0  0
    6.3053    3.0373    0.0000 C   0  0  0  0  0  0  0  0  0  0  0  0
    5.7156    2.2233    0.0000 C   0  0  0  0  0  0  0  0  0  0  0  0
    4.7152    2.3212    0.0000 C   0  0  0  0  0  0  0  0  0  0  0  0
    4.3106    3.2413    0.0000 C   0  0  0  0  0  0  0  0  0  0  0  0
    3.3162    3.3474    0.0000 N   0  0  0  0  0  0  0  0  0  0  0  0
    2.6458    2.6034    0.0000 C   0  0  0  0  0  0  0  0  0  0  0  0
    1.7335    3.0129    0.0000 C   0  0  0  0  0  0  0  0  0  0  0  0
    0.8675    2.5129    0.0000 C   0  0  0  0  0  0  0  0  0  0  0  0
    0.8675    1.5129    0.0000 N   0  0  0  0  0  0  0  0  0  0  0  0
    0.0000    1.0052    0.0000 C   0  0  0  0  0  0  0  0  0  0  0  0
    0.0000    0.0000    0.0000 C   0  0  0  0  0  0  0  0  0  0  0  0
    0.8675   -0.4975    0.0000 N   0  0  0  0  0  0  0  0  0  0  0  0
    0.8675   -1.4975    0.0000 C   0  0  0  0  0  0  0  0  0  0  0  0
    0.0015   -1.9975    0.0000 O   0  0  0  0  0  0  0  0  0  0  0  0
    1.7335   -1.9975    0.0000 C   0  0  0  0  0  0  0  0  0  0  0  0
    1.7335   -2.9975    0.0000 Cl  0  0  0  0  0  0  0  0  0  0  0  0
    1.7350    0.0000    0.0000 C   0  0  0  0  0  0  0  0  0  0  0  0
    1.7350    1.0052    0.0000 C   0  0  0  0  0  0  0  0  0  0  0  0
    1.8351    4.0081    0.0000 N   0  0  0  0  0  0  0  0  0  0  0  0
    2.8179    4.2162    0.0000 N   0  0  0  0  0  0  0  0  0  0  0  0
  1  2  1  0  0  0  0
  2  3  1  0  0  0  0
  3  8  2  0  0  0  0
  3  4  1  0  0  0  0
  4  5  2  0  0  0  0
  5  6  1  0  0  0  0
  6  7  2  0  0  0  0
  7  8  1  0  0  0  0
  8  9  1  0  0  0  0
  9 24  1  0  0  0  0
  9 10  1  0  0  0  0
 10 11  2  0  0  0  0
 11 12  1  0  0  0  0
 12 13  1  0  0  0  0
 13 22  1  0  0  0  0
 13 14  1  0  0  0  0
 14 15  1  0  0  0  0
 15 16  1  0  0  0  0
 16 17  1  0  0  0  0
 17 18  2  0  0  0  0
 17 19  1  0  0  0  0
 19 20  1  0  0  0  0
 16 21  1  0  0  0  0
 21 22  1  0  0  0  0
 11 23  1  0  0  0  0
 23 24  2  0  0  0  0
M  END
$$$$
DUN-NEW-d83-1
  -OEChem-03232022352D

 23 25  0     1  0  0  0  0  0999 V2000
   -0.4188   -2.0020    0.0000 N   0  0  0  0  0  0  0  0  0  0  0  0
    0.2468   -2.7483    0.0000 C   0  0  0  0  0  0  0  0  0  0  0  0
   -0.0667   -3.6979    0.0000 O   0  0  0  0  0  0  0  0  0  0  0  0
    1.2260   -2.5451    0.0000 C   0  0  2  0  0  0  0  0  0  0  0  0
    1.3266   -3.5400    0.0000 H   0  0  0  0  0  0  0  0  0  0  0  0
    0.9223   -1.5922    0.0000 C   0  0  0  0  0  0  0  0  0  0  0  0
    1.7313   -1.0038    0.0000 N   0  0  3  0  0  0  0  0  0  0  0  0
    1.7328   -0.0038    0.0000 C   0  0  0  0  0  0  0  0  0  0  0  0
    0.8675    0.4975    0.0000 C   0  0  0  0  0  0  0  0  0  0  0  0
    0.0000    0.0000    0.0000 C   0  0  0  0  0  0  0  0  0  0  0  0
   -0.8675    0.4975    0.0000 C   0  0  0  0  0  0  0  0  0  0  0  0
   -0.8675    1.5027    0.0000 C   0  0  0  0  0  0  0  0  0  0  0  0
    0.0000    2.0104    0.0000 N   0  0  0  0  0  0  0  0  0  0  0  0
    0.8675    1.5027    0.0000 C   0  0  0  0  0  0  0  0  0  0  0  0
    2.5421   -1.5971    0.0000 C   0  0  0  0  0  0  0  0  0  0  0  0
    2.2274   -2.5480    0.0000 C   0  0  1  0  0  0  0  0  0  0  0  0
    2.1192   -3.5422    0.0000 H   0  0  0  0  0  0  0  0  0  0  0  0
    3.2046   -2.7604    0.0000 C   0  0  0  0  0  0  0  0  0  0  0  0
    3.8785   -2.0145    0.0000 C   0  0  0  0  0  0  0  0  0  0  0  0
    4.8557   -2.2268    0.0000 C   0  0  0  0  0  0  0  0  0  0  0  0
    5.1659   -3.1775    0.0000 C   0  0  0  0  0  0  0  0  0  0  0  0
    4.4921   -3.9234    0.0000 C   0  0  0  0  0  0  0  0  0  0  0  0
    3.5080   -3.7187    0.0000 C   0  0  0  0  0  0  0  0  0  0  0  0
  1  2  1  0  0  0  0
  2  3  2  0  0  0  0
  2  4  1  0  0  0  0
  4  5  1  1  0  0  0
  4 16  1  0  0  0  0
  4  6  1  0  0  0  0
  6  7  1  0  0  0  0
  7  8  1  0  0  0  0
  8  9  1  0  0  0  0
  9 14  2  0  0  0  0
  9 10  1  0  0  0  0
 10 11  2  0  0  0  0
 11 12  1  0  0  0  0
 12 13  2  0  0  0  0
 13 14  1  0  0  0  0
  7 15  1  0  0  0  0
 15 16  1  0  0  0  0
 16 17  1  6  0  0  0
 16 18  1  0  0  0  0
 18 23  2  0  0  0  0
 18 19  1  0  0  0  0
 19 20  2  0  0  0  0
 20 21  1  0  0  0  0
 21 22  2  0  0  0  0
 22 23  1  0  0  0  0
M  END
$$$$
AVI-UNI-cf0-1
  -OEChem-03232022352D

 27 31  0     1  0  0  0  0  0999 V2000
   -0.8653   -0.5012    0.0000 C   0  0  0  0  0  0  0  0  0  0  0  0
    0.0000    0.0000    0.0000 N   0  0  3  0  0  0  0  0  0  0  0  0
    0.0000    1.0057    0.0000 C   0  0  0  0  0  0  0  0  0  0  0  0
    0.8679    1.5135    0.0000 C   0  0  0  0  0  0  0  0  0  0  0  0
    1.7358    1.0057    0.0000 N   0  0  0  0  0  0  0  0  0  0  0  0
    1.7371   -0.0000    0.0000 C   0  0  0  0  0  0  0  0  0  0  0  0
    2.6038   -0.4989    0.0000 C   0  0  0  0  0  0  0  0  0  0  0  0
    3.4748    0.0022    0.0000 C   0  0  0  0  0  0  0  0  0  0  0  0
    4.3408   -0.4979    0.0000 C   0  0  0  0  0  0  0  0  0  0  0  0
    5.2563   -0.0915    0.0000 C   0  0  0  0  0  0  0  0  0  0  0  0
    5.9274   -0.8349    0.0000 C   0  0  0  0  0  0  0  0  0  0  0  0
    6.9219   -0.7303    0.0000 O   0  0  0  0  0  0  0  0  0  0  0  0
    5.4262   -1.7002    0.0000 C   0  0  0  0  0  0  0  0  0  0  0  0
    4.4466   -1.4970    0.0000 O   0  0  0  0  0  0  0  0  0  0  0  0
    3.4735    1.0079    0.0000 C   0  0  0  0  0  0  0  0  0  0  0  0
    4.3394    1.5081    0.0000 C   0  0  0  0  0  0  0  0  0  0  0  0
    5.2596    1.0988    0.0000 C   0  0  0  0  0  0  0  0  0  0  0  0
    5.9331    1.8474    0.0000 O   0  0  0  0  0  0  0  0  0  0  0  0
    5.4294    2.7194    0.0000 C   0  0  0  0  0  0  0  0  0  0  0  0
    5.7455    3.6742    0.0000 N   0  0  0  0  0  0  0  0  0  0  0  0
    5.0679    4.4174    0.0000 C   0  0  0  0  0  0  0  0  0  0  0  0
    4.0841    4.2080    0.0000 C   0  0  0  0  0  0  0  0  0  0  0  0
    3.7780    3.2553    0.0000 C   0  0  0  0  0  0  0  0  0  0  0  0
    4.4444    2.5098    0.0000 C   0  0  0  0  0  0  0  0  0  0  0  0
    2.6012    1.5124    0.0000 C   0  0  0  0  0  0  0  0  0  0  0  0
    2.5985    2.5124    0.0000 O   0  0  0  0  0  0  0  0  0  0  0  0
    0.8679   -0.4978    0.0000 C   0  0  0  0  0  0  0  0  0  0  0  0
  1  2  1  0  0  0  0
  2 27  1  0  0  0  0
  2  3  1  0  0  0  0
  3  4  1  0  0  0  0
  4  5  1  0  0  0  0
  5 25  1  0  0  0  0
  5  6  1  0  0  0  0
  6  7  2  0  0  0  0
  7  8  1  0  0  0  0
  8  9  1  0  0  0  0
  9 14  1  0  0  0  0
  9 10  2  0  0  0  0
 10 11  1  0  0  0  0
 11 12  2  0  0  0  0
 11 13  1  0  0  0  0
 13 14  1  0  0  0  0
  8 15  2  0  0  0  0
 15 16  1  0  0  0  0
 16 24  1  0  0  0  0
 16 17  2  0  0  0  0
 17 18  1  0  0  0  0
 18 19  1  0  0  0  0
 19 24  2  0  0  0  0
 19 20  1  0  0  0  0
 20 21  2  0  0  0  0
 21 22  1  0  0  0  0
 22 23  2  0  0  0  0
 23 24  1  0  0  0  0
 15 25  1  0  0  0  0
 25 26  2  0  0  0  0
  6 27  1  0  0  0  0
M  END
$$$$
AVI-UNI-cf0-2
  -OEChem-03232022352D

 34 39  0     1  0  0  0  0  0999 V2000
   -4.3401   -0.5034    0.0000 C   0  0  0  0  0  0  0  0  0  0  0  0
   -3.4748   -0.0022    0.0000 N   0  0  3  0  0  0  0  0  0  0  0  0
   -2.6069   -0.5000    0.0000 C   0  0  0  0  0  0  0  0  0  0  0  0
   -1.7377   -0.0022    0.0000 C   0  0  0  0  0  0  0  0  0  0  0  0
   -0.8710   -0.5011    0.0000 C   0  0  0  0  0  0  0  0  0  0  0  0
    0.0000    0.0000    0.0000 C   0  0  0  0  0  0  0  0  0  0  0  0
    0.8660   -0.5001    0.0000 C   0  0  0  0  0  0  0  0  0  0  0  0
    1.7815   -0.0937    0.0000 C   0  0  0  0  0  0  0  0  0  0  0  0
    2.4526   -0.8371    0.0000 C   0  0  0  0  0  0  0  0  0  0  0  0
    3.4471   -0.7325    0.0000 O   0  0  0  0  0  0  0  0  0  0  0  0
    1.9514   -1.7024    0.0000 C   0  0  0  0  0  0  0  0  0  0  0  0
    0.9718   -1.4992    0.0000 O   0  0  0  0  0  0  0  0  0  0  0  0
   -0.0013    1.0057    0.0000 C   0  0  0  0  0  0  0  0  0  0  0  0
    0.8646    1.5059    0.0000 C   0  0  0  0  0  0  0  0  0  0  0  0
    1.7848    1.0966    0.0000 C   0  0  0  0  0  0  0  0  0  0  0  0
    2.4583    1.8452    0.0000 O   0  0  0  0  0  0  0  0  0  0  0  0
    1.9546    2.7172    0.0000 C   0  0  0  0  0  0  0  0  0  0  0  0
    2.2707    3.6720    0.0000 N   0  0  0  0  0  0  0  0  0  0  0  0
    1.5931    4.4152    0.0000 C   0  0  0  0  0  0  0  0  0  0  0  0
    0.6093    4.2058    0.0000 C   0  0  0  0  0  0  0  0  0  0  0  0
    0.3032    3.2531    0.0000 C   0  0  0  0  0  0  0  0  0  0  0  0
    0.9696    2.5076    0.0000 C   0  0  0  0  0  0  0  0  0  0  0  0
   -0.8736    1.5102    0.0000 C   0  0  0  0  0  0  0  0  0  0  0  0
   -0.8763    2.5102    0.0000 O   0  0  0  0  0  0  0  0  0  0  0  0
   -1.7390    1.0035    0.0000 N   0  0  0  0  0  0  0  0  0  0  0  0
   -2.6069    1.5113    0.0000 C   0  0  0  0  0  0  0  0  0  0  0  0
   -3.4748    1.0035    0.0000 C   0  0  3  0  0  0  0  0  0  0  0  0
   -4.3423    1.5010    0.0000 C   0  0  3  0  0  0  0  0  0  0  0  0
   -5.2054    0.9960    0.0000 C   0  0  0  0  0  0  0  0  0  0  0  0
   -6.0774    1.4960    0.0000 C   0  0  0  0  0  0  0  0  0  0  0  0
   -6.0862    2.5012    0.0000 N   0  0  0  0  0  0  0  0  0  0  0  0
   -5.2142    3.0011    0.0000 C   0  0  0  0  0  0  0  0  0  0  0  0
   -5.2142    4.0011    0.0000 O   0  0  0  0  0  0  0  0  0  0  0  0
   -4.3423    2.5010    0.0000 C   0  0  0  0  0  0  0  0  0  0  0  0
  1  2  1  0  0  0  0
  2 27  1  0  0  0  0
  2  3  1  0  0  0  0
  3  4  1  0  0  0  0
  4 25  1  0  0  0  0
  4  5  2  0  0  0  0
  5  6  1  0  0  0  0
  6  7  1  0  0  0  0
  7 12  1  0  0  0  0
  7  8  2  0  0  0  0
  8  9  1  0  0  0  0
  9 10  2  0  0  0  0
  9 11  1  0  0  0  0
 11 12  1  0  0  0  0
  6 13  2  0  0  0  0
 13 14  1  0  0  0  0
 14 22  1  0  0  0  0
 14 15  2  0  0  0  0
 15 16  1  0  0  0  0
 16 17  1  0  0  0  0
 17 22  2  0  0  0  0
 17 18  1  0  0  0  0
 18 19  2  0  0  0  0
 19 20  1  0  0  0  0
 20 21  2  0  0  0  0
 21 22  1  0  0  0  0
 13 23  1  0  0  0  0
 23 24  2  0  0  0  0
 23 25  1  0  0  0  0
 25 26  1  0  0  0  0
 26 27  1  0  0  0  0
 27 28  1  0  0  0  0
 28 34  1  0  0  0  0
 28 29  1  0  0  0  0
 29 30  1  0  0  0  0
 30 31  1  0  0  0  0
 31 32  1  0  0  0  0
 32 33  2  0  0  0  0
 32 34  1  0  0  0  0
M  END
$$$$
AGN-NEW-cce-1
  -OEChem-03232022352D

 23 24  0     0  0  0  0  0  0999 V2000
   -0.8778   -1.5076    0.0000 C   0  0  0  0  0  0  0  0  0  0  0  0
   -0.8763   -2.5076    0.0000 C   0  0  0  0  0  0  0  0  0  0  0  0
   -0.0095   -3.0063    0.0000 C   0  0  0  0  0  0  0  0  0  0  0  0
   -0.0080   -4.0063    0.0000 O   0  0  0  0  0  0  0  0  0  0  0  0
    0.8557   -2.5050    0.0000 N   0  0  0  0  0  0  0  0  0  0  0  0
    1.7225   -3.0037    0.0000 C   0  0  0  0  0  0  0  0  0  0  0  0
    1.7299   -4.0089    0.0000 C   0  0  0  0  0  0  0  0  0  0  0  0
    0.8662   -4.5127    0.0000 C   0  0  0  0  0  0  0  0  0  0  0  0
    2.6012   -4.5102    0.0000 C   0  0  0  0  0  0  0  0  0  0  0  0
    3.4651   -4.0063    0.0000 C   0  0  0  0  0  0  0  0  0  0  0  0
    3.4665   -3.0063    0.0000 C   0  0  0  0  0  0  0  0  0  0  0  0
    2.5952   -2.5050    0.0000 C   0  0  0  0  0  0  0  0  0  0  0  0
    2.5966   -1.5050    0.0000 C   0  0  0  0  0  0  0  0  0  0  0  0
    1.7313   -1.0038    0.0000 C   0  0  0  0  0  0  0  0  0  0  0  0
    0.8646   -1.5025    0.0000 O   0  0  0  0  0  0  0  0  0  0  0  0
    1.7328   -0.0038    0.0000 N   0  0  0  0  0  0  0  0  0  0  0  0
    0.8675    0.4975    0.0000 C   0  0  0  0  0  0  0  0  0  0  0  0
    0.0000    0.0000    0.0000 C   0  0  0  0  0  0  0  0  0  0  0  0
   -0.8675    0.4975    0.0000 C   0  0  0  0  0  0  0  0  0  0  0  0
   -0.8675    1.5027    0.0000 C   0  0  0  0  0  0  0  0  0  0  0  0
    0.0000    2.0104    0.0000 N   0  0  0  0  0  0  0  0  0  0  0  0
    0.8675    1.5027    0.0000 C   0  0  0  0  0  0  0  0  0  0  0  0
    1.7350    2.0001    0.0000 Cl  0  0  0  0  0  0  0  0  0  0  0  0
  1  2  2  0  0  0  0
  2  3  1  0  0  0  0
  3  4  2  0  0  0  0
  3  5  1  0  0  0  0
  5  6  1  0  0  0  0
  6 12  2  0  0  0  0
  6  7  1  0  0  0  0
  7  8  1  0  0  0  0
  7  9  2  0  0  0  0
  9 10  1  0  0  0  0
 10 11  2  0  0  0  0
 11 12  1  0  0  0  0
 12 13  1  0  0  0  0
 13 14  1  0  0  0  0
 14 15  2  0  0  0  0
 14 16  1  0  0  0  0
 16 17  1  0  0  0  0
 17 22  2  0  0  0  0
 17 18  1  0  0  0  0
 18 19  2  0  0  0  0
 19 20  1  0  0  0  0
 20 21  2  0  0  0  0
 21 22  1  0  0  0  0
 22 23  1  0  0  0  0
M  END
$$$$
AGN-NEW-cce-2
  -OEChem-03232022352D

 23 24  0     0  0  0  0  0  0999 V2000
   -0.8778   -1.5076    0.0000 C   0  0  0  0  0  0  0  0  0  0  0  0
   -0.8763   -2.5076    0.0000 C   0  0  0  0  0  0  0  0  0  0  0  0
   -0.0095   -3.0063    0.0000 C   0  0  0  0  0  0  0  0  0  0  0  0
   -0.0080   -4.0063    0.0000 O   0  0  0  0  0  0  0  0  0  0  0  0
    0.8557   -2.5050    0.0000 N   0  0  0  0  0  0  0  0  0  0  0  0
    1.7225   -3.0037    0.0000 C   0  0  0  0  0  0  0  0  0  0  0  0
    1.7299   -4.0089    0.0000 C   0  0  0  0  0  0  0  0  0  0  0  0
    0.8662   -4.5127    0.0000 Cl  0  0  0  0  0  0  0  0  0  0  0  0
    2.6012   -4.5102    0.0000 C   0  0  0  0  0  0  0  0  0  0  0  0
    3.4651   -4.0063    0.0000 C   0  0  0  0  0  0  0  0  0  0  0  0
    3.4665   -3.0063    0.0000 C   0  0  0  0  0  0  0  0  0  0  0  0
    2.5952   -2.5050    0.0000 C   0  0  0  0  0  0  0  0  0  0  0  0
    2.5966   -1.5050    0.0000 C   0  0  0  0  0  0  0  0  0  0  0  0
    1.7313   -1.0038    0.0000 C   0  0  0  0  0  0  0  0  0  0  0  0
    0.8646   -1.5025    0.0000 O   0  0  0  0  0  0  0  0  0  0  0  0
    1.7328   -0.0038    0.0000 N   0  0  0  0  0  0  0  0  0  0  0  0
    0.8675    0.4975    0.0000 C   0  0  0  0  0  0  0  0  0  0  0  0
    0.0000    0.0000    0.0000 C   0  0  0  0  0  0  0  0  0  0  0  0
   -0.8675    0.4975    0.0000 C   0  0  0  0  0  0  0  0  0  0  0  0
   -0.8675    1.5027    0.0000 C   0  0  0  0  0  0  0  0  0  0  0  0
    0.0000    2.0104    0.0000 N   0  0  0  0  0  0  0  0  0  0  0  0
    0.8675    1.5027    0.0000 C   0  0  0  0  0  0  0  0  0  0  0  0
    1.7350    2.0001    0.0000 C   0  0  0  0  0  0  0  0  0  0  0  0
  1  2  2  0  0  0  0
  2  3  1  0  0  0  0
  3  4  2  0  0  0  0
  3  5  1  0  0  0  0
  5  6  1  0  0  0  0
  6 12  2  0  0  0  0
  6  7  1  0  0  0  0
  7  8  1  0  0  0  0
  7  9  2  0  0  0  0
  9 10  1  0  0  0  0
 10 11  2  0  0  0  0
 11 12  1  0  0  0  0
 12 13  1  0  0  0  0
 13 14  1  0  0  0  0
 14 15  2  0  0  0  0
 14 16  1  0  0  0  0
 16 17  1  0  0  0  0
 17 22  2  0  0  0  0
 17 18  1  0  0  0  0
 18 19  2  0  0  0  0
 19 20  1  0  0  0  0
 20 21  2  0  0  0  0
 21 22  1  0  0  0  0
 22 23  1  0  0  0  0
M  END
$$$$
AGN-NEW-cce-3
  -OEChem-03232022352D

 24 25  0     0  0  0  0  0  0999 V2000
   -0.8734   -1.5153    0.0000 C   0  0  0  0  0  0  0  0  0  0  0  0
   -0.8719   -2.5153    0.0000 C   0  0  0  0  0  0  0  0  0  0  0  0
   -0.0051   -3.0140    0.0000 C   0  0  0  0  0  0  0  0  0  0  0  0
   -0.0036   -4.0140    0.0000 O   0  0  0  0  0  0  0  0  0  0  0  0
    0.8602   -2.5128    0.0000 N   0  0  0  0  0  0  0  0  0  0  0  0
    1.7270   -3.0115    0.0000 C   0  0  0  0  0  0  0  0  0  0  0  0
    1.7255   -4.0167    0.0000 C   0  0  0  0  0  0  0  0  0  0  0  0
    0.8595   -4.5167    0.0000 C   0  0  0  0  0  0  0  0  0  0  0  0
    2.5923   -4.5154    0.0000 C   0  0  0  0  0  0  0  0  0  0  0  0
    3.4605   -4.0192    0.0000 C   0  0  0  0  0  0  0  0  0  0  0  0
    3.4620   -3.0140    0.0000 C   0  0  0  0  0  0  0  0  0  0  0  0
    4.3302   -2.5178    0.0000 C   0  0  0  0  0  0  0  0  0  0  0  0
    2.5952   -2.5050    0.0000 C   0  0  0  0  0  0  0  0  0  0  0  0
    2.5966   -1.5050    0.0000 C   0  0  0  0  0  0  0  0  0  0  0  0
    1.7313   -1.0038    0.0000 C   0  0  0  0  0  0  0  0  0  0  0  0
    0.8646   -1.5025    0.0000 O   0  0  0  0  0  0  0  0  0  0  0  0
    1.7328   -0.0038    0.0000 N   0  0  0  0  0  0  0  0  0  0  0  0
    0.8675    0.4975    0.0000 C   0  0  0  0  0  0  0  0  0  0  0  0
    0.0000    0.0000    0.0000 C   0  0  0  0  0  0  0  0  0  0  0  0
   -0.8675    0.4975    0.0000 C   0  0  0  0  0  0  0  0  0  0  0  0
   -0.8675    1.5027    0.0000 C   0  0  0  0  0  0  0  0  0  0  0  0
    0.0000    2.0104    0.0000 N   0  0  0  0  0  0  0  0  0  0  0  0
    0.8675    1.5027    0.0000 C   0  0  0  0  0  0  0  0  0  0  0  0
    1.7350    2.0001    0.0000 Cl  0  0  0  0  0  0  0  0  0  0  0  0
  1  2  2  0  0  0  0
  2  3  1  0  0  0  0
  3  4  2  0  0  0  0
  3  5  1  0  0  0  0
  5  6  1  0  0  0  0
  6 13  2  0  0  0  0
  6  7  1  0  0  0  0
  7  8  1  0  0  0  0
  7  9  2  0  0  0  0
  9 10  1  0  0  0  0
 10 11  2  0  0  0  0
 11 12  1  0  0  0  0
 11 13  1  0  0  0  0
 13 14  1  0  0  0  0
 14 15  1  0  0  0  0
 15 16  2  0  0  0  0
 15 17  1  0  0  0  0
 17 18  1  0  0  0  0
 18 23  2  0  0  0  0
 18 19  1  0  0  0  0
 19 20  2  0  0  0  0
 20 21  1  0  0  0  0
 21 22  2  0  0  0  0
 22 23  1  0  0  0  0
 23 24  1  0  0  0  0
M  END
$$$$
SAL-INS-cba-1
  -OEChem-03232022352D

 32 36  0     0  0  0  0  0  0999 V2000
    4.0868    1.7121    0.0000 O   0  0  0  0  0  0  0  0  0  0  0  0
    4.5825    0.8436    0.0000 C   0  0  0  0  0  0  0  0  0  0  0  0
    5.5825    0.8387    0.0000 N   0  0  0  0  0  0  0  0  0  0  0  0
    6.0868    1.7022    0.0000 C   0  0  0  0  0  0  0  0  0  0  0  0
    7.0822    1.7987    0.0000 C   0  0  0  0  0  0  0  0  0  0  0  0
    7.2957    2.7772    0.0000 N   0  0  0  0  0  0  0  0  0  0  0  0
    6.4321    3.2847    0.0000 C   0  0  0  0  0  0  0  0  0  0  0  0
    5.6816    2.6169    0.0000 N   0  0  0  0  0  0  0  0  0  0  0  0
    4.0782   -0.0199    0.0000 N   0  0  0  0  0  0  0  0  0  0  0  0
    3.0782   -0.0149    0.0000 C   0  0  0  0  0  0  0  0  0  0  0  0
    2.4944    0.7970    0.0000 S   0  0  0  0  0  0  0  0  0  0  0  0
    1.5413    0.4930    0.0000 C   0  0  0  0  0  0  0  0  0  0  0  0
    0.5915    0.8064    0.0000 C   0  0  0  0  0  0  0  0  0  0  0  0
    0.0000    0.0000    0.0000 C   0  0  0  0  0  0  0  0  0  0  0  0
   -1.0000    0.0045    0.0000 C   0  0  0  0  0  0  0  0  0  0  0  0
   -1.5039   -0.8592    0.0000 C   0  0  0  0  0  0  0  0  0  0  0  0
   -2.5039   -0.8547    0.0000 C   0  0  0  0  0  0  0  0  0  0  0  0
   -3.0971   -1.6618    0.0000 N   0  0  0  0  0  0  0  0  0  0  0  0
   -4.0486   -1.3493    0.0000 C   0  0  0  0  0  0  0  0  0  0  0  0
   -4.0429   -0.3493    0.0000 C   0  0  0  0  0  0  0  0  0  0  0  0
   -3.0915   -0.0398    0.0000 N   0  0  0  0  0  0  0  0  0  0  0  0
    0.5842   -0.8118    0.0000 N   0  0  0  0  0  0  0  0  0  0  0  0
    1.5367   -0.5071    0.0000 C   0  0  0  0  0  0  0  0  0  0  0  0
    2.4863   -0.8210    0.0000 C   0  0  0  0  0  0  0  0  0  0  0  0
    2.7905   -1.7736    0.0000 C   0  0  0  0  0  0  0  0  0  0  0  0
    3.7676   -1.9865    0.0000 C   0  0  0  0  0  0  0  0  0  0  0  0
    4.4418   -1.2409    0.0000 C   0  0  0  0  0  0  0  0  0  0  0  0
    5.4189   -1.4537    0.0000 C   0  0  0  0  0  0  0  0  0  0  0  0
    5.7287   -2.4046    0.0000 C   0  0  0  0  0  0  0  0  0  0  0  0
    6.7067   -2.6131    0.0000 O   0  0  0  0  0  0  0  0  0  0  0  0
    5.0545   -3.1501    0.0000 C   0  0  0  0  0  0  0  0  0  0  0  0
    4.0705   -2.9449    0.0000 C   0  0  0  0  0  0  0  0  0  0  0  0
  1  2  2  0  0  0  0
  2  3  1  0  0  0  0
  3  4  1  0  0  0  0
  4  8  1  0  0  0  0
  4  5  2  0  0  0  0
  5  6  1  0  0  0  0
  6  7  2  0  0  0  0
  7  8  1  0  0  0  0
  2  9  1  0  0  0  0
  9 10  1  0  0  0  0
 10 24  2  0  0  0  0
 10 11  1  0  0  0  0
 11 12  1  0  0  0  0
 12 23  2  0  0  0  0
 12 13  1  0  0  0  0
 13 14  2  0  0  0  0
 14 15  1  0  0  0  0
 15 16  1  0  0  0  0
 16 17  1  0  0  0  0
 17 21  1  0  0  0  0
 17 18  2  0  0  0  0
 18 19  1  0  0  0  0
 19 20  2  0  0  0  0
 20 21  1  0  0  0  0
 14 22  1  0  0  0  0
 22 23  1  0  0  0  0
 23 24  1  0  0  0  0
 24 25  1  0  0  0  0
 25 26  1  0  0  0  0
 26 32  1  0  0  0  0
 26 27  1  0  0  0  0
 27 28  1  0  0  0  0
 28 29  1  0  0  0  0
 29 30  1  0  0  0  0
 29 31  1  0  0  0  0
 31 32  1  0  0  0  0
M  END
$$$$
SAL-INS-cba-2
  -OEChem-03232022352D

 24 27  0     0  0  0  0  0  0999 V2000
    4.0868    1.7121    0.0000 O   0  0  0  0  0  0  0  0  0  0  0  0
    4.5825    0.8436    0.0000 C   0  0  0  0  0  0  0  0  0  0  0  0
    5.5825    0.8387    0.0000 N   0  0  0  0  0  0  0  0  0  0  0  0
    6.0868    1.7022    0.0000 C   0  0  0  0  0  0  0  0  0  0  0  0
    7.0822    1.7987    0.0000 C   0  0  0  0  0  0  0  0  0  0  0  0
    7.2957    2.7772    0.0000 N   0  0  0  0  0  0  0  0  0  0  0  0
    6.4321    3.2847    0.0000 C   0  0  0  0  0  0  0  0  0  0  0  0
    5.6816    2.6169    0.0000 N   0  0  0  0  0  0  0  0  0  0  0  0
    4.0782   -0.0199    0.0000 N   0  0  0  0  0  0  0  0  0  0  0  0
    3.0782   -0.0149    0.0000 C   0  0  0  0  0  0  0  0  0  0  0  0
    2.4863   -0.8210    0.0000 C   0  0  0  0  0  0  0  0  0  0  0  0
    1.5367   -0.5071    0.0000 C   0  0  0  0  0  0  0  0  0  0  0  0
    0.5842   -0.8118    0.0000 N   0  0  0  0  0  0  0  0  0  0  0  0
    0.0000    0.0000    0.0000 C   0  0  0  0  0  0  0  0  0  0  0  0
    0.5915    0.8064    0.0000 C   0  0  0  0  0  0  0  0  0  0  0  0
    0.2868    1.7589    0.0000 C   0  0  0  0  0  0  0  0  0  0  0  0
   -0.6904    1.9712    0.0000 C   0  0  0  0  0  0  0  0  0  0  0  0
   -0.9951    2.9237    0.0000 C   0  0  0  0  0  0  0  0  0  0  0  0
   -1.9460    3.2384    0.0000 N   0  0  0  0  0  0  0  0  0  0  0  0
   -1.9429    4.2399    0.0000 C   0  0  0  0  0  0  0  0  0  0  0  0
   -0.9900    4.5435    0.0000 C   0  0  0  0  0  0  0  0  0  0  0  0
   -0.4016    3.7343    0.0000 N   0  0  0  0  0  0  0  0  0  0  0  0
    1.5413    0.4930    0.0000 C   0  0  0  0  0  0  0  0  0  0  0  0
    2.4944    0.7970    0.0000 S   0  0  0  0  0  0  0  0  0  0  0  0
  1  2  2  0  0  0  0
  2  3  1  0  0  0  0
  3  4  1  0  0  0  0
  4  8  1  0  0  0  0
  4  5  2  0  0  0  0
  5  6  1  0  0  0  0
  6  7  1  0  0  0  0
  7  8  2  0  0  0  0
  2  9  1  0  0  0  0
  9 10  1  0  0  0  0
 10 24  1  0  0  0  0
 10 11  2  0  0  0  0
 11 12  1  0  0  0  0
 12 23  2  0  0  0  0
 12 13  1  0  0  0  0
 13 14  1  0  0  0  0
 14 15  2  0  0  0  0
 15 16  1  0  0  0  0
 16 17  1  0  0  0  0
 17 18  1  0  0  0  0
 18 22  1  0  0  0  0
 18 19  2  0  0  0  0
 19 20  1  0  0  0  0
 20 21  2  0  0  0  0
 21 22  1  0  0  0  0
 15 23  1  0  0  0  0
 23 24  1  0  0  0  0
M  END
$$$$
SAL-INS-cba-3
  -OEChem-03232022352D

 25 28  0     0  0  0  0  0  0999 V2000
    4.0868    1.7121    0.0000 O   0  0  0  0  0  0  0  0  0  0  0  0
    4.5825    0.8436    0.0000 C   0  0  0  0  0  0  0  0  0  0  0  0
    5.5825    0.8387    0.0000 N   0  0  0  0  0  0  0  0  0  0  0  0
    6.0868    1.7022    0.0000 C   0  0  0  0  0  0  0  0  0  0  0  0
    7.0822    1.7987    0.0000 C   0  0  0  0  0  0  0  0  0  0  0  0
    7.2957    2.7772    0.0000 N   0  0  0  0  0  0  0  0  0  0  0  0
    6.4321    3.2847    0.0000 C   0  0  0  0  0  0  0  0  0  0  0  0
    5.6816    2.6169    0.0000 N   0  0  0  0  0  0  0  0  0  0  0  0
    4.0782   -0.0199    0.0000 N   0  0  0  0  0  0  0  0  0  0  0  0
    3.0782   -0.0149    0.0000 C   0  0  0  0  0  0  0  0  0  0  0  0
    2.4944    0.7970    0.0000 S   0  0  0  0  0  0  0  0  0  0  0  0
    1.5413    0.4930    0.0000 C   0  0  0  0  0  0  0  0  0  0  0  0
    0.5915    0.8064    0.0000 C   0  0  0  0  0  0  0  0  0  0  0  0
    0.0000    0.0000    0.0000 C   0  0  0  0  0  0  0  0  0  0  0  0
    0.5842   -0.8118    0.0000 N   0  0  0  0  0  0  0  0  0  0  0  0
    1.5367   -0.5071    0.0000 C   0  0  0  0  0  0  0  0  0  0  0  0
    2.4863   -0.8210    0.0000 C   0  0  0  0  0  0  0  0  0  0  0  0
    2.7905   -1.7736    0.0000 C   0  0  0  0  0  0  0  0  0  0  0  0
    3.7676   -1.9865    0.0000 C   0  0  0  0  0  0  0  0  0  0  0  0
    4.4418   -1.2409    0.0000 C   0  0  0  0  0  0  0  0  0  0  0  0
    5.4189   -1.4537    0.0000 C   0  0  0  0  0  0  0  0  0  0  0  0
    5.7287   -2.4046    0.0000 C   0  0  0  0  0  0  0  0  0  0  0  0
    6.7067   -2.6131    0.0000 O   0  0  0  0  0  0  0  0  0  0  0  0
    5.0545   -3.1501    0.0000 C   0  0  0  0  0  0  0  0  0  0  0  0
    4.0705   -2.9449    0.0000 C   0  0  0  0  0  0  0  0  0  0  0  0
  1  2  2  0  0  0  0
  2  3  1  0  0  0  0
  3  4  1  0  0  0  0
  4  8  1  0  0  0  0
  4  5  2  0  0  0  0
  5  6  1  0  0  0  0
  6  7  1  0  0  0  0
  7  8  2  0  0  0  0
  2  9  1  0  0  0  0
  9 10  1  0  0  0  0
 10 17  2  0  0  0  0
 10 11  1  0  0  0  0
 11 12  1  0  0  0  0
 12 16  2  0  0  0  0
 12 13  1  0  0  0  0
 13 14  2  0  0  0  0
 14 15  1  0  0  0  0
 15 16  1  0  0  0  0
 16 17  1  0  0  0  0
 17 18  1  0  0  0  0
 18 19  1  0  0  0  0
 19 25  1  0  0  0  0
 19 20  1  0  0  0  0
 20 21  1  0  0  0  0
 21 22  1  0  0  0  0
 22 23  1  0  0  0  0
 22 24  1  0  0  0  0
 24 25  1  0  0  0  0
M  END
$$$$
SAL-INS-cba-4
  -OEChem-03232022352D

 32 36  0     0  0  0  0  0  0999 V2000
    4.0868    1.7121    0.0000 O   0  0  0  0  0  0  0  0  0  0  0  0
    4.5825    0.8436    0.0000 C   0  0  0  0  0  0  0  0  0  0  0  0
    5.5825    0.8387    0.0000 C   0  0  0  0  0  0  0  0  0  0  0  0
    6.0868    1.7022    0.0000 C   0  0  0  0  0  0  0  0  0  0  0  0
    7.0822    1.7987    0.0000 C   0  0  0  0  0  0  0  0  0  0  0  0
    7.2957    2.7772    0.0000 N   0  0  0  0  0  0  0  0  0  0  0  0
    6.4321    3.2847    0.0000 C   0  0  0  0  0  0  0  0  0  0  0  0
    5.6816    2.6169    0.0000 N   0  0  0  0  0  0  0  0  0  0  0  0
    4.0782   -0.0199    0.0000 N   0  0  0  0  0  0  0  0  0  0  0  0
    3.0782   -0.0149    0.0000 C   0  0  0  0  0  0  0  0  0  0  0  0
    2.4944    0.7970    0.0000 S   0  0  0  0  0  0  0  0  0  0  0  0
    1.5413    0.4930    0.0000 C   0  0  0  0  0  0  0  0  0  0  0  0
    0.5915    0.8064    0.0000 C   0  0  0  0  0  0  0  0  0  0  0  0
    0.0000    0.0000    0.0000 C   0  0  0  0  0  0  0  0  0  0  0  0
   -1.0000    0.0045    0.0000 C   0  0  0  0  0  0  0  0  0  0  0  0
   -1.5039   -0.8592    0.0000 C   0  0  0  0  0  0  0  0  0  0  0  0
   -2.5039   -0.8547    0.0000 C   0  0  0  0  0  0  0  0  0  0  0  0
   -3.0971   -1.6618    0.0000 N   0  0  0  0  0  0  0  0  0  0  0  0
   -4.0486   -1.3493    0.0000 C   0  0  0  0  0  0  0  0  0  0  0  0
   -4.0429   -0.3493    0.0000 C   0  0  0  0  0  0  0  0  0  0  0  0
   -3.0915   -0.0398    0.0000 N   0  0  0  0  0  0  0  0  0  0  0  0
    0.5842   -0.8118    0.0000 N   0  0  0  0  0  0  0  0  0  0  0  0
    1.5367   -0.5071    0.0000 C   0  0  0  0  0  0  0  0  0  0  0  0
    2.4863   -0.8210    0.0000 C   0  0  0  0  0  0  0  0  0  0  0  0
    2.7905   -1.7736    0.0000 C   0  0  0  0  0  0  0  0  0  0  0  0
    3.7676   -1.9865    0.0000 C   0  0  0  0  0  0  0  0  0  0  0  0
    4.4418   -1.2409    0.0000 C   0  0  0  0  0  0  0  0  0  0  0  0
    5.4189   -1.4537    0.0000 C   0  0  0  0  0  0  0  0  0  0  0  0
    5.7287   -2.4046    0.0000 C   0  0  0  0  0  0  0  0  0  0  0  0
    6.7067   -2.6131    0.0000 O   0  0  0  0  0  0  0  0  0  0  0  0
    5.0545   -3.1501    0.0000 C   0  0  0  0  0  0  0  0  0  0  0  0
    4.0705   -2.9449    0.0000 C   0  0  0  0  0  0  0  0  0  0  0  0
  1  2  2  0  0  0  0
  2  3  1  0  0  0  0
  3  4  1  0  0  0  0
  4  8  1  0  0  0  0
  4  5  2  0  0  0  0
  5  6  1  0  0  0  0
  6  7  2  0  0  0  0
  7  8  1  0  0  0  0
  2  9  1  0  0  0  0
  9 10  1  0  0  0  0
 10 24  2  0  0  0  0
 10 11  1  0  0  0  0
 11 12  1  0  0  0  0
 12 23  2  0  0  0  0
 12 13  1  0  0  0  0
 13 14  2  0  0  0  0
 14 15  1  0  0  0  0
 15 16  1  0  0  0  0
 16 17  1  0  0  0  0
 17 21  1  0  0  0  0
 17 18  2  0  0  0  0
 18 19  1  0  0  0  0
 19 20  2  0  0  0  0
 20 21  1  0  0  0  0
 14 22  1  0  0  0  0
 22 23  1  0  0  0  0
 23 24  1  0  0  0  0
 24 25  1  0  0  0  0
 25 26  1  0  0  0  0
 26 32  1  0  0  0  0
 26 27  1  0  0  0  0
 27 28  1  0  0  0  0
 28 29  1  0  0  0  0
 29 30  1  0  0  0  0
 29 31  1  0  0  0  0
 31 32  1  0  0  0  0
M  END
$$$$
SAL-INS-cba-5
  -OEChem-03232022352D

 32 36  0     0  0  0  0  0  0999 V2000
    4.0868    1.7121    0.0000 O   0  0  0  0  0  0  0  0  0  0  0  0
    4.5825    0.8436    0.0000 C   0  0  0  0  0  0  0  0  0  0  0  0
    4.0782   -0.0199    0.0000 C   0  0  0  0  0  0  0  0  0  0  0  0
    3.0782   -0.0149    0.0000 C   0  0  0  0  0  0  0  0  0  0  0  0
    2.4944    0.7970    0.0000 S   0  0  0  0  0  0  0  0  0  0  0  0
    1.5413    0.4930    0.0000 C   0  0  0  0  0  0  0  0  0  0  0  0
    0.5915    0.8064    0.0000 C   0  0  0  0  0  0  0  0  0  0  0  0
    0.0000    0.0000    0.0000 C   0  0  0  0  0  0  0  0  0  0  0  0
   -1.0000    0.0045    0.0000 C   0  0  0  0  0  0  0  0  0  0  0  0
   -1.5039   -0.8592    0.0000 C   0  0  0  0  0  0  0  0  0  0  0  0
   -2.5039   -0.8547    0.0000 C   0  0  0  0  0  0  0  0  0  0  0  0
   -3.0971   -1.6618    0.0000 N   0  0  0  0  0  0  0  0  0  0  0  0
   -4.0486   -1.3493    0.0000 C   0  0  0  0  0  0  0  0  0  0  0  0
   -4.0429   -0.3493    0.0000 C   0  0  0  0  0  0  0  0  0  0  0  0
   -3.0915   -0.0398    0.0000 N   0  0  0  0  0  0  0  0  0  0  0  0
    0.5842   -0.8118    0.0000 N   0  0  0  0  0  0  0  0  0  0  0  0
    1.5367   -0.5071    0.0000 C   0  0  0  0  0  0  0  0  0  0  0  0
    2.4863   -0.8210    0.0000 C   0  0  0  0  0  0  0  0  0  0  0  0
    2.7905   -1.7736    0.0000 C   0  0  0  0  0  0  0  0  0  0  0  0
    3.7676   -1.9865    0.0000 C   0  0  0  0  0  0  0  0  0  0  0  0
    4.4418   -1.2409    0.0000 C   0  0  0  0  0  0  0  0  0  0  0  0
    5.4189   -1.4537    0.0000 C   0  0  0  0  0  0  0  0  0  0  0  0
    5.7287   -2.4046    0.0000 C   0  0  0  0  0  0  0  0  0  0  0  0
    6.7067   -2.6131    0.0000 O   0  0  0  0  0  0  0  0  0  0  0  0
    5.0545   -3.1501    0.0000 C   0  0  0  0  0  0  0  0  0  0  0  0
    4.0705   -2.9449    0.0000 C   0  0  0  0  0  0  0  0  0  0  0  0
    5.5825    0.8387    0.0000 N   0  0  0  0  0  0  0  0  0  0  0  0
    6.0868    1.7022    0.0000 C   0  0  0  0  0  0  0  0  0  0  0  0
    5.6818    2.6165    0.0000 C   0  0  0  0  0  0  0  0  0  0  0  0
    6.4291    3.2833    0.0000 N   0  0  0  0  0  0  0  0  0  0  0  0
    7.2954    2.7806    0.0000 C   0  0  0  0  0  0  0  0  0  0  0  0
    7.0826    1.7987    0.0000 N   0  0  0  0  0  0  0  0  0  0  0  0
  1  2  2  0  0  0  0
  2  3  1  0  0  0  0
  3  4  1  0  0  0  0
  4 18  2  0  0  0  0
  4  5  1  0  0  0  0
  5  6  1  0  0  0  0
  6 17  2  0  0  0  0
  6  7  1  0  0  0  0
  7  8  2  0  0  0  0
  8  9  1  0  0  0  0
  9 10  1  0  0  0  0
 10 11  1  0  0  0  0
 11 15  1  0  0  0  0
 11 12  2  0  0  0  0
 12 13  1  0  0  0  0
 13 14  2  0  0  0  0
 14 15  1  0  0  0  0
  8 16  1  0  0  0  0
 16 17  1  0  0  0  0
 17 18  1  0  0  0  0
 18 19  1  0  0  0  0
 19 20  1  0  0  0  0
 20 26  1  0  0  0  0
 20 21  1  0  0  0  0
 21 22  1  0  0  0  0
 22 23  1  0  0  0  0
 23 24  1  0  0  0  0
 23 25  1  0  0  0  0
 25 26  1  0  0  0  0
  2 27  1  0  0  0  0
 27 28  1  0  0  0  0
 28 32  1  0  0  0  0
 28 29  2  0  0  0  0
 29 30  1  0  0  0  0
 30 31  2  0  0  0  0
 31 32  1  0  0  0  0
M  END
$$$$
SAL-INS-cba-6
  -OEChem-03232022352D

 24 27  0     0  0  0  0  0  0999 V2000
    4.0696   -1.7519    0.0000 O   0  0  0  0  0  0  0  0  0  0  0  0
    4.5739   -0.8884    0.0000 C   0  0  0  0  0  0  0  0  0  0  0  0
    4.0782   -0.0199    0.0000 C   0  0  0  0  0  0  0  0  0  0  0  0
    3.0782   -0.0149    0.0000 C   0  0  0  0  0  0  0  0  0  0  0  0
    2.4863   -0.8210    0.0000 C   0  0  0  0  0  0  0  0  0  0  0  0
    1.5367   -0.5071    0.0000 C   0  0  0  0  0  0  0  0  0  0  0  0
    0.5842   -0.8118    0.0000 N   0  0  0  0  0  0  0  0  0  0  0  0
    0.0000    0.0000    0.0000 C   0  0  0  0  0  0  0  0  0  0  0  0
    0.5915    0.8064    0.0000 C   0  0  0  0  0  0  0  0  0  0  0  0
    0.2868    1.7589    0.0000 C   0  0  0  0  0  0  0  0  0  0  0  0
   -0.6904    1.9712    0.0000 C   0  0  0  0  0  0  0  0  0  0  0  0
   -0.9951    2.9237    0.0000 C   0  0  0  0  0  0  0  0  0  0  0  0
   -1.9460    3.2384    0.0000 N   0  0  0  0  0  0  0  0  0  0  0  0
   -1.9429    4.2399    0.0000 C   0  0  0  0  0  0  0  0  0  0  0  0
   -0.9900    4.5435    0.0000 C   0  0  0  0  0  0  0  0  0  0  0  0
   -0.4016    3.7343    0.0000 N   0  0  0  0  0  0  0  0  0  0  0  0
    1.5413    0.4930    0.0000 C   0  0  0  0  0  0  0  0  0  0  0  0
    2.4944    0.7970    0.0000 S   0  0  0  0  0  0  0  0  0  0  0  0
    5.5739   -0.8934    0.0000 N   0  0  0  0  0  0  0  0  0  0  0  0
    6.0695   -1.7619    0.0000 C   0  0  0  0  0  0  0  0  0  0  0  0
    5.6554   -2.6721    0.0000 C   0  0  0  0  0  0  0  0  0  0  0  0
    6.3960   -3.3463    0.0000 N   0  0  0  0  0  0  0  0  0  0  0  0
    7.2674   -2.8522    0.0000 C   0  0  0  0  0  0  0  0  0  0  0  0
    7.0643   -1.8683    0.0000 N   0  0  0  0  0  0  0  0  0  0  0  0
  1  2  2  0  0  0  0
  2  3  1  0  0  0  0
  3  4  1  0  0  0  0
  4 18  1  0  0  0  0
  4  5  2  0  0  0  0
  5  6  1  0  0  0  0
  6 17  2  0  0  0  0
  6  7  1  0  0  0  0
  7  8  1  0  0  0  0
  8  9  2  0  0  0  0
  9 10  1  0  0  0  0
 10 11  1  0  0  0  0
 11 12  1  0  0  0  0
 12 16  1  0  0  0  0
 12 13  2  0  0  0  0
 13 14  1  0  0  0  0
 14 15  2  0  0  0  0
 15 16  1  0  0  0  0
  9 17  1  0  0  0  0
 17 18  1  0  0  0  0
  2 19  1  0  0  0  0
 19 20  1  0  0  0  0
 20 24  1  0  0  0  0
 20 21  2  0  0  0  0
 21 22  1  0  0  0  0
 22 23  1  0  0  0  0
 23 24  2  0  0  0  0
M  END
$$$$
SAL-INS-cba-7
  -OEChem-03232022352D

 24 27  0     0  0  0  0  0  0999 V2000
    4.0868    1.7121    0.0000 O   0  0  0  0  0  0  0  0  0  0  0  0
    4.5825    0.8436    0.0000 C   0  0  0  0  0  0  0  0  0  0  0  0
    5.5825    0.8387    0.0000 C   0  0  0  0  0  0  0  0  0  0  0  0
    6.0868    1.7022    0.0000 C   0  0  0  0  0  0  0  0  0  0  0  0
    7.0822    1.7987    0.0000 C   0  0  0  0  0  0  0  0  0  0  0  0
    7.2957    2.7772    0.0000 N   0  0  0  0  0  0  0  0  0  0  0  0
    6.4321    3.2847    0.0000 C   0  0  0  0  0  0  0  0  0  0  0  0
    5.6816    2.6169    0.0000 N   0  0  0  0  0  0  0  0  0  0  0  0
    4.0782   -0.0199    0.0000 N   0  0  0  0  0  0  0  0  0  0  0  0
    3.0782   -0.0149    0.0000 C   0  0  0  0  0  0  0  0  0  0  0  0
    2.4863   -0.8210    0.0000 C   0  0  0  0  0  0  0  0  0  0  0  0
    1.5367   -0.5071    0.0000 C   0  0  0  0  0  0  0  0  0  0  0  0
    0.5842   -0.8118    0.0000 N   0  0  0  0  0  0  0  0  0  0  0  0
    0.0000    0.0000    0.0000 C   0  0  0  0  0  0  0  0  0  0  0  0
    0.5915    0.8064    0.0000 C   0  0  0  0  0  0  0  0  0  0  0  0
    0.2868    1.7589    0.0000 C   0  0  0  0  0  0  0  0  0  0  0  0
   -0.6904    1.9712    0.0000 C   0  0  0  0  0  0  0  0  0  0  0  0
   -0.9951    2.9237    0.0000 C   0  0  0  0  0  0  0  0  0  0  0  0
   -1.9460    3.2384    0.0000 N   0  0  0  0  0  0  0  0  0  0  0  0
   -1.9429    4.2399    0.0000 C   0  0  0  0  0  0  0  0  0  0  0  0
   -0.9900    4.5435    0.0000 C   0  0  0  0  0  0  0  0  0  0  0  0
   -0.4016    3.7343    0.0000 N   0  0  0  0  0  0  0  0  0  0  0  0
    1.5413    0.4930    0.0000 C   0  0  0  0  0  0  0  0  0  0  0  0
    2.4944    0.7970    0.0000 S   0  0  0  0  0  0  0  0  0  0  0  0
  1  2  2  0  0  0  0
  2  3  1  0  0  0  0
  3  4  1  0  0  0  0
  4  8  1  0  0  0  0
  4  5  2  0  0  0  0
  5  6  1  0  0  0  0
  6  7  1  0  0  0  0
  7  8  2  0  0  0  0
  2  9  1  0  0  0  0
  9 10  1  0  0  0  0
 10 24  1  0  0  0  0
 10 11  2  0  0  0  0
 11 12  1  0  0  0  0
 12 23  2  0  0  0  0
 12 13  1  0  0  0  0
 13 14  1  0  0  0  0
 14 15  2  0  0  0  0
 15 16  1  0  0  0  0
 16 17  1  0  0  0  0
 17 18  1  0  0  0  0
 18 22  1  0  0  0  0
 18 19  2  0  0  0  0
 19 20  1  0  0  0  0
 20 21  2  0  0  0  0
 21 22  1  0  0  0  0
 15 23  1  0  0  0  0
 23 24  1  0  0  0  0
M  END
$$$$
SAL-INS-cba-8
  -OEChem-03232022352D

 25 28  0     0  0  0  0  0  0999 V2000
    4.0868    1.7121    0.0000 O   0  0  0  0  0  0  0  0  0  0  0  0
    4.5825    0.8436    0.0000 C   0  0  0  0  0  0  0  0  0  0  0  0
    5.5825    0.8387    0.0000 C   0  0  0  0  0  0  0  0  0  0  0  0
    6.0868    1.7022    0.0000 C   0  0  0  0  0  0  0  0  0  0  0  0
    7.0822    1.7987    0.0000 C   0  0  0  0  0  0  0  0  0  0  0  0
    7.2957    2.7772    0.0000 N   0  0  0  0  0  0  0  0  0  0  0  0
    6.4321    3.2847    0.0000 C   0  0  0  0  0  0  0  0  0  0  0  0
    5.6816    2.6169    0.0000 N   0  0  0  0  0  0  0  0  0  0  0  0
    4.0782   -0.0199    0.0000 N   0  0  0  0  0  0  0  0  0  0  0  0
    3.0782   -0.0149    0.0000 C   0  0  0  0  0  0  0  0  0  0  0  0
    2.4944    0.7970    0.0000 S   0  0  0  0  0  0  0  0  0  0  0  0
    1.5413    0.4930    0.0000 C   0  0  0  0  0  0  0  0  0  0  0  0
    0.5915    0.8064    0.0000 C   0  0  0  0  0  0  0  0  0  0  0  0
    0.0000    0.0000    0.0000 C   0  0  0  0  0  0  0  0  0  0  0  0
    0.5842   -0.8118    0.0000 N   0  0  0  0  0  0  0  0  0  0  0  0
    1.5367   -0.5071    0.0000 C   0  0  0  0  0  0  0  0  0  0  0  0
    2.4863   -0.8210    0.0000 C   0  0  0  0  0  0  0  0  0  0  0  0
    2.7905   -1.7736    0.0000 C   0  0  0  0  0  0  0  0  0  0  0  0
    3.7676   -1.9865    0.0000 C   0  0  0  0  0  0  0  0  0  0  0  0
    4.4418   -1.2409    0.0000 C   0  0  0  0  0  0  0  0  0  0  0  0
    5.4189   -1.4537    0.0000 C   0  0  0  0  0  0  0  0  0  0  0  0
    5.7287   -2.4046    0.0000 C   0  0  0  0  0  0  0  0  0  0  0  0
    6.7067   -2.6131    0.0000 O   0  0  0  0  0  0  0  0  0  0  0  0
    5.0545   -3.1501    0.0000 C   0  0  0  0  0  0  0  0  0  0  0  0
    4.0705   -2.9449    0.0000 C   0  0  0  0  0  0  0  0  0  0  0  0
  1  2  2  0  0  0  0
  2  3  1  0  0  0  0
  3  4  1  0  0  0  0
  4  8  1  0  0  0  0
  4  5  2  0  0  0  0
  5  6  1  0  0  0  0
  6  7  1  0  0  0  0
  7  8  2  0  0  0  0
  2  9  1  0  0  0  0
  9 10  1  0  0  0  0
 10 17  2  0  0  0  0
 10 11  1  0  0  0  0
 11 12  1  0  0  0  0
 12 16  2  0  0  0  0
 12 13  1  0  0  0  0
 13 14  2  0  0  0  0
 14 15  1  0  0  0  0
 15 16  1  0  0  0  0
 16 17  1  0  0  0  0
 17 18  1  0  0  0  0
 18 19  1  0  0  0  0
 19 25  1  0  0  0  0
 19 20  1  0  0  0  0
 20 21  1  0  0  0  0
 21 22  1  0  0  0  0
 22 23  1  0  0  0  0
 22 24  1  0  0  0  0
 24 25  1  0  0  0  0
M  END
$$$$
SAL-INS-cba-9
  -OEChem-03232022352D

 25 28  0     0  0  0  0  0  0999 V2000
    4.0868    1.7121    0.0000 O   0  0  0  0  0  0  0  0  0  0  0  0
    4.5825    0.8436    0.0000 C   0  0  0  0  0  0  0  0  0  0  0  0
    4.0782   -0.0199    0.0000 C   0  0  0  0  0  0  0  0  0  0  0  0
    3.0782   -0.0149    0.0000 C   0  0  0  0  0  0  0  0  0  0  0  0
    2.4944    0.7970    0.0000 S   0  0  0  0  0  0  0  0  0  0  0  0
    1.5413    0.4930    0.0000 C   0  0  0  0  0  0  0  0  0  0  0  0
    0.5915    0.8064    0.0000 C   0  0  0  0  0  0  0  0  0  0  0  0
    0.0000    0.0000    0.0000 C   0  0  0  0  0  0  0  0  0  0  0  0
    0.5842   -0.8118    0.0000 N   0  0  0  0  0  0  0  0  0  0  0  0
    1.5367   -0.5071    0.0000 C   0  0  0  0  0  0  0  0  0  0  0  0
    2.4863   -0.8210    0.0000 C   0  0  0  0  0  0  0  0  0  0  0  0
    2.7905   -1.7736    0.0000 C   0  0  0  0  0  0  0  0  0  0  0  0
    3.7676   -1.9865    0.0000 C   0  0  0  0  0  0  0  0  0  0  0  0
    4.4418   -1.2409    0.0000 C   0  0  0  0  0  0  0  0  0  0  0  0
    5.4189   -1.4537    0.0000 C   0  0  0  0  0  0  0  0  0  0  0  0
    5.7287   -2.4046    0.0000 C   0  0  0  0  0  0  0  0  0  0  0  0
    6.7067   -2.6131    0.0000 O   0  0  0  0  0  0  0  0  0  0  0  0
    5.0545   -3.1501    0.0000 C   0  0  0  0  0  0  0  0  0  0  0  0
    4.0705   -2.9449    0.0000 C   0  0  0  0  0  0  0  0  0  0  0  0
    5.5825    0.8387    0.0000 N   0  0  0  0  0  0  0  0  0  0  0  0
    6.0868    1.7022    0.0000 C   0  0  0  0  0  0  0  0  0  0  0  0
    5.6818    2.6165    0.0000 C   0  0  0  0  0  0  0  0  0  0  0  0
    6.4291    3.2833    0.0000 N   0  0  0  0  0  0  0  0  0  0  0  0
    7.2954    2.7806    0.0000 C   0  0  0  0  0  0  0  0  0  0  0  0
    7.0826    1.7987    0.0000 N   0  0  0  0  0  0  0  0  0  0  0  0
  1  2  2  0  0  0  0
  2  3  1  0  0  0  0
  3  4  1  0  0  0  0
  4 11  2  0  0  0  0
  4  5  1  0  0  0  0
  5  6  1  0  0  0  0
  6 10  2  0  0  0  0
  6  7  1  0  0  0  0
  7  8  2  0  0  0  0
  8  9  1  0  0  0  0
  9 10  1  0  0  0  0
 10 11  1  0  0  0  0
 11 12  1  0  0  0  0
 12 13  1  0  0  0  0
 13 19  1  0  0  0  0
 13 14  1  0  0  0  0
 14 15  1  0  0  0  0
 15 16  1  0  0  0  0
 16 17  1  0  0  0  0
 16 18  1  0  0  0  0
 18 19  1  0  0  0  0
  2 20  1  0  0  0  0
 20 21  1  0  0  0  0
 21 25  1  0  0  0  0
 21 22  2  0  0  0  0
 22 23  1  0  0  0  0
 23 24  1  0  0  0  0
 24 25  2  0  0  0  0
M  END
$$$$
AGN-NEW-c7b-1
  -OEChem-03232022352D

 19 20  0     0  0  0  0  0  0999 V2000
    1.7379    3.0001    0.0000 C   0  0  0  0  0  0  0  0  0  0  0  0
    1.7350    2.0001    0.0000 C   0  0  0  0  0  0  0  0  0  0  0  0
    0.8675    1.5027    0.0000 C   0  0  0  0  0  0  0  0  0  0  0  0
   -0.0000    2.0104    0.0000 N   0  0  0  0  0  0  0  0  0  0  0  0
   -0.8675    1.5027    0.0000 C   0  0  0  0  0  0  0  0  0  0  0  0
   -0.8675    0.4975    0.0000 C   0  0  0  0  0  0  0  0  0  0  0  0
    0.0000    0.0000    0.0000 C   0  0  0  0  0  0  0  0  0  0  0  0
    0.8675    0.4975    0.0000 C   0  0  0  0  0  0  0  0  0  0  0  0
    1.7328   -0.0038    0.0000 N   0  0  0  0  0  0  0  0  0  0  0  0
    2.5995    0.4950    0.0000 C   0  0  0  0  0  0  0  0  0  0  0  0
    2.6010    1.4950    0.0000 O   0  0  0  0  0  0  0  0  0  0  0  0
    3.4648   -0.0063    0.0000 C   0  0  0  0  0  0  0  0  0  0  0  0
    4.3316    0.4925    0.0000 C   0  0  0  0  0  0  0  0  0  0  0  0
    5.1999   -0.0139    0.0000 C   0  0  0  0  0  0  0  0  0  0  0  0
    6.0667    0.4848    0.0000 C   0  0  0  0  0  0  0  0  0  0  0  0
    6.0740    1.4848    0.0000 C   0  0  0  0  0  0  0  0  0  0  0  0
    5.2057    1.9912    0.0000 C   0  0  0  0  0  0  0  0  0  0  0  0
    5.2131    2.9912    0.0000 Cl  0  0  0  0  0  0  0  0  0  0  0  0
    4.3301    1.4976    0.0000 C   0  0  0  0  0  0  0  0  0  0  0  0
  1  2  2  0  0  0  0
  2  3  1  0  0  0  0
  3  8  2  0  0  0  0
  3  4  1  0  0  0  0
  4  5  2  0  0  0  0
  5  6  1  0  0  0  0
  6  7  2  0  0  0  0
  7  8  1  0  0  0  0
  8  9  1  0  0  0  0
  9 10  1  0  0  0  0
 10 11  2  0  0  0  0
 10 12  1  0  0  0  0
 12 13  1  0  0  0  0
 13 19  2  0  0  0  0
 13 14  1  0  0  0  0
 14 15  2  0  0  0  0
 15 16  1  0  0  0  0
 16 17  2  0  0  0  0
 17 18  1  0  0  0  0
 17 19  1  0  0  0  0
M  END
$$$$
AGN-NEW-c7b-2
  -OEChem-03232022352D

 19 20  0     0  0  0  0  0  0999 V2000
    1.7379    3.0001    0.0000 C   0  0  0  0  0  0  0  0  0  0  0  0
    1.7350    2.0001    0.0000 C   0  0  0  0  0  0  0  0  0  0  0  0
    0.8675    1.5027    0.0000 C   0  0  0  0  0  0  0  0  0  0  0  0
   -0.0000    2.0104    0.0000 N   0  0  0  0  0  0  0  0  0  0  0  0
   -0.8675    1.5027    0.0000 C   0  0  0  0  0  0  0  0  0  0  0  0
   -0.8675    0.4975    0.0000 C   0  0  0  0  0  0  0  0  0  0  0  0
    0.0000    0.0000    0.0000 C   0  0  0  0  0  0  0  0  0  0  0  0
    0.8675    0.4975    0.0000 C   0  0  0  0  0  0  0  0  0  0  0  0
    1.7328   -0.0038    0.0000 N   0  0  0  0  0  0  0  0  0  0  0  0
    2.5995    0.4950    0.0000 C   0  0  0  0  0  0  0  0  0  0  0  0
    2.6010    1.4950    0.0000 O   0  0  0  0  0  0  0  0  0  0  0  0
    3.4648   -0.0063    0.0000 C   0  0  0  0  0  0  0  0  0  0  0  0
    4.3316    0.4925    0.0000 C   0  0  0  0  0  0  0  0  0  0  0  0
    5.1999   -0.0139    0.0000 C   0  0  0  0  0  0  0  0  0  0  0  0
    6.0667    0.4848    0.0000 C   0  0  0  0  0  0  0  0  0  0  0  0
    6.0740    1.4848    0.0000 C   0  0  0  0  0  0  0  0  0  0  0  0
    5.2057    1.9912    0.0000 C   0  0  0  0  0  0  0  0  0  0  0  0
    5.2131    2.9912    0.0000 C   0  0  0  0  0  0  0  0  0  0  0  0
    4.3301    1.4976    0.0000 C   0  0  0  0  0  0  0  0  0  0  0  0
  1  2  2  0  0  0  0
  2  3  1  0  0  0  0
  3  8  2  0  0  0  0
  3  4  1  0  0  0  0
  4  5  2  0  0  0  0
  5  6  1  0  0  0  0
  6  7  2  0  0  0  0
  7  8  1  0  0  0  0
  8  9  1  0  0  0  0
  9 10  1  0  0  0  0
 10 11  2  0  0  0  0
 10 12  1  0  0  0  0
 12 13  1  0  0  0  0
 13 19  2  0  0  0  0
 13 14  1  0  0  0  0
 14 15  2  0  0  0  0
 15 16  1  0  0  0  0
 16 17  2  0  0  0  0
 17 18  1  0  0  0  0
 17 19  1  0  0  0  0
M  END
$$$$
AGN-NEW-c7b-3
  -OEChem-03232022352D

 19 20  0     0  0  0  0  0  0999 V2000
    0.8662   -4.5127    0.0000 C   0  0  0  0  0  0  0  0  0  0  0  0
    1.7299   -4.0089    0.0000 C   0  0  0  0  0  0  0  0  0  0  0  0
    2.6012   -4.5102    0.0000 C   0  0  0  0  0  0  0  0  0  0  0  0
    3.4651   -4.0063    0.0000 C   0  0  0  0  0  0  0  0  0  0  0  0
    3.4665   -3.0063    0.0000 C   0  0  0  0  0  0  0  0  0  0  0  0
    2.5952   -2.5050    0.0000 C   0  0  0  0  0  0  0  0  0  0  0  0
    2.5966   -1.5050    0.0000 C   0  0  0  0  0  0  0  0  0  0  0  0
    1.7313   -1.0038    0.0000 C   0  0  0  0  0  0  0  0  0  0  0  0
    0.8646   -1.5025    0.0000 O   0  0  0  0  0  0  0  0  0  0  0  0
    1.7328   -0.0038    0.0000 N   0  0  0  0  0  0  0  0  0  0  0  0
    0.8675    0.4975    0.0000 C   0  0  0  0  0  0  0  0  0  0  0  0
    0.0000    0.0000    0.0000 C   0  0  0  0  0  0  0  0  0  0  0  0
   -0.8675    0.4975    0.0000 C   0  0  0  0  0  0  0  0  0  0  0  0
   -0.8675    1.5027    0.0000 C   0  0  0  0  0  0  0  0  0  0  0  0
    0.0000    2.0104    0.0000 N   0  0  0  0  0  0  0  0  0  0  0  0
    0.8675    1.5027    0.0000 C   0  0  0  0  0  0  0  0  0  0  0  0
    1.7350    2.0001    0.0000 C   0  0  0  0  0  0  0  0  0  0  0  0
    2.6025    2.4976    0.0000 N   0  0  0  0  0  0  0  0  0  0  0  0
    1.7225   -3.0037    0.0000 C   0  0  0  0  0  0  0  0  0  0  0  0
  1  2  1  0  0  0  0
  2 19  2  0  0  0  0
  2  3  1  0  0  0  0
  3  4  2  0  0  0  0
  4  5  1  0  0  0  0
  5  6  2  0  0  0  0
  6  7  1  0  0  0  0
  7  8  1  0  0  0  0
  8  9  2  0  0  0  0
  8 10  1  0  0  0  0
 10 11  1  0  0  0  0
 11 16  2  0  0  0  0
 11 12  1  0  0  0  0
 12 13  2  0  0  0  0
 13 14  1  0  0  0  0
 14 15  2  0  0  0  0
 15 16  1  0  0  0  0
 16 17  1  0  0  0  0
 17 18  3  0  0  0  0
  6 19  1  0  0  0  0
M  END
$$$$
AGN-NEW-c7b-4
  -OEChem-03232022352D

 19 20  0     0  0  0  0  0  0999 V2000
    2.6025    2.4976    0.0000 N   0  0  0  0  0  0  0  0  0  0  0  0
    1.7350    2.0001    0.0000 C   0  0  0  0  0  0  0  0  0  0  0  0
    0.8675    1.5027    0.0000 C   0  0  0  0  0  0  0  0  0  0  0  0
   -0.0000    2.0104    0.0000 N   0  0  0  0  0  0  0  0  0  0  0  0
   -0.8675    1.5027    0.0000 C   0  0  0  0  0  0  0  0  0  0  0  0
   -0.8675    0.4975    0.0000 C   0  0  0  0  0  0  0  0  0  0  0  0
    0.0000    0.0000    0.0000 C   0  0  0  0  0  0  0  0  0  0  0  0
    0.8675    0.4975    0.0000 C   0  0  0  0  0  0  0  0  0  0  0  0
    1.7328   -0.0038    0.0000 N   0  0  0  0  0  0  0  0  0  0  0  0
    2.5995    0.4950    0.0000 C   0  0  0  0  0  0  0  0  0  0  0  0
    2.6010    1.4950    0.0000 O   0  0  0  0  0  0  0  0  0  0  0  0
    3.4648   -0.0063    0.0000 C   0  0  0  0  0  0  0  0  0  0  0  0
    4.3316    0.4925    0.0000 C   0  0  0  0  0  0  0  0  0  0  0  0
    5.1999   -0.0139    0.0000 C   0  0  0  0  0  0  0  0  0  0  0  0
    6.0667    0.4848    0.0000 C   0  0  0  0  0  0  0  0  0  0  0  0
    6.0740    1.4848    0.0000 C   0  0  0  0  0  0  0  0  0  0  0  0
    5.2057    1.9912    0.0000 C   0  0  0  0  0  0  0  0  0  0  0  0
    5.2131    2.9912    0.0000 Cl  0  0  0  0  0  0  0  0  0  0  0  0
    4.3301    1.4976    0.0000 C   0  0  0  0  0  0  0  0  0  0  0  0
  1  2  3  0  0  0  0
  2  3  1  0  0  0  0
  3  8  2  0  0  0  0
  3  4  1  0  0  0  0
  4  5  2  0  0  0  0
  5  6  1  0  0  0  0
  6  7  2  0  0  0  0
  7  8  1  0  0  0  0
  8  9  1  0  0  0  0
  9 10  1  0  0  0  0
 10 11  2  0  0  0  0
 10 12  1  0  0  0  0
 12 13  1  0  0  0  0
 13 19  2  0  0  0  0
 13 14  1  0  0  0  0
 14 15  2  0  0  0  0
 15 16  1  0  0  0  0
 16 17  2  0  0  0  0
 17 18  1  0  0  0  0
 17 19  1  0  0  0  0
M  END
$$$$
AGN-NEW-c7b-5
  -OEChem-03232022352D

 19 20  0     0  0  0  0  0  0999 V2000
    2.6025    2.4976    0.0000 C   0  0  0  0  0  0  0  0  0  0  0  0
    1.7350    2.0001    0.0000 C   0  0  0  0  0  0  0  0  0  0  0  0
    0.8675    1.5027    0.0000 C   0  0  0  0  0  0  0  0  0  0  0  0
   -0.0000    2.0104    0.0000 N   0  0  0  0  0  0  0  0  0  0  0  0
   -0.8675    1.5027    0.0000 C   0  0  0  0  0  0  0  0  0  0  0  0
   -0.8675    0.4975    0.0000 C   0  0  0  0  0  0  0  0  0  0  0  0
    0.0000    0.0000    0.0000 C   0  0  0  0  0  0  0  0  0  0  0  0
    0.8675    0.4975    0.0000 C   0  0  0  0  0  0  0  0  0  0  0  0
    1.7328   -0.0038    0.0000 N   0  0  0  0  0  0  0  0  0  0  0  0
    2.5995    0.4950    0.0000 C   0  0  0  0  0  0  0  0  0  0  0  0
    2.6010    1.4950    0.0000 O   0  0  0  0  0  0  0  0  0  0  0  0
    3.4648   -0.0063    0.0000 C   0  0  0  0  0  0  0  0  0  0  0  0
    4.3316    0.4925    0.0000 C   0  0  0  0  0  0  0  0  0  0  0  0
    5.1999   -0.0139    0.0000 C   0  0  0  0  0  0  0  0  0  0  0  0
    6.0667    0.4848    0.0000 C   0  0  0  0  0  0  0  0  0  0  0  0
    6.0740    1.4848    0.0000 C   0  0  0  0  0  0  0  0  0  0  0  0
    5.2057    1.9912    0.0000 C   0  0  0  0  0  0  0  0  0  0  0  0
    5.2131    2.9912    0.0000 Cl  0  0  0  0  0  0  0  0  0  0  0  0
    4.3301    1.4976    0.0000 C   0  0  0  0  0  0  0  0  0  0  0  0
  1  2  3  0  0  0  0
  2  3  1  0  0  0  0
  3  8  2  0  0  0  0
  3  4  1  0  0  0  0
  4  5  2  0  0  0  0
  5  6  1  0  0  0  0
  6  7  2  0  0  0  0
  7  8  1  0  0  0  0
  8  9  1  0  0  0  0
  9 10  1  0  0  0  0
 10 11  2  0  0  0  0
 10 12  1  0  0  0  0
 12 13  1  0  0  0  0
 13 19  2  0  0  0  0
 13 14  1  0  0  0  0
 14 15  2  0  0  0  0
 15 16  1  0  0  0  0
 16 17  2  0  0  0  0
 17 18  1  0  0  0  0
 17 19  1  0  0  0  0
M  END
$$$$
AGN-NEW-c7b-6
  -OEChem-03232022352D

 19 20  0     0  0  0  0  0  0999 V2000
    2.6025    2.4976    0.0000 C   0  0  0  0  0  0  0  0  0  0  0  0
    1.7350    2.0001    0.0000 C   0  0  0  0  0  0  0  0  0  0  0  0
    0.8675    1.5027    0.0000 C   0  0  0  0  0  0  0  0  0  0  0  0
   -0.0000    2.0104    0.0000 N   0  0  0  0  0  0  0  0  0  0  0  0
   -0.8675    1.5027    0.0000 C   0  0  0  0  0  0  0  0  0  0  0  0
   -0.8675    0.4975    0.0000 C   0  0  0  0  0  0  0  0  0  0  0  0
    0.0000    0.0000    0.0000 C   0  0  0  0  0  0  0  0  0  0  0  0
    0.8675    0.4975    0.0000 C   0  0  0  0  0  0  0  0  0  0  0  0
    1.7328   -0.0038    0.0000 N   0  0  0  0  0  0  0  0  0  0  0  0
    2.5995    0.4950    0.0000 C   0  0  0  0  0  0  0  0  0  0  0  0
    2.6010    1.4950    0.0000 O   0  0  0  0  0  0  0  0  0  0  0  0
    3.4648   -0.0063    0.0000 C   0  0  0  0  0  0  0  0  0  0  0  0
    4.3316    0.4925    0.0000 C   0  0  0  0  0  0  0  0  0  0  0  0
    5.1999   -0.0139    0.0000 C   0  0  0  0  0  0  0  0  0  0  0  0
    6.0667    0.4848    0.0000 C   0  0  0  0  0  0  0  0  0  0  0  0
    6.0740    1.4848    0.0000 C   0  0  0  0  0  0  0  0  0  0  0  0
    5.2057    1.9912    0.0000 C   0  0  0  0  0  0  0  0  0  0  0  0
    5.2131    2.9912    0.0000 C   0  0  0  0  0  0  0  0  0  0  0  0
    4.3301    1.4976    0.0000 C   0  0  0  0  0  0  0  0  0  0  0  0
  1  2  3  0  0  0  0
  2  3  1  0  0  0  0
  3  8  2  0  0  0  0
  3  4  1  0  0  0  0
  4  5  2  0  0  0  0
  5  6  1  0  0  0  0
  6  7  2  0  0  0  0
  7  8  1  0  0  0  0
  8  9  1  0  0  0  0
  9 10  1  0  0  0  0
 10 11  2  0  0  0  0
 10 12  1  0  0  0  0
 12 13  1  0  0  0  0
 13 19  2  0  0  0  0
 13 14  1  0  0  0  0
 14 15  2  0  0  0  0
 15 16  1  0  0  0  0
 16 17  2  0  0  0  0
 17 18  1  0  0  0  0
 17 19  1  0  0  0  0
M  END
$$$$
PAU-WEI-c6d-1
  -OEChem-03232022352D

 28 30  0     1  0  0  0  0  0999 V2000
   -0.8660    3.5104    0.0000 O   0  0  0  0  0  0  0  0  0  0  0  0
    0.0000    3.0104    0.0000 C   0  0  0  0  0  0  0  0  0  0  0  0
    0.8660    3.5104    0.0000 C   0  0  0  0  0  0  0  0  0  0  0  0
    0.8660    4.5104    0.0000 Cl  0  0  0  0  0  0  0  0  0  0  0  0
   -0.0000    2.0104    0.0000 N   0  0  0  0  0  0  0  0  0  0  0  0
   -0.8675    1.5027    0.0000 C   0  0  0  0  0  0  0  0  0  0  0  0
   -0.8675    0.4975    0.0000 C   0  0  0  0  0  0  0  0  0  0  0  0
    0.0000    0.0000    0.0000 C   0  0  2  0  0  0  0  0  0  0  0  0
    1.1236   -1.3417    0.0000 H   0  0  0  0  0  0  0  0  0  0  0  0
   -0.6420   -0.7667    0.0000 C   0  0  0  0  0  0  0  0  0  0  0  0
   -0.2991   -1.7060    0.0000 O   0  0  0  0  0  0  0  0  0  0  0  0
   -1.6270   -0.5940    0.0000 N   0  0  0  0  0  0  0  0  0  0  0  0
   -2.2769   -1.3608    0.0000 C   0  0  0  0  0  0  0  0  0  0  0  0
   -3.2670   -1.1872    0.0000 C   0  0  0  0  0  0  0  0  0  0  0  0
   -3.6072   -0.2468    0.0000 C   0  0  0  0  0  0  0  0  0  0  0  0
   -2.9674    0.5218    0.0000 C   0  0  0  0  0  0  0  0  0  0  0  0
   -1.9773    0.3482    0.0000 C   0  0  0  0  0  0  0  0  0  0  0  0
    0.8675    0.4975    0.0000 C   0  0  1  0  0  0  0  0  0  0  0  0
    1.2077   -0.4429    0.0000 H   0  0  0  0  0  0  0  0  0  0  0  0
    1.8525    0.6702    0.0000 C   0  0  0  0  0  0  0  0  0  0  0  0
    2.1954    1.6096    0.0000 C   0  0  0  0  0  0  0  0  0  0  0  0
    3.1804    1.7823    0.0000 C   0  0  0  0  0  0  0  0  0  0  0  0
    3.5223    2.7275    0.0000 C   0  0  0  0  0  0  0  0  0  0  0  0
    4.5073    2.9003    0.0000 C   0  0  0  0  0  0  0  0  0  0  0  0
    5.1538    2.1373    0.0000 C   0  0  0  0  0  0  0  0  0  0  0  0
    4.8119    1.1921    0.0000 C   0  0  0  0  0  0  0  0  0  0  0  0
    3.8235    1.0097    0.0000 C   0  0  0  0  0  0  0  0  0  0  0  0
    0.8675    1.5027    0.0000 C   0  0  0  0  0  0  0  0  0  0  0  0
  1  2  2  0  0  0  0
  2  3  1  0  0  0  0
  3  4  1  0  0  0  0
  2  5  1  0  0  0  0
  5 28  1  0  0  0  0
  5  6  1  0  0  0  0
  6  7  1  0  0  0  0
  7  8  1  0  0  0  0
  8  9  1  6  0  0  0
  8 10  1  0  0  0  0
 10 11  2  0  0  0  0
 10 12  1  0  0  0  0
 12 17  1  0  0  0  0
 12 13  1  0  0  0  0
 13 14  1  0  0  0  0
 14 15  1  0  0  0  0
 15 16  1  0  0  0  0
 16 17  1  0  0  0  0
  8 18  1  0  0  0  0
 18 19  1  1  0  0  0
 18 20  1  0  0  0  0
 20 21  1  0  0  0  0
 21 22  1  0  0  0  0
 22 27  2  0  0  0  0
 22 23  1  0  0  0  0
 23 24  2  0  0  0  0
 24 25  1  0  0  0  0
 25 26  2  0  0  0  0
 26 27  1  0  0  0  0
 18 28  1  0  0  0  0
M  END
$$$$
AGN-NEW-c19-1
  -OEChem-03232022352D

 36 39  0     0  0  0  0  0  0999 V2000
    0.8675   -2.4975    0.0000 C   0  0  0  0  0  0  0  0  0  0  0  0
    0.8675   -1.4975    0.0000 C   0  0  0  0  0  0  0  0  0  0  0  0
    0.8675   -0.4975    0.0000 C   0  0  0  0  0  0  0  0  0  0  0  0
    0.0000    0.0000    0.0000 C   0  0  0  0  0  0  0  0  0  0  0  0
   -0.0000    1.0052    0.0000 C   0  0  0  0  0  0  0  0  0  0  0  0
    0.8675    1.5129    0.0000 N   0  0  0  0  0  0  0  0  0  0  0  0
    1.7350    1.0052    0.0000 C   0  0  0  0  0  0  0  0  0  0  0  0
    2.6025    1.5026    0.0000 C   0  0  0  0  0  0  0  0  0  0  0  0
    2.6054    2.5026    0.0000 N   0  0  0  0  0  0  0  0  0  0  0  0
    3.4729    3.0001    0.0000 C   0  0  0  0  0  0  0  0  0  0  0  0
    3.4759    4.0001    0.0000 O   0  0  0  0  0  0  0  0  0  0  0  0
    4.3375    2.4975    0.0000 N   0  0  0  0  0  0  0  0  0  0  0  0
    5.2050    2.9950    0.0000 C   0  0  0  0  0  0  0  0  0  0  0  0
    6.0703    2.4937    0.0000 C   0  0  0  0  0  0  0  0  0  0  0  0
    6.0659    1.4937    0.0000 C   0  0  0  0  0  0  0  0  0  0  0  0
    5.1977    0.9975    0.0000 N   0  0  0  0  0  0  0  0  0  0  0  0
    4.3353    1.5038    0.0000 C   0  0  0  0  0  0  0  0  0  0  0  0
    3.4626    1.0050    0.0000 C   0  0  0  0  0  0  0  0  0  0  0  0
    3.4522   -0.0000    0.0000 O   0  0  0  0  0  0  0  0  0  0  0  0
    4.3234   -0.5013    0.0000 C   0  0  0  0  0  0  0  0  0  0  0  0
    5.1962   -0.0025    0.0000 C   0  0  0  0  0  0  0  0  0  0  0  0
    6.9400    2.9873    0.0000 C   0  0  0  0  0  0  0  0  0  0  0  0
    6.9444    3.9925    0.0000 C   0  0  0  0  0  0  0  0  0  0  0  0
    6.0791    4.5040    0.0000 N   0  0  0  0  0  0  0  0  0  0  0  0
    5.2094    4.0002    0.0000 C   0  0  0  0  0  0  0  0  0  0  0  0
    4.3441    4.5014    0.0000 C   0  0  0  0  0  0  0  0  0  0  0  0
    1.7409    3.0052    0.0000 C   0  0  0  0  0  0  0  0  0  0  0  0
    0.8704    2.5026    0.0000 N   0  0  0  0  0  0  0  0  0  0  0  0
    0.0059    3.0154    0.0000 C   0  0  0  0  0  0  0  0  0  0  0  0
    0.0119    4.0206    0.0000 C   0  0  0  0  0  0  0  0  0  0  0  0
    0.8823    4.5130    0.0000 C   0  0  0  0  0  0  0  0  0  0  0  0
    0.8882    5.5130    0.0000 N   0  0  0  0  0  0  0  0  0  0  0  0
    1.7571    6.0078    0.0000 C   0  0  0  0  0  0  0  0  0  0  0  0
    0.0251    6.0181    0.0000 C   0  0  0  0  0  0  0  0  0  0  0  0
    1.7468    4.0104    0.0000 N   0  0  0  0  0  0  0  0  0  0  0  0
    1.7350    0.0000    0.0000 N   0  0  0  0  0  0  0  0  0  0  0  0
  1  2  3  0  0  0  0
  2  3  1  0  0  0  0
  3 36  2  0  0  0  0
  3  4  1  0  0  0  0
  4  5  2  0  0  0  0
  5  6  1  0  0  0  0
  6  7  2  0  0  0  0
  7  8  1  0  0  0  0
  8  9  1  0  0  0  0
  9 10  1  0  0  0  0
 10 11  2  0  0  0  0
 10 12  1  0  0  0  0
 12 13  1  0  0  0  0
 13 25  2  0  0  0  0
 13 14  1  0  0  0  0
 14 15  1  0  0  0  0
 15 16  1  0  0  0  0
 16 21  1  0  0  0  0
 16 17  1  0  0  0  0
 17 18  1  0  0  0  0
 18 19  1  0  0  0  0
 19 20  1  0  0  0  0
 20 21  1  0  0  0  0
 14 22  2  0  0  0  0
 22 23  1  0  0  0  0
 23 24  2  0  0  0  0
 24 25  1  0  0  0  0
 25 26  1  0  0  0  0
  9 27  1  0  0  0  0
 27 35  2  0  0  0  0
 27 28  1  0  0  0  0
 28 29  2  0  0  0  0
 29 30  1  0  0  0  0
 30 31  2  0  0  0  0
 31 32  1  0  0  0  0
 32 33  1  0  0  0  0
 32 34  1  0  0  0  0
 31 35  1  0  0  0  0
  7 36  1  0  0  0  0
M  END
$$$$
AGN-NEW-c19-2
  -OEChem-03232022352D

 36 39  0     0  0  0  0  0  0999 V2000
   -2.6025    2.4976    0.0000 C   0  0  0  0  0  0  0  0  0  0  0  0
   -1.7350    2.0001    0.0000 C   0  0  0  0  0  0  0  0  0  0  0  0
   -0.8675    1.5027    0.0000 C   0  0  0  0  0  0  0  0  0  0  0  0
   -0.8675    0.4975    0.0000 C   0  0  0  0  0  0  0  0  0  0  0  0
    0.0000    0.0000    0.0000 C   0  0  0  0  0  0  0  0  0  0  0  0
    0.8675    0.4975    0.0000 C   0  0  0  0  0  0  0  0  0  0  0  0
    0.8675    1.5027    0.0000 C   0  0  0  0  0  0  0  0  0  0  0  0
    1.7350    2.0001    0.0000 C   0  0  0  0  0  0  0  0  0  0  0  0
    2.5995    1.4976    0.0000 N   0  0  0  0  0  0  0  0  0  0  0  0
    3.4670    1.9950    0.0000 C   0  0  0  0  0  0  0  0  0  0  0  0
    4.3316    1.4925    0.0000 O   0  0  0  0  0  0  0  0  0  0  0  0
    3.4700    2.9950    0.0000 N   0  0  0  0  0  0  0  0  0  0  0  0
    4.3375    3.4925    0.0000 C   0  0  0  0  0  0  0  0  0  0  0  0
    4.3419    4.4925    0.0000 C   0  0  0  0  0  0  0  0  0  0  0  0
    3.4766    4.9938    0.0000 C   0  0  0  0  0  0  0  0  0  0  0  0
    2.6098    4.4951    0.0000 N   0  0  0  0  0  0  0  0  0  0  0  0
    2.6112    3.4951    0.0000 C   0  0  0  0  0  0  0  0  0  0  0  0
    1.7400    2.9938    0.0000 C   0  0  0  0  0  0  0  0  0  0  0  0
    0.8673    3.4925    0.0000 O   0  0  0  0  0  0  0  0  0  0  0  0
    0.8747    4.4976    0.0000 C   0  0  0  0  0  0  0  0  0  0  0  0
    1.7460    4.9989    0.0000 C   0  0  0  0  0  0  0  0  0  0  0  0
    5.2072    4.9937    0.0000 C   0  0  0  0  0  0  0  0  0  0  0  0
    6.0770    4.4898    0.0000 C   0  0  0  0  0  0  0  0  0  0  0  0
    6.0814    3.4847    0.0000 N   0  0  0  0  0  0  0  0  0  0  0  0
    5.2073    2.9886    0.0000 C   0  0  0  0  0  0  0  0  0  0  0  0
    5.2028    1.9886    0.0000 C   0  0  0  0  0  0  0  0  0  0  0  0
    2.5966    0.4976    0.0000 C   0  0  0  0  0  0  0  0  0  0  0  0
    3.4671   -0.0050    0.0000 C   0  0  0  0  0  0  0  0  0  0  0  0
    3.4642   -1.0050    0.0000 C   0  0  0  0  0  0  0  0  0  0  0  0
    4.3302   -1.5050    0.0000 N   0  0  0  0  0  0  0  0  0  0  0  0
    5.1963   -1.0050    0.0000 C   0  0  0  0  0  0  0  0  0  0  0  0
    4.3302   -2.5050    0.0000 C   0  0  0  0  0  0  0  0  0  0  0  0
    2.5996   -1.5076    0.0000 C   0  0  0  0  0  0  0  0  0  0  0  0
    1.7291   -1.0050    0.0000 C   0  0  0  0  0  0  0  0  0  0  0  0
    1.7232    0.0002    0.0000 N   0  0  0  0  0  0  0  0  0  0  0  0
   -0.0000    2.0104    0.0000 N   0  0  0  0  0  0  0  0  0  0  0  0
  1  2  3  0  0  0  0
  2  3  1  0  0  0  0
  3 36  2  0  0  0  0
  3  4  1  0  0  0  0
  4  5  2  0  0  0  0
  5  6  1  0  0  0  0
  6  7  2  0  0  0  0
  7  8  1  0  0  0  0
  8  9  1  0  0  0  0
  9 10  1  0  0  0  0
 10 11  2  0  0  0  0
 10 12  1  0  0  0  0
 12 13  1  0  0  0  0
 13 25  2  0  0  0  0
 13 14  1  0  0  0  0
 14 15  1  0  0  0  0
 15 16  1  0  0  0  0
 16 21  1  0  0  0  0
 16 17  1  0  0  0  0
 17 18  1  0  0  0  0
 18 19  1  0  0  0  0
 19 20  1  0  0  0  0
 20 21  1  0  0  0  0
 14 22  2  0  0  0  0
 22 23  1  0  0  0  0
 23 24  2  0  0  0  0
 24 25  1  0  0  0  0
 25 26  1  0  0  0  0
  9 27  1  0  0  0  0
 27 35  2  0  0  0  0
 27 28  1  0  0  0  0
 28 29  2  0  0  0  0
 29 30  1  0  0  0  0
 30 31  1  0  0  0  0
 30 32  1  0  0  0  0
 29 33  1  0  0  0  0
 33 34  2  0  0  0  0
 34 35  1  0  0  0  0
  7 36  1  0  0  0  0
M  END
$$$$
PAU-WEI-b9b-1
  -OEChem-03232022352D

 26 28  0     1  0  0  0  0  0999 V2000
    0.0015    3.0129    0.0000 O   0  0  0  0  0  0  0  0  0  0  0  0
    0.8675    2.5129    0.0000 C   0  0  0  0  0  0  0  0  0  0  0  0
    1.7335    3.0129    0.0000 C   0  0  0  0  0  0  0  0  0  0  0  0
    1.7335    4.0129    0.0000 Cl  0  0  0  0  0  0  0  0  0  0  0  0
    0.8675    1.5129    0.0000 N   0  0  0  0  0  0  0  0  0  0  0  0
    0.0000    1.0052    0.0000 C   0  0  0  0  0  0  0  0  0  0  0  0
    0.0000    0.0000    0.0000 C   0  0  0  0  0  0  0  0  0  0  0  0
    0.8675   -0.4975    0.0000 N   0  0  0  0  0  0  0  0  0  0  0  0
    0.8675   -1.4975    0.0000 C   0  0  3  0  0  0  0  0  0  0  0  0
    1.7335   -1.9975    0.0000 C   0  0  0  0  0  0  0  0  0  0  0  0
    2.5996   -1.4975    0.0000 C   0  0  0  0  0  0  0  0  0  0  0  0
    3.4656   -1.9975    0.0000 C   0  0  0  0  0  0  0  0  0  0  0  0
    4.3346   -1.4923    0.0000 C   0  0  0  0  0  0  0  0  0  0  0  0
    5.2007   -1.9923    0.0000 C   0  0  0  0  0  0  0  0  0  0  0  0
    5.2065   -2.9923    0.0000 C   0  0  0  0  0  0  0  0  0  0  0  0
    4.3375   -3.4975    0.0000 C   0  0  0  0  0  0  0  0  0  0  0  0
    3.4626   -3.0026    0.0000 C   0  0  0  0  0  0  0  0  0  0  0  0
    0.0015   -1.9975    0.0000 C   0  0  0  0  0  0  0  0  0  0  0  0
   -0.8676   -1.4923    0.0000 C   0  0  0  0  0  0  0  0  0  0  0  0
   -1.7336   -1.9923    0.0000 C   0  0  0  0  0  0  0  0  0  0  0  0
   -1.7395   -2.9923    0.0000 C   0  0  0  0  0  0  0  0  0  0  0  0
   -0.8705   -3.4975    0.0000 C   0  0  0  0  0  0  0  0  0  0  0  0
   -0.8764   -4.4975    0.0000 Cl  0  0  0  0  0  0  0  0  0  0  0  0
    0.0044   -3.0026    0.0000 C   0  0  0  0  0  0  0  0  0  0  0  0
    1.7350    0.0000    0.0000 C   0  0  0  0  0  0  0  0  0  0  0  0
    1.7350    1.0052    0.0000 C   0  0  0  0  0  0  0  0  0  0  0  0
  1  2  2  0  0  0  0
  2  3  1  0  0  0  0
  3  4  1  0  0  0  0
  2  5  1  0  0  0  0
  5 26  1  0  0  0  0
  5  6  1  0  0  0  0
  6  7  1  0  0  0  0
  7  8  1  0  0  0  0
  8  9  1  0  0  0  0
  9 10  1  0  0  0  0
 10 11  1  0  0  0  0
 11 12  1  0  0  0  0
 12 17  2  0  0  0  0
 12 13  1  0  0  0  0
 13 14  2  0  0  0  0
 14 15  1  0  0  0  0
 15 16  2  0  0  0  0
 16 17  1  0  0  0  0
  9 18  1  0  0  0  0
 18 24  2  0  0  0  0
 18 19  1  0  0  0  0
 19 20  2  0  0  0  0
 20 21  1  0  0  0  0
 21 22  2  0  0  0  0
 22 23  1  0  0  0  0
 22 24  1  0  0  0  0
  8 25  1  0  0  0  0
 25 26  1  0  0  0  0
M  END
$$$$
PAU-WEI-b9b-2
  -OEChem-03232022352D

 30 32  0     1  0  0  0  0  0999 V2000
    0.0015    3.0129    0.0000 O   0  0  0  0  0  0  0  0  0  0  0  0
    0.8675    2.5129    0.0000 C   0  0  0  0  0  0  0  0  0  0  0  0
    1.7335    3.0129    0.0000 C   0  0  0  0  0  0  0  0  0  0  0  0
    1.7335    4.0129    0.0000 Cl  0  0  0  0  0  0  0  0  0  0  0  0
    0.8675    1.5129    0.0000 N   0  0  0  0  0  0  0  0  0  0  0  0
    0.0000    1.0052    0.0000 C   0  0  0  0  0  0  0  0  0  0  0  0
    0.0000    0.0000    0.0000 C   0  0  0  0  0  0  0  0  0  0  0  0
    0.8675   -0.4975    0.0000 N   0  0  0  0  0  0  0  0  0  0  0  0
    0.8675   -1.4975    0.0000 C   0  0  3  0  0  0  0  0  0  0  0  0
    1.7335   -1.9975    0.0000 C   0  0  0  0  0  0  0  0  0  0  0  0
    2.5996   -1.4975    0.0000 C   0  0  0  0  0  0  0  0  0  0  0  0
    3.4656   -1.9975    0.0000 C   0  0  0  0  0  0  0  0  0  0  0  0
    4.3346   -1.4923    0.0000 C   0  0  0  0  0  0  0  0  0  0  0  0
    5.2007   -1.9923    0.0000 C   0  0  0  0  0  0  0  0  0  0  0  0
    5.2065   -2.9923    0.0000 C   0  0  0  0  0  0  0  0  0  0  0  0
    6.0748   -3.4885    0.0000 C   0  0  0  0  0  0  0  0  0  0  0  0
    6.5710   -2.6203    0.0000 F   0  0  0  0  0  0  0  0  0  0  0  0
    5.5786   -4.3567    0.0000 F   0  0  0  0  0  0  0  0  0  0  0  0
    6.9430   -3.9847    0.0000 F   0  0  0  0  0  0  0  0  0  0  0  0
    4.3375   -3.4975    0.0000 C   0  0  0  0  0  0  0  0  0  0  0  0
    3.4626   -3.0026    0.0000 C   0  0  0  0  0  0  0  0  0  0  0  0
    0.0015   -1.9975    0.0000 C   0  0  0  0  0  0  0  0  0  0  0  0
   -0.8676   -1.4923    0.0000 C   0  0  0  0  0  0  0  0  0  0  0  0
   -1.7336   -1.9923    0.0000 C   0  0  0  0  0  0  0  0  0  0  0  0
   -1.7395   -2.9923    0.0000 C   0  0  0  0  0  0  0  0  0  0  0  0
   -0.8705   -3.4975    0.0000 C   0  0  0  0  0  0  0  0  0  0  0  0
   -0.8764   -4.4975    0.0000 Cl  0  0  0  0  0  0  0  0  0  0  0  0
    0.0044   -3.0026    0.0000 C   0  0  0  0  0  0  0  0  0  0  0  0
    1.7350    0.0000    0.0000 C   0  0  0  0  0  0  0  0  0  0  0  0
    1.7350    1.0052    0.0000 C   0  0  0  0  0  0  0  0  0  0  0  0
  1  2  2  0  0  0  0
  2  3  1  0  0  0  0
  3  4  1  0  0  0  0
  2  5  1  0  0  0  0
  5 30  1  0  0  0  0
  5  6  1  0  0  0  0
  6  7  1  0  0  0  0
  7  8  1  0  0  0  0
  8  9  1  0  0  0  0
  9 10  1  0  0  0  0
 10 11  1  0  0  0  0
 11 12  1  0  0  0  0
 12 21  2  0  0  0  0
 12 13  1  0  0  0  0
 13 14  2  0  0  0  0
 14 15  1  0  0  0  0
 15 16  1  0  0  0  0
 16 17  1  0  0  0  0
 16 18  1  0  0  0  0
 16 19  1  0  0  0  0
 15 20  2  0  0  0  0
 20 21  1  0  0  0  0
  9 22  1  0  0  0  0
 22 28  2  0  0  0  0
 22 23  1  0  0  0  0
 23 24  2  0  0  0  0
 24 25  1  0  0  0  0
 25 26  2  0  0  0  0
 26 27  1  0  0  0  0
 26 28  1  0  0  0  0
  8 29  1  0  0  0  0
 29 30  1  0  0  0  0
M  END
$$$$
PAU-WEI-b9b-3
  -OEChem-03232022352D

 27 29  0     1  0  0  0  0  0999 V2000
   -4.3310    4.5192    0.0000 C   0  0  0  0  0  0  0  0  0  0  0  0
   -3.4672    4.0154    0.0000 C   0  0  0  0  0  0  0  0  0  0  0  0
   -2.5959    4.5167    0.0000 C   0  0  0  0  0  0  0  0  0  0  0  0
   -1.7320    4.0129    0.0000 C   0  0  0  0  0  0  0  0  0  0  0  0
   -1.7306    3.0129    0.0000 C   0  0  0  0  0  0  0  0  0  0  0  0
   -0.8646    2.5129    0.0000 C   0  0  0  0  0  0  0  0  0  0  0  0
    0.0015    3.0129    0.0000 C   0  0  0  0  0  0  0  0  0  0  0  0
    0.8675    2.5129    0.0000 C   0  0  3  0  0  0  0  0  0  0  0  0
    1.7335    3.0129    0.0000 C   0  0  0  0  0  0  0  0  0  0  0  0
    2.6026    2.5077    0.0000 C   0  0  0  0  0  0  0  0  0  0  0  0
    3.4686    3.0077    0.0000 C   0  0  0  0  0  0  0  0  0  0  0  0
    3.4745    4.0077    0.0000 C   0  0  0  0  0  0  0  0  0  0  0  0
    2.6055    4.5129    0.0000 C   0  0  0  0  0  0  0  0  0  0  0  0
    2.6114    5.5129    0.0000 Cl  0  0  0  0  0  0  0  0  0  0  0  0
    1.7306    4.0180    0.0000 C   0  0  0  0  0  0  0  0  0  0  0  0
    0.8675    1.5129    0.0000 N   0  0  0  0  0  0  0  0  0  0  0  0
    0.0000    1.0052    0.0000 C   0  0  0  0  0  0  0  0  0  0  0  0
    0.0000    0.0000    0.0000 C   0  0  0  0  0  0  0  0  0  0  0  0
    0.8675   -0.4975    0.0000 N   0  0  0  0  0  0  0  0  0  0  0  0
    0.8675   -1.4975    0.0000 C   0  0  0  0  0  0  0  0  0  0  0  0
    0.0015   -1.9975    0.0000 O   0  0  0  0  0  0  0  0  0  0  0  0
    1.7335   -1.9975    0.0000 C   0  0  0  0  0  0  0  0  0  0  0  0
    1.7335   -2.9975    0.0000 Cl  0  0  0  0  0  0  0  0  0  0  0  0
    1.7350    0.0000    0.0000 C   0  0  0  0  0  0  0  0  0  0  0  0
    1.7350    1.0052    0.0000 C   0  0  0  0  0  0  0  0  0  0  0  0
   -2.6018    2.5116    0.0000 C   0  0  0  0  0  0  0  0  0  0  0  0
   -3.4745    3.0103    0.0000 C   0  0  0  0  0  0  0  0  0  0  0  0
  1  2  1  0  0  0  0
  2 27  2  0  0  0  0
  2  3  1  0  0  0  0
  3  4  2  0  0  0  0
  4  5  1  0  0  0  0
  5  6  1  0  0  0  0
  6  7  1  0  0  0  0
  7  8  1  0  0  0  0
  8  9  1  0  0  0  0
  9 15  2  0  0  0  0
  9 10  1  0  0  0  0
 10 11  2  0  0  0  0
 11 12  1  0  0  0  0
 12 13  2  0  0  0  0
 13 14  1  0  0  0  0
 13 15  1  0  0  0  0
  8 16  1  0  0  0  0
 16 25  1  0  0  0  0
 16 17  1  0  0  0  0
 17 18  1  0  0  0  0
 18 19  1  0  0  0  0
 19 20  1  0  0  0  0
 20 21  2  0  0  0  0
 20 22  1  0  0  0  0
 22 23  1  0  0  0  0
 19 24  1  0  0  0  0
 24 25  1  0  0  0  0
  5 26  2  0  0  0  0
 26 27  1  0  0  0  0
M  END
$$$$
PAU-WEI-b9b-4
  -OEChem-03232022352D

 27 29  0     1  0  0  0  0  0999 V2000
   -0.8823    6.5129    0.0000 N   0  0  0  0  0  0  0  0  0  0  0  0
   -0.8764    5.5129    0.0000 C   0  0  0  0  0  0  0  0  0  0  0  0
   -0.8705    4.5129    0.0000 C   0  0  0  0  0  0  0  0  0  0  0  0
   -1.7395    4.0077    0.0000 C   0  0  0  0  0  0  0  0  0  0  0  0
   -1.7336    3.0077    0.0000 C   0  0  0  0  0  0  0  0  0  0  0  0
   -0.8676    2.5077    0.0000 C   0  0  0  0  0  0  0  0  0  0  0  0
    0.0015    3.0129    0.0000 C   0  0  0  0  0  0  0  0  0  0  0  0
    0.8675    2.5129    0.0000 C   0  0  3  0  0  0  0  0  0  0  0  0
    1.7335    3.0129    0.0000 C   0  0  0  0  0  0  0  0  0  0  0  0
    1.7335    4.0129    0.0000 C   0  0  0  0  0  0  0  0  0  0  0  0
    2.5996    4.5129    0.0000 C   0  0  0  0  0  0  0  0  0  0  0  0
    2.5966    5.5181    0.0000 C   0  0  0  0  0  0  0  0  0  0  0  0
    3.4626    6.0182    0.0000 C   0  0  0  0  0  0  0  0  0  0  0  0
    4.3316    5.5232    0.0000 C   0  0  0  0  0  0  0  0  0  0  0  0
    4.3345    4.5180    0.0000 C   0  0  0  0  0  0  0  0  0  0  0  0
    3.4685    4.0078    0.0000 C   0  0  0  0  0  0  0  0  0  0  0  0
    0.8675    1.5129    0.0000 N   0  0  0  0  0  0  0  0  0  0  0  0
    0.0000    1.0052    0.0000 C   0  0  0  0  0  0  0  0  0  0  0  0
    0.0000    0.0000    0.0000 C   0  0  0  0  0  0  0  0  0  0  0  0
    0.8675   -0.4975    0.0000 N   0  0  0  0  0  0  0  0  0  0  0  0
    0.8675   -1.4975    0.0000 C   0  0  0  0  0  0  0  0  0  0  0  0
    0.0015   -1.9975    0.0000 O   0  0  0  0  0  0  0  0  0  0  0  0
    1.7335   -1.9975    0.0000 C   0  0  0  0  0  0  0  0  0  0  0  0
    1.7335   -2.9975    0.0000 Cl  0  0  0  0  0  0  0  0  0  0  0  0
    1.7350    0.0000    0.0000 C   0  0  0  0  0  0  0  0  0  0  0  0
    1.7350    1.0052    0.0000 C   0  0  0  0  0  0  0  0  0  0  0  0
    0.0044    4.0180    0.0000 C   0  0  0  0  0  0  0  0  0  0  0  0
  1  2  3  0  0  0  0
  2  3  1  0  0  0  0
  3 27  2  0  0  0  0
  3  4  1  0  0  0  0
  4  5  2  0  0  0  0
  5  6  1  0  0  0  0
  6  7  2  0  0  0  0
  7  8  1  0  0  0  0
  8  9  1  0  0  0  0
  9 10  1  0  0  0  0
 10 11  1  0  0  0  0
 11 16  2  0  0  0  0
 11 12  1  0  0  0  0
 12 13  2  0  0  0  0
 13 14  1  0  0  0  0
 14 15  2  0  0  0  0
 15 16  1  0  0  0  0
  8 17  1  0  0  0  0
 17 26  1  0  0  0  0
 17 18  1  0  0  0  0
 18 19  1  0  0  0  0
 19 20  1  0  0  0  0
 20 21  1  0  0  0  0
 21 22  2  0  0  0  0
 21 23  1  0  0  0  0
 23 24  1  0  0  0  0
 20 25  1  0  0  0  0
 25 26  1  0  0  0  0
  7 27  1  0  0  0  0
M  END
$$$$
PAU-WEI-b9b-5
  -OEChem-03232022352D

 31 33  0     1  0  0  0  0  0999 V2000
   -0.8823    6.5129    0.0000 N   0  0  0  0  0  0  0  0  0  0  0  0
   -0.8764    5.5129    0.0000 C   0  0  0  0  0  0  0  0  0  0  0  0
   -0.8705    4.5129    0.0000 C   0  0  0  0  0  0  0  0  0  0  0  0
   -1.7395    4.0077    0.0000 C   0  0  0  0  0  0  0  0  0  0  0  0
   -1.7336    3.0077    0.0000 C   0  0  0  0  0  0  0  0  0  0  0  0
   -0.8676    2.5077    0.0000 C   0  0  0  0  0  0  0  0  0  0  0  0
    0.0015    3.0129    0.0000 C   0  0  0  0  0  0  0  0  0  0  0  0
    0.8675    2.5129    0.0000 C   0  0  3  0  0  0  0  0  0  0  0  0
    1.7335    3.0129    0.0000 C   0  0  0  0  0  0  0  0  0  0  0  0
    1.7335    4.0129    0.0000 C   0  0  0  0  0  0  0  0  0  0  0  0
    2.5996    4.5129    0.0000 C   0  0  0  0  0  0  0  0  0  0  0  0
    2.5966    5.5181    0.0000 C   0  0  0  0  0  0  0  0  0  0  0  0
    3.4626    6.0182    0.0000 C   0  0  0  0  0  0  0  0  0  0  0  0
    4.3316    5.5232    0.0000 C   0  0  0  0  0  0  0  0  0  0  0  0
    5.1954    6.0270    0.0000 C   0  0  0  0  0  0  0  0  0  0  0  0
    4.6916    6.8908    0.0000 F   0  0  0  0  0  0  0  0  0  0  0  0
    5.6992    5.1632    0.0000 F   0  0  0  0  0  0  0  0  0  0  0  0
    6.0592    6.5308    0.0000 F   0  0  0  0  0  0  0  0  0  0  0  0
    4.3345    4.5180    0.0000 C   0  0  0  0  0  0  0  0  0  0  0  0
    3.4685    4.0078    0.0000 C   0  0  0  0  0  0  0  0  0  0  0  0
    0.8675    1.5129    0.0000 N   0  0  0  0  0  0  0  0  0  0  0  0
    0.0000    1.0052    0.0000 C   0  0  0  0  0  0  0  0  0  0  0  0
    0.0000    0.0000    0.0000 C   0  0  0  0  0  0  0  0  0  0  0  0
    0.8675   -0.4975    0.0000 N   0  0  0  0  0  0  0  0  0  0  0  0
    0.8675   -1.4975    0.0000 C   0  0  0  0  0  0  0  0  0  0  0  0
    0.0015   -1.9975    0.0000 O   0  0  0  0  0  0  0  0  0  0  0  0
    1.7335   -1.9975    0.0000 C   0  0  0  0  0  0  0  0  0  0  0  0
    1.7335   -2.9975    0.0000 Cl  0  0  0  0  0  0  0  0  0  0  0  0
    1.7350    0.0000    0.0000 C   0  0  0  0  0  0  0  0  0  0  0  0
    1.7350    1.0052    0.0000 C   0  0  0  0  0  0  0  0  0  0  0  0
    0.0044    4.0180    0.0000 C   0  0  0  0  0  0  0  0  0  0  0  0
  1  2  3  0  0  0  0
  2  3  1  0  0  0  0
  3 31  2  0  0  0  0
  3  4  1  0  0  0  0
  4  5  2  0  0  0  0
  5  6  1  0  0  0  0
  6  7  2  0  0  0  0
  7  8  1  0  0  0  0
  8  9  1  0  0  0  0
  9 10  1  0  0  0  0
 10 11  1  0  0  0  0
 11 20  2  0  0  0  0
 11 12  1  0  0  0  0
 12 13  2  0  0  0  0
 13 14  1  0  0  0  0
 14 15  1  0  0  0  0
 15 16  1  0  0  0  0
 15 17  1  0  0  0  0
 15 18  1  0  0  0  0
 14 19  2  0  0  0  0
 19 20  1  0  0  0  0
  8 21  1  0  0  0  0
 21 30  1  0  0  0  0
 21 22  1  0  0  0  0
 22 23  1  0  0  0  0
 23 24  1  0  0  0  0
 24 25  1  0  0  0  0
 25 26  2  0  0  0  0
 25 27  1  0  0  0  0
 27 28  1  0  0  0  0
 24 29  1  0  0  0  0
 29 30  1  0  0  0  0
  7 31  1  0  0  0  0
M  END
$$$$
PAU-WEI-b9b-6
  -OEChem-03232022352D

 28 30  0     1  0  0  0  0  0999 V2000
   -4.3310    4.5192    0.0000 C   0  0  0  0  0  0  0  0  0  0  0  0
   -3.4672    4.0154    0.0000 C   0  0  0  0  0  0  0  0  0  0  0  0
   -2.5959    4.5167    0.0000 C   0  0  0  0  0  0  0  0  0  0  0  0
   -1.7320    4.0129    0.0000 C   0  0  0  0  0  0  0  0  0  0  0  0
   -1.7306    3.0129    0.0000 C   0  0  0  0  0  0  0  0  0  0  0  0
   -0.8646    2.5129    0.0000 C   0  0  0  0  0  0  0  0  0  0  0  0
    0.0015    3.0129    0.0000 C   0  0  0  0  0  0  0  0  0  0  0  0
    0.8675    2.5129    0.0000 C   0  0  3  0  0  0  0  0  0  0  0  0
    1.7335    3.0129    0.0000 C   0  0  0  0  0  0  0  0  0  0  0  0
    2.6026    2.5077    0.0000 C   0  0  0  0  0  0  0  0  0  0  0  0
    3.4686    3.0077    0.0000 C   0  0  0  0  0  0  0  0  0  0  0  0
    3.4745    4.0077    0.0000 C   0  0  0  0  0  0  0  0  0  0  0  0
    2.6055    4.5129    0.0000 C   0  0  0  0  0  0  0  0  0  0  0  0
    2.6114    5.5129    0.0000 C   0  0  0  0  0  0  0  0  0  0  0  0
    2.6173    6.5129    0.0000 N   0  0  0  0  0  0  0  0  0  0  0  0
    1.7306    4.0180    0.0000 C   0  0  0  0  0  0  0  0  0  0  0  0
    0.8675    1.5129    0.0000 N   0  0  0  0  0  0  0  0  0  0  0  0
    0.0000    1.0052    0.0000 C   0  0  0  0  0  0  0  0  0  0  0  0
    0.0000    0.0000    0.0000 C   0  0  0  0  0  0  0  0  0  0  0  0
    0.8675   -0.4975    0.0000 N   0  0  0  0  0  0  0  0  0  0  0  0
    0.8675   -1.4975    0.0000 C   0  0  0  0  0  0  0  0  0  0  0  0
    0.0015   -1.9975    0.0000 O   0  0  0  0  0  0  0  0  0  0  0  0
    1.7335   -1.9975    0.0000 C   0  0  0  0  0  0  0  0  0  0  0  0
    1.7335   -2.9975    0.0000 Cl  0  0  0  0  0  0  0  0  0  0  0  0
    1.7350    0.0000    0.0000 C   0  0  0  0  0  0  0  0  0  0  0  0
    1.7350    1.0052    0.0000 C   0  0  0  0  0  0  0  0  0  0  0  0
   -2.6018    2.5116    0.0000 C   0  0  0  0  0  0  0  0  0  0  0  0
   -3.4745    3.0103    0.0000 C   0  0  0  0  0  0  0  0  0  0  0  0
  1  2  1  0  0  0  0
  2 28  2  0  0  0  0
  2  3  1  0  0  0  0
  3  4  2  0  0  0  0
  4  5  1  0  0  0  0
  5  6  1  0  0  0  0
  6  7  1  0  0  0  0
  7  8  1  0  0  0  0
  8  9  1  0  0  0  0
  9 16  2  0  0  0  0
  9 10  1  0  0  0  0
 10 11  2  0  0  0  0
 11 12  1  0  0  0  0
 12 13  2  0  0  0  0
 13 14  1  0  0  0  0
 14 15  3  0  0  0  0
 13 16  1  0  0  0  0
  8 17  1  0  0  0  0
 17 26  1  0  0  0  0
 17 18  1  0  0  0  0
 18 19  1  0  0  0  0
 19 20  1  0  0  0  0
 20 21  1  0  0  0  0
 21 22  2  0  0  0  0
 21 23  1  0  0  0  0
 23 24  1  0  0  0  0
 20 25  1  0  0  0  0
 25 26  1  0  0  0  0
  5 27  2  0  0  0  0
 27 28  1  0  0  0  0
M  END
$$$$
PAU-WEI-b9b-7
  -OEChem-03232022352D

 34 37  0     1  0  0  0  0  0999 V2000
    5.5770   -3.5816    0.0000 C   0  0  0  0  0  0  0  0  0  0  0  0
    5.2680   -2.6306    0.0000 C   0  0  0  0  0  0  0  0  0  0  0  0
    5.9372   -1.8874    0.0000 O   0  0  0  0  0  0  0  0  0  0  0  0
    4.2899   -2.4226    0.0000 N   0  0  0  0  0  0  0  0  0  0  0  0
    3.9809   -1.4715    0.0000 C   0  0  0  0  0  0  0  0  0  0  0  0
    3.0028   -1.2636    0.0000 C   0  0  0  0  0  0  0  0  0  0  0  0
    2.6938   -0.3125    0.0000 C   0  0  0  0  0  0  0  0  0  0  0  0
    3.2858    0.5023    0.0000 C   0  0  0  0  0  0  0  0  0  0  0  0
    2.6938    1.3169    0.0000 N   0  0  0  0  0  0  0  0  0  0  0  0
    1.7360    1.0058    0.0000 C   0  0  0  0  0  0  0  0  0  0  0  0
    0.8680    1.5138    0.0000 C   0  0  0  0  0  0  0  0  0  0  0  0
    0.8680    2.5138    0.0000 C   0  0  3  0  0  0  0  0  0  0  0  0
    0.0020    3.0138    0.0000 C   0  0  0  0  0  0  0  0  0  0  0  0
   -0.8641    2.5138    0.0000 C   0  0  0  0  0  0  0  0  0  0  0  0
   -1.7301    3.0138    0.0000 C   0  0  0  0  0  0  0  0  0  0  0  0
   -2.5991    2.5086    0.0000 C   0  0  0  0  0  0  0  0  0  0  0  0
   -3.4652    3.0086    0.0000 C   0  0  0  0  0  0  0  0  0  0  0  0
   -3.4710    4.0086    0.0000 C   0  0  0  0  0  0  0  0  0  0  0  0
   -2.6020    4.5138    0.0000 C   0  0  0  0  0  0  0  0  0  0  0  0
   -1.7271    4.0189    0.0000 C   0  0  0  0  0  0  0  0  0  0  0  0
    1.7340    3.0138    0.0000 N   0  0  0  0  0  0  0  0  0  0  0  0
    2.6075    2.5164    0.0000 C   0  0  0  0  0  0  0  0  0  0  0  0
    3.4780    3.0190    0.0000 C   0  0  0  0  0  0  0  0  0  0  0  0
    3.4751    4.0190    0.0000 N   0  0  0  0  0  0  0  0  0  0  0  0
    4.3411    4.5190    0.0000 C   0  0  0  0  0  0  0  0  0  0  0  0
    5.2071    4.0190    0.0000 O   0  0  0  0  0  0  0  0  0  0  0  0
    4.3411    5.5190    0.0000 C   0  0  0  0  0  0  0  0  0  0  0  0
    5.2071    6.0190    0.0000 Cl  0  0  0  0  0  0  0  0  0  0  0  0
    2.6105    4.5215    0.0000 C   0  0  0  0  0  0  0  0  0  0  0  0
    1.7400    4.0189    0.0000 C   0  0  0  0  0  0  0  0  0  0  0  0
    0.0000    1.0058    0.0000 C   0  0  0  0  0  0  0  0  0  0  0  0
    0.0000    0.0000    0.0000 C   0  0  0  0  0  0  0  0  0  0  0  0
    0.8680   -0.4978    0.0000 C   0  0  0  0  0  0  0  0  0  0  0  0
    1.7360   -0.0012    0.0000 C   0  0  0  0  0  0  0  0  0  0  0  0
  1  2  1  0  0  0  0
  2  3  2  0  0  0  0
  2  4  1  0  0  0  0
  4  5  1  0  0  0  0
  5  6  1  0  0  0  0
  6  7  1  0  0  0  0
  7 34  1  0  0  0  0
  7  8  2  0  0  0  0
  8  9  1  0  0  0  0
  9 10  1  0  0  0  0
 10 34  2  0  0  0  0
 10 11  1  0  0  0  0
 11 12  1  0  0  0  0
 12 13  1  0  0  0  0
 13 14  1  0  0  0  0
 14 15  1  0  0  0  0
 15 20  2  0  0  0  0
 15 16  1  0  0  0  0
 16 17  2  0  0  0  0
 17 18  1  0  0  0  0
 18 19  2  0  0  0  0
 19 20  1  0  0  0  0
 12 21  1  0  0  0  0
 21 30  1  0  0  0  0
 21 22  1  0  0  0  0
 22 23  1  0  0  0  0
 23 24  1  0  0  0  0
 24 25  1  0  0  0  0
 25 26  2  0  0  0  0
 25 27  1  0  0  0  0
 27 28  1  0  0  0  0
 24 29  1  0  0  0  0
 29 30  1  0  0  0  0
 11 31  2  0  0  0  0
 31 32  1  0  0  0  0
 32 33  2  0  0  0  0
 33 34  1  0  0  0  0
M  END
$$$$
PAU-WEI-b9b-8
  -OEChem-03232022352D

 35 38  0     1  0  0  0  0  0999 V2000
    5.5770   -3.5816    0.0000 C   0  0  0  0  0  0  0  0  0  0  0  0
    5.2680   -2.6306    0.0000 C   0  0  0  0  0  0  0  0  0  0  0  0
    5.9372   -1.8874    0.0000 O   0  0  0  0  0  0  0  0  0  0  0  0
    4.2899   -2.4226    0.0000 N   0  0  0  0  0  0  0  0  0  0  0  0
    3.9809   -1.4715    0.0000 C   0  0  0  0  0  0  0  0  0  0  0  0
    3.0028   -1.2636    0.0000 C   0  0  0  0  0  0  0  0  0  0  0  0
    2.6938   -0.3125    0.0000 C   0  0  0  0  0  0  0  0  0  0  0  0
    3.2858    0.5023    0.0000 C   0  0  0  0  0  0  0  0  0  0  0  0
    2.6938    1.3169    0.0000 N   0  0  0  0  0  0  0  0  0  0  0  0
    1.7360    1.0058    0.0000 C   0  0  0  0  0  0  0  0  0  0  0  0
    0.8680    1.5138    0.0000 C   0  0  0  0  0  0  0  0  0  0  0  0
    0.8680    2.5138    0.0000 C   0  0  3  0  0  0  0  0  0  0  0  0
    0.0020    3.0138    0.0000 C   0  0  0  0  0  0  0  0  0  0  0  0
   -0.8641    2.5138    0.0000 C   0  0  0  0  0  0  0  0  0  0  0  0
   -1.7301    3.0138    0.0000 C   0  0  0  0  0  0  0  0  0  0  0  0
   -2.5991    2.5086    0.0000 C   0  0  0  0  0  0  0  0  0  0  0  0
   -3.4652    3.0086    0.0000 C   0  0  0  0  0  0  0  0  0  0  0  0
   -3.4710    4.0086    0.0000 C   0  0  0  0  0  0  0  0  0  0  0  0
   -4.3393    4.5048    0.0000 C   0  0  0  0  0  0  0  0  0  0  0  0
   -2.6020    4.5138    0.0000 C   0  0  0  0  0  0  0  0  0  0  0  0
   -1.7271    4.0189    0.0000 C   0  0  0  0  0  0  0  0  0  0  0  0
    1.7340    3.0138    0.0000 N   0  0  0  0  0  0  0  0  0  0  0  0
    2.6075    2.5164    0.0000 C   0  0  0  0  0  0  0  0  0  0  0  0
    3.4780    3.0190    0.0000 C   0  0  0  0  0  0  0  0  0  0  0  0
    3.4751    4.0190    0.0000 N   0  0  0  0  0  0  0  0  0  0  0  0
    4.3411    4.5190    0.0000 C   0  0  0  0  0  0  0  0  0  0  0  0
    5.2071    4.0190    0.0000 O   0  0  0  0  0  0  0  0  0  0  0  0
    4.3411    5.5190    0.0000 C   0  0  0  0  0  0  0  0  0  0  0  0
    5.2071    6.0190    0.0000 Cl  0  0  0  0  0  0  0  0  0  0  0  0
    2.6105    4.5215    0.0000 C   0  0  0  0  0  0  0  0  0  0  0  0
    1.7400    4.0189    0.0000 C   0  0  0  0  0  0  0  0  0  0  0  0
    0.0000    1.0058    0.0000 C   0  0  0  0  0  0  0  0  0  0  0  0
    0.0000    0.0000    0.0000 C   0  0  0  0  0  0  0  0  0  0  0  0
    0.8680   -0.4978    0.0000 C   0  0  0  0  0  0  0  0  0  0  0  0
    1.7360   -0.0012    0.0000 C   0  0  0  0  0  0  0  0  0  0  0  0
  1  2  1  0  0  0  0
  2  3  2  0  0  0  0
  2  4  1  0  0  0  0
  4  5  1  0  0  0  0
  5  6  1  0  0  0  0
  6  7  1  0  0  0  0
  7 35  1  0  0  0  0
  7  8  2  0  0  0  0
  8  9  1  0  0  0  0
  9 10  1  0  0  0  0
 10 35  2  0  0  0  0
 10 11  1  0  0  0  0
 11 12  1  0  0  0  0
 12 13  1  0  0  0  0
 13 14  1  0  0  0  0
 14 15  1  0  0  0  0
 15 21  2  0  0  0  0
 15 16  1  0  0  0  0
 16 17  2  0  0  0  0
 17 18  1  0  0  0  0
 18 19  1  0  0  0  0
 18 20  2  0  0  0  0
 20 21  1  0  0  0  0
 12 22  1  0  0  0  0
 22 31  1  0  0  0  0
 22 23  1  0  0  0  0
 23 24  1  0  0  0  0
 24 25  1  0  0  0  0
 25 26  1  0  0  0  0
 26 27  2  0  0  0  0
 26 28  1  0  0  0  0
 28 29  1  0  0  0  0
 25 30  1  0  0  0  0
 30 31  1  0  0  0  0
 11 32  2  0  0  0  0
 32 33  1  0  0  0  0
 33 34  2  0  0  0  0
 34 35  1  0  0  0  0
M  END
$$$$
PAU-WEI-b9b-9
  -OEChem-03232022352D

 38 41  0     1  0  0  0  0  0999 V2000
    5.5770   -3.5816    0.0000 C   0  0  0  0  0  0  0  0  0  0  0  0
    5.2680   -2.6306    0.0000 C   0  0  0  0  0  0  0  0  0  0  0  0
    5.9372   -1.8874    0.0000 O   0  0  0  0  0  0  0  0  0  0  0  0
    4.2899   -2.4226    0.0000 N   0  0  0  0  0  0  0  0  0  0  0  0
    3.9809   -1.4715    0.0000 C   0  0  0  0  0  0  0  0  0  0  0  0
    3.0028   -1.2636    0.0000 C   0  0  0  0  0  0  0  0  0  0  0  0
    2.6938   -0.3125    0.0000 C   0  0  0  0  0  0  0  0  0  0  0  0
    3.2858    0.5023    0.0000 C   0  0  0  0  0  0  0  0  0  0  0  0
    2.6938    1.3169    0.0000 N   0  0  0  0  0  0  0  0  0  0  0  0
    1.7360    1.0058    0.0000 C   0  0  0  0  0  0  0  0  0  0  0  0
    0.8680    1.5138    0.0000 C   0  0  0  0  0  0  0  0  0  0  0  0
    0.8680    2.5138    0.0000 C   0  0  3  0  0  0  0  0  0  0  0  0
    0.0020    3.0138    0.0000 C   0  0  0  0  0  0  0  0  0  0  0  0
   -0.8641    2.5138    0.0000 C   0  0  0  0  0  0  0  0  0  0  0  0
   -1.7301    3.0138    0.0000 C   0  0  0  0  0  0  0  0  0  0  0  0
   -2.5991    2.5086    0.0000 C   0  0  0  0  0  0  0  0  0  0  0  0
   -3.4652    3.0086    0.0000 C   0  0  0  0  0  0  0  0  0  0  0  0
   -3.4710    4.0086    0.0000 C   0  0  0  0  0  0  0  0  0  0  0  0
   -4.3393    4.5048    0.0000 C   0  0  0  0  0  0  0  0  0  0  0  0
   -4.8354    3.6366    0.0000 F   0  0  0  0  0  0  0  0  0  0  0  0
   -3.8431    5.3730    0.0000 F   0  0  0  0  0  0  0  0  0  0  0  0
   -5.2075    5.0010    0.0000 F   0  0  0  0  0  0  0  0  0  0  0  0
   -2.6020    4.5138    0.0000 C   0  0  0  0  0  0  0  0  0  0  0  0
   -1.7271    4.0189    0.0000 C   0  0  0  0  0  0  0  0  0  0  0  0
    1.7340    3.0138    0.0000 N   0  0  0  0  0  0  0  0  0  0  0  0
    2.6075    2.5164    0.0000 C   0  0  0  0  0  0  0  0  0  0  0  0
    3.4780    3.0190    0.0000 C   0  0  0  0  0  0  0  0  0  0  0  0
    3.4751    4.0190    0.0000 N   0  0  0  0  0  0  0  0  0  0  0  0
    4.3411    4.5190    0.0000 C   0  0  0  0  0  0  0  0  0  0  0  0
    5.2071    4.0190    0.0000 O   0  0  0  0  0  0  0  0  0  0  0  0
    4.3411    5.5190    0.0000 C   0  0  0  0  0  0  0  0  0  0  0  0
    5.2071    6.0190    0.0000 Cl  0  0  0  0  0  0  0  0  0  0  0  0
    2.6105    4.5215    0.0000 C   0  0  0  0  0  0  0  0  0  0  0  0
    1.7400    4.0189    0.0000 C   0  0  0  0  0  0  0  0  0  0  0  0
    0.0000    1.0058    0.0000 C   0  0  0  0  0  0  0  0  0  0  0  0
    0.0000    0.0000    0.0000 C   0  0  0  0  0  0  0  0  0  0  0  0
    0.8680   -0.4978    0.0000 C   0  0  0  0  0  0  0  0  0  0  0  0
    1.7360   -0.0012    0.0000 C   0  0  0  0  0  0  0  0  0  0  0  0
  1  2  1  0  0  0  0
  2  3  2  0  0  0  0
  2  4  1  0  0  0  0
  4  5  1  0  0  0  0
  5  6  1  0  0  0  0
  6  7  1  0  0  0  0
  7 38  1  0  0  0  0
  7  8  2  0  0  0  0
  8  9  1  0  0  0  0
  9 10  1  0  0  0  0
 10 38  2  0  0  0  0
 10 11  1  0  0  0  0
 11 12  1  0  0  0  0
 12 13  1  0  0  0  0
 13 14  1  0  0  0  0
 14 15  1  0  0  0  0
 15 24  2  0  0  0  0
 15 16  1  0  0  0  0
 16 17  2  0  0  0  0
 17 18  1  0  0  0  0
 18 19  1  0  0  0  0
 19 20  1  0  0  0  0
 19 21  1  0  0  0  0
 19 22  1  0  0  0  0
 18 23  2  0  0  0  0
 23 24  1  0  0  0  0
 12 25  1  0  0  0  0
 25 34  1  0  0  0  0
 25 26  1  0  0  0  0
 26 27  1  0  0  0  0
 27 28  1  0  0  0  0
 28 29  1  0  0  0  0
 29 30  2  0  0  0  0
 29 31  1  0  0  0  0
 31 32  1  0  0  0  0
 28 33  1  0  0  0  0
 33 34  1  0  0  0  0
 11 35  2  0  0  0  0
 35 36  1  0  0  0  0
 36 37  2  0  0  0  0
 37 38  1  0  0  0  0
M  END
$$$$
ANT-DIA-b7f-1
  -OEChem-03232022352D

 13 13  0     0  0  0  0  0  0999 V2000
    2.5937   -3.5050    0.0000 C   0  0  0  0  0  0  0  0  0  0  0  0
    2.5952   -2.5050    0.0000 S   0  0  0  0  0  0  0  0  0  0  0  0
    1.5952   -2.5036    0.0000 O   0  0  0  0  0  0  0  0  0  0  0  0
    3.5952   -2.5065    0.0000 O   0  0  0  0  0  0  0  0  0  0  0  0
    2.5966   -1.5050    0.0000 N   0  0  0  0  0  0  0  0  0  0  0  0
    1.7313   -1.0038    0.0000 C   0  0  0  0  0  0  0  0  0  0  0  0
    1.7328   -0.0038    0.0000 C   0  0  0  0  0  0  0  0  0  0  0  0
    0.8675    0.4975    0.0000 C   0  0  0  0  0  0  0  0  0  0  0  0
    0.0000    0.0000    0.0000 C   0  0  0  0  0  0  0  0  0  0  0  0
   -0.8675    0.4975    0.0000 C   0  0  0  0  0  0  0  0  0  0  0  0
   -0.8675    1.5027    0.0000 C   0  0  0  0  0  0  0  0  0  0  0  0
    0.0000    2.0104    0.0000 N   0  0  0  0  0  0  0  0  0  0  0  0
    0.8675    1.5027    0.0000 C   0  0  0  0  0  0  0  0  0  0  0  0
  1  2  1  0  0  0  0
  2  3  2  0  0  0  0
  2  4  2  0  0  0  0
  2  5  1  0  0  0  0
  5  6  1  0  0  0  0
  6  7  1  0  0  0  0
  7  8  1  0  0  0  0
  8 13  2  0  0  0  0
  8  9  1  0  0  0  0
  9 10  2  0  0  0  0
 10 11  1  0  0  0  0
 11 12  2  0  0  0  0
 12 13  1  0  0  0  0
M  END
$$$$
ANT-DIA-b7f-2
  -OEChem-03232022352D

 14 14  0     0  0  0  0  0  0999 V2000
   -2.6113    5.4976    0.0000 C   0  0  0  0  0  0  0  0  0  0  0  0
   -2.6084    4.4976    0.0000 S   0  0  0  0  0  0  0  0  0  0  0  0
   -1.6084    4.5005    0.0000 O   0  0  0  0  0  0  0  0  0  0  0  0
   -3.6084    4.4946    0.0000 O   0  0  0  0  0  0  0  0  0  0  0  0
   -2.6054    3.4976    0.0000 N   0  0  0  0  0  0  0  0  0  0  0  0
   -1.7379    3.0001    0.0000 C   0  0  0  0  0  0  0  0  0  0  0  0
   -1.7350    2.0001    0.0000 C   0  0  0  0  0  0  0  0  0  0  0  0
   -0.8675    1.5027    0.0000 C   0  0  0  0  0  0  0  0  0  0  0  0
   -0.8675    0.4975    0.0000 C   0  0  0  0  0  0  0  0  0  0  0  0
    0.0000    0.0000    0.0000 C   0  0  0  0  0  0  0  0  0  0  0  0
    0.8675    0.4975    0.0000 C   0  0  0  0  0  0  0  0  0  0  0  0
    0.8675    1.5027    0.0000 C   0  0  0  0  0  0  0  0  0  0  0  0
    1.7350    2.0001    0.0000 O   0  0  0  0  0  0  0  0  0  0  0  0
   -0.0000    2.0104    0.0000 C   0  0  0  0  0  0  0  0  0  0  0  0
  1  2  1  0  0  0  0
  2  3  2  0  0  0  0
  2  4  2  0  0  0  0
  2  5  1  0  0  0  0
  5  6  1  0  0  0  0
  6  7  1  0  0  0  0
  7  8  1  0  0  0  0
  8 14  2  0  0  0  0
  8  9  1  0  0  0  0
  9 10  2  0  0  0  0
 10 11  1  0  0  0  0
 11 12  2  0  0  0  0
 12 13  1  0  0  0  0
 12 14  1  0  0  0  0
M  END
$$$$
ANT-DIA-b7f-3
  -OEChem-03232022352D

 14 14  0     0  0  0  0  0  0999 V2000
    3.4612   -4.0025    0.0000 C   0  0  0  0  0  0  0  0  0  0  0  0
    3.4627   -3.0025    0.0000 S   0  0  0  0  0  0  0  0  0  0  0  0
    2.4627   -3.0011    0.0000 O   0  0  0  0  0  0  0  0  0  0  0  0
    4.4627   -3.0040    0.0000 O   0  0  0  0  0  0  0  0  0  0  0  0
    3.4641   -2.0025    0.0000 N   0  0  0  0  0  0  0  0  0  0  0  0
    2.5988   -1.5013    0.0000 C   0  0  0  0  0  0  0  0  0  0  0  0
    2.6003   -0.5013    0.0000 C   0  0  0  0  0  0  0  0  0  0  0  0
    1.7350    0.0000    0.0000 C   0  0  0  0  0  0  0  0  0  0  0  0
    0.8675   -0.4975    0.0000 C   0  0  0  0  0  0  0  0  0  0  0  0
    0.0000    0.0000    0.0000 C   0  0  0  0  0  0  0  0  0  0  0  0
   -0.0000    1.0052    0.0000 C   0  0  0  0  0  0  0  0  0  0  0  0
    0.8675    1.5129    0.0000 C   0  0  0  0  0  0  0  0  0  0  0  0
    1.7350    1.0052    0.0000 C   0  0  0  0  0  0  0  0  0  0  0  0
    2.6025    1.5026    0.0000 O   0  0  0  0  0  0  0  0  0  0  0  0
  1  2  1  0  0  0  0
  2  3  2  0  0  0  0
  2  4  2  0  0  0  0
  2  5  1  0  0  0  0
  5  6  1  0  0  0  0
  6  7  1  0  0  0  0
  7  8  1  0  0  0  0
  8 13  2  0  0  0  0
  8  9  1  0  0  0  0
  9 10  2  0  0  0  0
 10 11  1  0  0  0  0
 11 12  2  0  0  0  0
 12 13  1  0  0  0  0
 13 14  1  0  0  0  0
M  END
$$$$
ANT-DIA-b7f-4
  -OEChem-03232022352D

 12 12  0     0  0  0  0  0  0999 V2000
    3.4759    4.9950    0.0000 C   0  0  0  0  0  0  0  0  0  0  0  0
    2.6084    4.4976    0.0000 C   0  0  0  0  0  0  0  0  0  0  0  0
    1.7438    5.0001    0.0000 O   0  0  0  0  0  0  0  0  0  0  0  0
    2.6054    3.4976    0.0000 N   0  0  0  0  0  0  0  0  0  0  0  0
    1.7379    3.0001    0.0000 C   0  0  0  0  0  0  0  0  0  0  0  0
    1.7350    2.0001    0.0000 C   0  0  0  0  0  0  0  0  0  0  0  0
    0.8675    1.5027    0.0000 C   0  0  0  0  0  0  0  0  0  0  0  0
    0.8675    0.4975    0.0000 C   0  0  0  0  0  0  0  0  0  0  0  0
    0.0000    0.0000    0.0000 C   0  0  0  0  0  0  0  0  0  0  0  0
   -0.8675    0.4975    0.0000 C   0  0  0  0  0  0  0  0  0  0  0  0
   -0.8675    1.5027    0.0000 C   0  0  0  0  0  0  0  0  0  0  0  0
    0.0000    2.0104    0.0000 C   0  0  0  0  0  0  0  0  0  0  0  0
  1  2  1  0  0  0  0
  2  3  2  0  0  0  0
  2  4  1  0  0  0  0
  4  5  1  0  0  0  0
  5  6  1  0  0  0  0
  6  7  1  0  0  0  0
  7 12  2  0  0  0  0
  7  8  1  0  0  0  0
  8  9  2  0  0  0  0
  9 10  1  0  0  0  0
 10 11  2  0  0  0  0
 11 12  1  0  0  0  0
M  END
$$$$
ANT-DIA-b7f-5
  -OEChem-03232022352D

 12 12  0     0  0  0  0  0  0999 V2000
   -4.1609   -1.2989    0.0000 C   0  0  0  0  0  0  0  0  0  0  0  0
   -3.1665   -1.4048    0.0000 S   0  0  0  0  0  0  0  0  0  0  0  0
   -3.0606   -0.4104    0.0000 O   0  0  0  0  0  0  0  0  0  0  0  0
   -3.2723   -2.3992    0.0000 O   0  0  0  0  0  0  0  0  0  0  0  0
   -2.1721   -1.5106    0.0000 N   0  0  0  0  0  0  0  0  0  0  0  0
   -1.5832   -0.7024    0.0000 C   0  0  0  0  0  0  0  0  0  0  0  0
   -0.5889   -0.8082    0.0000 C   0  0  0  0  0  0  0  0  0  0  0  0
    0.0000    0.0000    0.0000 C   0  0  0  0  0  0  0  0  0  0  0  0
   -0.3065    0.9519    0.0000 C   0  0  0  0  0  0  0  0  0  0  0  0
    0.5008    1.5428    0.0000 S   0  0  0  0  0  0  0  0  0  0  0  0
    1.3133    0.9519    0.0000 C   0  0  0  0  0  0  0  0  0  0  0  0
    1.0015    0.0000    0.0000 N   0  0  0  0  0  0  0  0  0  0  0  0
  1  2  1  0  0  0  0
  2  3  2  0  0  0  0
  2  4  2  0  0  0  0
  2  5  1  0  0  0  0
  5  6  1  0  0  0  0
  6  7  1  0  0  0  0
  7  8  1  0  0  0  0
  8 12  1  0  0  0  0
  8  9  2  0  0  0  0
  9 10  1  0  0  0  0
 10 11  1  0  0  0  0
 11 12  2  0  0  0  0
M  END
$$$$
ANT-DIA-b7f-6
  -OEChem-03232022352D

 17 18  0     0  0  0  0  0  0999 V2000
   -1.7439    5.0007    0.0000 C   0  0  0  0  0  0  0  0  0  0  0  0
   -1.7409    4.0007    0.0000 S   0  0  0  0  0  0  0  0  0  0  0  0
   -0.7409    4.0036    0.0000 O   0  0  0  0  0  0  0  0  0  0  0  0
   -2.7409    3.9977    0.0000 O   0  0  0  0  0  0  0  0  0  0  0  0
   -1.7380    3.0007    0.0000 N   0  0  0  0  0  0  0  0  0  0  0  0
   -0.8705    2.5032    0.0000 C   0  0  0  0  0  0  0  0  0  0  0  0
   -0.8675    1.5032    0.0000 C   0  0  0  0  0  0  0  0  0  0  0  0
    0.0000    1.0058    0.0000 C   0  0  0  0  0  0  0  0  0  0  0  0
    0.0000    0.0000    0.0000 C   0  0  0  0  0  0  0  0  0  0  0  0
    0.8680   -0.4978    0.0000 C   0  0  0  0  0  0  0  0  0  0  0  0
    1.7360   -0.0012    0.0000 C   0  0  0  0  0  0  0  0  0  0  0  0
    2.6938   -0.3125    0.0000 N   0  0  0  0  0  0  0  0  0  0  0  0
    3.2858    0.5023    0.0000 C   0  0  0  0  0  0  0  0  0  0  0  0
    4.2858    0.5024    0.0000 N   0  0  0  0  0  0  0  0  0  0  0  0
    2.6938    1.3169    0.0000 S   0  0  0  0  0  0  0  0  0  0  0  0
    1.7360    1.0058    0.0000 C   0  0  0  0  0  0  0  0  0  0  0  0
    0.8680    1.5138    0.0000 C   0  0  0  0  0  0  0  0  0  0  0  0
  1  2  1  0  0  0  0
  2  3  2  0  0  0  0
  2  4  2  0  0  0  0
  2  5  1  0  0  0  0
  5  6  1  0  0  0  0
  6  7  1  0  0  0  0
  7  8  1  0  0  0  0
  8 17  2  0  0  0  0
  8  9  1  0  0  0  0
  9 10  2  0  0  0  0
 10 11  1  0  0  0  0
 11 16  2  0  0  0  0
 11 12  1  0  0  0  0
 12 13  2  0  0  0  0
 13 14  1  0  0  0  0
 13 15  1  0  0  0  0
 15 16  1  0  0  0  0
 16 17  1  0  0  0  0
M  END
$$$$
ANT-DIA-b7f-7
  -OEChem-03232022352D

 16 17  0     0  0  0  0  0  0999 V2000
   -1.7439    5.0007    0.0000 C   0  0  0  0  0  0  0  0  0  0  0  0
   -1.7409    4.0007    0.0000 S   0  0  0  0  0  0  0  0  0  0  0  0
   -0.7409    4.0036    0.0000 O   0  0  0  0  0  0  0  0  0  0  0  0
   -2.7409    3.9977    0.0000 O   0  0  0  0  0  0  0  0  0  0  0  0
   -1.7380    3.0007    0.0000 N   0  0  0  0  0  0  0  0  0  0  0  0
   -0.8705    2.5032    0.0000 C   0  0  0  0  0  0  0  0  0  0  0  0
   -0.8675    1.5032    0.0000 C   0  0  0  0  0  0  0  0  0  0  0  0
    0.0000    1.0058    0.0000 C   0  0  0  0  0  0  0  0  0  0  0  0
    0.0000    0.0000    0.0000 C   0  0  0  0  0  0  0  0  0  0  0  0
    0.8680   -0.4978    0.0000 C   0  0  0  0  0  0  0  0  0  0  0  0
    1.7360   -0.0012    0.0000 C   0  0  0  0  0  0  0  0  0  0  0  0
    2.6938   -0.3125    0.0000 N   0  0  0  0  0  0  0  0  0  0  0  0
    3.2858    0.5023    0.0000 C   0  0  0  0  0  0  0  0  0  0  0  0
    2.6938    1.3169    0.0000 S   0  0  0  0  0  0  0  0  0  0  0  0
    1.7360    1.0058    0.0000 C   0  0  0  0  0  0  0  0  0  0  0  0
    0.8680    1.5138    0.0000 C   0  0  0  0  0  0  0  0  0  0  0  0
  1  2  1  0  0  0  0
  2  3  2  0  0  0  0
  2  4  2  0  0  0  0
  2  5  1  0  0  0  0
  5  6  1  0  0  0  0
  6  7  1  0  0  0  0
  7  8  1  0  0  0  0
  8 16  2  0  0  0  0
  8  9  1  0  0  0  0
  9 10  2  0  0  0  0
 10 11  1  0  0  0  0
 11 15  2  0  0  0  0
 11 12  1  0  0  0  0
 12 13  2  0  0  0  0
 13 14  1  0  0  0  0
 14 15  1  0  0  0  0
 15 16  1  0  0  0  0
M  END
$$$$
ANT-DIA-b7f-8
  -OEChem-03232022352D

 18 18  0     0  0  0  0  0  0999 V2000
   -3.4641   -2.0025    0.0000 C   0  0  0  0  0  0  0  0  0  0  0  0
   -2.5988   -1.5013    0.0000 C   0  0  0  0  0  0  0  0  0  0  0  0
   -2.6003   -0.5013    0.0000 N   0  0  0  0  0  0  0  0  0  0  0  0
   -1.7350   -0.0000    0.0000 C   0  0  0  0  0  0  0  0  0  0  0  0
   -0.8675   -0.4975    0.0000 C   0  0  0  0  0  0  0  0  0  0  0  0
    0.0000    0.0000    0.0000 C   0  0  0  0  0  0  0  0  0  0  0  0
   -0.0000    1.0052    0.0000 C   0  0  0  0  0  0  0  0  0  0  0  0
    0.8675    1.5026    0.0000 C   0  0  0  0  0  0  0  0  0  0  0  0
    1.7350    2.0001    0.0000 N   0  0  0  0  0  0  0  0  0  0  0  0
   -0.8675    1.5129    0.0000 C   0  0  0  0  0  0  0  0  0  0  0  0
   -1.7350    1.0052    0.0000 C   0  0  0  0  0  0  0  0  0  0  0  0
   -2.6025    1.5026    0.0000 C   0  0  0  0  0  0  0  0  0  0  0  0
   -3.4670    1.0001    0.0000 C   0  0  0  0  0  0  0  0  0  0  0  0
   -4.3345    1.4975    0.0000 N   0  0  0  0  0  0  0  0  0  0  0  0
   -5.1991    0.9950    0.0000 S   0  0  0  0  0  0  0  0  0  0  0  0
   -6.0636    0.4924    0.0000 C   0  0  0  0  0  0  0  0  0  0  0  0
   -4.6965    0.1304    0.0000 O   0  0  0  0  0  0  0  0  0  0  0  0
   -5.7016    1.8595    0.0000 O   0  0  0  0  0  0  0  0  0  0  0  0
  1  2  1  0  0  0  0
  2  3  1  0  0  0  0
  3  4  1  0  0  0  0
  4 11  2  0  0  0  0
  4  5  1  0  0  0  0
  5  6  2  0  0  0  0
  6  7  1  0  0  0  0
  7  8  1  0  0  0  0
  8  9  3  0  0  0  0
  7 10  2  0  0  0  0
 10 11  1  0  0  0  0
 11 12  1  0  0  0  0
 12 13  1  0  0  0  0
 13 14  1  0  0  0  0
 14 15  1  0  0  0  0
 15 16  1  0  0  0  0
 15 17  2  0  0  0  0
 15 18  2  0  0  0  0
M  END
$$$$
ANT-DIA-b7f-9
  -OEChem-03232022352D

 24 25  0     0  0  0  0  0  0999 V2000
    5.1976   -0.9975    0.0000 C   0  0  0  0  0  0  0  0  0  0  0  0
    5.1991   -1.9975    0.0000 S   0  0  0  0  0  0  0  0  0  0  0  0
    4.1991   -1.9990    0.0000 O   0  0  0  0  0  0  0  0  0  0  0  0
    6.1991   -1.9960    0.0000 O   0  0  0  0  0  0  0  0  0  0  0  0
    5.2006   -2.9975    0.0000 N   0  0  0  0  0  0  0  0  0  0  0  0
    4.3354   -3.4988    0.0000 C   0  0  0  0  0  0  0  0  0  0  0  0
    3.4686   -3.0001    0.0000 C   0  0  0  0  0  0  0  0  0  0  0  0
    2.6033   -3.5014    0.0000 C   0  0  0  0  0  0  0  0  0  0  0  0
    2.6078   -4.5065    0.0000 C   0  0  0  0  0  0  0  0  0  0  0  0
    1.7336   -5.0027    0.0000 C   0  0  0  0  0  0  0  0  0  0  0  0
    1.7292   -6.0026    0.0000 C   0  0  0  0  0  0  0  0  0  0  0  0
    1.7248   -7.0026    0.0000 N   0  0  0  0  0  0  0  0  0  0  0  0
    0.8638   -4.4988    0.0000 C   0  0  0  0  0  0  0  0  0  0  0  0
    0.8682   -3.4988    0.0000 C   0  0  0  0  0  0  0  0  0  0  0  0
    1.7335   -2.9975    0.0000 C   0  0  0  0  0  0  0  0  0  0  0  0
    1.7335   -1.9975    0.0000 N   0  0  0  0  0  0  0  0  0  0  0  0
    0.8675   -1.4975    0.0000 C   0  0  0  0  0  0  0  0  0  0  0  0
    0.0015   -1.9975    0.0000 O   0  0  0  0  0  0  0  0  0  0  0  0
    0.8675   -0.4975    0.0000 N   0  0  0  0  0  0  0  0  0  0  0  0
    0.0000    0.0000    0.0000 C   0  0  0  0  0  0  0  0  0  0  0  0
   -0.0000    1.0052    0.0000 C   0  0  0  0  0  0  0  0  0  0  0  0
    0.8675    1.5129    0.0000 O   0  0  0  0  0  0  0  0  0  0  0  0
    1.7350    1.0052    0.0000 C   0  0  0  0  0  0  0  0  0  0  0  0
    1.7350    0.0000    0.0000 C   0  0  0  0  0  0  0  0  0  0  0  0
  1  2  1  0  0  0  0
  2  3  2  0  0  0  0
  2  4  2  0  0  0  0
  2  5  1  0  0  0  0
  5  6  1  0  0  0  0
  6  7  1  0  0  0  0
  7  8  1  0  0  0  0
  8 15  2  0  0  0  0
  8  9  1  0  0  0  0
  9 10  2  0  0  0  0
 10 11  1  0  0  0  0
 11 12  3  0  0  0  0
 10 13  1  0  0  0  0
 13 14  2  0  0  0  0
 14 15  1  0  0  0  0
 15 16  1  0  0  0  0
 16 17  1  0  0  0  0
 17 18  2  0  0  0  0
 17 19  1  0  0  0  0
 19 24  1  0  0  0  0
 19 20  1  0  0  0  0
 20 21  1  0  0  0  0
 21 22  1  0  0  0  0
 22 23  1  0  0  0  0
 23 24  1  0  0  0  0
M  END
$$$$
CHR-SOS-b30-1
  -OEChem-03232022352D

 24 26  0     0  0  0  0  0  0999 V2000
    5.4379    2.6381    0.0000 O   0  0  0  0  0  0  0  0  0  0  0  0
    4.7913    1.8752    0.0000 C   0  0  0  0  0  0  0  0  0  0  0  0
    3.8074    2.0537    0.0000 C   0  0  0  0  0  0  0  0  0  0  0  0
    3.4700    2.9950    0.0000 C   0  0  0  0  0  0  0  0  0  0  0  0
    2.6025    2.4976    0.0000 C   0  0  0  0  0  0  0  0  0  0  0  0
    1.7350    2.0001    0.0000 C   0  0  0  0  0  0  0  0  0  0  0  0
    0.8675    1.5027    0.0000 C   0  0  0  0  0  0  0  0  0  0  0  0
    0.8675    0.4975    0.0000 C   0  0  0  0  0  0  0  0  0  0  0  0
    0.0000    0.0000    0.0000 C   0  0  0  0  0  0  0  0  0  0  0  0
   -0.8675    0.4975    0.0000 C   0  0  0  0  0  0  0  0  0  0  0  0
   -0.8675    1.5027    0.0000 C   0  0  0  0  0  0  0  0  0  0  0  0
    0.0000    2.0104    0.0000 N   0  0  0  0  0  0  0  0  0  0  0  0
    2.8246    3.7657    0.0000 C   0  0  0  0  0  0  0  0  0  0  0  0
    3.1703    4.7041    0.0000 C   0  0  0  0  0  0  0  0  0  0  0  0
    4.1548    4.8796    0.0000 C   0  0  0  0  0  0  0  0  0  0  0  0
    4.8002    4.1090    0.0000 C   0  0  0  0  0  0  0  0  0  0  0  0
    4.4610    3.1628    0.0000 C   0  0  0  0  0  0  0  0  0  0  0  0
    5.1287    0.9338    0.0000 N   0  0  0  0  0  0  0  0  0  0  0  0
    6.1127    0.7553    0.0000 C   0  0  0  0  0  0  0  0  0  0  0  0
    6.4514   -0.1856    0.0000 C   0  0  0  0  0  0  0  0  0  0  0  0
    7.4346   -0.3684    0.0000 C   0  0  0  0  0  0  0  0  0  0  0  0
    8.0856    0.3975    0.0000 C   0  0  0  0  0  0  0  0  0  0  0  0
    7.7535    1.3462    0.0000 N   0  0  0  0  0  0  0  0  0  0  0  0
    6.7637    1.5212    0.0000 C   0  0  0  0  0  0  0  0  0  0  0  0
  1  2  2  0  0  0  0
  2  3  1  0  0  0  0
  3  4  1  0  0  0  0
  4 17  1  0  0  0  0
  4  5  1  0  0  0  0
  5  6  3  0  0  0  0
  6  7  1  0  0  0  0
  7 12  2  0  0  0  0
  7  8  1  0  0  0  0
  8  9  2  0  0  0  0
  9 10  1  0  0  0  0
 10 11  2  0  0  0  0
 11 12  1  0  0  0  0
  4 13  1  0  0  0  0
 13 14  1  0  0  0  0
 14 15  1  0  0  0  0
 15 16  1  0  0  0  0
 16 17  1  0  0  0  0
  2 18  1  0  0  0  0
 18 19  1  0  0  0  0
 19 24  2  0  0  0  0
 19 20  1  0  0  0  0
 20 21  2  0  0  0  0
 21 22  1  0  0  0  0
 22 23  2  0  0  0  0
 23 24  1  0  0  0  0
M  END
$$$$
CHR-SOS-b30-2
  -OEChem-03232022352D

 24 26  0     0  0  0  0  0  0999 V2000
    4.1410   -2.8880    0.0000 O   0  0  0  0  0  0  0  0  0  0  0  0
    3.1568   -2.7110    0.0000 C   0  0  0  0  0  0  0  0  0  0  0  0
    2.8180   -1.7701    0.0000 C   0  0  0  0  0  0  0  0  0  0  0  0
    3.4634   -1.0063    0.0000 C   0  0  0  0  0  0  0  0  0  0  0  0
    2.5981   -0.5050    0.0000 C   0  0  0  0  0  0  0  0  0  0  0  0
    1.7328   -0.0038    0.0000 C   0  0  0  0  0  0  0  0  0  0  0  0
    0.8675    0.4975    0.0000 C   0  0  0  0  0  0  0  0  0  0  0  0
    0.0000    0.0000    0.0000 C   0  0  0  0  0  0  0  0  0  0  0  0
   -0.8675    0.4975    0.0000 C   0  0  0  0  0  0  0  0  0  0  0  0
   -0.8675    1.5027    0.0000 C   0  0  0  0  0  0  0  0  0  0  0  0
    0.0000    2.0104    0.0000 N   0  0  0  0  0  0  0  0  0  0  0  0
    0.8675    1.5027    0.0000 C   0  0  0  0  0  0  0  0  0  0  0  0
    3.8067   -0.0615    0.0000 C   0  0  0  0  0  0  0  0  0  0  0  0
    4.7920    0.1098    0.0000 C   0  0  0  0  0  0  0  0  0  0  0  0
    5.4374   -0.6541    0.0000 C   0  0  0  0  0  0  0  0  0  0  0  0
    5.0941   -1.5988    0.0000 C   0  0  0  0  0  0  0  0  0  0  0  0
    4.1053   -1.7797    0.0000 C   0  0  0  0  0  0  0  0  0  0  0  0
    2.5114   -3.4748    0.0000 N   0  0  0  0  0  0  0  0  0  0  0  0
    2.8502   -4.4157    0.0000 C   0  0  0  0  0  0  0  0  0  0  0  0
    2.2059   -5.1805    0.0000 C   0  0  0  0  0  0  0  0  0  0  0  0
    2.5406   -6.1228    0.0000 C   0  0  0  0  0  0  0  0  0  0  0  0
    3.5297   -6.3022    0.0000 C   0  0  0  0  0  0  0  0  0  0  0  0
    4.1840   -5.5392    0.0000 N   0  0  0  0  0  0  0  0  0  0  0  0
    3.8393   -4.5950    0.0000 C   0  0  0  0  0  0  0  0  0  0  0  0
  1  2  2  0  0  0  0
  2  3  1  0  0  0  0
  3  4  1  0  0  0  0
  4 17  1  0  0  0  0
  4  5  1  0  0  0  0
  5  6  3  0  0  0  0
  6  7  1  0  0  0  0
  7 12  2  0  0  0  0
  7  8  1  0  0  0  0
  8  9  2  0  0  0  0
  9 10  1  0  0  0  0
 10 11  2  0  0  0  0
 11 12  1  0  0  0  0
  4 13  1  0  0  0  0
 13 14  1  0  0  0  0
 14 15  1  0  0  0  0
 15 16  1  0  0  0  0
 16 17  1  0  0  0  0
  2 18  1  0  0  0  0
 18 19  1  0  0  0  0
 19 24  2  0  0  0  0
 19 20  1  0  0  0  0
 20 21  2  0  0  0  0
 21 22  1  0  0  0  0
 22 23  2  0  0  0  0
 23 24  1  0  0  0  0
M  END
$$$$
CHR-SOS-b30-3
  -OEChem-03232022352D

 24 26  0     0  0  0  0  0  0999 V2000
   -1.2886   -4.5296    0.0000 O   0  0  0  0  0  0  0  0  0  0  0  0
   -1.6288   -3.5892    0.0000 C   0  0  0  0  0  0  0  0  0  0  0  0
   -0.9845   -2.8244    0.0000 C   0  0  0  0  0  0  0  0  0  0  0  0
    0.0000   -3.0000    0.0000 C   0  0  0  0  0  0  0  0  0  0  0  0
    0.0000   -2.0000    0.0000 C   0  0  0  0  0  0  0  0  0  0  0  0
   -0.0000   -1.0000    0.0000 C   0  0  0  0  0  0  0  0  0  0  0  0
    0.0000    0.0000    0.0000 C   0  0  0  0  0  0  0  0  0  0  0  0
   -0.8675    0.4975    0.0000 C   0  0  0  0  0  0  0  0  0  0  0  0
   -0.8675    1.5027    0.0000 C   0  0  0  0  0  0  0  0  0  0  0  0
    0.0000    2.0104    0.0000 N   0  0  0  0  0  0  0  0  0  0  0  0
    0.8675    1.5027    0.0000 C   0  0  0  0  0  0  0  0  0  0  0  0
    0.8675    0.4975    0.0000 C   0  0  0  0  0  0  0  0  0  0  0  0
    0.9896   -2.8235    0.0000 C   0  0  0  0  0  0  0  0  0  0  0  0
    1.6317   -3.5902    0.0000 C   0  0  0  0  0  0  0  0  0  0  0  0
    1.2942   -4.5315    0.0000 C   0  0  0  0  0  0  0  0  0  0  0  0
    0.3046   -4.7080    0.0000 C   0  0  0  0  0  0  0  0  0  0  0  0
   -0.3475   -3.9432    0.0000 C   0  0  0  0  0  0  0  0  0  0  0  0
   -2.6132   -3.4136    0.0000 N   0  0  0  0  0  0  0  0  0  0  0  0
   -3.2575   -4.1784    0.0000 C   0  0  0  0  0  0  0  0  0  0  0  0
   -4.2423   -4.0042    0.0000 C   0  0  0  0  0  0  0  0  0  0  0  0
   -4.8899   -4.7662    0.0000 C   0  0  0  0  0  0  0  0  0  0  0  0
   -4.5493   -5.7120    0.0000 C   0  0  0  0  0  0  0  0  0  0  0  0
   -3.5611   -5.8957    0.0000 N   0  0  0  0  0  0  0  0  0  0  0  0
   -2.9169   -5.1241    0.0000 C   0  0  0  0  0  0  0  0  0  0  0  0
  1  2  2  0  0  0  0
  2  3  1  0  0  0  0
  3  4  1  0  0  0  0
  4 17  1  0  0  0  0
  4  5  1  0  0  0  0
  5  6  3  0  0  0  0
  6  7  1  0  0  0  0
  7 12  2  0  0  0  0
  7  8  1  0  0  0  0
  8  9  2  0  0  0  0
  9 10  1  0  0  0  0
 10 11  2  0  0  0  0
 11 12  1  0  0  0  0
  4 13  1  0  0  0  0
 13 14  1  0  0  0  0
 14 15  1  0  0  0  0
 15 16  1  0  0  0  0
 16 17  1  0  0  0  0
  2 18  1  0  0  0  0
 18 19  1  0  0  0  0
 19 24  2  0  0  0  0
 19 20  1  0  0  0  0
 20 21  2  0  0  0  0
 21 22  1  0  0  0  0
 22 23  2  0  0  0  0
 23 24  1  0  0  0  0
M  END
$$$$
CHR-SOS-b30-4
  -OEChem-03232022352D

 24 26  0     0  0  0  0  0  0999 V2000
    8.0531   -2.6505    0.0000 C   0  0  0  0  0  0  0  0  0  0  0  0
    7.1554   -2.2100    0.0000 N   0  0  0  0  0  0  0  0  0  0  0  0
    6.9812   -1.2206    0.0000 C   0  0  0  0  0  0  0  0  0  0  0  0
    5.9891   -1.0828    0.0000 N   0  0  0  0  0  0  0  0  0  0  0  0
    5.5493   -1.9825    0.0000 C   0  0  0  0  0  0  0  0  0  0  0  0
    4.5646   -2.1567    0.0000 C   0  0  0  0  0  0  0  0  0  0  0  0
    3.5799   -2.3309    0.0000 C   0  0  0  0  0  0  0  0  0  0  0  0
    2.5952   -2.5050    0.0000 C   0  0  0  0  0  0  0  0  0  0  0  0
    2.5966   -1.5050    0.0000 C   0  0  0  0  0  0  0  0  0  0  0  0
    1.7313   -1.0038    0.0000 C   0  0  0  0  0  0  0  0  0  0  0  0
    0.8646   -1.5025    0.0000 O   0  0  0  0  0  0  0  0  0  0  0  0
    1.7328   -0.0038    0.0000 N   0  0  0  0  0  0  0  0  0  0  0  0
    0.8675    0.4975    0.0000 C   0  0  0  0  0  0  0  0  0  0  0  0
    0.0000    0.0000    0.0000 C   0  0  0  0  0  0  0  0  0  0  0  0
   -0.8675    0.4975    0.0000 C   0  0  0  0  0  0  0  0  0  0  0  0
   -0.8675    1.5027    0.0000 C   0  0  0  0  0  0  0  0  0  0  0  0
    0.0000    2.0104    0.0000 N   0  0  0  0  0  0  0  0  0  0  0  0
    0.8675    1.5027    0.0000 C   0  0  0  0  0  0  0  0  0  0  0  0
    1.6059   -2.3271    0.0000 C   0  0  0  0  0  0  0  0  0  0  0  0
    0.9627   -3.0928    0.0000 C   0  0  0  0  0  0  0  0  0  0  0  0
    1.2988   -4.0347    0.0000 C   0  0  0  0  0  0  0  0  0  0  0  0
    2.2881   -4.2126    0.0000 C   0  0  0  0  0  0  0  0  0  0  0  0
    2.9413   -3.4487    0.0000 C   0  0  0  0  0  0  0  0  0  0  0  0
    6.2700   -2.6759    0.0000 C   0  0  0  0  0  0  0  0  0  0  0  0
  1  2  1  0  0  0  0
  2 24  1  0  0  0  0
  2  3  1  0  0  0  0
  3  4  2  0  0  0  0
  4  5  1  0  0  0  0
  5  6  1  0  0  0  0
  6  7  3  0  0  0  0
  7  8  1  0  0  0  0
  8 23  1  0  0  0  0
  8  9  1  0  0  0  0
  9 10  1  0  0  0  0
 10 11  2  0  0  0  0
 10 12  1  0  0  0  0
 12 13  1  0  0  0  0
 13 18  2  0  0  0  0
 13 14  1  0  0  0  0
 14 15  2  0  0  0  0
 15 16  1  0  0  0  0
 16 17  2  0  0  0  0
 17 18  1  0  0  0  0
  8 19  1  0  0  0  0
 19 20  1  0  0  0  0
 20 21  1  0  0  0  0
 21 22  1  0  0  0  0
 22 23  1  0  0  0  0
  5 24  2  0  0  0  0
M  END
$$$$
CHR-SOS-b30-5
  -OEChem-03232022352D

 24 26  0     0  0  0  0  0  0999 V2000
   -1.2886   -4.5296    0.0000 O   0  0  0  0  0  0  0  0  0  0  0  0
   -1.6288   -3.5892    0.0000 C   0  0  0  0  0  0  0  0  0  0  0  0
   -0.9845   -2.8244    0.0000 C   0  0  0  0  0  0  0  0  0  0  0  0
    0.0000   -3.0000    0.0000 C   0  0  0  0  0  0  0  0  0  0  0  0
    0.0000   -2.0000    0.0000 C   0  0  0  0  0  0  0  0  0  0  0  0
   -0.0000   -1.0000    0.0000 C   0  0  0  0  0  0  0  0  0  0  0  0
    0.0000    0.0000    0.0000 C   0  0  0  0  0  0  0  0  0  0  0  0
   -0.8675    0.4975    0.0000 C   0  0  0  0  0  0  0  0  0  0  0  0
   -0.8675    1.5027    0.0000 C   0  0  0  0  0  0  0  0  0  0  0  0
    0.0000    2.0104    0.0000 N   0  0  0  0  0  0  0  0  0  0  0  0
    0.8675    1.5027    0.0000 N   0  0  0  0  0  0  0  0  0  0  0  0
    0.8675    0.4975    0.0000 C   0  0  0  0  0  0  0  0  0  0  0  0
    0.9896   -2.8235    0.0000 C   0  0  0  0  0  0  0  0  0  0  0  0
    1.6317   -3.5902    0.0000 C   0  0  0  0  0  0  0  0  0  0  0  0
    1.2942   -4.5315    0.0000 C   0  0  0  0  0  0  0  0  0  0  0  0
    0.3046   -4.7080    0.0000 C   0  0  0  0  0  0  0  0  0  0  0  0
   -0.3475   -3.9432    0.0000 C   0  0  0  0  0  0  0  0  0  0  0  0
   -2.6132   -3.4136    0.0000 N   0  0  0  0  0  0  0  0  0  0  0  0
   -3.2575   -4.1784    0.0000 C   0  0  0  0  0  0  0  0  0  0  0  0
   -4.2423   -4.0042    0.0000 C   0  0  0  0  0  0  0  0  0  0  0  0
   -4.8899   -4.7662    0.0000 C   0  0  0  0  0  0  0  0  0  0  0  0
   -4.5493   -5.7120    0.0000 C   0  0  0  0  0  0  0  0  0  0  0  0
   -3.5611   -5.8957    0.0000 N   0  0  0  0  0  0  0  0  0  0  0  0
   -2.9169   -5.1241    0.0000 C   0  0  0  0  0  0  0  0  0  0  0  0
  1  2  2  0  0  0  0
  2  3  1  0  0  0  0
  3  4  1  0  0  0  0
  4 17  1  0  0  0  0
  4  5  1  0  0  0  0
  5  6  3  0  0  0  0
  6  7  1  0  0  0  0
  7 12  2  0  0  0  0
  7  8  1  0  0  0  0
  8  9  2  0  0  0  0
  9 10  1  0  0  0  0
 10 11  2  0  0  0  0
 11 12  1  0  0  0  0
  4 13  1  0  0  0  0
 13 14  1  0  0  0  0
 14 15  1  0  0  0  0
 15 16  1  0  0  0  0
 16 17  1  0  0  0  0
  2 18  1  0  0  0  0
 18 19  1  0  0  0  0
 19 24  2  0  0  0  0
 19 20  1  0  0  0  0
 20 21  2  0  0  0  0
 21 22  1  0  0  0  0
 22 23  2  0  0  0  0
 23 24  1  0  0  0  0
M  END
$$$$
CHR-SOS-b30-6
  -OEChem-03232022352D

 24 26  0     0  0  0  0  0  0999 V2000
    4.1410   -2.8880    0.0000 O   0  0  0  0  0  0  0  0  0  0  0  0
    3.1568   -2.7110    0.0000 C   0  0  0  0  0  0  0  0  0  0  0  0
    2.8180   -1.7701    0.0000 C   0  0  0  0  0  0  0  0  0  0  0  0
    3.4634   -1.0063    0.0000 C   0  0  0  0  0  0  0  0  0  0  0  0
    2.5981   -0.5050    0.0000 C   0  0  0  0  0  0  0  0  0  0  0  0
    1.7328   -0.0038    0.0000 C   0  0  0  0  0  0  0  0  0  0  0  0
    0.8675    0.4975    0.0000 C   0  0  0  0  0  0  0  0  0  0  0  0
    0.0000    0.0000    0.0000 C   0  0  0  0  0  0  0  0  0  0  0  0
   -0.8675    0.4975    0.0000 C   0  0  0  0  0  0  0  0  0  0  0  0
   -0.8675    1.5027    0.0000 C   0  0  0  0  0  0  0  0  0  0  0  0
    0.0000    2.0104    0.0000 N   0  0  0  0  0  0  0  0  0  0  0  0
    0.8675    1.5027    0.0000 N   0  0  0  0  0  0  0  0  0  0  0  0
    3.8067   -0.0615    0.0000 C   0  0  0  0  0  0  0  0  0  0  0  0
    4.7920    0.1098    0.0000 C   0  0  0  0  0  0  0  0  0  0  0  0
    5.4374   -0.6541    0.0000 C   0  0  0  0  0  0  0  0  0  0  0  0
    5.0941   -1.5988    0.0000 C   0  0  0  0  0  0  0  0  0  0  0  0
    4.1053   -1.7797    0.0000 C   0  0  0  0  0  0  0  0  0  0  0  0
    2.5114   -3.4748    0.0000 N   0  0  0  0  0  0  0  0  0  0  0  0
    2.8502   -4.4157    0.0000 C   0  0  0  0  0  0  0  0  0  0  0  0
    2.2059   -5.1805    0.0000 C   0  0  0  0  0  0  0  0  0  0  0  0
    2.5406   -6.1228    0.0000 C   0  0  0  0  0  0  0  0  0  0  0  0
    3.5297   -6.3022    0.0000 C   0  0  0  0  0  0  0  0  0  0  0  0
    4.1840   -5.5392    0.0000 N   0  0  0  0  0  0  0  0  0  0  0  0
    3.8393   -4.5950    0.0000 C   0  0  0  0  0  0  0  0  0  0  0  0
  1  2  2  0  0  0  0
  2  3  1  0  0  0  0
  3  4  1  0  0  0  0
  4 17  1  0  0  0  0
  4  5  1  0  0  0  0
  5  6  3  0  0  0  0
  6  7  1  0  0  0  0
  7 12  2  0  0  0  0
  7  8  1  0  0  0  0
  8  9  2  0  0  0  0
  9 10  1  0  0  0  0
 10 11  2  0  0  0  0
 11 12  1  0  0  0  0
  4 13  1  0  0  0  0
 13 14  1  0  0  0  0
 14 15  1  0  0  0  0
 15 16  1  0  0  0  0
 16 17  1  0  0  0  0
  2 18  1  0  0  0  0
 18 19  1  0  0  0  0
 19 24  2  0  0  0  0
 19 20  1  0  0  0  0
 20 21  2  0  0  0  0
 21 22  1  0  0  0  0
 22 23  2  0  0  0  0
 23 24  1  0  0  0  0
M  END
$$$$
CHR-SOS-b30-7
  -OEChem-03232022352D

 24 26  0     0  0  0  0  0  0999 V2000
   -0.4211   -5.0271    0.0000 O   0  0  0  0  0  0  0  0  0  0  0  0
   -0.7613   -4.0867    0.0000 C   0  0  0  0  0  0  0  0  0  0  0  0
   -0.1170   -3.3219    0.0000 C   0  0  0  0  0  0  0  0  0  0  0  0
    0.8675   -3.4975    0.0000 C   0  0  0  0  0  0  0  0  0  0  0  0
    0.8675   -2.4975    0.0000 C   0  0  0  0  0  0  0  0  0  0  0  0
    0.8675   -1.4975    0.0000 C   0  0  0  0  0  0  0  0  0  0  0  0
    0.8675   -0.4975    0.0000 C   0  0  0  0  0  0  0  0  0  0  0  0
    0.0000    0.0000    0.0000 C   0  0  0  0  0  0  0  0  0  0  0  0
   -0.0000    1.0052    0.0000 C   0  0  0  0  0  0  0  0  0  0  0  0
    0.8675    1.5129    0.0000 N   0  0  0  0  0  0  0  0  0  0  0  0
    1.7350    1.0052    0.0000 C   0  0  0  0  0  0  0  0  0  0  0  0
    1.7350    0.0000    0.0000 N   0  0  0  0  0  0  0  0  0  0  0  0
    1.8571   -3.3210    0.0000 C   0  0  0  0  0  0  0  0  0  0  0  0
    2.4992   -4.0877    0.0000 C   0  0  0  0  0  0  0  0  0  0  0  0
    2.1617   -5.0290    0.0000 C   0  0  0  0  0  0  0  0  0  0  0  0
    1.1721   -5.2055    0.0000 C   0  0  0  0  0  0  0  0  0  0  0  0
    0.5200   -4.4407    0.0000 C   0  0  0  0  0  0  0  0  0  0  0  0
   -1.7457   -3.9111    0.0000 N   0  0  0  0  0  0  0  0  0  0  0  0
   -2.3900   -4.6759    0.0000 C   0  0  0  0  0  0  0  0  0  0  0  0
   -3.3748   -4.5017    0.0000 C   0  0  0  0  0  0  0  0  0  0  0  0
   -4.0224   -5.2637    0.0000 C   0  0  0  0  0  0  0  0  0  0  0  0
   -3.6818   -6.2095    0.0000 C   0  0  0  0  0  0  0  0  0  0  0  0
   -2.6936   -6.3932    0.0000 N   0  0  0  0  0  0  0  0  0  0  0  0
   -2.0494   -5.6216    0.0000 C   0  0  0  0  0  0  0  0  0  0  0  0
  1  2  2  0  0  0  0
  2  3  1  0  0  0  0
  3  4  1  0  0  0  0
  4 17  1  0  0  0  0
  4  5  1  0  0  0  0
  5  6  3  0  0  0  0
  6  7  1  0  0  0  0
  7 12  2  0  0  0  0
  7  8  1  0  0  0  0
  8  9  2  0  0  0  0
  9 10  1  0  0  0  0
 10 11  2  0  0  0  0
 11 12  1  0  0  0  0
  4 13  1  0  0  0  0
 13 14  1  0  0  0  0
 14 15  1  0  0  0  0
 15 16  1  0  0  0  0
 16 17  1  0  0  0  0
  2 18  1  0  0  0  0
 18 19  1  0  0  0  0
 19 24  2  0  0  0  0
 19 20  1  0  0  0  0
 20 21  2  0  0  0  0
 21 22  1  0  0  0  0
 22 23  2  0  0  0  0
 23 24  1  0  0  0  0
M  END
$$$$
ROB-UNI-b2e-1
  -OEChem-03232022352D

 23 24  0     0  0  0  0  0  0999 V2000
    5.5770   -3.5816    0.0000 C   0  0  0  0  0  0  0  0  0  0  0  0
    5.2680   -2.6306    0.0000 C   0  0  0  0  0  0  0  0  0  0  0  0
    5.9372   -1.8874    0.0000 O   0  0  0  0  0  0  0  0  0  0  0  0
    4.2899   -2.4226    0.0000 N   0  0  0  0  0  0  0  0  0  0  0  0
    3.9809   -1.4715    0.0000 C   0  0  0  0  0  0  0  0  0  0  0  0
    3.0028   -1.2636    0.0000 C   0  0  0  0  0  0  0  0  0  0  0  0
    2.6938   -0.3125    0.0000 C   0  0  0  0  0  0  0  0  0  0  0  0
    3.2858    0.5023    0.0000 C   0  0  0  0  0  0  0  0  0  0  0  0
    2.6938    1.3169    0.0000 N   0  0  0  0  0  0  0  0  0  0  0  0
    1.7360    1.0058    0.0000 C   0  0  0  0  0  0  0  0  0  0  0  0
    0.8680    1.5138    0.0000 C   0  0  0  0  0  0  0  0  0  0  0  0
    0.8680    2.5138    0.0000 C   0  0  0  0  0  0  0  0  0  0  0  0
    0.0020    3.0138    0.0000 C   0  0  0  0  0  0  0  0  0  0  0  0
    0.0020    4.0138    0.0000 N   0  0  0  0  0  0  0  0  0  0  0  0
   -0.8641    4.5138    0.0000 S   0  0  0  0  0  0  0  0  0  0  0  0
   -1.7301    5.0138    0.0000 C   0  0  0  0  0  0  0  0  0  0  0  0
   -1.3641    3.6478    0.0000 O   0  0  0  0  0  0  0  0  0  0  0  0
   -0.3640    5.3798    0.0000 O   0  0  0  0  0  0  0  0  0  0  0  0
    0.0000    1.0058    0.0000 C   0  0  0  0  0  0  0  0  0  0  0  0
    0.0000    0.0000    0.0000 C   0  0  0  0  0  0  0  0  0  0  0  0
   -0.8653   -0.5013    0.0000 Cl  0  0  0  0  0  0  0  0  0  0  0  0
    0.8680   -0.4978    0.0000 C   0  0  0  0  0  0  0  0  0  0  0  0
    1.7360   -0.0012    0.0000 C   0  0  0  0  0  0  0  0  0  0  0  0
  1  2  1  0  0  0  0
  2  3  2  0  0  0  0
  2  4  1  0  0  0  0
  4  5  1  0  0  0  0
  5  6  1  0  0  0  0
  6  7  1  0  0  0  0
  7 23  1  0  0  0  0
  7  8  2  0  0  0  0
  8  9  1  0  0  0  0
  9 10  1  0  0  0  0
 10 23  2  0  0  0  0
 10 11  1  0  0  0  0
 11 12  1  0  0  0  0
 12 13  1  0  0  0  0
 13 14  1  0  0  0  0
 14 15  1  0  0  0  0
 15 16  1  0  0  0  0
 15 17  2  0  0  0  0
 15 18  2  0  0  0  0
 11 19  2  0  0  0  0
 19 20  1  0  0  0  0
 20 21  1  0  0  0  0
 20 22  2  0  0  0  0
 22 23  1  0  0  0  0
M  END
$$$$
ROB-UNI-b2e-2
  -OEChem-03232022352D

 24 25  0     0  0  0  0  0  0999 V2000
    1.3042   -4.4440    0.0000 C   0  0  0  0  0  0  0  0  0  0  0  0
    1.9734   -3.7009    0.0000 S   0  0  0  0  0  0  0  0  0  0  0  0
    1.2303   -3.0317    0.0000 O   0  0  0  0  0  0  0  0  0  0  0  0
    2.7165   -4.3700    0.0000 O   0  0  0  0  0  0  0  0  0  0  0  0
    2.6426   -2.9578    0.0000 N   0  0  0  0  0  0  0  0  0  0  0  0
    2.3336   -2.0067    0.0000 C   0  0  0  0  0  0  0  0  0  0  0  0
    3.0028   -1.2636    0.0000 C   0  0  0  0  0  0  0  0  0  0  0  0
    2.6938   -0.3125    0.0000 C   0  0  0  0  0  0  0  0  0  0  0  0
    3.2858    0.5023    0.0000 C   0  0  0  0  0  0  0  0  0  0  0  0
    2.6938    1.3169    0.0000 N   0  0  0  0  0  0  0  0  0  0  0  0
    1.7360    1.0058    0.0000 C   0  0  0  0  0  0  0  0  0  0  0  0
    0.8680    1.5138    0.0000 C   0  0  0  0  0  0  0  0  0  0  0  0
    0.8680    2.5138    0.0000 C   0  0  0  0  0  0  0  0  0  0  0  0
    0.0020    3.0138    0.0000 C   0  0  0  0  0  0  0  0  0  0  0  0
    0.0020    4.0138    0.0000 N   0  0  0  0  0  0  0  0  0  0  0  0
   -0.8641    4.5138    0.0000 S   0  0  0  0  0  0  0  0  0  0  0  0
   -1.7301    5.0138    0.0000 C   0  0  0  0  0  0  0  0  0  0  0  0
   -1.3641    3.6478    0.0000 O   0  0  0  0  0  0  0  0  0  0  0  0
   -0.3640    5.3798    0.0000 O   0  0  0  0  0  0  0  0  0  0  0  0
    0.0000    1.0058    0.0000 C   0  0  0  0  0  0  0  0  0  0  0  0
    0.0000    0.0000    0.0000 C   0  0  0  0  0  0  0  0  0  0  0  0
   -0.8653   -0.5013    0.0000 Cl  0  0  0  0  0  0  0  0  0  0  0  0
    0.8680   -0.4978    0.0000 C   0  0  0  0  0  0  0  0  0  0  0  0
    1.7360   -0.0012    0.0000 C   0  0  0  0  0  0  0  0  0  0  0  0
  1  2  1  0  0  0  0
  2  3  2  0  0  0  0
  2  4  2  0  0  0  0
  2  5  1  0  0  0  0
  5  6  1  0  0  0  0
  6  7  1  0  0  0  0
  7  8  1  0  0  0  0
  8 24  1  0  0  0  0
  8  9  2  0  0  0  0
  9 10  1  0  0  0  0
 10 11  1  0  0  0  0
 11 24  2  0  0  0  0
 11 12  1  0  0  0  0
 12 13  1  0  0  0  0
 13 14  1  0  0  0  0
 14 15  1  0  0  0  0
 15 16  1  0  0  0  0
 16 17  1  0  0  0  0
 16 18  2  0  0  0  0
 16 19  2  0  0  0  0
 12 20  2  0  0  0  0
 20 21  1  0  0  0  0
 21 22  1  0  0  0  0
 21 23  2  0  0  0  0
 23 24  1  0  0  0  0
M  END
$$$$
ROB-UNI-b2e-3
  -OEChem-03232022352D

 27 28  0     0  0  0  0  0  0999 V2000
    3.9810    2.4759    0.0000 C   0  0  0  0  0  0  0  0  0  0  0  0
    3.0028    2.2680    0.0000 C   0  0  0  0  0  0  0  0  0  0  0  0
    2.6938    1.3169    0.0000 N   0  0  0  0  0  0  0  0  0  0  0  0
    3.2858    0.5023    0.0000 C   0  0  0  0  0  0  0  0  0  0  0  0
    2.6938   -0.3125    0.0000 C   0  0  0  0  0  0  0  0  0  0  0  0
    3.0028   -1.2636    0.0000 C   0  0  0  0  0  0  0  0  0  0  0  0
    3.9809   -1.4715    0.0000 C   0  0  0  0  0  0  0  0  0  0  0  0
    4.2899   -2.4226    0.0000 N   0  0  0  0  0  0  0  0  0  0  0  0
    5.2680   -2.6306    0.0000 S   0  0  0  0  0  0  0  0  0  0  0  0
    6.2462   -2.8385    0.0000 C   0  0  0  0  0  0  0  0  0  0  0  0
    5.4760   -1.6524    0.0000 O   0  0  0  0  0  0  0  0  0  0  0  0
    5.0601   -3.6087    0.0000 O   0  0  0  0  0  0  0  0  0  0  0  0
    1.7360   -0.0012    0.0000 C   0  0  0  0  0  0  0  0  0  0  0  0
    0.8680   -0.4978    0.0000 C   0  0  0  0  0  0  0  0  0  0  0  0
    0.0000    0.0000    0.0000 C   0  0  0  0  0  0  0  0  0  0  0  0
   -0.8653   -0.5013    0.0000 C   0  0  0  0  0  0  0  0  0  0  0  0
   -1.7306   -1.0025    0.0000 N   0  0  0  0  0  0  0  0  0  0  0  0
    0.0000    1.0058    0.0000 C   0  0  0  0  0  0  0  0  0  0  0  0
    0.8680    1.5138    0.0000 C   0  0  0  0  0  0  0  0  0  0  0  0
    0.8680    2.5138    0.0000 C   0  0  0  0  0  0  0  0  0  0  0  0
    0.0020    3.0138    0.0000 C   0  0  0  0  0  0  0  0  0  0  0  0
    0.0020    4.0138    0.0000 N   0  0  0  0  0  0  0  0  0  0  0  0
   -0.8640    4.5138    0.0000 S   0  0  0  0  0  0  0  0  0  0  0  0
   -1.7301    5.0138    0.0000 C   0  0  0  0  0  0  0  0  0  0  0  0
   -1.3640    3.6478    0.0000 O   0  0  0  0  0  0  0  0  0  0  0  0
   -0.3640    5.3798    0.0000 O   0  0  0  0  0  0  0  0  0  0  0  0
    1.7360    1.0058    0.0000 C   0  0  0  0  0  0  0  0  0  0  0  0
  1  2  1  0  0  0  0
  2  3  1  0  0  0  0
  3 27  1  0  0  0  0
  3  4  1  0  0  0  0
  4  5  2  0  0  0  0
  5  6  1  0  0  0  0
  6  7  1  0  0  0  0
  7  8  1  0  0  0  0
  8  9  1  0  0  0  0
  9 10  1  0  0  0  0
  9 11  2  0  0  0  0
  9 12  2  0  0  0  0
  5 13  1  0  0  0  0
 13 27  2  0  0  0  0
 13 14  1  0  0  0  0
 14 15  2  0  0  0  0
 15 16  1  0  0  0  0
 16 17  3  0  0  0  0
 15 18  1  0  0  0  0
 18 19  2  0  0  0  0
 19 20  1  0  0  0  0
 20 21  1  0  0  0  0
 21 22  1  0  0  0  0
 22 23  1  0  0  0  0
 23 24  1  0  0  0  0
 23 25  2  0  0  0  0
 23 26  2  0  0  0  0
 19 27  1  0  0  0  0
M  END
$$$$
ROB-UNI-b2e-4
  -OEChem-03232022352D

 18 18  0     0  0  0  0  0  0999 V2000
   -3.4641   -2.0025    0.0000 C   0  0  0  0  0  0  0  0  0  0  0  0
   -2.5988   -1.5013    0.0000 C   0  0  0  0  0  0  0  0  0  0  0  0
   -2.6003   -0.5013    0.0000 N   0  0  0  0  0  0  0  0  0  0  0  0
   -1.7350   -0.0000    0.0000 C   0  0  0  0  0  0  0  0  0  0  0  0
   -0.8675   -0.4975    0.0000 C   0  0  0  0  0  0  0  0  0  0  0  0
    0.0000    0.0000    0.0000 C   0  0  0  0  0  0  0  0  0  0  0  0
   -0.0000    1.0052    0.0000 C   0  0  0  0  0  0  0  0  0  0  0  0
    0.8675    1.5026    0.0000 C   0  0  0  0  0  0  0  0  0  0  0  0
    1.7350    2.0001    0.0000 N   0  0  0  0  0  0  0  0  0  0  0  0
   -0.8675    1.5129    0.0000 C   0  0  0  0  0  0  0  0  0  0  0  0
   -1.7350    1.0052    0.0000 C   0  0  0  0  0  0  0  0  0  0  0  0
   -2.6025    1.5026    0.0000 C   0  0  0  0  0  0  0  0  0  0  0  0
   -3.4670    1.0001    0.0000 C   0  0  0  0  0  0  0  0  0  0  0  0
   -4.3345    1.4975    0.0000 N   0  0  0  0  0  0  0  0  0  0  0  0
   -5.1991    0.9950    0.0000 S   0  0  0  0  0  0  0  0  0  0  0  0
   -6.0636    0.4924    0.0000 C   0  0  0  0  0  0  0  0  0  0  0  0
   -4.6965    0.1304    0.0000 O   0  0  0  0  0  0  0  0  0  0  0  0
   -5.7016    1.8595    0.0000 O   0  0  0  0  0  0  0  0  0  0  0  0
  1  2  1  0  0  0  0
  2  3  1  0  0  0  0
  3  4  1  0  0  0  0
  4 11  2  0  0  0  0
  4  5  1  0  0  0  0
  5  6  2  0  0  0  0
  6  7  1  0  0  0  0
  7  8  1  0  0  0  0
  8  9  3  0  0  0  0
  7 10  2  0  0  0  0
 10 11  1  0  0  0  0
 11 12  1  0  0  0  0
 12 13  1  0  0  0  0
 13 14  1  0  0  0  0
 14 15  1  0  0  0  0
 15 16  1  0  0  0  0
 15 17  2  0  0  0  0
 15 18  2  0  0  0  0
M  END
$$$$
ROB-UNI-b2e-5
  -OEChem-03232022352D

 26 27  0     0  0  0  0  0  0999 V2000
    3.9810    2.4759    0.0000 C   0  0  0  0  0  0  0  0  0  0  0  0
    3.0028    2.2680    0.0000 C   0  0  0  0  0  0  0  0  0  0  0  0
    2.6938    1.3169    0.0000 N   0  0  0  0  0  0  0  0  0  0  0  0
    3.2858    0.5023    0.0000 C   0  0  0  0  0  0  0  0  0  0  0  0
    2.6938   -0.3125    0.0000 C   0  0  0  0  0  0  0  0  0  0  0  0
    3.0028   -1.2636    0.0000 C   0  0  0  0  0  0  0  0  0  0  0  0
    3.9809   -1.4715    0.0000 C   0  0  0  0  0  0  0  0  0  0  0  0
    4.2899   -2.4226    0.0000 N   0  0  0  0  0  0  0  0  0  0  0  0
    5.2680   -2.6306    0.0000 C   0  0  0  0  0  0  0  0  0  0  0  0
    5.5770   -3.5816    0.0000 C   0  0  0  0  0  0  0  0  0  0  0  0
    5.9372   -1.8874    0.0000 O   0  0  0  0  0  0  0  0  0  0  0  0
    1.7360   -0.0012    0.0000 C   0  0  0  0  0  0  0  0  0  0  0  0
    0.8680   -0.4978    0.0000 C   0  0  0  0  0  0  0  0  0  0  0  0
    0.0000    0.0000    0.0000 C   0  0  0  0  0  0  0  0  0  0  0  0
   -0.8653   -0.5013    0.0000 C   0  0  0  0  0  0  0  0  0  0  0  0
   -1.7306   -1.0025    0.0000 N   0  0  0  0  0  0  0  0  0  0  0  0
    0.0000    1.0058    0.0000 C   0  0  0  0  0  0  0  0  0  0  0  0
    0.8680    1.5138    0.0000 C   0  0  0  0  0  0  0  0  0  0  0  0
    0.8680    2.5138    0.0000 C   0  0  0  0  0  0  0  0  0  0  0  0
    0.0020    3.0138    0.0000 C   0  0  0  0  0  0  0  0  0  0  0  0
    0.0020    4.0138    0.0000 N   0  0  0  0  0  0  0  0  0  0  0  0
   -0.8640    4.5138    0.0000 S   0  0  0  0  0  0  0  0  0  0  0  0
   -1.7301    5.0138    0.0000 C   0  0  0  0  0  0  0  0  0  0  0  0
   -1.3640    3.6478    0.0000 O   0  0  0  0  0  0  0  0  0  0  0  0
   -0.3640    5.3798    0.0000 O   0  0  0  0  0  0  0  0  0  0  0  0
    1.7360    1.0058    0.0000 C   0  0  0  0  0  0  0  0  0  0  0  0
  1  2  1  0  0  0  0
  2  3  1  0  0  0  0
  3 26  1  0  0  0  0
  3  4  1  0  0  0  0
  4  5  2  0  0  0  0
  5  6  1  0  0  0  0
  6  7  1  0  0  0  0
  7  8  1  0  0  0  0
  8  9  1  0  0  0  0
  9 10  1  0  0  0  0
  9 11  2  0  0  0  0
  5 12  1  0  0  0  0
 12 26  2  0  0  0  0
 12 13  1  0  0  0  0
 13 14  2  0  0  0  0
 14 15  1  0  0  0  0
 15 16  3  0  0  0  0
 14 17  1  0  0  0  0
 17 18  2  0  0  0  0
 18 19  1  0  0  0  0
 19 20  1  0  0  0  0
 20 21  1  0  0  0  0
 21 22  1  0  0  0  0
 22 23  1  0  0  0  0
 22 24  2  0  0  0  0
 22 25  2  0  0  0  0
 18 26  1  0  0  0  0
M  END
$$$$
ROB-UNI-b2e-6
  -OEChem-03232022352D

 22 23  0     1  0  0  0  0  0999 V2000
    5.5770   -3.5816    0.0000 C   0  0  0  0  0  0  0  0  0  0  0  0
    5.2680   -2.6306    0.0000 C   0  0  0  0  0  0  0  0  0  0  0  0
    5.9372   -1.8874    0.0000 O   0  0  0  0  0  0  0  0  0  0  0  0
    4.2899   -2.4226    0.0000 N   0  0  0  0  0  0  0  0  0  0  0  0
    3.9809   -1.4715    0.0000 C   0  0  0  0  0  0  0  0  0  0  0  0
    3.0028   -1.2636    0.0000 C   0  0  0  0  0  0  0  0  0  0  0  0
    2.6938   -0.3125    0.0000 C   0  0  0  0  0  0  0  0  0  0  0  0
    3.2858    0.5023    0.0000 C   0  0  0  0  0  0  0  0  0  0  0  0
    2.6938    1.3169    0.0000 N   0  0  0  0  0  0  0  0  0  0  0  0
    1.7360    1.0058    0.0000 C   0  0  0  0  0  0  0  0  0  0  0  0
    0.8680    1.5138    0.0000 C   0  0  0  0  0  0  0  0  0  0  0  0
    0.8680    2.5138    0.0000 C   0  0  3  0  0  0  0  0  0  0  0  0
    1.7340    3.0138    0.0000 C   0  0  0  0  0  0  0  0  0  0  0  0
    0.0020    3.0138    0.0000 N   0  0  0  0  0  0  0  0  0  0  0  0
    0.0020    4.0138    0.0000 C   0  0  0  0  0  0  0  0  0  0  0  0
   -0.8641    4.5138    0.0000 C   0  0  0  0  0  0  0  0  0  0  0  0
    0.8680    4.5138    0.0000 O   0  0  0  0  0  0  0  0  0  0  0  0
    0.0000    1.0058    0.0000 C   0  0  0  0  0  0  0  0  0  0  0  0
    0.0000    0.0000    0.0000 C   0  0  0  0  0  0  0  0  0  0  0  0
   -0.8653   -0.5013    0.0000 Cl  0  0  0  0  0  0  0  0  0  0  0  0
    0.8680   -0.4978    0.0000 C   0  0  0  0  0  0  0  0  0  0  0  0
    1.7360   -0.0012    0.0000 C   0  0  0  0  0  0  0  0  0  0  0  0
  1  2  1  0  0  0  0
  2  3  2  0  0  0  0
  2  4  1  0  0  0  0
  4  5  1  0  0  0  0
  5  6  1  0  0  0  0
  6  7  1  0  0  0  0
  7 22  1  0  0  0  0
  7  8  2  0  0  0  0
  8  9  1  0  0  0  0
  9 10  1  0  0  0  0
 10 22  2  0  0  0  0
 10 11  1  0  0  0  0
 11 12  1  0  0  0  0
 12 13  1  0  0  0  0
 12 14  1  0  0  0  0
 14 15  1  0  0  0  0
 15 16  1  0  0  0  0
 15 17  2  0  0  0  0
 11 18  2  0  0  0  0
 18 19  1  0  0  0  0
 19 20  1  0  0  0  0
 19 21  2  0  0  0  0
 21 22  1  0  0  0  0
M  END
$$$$
ROB-UNI-b2e-7
  -OEChem-03232022352D

 23 24  0     1  0  0  0  0  0999 V2000
    5.5770   -3.5816    0.0000 C   0  0  0  0  0  0  0  0  0  0  0  0
    5.2680   -2.6306    0.0000 C   0  0  0  0  0  0  0  0  0  0  0  0
    5.9372   -1.8874    0.0000 O   0  0  0  0  0  0  0  0  0  0  0  0
    4.2899   -2.4226    0.0000 N   0  0  0  0  0  0  0  0  0  0  0  0
    3.9809   -1.4715    0.0000 C   0  0  0  0  0  0  0  0  0  0  0  0
    3.0028   -1.2636    0.0000 C   0  0  0  0  0  0  0  0  0  0  0  0
    2.6938   -0.3125    0.0000 C   0  0  0  0  0  0  0  0  0  0  0  0
    3.2858    0.5023    0.0000 C   0  0  0  0  0  0  0  0  0  0  0  0
    2.6938    1.3169    0.0000 N   0  0  0  0  0  0  0  0  0  0  0  0
    1.7360    1.0058    0.0000 C   0  0  0  0  0  0  0  0  0  0  0  0
    0.8680    1.5138    0.0000 C   0  0  0  0  0  0  0  0  0  0  0  0
    0.8680    2.5138    0.0000 C   0  0  3  0  0  0  0  0  0  0  0  0
    1.7340    3.0138    0.0000 C   0  0  0  0  0  0  0  0  0  0  0  0
    0.0020    3.0138    0.0000 N   0  0  0  0  0  0  0  0  0  0  0  0
    0.0020    4.0138    0.0000 C   0  0  0  0  0  0  0  0  0  0  0  0
   -0.8641    4.5138    0.0000 C   0  0  0  0  0  0  0  0  0  0  0  0
    0.8680    4.5138    0.0000 O   0  0  0  0  0  0  0  0  0  0  0  0
    0.0000    1.0058    0.0000 C   0  0  0  0  0  0  0  0  0  0  0  0
    0.0000    0.0000    0.0000 C   0  0  0  0  0  0  0  0  0  0  0  0
   -0.8653   -0.5013    0.0000 C   0  0  0  0  0  0  0  0  0  0  0  0
   -1.7306   -1.0025    0.0000 N   0  0  0  0  0  0  0  0  0  0  0  0
    0.8680   -0.4978    0.0000 C   0  0  0  0  0  0  0  0  0  0  0  0
    1.7360   -0.0012    0.0000 C   0  0  0  0  0  0  0  0  0  0  0  0
  1  2  1  0  0  0  0
  2  3  2  0  0  0  0
  2  4  1  0  0  0  0
  4  5  1  0  0  0  0
  5  6  1  0  0  0  0
  6  7  1  0  0  0  0
  7 23  1  0  0  0  0
  7  8  2  0  0  0  0
  8  9  1  0  0  0  0
  9 10  1  0  0  0  0
 10 23  2  0  0  0  0
 10 11  1  0  0  0  0
 11 12  1  0  0  0  0
 12 13  1  0  0  0  0
 12 14  1  0  0  0  0
 14 15  1  0  0  0  0
 15 16  1  0  0  0  0
 15 17  2  0  0  0  0
 11 18  2  0  0  0  0
 18 19  1  0  0  0  0
 19 20  1  0  0  0  0
 20 21  3  0  0  0  0
 19 22  2  0  0  0  0
 22 23  1  0  0  0  0
M  END
$$$$
ROB-UNI-b2e-8
  -OEChem-03232022352D

 25 26  0     1  0  0  0  0  0999 V2000
    3.9810    2.4759    0.0000 C   0  0  0  0  0  0  0  0  0  0  0  0
    3.0028    2.2680    0.0000 C   0  0  0  0  0  0  0  0  0  0  0  0
    2.6938    1.3169    0.0000 N   0  0  0  0  0  0  0  0  0  0  0  0
    3.2858    0.5023    0.0000 C   0  0  0  0  0  0  0  0  0  0  0  0
    2.6938   -0.3125    0.0000 C   0  0  0  0  0  0  0  0  0  0  0  0
    3.0028   -1.2636    0.0000 C   0  0  0  0  0  0  0  0  0  0  0  0
    3.9809   -1.4715    0.0000 C   0  0  0  0  0  0  0  0  0  0  0  0
    4.2899   -2.4226    0.0000 N   0  0  0  0  0  0  0  0  0  0  0  0
    5.2680   -2.6306    0.0000 C   0  0  0  0  0  0  0  0  0  0  0  0
    5.5770   -3.5816    0.0000 C   0  0  0  0  0  0  0  0  0  0  0  0
    5.9372   -1.8874    0.0000 O   0  0  0  0  0  0  0  0  0  0  0  0
    1.7360   -0.0012    0.0000 C   0  0  0  0  0  0  0  0  0  0  0  0
    0.8680   -0.4978    0.0000 C   0  0  0  0  0  0  0  0  0  0  0  0
    0.0000    0.0000    0.0000 C   0  0  0  0  0  0  0  0  0  0  0  0
   -0.8653   -0.5013    0.0000 C   0  0  0  0  0  0  0  0  0  0  0  0
   -1.7306   -1.0025    0.0000 N   0  0  0  0  0  0  0  0  0  0  0  0
    0.0000    1.0058    0.0000 C   0  0  0  0  0  0  0  0  0  0  0  0
    0.8680    1.5138    0.0000 C   0  0  0  0  0  0  0  0  0  0  0  0
    0.8680    2.5138    0.0000 C   0  0  3  0  0  0  0  0  0  0  0  0
    1.7340    3.0138    0.0000 C   0  0  0  0  0  0  0  0  0  0  0  0
    0.0020    3.0138    0.0000 N   0  0  0  0  0  0  0  0  0  0  0  0
    0.0020    4.0138    0.0000 C   0  0  0  0  0  0  0  0  0  0  0  0
   -0.8640    4.5138    0.0000 C   0  0  0  0  0  0  0  0  0  0  0  0
    0.8680    4.5138    0.0000 O   0  0  0  0  0  0  0  0  0  0  0  0
    1.7360    1.0058    0.0000 C   0  0  0  0  0  0  0  0  0  0  0  0
  1  2  1  0  0  0  0
  2  3  1  0  0  0  0
  3 25  1  0  0  0  0
  3  4  1  0  0  0  0
  4  5  2  0  0  0  0
  5  6  1  0  0  0  0
  6  7  1  0  0  0  0
  7  8  1  0  0  0  0
  8  9  1  0  0  0  0
  9 10  1  0  0  0  0
  9 11  2  0  0  0  0
  5 12  1  0  0  0  0
 12 25  2  0  0  0  0
 12 13  1  0  0  0  0
 13 14  2  0  0  0  0
 14 15  1  0  0  0  0
 15 16  3  0  0  0  0
 14 17  1  0  0  0  0
 17 18  2  0  0  0  0
 18 19  1  0  0  0  0
 19 20  1  0  0  0  0
 19 21  1  0  0  0  0
 21 22  1  0  0  0  0
 22 23  1  0  0  0  0
 22 24  2  0  0  0  0
 18 25  1  0  0  0  0
M  END
$$$$
ROB-UNI-b2e-9
  -OEChem-03232022352D

 24 25  0     0  0  0  0  0  0999 V2000
    4.3136   -4.5149    0.0000 C   0  0  0  0  0  0  0  0  0  0  0  0
    4.3192   -3.5149    0.0000 C   0  0  0  0  0  0  0  0  0  0  0  0
    5.1880   -3.0197    0.0000 O   0  0  0  0  0  0  0  0  0  0  0  0
    3.4560   -3.0101    0.0000 N   0  0  0  0  0  0  0  0  0  0  0  0
    3.4615   -2.0101    0.0000 C   0  0  0  0  0  0  0  0  0  0  0  0
    2.5983   -1.5053    0.0000 C   0  0  0  0  0  0  0  0  0  0  0  0
    2.6039   -0.5053    0.0000 C   0  0  0  0  0  0  0  0  0  0  0  0
    3.4805   -0.0073    0.0000 C   0  0  0  0  0  0  0  0  0  0  0  0
    3.4848    1.0014    0.0000 C   0  0  0  0  0  0  0  0  0  0  0  0
    2.6125    1.5125    0.0000 N   0  0  0  0  0  0  0  0  0  0  0  0
    1.7414    1.0089    0.0000 C   0  0  0  0  0  0  0  0  0  0  0  0
    0.8707    1.5185    0.0000 C   0  0  0  0  0  0  0  0  0  0  0  0
    0.8707    2.5185    0.0000 C   0  0  0  0  0  0  0  0  0  0  0  0
    0.0047    3.0185    0.0000 C   0  0  0  0  0  0  0  0  0  0  0  0
    0.0047    4.0185    0.0000 N   0  0  0  0  0  0  0  0  0  0  0  0
   -0.8614    4.5185    0.0000 S   0  0  0  0  0  0  0  0  0  0  0  0
   -1.7274    5.0185    0.0000 C   0  0  0  0  0  0  0  0  0  0  0  0
   -1.3614    3.6525    0.0000 O   0  0  0  0  0  0  0  0  0  0  0  0
   -0.3614    5.3845    0.0000 O   0  0  0  0  0  0  0  0  0  0  0  0
    0.0000    1.0089    0.0000 C   0  0  0  0  0  0  0  0  0  0  0  0
    0.0000    0.0000    0.0000 C   0  0  0  0  0  0  0  0  0  0  0  0
   -0.8653   -0.5013    0.0000 Cl  0  0  0  0  0  0  0  0  0  0  0  0
    0.8707   -0.4993    0.0000 C   0  0  0  0  0  0  0  0  0  0  0  0
    1.7371    0.0000    0.0000 C   0  0  0  0  0  0  0  0  0  0  0  0
  1  2  1  0  0  0  0
  2  3  2  0  0  0  0
  2  4  1  0  0  0  0
  4  5  1  0  0  0  0
  5  6  1  0  0  0  0
  6  7  1  0  0  0  0
  7 24  2  0  0  0  0
  7  8  1  0  0  0  0
  8  9  2  0  0  0  0
  9 10  1  0  0  0  0
 10 11  2  0  0  0  0
 11 24  1  0  0  0  0
 11 12  1  0  0  0  0
 12 13  1  0  0  0  0
 13 14  1  0  0  0  0
 14 15  1  0  0  0  0
 15 16  1  0  0  0  0
 16 17  1  0  0  0  0
 16 18  2  0  0  0  0
 16 19  2  0  0  0  0
 12 20  2  0  0  0  0
 20 21  1  0  0  0  0
 21 22  1  0  0  0  0
 21 23  2  0  0  0  0
 23 24  1  0  0  0  0
M  END
$$$$
ROB-UNI-b2e-10
  -OEChem-03232022352D

 25 26  0     0  0  0  0  0  0999 V2000
    4.3136   -4.5149    0.0000 C   0  0  0  0  0  0  0  0  0  0  0  0
    4.3192   -3.5149    0.0000 C   0  0  0  0  0  0  0  0  0  0  0  0
    5.1880   -3.0197    0.0000 O   0  0  0  0  0  0  0  0  0  0  0  0
    3.4560   -3.0101    0.0000 N   0  0  0  0  0  0  0  0  0  0  0  0
    3.4615   -2.0101    0.0000 C   0  0  0  0  0  0  0  0  0  0  0  0
    2.5983   -1.5053    0.0000 C   0  0  0  0  0  0  0  0  0  0  0  0
    2.6039   -0.5053    0.0000 C   0  0  0  0  0  0  0  0  0  0  0  0
    3.4805   -0.0073    0.0000 C   0  0  0  0  0  0  0  0  0  0  0  0
    3.4848    1.0014    0.0000 C   0  0  0  0  0  0  0  0  0  0  0  0
    2.6125    1.5125    0.0000 N   0  0  0  0  0  0  0  0  0  0  0  0
    1.7414    1.0089    0.0000 C   0  0  0  0  0  0  0  0  0  0  0  0
    0.8707    1.5185    0.0000 C   0  0  0  0  0  0  0  0  0  0  0  0
    0.8707    2.5185    0.0000 C   0  0  0  0  0  0  0  0  0  0  0  0
    0.0047    3.0185    0.0000 C   0  0  0  0  0  0  0  0  0  0  0  0
    0.0047    4.0185    0.0000 N   0  0  0  0  0  0  0  0  0  0  0  0
   -0.8614    4.5185    0.0000 S   0  0  0  0  0  0  0  0  0  0  0  0
   -1.7274    5.0185    0.0000 C   0  0  0  0  0  0  0  0  0  0  0  0
   -1.3614    3.6525    0.0000 O   0  0  0  0  0  0  0  0  0  0  0  0
   -0.3614    5.3845    0.0000 O   0  0  0  0  0  0  0  0  0  0  0  0
    0.0000    1.0089    0.0000 C   0  0  0  0  0  0  0  0  0  0  0  0
    0.0000    0.0000    0.0000 C   0  0  0  0  0  0  0  0  0  0  0  0
   -0.8653   -0.5013    0.0000 C   0  0  0  0  0  0  0  0  0  0  0  0
   -1.7306   -1.0025    0.0000 N   0  0  0  0  0  0  0  0  0  0  0  0
    0.8707   -0.4993    0.0000 C   0  0  0  0  0  0  0  0  0  0  0  0
    1.7371    0.0000    0.0000 C   0  0  0  0  0  0  0  0  0  0  0  0
  1  2  1  0  0  0  0
  2  3  2  0  0  0  0
  2  4  1  0  0  0  0
  4  5  1  0  0  0  0
  5  6  1  0  0  0  0
  6  7  1  0  0  0  0
  7 25  2  0  0  0  0
  7  8  1  0  0  0  0
  8  9  2  0  0  0  0
  9 10  1  0  0  0  0
 10 11  2  0  0  0  0
 11 25  1  0  0  0  0
 11 12  1  0  0  0  0
 12 13  1  0  0  0  0
 13 14  1  0  0  0  0
 14 15  1  0  0  0  0
 15 16  1  0  0  0  0
 16 17  1  0  0  0  0
 16 18  2  0  0  0  0
 16 19  2  0  0  0  0
 12 20  2  0  0  0  0
 20 21  1  0  0  0  0
 21 22  1  0  0  0  0
 22 23  3  0  0  0  0
 21 24  2  0  0  0  0
 24 25  1  0  0  0  0
M  END
$$$$
ROB-UNI-b2e-11
  -OEChem-03232022352D

 25 27  0     0  0  0  0  0  0999 V2000
    5.5770   -3.5816    0.0000 C   0  0  0  0  0  0  0  0  0  0  0  0
    5.2680   -2.6306    0.0000 C   0  0  0  0  0  0  0  0  0  0  0  0
    5.9372   -1.8874    0.0000 O   0  0  0  0  0  0  0  0  0  0  0  0
    4.2899   -2.4226    0.0000 N   0  0  0  0  0  0  0  0  0  0  0  0
    3.9809   -1.4715    0.0000 C   0  0  0  0  0  0  0  0  0  0  0  0
    3.0028   -1.2636    0.0000 C   0  0  0  0  0  0  0  0  0  0  0  0
    2.6938   -0.3125    0.0000 C   0  0  0  0  0  0  0  0  0  0  0  0
    3.2858    0.5023    0.0000 C   0  0  0  0  0  0  0  0  0  0  0  0
    2.6938    1.3169    0.0000 N   0  0  0  0  0  0  0  0  0  0  0  0
    3.0028    2.2680    0.0000 C   0  0  0  0  0  0  0  0  0  0  0  0
    2.3337    3.0111    0.0000 C   0  0  0  0  0  0  0  0  0  0  0  0
    1.3555    2.8032    0.0000 O   0  0  0  0  0  0  0  0  0  0  0  0
    2.6427    3.9622    0.0000 N   0  0  0  0  0  0  0  0  0  0  0  0
    1.9714    4.7034    0.0000 C   0  0  0  0  0  0  0  0  0  0  0  0
    2.2820    5.6594    0.0000 C   0  0  0  0  0  0  0  0  0  0  0  0
    3.2639    5.8742    0.0000 O   0  0  0  0  0  0  0  0  0  0  0  0
    3.9321    5.1233    0.0000 C   0  0  0  0  0  0  0  0  0  0  0  0
    3.6214    4.1672    0.0000 C   0  0  0  0  0  0  0  0  0  0  0  0
    1.7360    1.0058    0.0000 C   0  0  0  0  0  0  0  0  0  0  0  0
    0.8680    1.5138    0.0000 C   0  0  0  0  0  0  0  0  0  0  0  0
    0.0000    1.0058    0.0000 C   0  0  0  0  0  0  0  0  0  0  0  0
    0.0000    0.0000    0.0000 C   0  0  0  0  0  0  0  0  0  0  0  0
   -0.8653   -0.5013    0.0000 Cl  0  0  0  0  0  0  0  0  0  0  0  0
    0.8680   -0.4978    0.0000 C   0  0  0  0  0  0  0  0  0  0  0  0
    1.7360   -0.0012    0.0000 C   0  0  0  0  0  0  0  0  0  0  0  0
  1  2  1  0  0  0  0
  2  3  2  0  0  0  0
  2  4  1  0  0  0  0
  4  5  1  0  0  0  0
  5  6  1  0  0  0  0
  6  7  1  0  0  0  0
  7 25  1  0  0  0  0
  7  8  2  0  0  0  0
  8  9  1  0  0  0  0
  9 10  1  0  0  0  0
 10 11  1  0  0  0  0
 11 12  2  0  0  0  0
 11 13  1  0  0  0  0
 13 18  1  0  0  0  0
 13 14  1  0  0  0  0
 14 15  1  0  0  0  0
 15 16  1  0  0  0  0
 16 17  1  0  0  0  0
 17 18  1  0  0  0  0
  9 19  1  0  0  0  0
 19 25  2  0  0  0  0
 19 20  1  0  0  0  0
 20 21  2  0  0  0  0
 21 22  1  0  0  0  0
 22 23  1  0  0  0  0
 22 24  2  0  0  0  0
 24 25  1  0  0  0  0
M  END
$$$$
ROB-UNI-b2e-12
  -OEChem-03232022352D

 26 28  0     0  0  0  0  0  0999 V2000
    5.5770   -3.5816    0.0000 C   0  0  0  0  0  0  0  0  0  0  0  0
    5.2680   -2.6306    0.0000 C   0  0  0  0  0  0  0  0  0  0  0  0
    5.9372   -1.8874    0.0000 O   0  0  0  0  0  0  0  0  0  0  0  0
    4.2899   -2.4226    0.0000 N   0  0  0  0  0  0  0  0  0  0  0  0
    3.9809   -1.4715    0.0000 C   0  0  0  0  0  0  0  0  0  0  0  0
    3.0028   -1.2636    0.0000 C   0  0  0  0  0  0  0  0  0  0  0  0
    2.6938   -0.3125    0.0000 C   0  0  0  0  0  0  0  0  0  0  0  0
    3.2858    0.5023    0.0000 C   0  0  0  0  0  0  0  0  0  0  0  0
    2.6938    1.3169    0.0000 N   0  0  0  0  0  0  0  0  0  0  0  0
    3.0028    2.2680    0.0000 C   0  0  0  0  0  0  0  0  0  0  0  0
    2.3337    3.0111    0.0000 C   0  0  0  0  0  0  0  0  0  0  0  0
    1.3555    2.8032    0.0000 O   0  0  0  0  0  0  0  0  0  0  0  0
    2.6427    3.9622    0.0000 N   0  0  0  0  0  0  0  0  0  0  0  0
    1.9714    4.7034    0.0000 C   0  0  0  0  0  0  0  0  0  0  0  0
    2.2820    5.6594    0.0000 C   0  0  0  0  0  0  0  0  0  0  0  0
    3.2639    5.8742    0.0000 O   0  0  0  0  0  0  0  0  0  0  0  0
    3.9321    5.1233    0.0000 C   0  0  0  0  0  0  0  0  0  0  0  0
    3.6214    4.1672    0.0000 C   0  0  0  0  0  0  0  0  0  0  0  0
    1.7360    1.0058    0.0000 C   0  0  0  0  0  0  0  0  0  0  0  0
    0.8680    1.5138    0.0000 C   0  0  0  0  0  0  0  0  0  0  0  0
    0.0000    1.0058    0.0000 C   0  0  0  0  0  0  0  0  0  0  0  0
    0.0000    0.0000    0.0000 C   0  0  0  0  0  0  0  0  0  0  0  0
   -0.8653   -0.5013    0.0000 C   0  0  0  0  0  0  0  0  0  0  0  0
   -1.7306   -1.0025    0.0000 N   0  0  0  0  0  0  0  0  0  0  0  0
    0.8680   -0.4978    0.0000 C   0  0  0  0  0  0  0  0  0  0  0  0
    1.7360   -0.0012    0.0000 C   0  0  0  0  0  0  0  0  0  0  0  0
  1  2  1  0  0  0  0
  2  3  2  0  0  0  0
  2  4  1  0  0  0  0
  4  5  1  0  0  0  0
  5  6  1  0  0  0  0
  6  7  1  0  0  0  0
  7 26  1  0  0  0  0
  7  8  2  0  0  0  0
  8  9  1  0  0  0  0
  9 10  1  0  0  0  0
 10 11  1  0  0  0  0
 11 12  2  0  0  0  0
 11 13  1  0  0  0  0
 13 18  1  0  0  0  0
 13 14  1  0  0  0  0
 14 15  1  0  0  0  0
 15 16  1  0  0  0  0
 16 17  1  0  0  0  0
 17 18  1  0  0  0  0
  9 19  1  0  0  0  0
 19 26  2  0  0  0  0
 19 20  1  0  0  0  0
 20 21  2  0  0  0  0
 21 22  1  0  0  0  0
 22 23  1  0  0  0  0
 23 24  3  0  0  0  0
 22 25  2  0  0  0  0
 25 26  1  0  0  0  0
M  END
$$$$
PAT-UNK-b2d-1
  -OEChem-03232022352D

 18 19  0     0  0  0  0  0  0999 V2000
    1.7335    3.0129    0.0000 C   0  0  0  0  0  0  0  0  0  0  0  0
    0.8675    2.5129    0.0000 C   0  0  0  0  0  0  0  0  0  0  0  0
    0.0015    3.0129    0.0000 O   0  0  0  0  0  0  0  0  0  0  0  0
    0.8675    1.5129    0.0000 N   0  0  0  0  0  0  0  0  0  0  0  0
    0.0000    1.0052    0.0000 C   0  0  0  0  0  0  0  0  0  0  0  0
    0.0000    0.0000    0.0000 C   0  0  0  0  0  0  0  0  0  0  0  0
    0.8675   -0.4975    0.0000 N   0  0  0  0  0  0  0  0  0  0  0  0
    0.8675   -1.4975    0.0000 C   0  0  0  0  0  0  0  0  0  0  0  0
    1.7335   -1.9975    0.0000 C   0  0  0  0  0  0  0  0  0  0  0  0
    1.7306   -3.0027    0.0000 C   0  0  0  0  0  0  0  0  0  0  0  0
    2.5966   -3.5028    0.0000 C   0  0  0  0  0  0  0  0  0  0  0  0
    3.4656   -3.0078    0.0000 C   0  0  0  0  0  0  0  0  0  0  0  0
    3.4685   -2.0026    0.0000 C   0  0  0  0  0  0  0  0  0  0  0  0
    4.3375   -1.5077    0.0000 C   0  0  0  0  0  0  0  0  0  0  0  0
    5.2064   -1.0129    0.0000 N   0  0  0  0  0  0  0  0  0  0  0  0
    2.6025   -1.4924    0.0000 C   0  0  0  0  0  0  0  0  0  0  0  0
    1.7350    0.0000    0.0000 C   0  0  0  0  0  0  0  0  0  0  0  0
    1.7350    1.0052    0.0000 C   0  0  0  0  0  0  0  0  0  0  0  0
  1  2  1  0  0  0  0
  2  3  2  0  0  0  0
  2  4  1  0  0  0  0
  4 18  1  0  0  0  0
  4  5  1  0  0  0  0
  5  6  1  0  0  0  0
  6  7  1  0  0  0  0
  7  8  1  0  0  0  0
  8  9  1  0  0  0  0
  9 16  2  0  0  0  0
  9 10  1  0  0  0  0
 10 11  2  0  0  0  0
 11 12  1  0  0  0  0
 12 13  2  0  0  0  0
 13 14  1  0  0  0  0
 14 15  3  0  0  0  0
 13 16  1  0  0  0  0
  7 17  1  0  0  0  0
 17 18  1  0  0  0  0
M  END
$$$$
PAT-UNK-b2d-2
  -OEChem-03232022352D

 19 20  0     0  0  0  0  0  0999 V2000
    6.0754    1.5334    0.0000 C   0  0  0  0  0  0  0  0  0  0  0  0
    5.2064    2.0283    0.0000 C   0  0  0  0  0  0  0  0  0  0  0  0
    4.3375    2.5231    0.0000 C   0  0  0  0  0  0  0  0  0  0  0  0
    3.4685    3.0180    0.0000 C   0  0  0  0  0  0  0  0  0  0  0  0
    3.4656    4.0232    0.0000 C   0  0  0  0  0  0  0  0  0  0  0  0
    2.5966    4.5182    0.0000 C   0  0  0  0  0  0  0  0  0  0  0  0
    1.7306    4.0181    0.0000 C   0  0  0  0  0  0  0  0  0  0  0  0
    1.7335    3.0129    0.0000 C   0  0  0  0  0  0  0  0  0  0  0  0
    0.8675    2.5129    0.0000 C   0  0  0  0  0  0  0  0  0  0  0  0
    0.8675    1.5129    0.0000 N   0  0  0  0  0  0  0  0  0  0  0  0
    0.0000    1.0052    0.0000 C   0  0  0  0  0  0  0  0  0  0  0  0
    0.0000    0.0000    0.0000 C   0  0  0  0  0  0  0  0  0  0  0  0
    0.8675   -0.4975    0.0000 N   0  0  0  0  0  0  0  0  0  0  0  0
    0.8675   -1.4975    0.0000 C   0  0  0  0  0  0  0  0  0  0  0  0
    1.7335   -1.9975    0.0000 C   0  0  0  0  0  0  0  0  0  0  0  0
    0.0015   -1.9975    0.0000 O   0  0  0  0  0  0  0  0  0  0  0  0
    1.7350    0.0000    0.0000 C   0  0  0  0  0  0  0  0  0  0  0  0
    1.7350    1.0052    0.0000 C   0  0  0  0  0  0  0  0  0  0  0  0
    2.6025    2.5078    0.0000 C   0  0  0  0  0  0  0  0  0  0  0  0
  1  2  1  0  0  0  0
  2  3  3  0  0  0  0
  3  4  1  0  0  0  0
  4 19  2  0  0  0  0
  4  5  1  0  0  0  0
  5  6  2  0  0  0  0
  6  7  1  0  0  0  0
  7  8  2  0  0  0  0
  8  9  1  0  0  0  0
  9 10  1  0  0  0  0
 10 18  1  0  0  0  0
 10 11  1  0  0  0  0
 11 12  1  0  0  0  0
 12 13  1  0  0  0  0
 13 14  1  0  0  0  0
 14 15  1  0  0  0  0
 14 16  2  0  0  0  0
 13 17  1  0  0  0  0
 17 18  1  0  0  0  0
  8 19  1  0  0  0  0
M  END
$$$$
PAT-UNK-b2d-3
  -OEChem-03232022352D

 22 24  0     0  0  0  0  0  0999 V2000
    1.7335    3.0129    0.0000 C   0  0  0  0  0  0  0  0  0  0  0  0
    0.8675    2.5129    0.0000 C   0  0  0  0  0  0  0  0  0  0  0  0
    0.0015    3.0129    0.0000 O   0  0  0  0  0  0  0  0  0  0  0  0
    0.8675    1.5129    0.0000 N   0  0  0  0  0  0  0  0  0  0  0  0
    0.0000    1.0052    0.0000 C   0  0  0  0  0  0  0  0  0  0  0  0
    0.0000    0.0000    0.0000 C   0  0  0  0  0  0  0  0  0  0  0  0
    0.8675   -0.4975    0.0000 N   0  0  0  0  0  0  0  0  0  0  0  0
    0.8675   -1.4975    0.0000 C   0  0  0  0  0  0  0  0  0  0  0  0
    1.7335   -1.9975    0.0000 C   0  0  0  0  0  0  0  0  0  0  0  0
    1.7306   -3.0027    0.0000 C   0  0  0  0  0  0  0  0  0  0  0  0
    2.5966   -3.5028    0.0000 C   0  0  0  0  0  0  0  0  0  0  0  0
    3.4656   -3.0078    0.0000 C   0  0  0  0  0  0  0  0  0  0  0  0
    3.4685   -2.0026    0.0000 C   0  0  0  0  0  0  0  0  0  0  0  0
    4.3375   -1.5077    0.0000 N   0  0  0  0  0  0  0  0  0  0  0  0
    5.2080   -2.0103    0.0000 C   0  0  0  0  0  0  0  0  0  0  0  0
    6.0814   -1.5128    0.0000 C   0  0  0  0  0  0  0  0  0  0  0  0
    6.0844   -0.5128    0.0000 C   0  0  0  0  0  0  0  0  0  0  0  0
    5.2228   -0.0052    0.0000 C   0  0  0  0  0  0  0  0  0  0  0  0
    4.3493   -0.5027    0.0000 C   0  0  0  0  0  0  0  0  0  0  0  0
    2.6025   -1.4924    0.0000 C   0  0  0  0  0  0  0  0  0  0  0  0
    1.7350    0.0000    0.0000 C   0  0  0  0  0  0  0  0  0  0  0  0
    1.7350    1.0052    0.0000 C   0  0  0  0  0  0  0  0  0  0  0  0
  1  2  1  0  0  0  0
  2  3  2  0  0  0  0
  2  4  1  0  0  0  0
  4 22  1  0  0  0  0
  4  5  1  0  0  0  0
  5  6  1  0  0  0  0
  6  7  1  0  0  0  0
  7  8  1  0  0  0  0
  8  9  1  0  0  0  0
  9 20  2  0  0  0  0
  9 10  1  0  0  0  0
 10 11  2  0  0  0  0
 11 12  1  0  0  0  0
 12 13  2  0  0  0  0
 13 14  1  0  0  0  0
 14 19  1  0  0  0  0
 14 15  1  0  0  0  0
 15 16  1  0  0  0  0
 16 17  1  0  0  0  0
 17 18  1  0  0  0  0
 18 19  1  0  0  0  0
 13 20  1  0  0  0  0
  7 21  1  0  0  0  0
 21 22  1  0  0  0  0
M  END
$$$$
PAT-UNK-b2d-4
  -OEChem-03232022352D

 25 27  0     0  0  0  0  0  0999 V2000
    5.5770   -3.5816    0.0000 C   0  0  0  0  0  0  0  0  0  0  0  0
    5.2680   -2.6306    0.0000 C   0  0  0  0  0  0  0  0  0  0  0  0
    5.9372   -1.8874    0.0000 O   0  0  0  0  0  0  0  0  0  0  0  0
    4.2899   -2.4226    0.0000 N   0  0  0  0  0  0  0  0  0  0  0  0
    3.9809   -1.4715    0.0000 C   0  0  0  0  0  0  0  0  0  0  0  0
    3.0028   -1.2636    0.0000 C   0  0  0  0  0  0  0  0  0  0  0  0
    2.6938   -0.3125    0.0000 C   0  0  0  0  0  0  0  0  0  0  0  0
    3.2858    0.5023    0.0000 C   0  0  0  0  0  0  0  0  0  0  0  0
    2.6938    1.3169    0.0000 N   0  0  0  0  0  0  0  0  0  0  0  0
    1.7360    1.0058    0.0000 C   0  0  0  0  0  0  0  0  0  0  0  0
    0.8680    1.5138    0.0000 C   0  0  0  0  0  0  0  0  0  0  0  0
    0.8680    2.5138    0.0000 C   0  0  0  0  0  0  0  0  0  0  0  0
    0.0020    3.0138    0.0000 N   0  0  0  0  0  0  0  0  0  0  0  0
   -0.0040    4.0189    0.0000 C   0  0  0  0  0  0  0  0  0  0  0  0
   -0.8745    4.5215    0.0000 C   0  0  0  0  0  0  0  0  0  0  0  0
   -1.7391    4.0190    0.0000 N   0  0  0  0  0  0  0  0  0  0  0  0
   -2.6051    4.5190    0.0000 C   0  0  0  0  0  0  0  0  0  0  0  0
   -3.4711    4.0190    0.0000 C   0  0  0  0  0  0  0  0  0  0  0  0
   -2.6051    5.5190    0.0000 O   0  0  0  0  0  0  0  0  0  0  0  0
   -1.7420    3.0190    0.0000 C   0  0  0  0  0  0  0  0  0  0  0  0
   -0.8715    2.5164    0.0000 C   0  0  0  0  0  0  0  0  0  0  0  0
    0.0000    1.0058    0.0000 C   0  0  0  0  0  0  0  0  0  0  0  0
    0.0000    0.0000    0.0000 C   0  0  0  0  0  0  0  0  0  0  0  0
    0.8680   -0.4978    0.0000 C   0  0  0  0  0  0  0  0  0  0  0  0
    1.7360   -0.0012    0.0000 C   0  0  0  0  0  0  0  0  0  0  0  0
  1  2  1  0  0  0  0
  2  3  2  0  0  0  0
  2  4  1  0  0  0  0
  4  5  1  0  0  0  0
  5  6  1  0  0  0  0
  6  7  1  0  0  0  0
  7 25  1  0  0  0  0
  7  8  2  0  0  0  0
  8  9  1  0  0  0  0
  9 10  1  0  0  0  0
 10 25  2  0  0  0  0
 10 11  1  0  0  0  0
 11 12  1  0  0  0  0
 12 13  1  0  0  0  0
 13 21  1  0  0  0  0
 13 14  1  0  0  0  0
 14 15  1  0  0  0  0
 15 16  1  0  0  0  0
 16 17  1  0  0  0  0
 17 18  1  0  0  0  0
 17 19  2  0  0  0  0
 16 20  1  0  0  0  0
 20 21  1  0  0  0  0
 11 22  2  0  0  0  0
 22 23  1  0  0  0  0
 23 24  2  0  0  0  0
 24 25  1  0  0  0  0
M  END
$$$$
PAT-UNK-b2d-5
  -OEChem-03232022352D

 27 29  0     0  0  0  0  0  0999 V2000
    5.5770   -3.5816    0.0000 C   0  0  0  0  0  0  0  0  0  0  0  0
    5.2680   -2.6306    0.0000 C   0  0  0  0  0  0  0  0  0  0  0  0
    5.9372   -1.8874    0.0000 O   0  0  0  0  0  0  0  0  0  0  0  0
    4.2899   -2.4226    0.0000 N   0  0  0  0  0  0  0  0  0  0  0  0
    3.9809   -1.4715    0.0000 C   0  0  0  0  0  0  0  0  0  0  0  0
    3.0028   -1.2636    0.0000 C   0  0  0  0  0  0  0  0  0  0  0  0
    2.6938   -0.3125    0.0000 C   0  0  0  0  0  0  0  0  0  0  0  0
    3.2858    0.5023    0.0000 C   0  0  0  0  0  0  0  0  0  0  0  0
    2.6938    1.3169    0.0000 N   0  0  0  0  0  0  0  0  0  0  0  0
    1.7360    1.0058    0.0000 C   0  0  0  0  0  0  0  0  0  0  0  0
    0.8680    1.5138    0.0000 C   0  0  0  0  0  0  0  0  0  0  0  0
    0.8680    2.5138    0.0000 C   0  0  0  0  0  0  0  0  0  0  0  0
    0.0020    3.0138    0.0000 N   0  0  0  0  0  0  0  0  0  0  0  0
   -0.0040    4.0189    0.0000 C   0  0  0  0  0  0  0  0  0  0  0  0
   -0.8745    4.5215    0.0000 C   0  0  0  0  0  0  0  0  0  0  0  0
   -1.7391    4.0190    0.0000 N   0  0  0  0  0  0  0  0  0  0  0  0
   -2.6051    4.5190    0.0000 C   0  0  0  0  0  0  0  0  0  0  0  0
   -3.4711    4.0190    0.0000 C   0  0  0  0  0  0  0  0  0  0  0  0
   -2.6051    5.5190    0.0000 O   0  0  0  0  0  0  0  0  0  0  0  0
   -1.7420    3.0190    0.0000 C   0  0  0  0  0  0  0  0  0  0  0  0
   -0.8715    2.5164    0.0000 C   0  0  0  0  0  0  0  0  0  0  0  0
    0.0000    1.0058    0.0000 C   0  0  0  0  0  0  0  0  0  0  0  0
    0.0000    0.0000    0.0000 C   0  0  0  0  0  0  0  0  0  0  0  0
   -0.8653   -0.5013    0.0000 C   0  0  0  0  0  0  0  0  0  0  0  0
   -1.7306   -1.0025    0.0000 N   0  0  0  0  0  0  0  0  0  0  0  0
    0.8680   -0.4978    0.0000 C   0  0  0  0  0  0  0  0  0  0  0  0
    1.7360   -0.0012    0.0000 C   0  0  0  0  0  0  0  0  0  0  0  0
  1  2  1  0  0  0  0
  2  3  2  0  0  0  0
  2  4  1  0  0  0  0
  4  5  1  0  0  0  0
  5  6  1  0  0  0  0
  6  7  1  0  0  0  0
  7 27  1  0  0  0  0
  7  8  2  0  0  0  0
  8  9  1  0  0  0  0
  9 10  1  0  0  0  0
 10 27  2  0  0  0  0
 10 11  1  0  0  0  0
 11 12  1  0  0  0  0
 12 13  1  0  0  0  0
 13 21  1  0  0  0  0
 13 14  1  0  0  0  0
 14 15  1  0  0  0  0
 15 16  1  0  0  0  0
 16 17  1  0  0  0  0
 17 18  1  0  0  0  0
 17 19  2  0  0  0  0
 16 20  1  0  0  0  0
 20 21  1  0  0  0  0
 11 22  2  0  0  0  0
 22 23  1  0  0  0  0
 23 24  1  0  0  0  0
 24 25  3  0  0  0  0
 23 26  2  0  0  0  0
 26 27  1  0  0  0  0
M  END
$$$$
JOH-MSK-a63-1
  -OEChem-03232022352D

 18 19  0     0  0  0  0  0  0999 V2000
   -1.7320   -0.0025    0.0000 C   0  0  0  0  0  0  0  0  0  0  0  0
   -0.8653   -0.5013    0.0000 O   0  0  0  0  0  0  0  0  0  0  0  0
    0.0000    0.0000    0.0000 C   0  0  0  0  0  0  0  0  0  0  0  0
    0.8680   -0.4978    0.0000 C   0  0  0  0  0  0  0  0  0  0  0  0
    1.7360   -0.0012    0.0000 C   0  0  0  0  0  0  0  0  0  0  0  0
    2.6938   -0.3125    0.0000 C   0  0  0  0  0  0  0  0  0  0  0  0
    3.0028   -1.2636    0.0000 C   0  0  0  0  0  0  0  0  0  0  0  0
    3.9809   -1.4715    0.0000 C   0  0  0  0  0  0  0  0  0  0  0  0
    4.2899   -2.4226    0.0000 N   0  0  0  0  0  0  0  0  0  0  0  0
    5.2680   -2.6306    0.0000 C   0  0  0  0  0  0  0  0  0  0  0  0
    5.5770   -3.5816    0.0000 C   0  0  0  0  0  0  0  0  0  0  0  0
    5.9372   -1.8874    0.0000 O   0  0  0  0  0  0  0  0  0  0  0  0
    3.2858    0.5023    0.0000 C   0  0  0  0  0  0  0  0  0  0  0  0
    2.6938    1.3169    0.0000 N   0  0  0  0  0  0  0  0  0  0  0  0
    1.7360    1.0058    0.0000 C   0  0  0  0  0  0  0  0  0  0  0  0
    0.8680    1.5138    0.0000 C   0  0  0  0  0  0  0  0  0  0  0  0
    0.0000    1.0058    0.0000 C   0  0  0  0  0  0  0  0  0  0  0  0
   -0.8675    1.5032    0.0000 O   0  0  0  0  0  0  0  0  0  0  0  0
  1  2  1  0  0  0  0
  2  3  1  0  0  0  0
  3 17  2  0  0  0  0
  3  4  1  0  0  0  0
  4  5  2  0  0  0  0
  5 15  1  0  0  0  0
  5  6  1  0  0  0  0
  6  7  1  0  0  0  0
  7  8  1  0  0  0  0
  8  9  1  0  0  0  0
  9 10  1  0  0  0  0
 10 11  1  0  0  0  0
 10 12  2  0  0  0  0
  6 13  2  0  0  0  0
 13 14  1  0  0  0  0
 14 15  1  0  0  0  0
 15 16  2  0  0  0  0
 16 17  1  0  0  0  0
 17 18  1  0  0  0  0
M  END
$$$$
JOH-MSK-a63-2
  -OEChem-03232022352D

 22 23  0     0  0  0  0  0  0999 V2000
   -0.8639   -1.5013    0.0000 C   0  0  0  0  0  0  0  0  0  0  0  0
   -0.8653   -0.5013    0.0000 O   0  0  0  0  0  0  0  0  0  0  0  0
    0.0000    0.0000    0.0000 C   0  0  0  0  0  0  0  0  0  0  0  0
    0.8680   -0.4978    0.0000 C   0  0  0  0  0  0  0  0  0  0  0  0
    1.7360   -0.0012    0.0000 C   0  0  0  0  0  0  0  0  0  0  0  0
    2.6938   -0.3125    0.0000 C   0  0  0  0  0  0  0  0  0  0  0  0
    3.0028   -1.2636    0.0000 C   0  0  0  0  0  0  0  0  0  0  0  0
    3.9809   -1.4715    0.0000 C   0  0  0  0  0  0  0  0  0  0  0  0
    4.2899   -2.4226    0.0000 N   0  0  0  0  0  0  0  0  0  0  0  0
    5.2680   -2.6306    0.0000 C   0  0  0  0  0  0  0  0  0  0  0  0
    5.5770   -3.5816    0.0000 C   0  0  0  0  0  0  0  0  0  0  0  0
    5.9372   -1.8874    0.0000 O   0  0  0  0  0  0  0  0  0  0  0  0
    3.2858    0.5023    0.0000 C   0  0  0  0  0  0  0  0  0  0  0  0
    2.6938    1.3169    0.0000 N   0  0  0  0  0  0  0  0  0  0  0  0
    1.7360    1.0058    0.0000 C   0  0  0  0  0  0  0  0  0  0  0  0
    0.8680    1.5138    0.0000 C   0  0  0  0  0  0  0  0  0  0  0  0
    0.0000    1.0058    0.0000 C   0  0  0  0  0  0  0  0  0  0  0  0
   -0.8675    1.5032    0.0000 O   0  0  0  0  0  0  0  0  0  0  0  0
   -0.8705    2.5032    0.0000 S   0  0  0  0  0  0  0  0  0  0  0  0
    0.1295    2.5062    0.0000 O   0  0  0  0  0  0  0  0  0  0  0  0
   -1.8704    2.5003    0.0000 O   0  0  0  0  0  0  0  0  0  0  0  0
   -0.8734    3.5032    0.0000 O   0  0  0  0  0  0  0  0  0  0  0  0
  1  2  1  0  0  0  0
  2  3  1  0  0  0  0
  3 17  2  0  0  0  0
  3  4  1  0  0  0  0
  4  5  2  0  0  0  0
  5 15  1  0  0  0  0
  5  6  1  0  0  0  0
  6  7  1  0  0  0  0
  7  8  1  0  0  0  0
  8  9  1  0  0  0  0
  9 10  1  0  0  0  0
 10 11  1  0  0  0  0
 10 12  2  0  0  0  0
  6 13  2  0  0  0  0
 13 14  1  0  0  0  0
 14 15  1  0  0  0  0
 15 16  2  0  0  0  0
 16 17  1  0  0  0  0
 17 18  1  0  0  0  0
 18 19  1  0  0  0  0
 19 20  2  0  0  0  0
 19 21  2  0  0  0  0
 19 22  1  0  0  0  0
M  END
$$$$
JOH-MSK-a63-3
  -OEChem-03232022352D

 30 32  0     1  0  0  0  0  0999 V2000
   -3.0692    2.8977    0.0000 C   0  0  0  0  0  0  0  0  0  0  0  0
   -2.7234    3.8360    0.0000 O   0  0  0  0  0  0  0  0  0  0  0  0
   -1.7380    4.0058    0.0000 C   0  0  3  0  0  0  0  0  0  0  0  0
   -2.3333    5.6514    0.0000 C   0  0  0  0  0  0  0  0  0  0  0  0
   -1.6890    6.4162    0.0000 O   0  0  0  0  0  0  0  0  0  0  0  0
   -3.3177    5.8270    0.0000 O   0  0  0  0  0  0  0  0  0  0  0  0
   -1.7439    3.0007    0.0000 O   0  0  0  0  0  0  0  0  0  0  0  0
   -0.8705    2.5032    0.0000 C   0  0  3  0  0  0  0  0  0  0  0  0
   -0.8675    1.5032    0.0000 O   0  0  0  0  0  0  0  0  0  0  0  0
    0.0000    1.0058    0.0000 C   0  0  0  0  0  0  0  0  0  0  0  0
    0.0000    0.0000    0.0000 C   0  0  0  0  0  0  0  0  0  0  0  0
    0.8680   -0.4978    0.0000 C   0  0  0  0  0  0  0  0  0  0  0  0
    1.7360   -0.0012    0.0000 C   0  0  0  0  0  0  0  0  0  0  0  0
    2.6938   -0.3125    0.0000 C   0  0  0  0  0  0  0  0  0  0  0  0
    3.2858    0.5023    0.0000 C   0  0  0  0  0  0  0  0  0  0  0  0
    2.6938    1.3169    0.0000 N   0  0  0  0  0  0  0  0  0  0  0  0
    1.7360    1.0058    0.0000 C   0  0  0  0  0  0  0  0  0  0  0  0
    0.8680    1.5138    0.0000 C   0  0  0  0  0  0  0  0  0  0  0  0
    0.0001    3.0058    0.0000 C   0  0  3  0  0  0  0  0  0  0  0  0
    0.8668    2.5071    0.0000 O   0  0  0  0  0  0  0  0  0  0  0  0
   -0.0028    4.0059    0.0000 C   0  0  3  0  0  0  0  0  0  0  0  0
    0.3401    4.9452    0.0000 O   0  0  0  0  0  0  0  0  0  0  0  0
    0.9821    3.8332    0.0000 C   0  0  0  0  0  0  0  0  0  0  0  0
    1.6242    4.5998    0.0000 C   0  0  0  0  0  0  0  0  0  0  0  0
    2.6092    4.4272    0.0000 N   0  0  0  0  0  0  0  0  0  0  0  0
    3.2512    5.1938    0.0000 C   0  0  0  0  0  0  0  0  0  0  0  0
    4.2362    5.0211    0.0000 C   0  0  0  0  0  0  0  0  0  0  0  0
    2.9083    6.1332    0.0000 O   0  0  0  0  0  0  0  0  0  0  0  0
   -0.8674    4.5084    0.0000 C   0  0  3  0  0  0  0  0  0  0  0  0
   -0.8660    5.5084    0.0000 O   0  0  0  0  0  0  0  0  0  0  0  0
  1  2  1  0  0  0  0
  2  3  1  0  0  0  0
  3 29  1  0  0  0  0
  3  4  1  0  0  0  0
  4  5  2  0  0  0  0
  4  6  1  0  0  0  0
  3  7  1  0  0  0  0
  7  8  1  0  0  0  0
  8  9  1  0  0  0  0
  9 10  1  0  0  0  0
 10 18  2  0  0  0  0
 10 11  1  0  0  0  0
 11 12  2  0  0  0  0
 12 13  1  0  0  0  0
 13 17  2  0  0  0  0
 13 14  1  0  0  0  0
 14 15  2  0  0  0  0
 15 16  1  0  0  0  0
 16 17  1  0  0  0  0
 17 18  1  0  0  0  0
  8 19  1  0  0  0  0
 19 20  1  0  0  0  0
 19 21  1  0  0  0  0
 21 22  1  0  0  0  0
 21 23  1  0  0  0  0
 23 24  1  0  0  0  0
 24 25  1  0  0  0  0
 25 26  1  0  0  0  0
 26 27  1  0  0  0  0
 26 28  2  0  0  0  0
 21 29  1  0  0  0  0
 29 30  1  0  0  0  0
M  END
$$$$
JOH-MSK-a63-4
  -OEChem-03232022352D

 16 17  0     0  0  0  0  0  0999 V2000
    5.5770   -3.5816    0.0000 C   0  0  0  0  0  0  0  0  0  0  0  0
    5.2680   -2.6306    0.0000 C   0  0  0  0  0  0  0  0  0  0  0  0
    5.9372   -1.8874    0.0000 O   0  0  0  0  0  0  0  0  0  0  0  0
    4.2899   -2.4226    0.0000 N   0  0  0  0  0  0  0  0  0  0  0  0
    3.9809   -1.4715    0.0000 C   0  0  0  0  0  0  0  0  0  0  0  0
    3.0028   -1.2636    0.0000 C   0  0  0  0  0  0  0  0  0  0  0  0
    2.6938   -0.3125    0.0000 C   0  0  0  0  0  0  0  0  0  0  0  0
    3.2858    0.5023    0.0000 C   0  0  0  0  0  0  0  0  0  0  0  0
    2.6938    1.3169    0.0000 N   0  0  0  0  0  0  0  0  0  0  0  0
    1.7360    1.0058    0.0000 C   0  0  0  0  0  0  0  0  0  0  0  0
    0.8680    1.5138    0.0000 C   0  0  0  0  0  0  0  0  0  0  0  0
    0.0000    1.0058    0.0000 C   0  0  0  0  0  0  0  0  0  0  0  0
    0.0000    0.0000    0.0000 C   0  0  0  0  0  0  0  0  0  0  0  0
   -0.8653   -0.5013    0.0000 O   0  0  0  0  0  0  0  0  0  0  0  0
    0.8680   -0.4978    0.0000 C   0  0  0  0  0  0  0  0  0  0  0  0
    1.7360   -0.0012    0.0000 C   0  0  0  0  0  0  0  0  0  0  0  0
  1  2  1  0  0  0  0
  2  3  2  0  0  0  0
  2  4  1  0  0  0  0
  4  5  1  0  0  0  0
  5  6  1  0  0  0  0
  6  7  1  0  0  0  0
  7 16  1  0  0  0  0
  7  8  2  0  0  0  0
  8  9  1  0  0  0  0
  9 10  1  0  0  0  0
 10 16  2  0  0  0  0
 10 11  1  0  0  0  0
 11 12  2  0  0  0  0
 12 13  1  0  0  0  0
 13 14  1  0  0  0  0
 13 15  2  0  0  0  0
 15 16  1  0  0  0  0
M  END
$$$$
JOH-MSK-a63-5
  -OEChem-03232022352D

 20 21  0     0  0  0  0  0  0999 V2000
    5.5770   -3.5816    0.0000 C   0  0  0  0  0  0  0  0  0  0  0  0
    5.2680   -2.6306    0.0000 C   0  0  0  0  0  0  0  0  0  0  0  0
    5.9372   -1.8874    0.0000 O   0  0  0  0  0  0  0  0  0  0  0  0
    4.2899   -2.4226    0.0000 N   0  0  0  0  0  0  0  0  0  0  0  0
    3.9809   -1.4715    0.0000 C   0  0  0  0  0  0  0  0  0  0  0  0
    3.0028   -1.2636    0.0000 C   0  0  0  0  0  0  0  0  0  0  0  0
    2.6938   -0.3125    0.0000 C   0  0  0  0  0  0  0  0  0  0  0  0
    3.2858    0.5023    0.0000 C   0  0  0  0  0  0  0  0  0  0  0  0
    2.6938    1.3169    0.0000 N   0  0  0  0  0  0  0  0  0  0  0  0
    1.7360    1.0058    0.0000 C   0  0  0  0  0  0  0  0  0  0  0  0
    0.8680    1.5138    0.0000 C   0  0  0  0  0  0  0  0  0  0  0  0
    0.0000    1.0058    0.0000 C   0  0  0  0  0  0  0  0  0  0  0  0
    0.0000    0.0000    0.0000 C   0  0  0  0  0  0  0  0  0  0  0  0
   -0.8653   -0.5013    0.0000 O   0  0  0  0  0  0  0  0  0  0  0  0
   -0.8639   -1.5013    0.0000 S   0  0  0  0  0  0  0  0  0  0  0  0
    0.1361   -1.4998    0.0000 O   0  0  0  0  0  0  0  0  0  0  0  0
   -1.8639   -1.5027    0.0000 O   0  0  0  0  0  0  0  0  0  0  0  0
   -0.8624   -2.5012    0.0000 O   0  5  0  0  0  0  0  0  0  0  0  0
    0.8680   -0.4978    0.0000 C   0  0  0  0  0  0  0  0  0  0  0  0
    1.7360   -0.0012    0.0000 C   0  0  0  0  0  0  0  0  0  0  0  0
  1  2  1  0  0  0  0
  2  3  2  0  0  0  0
  2  4  1  0  0  0  0
  4  5  1  0  0  0  0
  5  6  1  0  0  0  0
  6  7  1  0  0  0  0
  7 20  1  0  0  0  0
  7  8  2  0  0  0  0
  8  9  1  0  0  0  0
  9 10  1  0  0  0  0
 10 20  2  0  0  0  0
 10 11  1  0  0  0  0
 11 12  2  0  0  0  0
 12 13  1  0  0  0  0
 13 14  1  0  0  0  0
 14 15  1  0  0  0  0
 15 16  2  0  0  0  0
 15 17  2  0  0  0  0
 15 18  1  0  0  0  0
 13 19  2  0  0  0  0
 19 20  1  0  0  0  0
M  CHG  1  18  -1
M  END
$$$$
JOH-MSK-a63-6
  -OEChem-03232022352D

 28 30  0     1  0  0  0  0  0999 V2000
    5.5770   -3.5816    0.0000 C   0  0  0  0  0  0  0  0  0  0  0  0
    5.2680   -2.6306    0.0000 C   0  0  0  0  0  0  0  0  0  0  0  0
    5.9372   -1.8874    0.0000 O   0  0  0  0  0  0  0  0  0  0  0  0
    4.2899   -2.4226    0.0000 N   0  0  0  0  0  0  0  0  0  0  0  0
    3.9809   -1.4715    0.0000 C   0  0  0  0  0  0  0  0  0  0  0  0
    3.0028   -1.2636    0.0000 C   0  0  0  0  0  0  0  0  0  0  0  0
    2.6938   -0.3125    0.0000 C   0  0  0  0  0  0  0  0  0  0  0  0
    3.2858    0.5023    0.0000 C   0  0  0  0  0  0  0  0  0  0  0  0
    2.6938    1.3169    0.0000 N   0  0  0  0  0  0  0  0  0  0  0  0
    1.7360    1.0058    0.0000 C   0  0  0  0  0  0  0  0  0  0  0  0
    0.8680    1.5138    0.0000 C   0  0  0  0  0  0  0  0  0  0  0  0
    0.0000    1.0058    0.0000 C   0  0  0  0  0  0  0  0  0  0  0  0
    0.0000    0.0000    0.0000 C   0  0  0  0  0  0  0  0  0  0  0  0
   -0.8653   -0.5013    0.0000 O   0  0  0  0  0  0  0  0  0  0  0  0
   -0.8639   -1.5013    0.0000 C   0  0  3  0  0  0  0  0  0  0  0  0
   -1.7351   -2.0025    0.0000 O   0  0  0  0  0  0  0  0  0  0  0  0
   -1.7247   -3.0076    0.0000 C   0  0  3  0  0  0  0  0  0  0  0  0
   -2.5871   -3.5140    0.0000 C   0  0  0  0  0  0  0  0  0  0  0  0
   -3.4567   -3.0203    0.0000 O   0  0  0  0  0  0  0  0  0  0  0  0
   -2.5797   -4.5139    0.0000 O   0  5  0  0  0  0  0  0  0  0  0  0
   -0.8520   -3.5064    0.0000 C   0  0  3  0  0  0  0  0  0  0  0  0
   -0.8462   -4.5064    0.0000 O   0  0  0  0  0  0  0  0  0  0  0  0
    0.0104   -3.0000    0.0000 C   0  0  3  0  0  0  0  0  0  0  0  0
    0.8786   -3.4962    0.0000 O   0  0  0  0  0  0  0  0  0  0  0  0
    0.0089   -2.0000    0.0000 C   0  0  3  0  0  0  0  0  0  0  0  0
    0.8734   -1.4975    0.0000 O   0  0  0  0  0  0  0  0  0  0  0  0
    0.8680   -0.4978    0.0000 C   0  0  0  0  0  0  0  0  0  0  0  0
    1.7360   -0.0012    0.0000 C   0  0  0  0  0  0  0  0  0  0  0  0
  1  2  1  0  0  0  0
  2  3  2  0  0  0  0
  2  4  1  0  0  0  0
  4  5  1  0  0  0  0
  5  6  1  0  0  0  0
  6  7  1  0  0  0  0
  7 28  1  0  0  0  0
  7  8  2  0  0  0  0
  8  9  1  0  0  0  0
  9 10  1  0  0  0  0
 10 28  2  0  0  0  0
 10 11  1  0  0  0  0
 11 12  2  0  0  0  0
 12 13  1  0  0  0  0
 13 14  1  0  0  0  0
 14 15  1  0  0  0  0
 15 25  1  0  0  0  0
 15 16  1  0  0  0  0
 16 17  1  0  0  0  0
 17 18  1  0  0  0  0
 18 19  2  0  0  0  0
 18 20  1  0  0  0  0
 17 21  1  0  0  0  0
 21 22  1  0  0  0  0
 21 23  1  0  0  0  0
 23 24  1  0  0  0  0
 23 25  1  0  0  0  0
 25 26  1  0  0  0  0
 13 27  2  0  0  0  0
 27 28  1  0  0  0  0
M  CHG  1  20  -1
M  END
$$$$
JOH-MSK-a63-7
  -OEChem-03232022352D

 14 15  0     0  0  0  0  0  0999 V2000
   -1.7320   -0.0025    0.0000 C   0  0  0  0  0  0  0  0  0  0  0  0
   -0.8653   -0.5013    0.0000 O   0  0  0  0  0  0  0  0  0  0  0  0
    0.0000    0.0000    0.0000 C   0  0  0  0  0  0  0  0  0  0  0  0
    0.0000    1.0058    0.0000 C   0  0  0  0  0  0  0  0  0  0  0  0
    0.8680    1.5138    0.0000 C   0  0  0  0  0  0  0  0  0  0  0  0
    1.7360    1.0058    0.0000 C   0  0  0  0  0  0  0  0  0  0  0  0
    2.6938    1.3169    0.0000 N   0  0  0  0  0  0  0  0  0  0  0  0
    3.2858    0.5023    0.0000 C   0  0  0  0  0  0  0  0  0  0  0  0
    2.6938   -0.3125    0.0000 C   0  0  0  0  0  0  0  0  0  0  0  0
    3.0028   -1.2636    0.0000 C   0  0  0  0  0  0  0  0  0  0  0  0
    3.9809   -1.4715    0.0000 C   0  0  0  0  0  0  0  0  0  0  0  0
    4.2899   -2.4226    0.0000 N   0  0  0  0  0  0  0  0  0  0  0  0
    1.7360   -0.0012    0.0000 C   0  0  0  0  0  0  0  0  0  0  0  0
    0.8680   -0.4978    0.0000 C   0  0  0  0  0  0  0  0  0  0  0  0
  1  2  1  0  0  0  0
  2  3  1  0  0  0  0
  3 14  2  0  0  0  0
  3  4  1  0  0  0  0
  4  5  2  0  0  0  0
  5  6  1  0  0  0  0
  6 13  2  0  0  0  0
  6  7  1  0  0  0  0
  7  8  1  0  0  0  0
  8  9  2  0  0  0  0
  9 10  1  0  0  0  0
 10 11  1  0  0  0  0
 11 12  1  0  0  0  0
  9 13  1  0  0  0  0
 13 14  1  0  0  0  0
M  END
$$$$
JOH-MSK-a63-8
  -OEChem-03232022352D

 15 17  0     0  0  0  0  0  0999 V2000
   -1.6460   -0.5391    0.0000 C   0  0  0  0  0  0  0  0  0  0  0  0
   -0.6674   -0.7447    0.0000 O   0  0  0  0  0  0  0  0  0  0  0  0
    0.0000    0.0000    0.0000 C   0  0  0  0  0  0  0  0  0  0  0  0
   -0.3143    0.9606    0.0000 C   0  0  0  0  0  0  0  0  0  0  0  0
    0.3605    1.7075    0.0000 C   0  0  0  0  0  0  0  0  0  0  0  0
    1.3429    1.4971    0.0000 C   0  0  0  0  0  0  0  0  0  0  0  0
    2.1552    2.0893    0.0000 N   0  0  0  0  0  0  0  0  0  0  0  0
    2.9705    1.4970    0.0000 C   0  0  0  0  0  0  0  0  0  0  0  0
    2.6563    0.5419    0.0000 C   0  0  0  0  0  0  0  0  0  0  0  0
    1.6513    0.5386    0.0000 C   0  0  0  0  0  0  0  0  0  0  0  0
    0.9816   -0.2059    0.0000 C   0  0  0  0  0  0  0  0  0  0  0  0
    3.3258   -0.2052    0.0000 C   0  0  0  0  0  0  0  0  0  0  0  0
    4.3095    0.0013    0.0000 C   0  0  0  0  0  0  0  0  0  0  0  0
    4.6201    0.9615    0.0000 N   0  0  0  0  0  0  0  0  0  0  0  0
    3.9487    1.7045    0.0000 C   0  0  0  0  0  0  0  0  0  0  0  0
  1  2  1  0  0  0  0
  2  3  1  0  0  0  0
  3 11  2  0  0  0  0
  3  4  1  0  0  0  0
  4  5  2  0  0  0  0
  5  6  1  0  0  0  0
  6 10  2  0  0  0  0
  6  7  1  0  0  0  0
  7  8  1  0  0  0  0
  8 15  1  0  0  0  0
  8  9  2  0  0  0  0
  9 10  1  0  0  0  0
 10 11  1  0  0  0  0
  9 12  1  0  0  0  0
 12 13  1  0  0  0  0
 13 14  1  0  0  0  0
 14 15  1  0  0  0  0
M  END
$$$$
JOH-MSK-a63-9
  -OEChem-03232022352D

 15 16  0     0  0  0  0  0  0999 V2000
    5.2680   -2.6306    0.0000 C   0  0  0  0  0  0  0  0  0  0  0  0
    4.2899   -2.4226    0.0000 N   0  0  0  0  0  0  0  0  0  0  0  0
    3.6207   -3.1657    0.0000 C   0  0  0  0  0  0  0  0  0  0  0  0
    3.9809   -1.4715    0.0000 C   0  0  0  0  0  0  0  0  0  0  0  0
    3.0028   -1.2636    0.0000 C   0  0  0  0  0  0  0  0  0  0  0  0
    2.6938   -0.3125    0.0000 C   0  0  0  0  0  0  0  0  0  0  0  0
    3.2858    0.5023    0.0000 C   0  0  0  0  0  0  0  0  0  0  0  0
    2.6938    1.3169    0.0000 N   0  0  0  0  0  0  0  0  0  0  0  0
    1.7360    1.0058    0.0000 C   0  0  0  0  0  0  0  0  0  0  0  0
    0.8680    1.5138    0.0000 C   0  0  0  0  0  0  0  0  0  0  0  0
    0.0000    1.0058    0.0000 C   0  0  0  0  0  0  0  0  0  0  0  0
    0.0000    0.0000    0.0000 C   0  0  0  0  0  0  0  0  0  0  0  0
   -0.8653   -0.5013    0.0000 O   0  0  0  0  0  0  0  0  0  0  0  0
    0.8680   -0.4978    0.0000 C   0  0  0  0  0  0  0  0  0  0  0  0
    1.7360   -0.0012    0.0000 C   0  0  0  0  0  0  0  0  0  0  0  0
  1  2  1  0  0  0  0
  2  3  1  0  0  0  0
  2  4  1  0  0  0  0
  4  5  1  0  0  0  0
  5  6  1  0  0  0  0
  6 15  1  0  0  0  0
  6  7  2  0  0  0  0
  7  8  1  0  0  0  0
  8  9  1  0  0  0  0
  9 15  2  0  0  0  0
  9 10  1  0  0  0  0
 10 11  2  0  0  0  0
 11 12  1  0  0  0  0
 12 13  1  0  0  0  0
 12 14  2  0  0  0  0
 14 15  1  0  0  0  0
M  END
$$$$
JOH-MSK-a63-10
  -OEChem-03232022352D

 14 15  0     0  0  0  0  0  0999 V2000
    5.2680   -2.6306    0.0000 C   0  0  0  0  0  0  0  0  0  0  0  0
    4.2899   -2.4226    0.0000 N   0  0  0  0  0  0  0  0  0  0  0  0
    3.6207   -3.1657    0.0000 C   0  0  0  0  0  0  0  0  0  0  0  0
    3.9809   -1.4715    0.0000 C   0  0  0  0  0  0  0  0  0  0  0  0
    3.0028   -1.2636    0.0000 C   0  0  0  0  0  0  0  0  0  0  0  0
    2.6938   -0.3125    0.0000 C   0  0  0  0  0  0  0  0  0  0  0  0
    3.2858    0.5023    0.0000 C   0  0  0  0  0  0  0  0  0  0  0  0
    2.6938    1.3169    0.0000 N   0  0  0  0  0  0  0  0  0  0  0  0
    1.7360    1.0058    0.0000 C   0  0  0  0  0  0  0  0  0  0  0  0
    0.8680    1.5138    0.0000 C   0  0  0  0  0  0  0  0  0  0  0  0
    0.0000    1.0058    0.0000 C   0  0  0  0  0  0  0  0  0  0  0  0
    0.0000    0.0000    0.0000 C   0  0  0  0  0  0  0  0  0  0  0  0
    0.8680   -0.4978    0.0000 C   0  0  0  0  0  0  0  0  0  0  0  0
    1.7360   -0.0012    0.0000 C   0  0  0  0  0  0  0  0  0  0  0  0
  1  2  1  0  0  0  0
  2  3  1  0  0  0  0
  2  4  1  0  0  0  0
  4  5  1  0  0  0  0
  5  6  1  0  0  0  0
  6 14  1  0  0  0  0
  6  7  2  0  0  0  0
  7  8  1  0  0  0  0
  8  9  1  0  0  0  0
  9 14  2  0  0  0  0
  9 10  1  0  0  0  0
 10 11  2  0  0  0  0
 11 12  1  0  0  0  0
 12 13  2  0  0  0  0
 13 14  1  0  0  0  0
M  END
$$$$
DAN-LON-a5f-1
  -OEChem-03232022352D

 26 28  0     1  0  0  0  0  0999 V2000
    0.0015    3.0129    0.0000 O   0  0  0  0  0  0  0  0  0  0  0  0
    0.8675    2.5129    0.0000 C   0  0  0  0  0  0  0  0  0  0  0  0
    1.7335    3.0129    0.0000 C   0  0  0  0  0  0  0  0  0  0  0  0
    1.7335    4.0129    0.0000 Cl  0  0  0  0  0  0  0  0  0  0  0  0
    0.8675    1.5129    0.0000 N   0  0  0  0  0  0  0  0  0  0  0  0
    0.0000    1.0052    0.0000 C   0  0  0  0  0  0  0  0  0  0  0  0
    0.0000    0.0000    0.0000 C   0  0  0  0  0  0  0  0  0  0  0  0
    0.8675   -0.4975    0.0000 N   0  0  3  0  0  0  0  0  0  0  0  0
    0.8675   -1.4975    0.0000 C   0  0  0  0  0  0  0  0  0  0  0  0
    1.7335   -1.9975    0.0000 C   0  0  0  0  0  0  0  0  0  0  0  0
    1.7306   -3.0027    0.0000 C   0  0  0  0  0  0  0  0  0  0  0  0
    2.5966   -3.5028    0.0000 C   0  0  0  0  0  0  0  0  0  0  0  0
    3.4656   -3.0078    0.0000 C   0  0  0  0  0  0  0  0  0  0  0  0
    3.4685   -2.0026    0.0000 C   0  0  0  0  0  0  0  0  0  0  0  0
    4.3375   -1.5077    0.0000 Cl  0  0  0  0  0  0  0  0  0  0  0  0
    2.6025   -1.4924    0.0000 C   0  0  0  0  0  0  0  0  0  0  0  0
    1.7350    0.0000    0.0000 C   0  0  0  0  0  0  0  0  0  0  0  0
    1.7350    1.0052    0.0000 C   0  0  2  0  0  0  0  0  0  0  0  0
    2.0807    1.9435    0.0000 H   0  0  0  0  0  0  0  0  0  0  0  0
    2.7195    0.8296    0.0000 C   0  0  0  0  0  0  0  0  0  0  0  0
    3.3638    1.5944    0.0000 C   0  0  0  0  0  0  0  0  0  0  0  0
    3.0190    2.5386    0.0000 C   0  0  0  0  0  0  0  0  0  0  0  0
    3.6633    3.3035    0.0000 C   0  0  0  0  0  0  0  0  0  0  0  0
    4.6488    3.1336    0.0000 C   0  0  0  0  0  0  0  0  0  0  0  0
    4.9935    2.1894    0.0000 C   0  0  0  0  0  0  0  0  0  0  0  0
    4.3528    1.4150    0.0000 C   0  0  0  0  0  0  0  0  0  0  0  0
  1  2  2  0  0  0  0
  2  3  1  0  0  0  0
  3  4  1  0  0  0  0
  2  5  1  0  0  0  0
  5 18  1  0  0  0  0
  5  6  1  0  0  0  0
  6  7  1  0  0  0  0
  7  8  1  0  0  0  0
  8  9  1  0  0  0  0
  9 10  1  0  0  0  0
 10 16  2  0  0  0  0
 10 11  1  0  0  0  0
 11 12  2  0  0  0  0
 12 13  1  0  0  0  0
 13 14  2  0  0  0  0
 14 15  1  0  0  0  0
 14 16  1  0  0  0  0
  8 17  1  0  0  0  0
 17 18  1  0  0  0  0
 18 19  1  6  0  0  0
 18 20  1  0  0  0  0
 20 21  1  0  0  0  0
 21 26  2  0  0  0  0
 21 22  1  0  0  0  0
 22 23  2  0  0  0  0
 23 24  1  0  0  0  0
 24 25  2  0  0  0  0
 25 26  1  0  0  0  0
M  END
$$$$
DAN-LON-a5f-2
  -OEChem-03232022352D

 23 25  0     1  0  0  0  0  0999 V2000
    1.7335   -3.0027    0.0000 O   0  0  0  0  0  0  0  0  0  0  0  0
    0.8675   -2.5027    0.0000 C   0  0  0  0  0  0  0  0  0  0  0  0
    0.0015   -3.0027    0.0000 C   0  0  0  0  0  0  0  0  0  0  0  0
    0.0015   -4.0027    0.0000 Cl  0  0  0  0  0  0  0  0  0  0  0  0
    0.8675   -1.5027    0.0000 N   0  0  0  0  0  0  0  0  0  0  0  0
    0.0000   -1.0052    0.0000 C   0  0  0  0  0  0  0  0  0  0  0  0
    0.0000    0.0000    0.0000 C   0  0  0  0  0  0  0  0  0  0  0  0
    0.8675    0.5077    0.0000 N   0  0  3  0  0  0  0  0  0  0  0  0
    0.8675    1.5077    0.0000 C   0  0  0  0  0  0  0  0  0  0  0  0
    0.0015    2.0077    0.0000 C   0  0  0  0  0  0  0  0  0  0  0  0
    0.0044    3.0129    0.0000 C   0  0  0  0  0  0  0  0  0  0  0  0
   -0.8616    3.5130    0.0000 C   0  0  0  0  0  0  0  0  0  0  0  0
   -1.7306    3.0180    0.0000 C   0  0  0  0  0  0  0  0  0  0  0  0
   -1.7335    2.0128    0.0000 C   0  0  0  0  0  0  0  0  0  0  0  0
   -2.6025    1.5179    0.0000 Cl  0  0  0  0  0  0  0  0  0  0  0  0
   -0.8675    1.5026    0.0000 C   0  0  0  0  0  0  0  0  0  0  0  0
    1.7350   -0.0000    0.0000 C   0  0  3  0  0  0  0  0  0  0  0  0
    2.6025    0.4974    0.0000 C   0  0  0  0  0  0  0  0  0  0  0  0
    2.7111    1.4932    0.0000 C   0  0  0  0  0  0  0  0  0  0  0  0
    3.6910    1.6999    0.0000 C   0  0  0  0  0  0  0  0  0  0  0  0
    4.1874    0.8318    0.0000 C   0  0  0  0  0  0  0  0  0  0  0  0
    3.5195    0.0870    0.0000 S   0  0  0  0  0  0  0  0  0  0  0  0
    1.7350   -1.0052    0.0000 C   0  0  0  0  0  0  0  0  0  0  0  0
  1  2  2  0  0  0  0
  2  3  1  0  0  0  0
  3  4  1  0  0  0  0
  2  5  1  0  0  0  0
  5 23  1  0  0  0  0
  5  6  1  0  0  0  0
  6  7  1  0  0  0  0
  7  8  1  0  0  0  0
  8  9  1  0  0  0  0
  9 10  1  0  0  0  0
 10 16  2  0  0  0  0
 10 11  1  0  0  0  0
 11 12  2  0  0  0  0
 12 13  1  0  0  0  0
 13 14  2  0  0  0  0
 14 15  1  0  0  0  0
 14 16  1  0  0  0  0
  8 17  1  0  0  0  0
 17 18  1  0  0  0  0
 18 22  1  0  0  0  0
 18 19  2  0  0  0  0
 19 20  1  0  0  0  0
 20 21  2  0  0  0  0
 21 22  1  0  0  0  0
 17 23  1  0  0  0  0
M  END
$$$$
DAN-LON-a5f-3
  -OEChem-03232022352D

 19 21  0     1  0  0  0  0  0999 V2000
    1.7320    0.0038    0.0000 O   0  0  0  0  0  0  0  0  0  0  0  0
    0.8671   -0.4981    0.0000 C   0  0  0  0  0  0  0  0  0  0  0  0
    0.8693   -1.4981    0.0000 C   0  0  0  0  0  0  0  0  0  0  0  0
    1.7364   -1.9962    0.0000 Cl  0  0  0  0  0  0  0  0  0  0  0  0
    0.0000    0.0000    0.0000 N   0  0  0  0  0  0  0  0  0  0  0  0
    0.0000    1.0180    0.0000 C   0  0  0  0  0  0  0  0  0  0  0  0
   -0.8786    1.5322    0.0000 C   0  0  3  0  0  0  0  0  0  0  0  0
   -0.4473    0.4988    0.0000 C   0  0  0  0  0  0  0  0  0  0  0  0
   -0.8638   -0.5038    0.0000 C   0  0  3  0  0  0  0  0  0  0  0  0
   -1.7572    0.0000    0.0000 C   0  0  0  0  0  0  0  0  0  0  0  0
   -1.7572    1.0180    0.0000 N   0  0  3  0  0  0  0  0  0  0  0  0
   -2.6247    1.5154    0.0000 C   0  0  0  0  0  0  0  0  0  0  0  0
   -3.4892    1.0129    0.0000 C   0  0  0  0  0  0  0  0  0  0  0  0
   -4.3598    1.5155    0.0000 C   0  0  0  0  0  0  0  0  0  0  0  0
   -5.2244    1.0130    0.0000 C   0  0  0  0  0  0  0  0  0  0  0  0
   -5.2273    0.0129    0.0000 C   0  0  0  0  0  0  0  0  0  0  0  0
   -4.3567   -0.4897    0.0000 C   0  0  0  0  0  0  0  0  0  0  0  0
   -4.3597   -1.4897    0.0000 Cl  0  0  0  0  0  0  0  0  0  0  0  0
   -3.4833    0.0078    0.0000 C   0  0  0  0  0  0  0  0  0  0  0  0
  1  2  2  0  0  0  0
  2  3  1  0  0  0  0
  3  4  1  0  0  0  0
  2  5  1  0  0  0  0
  5  9  1  0  0  0  0
  5  6  1  0  0  0  0
  6  7  1  0  0  0  0
  7 11  1  0  0  0  0
  7  8  1  0  0  0  0
  8  9  1  0  0  0  0
  9 10  1  0  0  0  0
 10 11  1  0  0  0  0
 11 12  1  0  0  0  0
 12 13  1  0  0  0  0
 13 19  2  0  0  0  0
 13 14  1  0  0  0  0
 14 15  2  0  0  0  0
 15 16  1  0  0  0  0
 16 17  2  0  0  0  0
 17 18  1  0  0  0  0
 17 19  1  0  0  0  0
M  END
$$$$
DAN-LON-a5f-4
  -OEChem-03232022352D

 26 27  0     1  0  0  0  0  0999 V2000
    3.2936   -0.4619    0.0000 C   0  0  0  0  0  0  0  0  0  0  0  0
    2.3091   -0.2863    0.0000 C   0  0  0  0  0  0  0  0  0  0  0  0
    2.4847    0.6981    0.0000 C   0  0  0  0  0  0  0  0  0  0  0  0
    2.1335   -1.2708    0.0000 C   0  0  0  0  0  0  0  0  0  0  0  0
    1.3246   -0.1107    0.0000 N   0  0  0  0  0  0  0  0  0  0  0  0
    0.9845    0.8296    0.0000 C   0  0  0  0  0  0  0  0  0  0  0  0
    1.6288    1.5944    0.0000 O   0  0  0  0  0  0  0  0  0  0  0  0
    0.0000    1.0052    0.0000 C   0  0  2  0  0  0  0  0  0  0  0  0
    0.3457    1.9435    0.0000 H   0  0  0  0  0  0  0  0  0  0  0  0
    0.0000    0.0000    0.0000 C   0  0  0  0  0  0  0  0  0  0  0  0
   -0.8675   -0.4975    0.0000 N   0  0  0  0  0  0  0  0  0  0  0  0
   -0.8675   -1.4975    0.0000 C   0  0  0  0  0  0  0  0  0  0  0  0
   -1.7335   -1.9975    0.0000 O   0  0  0  0  0  0  0  0  0  0  0  0
   -0.0015   -1.9975    0.0000 C   0  0  0  0  0  0  0  0  0  0  0  0
   -0.0015   -2.9975    0.0000 Cl  0  0  0  0  0  0  0  0  0  0  0  0
   -1.7350    0.0000    0.0000 C   0  0  0  0  0  0  0  0  0  0  0  0
   -1.7350    1.0052    0.0000 C   0  0  0  0  0  0  0  0  0  0  0  0
   -0.8675    1.5129    0.0000 N   0  0  3  0  0  0  0  0  0  0  0  0
   -0.8675    2.5129    0.0000 C   0  0  0  0  0  0  0  0  0  0  0  0
   -1.7335    3.0129    0.0000 C   0  0  0  0  0  0  0  0  0  0  0  0
   -1.7306    4.0181    0.0000 C   0  0  0  0  0  0  0  0  0  0  0  0
   -2.5966    4.5182    0.0000 C   0  0  0  0  0  0  0  0  0  0  0  0
   -3.4656    4.0232    0.0000 C   0  0  0  0  0  0  0  0  0  0  0  0
   -3.4685    3.0180    0.0000 C   0  0  0  0  0  0  0  0  0  0  0  0
   -4.3375    2.5231    0.0000 Cl  0  0  0  0  0  0  0  0  0  0  0  0
   -2.6025    2.5078    0.0000 C   0  0  0  0  0  0  0  0  0  0  0  0
  1  2  1  0  0  0  0
  2  3  1  0  0  0  0
  2  4  1  0  0  0  0
  2  5  1  0  0  0  0
  5  6  1  0  0  0  0
  6  7  2  0  0  0  0
  6  8  1  0  0  0  0
  8  9  1  1  0  0  0
  8 18  1  0  0  0  0
  8 10  1  0  0  0  0
 10 11  1  0  0  0  0
 11 12  1  0  0  0  0
 12 13  2  0  0  0  0
 12 14  1  0  0  0  0
 14 15  1  0  0  0  0
 11 16  1  0  0  0  0
 16 17  1  0  0  0  0
 17 18  1  0  0  0  0
 18 19  1  0  0  0  0
 19 20  1  0  0  0  0
 20 26  2  0  0  0  0
 20 21  1  0  0  0  0
 21 22  2  0  0  0  0
 22 23  1  0  0  0  0
 23 24  2  0  0  0  0
 24 25  1  0  0  0  0
 24 26  1  0  0  0  0
M  END
$$$$
DAN-LON-a5f-5
  -OEChem-03232022352D

 25 27  0     1  0  0  0  0  0999 V2000
    1.7335   -3.0027    0.0000 O   0  0  0  0  0  0  0  0  0  0  0  0
    0.8675   -2.5027    0.0000 C   0  0  0  0  0  0  0  0  0  0  0  0
    0.0015   -3.0027    0.0000 C   0  0  0  0  0  0  0  0  0  0  0  0
    0.0015   -4.0027    0.0000 Cl  0  0  0  0  0  0  0  0  0  0  0  0
    0.8675   -1.5027    0.0000 N   0  0  0  0  0  0  0  0  0  0  0  0
    0.0000   -1.0052    0.0000 C   0  0  0  0  0  0  0  0  0  0  0  0
    0.0000    0.0000    0.0000 C   0  0  0  0  0  0  0  0  0  0  0  0
    0.8675    0.5077    0.0000 N   0  0  3  0  0  0  0  0  0  0  0  0
    0.8675    1.5077    0.0000 C   0  0  0  0  0  0  0  0  0  0  0  0
    0.0015    2.0077    0.0000 C   0  0  0  0  0  0  0  0  0  0  0  0
    0.0044    3.0129    0.0000 C   0  0  0  0  0  0  0  0  0  0  0  0
   -0.8616    3.5130    0.0000 C   0  0  0  0  0  0  0  0  0  0  0  0
   -1.7306    3.0180    0.0000 C   0  0  0  0  0  0  0  0  0  0  0  0
   -1.7335    2.0128    0.0000 C   0  0  0  0  0  0  0  0  0  0  0  0
   -2.6025    1.5179    0.0000 Cl  0  0  0  0  0  0  0  0  0  0  0  0
   -0.8675    1.5026    0.0000 C   0  0  0  0  0  0  0  0  0  0  0  0
    1.7350   -0.0000    0.0000 C   0  0  3  0  0  0  0  0  0  0  0  0
    2.6025    0.4974    0.0000 C   0  0  0  0  0  0  0  0  0  0  0  0
    2.6025    1.5026    0.0000 C   0  0  0  0  0  0  0  0  0  0  0  0
    3.4700    2.0001    0.0000 C   0  0  0  0  0  0  0  0  0  0  0  0
    4.3375    1.5026    0.0000 C   0  0  0  0  0  0  0  0  0  0  0  0
    5.2028    2.0039    0.0000 Cl  0  0  0  0  0  0  0  0  0  0  0  0
    4.3375    0.4974    0.0000 C   0  0  0  0  0  0  0  0  0  0  0  0
    3.4700   -0.0103    0.0000 C   0  0  0  0  0  0  0  0  0  0  0  0
    1.7350   -1.0052    0.0000 C   0  0  0  0  0  0  0  0  0  0  0  0
  1  2  2  0  0  0  0
  2  3  1  0  0  0  0
  3  4  1  0  0  0  0
  2  5  1  0  0  0  0
  5 25  1  0  0  0  0
  5  6  1  0  0  0  0
  6  7  1  0  0  0  0
  7  8  1  0  0  0  0
  8  9  1  0  0  0  0
  9 10  1  0  0  0  0
 10 16  2  0  0  0  0
 10 11  1  0  0  0  0
 11 12  2  0  0  0  0
 12 13  1  0  0  0  0
 13 14  2  0  0  0  0
 14 15  1  0  0  0  0
 14 16  1  0  0  0  0
  8 17  1  0  0  0  0
 17 18  1  0  0  0  0
 18 24  2  0  0  0  0
 18 19  1  0  0  0  0
 19 20  2  0  0  0  0
 20 21  1  0  0  0  0
 21 22  1  0  0  0  0
 21 23  2  0  0  0  0
 23 24  1  0  0  0  0
 17 25  1  0  0  0  0
M  END
$$$$
DAN-LON-a5f-6
  -OEChem-03232022352D

 24 26  0     1  0  0  0  0  0999 V2000
    0.0015    3.0129    0.0000 O   0  0  0  0  0  0  0  0  0  0  0  0
    0.8675    2.5129    0.0000 C   0  0  0  0  0  0  0  0  0  0  0  0
    1.7335    3.0129    0.0000 C   0  0  0  0  0  0  0  0  0  0  0  0
    1.7335    4.0129    0.0000 Cl  0  0  0  0  0  0  0  0  0  0  0  0
    0.8675    1.5129    0.0000 N   0  0  0  0  0  0  0  0  0  0  0  0
    0.0000    1.0052    0.0000 C   0  0  0  0  0  0  0  0  0  0  0  0
    0.0000    0.0000    0.0000 C   0  0  0  0  0  0  0  0  0  0  0  0
    0.8675   -0.4975    0.0000 N   0  0  3  0  0  0  0  0  0  0  0  0
    0.8675   -1.4975    0.0000 C   0  0  0  0  0  0  0  0  0  0  0  0
    1.7335   -1.9975    0.0000 C   0  0  0  0  0  0  0  0  0  0  0  0
    1.7306   -3.0027    0.0000 C   0  0  0  0  0  0  0  0  0  0  0  0
    2.5966   -3.5028    0.0000 C   0  0  0  0  0  0  0  0  0  0  0  0
    3.4656   -3.0078    0.0000 C   0  0  0  0  0  0  0  0  0  0  0  0
    3.4685   -2.0026    0.0000 C   0  0  0  0  0  0  0  0  0  0  0  0
    4.3375   -1.5077    0.0000 Cl  0  0  0  0  0  0  0  0  0  0  0  0
    2.6025   -1.4924    0.0000 C   0  0  0  0  0  0  0  0  0  0  0  0
    1.7350    0.0000    0.0000 C   0  0  0  0  0  0  0  0  0  0  0  0
    1.7350    1.0052    0.0000 C   0  0  3  0  0  0  0  0  0  0  0  0
    2.6025    1.5026    0.0000 C   0  0  0  0  0  0  0  0  0  0  0  0
    2.6025    2.5078    0.0000 C   0  0  0  0  0  0  0  0  0  0  0  0
    3.4700    3.0053    0.0000 C   0  0  0  0  0  0  0  0  0  0  0  0
    4.3375    2.5078    0.0000 C   0  0  0  0  0  0  0  0  0  0  0  0
    4.3375    1.5026    0.0000 C   0  0  0  0  0  0  0  0  0  0  0  0
    3.4700    0.9949    0.0000 C   0  0  0  0  0  0  0  0  0  0  0  0
  1  2  2  0  0  0  0
  2  3  1  0  0  0  0
  3  4  1  0  0  0  0
  2  5  1  0  0  0  0
  5 18  1  0  0  0  0
  5  6  1  0  0  0  0
  6  7  1  0  0  0  0
  7  8  1  0  0  0  0
  8  9  1  0  0  0  0
  9 10  1  0  0  0  0
 10 16  2  0  0  0  0
 10 11  1  0  0  0  0
 11 12  2  0  0  0  0
 12 13  1  0  0  0  0
 13 14  2  0  0  0  0
 14 15  1  0  0  0  0
 14 16  1  0  0  0  0
  8 17  1  0  0  0  0
 17 18  1  0  0  0  0
 18 19  1  0  0  0  0
 19 24  2  0  0  0  0
 19 20  1  0  0  0  0
 20 21  2  0  0  0  0
 21 22  1  0  0  0  0
 22 23  2  0  0  0  0
 23 24  1  0  0  0  0
M  END
$$$$
DAN-LON-a5f-7
  -OEChem-03232022352D

 22 23  0     1  0  0  0  0  0999 V2000
    1.6288    1.5944    0.0000 C   0  0  0  0  0  0  0  0  0  0  0  0
    0.9845    0.8296    0.0000 C   0  0  0  0  0  0  0  0  0  0  0  0
    1.3246   -0.1107    0.0000 C   0  0  0  0  0  0  0  0  0  0  0  0
    0.0000    1.0052    0.0000 C   0  0  2  0  0  0  0  0  0  0  0  0
    0.3457    1.9435    0.0000 H   0  0  0  0  0  0  0  0  0  0  0  0
    0.0000    0.0000    0.0000 C   0  0  0  0  0  0  0  0  0  0  0  0
   -0.8675   -0.4975    0.0000 N   0  0  3  0  0  0  0  0  0  0  0  0
   -0.8675   -1.4975    0.0000 C   0  0  0  0  0  0  0  0  0  0  0  0
   -0.0015   -1.9975    0.0000 C   0  0  0  0  0  0  0  0  0  0  0  0
   -0.0044   -3.0027    0.0000 C   0  0  0  0  0  0  0  0  0  0  0  0
    0.8616   -3.5028    0.0000 C   0  0  0  0  0  0  0  0  0  0  0  0
    1.7306   -3.0078    0.0000 C   0  0  0  0  0  0  0  0  0  0  0  0
    1.7335   -2.0026    0.0000 C   0  0  0  0  0  0  0  0  0  0  0  0
    2.6025   -1.5077    0.0000 Cl  0  0  0  0  0  0  0  0  0  0  0  0
    0.8675   -1.4924    0.0000 C   0  0  0  0  0  0  0  0  0  0  0  0
   -1.7350    0.0000    0.0000 C   0  0  0  0  0  0  0  0  0  0  0  0
   -1.7350    1.0052    0.0000 C   0  0  0  0  0  0  0  0  0  0  0  0
   -0.8675    1.5129    0.0000 N   0  0  0  0  0  0  0  0  0  0  0  0
   -0.8675    2.5129    0.0000 C   0  0  0  0  0  0  0  0  0  0  0  0
   -0.0015    3.0129    0.0000 O   0  0  0  0  0  0  0  0  0  0  0  0
   -1.7335    3.0129    0.0000 C   0  0  0  0  0  0  0  0  0  0  0  0
   -1.7335    4.0129    0.0000 Cl  0  0  0  0  0  0  0  0  0  0  0  0
  1  2  1  0  0  0  0
  2  3  1  0  0  0  0
  2  4  1  0  0  0  0
  4  5  1  1  0  0  0
  4 18  1  0  0  0  0
  4  6  1  0  0  0  0
  6  7  1  0  0  0  0
  7  8  1  0  0  0  0
  8  9  1  0  0  0  0
  9 15  2  0  0  0  0
  9 10  1  0  0  0  0
 10 11  2  0  0  0  0
 11 12  1  0  0  0  0
 12 13  2  0  0  0  0
 13 14  1  0  0  0  0
 13 15  1  0  0  0  0
  7 16  1  0  0  0  0
 16 17  1  0  0  0  0
 17 18  1  0  0  0  0
 18 19  1  0  0  0  0
 19 20  2  0  0  0  0
 19 21  1  0  0  0  0
 21 22  1  0  0  0  0
M  END
$$$$
DAN-LON-a5f-8
  -OEChem-03232022352D

 23 24  0     1  0  0  0  0  0999 V2000
    1.6769    3.0517    0.0000 C   0  0  0  0  0  0  0  0  0  0  0  0
    1.3312    2.1133    0.0000 C   0  0  0  0  0  0  0  0  0  0  0  0
    1.9710    1.3447    0.0000 C   0  0  0  0  0  0  0  0  0  0  0  0
    0.3457    1.9435    0.0000 C   0  0  0  0  0  0  0  0  0  0  0  0
    0.0000    1.0052    0.0000 C   0  0  2  0  0  0  0  0  0  0  0  0
    0.9845    0.8296    0.0000 H   0  0  0  0  0  0  0  0  0  0  0  0
    0.0000    0.0000    0.0000 C   0  0  0  0  0  0  0  0  0  0  0  0
   -0.8675   -0.4975    0.0000 N   0  0  0  0  0  0  0  0  0  0  0  0
   -0.8675   -1.4975    0.0000 C   0  0  0  0  0  0  0  0  0  0  0  0
   -1.7335   -1.9975    0.0000 O   0  0  0  0  0  0  0  0  0  0  0  0
   -0.0015   -1.9975    0.0000 C   0  0  0  0  0  0  0  0  0  0  0  0
   -0.0015   -2.9975    0.0000 Cl  0  0  0  0  0  0  0  0  0  0  0  0
   -1.7350    0.0000    0.0000 C   0  0  0  0  0  0  0  0  0  0  0  0
   -1.7350    1.0052    0.0000 C   0  0  0  0  0  0  0  0  0  0  0  0
   -0.8675    1.5129    0.0000 N   0  0  3  0  0  0  0  0  0  0  0  0
   -0.8675    2.5129    0.0000 C   0  0  0  0  0  0  0  0  0  0  0  0
   -1.7335    3.0129    0.0000 C   0  0  0  0  0  0  0  0  0  0  0  0
   -1.7306    4.0181    0.0000 C   0  0  0  0  0  0  0  0  0  0  0  0
   -2.5966    4.5182    0.0000 C   0  0  0  0  0  0  0  0  0  0  0  0
   -3.4656    4.0232    0.0000 C   0  0  0  0  0  0  0  0  0  0  0  0
   -3.4685    3.0180    0.0000 C   0  0  0  0  0  0  0  0  0  0  0  0
   -4.3375    2.5231    0.0000 Cl  0  0  0  0  0  0  0  0  0  0  0  0
   -2.6025    2.5078    0.0000 C   0  0  0  0  0  0  0  0  0  0  0  0
  1  2  1  0  0  0  0
  2  3  1  0  0  0  0
  2  4  1  0  0  0  0
  4  5  1  0  0  0  0
  5  6  1  1  0  0  0
  5 15  1  0  0  0  0
  5  7  1  0  0  0  0
  7  8  1  0  0  0  0
  8  9  1  0  0  0  0
  9 10  2  0  0  0  0
  9 11  1  0  0  0  0
 11 12  1  0  0  0  0
  8 13  1  0  0  0  0
 13 14  1  0  0  0  0
 14 15  1  0  0  0  0
 15 16  1  0  0  0  0
 16 17  1  0  0  0  0
 17 23  2  0  0  0  0
 17 18  1  0  0  0  0
 18 19  2  0  0  0  0
 19 20  1  0  0  0  0
 20 21  2  0  0  0  0
 21 22  1  0  0  0  0
 21 23  1  0  0  0  0
M  END
$$$$
DAN-LON-a5f-9
  -OEChem-03232022352D

 20 21  0     1  0  0  0  0  0999 V2000
    0.3457    1.9435    0.0000 C   0  0  0  0  0  0  0  0  0  0  0  0
    0.0000    1.0052    0.0000 C   0  0  0  0  0  0  0  0  0  0  0  0
    0.9845    0.8296    0.0000 C   0  0  0  0  0  0  0  0  0  0  0  0
    0.0000    0.0000    0.0000 C   0  0  0  0  0  0  0  0  0  0  0  0
   -0.8675   -0.4975    0.0000 N   0  0  0  0  0  0  0  0  0  0  0  0
   -0.8675   -1.4975    0.0000 C   0  0  0  0  0  0  0  0  0  0  0  0
   -1.7335   -1.9975    0.0000 O   0  0  0  0  0  0  0  0  0  0  0  0
   -0.0015   -1.9975    0.0000 C   0  0  0  0  0  0  0  0  0  0  0  0
   -0.0015   -2.9975    0.0000 Cl  0  0  0  0  0  0  0  0  0  0  0  0
   -1.7350    0.0000    0.0000 C   0  0  0  0  0  0  0  0  0  0  0  0
   -1.7350    1.0052    0.0000 C   0  0  0  0  0  0  0  0  0  0  0  0
   -0.8675    1.5129    0.0000 N   0  0  3  0  0  0  0  0  0  0  0  0
   -0.8675    2.5129    0.0000 C   0  0  0  0  0  0  0  0  0  0  0  0
   -1.7335    3.0129    0.0000 C   0  0  0  0  0  0  0  0  0  0  0  0
   -1.7306    4.0181    0.0000 C   0  0  0  0  0  0  0  0  0  0  0  0
   -2.5966    4.5182    0.0000 C   0  0  0  0  0  0  0  0  0  0  0  0
   -3.4656    4.0232    0.0000 C   0  0  0  0  0  0  0  0  0  0  0  0
   -3.4685    3.0180    0.0000 C   0  0  0  0  0  0  0  0  0  0  0  0
   -4.3375    2.5231    0.0000 Cl  0  0  0  0  0  0  0  0  0  0  0  0
   -2.6025    2.5078    0.0000 C   0  0  0  0  0  0  0  0  0  0  0  0
  1  2  1  0  0  0  0
  2 12  1  0  0  0  0
  2  3  1  0  0  0  0
  2  4  1  0  0  0  0
  4  5  1  0  0  0  0
  5  6  1  0  0  0  0
  6  7  2  0  0  0  0
  6  8  1  0  0  0  0
  8  9  1  0  0  0  0
  5 10  1  0  0  0  0
 10 11  1  0  0  0  0
 11 12  1  0  0  0  0
 12 13  1  0  0  0  0
 13 14  1  0  0  0  0
 14 20  2  0  0  0  0
 14 15  1  0  0  0  0
 15 16  2  0  0  0  0
 16 17  1  0  0  0  0
 17 18  2  0  0  0  0
 18 19  1  0  0  0  0
 18 20  1  0  0  0  0
M  END
$$$$
DAN-LON-a5f-10
  -OEChem-03232022352D

 21 22  0     1  0  0  0  0  0999 V2000
    1.7320    1.0001    0.0000 N   0  0  0  0  0  0  0  0  0  0  0  0
    0.8675    1.5026    0.0000 C   0  0  0  0  0  0  0  0  0  0  0  0
    0.8704    2.5026    0.0000 O   0  0  0  0  0  0  0  0  0  0  0  0
    0.0000    1.0052    0.0000 C   0  0  3  0  0  0  0  0  0  0  0  0
    0.0000    0.0000    0.0000 C   0  0  0  0  0  0  0  0  0  0  0  0
   -0.8675   -0.4975    0.0000 N   0  0  0  0  0  0  0  0  0  0  0  0
   -0.8675   -1.4975    0.0000 C   0  0  0  0  0  0  0  0  0  0  0  0
   -1.7335   -1.9975    0.0000 O   0  0  0  0  0  0  0  0  0  0  0  0
   -0.0015   -1.9975    0.0000 C   0  0  0  0  0  0  0  0  0  0  0  0
   -0.0015   -2.9975    0.0000 Cl  0  0  0  0  0  0  0  0  0  0  0  0
   -1.7350    0.0000    0.0000 C   0  0  0  0  0  0  0  0  0  0  0  0
   -1.7350    1.0052    0.0000 C   0  0  0  0  0  0  0  0  0  0  0  0
   -0.8675    1.5129    0.0000 N   0  0  3  0  0  0  0  0  0  0  0  0
   -0.8675    2.5129    0.0000 C   0  0  0  0  0  0  0  0  0  0  0  0
   -1.7335    3.0129    0.0000 C   0  0  0  0  0  0  0  0  0  0  0  0
   -1.7306    4.0181    0.0000 C   0  0  0  0  0  0  0  0  0  0  0  0
   -2.5966    4.5182    0.0000 C   0  0  0  0  0  0  0  0  0  0  0  0
   -3.4656    4.0232    0.0000 C   0  0  0  0  0  0  0  0  0  0  0  0
   -3.4685    3.0180    0.0000 C   0  0  0  0  0  0  0  0  0  0  0  0
   -4.3375    2.5231    0.0000 Cl  0  0  0  0  0  0  0  0  0  0  0  0
   -2.6025    2.5078    0.0000 C   0  0  0  0  0  0  0  0  0  0  0  0
  1  2  1  0  0  0  0
  2  3  2  0  0  0  0
  2  4  1  0  0  0  0
  4 13  1  0  0  0  0
  4  5  1  0  0  0  0
  5  6  1  0  0  0  0
  6  7  1  0  0  0  0
  7  8  2  0  0  0  0
  7  9  1  0  0  0  0
  9 10  1  0  0  0  0
  6 11  1  0  0  0  0
 11 12  1  0  0  0  0
 12 13  1  0  0  0  0
 13 14  1  0  0  0  0
 14 15  1  0  0  0  0
 15 21  2  0  0  0  0
 15 16  1  0  0  0  0
 16 17  2  0  0  0  0
 17 18  1  0  0  0  0
 18 19  2  0  0  0  0
 19 20  1  0  0  0  0
 19 21  1  0  0  0  0
M  END
$$$$
SAL-INS-a5f-1
  -OEChem-03232022352D

 36 36  0     1  0  0  0  0  0999 V2000
    3.6834   -3.3358    0.0000 N   0  0  0  0  0  0  0  0  0  0  0  0
    4.6834   -3.3387    0.0000 C   0  0  0  0  0  0  0  0  0  0  0  0
    5.1808   -4.2062    0.0000 N   0  0  0  0  0  0  0  0  0  0  0  0
    5.1859   -2.4742    0.0000 N   0  0  0  0  0  0  0  0  0  0  0  0
    4.6885   -1.6067    0.0000 C   0  0  0  0  0  0  0  0  0  0  0  0
    5.1910   -0.7421    0.0000 C   0  0  0  0  0  0  0  0  0  0  0  0
    4.6936    0.1254    0.0000 C   0  0  0  0  0  0  0  0  0  0  0  0
    5.1961    0.9899    0.0000 C   0  0  2  0  0  0  0  0  0  0  0  0
    6.0607    0.4874    0.0000 H   0  0  0  0  0  0  0  0  0  0  0  0
    4.3316    1.4925    0.0000 N   0  0  0  0  0  0  0  0  0  0  0  0
    3.4641    0.9950    0.0000 C   0  0  0  0  0  0  0  0  0  0  0  0
    3.4611   -0.0050    0.0000 O   0  0  0  0  0  0  0  0  0  0  0  0
    2.5995    1.4976    0.0000 C   0  0  2  0  0  0  0  0  0  0  0  0
    2.0970    0.6330    0.0000 H   0  0  0  0  0  0  0  0  0  0  0  0
    1.7350    2.0001    0.0000 C   0  0  0  0  0  0  0  0  0  0  0  0
    0.8675    1.5027    0.0000 C   0  0  0  0  0  0  0  0  0  0  0  0
    0.8675    0.4975    0.0000 C   0  0  0  0  0  0  0  0  0  0  0  0
    0.0000    0.0000    0.0000 C   0  0  0  0  0  0  0  0  0  0  0  0
   -0.8675    0.4975    0.0000 C   0  0  0  0  0  0  0  0  0  0  0  0
   -0.8675    1.5027    0.0000 C   0  0  0  0  0  0  0  0  0  0  0  0
    0.0000    2.0104    0.0000 C   0  0  0  0  0  0  0  0  0  0  0  0
    3.1021    2.3621    0.0000 N   0  0  0  0  0  0  0  0  0  0  0  0
    2.6047    3.2296    0.0000 C   0  0  0  0  0  0  0  0  0  0  0  0
    1.6047    3.2326    0.0000 O   0  0  0  0  0  0  0  0  0  0  0  0
    3.1072    4.0942    0.0000 C   0  0  0  0  0  0  0  0  0  0  0  0
    2.6098    4.9617    0.0000 N   0  0  0  0  0  0  0  0  0  0  0  0
    3.1123    5.8262    0.0000 C   0  0  0  0  0  0  0  0  0  0  0  0
    4.1123    5.8233    0.0000 O   0  0  0  0  0  0  0  0  0  0  0  0
    2.6149    6.6937    0.0000 C   0  0  1  0  0  0  0  0  0  0  0  0
    1.7474    6.1963    0.0000 H   0  0  0  0  0  0  0  0  0  0  0  0
    3.4824    7.1912    0.0000 N   0  0  0  0  0  0  0  0  0  0  0  0
    2.1174    7.5612    0.0000 C   0  0  0  0  0  0  0  0  0  0  0  0
    1.1174    7.5642    0.0000 O   0  0  0  0  0  0  0  0  0  0  0  0
    5.6987    1.8545    0.0000 C   0  0  0  0  0  0  0  0  0  0  0  0
    5.2012    2.7220    0.0000 O   0  0  0  0  0  0  0  0  0  0  0  0
    6.6987    1.8515    0.0000 O   0  0  0  0  0  0  0  0  0  0  0  0
  1  2  2  0  0  0  0
  2  3  1  0  0  0  0
  2  4  1  0  0  0  0
  4  5  1  0  0  0  0
  5  6  1  0  0  0  0
  6  7  1  0  0  0  0
  7  8  1  0  0  0  0
  8  9  1  1  0  0  0
  8 10  1  0  0  0  0
 10 11  1  0  0  0  0
 11 12  2  0  0  0  0
 11 13  1  0  0  0  0
 13 14  1  1  0  0  0
 13 15  1  0  0  0  0
 15 16  1  0  0  0  0
 16 21  2  0  0  0  0
 16 17  1  0  0  0  0
 17 18  2  0  0  0  0
 18 19  1  0  0  0  0
 19 20  2  0  0  0  0
 20 21  1  0  0  0  0
 13 22  1  0  0  0  0
 22 23  1  0  0  0  0
 23 24  2  0  0  0  0
 23 25  1  0  0  0  0
 25 26  1  0  0  0  0
 26 27  1  0  0  0  0
 27 28  2  0  0  0  0
 27 29  1  0  0  0  0
 29 30  1  1  0  0  0
 29 31  1  0  0  0  0
 29 32  1  0  0  0  0
 32 33  1  0  0  0  0
  8 34  1  0  0  0  0
 34 35  2  0  0  0  0
 34 36  1  0  0  0  0
M  END
$$$$
SAL-INS-a5f-2
  -OEChem-03232022352D

 39 39  0     1  0  0  0  0  0999 V2000
   -2.9132   -2.8163    0.0000 C   0  0  0  0  0  0  0  0  0  0  0  0
   -1.9132   -2.8192    0.0000 C   0  0  0  0  0  0  0  0  0  0  0  0
   -1.4158   -3.6867    0.0000 O   0  0  0  0  0  0  0  0  0  0  0  0
   -1.4107   -1.9547    0.0000 N   0  0  0  0  0  0  0  0  0  0  0  0
   -0.4107   -1.9576    0.0000 C   0  0  1  0  0  0  0  0  0  0  0  0
   -0.4136   -2.9576    0.0000 H   0  0  0  0  0  0  0  0  0  0  0  0
   -0.4077   -0.9577    0.0000 C   0  0  0  0  0  0  0  0  0  0  0  0
   -1.2723   -0.4551    0.0000 O   0  0  0  0  0  0  0  0  0  0  0  0
    0.5893   -1.9606    0.0000 C   0  0  0  0  0  0  0  0  0  0  0  0
    1.0868   -2.8281    0.0000 O   0  0  0  0  0  0  0  0  0  0  0  0
    1.0919   -1.0960    0.0000 N   0  0  0  0  0  0  0  0  0  0  0  0
    2.0919   -1.0990    0.0000 C   0  0  0  0  0  0  0  0  0  0  0  0
    2.5944   -0.2345    0.0000 C   0  0  0  0  0  0  0  0  0  0  0  0
    3.5944   -0.2374    0.0000 O   0  0  0  0  0  0  0  0  0  0  0  0
    2.0970    0.6330    0.0000 N   0  0  0  0  0  0  0  0  0  0  0  0
    2.5995    1.4976    0.0000 C   0  0  1  0  0  0  0  0  0  0  0  0
    3.4641    0.9950    0.0000 H   0  0  0  0  0  0  0  0  0  0  0  0
    1.7350    2.0001    0.0000 C   0  0  0  0  0  0  0  0  0  0  0  0
    0.8675    1.5027    0.0000 C   0  0  0  0  0  0  0  0  0  0  0  0
    0.8675    0.4975    0.0000 C   0  0  0  0  0  0  0  0  0  0  0  0
    0.0000    0.0000    0.0000 C   0  0  0  0  0  0  0  0  0  0  0  0
   -0.8675    0.4975    0.0000 C   0  0  0  0  0  0  0  0  0  0  0  0
   -0.8675    1.5027    0.0000 C   0  0  0  0  0  0  0  0  0  0  0  0
    0.0000    2.0104    0.0000 C   0  0  0  0  0  0  0  0  0  0  0  0
    3.1021    2.3621    0.0000 C   0  0  0  0  0  0  0  0  0  0  0  0
    4.1021    2.3592    0.0000 O   0  0  0  0  0  0  0  0  0  0  0  0
    2.6047    3.2296    0.0000 N   0  0  0  0  0  0  0  0  0  0  0  0
    3.1072    4.0942    0.0000 C   0  0  1  0  0  0  0  0  0  0  0  0
    3.6098    4.9587    0.0000 H   0  0  0  0  0  0  0  0  0  0  0  0
    3.9718    3.5916    0.0000 C   0  0  0  0  0  0  0  0  0  0  0  0
    4.8393    4.0891    0.0000 C   0  0  0  0  0  0  0  0  0  0  0  0
    5.7038    3.5865    0.0000 C   0  0  0  0  0  0  0  0  0  0  0  0
    6.5713    4.0840    0.0000 N   0  0  0  0  0  0  0  0  0  0  0  0
    7.4358    3.5814    0.0000 C   0  0  0  0  0  0  0  0  0  0  0  0
    8.3033    4.0788    0.0000 N   0  0  0  0  0  0  0  0  0  0  0  0
    7.4329    2.5814    0.0000 O   0  0  0  0  0  0  0  0  0  0  0  0
    2.2427    4.5967    0.0000 C   0  0  0  0  0  0  0  0  0  0  0  0
    1.3752    4.0993    0.0000 N   0  0  0  0  0  0  0  0  0  0  0  0
    2.2456    5.5967    0.0000 O   0  0  0  0  0  0  0  0  0  0  0  0
  1  2  1  0  0  0  0
  2  3  2  0  0  0  0
  2  4  1  0  0  0  0
  4  5  1  0  0  0  0
  5  6  1  6  0  0  0
  5  7  1  0  0  0  0
  7  8  1  0  0  0  0
  5  9  1  0  0  0  0
  9 10  2  0  0  0  0
  9 11  1  0  0  0  0
 11 12  1  0  0  0  0
 12 13  1  0  0  0  0
 13 14  2  0  0  0  0
 13 15  1  0  0  0  0
 15 16  1  0  0  0  0
 16 17  1  6  0  0  0
 16 18  1  0  0  0  0
 18 19  1  0  0  0  0
 19 24  2  0  0  0  0
 19 20  1  0  0  0  0
 20 21  2  0  0  0  0
 21 22  1  0  0  0  0
 22 23  2  0  0  0  0
 23 24  1  0  0  0  0
 16 25  1  0  0  0  0
 25 26  2  0  0  0  0
 25 27  1  0  0  0  0
 27 28  1  0  0  0  0
 28 29  1  1  0  0  0
 28 30  1  0  0  0  0
 30 31  1  0  0  0  0
 31 32  1  0  0  0  0
 32 33  1  0  0  0  0
 33 34  1  0  0  0  0
 34 35  1  0  0  0  0
 34 36  2  0  0  0  0
 28 37  1  0  0  0  0
 37 38  1  0  0  0  0
 37 39  2  0  0  0  0
M  END
$$$$
AGN-NEW-9d2-1
  -OEChem-03232022352D

 36 38  0     0  0  0  0  0  0999 V2000
    1.7379    3.0001    0.0000 C   0  0  0  0  0  0  0  0  0  0  0  0
    1.7350    2.0001    0.0000 C   0  0  0  0  0  0  0  0  0  0  0  0
    0.8675    1.5027    0.0000 C   0  0  0  0  0  0  0  0  0  0  0  0
   -0.0000    2.0104    0.0000 N   0  0  0  0  0  0  0  0  0  0  0  0
   -0.8675    1.5027    0.0000 C   0  0  0  0  0  0  0  0  0  0  0  0
   -0.8675    0.4975    0.0000 C   0  0  0  0  0  0  0  0  0  0  0  0
   -1.7328   -0.0038    0.0000 C   0  0  0  0  0  0  0  0  0  0  0  0
    0.0000    0.0000    0.0000 C   0  0  0  0  0  0  0  0  0  0  0  0
    0.0000   -1.0000    0.0000 C   0  0  0  0  0  0  0  0  0  0  0  0
   -0.8660   -1.5000    0.0000 C   0  0  0  0  0  0  0  0  0  0  0  0
   -0.8660   -2.5000    0.0000 N   0  0  0  0  0  0  0  0  0  0  0  0
   -1.7321   -3.0000    0.0000 C   0  0  0  0  0  0  0  0  0  0  0  0
   -1.7321   -4.0000    0.0000 C   0  0  0  0  0  0  0  0  0  0  0  0
   -2.5981   -2.5000    0.0000 O   0  0  0  0  0  0  0  0  0  0  0  0
    0.8675    0.4975    0.0000 C   0  0  0  0  0  0  0  0  0  0  0  0
    1.7328   -0.0038    0.0000 N   0  0  0  0  0  0  0  0  0  0  0  0
    2.5995    0.4950    0.0000 C   0  0  0  0  0  0  0  0  0  0  0  0
    2.6010    1.4950    0.0000 O   0  0  0  0  0  0  0  0  0  0  0  0
    3.4648   -0.0063    0.0000 N   0  0  0  0  0  0  0  0  0  0  0  0
    4.3316    0.4925    0.0000 C   0  0  0  0  0  0  0  0  0  0  0  0
    4.3330    1.4925    0.0000 C   0  0  0  0  0  0  0  0  0  0  0  0
    3.4618    1.9938    0.0000 N   0  0  0  0  0  0  0  0  0  0  0  0
    3.4632    2.9938    0.0000 C   0  0  0  0  0  0  0  0  0  0  0  0
    2.5964    3.4925    0.0000 F   0  0  0  0  0  0  0  0  0  0  0  0
    4.3270    3.4976    0.0000 N   0  0  0  0  0  0  0  0  0  0  0  0
    5.1983    2.9963    0.0000 C   0  0  0  0  0  0  0  0  0  0  0  0
    6.0621    3.5002    0.0000 O   0  0  0  0  0  0  0  0  0  0  0  0
    6.9303    3.0040    0.0000 C   0  0  0  0  0  0  0  0  0  0  0  0
    5.2057    1.9912    0.0000 N   0  0  0  0  0  0  0  0  0  0  0  0
    3.4634   -1.0063    0.0000 C   0  0  0  0  0  0  0  0  0  0  0  0
    4.3347   -1.5076    0.0000 C   0  0  0  0  0  0  0  0  0  0  0  0
    4.3333   -2.5076    0.0000 C   0  0  0  0  0  0  0  0  0  0  0  0
    5.2001   -3.0063    0.0000 C   0  0  0  0  0  0  0  0  0  0  0  0
    3.4694   -3.0114    0.0000 C   0  0  0  0  0  0  0  0  0  0  0  0
    2.5982   -2.5101    0.0000 C   0  0  0  0  0  0  0  0  0  0  0  0
    2.5907   -1.5050    0.0000 N   0  0  0  0  0  0  0  0  0  0  0  0
  1  2  2  0  0  0  0
  2  3  1  0  0  0  0
  3 15  2  0  0  0  0
  3  4  1  0  0  0  0
  4  5  2  0  0  0  0
  5  6  1  0  0  0  0
  6  7  1  0  0  0  0
  6  8  2  0  0  0  0
  8  9  1  0  0  0  0
  9 10  1  0  0  0  0
 10 11  1  0  0  0  0
 11 12  1  0  0  0  0
 12 13  1  0  0  0  0
 12 14  2  0  0  0  0
  8 15  1  0  0  0  0
 15 16  1  0  0  0  0
 16 17  1  0  0  0  0
 17 18  2  0  0  0  0
 17 19  1  0  0  0  0
 19 20  1  0  0  0  0
 20 21  1  0  0  0  0
 21 29  2  0  0  0  0
 21 22  1  0  0  0  0
 22 23  2  0  0  0  0
 23 24  1  0  0  0  0
 23 25  1  0  0  0  0
 25 26  2  0  0  0  0
 26 27  1  0  0  0  0
 27 28  1  0  0  0  0
 26 29  1  0  0  0  0
 19 30  1  0  0  0  0
 30 36  2  0  0  0  0
 30 31  1  0  0  0  0
 31 32  2  0  0  0  0
 32 33  1  0  0  0  0
 32 34  1  0  0  0  0
 34 35  2  0  0  0  0
 35 36  1  0  0  0  0
M  END
$$$$
AGN-NEW-9d2-2
  -OEChem-03232022352D

 39 42  0     0  0  0  0  0  0999 V2000
    1.7379    3.0001    0.0000 C   0  0  0  0  0  0  0  0  0  0  0  0
    1.7350    2.0001    0.0000 C   0  0  0  0  0  0  0  0  0  0  0  0
    0.8675    1.5027    0.0000 C   0  0  0  0  0  0  0  0  0  0  0  0
   -0.0000    2.0104    0.0000 N   0  0  0  0  0  0  0  0  0  0  0  0
   -0.8675    1.5027    0.0000 C   0  0  0  0  0  0  0  0  0  0  0  0
   -0.8675    0.4975    0.0000 C   0  0  0  0  0  0  0  0  0  0  0  0
   -1.7328   -0.0038    0.0000 C   0  0  0  0  0  0  0  0  0  0  0  0
    0.0000    0.0000    0.0000 C   0  0  0  0  0  0  0  0  0  0  0  0
    0.0000   -1.0000    0.0000 C   0  0  0  0  0  0  0  0  0  0  0  0
   -0.8660   -1.5000    0.0000 C   0  0  0  0  0  0  0  0  0  0  0  0
   -0.8660   -2.5000    0.0000 N   0  0  0  0  0  0  0  0  0  0  0  0
   -1.7321   -3.0000    0.0000 C   0  0  0  0  0  0  0  0  0  0  0  0
   -2.5981   -2.5000    0.0000 O   0  0  0  0  0  0  0  0  0  0  0  0
   -1.7321   -4.0000    0.0000 C   0  0  0  0  0  0  0  0  0  0  0  0
   -2.5981   -4.5000    0.0000 N   0  0  0  0  0  0  0  0  0  0  0  0
   -2.6040   -5.5051    0.0000 C   0  0  0  0  0  0  0  0  0  0  0  0
   -3.4745   -6.0077    0.0000 C   0  0  0  0  0  0  0  0  0  0  0  0
   -4.3391   -5.5052    0.0000 N   0  0  0  0  0  0  0  0  0  0  0  0
   -4.3420   -4.5052    0.0000 C   0  0  0  0  0  0  0  0  0  0  0  0
   -3.4715   -4.0026    0.0000 C   0  0  0  0  0  0  0  0  0  0  0  0
    0.8675    0.4975    0.0000 C   0  0  0  0  0  0  0  0  0  0  0  0
    1.7328   -0.0038    0.0000 N   0  0  0  0  0  0  0  0  0  0  0  0
    2.5995    0.4950    0.0000 C   0  0  0  0  0  0  0  0  0  0  0  0
    2.6010    1.4950    0.0000 O   0  0  0  0  0  0  0  0  0  0  0  0
    3.4648   -0.0063    0.0000 N   0  0  0  0  0  0  0  0  0  0  0  0
    4.3316    0.4925    0.0000 C   0  0  0  0  0  0  0  0  0  0  0  0
    4.3330    1.4925    0.0000 C   0  0  0  0  0  0  0  0  0  0  0  0
    3.4663    1.9912    0.0000 C   0  0  0  0  0  0  0  0  0  0  0  0
    3.4677    2.9964    0.0000 C   0  0  0  0  0  0  0  0  0  0  0  0
    4.3360    3.5029    0.0000 O   0  0  0  0  0  0  0  0  0  0  0  0
    5.2027    2.9939    0.0000 C   0  0  0  0  0  0  0  0  0  0  0  0
    5.2013    1.9887    0.0000 C   0  0  0  0  0  0  0  0  0  0  0  0
    3.4634   -1.0063    0.0000 C   0  0  0  0  0  0  0  0  0  0  0  0
    4.3347   -1.5076    0.0000 C   0  0  0  0  0  0  0  0  0  0  0  0
    4.3333   -2.5076    0.0000 C   0  0  0  0  0  0  0  0  0  0  0  0
    5.2001   -3.0063    0.0000 C   0  0  0  0  0  0  0  0  0  0  0  0
    3.4694   -3.0114    0.0000 C   0  0  0  0  0  0  0  0  0  0  0  0
    2.5982   -2.5101    0.0000 C   0  0  0  0  0  0  0  0  0  0  0  0
    2.5907   -1.5050    0.0000 N   0  0  0  0  0  0  0  0  0  0  0  0
  1  2  2  0  0  0  0
  2  3  1  0  0  0  0
  3 21  2  0  0  0  0
  3  4  1  0  0  0  0
  4  5  2  0  0  0  0
  5  6  1  0  0  0  0
  6  7  1  0  0  0  0
  6  8  2  0  0  0  0
  8  9  1  0  0  0  0
  9 10  1  0  0  0  0
 10 11  1  0  0  0  0
 11 12  1  0  0  0  0
 12 13  2  0  0  0  0
 12 14  1  0  0  0  0
 14 15  1  0  0  0  0
 15 20  1  0  0  0  0
 15 16  1  0  0  0  0
 16 17  1  0  0  0  0
 17 18  1  0  0  0  0
 18 19  1  0  0  0  0
 19 20  1  0  0  0  0
  8 21  1  0  0  0  0
 21 22  1  0  0  0  0
 22 23  1  0  0  0  0
 23 24  2  0  0  0  0
 23 25  1  0  0  0  0
 25 26  1  0  0  0  0
 26 27  1  0  0  0  0
 27 32  1  0  0  0  0
 27 28  1  0  0  0  0
 28 29  1  0  0  0  0
 29 30  1  0  0  0  0
 30 31  1  0  0  0  0
 31 32  1  0  0  0  0
 25 33  1  0  0  0  0
 33 39  2  0  0  0  0
 33 34  1  0  0  0  0
 34 35  2  0  0  0  0
 35 36  1  0  0  0  0
 35 37  1  0  0  0  0
 37 38  2  0  0  0  0
 38 39  1  0  0  0  0
M  END
$$$$
AGN-NEW-9d2-3
  -OEChem-03232022352D

 35 37  0     0  0  0  0  0  0999 V2000
    1.7379    3.0001    0.0000 C   0  0  0  0  0  0  0  0  0  0  0  0
    1.7350    2.0001    0.0000 C   0  0  0  0  0  0  0  0  0  0  0  0
    0.8675    1.5027    0.0000 C   0  0  0  0  0  0  0  0  0  0  0  0
   -0.0000    2.0104    0.0000 N   0  0  0  0  0  0  0  0  0  0  0  0
   -0.8675    1.5027    0.0000 C   0  0  0  0  0  0  0  0  0  0  0  0
   -0.8675    0.4975    0.0000 C   0  0  0  0  0  0  0  0  0  0  0  0
   -1.7328   -0.0038    0.0000 C   0  0  0  0  0  0  0  0  0  0  0  0
    0.0000    0.0000    0.0000 C   0  0  0  0  0  0  0  0  0  0  0  0
    0.0000   -1.0000    0.0000 C   0  0  0  0  0  0  0  0  0  0  0  0
   -0.8660   -1.5000    0.0000 C   0  0  0  0  0  0  0  0  0  0  0  0
   -0.8660   -2.5000    0.0000 N   0  0  0  0  0  0  0  0  0  0  0  0
   -1.7321   -3.0000    0.0000 C   0  0  0  0  0  0  0  0  0  0  0  0
   -1.7321   -4.0000    0.0000 C   0  0  0  0  0  0  0  0  0  0  0  0
   -2.5981   -2.5000    0.0000 O   0  0  0  0  0  0  0  0  0  0  0  0
    0.8675    0.4975    0.0000 C   0  0  0  0  0  0  0  0  0  0  0  0
    1.7328   -0.0038    0.0000 N   0  0  0  0  0  0  0  0  0  0  0  0
    2.5995    0.4950    0.0000 C   0  0  0  0  0  0  0  0  0  0  0  0
    2.6010    1.4950    0.0000 O   0  0  0  0  0  0  0  0  0  0  0  0
    3.4648   -0.0063    0.0000 N   0  0  0  0  0  0  0  0  0  0  0  0
    4.3316    0.4925    0.0000 C   0  0  0  0  0  0  0  0  0  0  0  0
    4.3330    1.4925    0.0000 C   0  0  0  0  0  0  0  0  0  0  0  0
    3.4618    1.9938    0.0000 N   0  0  0  0  0  0  0  0  0  0  0  0
    3.4632    2.9938    0.0000 C   0  0  0  0  0  0  0  0  0  0  0  0
    4.3270    3.4976    0.0000 N   0  0  0  0  0  0  0  0  0  0  0  0
    5.1983    2.9963    0.0000 C   0  0  0  0  0  0  0  0  0  0  0  0
    6.0621    3.5002    0.0000 O   0  0  0  0  0  0  0  0  0  0  0  0
    6.9303    3.0040    0.0000 C   0  0  0  0  0  0  0  0  0  0  0  0
    5.2057    1.9912    0.0000 N   0  0  0  0  0  0  0  0  0  0  0  0
    3.4634   -1.0063    0.0000 C   0  0  0  0  0  0  0  0  0  0  0  0
    4.3347   -1.5076    0.0000 C   0  0  0  0  0  0  0  0  0  0  0  0
    4.3333   -2.5076    0.0000 C   0  0  0  0  0  0  0  0  0  0  0  0
    5.2001   -3.0063    0.0000 C   0  0  0  0  0  0  0  0  0  0  0  0
    3.4694   -3.0114    0.0000 C   0  0  0  0  0  0  0  0  0  0  0  0
    2.5982   -2.5101    0.0000 C   0  0  0  0  0  0  0  0  0  0  0  0
    2.5907   -1.5050    0.0000 N   0  0  0  0  0  0  0  0  0  0  0  0
  1  2  2  0  0  0  0
  2  3  1  0  0  0  0
  3 15  2  0  0  0  0
  3  4  1  0  0  0  0
  4  5  2  0  0  0  0
  5  6  1  0  0  0  0
  6  7  1  0  0  0  0
  6  8  2  0  0  0  0
  8  9  1  0  0  0  0
  9 10  1  0  0  0  0
 10 11  1  0  0  0  0
 11 12  1  0  0  0  0
 12 13  1  0  0  0  0
 12 14  2  0  0  0  0
  8 15  1  0  0  0  0
 15 16  1  0  0  0  0
 16 17  1  0  0  0  0
 17 18  2  0  0  0  0
 17 19  1  0  0  0  0
 19 20  1  0  0  0  0
 20 21  1  0  0  0  0
 21 28  2  0  0  0  0
 21 22  1  0  0  0  0
 22 23  2  0  0  0  0
 23 24  1  0  0  0  0
 24 25  2  0  0  0  0
 25 26  1  0  0  0  0
 26 27  1  0  0  0  0
 25 28  1  0  0  0  0
 19 29  1  0  0  0  0
 29 35  2  0  0  0  0
 29 30  1  0  0  0  0
 30 31  2  0  0  0  0
 31 32  1  0  0  0  0
 31 33  1  0  0  0  0
 33 34  2  0  0  0  0
 34 35  1  0  0  0  0
M  END
$$$$
AGN-NEW-9d2-4
  -OEChem-03232022352D

 41 44  0     0  0  0  0  0  0999 V2000
    2.5995    1.4976    0.0000 C   0  0  0  0  0  0  0  0  0  0  0  0
    1.7350    2.0001    0.0000 C   0  0  0  0  0  0  0  0  0  0  0  0
    0.8675    1.5027    0.0000 C   0  0  0  0  0  0  0  0  0  0  0  0
   -0.0000    2.0104    0.0000 N   0  0  0  0  0  0  0  0  0  0  0  0
   -0.8675    1.5027    0.0000 C   0  0  0  0  0  0  0  0  0  0  0  0
   -0.8675    0.4975    0.0000 C   0  0  0  0  0  0  0  0  0  0  0  0
   -1.7328   -0.0038    0.0000 C   0  0  0  0  0  0  0  0  0  0  0  0
    0.0000    0.0000    0.0000 C   0  0  0  0  0  0  0  0  0  0  0  0
    0.0000   -1.0000    0.0000 C   0  0  0  0  0  0  0  0  0  0  0  0
   -0.8660   -1.5000    0.0000 C   0  0  0  0  0  0  0  0  0  0  0  0
   -0.8660   -2.5000    0.0000 N   0  0  0  0  0  0  0  0  0  0  0  0
   -1.7321   -3.0000    0.0000 C   0  0  0  0  0  0  0  0  0  0  0  0
   -2.5981   -2.5000    0.0000 O   0  0  0  0  0  0  0  0  0  0  0  0
   -1.7321   -4.0000    0.0000 C   0  0  0  0  0  0  0  0  0  0  0  0
   -2.5981   -4.5000    0.0000 N   0  0  0  0  0  0  0  0  0  0  0  0
   -2.6040   -5.5051    0.0000 C   0  0  0  0  0  0  0  0  0  0  0  0
   -3.4745   -6.0077    0.0000 C   0  0  0  0  0  0  0  0  0  0  0  0
   -4.3391   -5.5052    0.0000 C   0  0  0  0  0  0  0  0  0  0  0  0
   -4.3420   -4.5052    0.0000 C   0  0  0  0  0  0  0  0  0  0  0  0
   -3.4715   -4.0026    0.0000 C   0  0  0  0  0  0  0  0  0  0  0  0
    0.8675    0.4975    0.0000 C   0  0  0  0  0  0  0  0  0  0  0  0
    2.3818   -0.3797    0.0000 N   0  0  0  0  0  0  0  0  0  0  0  0
    3.2485    0.1190    0.0000 C   0  0  0  0  0  0  0  0  0  0  0  0
    3.2500    1.1190    0.0000 O   0  0  0  0  0  0  0  0  0  0  0  0
    4.1138   -0.3822    0.0000 N   0  0  0  0  0  0  0  0  0  0  0  0
    4.9806    0.1165    0.0000 C   0  0  0  0  0  0  0  0  0  0  0  0
    4.9831    1.8665    0.0000 C   0  0  0  0  0  0  0  0  0  0  0  0
    5.8558    2.3653    0.0000 N   0  0  0  0  0  0  0  0  0  0  0  0
    5.8573    3.3653    0.0000 C   0  0  0  0  0  0  0  0  0  0  0  0
    4.9950    3.8717    0.0000 N   0  0  0  0  0  0  0  0  0  0  0  0
    4.1222    3.3729    0.0000 C   0  0  0  0  0  0  0  0  0  0  0  0
    3.2599    3.8792    0.0000 O   0  0  0  0  0  0  0  0  0  0  0  0
    2.3902    3.3856    0.0000 C   0  0  0  0  0  0  0  0  0  0  0  0
    4.1119    2.3678    0.0000 N   0  0  0  0  0  0  0  0  0  0  0  0
    4.1124   -1.3822    0.0000 C   0  0  0  0  0  0  0  0  0  0  0  0
    4.9837   -1.8835    0.0000 C   0  0  0  0  0  0  0  0  0  0  0  0
    4.9823   -2.8835    0.0000 C   0  0  0  0  0  0  0  0  0  0  0  0
    5.8490   -3.3822    0.0000 C   0  0  0  0  0  0  0  0  0  0  0  0
    4.1184   -3.3874    0.0000 C   0  0  0  0  0  0  0  0  0  0  0  0
    3.2471   -2.8861    0.0000 C   0  0  0  0  0  0  0  0  0  0  0  0
    3.2397   -1.8809    0.0000 N   0  0  0  0  0  0  0  0  0  0  0  0
  1  2  2  0  0  0  0
  2  3  1  0  0  0  0
  3 21  2  0  0  0  0
  3  4  1  0  0  0  0
  4  5  2  0  0  0  0
  5  6  1  0  0  0  0
  6  7  1  0  0  0  0
  6  8  2  0  0  0  0
  8  9  1  0  0  0  0
  9 10  1  0  0  0  0
 10 11  1  0  0  0  0
 11 12  1  0  0  0  0
 12 13  2  0  0  0  0
 12 14  1  0  0  0  0
 14 15  1  0  0  0  0
 15 20  1  0  0  0  0
 15 16  1  0  0  0  0
 16 17  1  0  0  0  0
 17 18  1  0  0  0  0
 18 19  1  0  0  0  0
 19 20  1  0  0  0  0
  8 21  1  0  0  0  0
 21 22  1  0  0  0  0
 22 23  1  0  0  0  0
 23 24  2  0  0  0  0
 23 25  1  0  0  0  0
 25 26  1  0  0  0  0
 26 27  1  0  0  0  0
 27 34  2  0  0  0  0
 27 28  1  0  0  0  0
 28 29  2  0  0  0  0
 29 30  1  0  0  0  0
 30 31  2  0  0  0  0
 31 32  1  0  0  0  0
 32 33  1  0  0  0  0
 31 34  1  0  0  0  0
 25 35  1  0  0  0  0
 35 41  2  0  0  0  0
 35 36  1  0  0  0  0
 36 37  2  0  0  0  0
 37 38  1  0  0  0  0
 37 39  1  0  0  0  0
 39 40  2  0  0  0  0
 40 41  1  0  0  0  0
M  END
$$$$
AGN-NEW-9d2-5
  -OEChem-03232022352D

 41 44  0     0  0  0  0  0  0999 V2000
    2.5995    1.4976    0.0000 C   0  0  0  0  0  0  0  0  0  0  0  0
    1.7350    2.0001    0.0000 C   0  0  0  0  0  0  0  0  0  0  0  0
    0.8675    1.5027    0.0000 C   0  0  0  0  0  0  0  0  0  0  0  0
   -0.0000    2.0104    0.0000 N   0  0  0  0  0  0  0  0  0  0  0  0
   -0.8675    1.5027    0.0000 C   0  0  0  0  0  0  0  0  0  0  0  0
   -0.8675    0.4975    0.0000 C   0  0  0  0  0  0  0  0  0  0  0  0
   -1.7328   -0.0038    0.0000 C   0  0  0  0  0  0  0  0  0  0  0  0
    0.0000    0.0000    0.0000 C   0  0  0  0  0  0  0  0  0  0  0  0
    0.0000   -1.0000    0.0000 C   0  0  0  0  0  0  0  0  0  0  0  0
   -0.8660   -1.5000    0.0000 C   0  0  0  0  0  0  0  0  0  0  0  0
   -0.8660   -2.5000    0.0000 N   0  0  0  0  0  0  0  0  0  0  0  0
   -1.7321   -3.0000    0.0000 C   0  0  0  0  0  0  0  0  0  0  0  0
   -2.5981   -2.5000    0.0000 O   0  0  0  0  0  0  0  0  0  0  0  0
   -1.7321   -4.0000    0.0000 C   0  0  0  0  0  0  0  0  0  0  0  0
   -2.5981   -4.5000    0.0000 N   0  0  0  0  0  0  0  0  0  0  0  0
   -3.4627   -3.9975    0.0000 C   0  0  0  0  0  0  0  0  0  0  0  0
   -4.3332   -4.5001    0.0000 C   0  0  0  0  0  0  0  0  0  0  0  0
   -4.3391   -5.5052    0.0000 O   0  0  0  0  0  0  0  0  0  0  0  0
   -3.4657   -6.0026    0.0000 C   0  0  0  0  0  0  0  0  0  0  0  0
   -2.5952   -5.5000    0.0000 C   0  0  0  0  0  0  0  0  0  0  0  0
    0.8675    0.4975    0.0000 C   0  0  0  0  0  0  0  0  0  0  0  0
    2.3818   -0.3797    0.0000 N   0  0  0  0  0  0  0  0  0  0  0  0
    3.2485    0.1190    0.0000 C   0  0  0  0  0  0  0  0  0  0  0  0
    3.2500    1.1190    0.0000 O   0  0  0  0  0  0  0  0  0  0  0  0
    4.1138   -0.3822    0.0000 N   0  0  0  0  0  0  0  0  0  0  0  0
    4.9806    0.1165    0.0000 C   0  0  0  0  0  0  0  0  0  0  0  0
    4.9831    1.8665    0.0000 C   0  0  0  0  0  0  0  0  0  0  0  0
    5.8558    2.3653    0.0000 N   0  0  0  0  0  0  0  0  0  0  0  0
    5.8573    3.3653    0.0000 C   0  0  0  0  0  0  0  0  0  0  0  0
    4.9950    3.8717    0.0000 N   0  0  0  0  0  0  0  0  0  0  0  0
    4.1222    3.3729    0.0000 C   0  0  0  0  0  0  0  0  0  0  0  0
    3.2599    3.8792    0.0000 O   0  0  0  0  0  0  0  0  0  0  0  0
    2.3902    3.3856    0.0000 C   0  0  0  0  0  0  0  0  0  0  0  0
    4.1119    2.3678    0.0000 N   0  0  0  0  0  0  0  0  0  0  0  0
    4.1124   -1.3822    0.0000 C   0  0  0  0  0  0  0  0  0  0  0  0
    4.9837   -1.8835    0.0000 C   0  0  0  0  0  0  0  0  0  0  0  0
    4.9823   -2.8835    0.0000 C   0  0  0  0  0  0  0  0  0  0  0  0
    5.8490   -3.3822    0.0000 C   0  0  0  0  0  0  0  0  0  0  0  0
    4.1184   -3.3874    0.0000 C   0  0  0  0  0  0  0  0  0  0  0  0
    3.2471   -2.8861    0.0000 C   0  0  0  0  0  0  0  0  0  0  0  0
    3.2397   -1.8809    0.0000 N   0  0  0  0  0  0  0  0  0  0  0  0
  1  2  2  0  0  0  0
  2  3  1  0  0  0  0
  3 21  2  0  0  0  0
  3  4  1  0  0  0  0
  4  5  2  0  0  0  0
  5  6  1  0  0  0  0
  6  7  1  0  0  0  0
  6  8  2  0  0  0  0
  8  9  1  0  0  0  0
  9 10  1  0  0  0  0
 10 11  1  0  0  0  0
 11 12  1  0  0  0  0
 12 13  2  0  0  0  0
 12 14  1  0  0  0  0
 14 15  1  0  0  0  0
 15 20  1  0  0  0  0
 15 16  1  0  0  0  0
 16 17  1  0  0  0  0
 17 18  1  0  0  0  0
 18 19  1  0  0  0  0
 19 20  1  0  0  0  0
  8 21  1  0  0  0  0
 21 22  1  0  0  0  0
 22 23  1  0  0  0  0
 23 24  2  0  0  0  0
 23 25  1  0  0  0  0
 25 26  1  0  0  0  0
 26 27  1  0  0  0  0
 27 34  2  0  0  0  0
 27 28  1  0  0  0  0
 28 29  2  0  0  0  0
 29 30  1  0  0  0  0
 30 31  2  0  0  0  0
 31 32  1  0  0  0  0
 32 33  1  0  0  0  0
 31 34  1  0  0  0  0
 25 35  1  0  0  0  0
 35 41  2  0  0  0  0
 35 36  1  0  0  0  0
 36 37  2  0  0  0  0
 37 38  1  0  0  0  0
 37 39  1  0  0  0  0
 39 40  2  0  0  0  0
 40 41  1  0  0  0  0
M  END
$$$$
GIA-UNK-995-1
  -OEChem-03232022352D

 16 16  0     0  0  0  0  0  0999 V2000
    0.8660    4.5104    0.0000 C   0  0  0  0  0  0  0  0  0  0  0  0
    0.8660    3.5104    0.0000 C   0  0  0  0  0  0  0  0  0  0  0  0
    1.7321    3.0104    0.0000 C   0  0  0  0  0  0  0  0  0  0  0  0
    0.0000    3.0104    0.0000 C   0  0  0  0  0  0  0  0  0  0  0  0
   -0.8660    3.5104    0.0000 O   0  0  0  0  0  0  0  0  0  0  0  0
   -0.0000    2.0104    0.0000 N   0  0  0  0  0  0  0  0  0  0  0  0
   -0.8675    1.5027    0.0000 C   0  0  0  0  0  0  0  0  0  0  0  0
   -0.8675    0.4975    0.0000 C   0  0  0  0  0  0  0  0  0  0  0  0
    0.0000    0.0000    0.0000 C   0  0  0  0  0  0  0  0  0  0  0  0
    0.0000   -1.0000    0.0000 C   0  0  0  0  0  0  0  0  0  0  0  0
   -0.8660   -1.5000    0.0000 O   0  0  0  0  0  0  0  0  0  0  0  0
    0.8660   -1.5000    0.0000 S   0  0  0  0  0  0  0  0  0  0  0  0
    0.8660   -2.5000    0.0000 C   0  0  0  0  0  0  0  0  0  0  0  0
    1.7321   -3.0000    0.0000 F   0  0  0  0  0  0  0  0  0  0  0  0
    0.8675    0.4975    0.0000 C   0  0  0  0  0  0  0  0  0  0  0  0
    0.8675    1.5027    0.0000 C   0  0  0  0  0  0  0  0  0  0  0  0
  1  2  1  0  0  0  0
  2  3  1  0  0  0  0
  2  4  1  0  0  0  0
  4  5  2  0  0  0  0
  4  6  1  0  0  0  0
  6 16  1  0  0  0  0
  6  7  1  0  0  0  0
  7  8  1  0  0  0  0
  8  9  1  0  0  0  0
  9 10  1  0  0  0  0
 10 11  2  0  0  0  0
 10 12  1  0  0  0  0
 12 13  1  0  0  0  0
 13 14  1  0  0  0  0
  9 15  1  0  0  0  0
 15 16  1  0  0  0  0
M  END
$$$$
GIA-UNK-995-2
  -OEChem-03232022352D

 18 18  0     0  0  0  0  0  0999 V2000
    1.7321    5.0104    0.0000 C   0  0  0  0  0  0  0  0  0  0  0  0
    0.8660    4.5104    0.0000 C   0  0  0  0  0  0  0  0  0  0  0  0
    0.8660    3.5104    0.0000 C   0  0  0  0  0  0  0  0  0  0  0  0
    1.7321    3.0104    0.0000 C   0  0  0  0  0  0  0  0  0  0  0  0
    2.5981    3.5104    0.0000 C   0  0  0  0  0  0  0  0  0  0  0  0
    0.0000    3.0104    0.0000 C   0  0  0  0  0  0  0  0  0  0  0  0
   -0.8660    3.5104    0.0000 O   0  0  0  0  0  0  0  0  0  0  0  0
   -0.0000    2.0104    0.0000 N   0  0  0  0  0  0  0  0  0  0  0  0
   -0.8675    1.5027    0.0000 C   0  0  0  0  0  0  0  0  0  0  0  0
   -0.8675    0.4975    0.0000 C   0  0  0  0  0  0  0  0  0  0  0  0
    0.0000    0.0000    0.0000 C   0  0  0  0  0  0  0  0  0  0  0  0
    0.0000   -1.0000    0.0000 C   0  0  0  0  0  0  0  0  0  0  0  0
   -0.8660   -1.5000    0.0000 O   0  0  0  0  0  0  0  0  0  0  0  0
    0.8660   -1.5000    0.0000 S   0  0  0  0  0  0  0  0  0  0  0  0
    0.8660   -2.5000    0.0000 C   0  0  0  0  0  0  0  0  0  0  0  0
    1.7321   -3.0000    0.0000 F   0  0  0  0  0  0  0  0  0  0  0  0
    0.8675    0.4975    0.0000 C   0  0  0  0  0  0  0  0  0  0  0  0
    0.8675    1.5027    0.0000 C   0  0  0  0  0  0  0  0  0  0  0  0
  1  2  1  0  0  0  0
  2  3  1  0  0  0  0
  3  4  1  0  0  0  0
  4  5  1  0  0  0  0
  3  6  1  0  0  0  0
  6  7  2  0  0  0  0
  6  8  1  0  0  0  0
  8 18  1  0  0  0  0
  8  9  1  0  0  0  0
  9 10  1  0  0  0  0
 10 11  1  0  0  0  0
 11 12  1  0  0  0  0
 12 13  2  0  0  0  0
 12 14  1  0  0  0  0
 14 15  1  0  0  0  0
 15 16  1  0  0  0  0
 11 17  1  0  0  0  0
 17 18  1  0  0  0  0
M  END
$$$$
GIA-UNK-995-3
  -OEChem-03232022352D

 16 17  0     0  0  0  0  0  0999 V2000
    0.8660   -1.5000    0.0000 O   0  0  0  0  0  0  0  0  0  0  0  0
   -0.0000   -1.0000    0.0000 C   0  0  0  0  0  0  0  0  0  0  0  0
   -0.8660   -1.5000    0.0000 S   0  0  0  0  0  0  0  0  0  0  0  0
   -0.8660   -2.5000    0.0000 C   0  0  0  0  0  0  0  0  0  0  0  0
   -1.7321   -3.0000    0.0000 F   0  0  0  0  0  0  0  0  0  0  0  0
    0.0000    0.0000    0.0000 C   0  0  0  0  0  0  0  0  0  0  0  0
   -0.8675    0.4975    0.0000 C   0  0  0  0  0  0  0  0  0  0  0  0
   -0.8675    1.5027    0.0000 C   0  0  0  0  0  0  0  0  0  0  0  0
    0.0000    2.0104    0.0000 N   0  0  0  0  0  0  0  0  0  0  0  0
    0.0000    3.0104    0.0000 C   0  0  0  0  0  0  0  0  0  0  0  0
    0.8660    3.5104    0.0000 O   0  0  0  0  0  0  0  0  0  0  0  0
   -0.8660    3.5104    0.0000 C   0  0  0  0  0  0  0  0  0  0  0  0
   -1.3679    4.3775    0.0000 C   0  0  0  0  0  0  0  0  0  0  0  0
   -1.8679    3.5115    0.0000 C   0  0  0  0  0  0  0  0  0  0  0  0
    0.8675    1.5027    0.0000 C   0  0  0  0  0  0  0  0  0  0  0  0
    0.8675    0.4975    0.0000 C   0  0  0  0  0  0  0  0  0  0  0  0
  1  2  2  0  0  0  0
  2  3  1  0  0  0  0
  3  4  1  0  0  0  0
  4  5  1  0  0  0  0
  2  6  1  0  0  0  0
  6 16  1  0  0  0  0
  6  7  1  0  0  0  0
  7  8  1  0  0  0  0
  8  9  1  0  0  0  0
  9 10  1  0  0  0  0
 10 11  2  0  0  0  0
 10 12  1  0  0  0  0
 12 14  1  0  0  0  0
 12 13  1  0  0  0  0
 13 14  1  0  0  0  0
  9 15  1  0  0  0  0
 15 16  1  0  0  0  0
M  END
$$$$
GIA-UNK-995-4
  -OEChem-03232022352D

 17 18  0     0  0  0  0  0  0999 V2000
    0.8660   -1.5000    0.0000 O   0  0  0  0  0  0  0  0  0  0  0  0
   -0.0000   -1.0000    0.0000 C   0  0  0  0  0  0  0  0  0  0  0  0
   -0.8660   -1.5000    0.0000 S   0  0  0  0  0  0  0  0  0  0  0  0
   -0.8660   -2.5000    0.0000 C   0  0  0  0  0  0  0  0  0  0  0  0
   -1.7321   -3.0000    0.0000 F   0  0  0  0  0  0  0  0  0  0  0  0
    0.0000    0.0000    0.0000 C   0  0  0  0  0  0  0  0  0  0  0  0
   -0.8675    0.4975    0.0000 C   0  0  0  0  0  0  0  0  0  0  0  0
   -0.8675    1.5027    0.0000 C   0  0  0  0  0  0  0  0  0  0  0  0
    0.0000    2.0104    0.0000 N   0  0  0  0  0  0  0  0  0  0  0  0
    0.0000    3.0104    0.0000 C   0  0  0  0  0  0  0  0  0  0  0  0
    0.8660    3.5104    0.0000 O   0  0  0  0  0  0  0  0  0  0  0  0
   -0.8660    3.5104    0.0000 C   0  0  0  0  0  0  0  0  0  0  0  0
   -1.1248    4.4763    0.0000 C   0  0  0  0  0  0  0  0  0  0  0  0
   -2.0908    4.2175    0.0000 C   0  0  0  0  0  0  0  0  0  0  0  0
   -1.8320    3.2516    0.0000 C   0  0  0  0  0  0  0  0  0  0  0  0
    0.8675    1.5027    0.0000 C   0  0  0  0  0  0  0  0  0  0  0  0
    0.8675    0.4975    0.0000 C   0  0  0  0  0  0  0  0  0  0  0  0
  1  2  2  0  0  0  0
  2  3  1  0  0  0  0
  3  4  1  0  0  0  0
  4  5  1  0  0  0  0
  2  6  1  0  0  0  0
  6 17  1  0  0  0  0
  6  7  1  0  0  0  0
  7  8  1  0  0  0  0
  8  9  1  0  0  0  0
  9 10  1  0  0  0  0
 10 11  2  0  0  0  0
 10 12  1  0  0  0  0
 12 15  1  0  0  0  0
 12 13  1  0  0  0  0
 13 14  1  0  0  0  0
 14 15  1  0  0  0  0
  9 16  1  0  0  0  0
 16 17  1  0  0  0  0
M  END
$$$$
GIA-UNK-995-5
  -OEChem-03232022352D

 19 20  0     0  0  0  0  0  0999 V2000
    0.8660   -1.5000    0.0000 O   0  0  0  0  0  0  0  0  0  0  0  0
   -0.0000   -1.0000    0.0000 C   0  0  0  0  0  0  0  0  0  0  0  0
   -0.8660   -1.5000    0.0000 S   0  0  0  0  0  0  0  0  0  0  0  0
   -0.8660   -2.5000    0.0000 C   0  0  0  0  0  0  0  0  0  0  0  0
   -1.7321   -3.0000    0.0000 F   0  0  0  0  0  0  0  0  0  0  0  0
    0.0000    0.0000    0.0000 C   0  0  0  0  0  0  0  0  0  0  0  0
   -0.8675    0.4975    0.0000 C   0  0  0  0  0  0  0  0  0  0  0  0
   -0.8675    1.5027    0.0000 C   0  0  0  0  0  0  0  0  0  0  0  0
    0.0000    2.0104    0.0000 N   0  0  0  0  0  0  0  0  0  0  0  0
    0.0000    3.0104    0.0000 C   0  0  0  0  0  0  0  0  0  0  0  0
    0.8660    3.5104    0.0000 O   0  0  0  0  0  0  0  0  0  0  0  0
   -0.8660    3.5104    0.0000 C   0  0  0  0  0  0  0  0  0  0  0  0
   -1.7351    3.0052    0.0000 C   0  0  0  0  0  0  0  0  0  0  0  0
   -2.6011    3.5052    0.0000 C   0  0  0  0  0  0  0  0  0  0  0  0
   -2.6070    4.5052    0.0000 C   0  0  0  0  0  0  0  0  0  0  0  0
   -1.7380    5.0104    0.0000 C   0  0  0  0  0  0  0  0  0  0  0  0
   -0.8631    4.5155    0.0000 C   0  0  0  0  0  0  0  0  0  0  0  0
    0.8675    1.5027    0.0000 C   0  0  0  0  0  0  0  0  0  0  0  0
    0.8675    0.4975    0.0000 C   0  0  0  0  0  0  0  0  0  0  0  0
  1  2  2  0  0  0  0
  2  3  1  0  0  0  0
  3  4  1  0  0  0  0
  4  5  1  0  0  0  0
  2  6  1  0  0  0  0
  6 19  1  0  0  0  0
  6  7  1  0  0  0  0
  7  8  1  0  0  0  0
  8  9  1  0  0  0  0
  9 10  1  0  0  0  0
 10 11  2  0  0  0  0
 10 12  1  0  0  0  0
 12 17  1  0  0  0  0
 12 13  1  0  0  0  0
 13 14  1  0  0  0  0
 14 15  1  0  0  0  0
 15 16  1  0  0  0  0
 16 17  1  0  0  0  0
  9 18  1  0  0  0  0
 18 19  1  0  0  0  0
M  END
$$$$
GIA-UNK-995-6
  -OEChem-03232022352D

 14 14  0     0  0  0  0  0  0999 V2000
    0.8660    3.5104    0.0000 C   0  0  0  0  0  0  0  0  0  0  0  0
    0.0000    3.0104    0.0000 C   0  0  0  0  0  0  0  0  0  0  0  0
   -0.8660    3.5104    0.0000 O   0  0  0  0  0  0  0  0  0  0  0  0
   -0.0000    2.0104    0.0000 N   0  0  0  0  0  0  0  0  0  0  0  0
   -0.8675    1.5027    0.0000 C   0  0  0  0  0  0  0  0  0  0  0  0
   -0.8675    0.4975    0.0000 C   0  0  0  0  0  0  0  0  0  0  0  0
    0.0000    0.0000    0.0000 C   0  0  0  0  0  0  0  0  0  0  0  0
    0.0000   -1.0000    0.0000 C   0  0  0  0  0  0  0  0  0  0  0  0
   -0.8660   -1.5000    0.0000 O   0  0  0  0  0  0  0  0  0  0  0  0
    0.8660   -1.5000    0.0000 S   0  0  0  0  0  0  0  0  0  0  0  0
    0.8660   -2.5000    0.0000 C   0  0  0  0  0  0  0  0  0  0  0  0
    1.7321   -3.0000    0.0000 F   0  0  0  0  0  0  0  0  0  0  0  0
    0.8675    0.4975    0.0000 C   0  0  0  0  0  0  0  0  0  0  0  0
    0.8675    1.5027    0.0000 C   0  0  0  0  0  0  0  0  0  0  0  0
  1  2  1  0  0  0  0
  2  3  2  0  0  0  0
  2  4  1  0  0  0  0
  4 14  1  0  0  0  0
  4  5  1  0  0  0  0
  5  6  1  0  0  0  0
  6  7  1  0  0  0  0
  7  8  1  0  0  0  0
  8  9  2  0  0  0  0
  8 10  1  0  0  0  0
 10 11  1  0  0  0  0
 11 12  1  0  0  0  0
  7 13  1  0  0  0  0
 13 14  1  0  0  0  0
M  END
$$$$
GIA-UNK-995-7
  -OEChem-03232022352D

 15 15  0     0  0  0  0  0  0999 V2000
   -0.8660    4.5104    0.0000 C   0  0  0  0  0  0  0  0  0  0  0  0
   -0.8660    3.5104    0.0000 C   0  0  0  0  0  0  0  0  0  0  0  0
    0.0000    3.0104    0.0000 C   0  0  0  0  0  0  0  0  0  0  0  0
    0.8660    3.5104    0.0000 O   0  0  0  0  0  0  0  0  0  0  0  0
   -0.0000    2.0104    0.0000 N   0  0  0  0  0  0  0  0  0  0  0  0
   -0.8675    1.5027    0.0000 C   0  0  0  0  0  0  0  0  0  0  0  0
   -0.8675    0.4975    0.0000 C   0  0  0  0  0  0  0  0  0  0  0  0
    0.0000    0.0000    0.0000 C   0  0  0  0  0  0  0  0  0  0  0  0
    0.0000   -1.0000    0.0000 C   0  0  0  0  0  0  0  0  0  0  0  0
   -0.8660   -1.5000    0.0000 O   0  0  0  0  0  0  0  0  0  0  0  0
    0.8660   -1.5000    0.0000 S   0  0  0  0  0  0  0  0  0  0  0  0
    0.8660   -2.5000    0.0000 C   0  0  0  0  0  0  0  0  0  0  0  0
    1.7321   -3.0000    0.0000 F   0  0  0  0  0  0  0  0  0  0  0  0
    0.8675    0.4975    0.0000 C   0  0  0  0  0  0  0  0  0  0  0  0
    0.8675    1.5027    0.0000 C   0  0  0  0  0  0  0  0  0  0  0  0
  1  2  1  0  0  0  0
  2  3  1  0  0  0  0
  3  4  2  0  0  0  0
  3  5  1  0  0  0  0
  5 15  1  0  0  0  0
  5  6  1  0  0  0  0
  6  7  1  0  0  0  0
  7  8  1  0  0  0  0
  8  9  1  0  0  0  0
  9 10  2  0  0  0  0
  9 11  1  0  0  0  0
 11 12  1  0  0  0  0
 12 13  1  0  0  0  0
  8 14  1  0  0  0  0
 14 15  1  0  0  0  0
M  END
$$$$
GIA-UNK-995-8
  -OEChem-03232022352D

 17 17  0     0  0  0  0  0  0999 V2000
    1.7321    4.0104    0.0000 C   0  0  0  0  0  0  0  0  0  0  0  0
    0.8660    3.5104    0.0000 C   0  0  0  0  0  0  0  0  0  0  0  0
    1.3660    2.6444    0.0000 C   0  0  0  0  0  0  0  0  0  0  0  0
    0.3660    4.3764    0.0000 C   0  0  0  0  0  0  0  0  0  0  0  0
    0.0000    3.0104    0.0000 C   0  0  0  0  0  0  0  0  0  0  0  0
   -0.8660    3.5104    0.0000 O   0  0  0  0  0  0  0  0  0  0  0  0
   -0.0000    2.0104    0.0000 N   0  0  0  0  0  0  0  0  0  0  0  0
   -0.8675    1.5027    0.0000 C   0  0  0  0  0  0  0  0  0  0  0  0
   -0.8675    0.4975    0.0000 C   0  0  0  0  0  0  0  0  0  0  0  0
    0.0000    0.0000    0.0000 C   0  0  0  0  0  0  0  0  0  0  0  0
    0.0000   -1.0000    0.0000 C   0  0  0  0  0  0  0  0  0  0  0  0
   -0.8660   -1.5000    0.0000 O   0  0  0  0  0  0  0  0  0  0  0  0
    0.8660   -1.5000    0.0000 S   0  0  0  0  0  0  0  0  0  0  0  0
    0.8660   -2.5000    0.0000 C   0  0  0  0  0  0  0  0  0  0  0  0
    1.7321   -3.0000    0.0000 F   0  0  0  0  0  0  0  0  0  0  0  0
    0.8675    0.4975    0.0000 C   0  0  0  0  0  0  0  0  0  0  0  0
    0.8675    1.5027    0.0000 C   0  0  0  0  0  0  0  0  0  0  0  0
  1  2  1  0  0  0  0
  2  3  1  0  0  0  0
  2  4  1  0  0  0  0
  2  5  1  0  0  0  0
  5  6  2  0  0  0  0
  5  7  1  0  0  0  0
  7 17  1  0  0  0  0
  7  8  1  0  0  0  0
  8  9  1  0  0  0  0
  9 10  1  0  0  0  0
 10 11  1  0  0  0  0
 11 12  2  0  0  0  0
 11 13  1  0  0  0  0
 13 14  1  0  0  0  0
 14 15  1  0  0  0  0
 10 16  1  0  0  0  0
 16 17  1  0  0  0  0
M  END
$$$$
GIA-UNK-995-9
  -OEChem-03232022352D

 17 17  0     1  0  0  0  0  0999 V2000
    1.7321    5.0104    0.0000 C   0  0  0  0  0  0  0  0  0  0  0  0
    0.8660    4.5104    0.0000 C   0  0  0  0  0  0  0  0  0  0  0  0
    0.8660    3.5104    0.0000 C   0  0  3  0  0  0  0  0  0  0  0  0
    1.7321    3.0104    0.0000 C   0  0  0  0  0  0  0  0  0  0  0  0
    0.0000    3.0104    0.0000 C   0  0  0  0  0  0  0  0  0  0  0  0
   -0.8660    3.5104    0.0000 O   0  0  0  0  0  0  0  0  0  0  0  0
   -0.0000    2.0104    0.0000 N   0  0  0  0  0  0  0  0  0  0  0  0
   -0.8675    1.5027    0.0000 C   0  0  0  0  0  0  0  0  0  0  0  0
   -0.8675    0.4975    0.0000 C   0  0  0  0  0  0  0  0  0  0  0  0
    0.0000    0.0000    0.0000 C   0  0  0  0  0  0  0  0  0  0  0  0
    0.0000   -1.0000    0.0000 C   0  0  0  0  0  0  0  0  0  0  0  0
   -0.8660   -1.5000    0.0000 O   0  0  0  0  0  0  0  0  0  0  0  0
    0.8660   -1.5000    0.0000 S   0  0  0  0  0  0  0  0  0  0  0  0
    0.8660   -2.5000    0.0000 C   0  0  0  0  0  0  0  0  0  0  0  0
    1.7321   -3.0000    0.0000 F   0  0  0  0  0  0  0  0  0  0  0  0
    0.8675    0.4975    0.0000 C   0  0  0  0  0  0  0  0  0  0  0  0
    0.8675    1.5027    0.0000 C   0  0  0  0  0  0  0  0  0  0  0  0
  1  2  1  0  0  0  0
  2  3  1  0  0  0  0
  3  4  1  0  0  0  0
  3  5  1  0  0  0  0
  5  6  2  0  0  0  0
  5  7  1  0  0  0  0
  7 17  1  0  0  0  0
  7  8  1  0  0  0  0
  8  9  1  0  0  0  0
  9 10  1  0  0  0  0
 10 11  1  0  0  0  0
 11 12  2  0  0  0  0
 11 13  1  0  0  0  0
 13 14  1  0  0  0  0
 14 15  1  0  0  0  0
 10 16  1  0  0  0  0
 16 17  1  0  0  0  0
M  END
$$$$
GIA-UNK-995-10
  -OEChem-03232022352D

 19 20  0     0  0  0  0  0  0999 V2000
    0.8660   -1.5000    0.0000 O   0  0  0  0  0  0  0  0  0  0  0  0
   -0.0000   -1.0000    0.0000 C   0  0  0  0  0  0  0  0  0  0  0  0
   -0.8660   -1.5000    0.0000 S   0  0  0  0  0  0  0  0  0  0  0  0
   -0.8660   -2.5000    0.0000 C   0  0  0  0  0  0  0  0  0  0  0  0
   -1.7321   -3.0000    0.0000 F   0  0  0  0  0  0  0  0  0  0  0  0
    0.0000    0.0000    0.0000 C   0  0  0  0  0  0  0  0  0  0  0  0
   -0.8675    0.4975    0.0000 C   0  0  0  0  0  0  0  0  0  0  0  0
   -0.8675    1.5027    0.0000 C   0  0  0  0  0  0  0  0  0  0  0  0
    0.0000    2.0104    0.0000 N   0  0  0  0  0  0  0  0  0  0  0  0
    0.0000    3.0104    0.0000 C   0  0  0  0  0  0  0  0  0  0  0  0
    0.8660    3.5104    0.0000 O   0  0  0  0  0  0  0  0  0  0  0  0
   -0.8660    3.5104    0.0000 C   0  0  0  0  0  0  0  0  0  0  0  0
   -1.7351    3.0052    0.0000 C   0  0  0  0  0  0  0  0  0  0  0  0
   -2.6011    3.5052    0.0000 C   0  0  0  0  0  0  0  0  0  0  0  0
   -2.6070    4.5052    0.0000 C   0  0  0  0  0  0  0  0  0  0  0  0
   -1.7380    5.0104    0.0000 C   0  0  0  0  0  0  0  0  0  0  0  0
   -0.8631    4.5155    0.0000 C   0  0  0  0  0  0  0  0  0  0  0  0
    0.8675    1.5027    0.0000 C   0  0  0  0  0  0  0  0  0  0  0  0
    0.8675    0.4975    0.0000 C   0  0  0  0  0  0  0  0  0  0  0  0
  1  2  2  0  0  0  0
  2  3  1  0  0  0  0
  3  4  1  0  0  0  0
  4  5  1  0  0  0  0
  2  6  1  0  0  0  0
  6 19  1  0  0  0  0
  6  7  1  0  0  0  0
  7  8  1  0  0  0  0
  8  9  1  0  0  0  0
  9 10  1  0  0  0  0
 10 11  2  0  0  0  0
 10 12  1  0  0  0  0
 12 17  2  0  0  0  0
 12 13  1  0  0  0  0
 13 14  2  0  0  0  0
 14 15  1  0  0  0  0
 15 16  2  0  0  0  0
 16 17  1  0  0  0  0
  9 18  1  0  0  0  0
 18 19  1  0  0  0  0
M  END
$$$$
GIA-UNK-995-11
  -OEChem-03232022352D

 18 19  0     0  0  0  0  0  0999 V2000
    0.8660   -1.5000    0.0000 O   0  0  0  0  0  0  0  0  0  0  0  0
   -0.0000   -1.0000    0.0000 C   0  0  0  0  0  0  0  0  0  0  0  0
   -0.8660   -1.5000    0.0000 S   0  0  0  0  0  0  0  0  0  0  0  0
   -0.8660   -2.5000    0.0000 C   0  0  0  0  0  0  0  0  0  0  0  0
   -1.7321   -3.0000    0.0000 F   0  0  0  0  0  0  0  0  0  0  0  0
    0.0000    0.0000    0.0000 C   0  0  0  0  0  0  0  0  0  0  0  0
   -0.8675    0.4975    0.0000 C   0  0  0  0  0  0  0  0  0  0  0  0
   -0.8675    1.5027    0.0000 C   0  0  0  0  0  0  0  0  0  0  0  0
    0.0000    2.0104    0.0000 N   0  0  0  0  0  0  0  0  0  0  0  0
    0.0000    3.0104    0.0000 C   0  0  0  0  0  0  0  0  0  0  0  0
    0.8660    3.5104    0.0000 O   0  0  0  0  0  0  0  0  0  0  0  0
   -0.8660    3.5104    0.0000 C   0  0  0  0  0  0  0  0  0  0  0  0
   -1.7815    3.1039    0.0000 C   0  0  0  0  0  0  0  0  0  0  0  0
   -2.4527    3.8472    0.0000 C   0  0  0  0  0  0  0  0  0  0  0  0
   -1.9516    4.7126    0.0000 C   0  0  0  0  0  0  0  0  0  0  0  0
   -0.9720    4.5094    0.0000 O   0  0  0  0  0  0  0  0  0  0  0  0
    0.8675    1.5027    0.0000 C   0  0  0  0  0  0  0  0  0  0  0  0
    0.8675    0.4975    0.0000 C   0  0  0  0  0  0  0  0  0  0  0  0
  1  2  2  0  0  0  0
  2  3  1  0  0  0  0
  3  4  1  0  0  0  0
  4  5  1  0  0  0  0
  2  6  1  0  0  0  0
  6 18  1  0  0  0  0
  6  7  1  0  0  0  0
  7  8  1  0  0  0  0
  8  9  1  0  0  0  0
  9 10  1  0  0  0  0
 10 11  2  0  0  0  0
 10 12  1  0  0  0  0
 12 16  1  0  0  0  0
 12 13  2  0  0  0  0
 13 14  1  0  0  0  0
 14 15  2  0  0  0  0
 15 16  1  0  0  0  0
  9 17  1  0  0  0  0
 17 18  1  0  0  0  0
M  END
$$$$
GIA-UNK-995-12
  -OEChem-03232022352D

 18 19  0     0  0  0  0  0  0999 V2000
    0.8660   -1.5000    0.0000 O   0  0  0  0  0  0  0  0  0  0  0  0
   -0.0000   -1.0000    0.0000 C   0  0  0  0  0  0  0  0  0  0  0  0
   -0.8660   -1.5000    0.0000 S   0  0  0  0  0  0  0  0  0  0  0  0
   -0.8660   -2.5000    0.0000 C   0  0  0  0  0  0  0  0  0  0  0  0
   -1.7321   -3.0000    0.0000 F   0  0  0  0  0  0  0  0  0  0  0  0
    0.0000    0.0000    0.0000 C   0  0  0  0  0  0  0  0  0  0  0  0
   -0.8675    0.4975    0.0000 C   0  0  0  0  0  0  0  0  0  0  0  0
   -0.8675    1.5027    0.0000 C   0  0  0  0  0  0  0  0  0  0  0  0
    0.0000    2.0104    0.0000 N   0  0  0  0  0  0  0  0  0  0  0  0
    0.0000    3.0104    0.0000 C   0  0  0  0  0  0  0  0  0  0  0  0
    0.8660    3.5104    0.0000 O   0  0  0  0  0  0  0  0  0  0  0  0
   -0.8660    3.5104    0.0000 C   0  0  0  0  0  0  0  0  0  0  0  0
   -1.7815    3.1039    0.0000 C   0  0  0  0  0  0  0  0  0  0  0  0
   -2.4527    3.8472    0.0000 C   0  0  0  0  0  0  0  0  0  0  0  0
   -1.9516    4.7126    0.0000 C   0  0  0  0  0  0  0  0  0  0  0  0
   -0.9720    4.5094    0.0000 S   0  0  0  0  0  0  0  0  0  0  0  0
    0.8675    1.5027    0.0000 C   0  0  0  0  0  0  0  0  0  0  0  0
    0.8675    0.4975    0.0000 C   0  0  0  0  0  0  0  0  0  0  0  0
  1  2  2  0  0  0  0
  2  3  1  0  0  0  0
  3  4  1  0  0  0  0
  4  5  1  0  0  0  0
  2  6  1  0  0  0  0
  6 18  1  0  0  0  0
  6  7  1  0  0  0  0
  7  8  1  0  0  0  0
  8  9  1  0  0  0  0
  9 10  1  0  0  0  0
 10 11  2  0  0  0  0
 10 12  1  0  0  0  0
 12 16  1  0  0  0  0
 12 13  2  0  0  0  0
 13 14  1  0  0  0  0
 14 15  2  0  0  0  0
 15 16  1  0  0  0  0
  9 17  1  0  0  0  0
 17 18  1  0  0  0  0
M  END
$$$$
GIA-UNK-995-13
  -OEChem-03232022352D

 18 19  0     0  0  0  0  0  0999 V2000
    0.8660   -1.5000    0.0000 O   0  0  0  0  0  0  0  0  0  0  0  0
   -0.0000   -1.0000    0.0000 C   0  0  0  0  0  0  0  0  0  0  0  0
   -0.8660   -1.5000    0.0000 S   0  0  0  0  0  0  0  0  0  0  0  0
   -0.8660   -2.5000    0.0000 C   0  0  0  0  0  0  0  0  0  0  0  0
   -1.7321   -3.0000    0.0000 F   0  0  0  0  0  0  0  0  0  0  0  0
    0.0000    0.0000    0.0000 C   0  0  0  0  0  0  0  0  0  0  0  0
   -0.8675    0.4975    0.0000 C   0  0  0  0  0  0  0  0  0  0  0  0
   -0.8675    1.5027    0.0000 C   0  0  0  0  0  0  0  0  0  0  0  0
    0.0000    2.0104    0.0000 N   0  0  0  0  0  0  0  0  0  0  0  0
    0.0000    3.0104    0.0000 C   0  0  0  0  0  0  0  0  0  0  0  0
    0.8660    3.5104    0.0000 O   0  0  0  0  0  0  0  0  0  0  0  0
   -0.8660    3.5104    0.0000 C   0  0  0  0  0  0  0  0  0  0  0  0
   -1.7815    3.1039    0.0000 C   0  0  0  0  0  0  0  0  0  0  0  0
   -2.4525    3.8472    0.0000 C   0  0  0  0  0  0  0  0  0  0  0  0
   -1.9513    4.7126    0.0000 C   0  0  0  0  0  0  0  0  0  0  0  0
   -0.9720    4.5092    0.0000 C   0  0  0  0  0  0  0  0  0  0  0  0
    0.8675    1.5027    0.0000 C   0  0  0  0  0  0  0  0  0  0  0  0
    0.8675    0.4975    0.0000 C   0  0  0  0  0  0  0  0  0  0  0  0
  1  2  2  0  0  0  0
  2  3  1  0  0  0  0
  3  4  1  0  0  0  0
  4  5  1  0  0  0  0
  2  6  1  0  0  0  0
  6 18  1  0  0  0  0
  6  7  1  0  0  0  0
  7  8  1  0  0  0  0
  8  9  1  0  0  0  0
  9 10  1  0  0  0  0
 10 11  2  0  0  0  0
 10 12  1  0  0  0  0
 12 16  1  0  0  0  0
 12 13  1  0  0  0  0
 13 14  1  0  0  0  0
 14 15  1  0  0  0  0
 15 16  1  0  0  0  0
  9 17  1  0  0  0  0
 17 18  1  0  0  0  0
M  END
$$$$
GIA-UNK-995-14
  -OEChem-03232022352D

 20 21  0     0  0  0  0  0  0999 V2000
    0.8660   -1.5000    0.0000 O   0  0  0  0  0  0  0  0  0  0  0  0
   -0.0000   -1.0000    0.0000 C   0  0  0  0  0  0  0  0  0  0  0  0
   -0.8660   -1.5000    0.0000 S   0  0  0  0  0  0  0  0  0  0  0  0
   -0.8660   -2.5000    0.0000 C   0  0  0  0  0  0  0  0  0  0  0  0
   -1.7321   -3.0000    0.0000 F   0  0  0  0  0  0  0  0  0  0  0  0
    0.0000    0.0000    0.0000 C   0  0  0  0  0  0  0  0  0  0  0  0
   -0.8675    0.4975    0.0000 C   0  0  0  0  0  0  0  0  0  0  0  0
   -0.8675    1.5027    0.0000 C   0  0  0  0  0  0  0  0  0  0  0  0
    0.0000    2.0104    0.0000 N   0  0  0  0  0  0  0  0  0  0  0  0
    0.0000    3.0104    0.0000 C   0  0  0  0  0  0  0  0  0  0  0  0
    0.8660    3.5104    0.0000 O   0  0  0  0  0  0  0  0  0  0  0  0
   -0.8660    3.5104    0.0000 C   0  0  0  0  0  0  0  0  0  0  0  0
   -1.7328    3.0116    0.0000 C   0  0  0  0  0  0  0  0  0  0  0  0
   -2.6010    3.5079    0.0000 C   0  0  0  0  0  0  0  0  0  0  0  0
   -2.6025    4.5131    0.0000 C   0  0  0  0  0  0  0  0  0  0  0  0
   -1.7357    5.0220    0.0000 C   0  0  0  0  0  0  0  0  0  0  0  0
   -0.8675    4.5156    0.0000 C   0  0  0  0  0  0  0  0  0  0  0  0
   -0.0007    5.0143    0.0000 F   0  0  0  0  0  0  0  0  0  0  0  0
    0.8675    1.5027    0.0000 C   0  0  0  0  0  0  0  0  0  0  0  0
    0.8675    0.4975    0.0000 C   0  0  0  0  0  0  0  0  0  0  0  0
  1  2  2  0  0  0  0
  2  3  1  0  0  0  0
  3  4  1  0  0  0  0
  4  5  1  0  0  0  0
  2  6  1  0  0  0  0
  6 20  1  0  0  0  0
  6  7  1  0  0  0  0
  7  8  1  0  0  0  0
  8  9  1  0  0  0  0
  9 10  1  0  0  0  0
 10 11  2  0  0  0  0
 10 12  1  0  0  0  0
 12 17  2  0  0  0  0
 12 13  1  0  0  0  0
 13 14  2  0  0  0  0
 14 15  1  0  0  0  0
 15 16  2  0  0  0  0
 16 17  1  0  0  0  0
 17 18  1  0  0  0  0
  9 19  1  0  0  0  0
 19 20  1  0  0  0  0
M  END
$$$$
GIA-UNK-995-15
  -OEChem-03232022352D

 20 21  0     0  0  0  0  0  0999 V2000
    0.8660   -1.5000    0.0000 O   0  0  0  0  0  0  0  0  0  0  0  0
   -0.0000   -1.0000    0.0000 C   0  0  0  0  0  0  0  0  0  0  0  0
   -0.8660   -1.5000    0.0000 S   0  0  0  0  0  0  0  0  0  0  0  0
   -0.8660   -2.5000    0.0000 C   0  0  0  0  0  0  0  0  0  0  0  0
   -1.7321   -3.0000    0.0000 F   0  0  0  0  0  0  0  0  0  0  0  0
    0.0000    0.0000    0.0000 C   0  0  0  0  0  0  0  0  0  0  0  0
   -0.8675    0.4975    0.0000 C   0  0  0  0  0  0  0  0  0  0  0  0
   -0.8675    1.5027    0.0000 C   0  0  0  0  0  0  0  0  0  0  0  0
    0.0000    2.0104    0.0000 N   0  0  0  0  0  0  0  0  0  0  0  0
    0.0000    3.0104    0.0000 C   0  0  0  0  0  0  0  0  0  0  0  0
    0.8660    3.5104    0.0000 O   0  0  0  0  0  0  0  0  0  0  0  0
   -0.8660    3.5104    0.0000 C   0  0  0  0  0  0  0  0  0  0  0  0
   -0.8631    4.5156    0.0000 C   0  0  0  0  0  0  0  0  0  0  0  0
   -1.7291    5.0157    0.0000 C   0  0  0  0  0  0  0  0  0  0  0  0
   -2.5981    4.5207    0.0000 C   0  0  0  0  0  0  0  0  0  0  0  0
   -2.6010    3.5155    0.0000 C   0  0  0  0  0  0  0  0  0  0  0  0
   -3.4700    3.0206    0.0000 F   0  0  0  0  0  0  0  0  0  0  0  0
   -1.7350    3.0053    0.0000 C   0  0  0  0  0  0  0  0  0  0  0  0
    0.8675    1.5027    0.0000 C   0  0  0  0  0  0  0  0  0  0  0  0
    0.8675    0.4975    0.0000 C   0  0  0  0  0  0  0  0  0  0  0  0
  1  2  2  0  0  0  0
  2  3  1  0  0  0  0
  3  4  1  0  0  0  0
  4  5  1  0  0  0  0
  2  6  1  0  0  0  0
  6 20  1  0  0  0  0
  6  7  1  0  0  0  0
  7  8  1  0  0  0  0
  8  9  1  0  0  0  0
  9 10  1  0  0  0  0
 10 11  2  0  0  0  0
 10 12  1  0  0  0  0
 12 18  2  0  0  0  0
 12 13  1  0  0  0  0
 13 14  2  0  0  0  0
 14 15  1  0  0  0  0
 15 16  2  0  0  0  0
 16 17  1  0  0  0  0
 16 18  1  0  0  0  0
  9 19  1  0  0  0  0
 19 20  1  0  0  0  0
M  END
$$$$
GIA-UNK-995-16
  -OEChem-03232022352D

 20 21  0     0  0  0  0  0  0999 V2000
    0.8660   -1.5000    0.0000 O   0  0  0  0  0  0  0  0  0  0  0  0
   -0.0000   -1.0000    0.0000 C   0  0  0  0  0  0  0  0  0  0  0  0
   -0.8660   -1.5000    0.0000 S   0  0  0  0  0  0  0  0  0  0  0  0
   -0.8660   -2.5000    0.0000 C   0  0  0  0  0  0  0  0  0  0  0  0
   -1.7321   -3.0000    0.0000 F   0  0  0  0  0  0  0  0  0  0  0  0
    0.0000    0.0000    0.0000 C   0  0  0  0  0  0  0  0  0  0  0  0
   -0.8675    0.4975    0.0000 C   0  0  0  0  0  0  0  0  0  0  0  0
   -0.8675    1.5027    0.0000 C   0  0  0  0  0  0  0  0  0  0  0  0
    0.0000    2.0104    0.0000 N   0  0  0  0  0  0  0  0  0  0  0  0
    0.0000    3.0104    0.0000 C   0  0  0  0  0  0  0  0  0  0  0  0
    0.8660    3.5104    0.0000 O   0  0  0  0  0  0  0  0  0  0  0  0
   -0.8660    3.5104    0.0000 C   0  0  0  0  0  0  0  0  0  0  0  0
   -1.7351    3.0052    0.0000 C   0  0  0  0  0  0  0  0  0  0  0  0
   -2.6011    3.5052    0.0000 C   0  0  0  0  0  0  0  0  0  0  0  0
   -2.6070    4.5052    0.0000 C   0  0  0  0  0  0  0  0  0  0  0  0
   -3.4752    5.0014    0.0000 F   0  0  0  0  0  0  0  0  0  0  0  0
   -1.7380    5.0104    0.0000 C   0  0  0  0  0  0  0  0  0  0  0  0
   -0.8631    4.5155    0.0000 C   0  0  0  0  0  0  0  0  0  0  0  0
    0.8675    1.5027    0.0000 C   0  0  0  0  0  0  0  0  0  0  0  0
    0.8675    0.4975    0.0000 C   0  0  0  0  0  0  0  0  0  0  0  0
  1  2  2  0  0  0  0
  2  3  1  0  0  0  0
  3  4  1  0  0  0  0
  4  5  1  0  0  0  0
  2  6  1  0  0  0  0
  6 20  1  0  0  0  0
  6  7  1  0  0  0  0
  7  8  1  0  0  0  0
  8  9  1  0  0  0  0
  9 10  1  0  0  0  0
 10 11  2  0  0  0  0
 10 12  1  0  0  0  0
 12 18  2  0  0  0  0
 12 13  1  0  0  0  0
 13 14  2  0  0  0  0
 14 15  1  0  0  0  0
 15 16  1  0  0  0  0
 15 17  2  0  0  0  0
 17 18  1  0  0  0  0
  9 19  1  0  0  0  0
 19 20  1  0  0  0  0
M  END
$$$$
GIA-UNK-995-17
  -OEChem-03232022352D

 18 19  0     0  0  0  0  0  0999 V2000
    0.8660   -1.5000    0.0000 O   0  0  0  0  0  0  0  0  0  0  0  0
   -0.0000   -1.0000    0.0000 C   0  0  0  0  0  0  0  0  0  0  0  0
   -0.8660   -1.5000    0.0000 S   0  0  0  0  0  0  0  0  0  0  0  0
   -0.8660   -2.5000    0.0000 C   0  0  0  0  0  0  0  0  0  0  0  0
   -1.7321   -3.0000    0.0000 F   0  0  0  0  0  0  0  0  0  0  0  0
    0.0000    0.0000    0.0000 C   0  0  0  0  0  0  0  0  0  0  0  0
   -0.8675    0.4975    0.0000 C   0  0  0  0  0  0  0  0  0  0  0  0
   -0.8675    1.5027    0.0000 C   0  0  0  0  0  0  0  0  0  0  0  0
    0.0000    2.0104    0.0000 N   0  0  0  0  0  0  0  0  0  0  0  0
    0.0000    3.0104    0.0000 C   0  0  0  0  0  0  0  0  0  0  0  0
    0.8660    3.5104    0.0000 O   0  0  0  0  0  0  0  0  0  0  0  0
   -0.8660    3.5104    0.0000 C   0  0  0  0  0  0  0  0  0  0  0  0
   -1.7815    3.1039    0.0000 C   0  0  0  0  0  0  0  0  0  0  0  0
   -2.4527    3.8472    0.0000 C   0  0  0  0  0  0  0  0  0  0  0  0
   -1.9516    4.7126    0.0000 C   0  0  0  0  0  0  0  0  0  0  0  0
   -0.9720    4.5094    0.0000 N   0  0  0  0  0  0  0  0  0  0  0  0
    0.8675    1.5027    0.0000 C   0  0  0  0  0  0  0  0  0  0  0  0
    0.8675    0.4975    0.0000 C   0  0  0  0  0  0  0  0  0  0  0  0
  1  2  2  0  0  0  0
  2  3  1  0  0  0  0
  3  4  1  0  0  0  0
  4  5  1  0  0  0  0
  2  6  1  0  0  0  0
  6 18  1  0  0  0  0
  6  7  1  0  0  0  0
  7  8  1  0  0  0  0
  8  9  1  0  0  0  0
  9 10  1  0  0  0  0
 10 11  2  0  0  0  0
 10 12  1  0  0  0  0
 12 16  1  0  0  0  0
 12 13  2  0  0  0  0
 13 14  1  0  0  0  0
 14 15  2  0  0  0  0
 15 16  1  0  0  0  0
  9 17  1  0  0  0  0
 17 18  1  0  0  0  0
M  END
$$$$
TRI-UNI-974-1
  -OEChem-03232022352D

 25 27  0     0  0  0  0  0  0999 V2000
    3.4656    4.0129    0.0000 O   0  0  0  0  0  0  0  0  0  0  0  0
    2.5996    4.5129    0.0000 C   0  0  0  0  0  0  0  0  0  0  0  0
    1.7335    4.0129    0.0000 N   0  0  0  0  0  0  0  0  0  0  0  0
    1.7335    3.0129    0.0000 C   0  0  0  0  0  0  0  0  0  0  0  0
    0.8675    2.5129    0.0000 C   0  0  0  0  0  0  0  0  0  0  0  0
    0.8675    1.5129    0.0000 N   0  0  0  0  0  0  0  0  0  0  0  0
    0.0000    1.0052    0.0000 C   0  0  0  0  0  0  0  0  0  0  0  0
    0.0000    0.0000    0.0000 C   0  0  0  0  0  0  0  0  0  0  0  0
    0.8675   -0.4975    0.0000 N   0  0  0  0  0  0  0  0  0  0  0  0
    0.8675   -1.4975    0.0000 C   0  0  0  0  0  0  0  0  0  0  0  0
    1.7395   -1.9975    0.0000 C   0  0  0  0  0  0  0  0  0  0  0  0
    1.7396   -2.9976    0.0000 C   0  0  0  0  0  0  0  0  0  0  0  0
    0.8764   -3.5026    0.0000 C   0  0  0  0  0  0  0  0  0  0  0  0
    0.0044   -3.0026    0.0000 C   0  0  0  0  0  0  0  0  0  0  0  0
   -0.0045   -1.9975    0.0000 C   0  0  0  0  0  0  0  0  0  0  0  0
    1.7350    0.0000    0.0000 C   0  0  0  0  0  0  0  0  0  0  0  0
    1.7350    1.0052    0.0000 C   0  0  0  0  0  0  0  0  0  0  0  0
    2.5996    5.5129    0.0000 N   0  0  0  0  0  0  0  0  0  0  0  0
    3.4656    6.0129    0.0000 C   0  0  0  0  0  0  0  0  0  0  0  0
    3.4656    7.0129    0.0000 C   0  0  0  0  0  0  0  0  0  0  0  0
    2.5936    7.5129    0.0000 C   0  0  0  0  0  0  0  0  0  0  0  0
    2.5935    8.5130    0.0000 C   0  0  0  0  0  0  0  0  0  0  0  0
    3.4566    9.0180    0.0000 C   0  0  0  0  0  0  0  0  0  0  0  0
    4.3286    8.5180    0.0000 C   0  0  0  0  0  0  0  0  0  0  0  0
    4.3375    7.5129    0.0000 N   0  0  0  0  0  0  0  0  0  0  0  0
  1  2  2  0  0  0  0
  2  3  1  0  0  0  0
  3  4  1  0  0  0  0
  4  5  1  0  0  0  0
  5  6  1  0  0  0  0
  6 17  1  0  0  0  0
  6  7  1  0  0  0  0
  7  8  1  0  0  0  0
  8  9  1  0  0  0  0
  9 10  1  0  0  0  0
 10 15  2  0  0  0  0
 10 11  1  0  0  0  0
 11 12  2  0  0  0  0
 12 13  1  0  0  0  0
 13 14  2  0  0  0  0
 14 15  1  0  0  0  0
  9 16  1  0  0  0  0
 16 17  1  0  0  0  0
  2 18  1  0  0  0  0
 18 19  1  0  0  0  0
 19 20  1  0  0  0  0
 20 25  2  0  0  0  0
 20 21  1  0  0  0  0
 21 22  2  0  0  0  0
 22 23  1  0  0  0  0
 23 24  2  0  0  0  0
 24 25  1  0  0  0  0
M  END
$$$$
TRI-UNI-974-2
  -OEChem-03232022352D

 26 28  0     0  0  0  0  0  0999 V2000
    0.8718    5.5180    0.0000 C   0  0  0  0  0  0  0  0  0  0  0  0
    0.8674    4.5181    0.0000 C   0  0  0  0  0  0  0  0  0  0  0  0
    1.7372    4.0142    0.0000 C   0  0  0  0  0  0  0  0  0  0  0  0
    1.7328    3.0142    0.0000 C   0  0  0  0  0  0  0  0  0  0  0  0
    0.8675    2.5129    0.0000 C   0  0  0  0  0  0  0  0  0  0  0  0
    0.8675    1.5129    0.0000 N   0  0  0  0  0  0  0  0  0  0  0  0
    0.0000    1.0052    0.0000 C   0  0  0  0  0  0  0  0  0  0  0  0
    0.0000    0.0000    0.0000 C   0  0  0  0  0  0  0  0  0  0  0  0
    0.8675   -0.4975    0.0000 N   0  0  0  0  0  0  0  0  0  0  0  0
    0.8675   -1.4975    0.0000 C   0  0  0  0  0  0  0  0  0  0  0  0
    1.7335   -1.9975    0.0000 C   0  0  0  0  0  0  0  0  0  0  0  0
    1.7335   -2.9975    0.0000 N   0  0  0  0  0  0  0  0  0  0  0  0
    2.5996   -3.4975    0.0000 C   0  0  0  0  0  0  0  0  0  0  0  0
    3.4656   -2.9975    0.0000 O   0  0  0  0  0  0  0  0  0  0  0  0
    2.5996   -4.4975    0.0000 N   0  0  0  0  0  0  0  0  0  0  0  0
    3.4656   -4.9975    0.0000 C   0  0  0  0  0  0  0  0  0  0  0  0
    3.4656   -5.9975    0.0000 C   0  0  0  0  0  0  0  0  0  0  0  0
    4.3376   -6.4975    0.0000 C   0  0  0  0  0  0  0  0  0  0  0  0
    4.3376   -7.4976    0.0000 C   0  0  0  0  0  0  0  0  0  0  0  0
    3.4745   -8.0026    0.0000 C   0  0  0  0  0  0  0  0  0  0  0  0
    2.6025   -7.5026    0.0000 C   0  0  0  0  0  0  0  0  0  0  0  0
    2.5936   -6.4975    0.0000 N   0  0  0  0  0  0  0  0  0  0  0  0
    1.7350    0.0000    0.0000 C   0  0  0  0  0  0  0  0  0  0  0  0
    1.7350    1.0052    0.0000 C   0  0  0  0  0  0  0  0  0  0  0  0
   -0.0023    3.0168    0.0000 C   0  0  0  0  0  0  0  0  0  0  0  0
   -0.0068    4.0219    0.0000 C   0  0  0  0  0  0  0  0  0  0  0  0
  1  2  1  0  0  0  0
  2 26  2  0  0  0  0
  2  3  1  0  0  0  0
  3  4  2  0  0  0  0
  4  5  1  0  0  0  0
  5  6  1  0  0  0  0
  6 24  1  0  0  0  0
  6  7  1  0  0  0  0
  7  8  1  0  0  0  0
  8  9  1  0  0  0  0
  9 10  1  0  0  0  0
 10 11  1  0  0  0  0
 11 12  1  0  0  0  0
 12 13  1  0  0  0  0
 13 14  2  0  0  0  0
 13 15  1  0  0  0  0
 15 16  1  0  0  0  0
 16 17  1  0  0  0  0
 17 22  2  0  0  0  0
 17 18  1  0  0  0  0
 18 19  2  0  0  0  0
 19 20  1  0  0  0  0
 20 21  2  0  0  0  0
 21 22  1  0  0  0  0
  9 23  1  0  0  0  0
 23 24  1  0  0  0  0
  5 25  2  0  0  0  0
 25 26  1  0  0  0  0
M  END
$$$$
TRI-UNI-974-3
  -OEChem-03232022352D

 29 31  0     0  0  0  0  0  0999 V2000
    3.4656    4.0129    0.0000 O   0  0  0  0  0  0  0  0  0  0  0  0
    2.5996    4.5129    0.0000 C   0  0  0  0  0  0  0  0  0  0  0  0
    1.7335    4.0129    0.0000 N   0  0  0  0  0  0  0  0  0  0  0  0
    1.7335    3.0129    0.0000 C   0  0  0  0  0  0  0  0  0  0  0  0
    0.8675    2.5129    0.0000 C   0  0  0  0  0  0  0  0  0  0  0  0
    0.8675    1.5129    0.0000 N   0  0  0  0  0  0  0  0  0  0  0  0
    0.0000    1.0052    0.0000 C   0  0  0  0  0  0  0  0  0  0  0  0
    0.0000    0.0000    0.0000 C   0  0  0  0  0  0  0  0  0  0  0  0
    0.8675   -0.4975    0.0000 N   0  0  0  0  0  0  0  0  0  0  0  0
    0.8675   -1.4975    0.0000 C   0  0  0  0  0  0  0  0  0  0  0  0
    1.7395   -1.9975    0.0000 C   0  0  0  0  0  0  0  0  0  0  0  0
    1.7396   -2.9976    0.0000 C   0  0  0  0  0  0  0  0  0  0  0  0
    0.8764   -3.5026    0.0000 C   0  0  0  0  0  0  0  0  0  0  0  0
    0.8808   -4.5026    0.0000 C   0  0  0  0  0  0  0  0  0  0  0  0
    1.8808   -4.4982    0.0000 F   0  0  0  0  0  0  0  0  0  0  0  0
   -0.1191   -4.5070    0.0000 F   0  0  0  0  0  0  0  0  0  0  0  0
    0.8853   -5.5026    0.0000 F   0  0  0  0  0  0  0  0  0  0  0  0
    0.0044   -3.0026    0.0000 C   0  0  0  0  0  0  0  0  0  0  0  0
   -0.0045   -1.9975    0.0000 C   0  0  0  0  0  0  0  0  0  0  0  0
    1.7350    0.0000    0.0000 C   0  0  0  0  0  0  0  0  0  0  0  0
    1.7350    1.0052    0.0000 C   0  0  0  0  0  0  0  0  0  0  0  0
    2.5996    5.5129    0.0000 N   0  0  0  0  0  0  0  0  0  0  0  0
    3.4656    6.0129    0.0000 C   0  0  0  0  0  0  0  0  0  0  0  0
    3.4656    7.0129    0.0000 C   0  0  0  0  0  0  0  0  0  0  0  0
    2.5936    7.5129    0.0000 C   0  0  0  0  0  0  0  0  0  0  0  0
    2.5935    8.5130    0.0000 C   0  0  0  0  0  0  0  0  0  0  0  0
    3.4566    9.0180    0.0000 C   0  0  0  0  0  0  0  0  0  0  0  0
    4.3286    8.5180    0.0000 C   0  0  0  0  0  0  0  0  0  0  0  0
    4.3375    7.5129    0.0000 N   0  0  0  0  0  0  0  0  0  0  0  0
  1  2  2  0  0  0  0
  2  3  1  0  0  0  0
  3  4  1  0  0  0  0
  4  5  1  0  0  0  0
  5  6  1  0  0  0  0
  6 21  1  0  0  0  0
  6  7  1  0  0  0  0
  7  8  1  0  0  0  0
  8  9  1  0  0  0  0
  9 10  1  0  0  0  0
 10 19  2  0  0  0  0
 10 11  1  0  0  0  0
 11 12  2  0  0  0  0
 12 13  1  0  0  0  0
 13 14  1  0  0  0  0
 14 15  1  0  0  0  0
 14 16  1  0  0  0  0
 14 17  1  0  0  0  0
 13 18  2  0  0  0  0
 18 19  1  0  0  0  0
  9 20  1  0  0  0  0
 20 21  1  0  0  0  0
  2 22  1  0  0  0  0
 22 23  1  0  0  0  0
 23 24  1  0  0  0  0
 24 29  2  0  0  0  0
 24 25  1  0  0  0  0
 25 26  2  0  0  0  0
 26 27  1  0  0  0  0
 27 28  2  0  0  0  0
 28 29  1  0  0  0  0
M  END
$$$$
HAR-NEW-972-1
  -OEChem-03232022352D

 21 23  0     1  0  0  0  0  0999 V2000
   -1.7320   -0.0025    0.0000 N   0  0  0  0  0  0  0  0  0  0  0  0
   -0.8653   -0.5013    0.0000 C   0  0  0  0  0  0  0  0  0  0  0  0
    0.0000    0.0000    0.0000 C   0  0  3  0  0  0  0  0  0  0  0  0
    0.0000    1.0058    0.0000 C   0  0  0  0  0  0  0  0  0  0  0  0
    0.8680    1.5138    0.0000 C   0  0  0  0  0  0  0  0  0  0  0  0
    1.7360    1.0058    0.0000 C   0  0  0  0  0  0  0  0  0  0  0  0
    2.6938    1.3169    0.0000 N   0  0  0  0  0  0  0  0  0  0  0  0
    3.2858    0.5023    0.0000 C   0  0  0  0  0  0  0  0  0  0  0  0
    4.2858    0.5024    0.0000 C   0  0  3  0  0  0  0  0  0  0  0  0
    4.7870    1.3677    0.0000 C   0  0  0  0  0  0  0  0  0  0  0  0
    5.7870    1.3721    0.0000 C   0  0  0  0  0  0  0  0  0  0  0  0
    6.2910    0.5024    0.0000 C   0  0  0  0  0  0  0  0  0  0  0  0
    5.7948   -0.3718    0.0000 N   0  0  0  0  0  0  0  0  0  0  0  0
    6.2962   -1.2371    0.0000 C   0  0  0  0  0  0  0  0  0  0  0  0
    5.7975   -2.1039    0.0000 O   0  0  0  0  0  0  0  0  0  0  0  0
    7.2962   -1.2356    0.0000 C   0  0  0  0  0  0  0  0  0  0  0  0
    7.7975   -2.1009    0.0000 Cl  0  0  0  0  0  0  0  0  0  0  0  0
    4.7897   -0.3674    0.0000 C   0  0  0  0  0  0  0  0  0  0  0  0
    2.6938   -0.3125    0.0000 C   0  0  0  0  0  0  0  0  0  0  0  0
    1.7360   -0.0012    0.0000 C   0  0  0  0  0  0  0  0  0  0  0  0
    0.8680   -0.4978    0.0000 C   0  0  0  0  0  0  0  0  0  0  0  0
  1  2  1  0  0  0  0
  2  3  1  0  0  0  0
  3 21  1  0  0  0  0
  3  4  1  0  0  0  0
  4  5  1  0  0  0  0
  5  6  1  0  0  0  0
  6 20  2  0  0  0  0
  6  7  1  0  0  0  0
  7  8  1  0  0  0  0
  8  9  1  0  0  0  0
  9 18  1  0  0  0  0
  9 10  1  0  0  0  0
 10 11  1  0  0  0  0
 11 12  1  0  0  0  0
 12 13  1  0  0  0  0
 13 14  1  0  0  0  0
 14 15  2  0  0  0  0
 14 16  1  0  0  0  0
 16 17  1  0  0  0  0
 13 18  1  0  0  0  0
  8 19  2  0  0  0  0
 19 20  1  0  0  0  0
 20 21  1  0  0  0  0
M  END
$$$$
HAR-NEW-972-2
  -OEChem-03232022352D

 21 23  0     1  0  0  0  0  0999 V2000
   -0.8705    2.5032    0.0000 N   0  0  0  0  0  0  0  0  0  0  0  0
   -0.8675    1.5032    0.0000 C   0  0  0  0  0  0  0  0  0  0  0  0
    0.0000    1.0058    0.0000 C   0  0  3  0  0  0  0  0  0  0  0  0
    0.0000    0.0000    0.0000 C   0  0  0  0  0  0  0  0  0  0  0  0
    0.8680   -0.4978    0.0000 C   0  0  0  0  0  0  0  0  0  0  0  0
    1.7360   -0.0012    0.0000 C   0  0  0  0  0  0  0  0  0  0  0  0
    2.6938   -0.3125    0.0000 N   0  0  0  0  0  0  0  0  0  0  0  0
    3.2858    0.5023    0.0000 C   0  0  0  0  0  0  0  0  0  0  0  0
    4.2858    0.5024    0.0000 C   0  0  3  0  0  0  0  0  0  0  0  0
    4.7870    1.3677    0.0000 C   0  0  0  0  0  0  0  0  0  0  0  0
    5.7870    1.3721    0.0000 C   0  0  0  0  0  0  0  0  0  0  0  0
    6.2910    0.5024    0.0000 C   0  0  0  0  0  0  0  0  0  0  0  0
    5.7948   -0.3718    0.0000 N   0  0  0  0  0  0  0  0  0  0  0  0
    6.2962   -1.2371    0.0000 C   0  0  0  0  0  0  0  0  0  0  0  0
    5.7975   -2.1039    0.0000 O   0  0  0  0  0  0  0  0  0  0  0  0
    7.2962   -1.2356    0.0000 C   0  0  0  0  0  0  0  0  0  0  0  0
    7.7975   -2.1009    0.0000 Cl  0  0  0  0  0  0  0  0  0  0  0  0
    4.7897   -0.3674    0.0000 C   0  0  0  0  0  0  0  0  0  0  0  0
    2.6938    1.3169    0.0000 S   0  0  0  0  0  0  0  0  0  0  0  0
    1.7360    1.0058    0.0000 C   0  0  0  0  0  0  0  0  0  0  0  0
    0.8680    1.5138    0.0000 C   0  0  0  0  0  0  0  0  0  0  0  0
  1  2  1  0  0  0  0
  2  3  1  0  0  0  0
  3 21  1  0  0  0  0
  3  4  1  0  0  0  0
  4  5  1  0  0  0  0
  5  6  1  0  0  0  0
  6 20  2  0  0  0  0
  6  7  1  0  0  0  0
  7  8  2  0  0  0  0
  8  9  1  0  0  0  0
  9 18  1  0  0  0  0
  9 10  1  0  0  0  0
 10 11  1  0  0  0  0
 11 12  1  0  0  0  0
 12 13  1  0  0  0  0
 13 14  1  0  0  0  0
 14 15  2  0  0  0  0
 14 16  1  0  0  0  0
 16 17  1  0  0  0  0
 13 18  1  0  0  0  0
  8 19  1  0  0  0  0
 19 20  1  0  0  0  0
 20 21  1  0  0  0  0
M  END
$$$$
AGN-NEW-953-1
  -OEChem-03232022352D

 22 23  0     0  0  0  0  0  0999 V2000
   -0.0000   -1.0000    0.0000 C   0  0  0  0  0  0  0  0  0  0  0  0
    0.0000    0.0000    0.0000 C   0  0  0  0  0  0  0  0  0  0  0  0
   -0.8675    0.4975    0.0000 C   0  0  0  0  0  0  0  0  0  0  0  0
   -0.8675    1.5027    0.0000 C   0  0  0  0  0  0  0  0  0  0  0  0
    0.0000    2.0104    0.0000 N   0  0  0  0  0  0  0  0  0  0  0  0
    0.8675    1.5027    0.0000 C   0  0  0  0  0  0  0  0  0  0  0  0
    2.3856    2.3732    0.0000 F   0  0  0  0  0  0  0  0  0  0  0  0
    0.8675    0.4975    0.0000 C   0  0  0  0  0  0  0  0  0  0  0  0
    1.7328   -0.0038    0.0000 N   0  0  0  0  0  0  0  0  0  0  0  0
    2.5995    0.4950    0.0000 S   0  0  0  0  0  0  0  0  0  0  0  0
    2.1008    1.3617    0.0000 O   0  0  0  0  0  0  0  0  0  0  0  0
    3.0983   -0.3718    0.0000 O   0  0  0  0  0  0  0  0  0  0  0  0
    3.4663    0.9937    0.0000 C   0  0  0  0  0  0  0  0  0  0  0  0
    3.4678    1.9937    0.0000 C   0  0  0  0  0  0  0  0  0  0  0  0
    4.3345    2.4925    0.0000 N   0  0  0  0  0  0  0  0  0  0  0  0
    4.3360    3.4925    0.0000 C   0  0  0  0  0  0  0  0  0  0  0  0
    3.4707    3.9937    0.0000 O   0  0  0  0  0  0  0  0  0  0  0  0
    5.2027    3.9912    0.0000 C   0  0  0  0  0  0  0  0  0  0  0  0
    5.3098    4.9871    0.0000 C   0  0  0  0  0  0  0  0  0  0  0  0
    6.2894    5.1953    0.0000 C   0  0  0  0  0  0  0  0  0  0  0  0
    6.7871    4.3279    0.0000 C   0  0  0  0  0  0  0  0  0  0  0  0
    6.1203    3.5821    0.0000 S   0  0  0  0  0  0  0  0  0  0  0  0
  1  2  1  0  0  0  0
  2  8  2  0  0  0  0
  2  3  1  0  0  0  0
  3  4  2  0  0  0  0
  4  5  1  0  0  0  0
  5  6  2  0  0  0  0
  6  7  1  0  0  0  0
  6  8  1  0  0  0  0
  8  9  1  0  0  0  0
  9 10  1  0  0  0  0
 10 11  2  0  0  0  0
 10 12  2  0  0  0  0
 10 13  1  0  0  0  0
 13 14  2  0  0  0  0
 14 15  1  0  0  0  0
 15 16  1  0  0  0  0
 16 17  2  0  0  0  0
 16 18  1  0  0  0  0
 18 22  1  0  0  0  0
 18 19  2  0  0  0  0
 19 20  1  0  0  0  0
 20 21  2  0  0  0  0
 21 22  1  0  0  0  0
M  END
$$$$
AGN-NEW-953-2
  -OEChem-03232022352D

 26 28  0     0  0  0  0  0  0999 V2000
   -2.5995    0.4950    0.0000 C   0  0  0  0  0  0  0  0  0  0  0  0
   -1.7328   -0.0038    0.0000 O   0  0  0  0  0  0  0  0  0  0  0  0
   -0.8675    0.4975    0.0000 C   0  0  0  0  0  0  0  0  0  0  0  0
   -0.8675    1.5027    0.0000 C   0  0  0  0  0  0  0  0  0  0  0  0
    0.0000    2.0104    0.0000 N   0  0  0  0  0  0  0  0  0  0  0  0
    0.8675    1.5027    0.0000 C   0  0  0  0  0  0  0  0  0  0  0  0
    1.7350    2.0001    0.0000 C   0  0  0  0  0  0  0  0  0  0  0  0
    1.7379    3.0001    0.0000 S   0  0  0  0  0  0  0  0  0  0  0  0
    0.7380    3.0031    0.0000 O   0  0  0  0  0  0  0  0  0  0  0  0
    2.7379    2.9972    0.0000 O   0  0  0  0  0  0  0  0  0  0  0  0
    1.7409    4.0001    0.0000 N   0  0  0  0  0  0  0  0  0  0  0  0
    0.2279    4.8796    0.0000 C   0  0  0  0  0  0  0  0  0  0  0  0
   -0.6403    4.3834    0.0000 C   0  0  0  0  0  0  0  0  0  0  0  0
   -0.6418    3.3834    0.0000 C   0  0  0  0  0  0  0  0  0  0  0  0
   -1.5071    4.8822    0.0000 C   0  0  0  0  0  0  0  0  0  0  0  0
   -1.5055    5.8874    0.0000 C   0  0  0  0  0  0  0  0  0  0  0  0
   -0.6373    6.3938    0.0000 N   0  0  0  0  0  0  0  0  0  0  0  0
    0.2294    5.8848    0.0000 C   0  0  0  0  0  0  0  0  0  0  0  0
    1.0977    6.3809    0.0000 F   0  0  0  0  0  0  0  0  0  0  0  0
    0.8675    0.4975    0.0000 C   0  0  0  0  0  0  0  0  0  0  0  0
    0.0000    0.0000    0.0000 C   0  0  0  0  0  0  0  0  0  0  0  0
   -0.0000   -1.0000    0.0000 C   0  0  0  0  0  0  0  0  0  0  0  0
    0.8098   -1.5895    0.0000 C   0  0  0  0  0  0  0  0  0  0  0  0
    0.5017   -2.5425    0.0000 C   0  0  0  0  0  0  0  0  0  0  0  0
   -0.4983   -2.5412    0.0000 C   0  0  0  0  0  0  0  0  0  0  0  0
   -0.8122   -1.5913    0.0000 S   0  0  0  0  0  0  0  0  0  0  0  0
  1  2  1  0  0  0  0
  2  3  1  0  0  0  0
  3 21  2  0  0  0  0
  3  4  1  0  0  0  0
  4  5  2  0  0  0  0
  5  6  1  0  0  0  0
  6  7  1  0  0  0  0
  7  8  1  0  0  0  0
  8  9  2  0  0  0  0
  8 10  2  0  0  0  0
  8 11  1  0  0  0  0
 11 12  1  0  0  0  0
 12 18  2  0  0  0  0
 12 13  1  0  0  0  0
 13 14  1  0  0  0  0
 13 15  2  0  0  0  0
 15 16  1  0  0  0  0
 16 17  2  0  0  0  0
 17 18  1  0  0  0  0
 18 19  1  0  0  0  0
  6 20  2  0  0  0  0
 20 21  1  0  0  0  0
 21 22  1  0  0  0  0
 22 26  1  0  0  0  0
 22 23  2  0  0  0  0
 23 24  1  0  0  0  0
 24 25  2  0  0  0  0
 25 26  1  0  0  0  0
M  END
$$$$
AGN-NEW-953-3
  -OEChem-03232022352D

 20 20  0     0  0  0  0  0  0999 V2000
   -0.0000   -1.0000    0.0000 C   0  0  0  0  0  0  0  0  0  0  0  0
    0.0000    0.0000    0.0000 C   0  0  0  0  0  0  0  0  0  0  0  0
   -0.8675    0.4975    0.0000 C   0  0  0  0  0  0  0  0  0  0  0  0
   -0.8675    1.5027    0.0000 C   0  0  0  0  0  0  0  0  0  0  0  0
    0.0000    2.0104    0.0000 N   0  0  0  0  0  0  0  0  0  0  0  0
    0.8675    1.5027    0.0000 C   0  0  0  0  0  0  0  0  0  0  0  0
    2.3856    2.3732    0.0000 F   0  0  0  0  0  0  0  0  0  0  0  0
    0.8675    0.4975    0.0000 C   0  0  0  0  0  0  0  0  0  0  0  0
    1.7328   -0.0038    0.0000 N   0  0  0  0  0  0  0  0  0  0  0  0
    2.5995    0.4950    0.0000 S   0  0  0  0  0  0  0  0  0  0  0  0
    2.1008    1.3617    0.0000 O   0  0  0  0  0  0  0  0  0  0  0  0
    3.0983   -0.3718    0.0000 O   0  0  0  0  0  0  0  0  0  0  0  0
    3.4663    0.9937    0.0000 C   0  0  0  0  0  0  0  0  0  0  0  0
    3.4678    1.9937    0.0000 C   0  0  0  0  0  0  0  0  0  0  0  0
    4.3345    2.4925    0.0000 N   0  0  0  0  0  0  0  0  0  0  0  0
    4.3360    3.4925    0.0000 C   0  0  0  0  0  0  0  0  0  0  0  0
    3.4707    3.9937    0.0000 O   0  0  0  0  0  0  0  0  0  0  0  0
    5.2027    3.9912    0.0000 C   0  0  0  0  0  0  0  0  0  0  0  0
    5.2042    4.9912    0.0000 C   0  0  0  0  0  0  0  0  0  0  0  0
    6.0680    3.4900    0.0000 C   0  0  0  0  0  0  0  0  0  0  0  0
  1  2  1  0  0  0  0
  2  8  2  0  0  0  0
  2  3  1  0  0  0  0
  3  4  2  0  0  0  0
  4  5  1  0  0  0  0
  5  6  2  0  0  0  0
  6  7  1  0  0  0  0
  6  8  1  0  0  0  0
  8  9  1  0  0  0  0
  9 10  1  0  0  0  0
 10 11  2  0  0  0  0
 10 12  2  0  0  0  0
 10 13  1  0  0  0  0
 13 14  2  0  0  0  0
 14 15  1  0  0  0  0
 15 16  1  0  0  0  0
 16 17  2  0  0  0  0
 16 18  1  0  0  0  0
 18 19  1  0  0  0  0
 18 20  1  0  0  0  0
M  END
$$$$
AGN-NEW-953-4
  -OEChem-03232022352D

 22 23  0     0  0  0  0  0  0999 V2000
   -0.0000   -1.0000    0.0000 C   0  0  0  0  0  0  0  0  0  0  0  0
    0.0000    0.0000    0.0000 C   0  0  0  0  0  0  0  0  0  0  0  0
   -0.8675    0.4975    0.0000 C   0  0  0  0  0  0  0  0  0  0  0  0
   -0.8675    1.5027    0.0000 C   0  0  0  0  0  0  0  0  0  0  0  0
    0.0000    2.0104    0.0000 N   0  0  0  0  0  0  0  0  0  0  0  0
    0.8675    1.5027    0.0000 C   0  0  0  0  0  0  0  0  0  0  0  0
    2.3856    2.3732    0.0000 F   0  0  0  0  0  0  0  0  0  0  0  0
    0.8675    0.4975    0.0000 C   0  0  0  0  0  0  0  0  0  0  0  0
    1.7328   -0.0038    0.0000 N   0  0  0  0  0  0  0  0  0  0  0  0
    2.5995    0.4950    0.0000 S   0  0  0  0  0  0  0  0  0  0  0  0
    2.1008    1.3617    0.0000 O   0  0  0  0  0  0  0  0  0  0  0  0
    3.0983   -0.3718    0.0000 O   0  0  0  0  0  0  0  0  0  0  0  0
    3.4663    0.9937    0.0000 C   0  0  0  0  0  0  0  0  0  0  0  0
    3.4678    1.9937    0.0000 C   0  0  0  0  0  0  0  0  0  0  0  0
    4.3345    2.4925    0.0000 N   0  0  0  0  0  0  0  0  0  0  0  0
    4.3360    3.4925    0.0000 C   0  0  0  0  0  0  0  0  0  0  0  0
    3.4707    3.9937    0.0000 O   0  0  0  0  0  0  0  0  0  0  0  0
    5.2027    3.9912    0.0000 C   0  0  0  0  0  0  0  0  0  0  0  0
    5.3098    4.9871    0.0000 C   0  0  0  0  0  0  0  0  0  0  0  0
    6.2893    5.1952    0.0000 C   0  0  0  0  0  0  0  0  0  0  0  0
    6.7870    4.3277    0.0000 C   0  0  0  0  0  0  0  0  0  0  0  0
    6.1201    3.5822    0.0000 C   0  0  0  0  0  0  0  0  0  0  0  0
  1  2  1  0  0  0  0
  2  8  2  0  0  0  0
  2  3  1  0  0  0  0
  3  4  2  0  0  0  0
  4  5  1  0  0  0  0
  5  6  2  0  0  0  0
  6  7  1  0  0  0  0
  6  8  1  0  0  0  0
  8  9  1  0  0  0  0
  9 10  1  0  0  0  0
 10 11  2  0  0  0  0
 10 12  2  0  0  0  0
 10 13  1  0  0  0  0
 13 14  2  0  0  0  0
 14 15  1  0  0  0  0
 15 16  1  0  0  0  0
 16 17  2  0  0  0  0
 16 18  1  0  0  0  0
 18 22  1  0  0  0  0
 18 19  1  0  0  0  0
 19 20  1  0  0  0  0
 20 21  1  0  0  0  0
 21 22  1  0  0  0  0
M  END
$$$$
AGN-NEW-953-5
  -OEChem-03232022352D

 21 22  0     0  0  0  0  0  0999 V2000
   -0.0000   -1.0000    0.0000 C   0  0  0  0  0  0  0  0  0  0  0  0
    0.0000    0.0000    0.0000 C   0  0  0  0  0  0  0  0  0  0  0  0
   -0.8675    0.4975    0.0000 C   0  0  0  0  0  0  0  0  0  0  0  0
   -0.8675    1.5027    0.0000 C   0  0  0  0  0  0  0  0  0  0  0  0
    0.0000    2.0104    0.0000 N   0  0  0  0  0  0  0  0  0  0  0  0
    0.8675    1.5027    0.0000 C   0  0  0  0  0  0  0  0  0  0  0  0
    0.8675    0.4975    0.0000 C   0  0  0  0  0  0  0  0  0  0  0  0
    1.7328   -0.0038    0.0000 N   0  0  0  0  0  0  0  0  0  0  0  0
    2.5995    0.4950    0.0000 S   0  0  0  0  0  0  0  0  0  0  0  0
    2.1008    1.3617    0.0000 O   0  0  0  0  0  0  0  0  0  0  0  0
    3.0983   -0.3718    0.0000 O   0  0  0  0  0  0  0  0  0  0  0  0
    3.4663    0.9937    0.0000 C   0  0  0  0  0  0  0  0  0  0  0  0
    3.4678    1.9937    0.0000 C   0  0  0  0  0  0  0  0  0  0  0  0
    4.3345    2.4925    0.0000 N   0  0  0  0  0  0  0  0  0  0  0  0
    4.3360    3.4925    0.0000 C   0  0  0  0  0  0  0  0  0  0  0  0
    3.4707    3.9937    0.0000 O   0  0  0  0  0  0  0  0  0  0  0  0
    5.2027    3.9912    0.0000 C   0  0  0  0  0  0  0  0  0  0  0  0
    5.3098    4.9871    0.0000 C   0  0  0  0  0  0  0  0  0  0  0  0
    6.2894    5.1953    0.0000 C   0  0  0  0  0  0  0  0  0  0  0  0
    6.7871    4.3279    0.0000 C   0  0  0  0  0  0  0  0  0  0  0  0
    6.1203    3.5821    0.0000 S   0  0  0  0  0  0  0  0  0  0  0  0
  1  2  1  0  0  0  0
  2  7  2  0  0  0  0
  2  3  1  0  0  0  0
  3  4  2  0  0  0  0
  4  5  1  0  0  0  0
  5  6  2  0  0  0  0
  6  7  1  0  0  0  0
  7  8  1  0  0  0  0
  8  9  1  0  0  0  0
  9 10  2  0  0  0  0
  9 11  2  0  0  0  0
  9 12  1  0  0  0  0
 12 13  2  0  0  0  0
 13 14  1  0  0  0  0
 14 15  1  0  0  0  0
 15 16  2  0  0  0  0
 15 17  1  0  0  0  0
 17 21  1  0  0  0  0
 17 18  2  0  0  0  0
 18 19  1  0  0  0  0
 19 20  2  0  0  0  0
 20 21  1  0  0  0  0
M  END
$$$$
AGN-NEW-953-6
  -OEChem-03232022352D

 26 28  0     0  0  0  0  0  0999 V2000
   -1.7379    3.0001    0.0000 C   0  0  0  0  0  0  0  0  0  0  0  0
   -1.7350    2.0001    0.0000 O   0  0  0  0  0  0  0  0  0  0  0  0
   -0.8675    1.5027    0.0000 C   0  0  0  0  0  0  0  0  0  0  0  0
   -0.8675    0.4975    0.0000 C   0  0  0  0  0  0  0  0  0  0  0  0
    0.0000    0.0000    0.0000 C   0  0  0  0  0  0  0  0  0  0  0  0
    0.0000   -1.0000    0.0000 C   0  0  0  0  0  0  0  0  0  0  0  0
    0.8098   -1.5895    0.0000 C   0  0  0  0  0  0  0  0  0  0  0  0
    0.5017   -2.5425    0.0000 C   0  0  0  0  0  0  0  0  0  0  0  0
   -0.4983   -2.5412    0.0000 C   0  0  0  0  0  0  0  0  0  0  0  0
   -0.8122   -1.5913    0.0000 S   0  0  0  0  0  0  0  0  0  0  0  0
    0.8675    0.4975    0.0000 C   0  0  0  0  0  0  0  0  0  0  0  0
    0.8675    1.5027    0.0000 C   0  0  0  0  0  0  0  0  0  0  0  0
    1.7350    2.0001    0.0000 C   0  0  0  0  0  0  0  0  0  0  0  0
    1.7379    3.0001    0.0000 S   0  0  0  0  0  0  0  0  0  0  0  0
    0.7380    3.0031    0.0000 O   0  0  0  0  0  0  0  0  0  0  0  0
    2.7379    2.9972    0.0000 O   0  0  0  0  0  0  0  0  0  0  0  0
    1.7409    4.0001    0.0000 N   0  0  0  0  0  0  0  0  0  0  0  0
    0.2279    4.8796    0.0000 C   0  0  0  0  0  0  0  0  0  0  0  0
   -0.6403    4.3834    0.0000 C   0  0  0  0  0  0  0  0  0  0  0  0
   -0.6418    3.3834    0.0000 C   0  0  0  0  0  0  0  0  0  0  0  0
   -1.5071    4.8822    0.0000 C   0  0  0  0  0  0  0  0  0  0  0  0
   -1.5055    5.8874    0.0000 C   0  0  0  0  0  0  0  0  0  0  0  0
   -0.6373    6.3938    0.0000 N   0  0  0  0  0  0  0  0  0  0  0  0
    0.2294    5.8848    0.0000 C   0  0  0  0  0  0  0  0  0  0  0  0
    1.0977    6.3809    0.0000 F   0  0  0  0  0  0  0  0  0  0  0  0
   -0.0000    2.0104    0.0000 N   0  0  0  0  0  0  0  0  0  0  0  0
  1  2  1  0  0  0  0
  2  3  1  0  0  0  0
  3 26  2  0  0  0  0
  3  4  1  0  0  0  0
  4  5  2  0  0  0  0
  5  6  1  0  0  0  0
  6 10  1  0  0  0  0
  6  7  2  0  0  0  0
  7  8  1  0  0  0  0
  8  9  2  0  0  0  0
  9 10  1  0  0  0  0
  5 11  1  0  0  0  0
 11 12  2  0  0  0  0
 12 13  1  0  0  0  0
 13 14  1  0  0  0  0
 14 15  2  0  0  0  0
 14 16  2  0  0  0  0
 14 17  1  0  0  0  0
 17 18  1  0  0  0  0
 18 24  2  0  0  0  0
 18 19  1  0  0  0  0
 19 20  1  0  0  0  0
 19 21  2  0  0  0  0
 21 22  1  0  0  0  0
 22 23  2  0  0  0  0
 23 24  1  0  0  0  0
 24 25  1  0  0  0  0
 12 26  1  0  0  0  0
M  END
$$$$
AGN-NEW-931-1
  -OEChem-03232022352D

 22 23  0     0  0  0  0  0  0999 V2000
   -0.0000   -1.0000    0.0000 C   0  0  0  0  0  0  0  0  0  0  0  0
    0.0000    0.0000    0.0000 C   0  0  0  0  0  0  0  0  0  0  0  0
   -0.8675    0.4975    0.0000 C   0  0  0  0  0  0  0  0  0  0  0  0
   -0.8675    1.5027    0.0000 C   0  0  0  0  0  0  0  0  0  0  0  0
    0.0000    2.0104    0.0000 N   0  0  0  0  0  0  0  0  0  0  0  0
    0.8675    1.5027    0.0000 C   0  0  0  0  0  0  0  0  0  0  0  0
    2.3856    2.3732    0.0000 F   0  0  0  0  0  0  0  0  0  0  0  0
    0.8675    0.4975    0.0000 C   0  0  0  0  0  0  0  0  0  0  0  0
    1.7328   -0.0038    0.0000 N   0  0  0  0  0  0  0  0  0  0  0  0
    2.5995    0.4950    0.0000 S   0  0  0  0  0  0  0  0  0  0  0  0
    2.1008    1.3617    0.0000 O   0  0  0  0  0  0  0  0  0  0  0  0
    3.0983   -0.3718    0.0000 O   0  0  0  0  0  0  0  0  0  0  0  0
    3.4663    0.9937    0.0000 C   0  0  0  0  0  0  0  0  0  0  0  0
    3.4678    1.9937    0.0000 C   0  0  0  0  0  0  0  0  0  0  0  0
    4.3345    2.4925    0.0000 N   0  0  0  0  0  0  0  0  0  0  0  0
    4.3360    3.4925    0.0000 C   0  0  0  0  0  0  0  0  0  0  0  0
    3.4707    3.9937    0.0000 O   0  0  0  0  0  0  0  0  0  0  0  0
    5.2027    3.9912    0.0000 C   0  0  0  0  0  0  0  0  0  0  0  0
    5.3098    4.9871    0.0000 C   0  0  0  0  0  0  0  0  0  0  0  0
    6.2894    5.1953    0.0000 C   0  0  0  0  0  0  0  0  0  0  0  0
    6.7871    4.3279    0.0000 C   0  0  0  0  0  0  0  0  0  0  0  0
    6.1203    3.5821    0.0000 S   0  0  0  0  0  0  0  0  0  0  0  0
  1  2  1  0  0  0  0
  2  8  2  0  0  0  0
  2  3  1  0  0  0  0
  3  4  2  0  0  0  0
  4  5  1  0  0  0  0
  5  6  2  0  0  0  0
  6  7  1  0  0  0  0
  6  8  1  0  0  0  0
  8  9  1  0  0  0  0
  9 10  1  0  0  0  0
 10 11  2  0  0  0  0
 10 12  2  0  0  0  0
 10 13  1  0  0  0  0
 13 14  2  0  0  0  0
 14 15  1  0  0  0  0
 15 16  1  0  0  0  0
 16 17  2  0  0  0  0
 16 18  1  0  0  0  0
 18 22  1  0  0  0  0
 18 19  2  0  0  0  0
 19 20  1  0  0  0  0
 20 21  2  0  0  0  0
 21 22  1  0  0  0  0
M  END
$$$$
AGN-NEW-931-2
  -OEChem-03232022352D

 26 28  0     0  0  0  0  0  0999 V2000
   -2.5995    0.4950    0.0000 C   0  0  0  0  0  0  0  0  0  0  0  0
   -1.7328   -0.0038    0.0000 O   0  0  0  0  0  0  0  0  0  0  0  0
   -0.8675    0.4975    0.0000 C   0  0  0  0  0  0  0  0  0  0  0  0
   -0.8675    1.5027    0.0000 C   0  0  0  0  0  0  0  0  0  0  0  0
    0.0000    2.0104    0.0000 N   0  0  0  0  0  0  0  0  0  0  0  0
    0.8675    1.5027    0.0000 C   0  0  0  0  0  0  0  0  0  0  0  0
    1.7350    2.0001    0.0000 C   0  0  0  0  0  0  0  0  0  0  0  0
    1.7379    3.0001    0.0000 S   0  0  0  0  0  0  0  0  0  0  0  0
    0.7380    3.0031    0.0000 O   0  0  0  0  0  0  0  0  0  0  0  0
    2.7379    2.9972    0.0000 O   0  0  0  0  0  0  0  0  0  0  0  0
    1.7409    4.0001    0.0000 N   0  0  0  0  0  0  0  0  0  0  0  0
    0.2279    4.8796    0.0000 C   0  0  0  0  0  0  0  0  0  0  0  0
   -0.6403    4.3834    0.0000 C   0  0  0  0  0  0  0  0  0  0  0  0
   -0.6418    3.3834    0.0000 C   0  0  0  0  0  0  0  0  0  0  0  0
   -1.5071    4.8822    0.0000 C   0  0  0  0  0  0  0  0  0  0  0  0
   -1.5055    5.8874    0.0000 C   0  0  0  0  0  0  0  0  0  0  0  0
   -0.6373    6.3938    0.0000 N   0  0  0  0  0  0  0  0  0  0  0  0
    0.2294    5.8848    0.0000 C   0  0  0  0  0  0  0  0  0  0  0  0
    1.0977    6.3809    0.0000 F   0  0  0  0  0  0  0  0  0  0  0  0
    0.8675    0.4975    0.0000 C   0  0  0  0  0  0  0  0  0  0  0  0
    0.0000    0.0000    0.0000 C   0  0  0  0  0  0  0  0  0  0  0  0
   -0.0000   -1.0000    0.0000 C   0  0  0  0  0  0  0  0  0  0  0  0
    0.8098   -1.5895    0.0000 C   0  0  0  0  0  0  0  0  0  0  0  0
    0.5017   -2.5425    0.0000 C   0  0  0  0  0  0  0  0  0  0  0  0
   -0.4983   -2.5412    0.0000 C   0  0  0  0  0  0  0  0  0  0  0  0
   -0.8122   -1.5913    0.0000 S   0  0  0  0  0  0  0  0  0  0  0  0
  1  2  1  0  0  0  0
  2  3  1  0  0  0  0
  3 21  2  0  0  0  0
  3  4  1  0  0  0  0
  4  5  2  0  0  0  0
  5  6  1  0  0  0  0
  6  7  1  0  0  0  0
  7  8  1  0  0  0  0
  8  9  2  0  0  0  0
  8 10  2  0  0  0  0
  8 11  1  0  0  0  0
 11 12  1  0  0  0  0
 12 18  2  0  0  0  0
 12 13  1  0  0  0  0
 13 14  1  0  0  0  0
 13 15  2  0  0  0  0
 15 16  1  0  0  0  0
 16 17  2  0  0  0  0
 17 18  1  0  0  0  0
 18 19  1  0  0  0  0
  6 20  2  0  0  0  0
 20 21  1  0  0  0  0
 21 22  1  0  0  0  0
 22 26  1  0  0  0  0
 22 23  2  0  0  0  0
 23 24  1  0  0  0  0
 24 25  2  0  0  0  0
 25 26  1  0  0  0  0
M  END
$$$$
AGN-NEW-931-3
  -OEChem-03232022352D

 20 20  0     0  0  0  0  0  0999 V2000
   -0.0000   -1.0000    0.0000 C   0  0  0  0  0  0  0  0  0  0  0  0
    0.0000    0.0000    0.0000 C   0  0  0  0  0  0  0  0  0  0  0  0
   -0.8675    0.4975    0.0000 C   0  0  0  0  0  0  0  0  0  0  0  0
   -0.8675    1.5027    0.0000 C   0  0  0  0  0  0  0  0  0  0  0  0
    0.0000    2.0104    0.0000 N   0  0  0  0  0  0  0  0  0  0  0  0
    0.8675    1.5027    0.0000 C   0  0  0  0  0  0  0  0  0  0  0  0
    2.3856    2.3732    0.0000 F   0  0  0  0  0  0  0  0  0  0  0  0
    0.8675    0.4975    0.0000 C   0  0  0  0  0  0  0  0  0  0  0  0
    1.7328   -0.0038    0.0000 N   0  0  0  0  0  0  0  0  0  0  0  0
    2.5995    0.4950    0.0000 S   0  0  0  0  0  0  0  0  0  0  0  0
    2.1008    1.3617    0.0000 O   0  0  0  0  0  0  0  0  0  0  0  0
    3.0983   -0.3718    0.0000 O   0  0  0  0  0  0  0  0  0  0  0  0
    3.4663    0.9937    0.0000 C   0  0  0  0  0  0  0  0  0  0  0  0
    3.4678    1.9937    0.0000 C   0  0  0  0  0  0  0  0  0  0  0  0
    4.3345    2.4925    0.0000 N   0  0  0  0  0  0  0  0  0  0  0  0
    4.3360    3.4925    0.0000 C   0  0  0  0  0  0  0  0  0  0  0  0
    3.4707    3.9937    0.0000 O   0  0  0  0  0  0  0  0  0  0  0  0
    5.2027    3.9912    0.0000 C   0  0  0  0  0  0  0  0  0  0  0  0
    5.2042    4.9912    0.0000 C   0  0  0  0  0  0  0  0  0  0  0  0
    6.0680    3.4900    0.0000 C   0  0  0  0  0  0  0  0  0  0  0  0
  1  2  1  0  0  0  0
  2  8  2  0  0  0  0
  2  3  1  0  0  0  0
  3  4  2  0  0  0  0
  4  5  1  0  0  0  0
  5  6  2  0  0  0  0
  6  7  1  0  0  0  0
  6  8  1  0  0  0  0
  8  9  1  0  0  0  0
  9 10  1  0  0  0  0
 10 11  2  0  0  0  0
 10 12  2  0  0  0  0
 10 13  1  0  0  0  0
 13 14  2  0  0  0  0
 14 15  1  0  0  0  0
 15 16  1  0  0  0  0
 16 17  2  0  0  0  0
 16 18  1  0  0  0  0
 18 19  1  0  0  0  0
 18 20  1  0  0  0  0
M  END
$$$$
AGN-NEW-931-4
  -OEChem-03232022352D

 22 23  0     0  0  0  0  0  0999 V2000
   -0.0000   -1.0000    0.0000 C   0  0  0  0  0  0  0  0  0  0  0  0
    0.0000    0.0000    0.0000 C   0  0  0  0  0  0  0  0  0  0  0  0
   -0.8675    0.4975    0.0000 C   0  0  0  0  0  0  0  0  0  0  0  0
   -0.8675    1.5027    0.0000 C   0  0  0  0  0  0  0  0  0  0  0  0
    0.0000    2.0104    0.0000 N   0  0  0  0  0  0  0  0  0  0  0  0
    0.8675    1.5027    0.0000 C   0  0  0  0  0  0  0  0  0  0  0  0
    2.3856    2.3732    0.0000 F   0  0  0  0  0  0  0  0  0  0  0  0
    0.8675    0.4975    0.0000 C   0  0  0  0  0  0  0  0  0  0  0  0
    1.7328   -0.0038    0.0000 N   0  0  0  0  0  0  0  0  0  0  0  0
    2.5995    0.4950    0.0000 S   0  0  0  0  0  0  0  0  0  0  0  0
    2.1008    1.3617    0.0000 O   0  0  0  0  0  0  0  0  0  0  0  0
    3.0983   -0.3718    0.0000 O   0  0  0  0  0  0  0  0  0  0  0  0
    3.4663    0.9937    0.0000 C   0  0  0  0  0  0  0  0  0  0  0  0
    3.4678    1.9937    0.0000 C   0  0  0  0  0  0  0  0  0  0  0  0
    4.3345    2.4925    0.0000 N   0  0  0  0  0  0  0  0  0  0  0  0
    4.3360    3.4925    0.0000 C   0  0  0  0  0  0  0  0  0  0  0  0
    3.4707    3.9937    0.0000 O   0  0  0  0  0  0  0  0  0  0  0  0
    5.2027    3.9912    0.0000 C   0  0  0  0  0  0  0  0  0  0  0  0
    5.3098    4.9871    0.0000 C   0  0  0  0  0  0  0  0  0  0  0  0
    6.2893    5.1952    0.0000 C   0  0  0  0  0  0  0  0  0  0  0  0
    6.7870    4.3277    0.0000 C   0  0  0  0  0  0  0  0  0  0  0  0
    6.1201    3.5822    0.0000 C   0  0  0  0  0  0  0  0  0  0  0  0
  1  2  1  0  0  0  0
  2  8  2  0  0  0  0
  2  3  1  0  0  0  0
  3  4  2  0  0  0  0
  4  5  1  0  0  0  0
  5  6  2  0  0  0  0
  6  7  1  0  0  0  0
  6  8  1  0  0  0  0
  8  9  1  0  0  0  0
  9 10  1  0  0  0  0
 10 11  2  0  0  0  0
 10 12  2  0  0  0  0
 10 13  1  0  0  0  0
 13 14  2  0  0  0  0
 14 15  1  0  0  0  0
 15 16  1  0  0  0  0
 16 17  2  0  0  0  0
 16 18  1  0  0  0  0
 18 22  1  0  0  0  0
 18 19  1  0  0  0  0
 19 20  1  0  0  0  0
 20 21  1  0  0  0  0
 21 22  1  0  0  0  0
M  END
$$$$
AGN-NEW-931-5
  -OEChem-03232022352D

 21 22  0     0  0  0  0  0  0999 V2000
   -0.0000   -1.0000    0.0000 C   0  0  0  0  0  0  0  0  0  0  0  0
    0.0000    0.0000    0.0000 C   0  0  0  0  0  0  0  0  0  0  0  0
   -0.8675    0.4975    0.0000 C   0  0  0  0  0  0  0  0  0  0  0  0
   -0.8675    1.5027    0.0000 C   0  0  0  0  0  0  0  0  0  0  0  0
    0.0000    2.0104    0.0000 N   0  0  0  0  0  0  0  0  0  0  0  0
    0.8675    1.5027    0.0000 C   0  0  0  0  0  0  0  0  0  0  0  0
    0.8675    0.4975    0.0000 C   0  0  0  0  0  0  0  0  0  0  0  0
    1.7328   -0.0038    0.0000 N   0  0  0  0  0  0  0  0  0  0  0  0
    2.5995    0.4950    0.0000 S   0  0  0  0  0  0  0  0  0  0  0  0
    2.1008    1.3617    0.0000 O   0  0  0  0  0  0  0  0  0  0  0  0
    3.0983   -0.3718    0.0000 O   0  0  0  0  0  0  0  0  0  0  0  0
    3.4663    0.9937    0.0000 C   0  0  0  0  0  0  0  0  0  0  0  0
    3.4678    1.9937    0.0000 C   0  0  0  0  0  0  0  0  0  0  0  0
    4.3345    2.4925    0.0000 N   0  0  0  0  0  0  0  0  0  0  0  0
    4.3360    3.4925    0.0000 C   0  0  0  0  0  0  0  0  0  0  0  0
    3.4707    3.9937    0.0000 O   0  0  0  0  0  0  0  0  0  0  0  0
    5.2027    3.9912    0.0000 C   0  0  0  0  0  0  0  0  0  0  0  0
    5.3098    4.9871    0.0000 C   0  0  0  0  0  0  0  0  0  0  0  0
    6.2894    5.1953    0.0000 C   0  0  0  0  0  0  0  0  0  0  0  0
    6.7871    4.3279    0.0000 C   0  0  0  0  0  0  0  0  0  0  0  0
    6.1203    3.5821    0.0000 S   0  0  0  0  0  0  0  0  0  0  0  0
  1  2  1  0  0  0  0
  2  7  2  0  0  0  0
  2  3  1  0  0  0  0
  3  4  2  0  0  0  0
  4  5  1  0  0  0  0
  5  6  2  0  0  0  0
  6  7  1  0  0  0  0
  7  8  1  0  0  0  0
  8  9  1  0  0  0  0
  9 10  2  0  0  0  0
  9 11  2  0  0  0  0
  9 12  1  0  0  0  0
 12 13  2  0  0  0  0
 13 14  1  0  0  0  0
 14 15  1  0  0  0  0
 15 16  2  0  0  0  0
 15 17  1  0  0  0  0
 17 21  1  0  0  0  0
 17 18  2  0  0  0  0
 18 19  1  0  0  0  0
 19 20  2  0  0  0  0
 20 21  1  0  0  0  0
M  END
$$$$
AGN-NEW-931-6
  -OEChem-03232022352D

 26 28  0     0  0  0  0  0  0999 V2000
   -1.7379    3.0001    0.0000 C   0  0  0  0  0  0  0  0  0  0  0  0
   -1.7350    2.0001    0.0000 O   0  0  0  0  0  0  0  0  0  0  0  0
   -0.8675    1.5027    0.0000 C   0  0  0  0  0  0  0  0  0  0  0  0
   -0.8675    0.4975    0.0000 C   0  0  0  0  0  0  0  0  0  0  0  0
    0.0000    0.0000    0.0000 C   0  0  0  0  0  0  0  0  0  0  0  0
    0.0000   -1.0000    0.0000 C   0  0  0  0  0  0  0  0  0  0  0  0
    0.8098   -1.5895    0.0000 C   0  0  0  0  0  0  0  0  0  0  0  0
    0.5017   -2.5425    0.0000 C   0  0  0  0  0  0  0  0  0  0  0  0
   -0.4983   -2.5412    0.0000 C   0  0  0  0  0  0  0  0  0  0  0  0
   -0.8122   -1.5913    0.0000 S   0  0  0  0  0  0  0  0  0  0  0  0
    0.8675    0.4975    0.0000 C   0  0  0  0  0  0  0  0  0  0  0  0
    0.8675    1.5027    0.0000 C   0  0  0  0  0  0  0  0  0  0  0  0
    1.7350    2.0001    0.0000 C   0  0  0  0  0  0  0  0  0  0  0  0
    1.7379    3.0001    0.0000 S   0  0  0  0  0  0  0  0  0  0  0  0
    0.7380    3.0031    0.0000 O   0  0  0  0  0  0  0  0  0  0  0  0
    2.7379    2.9972    0.0000 O   0  0  0  0  0  0  0  0  0  0  0  0
    1.7409    4.0001    0.0000 N   0  0  0  0  0  0  0  0  0  0  0  0
    0.2279    4.8796    0.0000 C   0  0  0  0  0  0  0  0  0  0  0  0
   -0.6403    4.3834    0.0000 C   0  0  0  0  0  0  0  0  0  0  0  0
   -0.6418    3.3834    0.0000 C   0  0  0  0  0  0  0  0  0  0  0  0
   -1.5071    4.8822    0.0000 C   0  0  0  0  0  0  0  0  0  0  0  0
   -1.5055    5.8874    0.0000 C   0  0  0  0  0  0  0  0  0  0  0  0
   -0.6373    6.3938    0.0000 N   0  0  0  0  0  0  0  0  0  0  0  0
    0.2294    5.8848    0.0000 C   0  0  0  0  0  0  0  0  0  0  0  0
    1.0977    6.3809    0.0000 F   0  0  0  0  0  0  0  0  0  0  0  0
   -0.0000    2.0104    0.0000 N   0  0  0  0  0  0  0  0  0  0  0  0
  1  2  1  0  0  0  0
  2  3  1  0  0  0  0
  3 26  2  0  0  0  0
  3  4  1  0  0  0  0
  4  5  2  0  0  0  0
  5  6  1  0  0  0  0
  6 10  1  0  0  0  0
  6  7  2  0  0  0  0
  7  8  1  0  0  0  0
  8  9  2  0  0  0  0
  9 10  1  0  0  0  0
  5 11  1  0  0  0  0
 11 12  2  0  0  0  0
 12 13  1  0  0  0  0
 13 14  1  0  0  0  0
 14 15  2  0  0  0  0
 14 16  2  0  0  0  0
 14 17  1  0  0  0  0
 17 18  1  0  0  0  0
 18 24  2  0  0  0  0
 18 19  1  0  0  0  0
 19 20  1  0  0  0  0
 19 21  2  0  0  0  0
 21 22  1  0  0  0  0
 22 23  2  0  0  0  0
 23 24  1  0  0  0  0
 24 25  1  0  0  0  0
 12 26  1  0  0  0  0
M  END
$$$$
SAM-UNK-903-1
  -OEChem-03232022352D

 24 26  0     0  0  0  0  0  0999 V2000
    5.5770   -3.5816    0.0000 C   0  0  0  0  0  0  0  0  0  0  0  0
    5.2680   -2.6306    0.0000 C   0  0  0  0  0  0  0  0  0  0  0  0
    5.9372   -1.8874    0.0000 O   0  0  0  0  0  0  0  0  0  0  0  0
    4.2899   -2.4226    0.0000 N   0  0  0  0  0  0  0  0  0  0  0  0
    3.9809   -1.4715    0.0000 C   0  0  0  0  0  0  0  0  0  0  0  0
    3.0028   -1.2636    0.0000 C   0  0  0  0  0  0  0  0  0  0  0  0
    2.6938   -0.3125    0.0000 C   0  0  0  0  0  0  0  0  0  0  0  0
    3.2858    0.5023    0.0000 C   0  0  0  0  0  0  0  0  0  0  0  0
    2.6938    1.3169    0.0000 N   0  0  0  0  0  0  0  0  0  0  0  0
    1.7360    1.0058    0.0000 C   0  0  0  0  0  0  0  0  0  0  0  0
    0.8680    1.5138    0.0000 C   0  0  0  0  0  0  0  0  0  0  0  0
    0.8680    2.5138    0.0000 C   0  0  0  0  0  0  0  0  0  0  0  0
    0.0020    3.0138    0.0000 N   0  0  0  0  0  0  0  0  0  0  0  0
   -0.0040    4.0189    0.0000 C   0  0  0  0  0  0  0  0  0  0  0  0
   -0.8745    4.5215    0.0000 C   0  0  0  0  0  0  0  0  0  0  0  0
   -1.7391    4.0190    0.0000 C   0  0  0  0  0  0  0  0  0  0  0  0
   -2.6051    4.5190    0.0000 O   0  0  0  0  0  0  0  0  0  0  0  0
   -1.7420    3.0190    0.0000 C   0  0  0  0  0  0  0  0  0  0  0  0
   -0.8715    2.5164    0.0000 C   0  0  0  0  0  0  0  0  0  0  0  0
    0.0000    1.0058    0.0000 C   0  0  0  0  0  0  0  0  0  0  0  0
    0.0000    0.0000    0.0000 C   0  0  0  0  0  0  0  0  0  0  0  0
   -0.8653   -0.5013    0.0000 F   0  0  0  0  0  0  0  0  0  0  0  0
    0.8680   -0.4978    0.0000 C   0  0  0  0  0  0  0  0  0  0  0  0
    1.7360   -0.0012    0.0000 C   0  0  0  0  0  0  0  0  0  0  0  0
  1  2  1  0  0  0  0
  2  3  2  0  0  0  0
  2  4  1  0  0  0  0
  4  5  1  0  0  0  0
  5  6  1  0  0  0  0
  6  7  1  0  0  0  0
  7 24  1  0  0  0  0
  7  8  2  0  0  0  0
  8  9  1  0  0  0  0
  9 10  1  0  0  0  0
 10 24  2  0  0  0  0
 10 11  1  0  0  0  0
 11 12  1  0  0  0  0
 12 13  1  0  0  0  0
 13 19  1  0  0  0  0
 13 14  1  0  0  0  0
 14 15  1  0  0  0  0
 15 16  1  0  0  0  0
 16 17  1  0  0  0  0
 16 18  1  0  0  0  0
 18 19  1  0  0  0  0
 11 20  2  0  0  0  0
 20 21  1  0  0  0  0
 21 22  1  0  0  0  0
 21 23  2  0  0  0  0
 23 24  1  0  0  0  0
M  END
$$$$
SAM-UNK-903-2
  -OEChem-03232022352D

 23 24  0     0  0  0  0  0  0999 V2000
    5.5770   -3.5816    0.0000 C   0  0  0  0  0  0  0  0  0  0  0  0
    5.2680   -2.6306    0.0000 C   0  0  0  0  0  0  0  0  0  0  0  0
    5.9372   -1.8874    0.0000 O   0  0  0  0  0  0  0  0  0  0  0  0
    4.2899   -2.4226    0.0000 N   0  0  0  0  0  0  0  0  0  0  0  0
    3.9809   -1.4715    0.0000 C   0  0  0  0  0  0  0  0  0  0  0  0
    3.0028   -1.2636    0.0000 C   0  0  0  0  0  0  0  0  0  0  0  0
    2.6938   -0.3125    0.0000 C   0  0  0  0  0  0  0  0  0  0  0  0
    3.2858    0.5023    0.0000 C   0  0  0  0  0  0  0  0  0  0  0  0
    2.6938    1.3169    0.0000 N   0  0  0  0  0  0  0  0  0  0  0  0
    1.7360    1.0058    0.0000 C   0  0  0  0  0  0  0  0  0  0  0  0
    0.8680    1.5138    0.0000 C   0  0  0  0  0  0  0  0  0  0  0  0
    0.8680    2.5138    0.0000 C   0  0  0  0  0  0  0  0  0  0  0  0
    0.0020    3.0138    0.0000 C   0  0  0  0  0  0  0  0  0  0  0  0
    0.0020    4.0138    0.0000 N   0  0  0  0  0  0  0  0  0  0  0  0
   -0.8641    4.5138    0.0000 S   0  0  0  0  0  0  0  0  0  0  0  0
   -1.7301    5.0138    0.0000 C   0  0  0  0  0  0  0  0  0  0  0  0
   -1.3641    3.6478    0.0000 O   0  0  0  0  0  0  0  0  0  0  0  0
   -0.3640    5.3798    0.0000 O   0  0  0  0  0  0  0  0  0  0  0  0
    0.0000    1.0058    0.0000 C   0  0  0  0  0  0  0  0  0  0  0  0
    0.0000    0.0000    0.0000 C   0  0  0  0  0  0  0  0  0  0  0  0
   -0.8653   -0.5013    0.0000 F   0  0  0  0  0  0  0  0  0  0  0  0
    0.8680   -0.4978    0.0000 C   0  0  0  0  0  0  0  0  0  0  0  0
    1.7360   -0.0012    0.0000 C   0  0  0  0  0  0  0  0  0  0  0  0
  1  2  1  0  0  0  0
  2  3  2  0  0  0  0
  2  4  1  0  0  0  0
  4  5  1  0  0  0  0
  5  6  1  0  0  0  0
  6  7  1  0  0  0  0
  7 23  1  0  0  0  0
  7  8  2  0  0  0  0
  8  9  1  0  0  0  0
  9 10  1  0  0  0  0
 10 23  2  0  0  0  0
 10 11  1  0  0  0  0
 11 12  1  0  0  0  0
 12 13  1  0  0  0  0
 13 14  1  0  0  0  0
 14 15  1  0  0  0  0
 15 16  1  0  0  0  0
 15 17  2  0  0  0  0
 15 18  2  0  0  0  0
 11 19  2  0  0  0  0
 19 20  1  0  0  0  0
 20 21  1  0  0  0  0
 20 22  2  0  0  0  0
 22 23  1  0  0  0  0
M  END
$$$$
AGN-NEW-891-1
  -OEChem-03232022352D

 19 20  0     0  0  0  0  0  0999 V2000
   -0.0021   -4.0166    0.0000 C   0  0  0  0  0  0  0  0  0  0  0  0
    0.8662   -4.5127    0.0000 O   0  0  0  0  0  0  0  0  0  0  0  0
    1.7299   -4.0089    0.0000 C   0  0  0  0  0  0  0  0  0  0  0  0
    2.6012   -4.5102    0.0000 C   0  0  0  0  0  0  0  0  0  0  0  0
    3.4651   -4.0063    0.0000 C   0  0  0  0  0  0  0  0  0  0  0  0
    4.3318   -4.5050    0.0000 Cl  0  0  0  0  0  0  0  0  0  0  0  0
    3.4665   -3.0063    0.0000 C   0  0  0  0  0  0  0  0  0  0  0  0
    2.5952   -2.5050    0.0000 C   0  0  0  0  0  0  0  0  0  0  0  0
    2.5966   -1.5050    0.0000 O   0  0  0  0  0  0  0  0  0  0  0  0
    1.7313   -1.0038    0.0000 C   0  0  0  0  0  0  0  0  0  0  0  0
    0.8646   -1.5025    0.0000 O   0  0  0  0  0  0  0  0  0  0  0  0
    1.7328   -0.0038    0.0000 N   0  0  0  0  0  0  0  0  0  0  0  0
    0.8675    0.4975    0.0000 C   0  0  0  0  0  0  0  0  0  0  0  0
    0.0000    0.0000    0.0000 C   0  0  0  0  0  0  0  0  0  0  0  0
   -0.8675    0.4975    0.0000 C   0  0  0  0  0  0  0  0  0  0  0  0
   -0.8675    1.5027    0.0000 C   0  0  0  0  0  0  0  0  0  0  0  0
    0.0000    2.0104    0.0000 N   0  0  0  0  0  0  0  0  0  0  0  0
    0.8675    1.5027    0.0000 C   0  0  0  0  0  0  0  0  0  0  0  0
    1.7225   -3.0037    0.0000 C   0  0  0  0  0  0  0  0  0  0  0  0
  1  2  1  0  0  0  0
  2  3  1  0  0  0  0
  3 19  2  0  0  0  0
  3  4  1  0  0  0  0
  4  5  2  0  0  0  0
  5  6  1  0  0  0  0
  5  7  1  0  0  0  0
  7  8  2  0  0  0  0
  8  9  1  0  0  0  0
  9 10  1  0  0  0  0
 10 11  2  0  0  0  0
 10 12  1  0  0  0  0
 12 13  1  0  0  0  0
 13 18  2  0  0  0  0
 13 14  1  0  0  0  0
 14 15  2  0  0  0  0
 15 16  1  0  0  0  0
 16 17  2  0  0  0  0
 17 18  1  0  0  0  0
  8 19  1  0  0  0  0
M  END
$$$$
AGN-NEW-891-2
  -OEChem-03232022352D

 18 19  0     0  0  0  0  0  0999 V2000
    0.8646   -1.5025    0.0000 O   0  0  0  0  0  0  0  0  0  0  0  0
    1.7313   -1.0038    0.0000 C   0  0  0  0  0  0  0  0  0  0  0  0
    1.7328   -0.0038    0.0000 N   0  0  0  0  0  0  0  0  0  0  0  0
    0.8675    0.4975    0.0000 C   0  0  0  0  0  0  0  0  0  0  0  0
    0.0000    0.0000    0.0000 C   0  0  0  0  0  0  0  0  0  0  0  0
   -0.8675    0.4975    0.0000 C   0  0  0  0  0  0  0  0  0  0  0  0
   -0.8675    1.5027    0.0000 C   0  0  0  0  0  0  0  0  0  0  0  0
    0.0000    2.0104    0.0000 N   0  0  0  0  0  0  0  0  0  0  0  0
    0.8675    1.5027    0.0000 C   0  0  0  0  0  0  0  0  0  0  0  0
    2.5966   -1.5050    0.0000 O   0  0  0  0  0  0  0  0  0  0  0  0
    2.5952   -2.5050    0.0000 C   0  0  0  0  0  0  0  0  0  0  0  0
    1.7225   -3.0038    0.0000 C   0  0  0  0  0  0  0  0  0  0  0  0
    1.7210   -4.0038    0.0000 C   0  0  0  0  0  0  0  0  0  0  0  0
    0.8527   -4.5000    0.0000 O   0  0  0  0  0  0  0  0  0  0  0  0
    2.5833   -4.5101    0.0000 C   0  0  0  0  0  0  0  0  0  0  0  0
    3.4561   -4.0114    0.0000 C   0  0  0  0  0  0  0  0  0  0  0  0
    4.3184   -4.5177    0.0000 Cl  0  0  0  0  0  0  0  0  0  0  0  0
    3.4664   -3.0063    0.0000 C   0  0  0  0  0  0  0  0  0  0  0  0
  1  2  2  0  0  0  0
  2  3  1  0  0  0  0
  3  4  1  0  0  0  0
  4  9  2  0  0  0  0
  4  5  1  0  0  0  0
  5  6  2  0  0  0  0
  6  7  1  0  0  0  0
  7  8  2  0  0  0  0
  8  9  1  0  0  0  0
  2 10  1  0  0  0  0
 10 11  1  0  0  0  0
 11 18  2  0  0  0  0
 11 12  1  0  0  0  0
 12 13  2  0  0  0  0
 13 14  1  0  0  0  0
 13 15  1  0  0  0  0
 15 16  2  0  0  0  0
 16 17  1  0  0  0  0
 16 18  1  0  0  0  0
M  END
$$$$
AGN-NEW-891-3
  -OEChem-03232022352D

 19 20  0     0  0  0  0  0  0999 V2000
    2.7313   -1.0052    0.0000 O   0  0  0  0  0  0  0  0  0  0  0  0
    1.7313   -1.0038    0.0000 S   0  0  0  0  0  0  0  0  0  0  0  0
    0.7313   -1.0023    0.0000 O   0  0  0  0  0  0  0  0  0  0  0  0
    1.7299   -2.0038    0.0000 C   0  0  0  0  0  0  0  0  0  0  0  0
    2.5952   -2.5050    0.0000 C   0  0  0  0  0  0  0  0  0  0  0  0
    2.5908   -3.5102    0.0000 C   0  0  0  0  0  0  0  0  0  0  0  0
    3.4561   -4.0115    0.0000 C   0  0  0  0  0  0  0  0  0  0  0  0
    3.4517   -5.0115    0.0000 O   0  0  0  0  0  0  0  0  0  0  0  0
    4.3258   -3.5178    0.0000 C   0  0  0  0  0  0  0  0  0  0  0  0
    4.3302   -2.5126    0.0000 C   0  0  0  0  0  0  0  0  0  0  0  0
    5.1999   -2.0190    0.0000 Cl  0  0  0  0  0  0  0  0  0  0  0  0
    3.4649   -2.0011    0.0000 C   0  0  0  0  0  0  0  0  0  0  0  0
    1.7328   -0.0038    0.0000 N   0  0  0  0  0  0  0  0  0  0  0  0
    0.8675    0.4975    0.0000 C   0  0  0  0  0  0  0  0  0  0  0  0
    0.0000    0.0000    0.0000 C   0  0  0  0  0  0  0  0  0  0  0  0
   -0.8675    0.4975    0.0000 C   0  0  0  0  0  0  0  0  0  0  0  0
   -0.8675    1.5027    0.0000 C   0  0  0  0  0  0  0  0  0  0  0  0
    0.0000    2.0104    0.0000 N   0  0  0  0  0  0  0  0  0  0  0  0
    0.8675    1.5027    0.0000 C   0  0  0  0  0  0  0  0  0  0  0  0
  1  2  2  0  0  0  0
  2  3  2  0  0  0  0
  2  4  1  0  0  0  0
  4  5  1  0  0  0  0
  5 12  2  0  0  0  0
  5  6  1  0  0  0  0
  6  7  2  0  0  0  0
  7  8  1  0  0  0  0
  7  9  1  0  0  0  0
  9 10  2  0  0  0  0
 10 11  1  0  0  0  0
 10 12  1  0  0  0  0
  2 13  1  0  0  0  0
 13 14  1  0  0  0  0
 14 19  2  0  0  0  0
 14 15  1  0  0  0  0
 15 16  2  0  0  0  0
 16 17  1  0  0  0  0
 17 18  2  0  0  0  0
 18 19  1  0  0  0  0
M  END
$$$$
AGN-NEW-891-4
  -OEChem-03232022352D

 20 21  0     0  0  0  0  0  0999 V2000
   -1.7445   -1.0090    0.0000 C   0  0  0  0  0  0  0  0  0  0  0  0
   -1.7401   -2.0090    0.0000 O   0  0  0  0  0  0  0  0  0  0  0  0
   -0.8719   -2.5051    0.0000 C   0  0  0  0  0  0  0  0  0  0  0  0
   -0.8703   -3.5103    0.0000 C   0  0  0  0  0  0  0  0  0  0  0  0
   -0.0021   -4.0065    0.0000 C   0  0  0  0  0  0  0  0  0  0  0  0
   -0.0006   -5.0065    0.0000 Cl  0  0  0  0  0  0  0  0  0  0  0  0
    0.8647   -3.5077    0.0000 C   0  0  0  0  0  0  0  0  0  0  0  0
    0.8631   -2.5025    0.0000 C   0  0  0  0  0  0  0  0  0  0  0  0
    1.7299   -2.0038    0.0000 C   0  0  0  0  0  0  0  0  0  0  0  0
    1.7313   -1.0038    0.0000 S   0  0  0  0  0  0  0  0  0  0  0  0
    0.7313   -1.0023    0.0000 O   0  0  0  0  0  0  0  0  0  0  0  0
    2.7313   -1.0052    0.0000 O   0  0  0  0  0  0  0  0  0  0  0  0
    1.7328   -0.0038    0.0000 N   0  0  0  0  0  0  0  0  0  0  0  0
    0.8675    0.4975    0.0000 C   0  0  0  0  0  0  0  0  0  0  0  0
    0.0000    0.0000    0.0000 C   0  0  0  0  0  0  0  0  0  0  0  0
   -0.8675    0.4975    0.0000 C   0  0  0  0  0  0  0  0  0  0  0  0
   -0.8675    1.5027    0.0000 C   0  0  0  0  0  0  0  0  0  0  0  0
    0.0000    2.0104    0.0000 N   0  0  0  0  0  0  0  0  0  0  0  0
    0.8675    1.5027    0.0000 C   0  0  0  0  0  0  0  0  0  0  0  0
   -0.0051   -1.9961    0.0000 C   0  0  0  0  0  0  0  0  0  0  0  0
  1  2  1  0  0  0  0
  2  3  1  0  0  0  0
  3 20  2  0  0  0  0
  3  4  1  0  0  0  0
  4  5  2  0  0  0  0
  5  6  1  0  0  0  0
  5  7  1  0  0  0  0
  7  8  2  0  0  0  0
  8  9  1  0  0  0  0
  9 10  1  0  0  0  0
 10 11  2  0  0  0  0
 10 12  2  0  0  0  0
 10 13  1  0  0  0  0
 13 14  1  0  0  0  0
 14 19  2  0  0  0  0
 14 15  1  0  0  0  0
 15 16  2  0  0  0  0
 16 17  1  0  0  0  0
 17 18  2  0  0  0  0
 18 19  1  0  0  0  0
  8 20  1  0  0  0  0
M  END
$$$$
AGN-NEW-891-5
  -OEChem-03232022352D

 21 22  0     0  0  0  0  0  0999 V2000
    6.0726   -3.5049    0.0000 C   0  0  0  0  0  0  0  0  0  0  0  0
    5.2044   -3.0088    0.0000 C   0  0  0  0  0  0  0  0  0  0  0  0
    4.3406   -3.5126    0.0000 C   0  0  0  0  0  0  0  0  0  0  0  0
    5.1999   -2.0088    0.0000 C   0  0  0  0  0  0  0  0  0  0  0  0
    6.0697   -1.5049    0.0000 C   0  0  0  0  0  0  0  0  0  0  0  0
    6.0653   -0.5048    0.0000 C   0  0  0  0  0  0  0  0  0  0  0  0
    6.9305   -0.0036    0.0000 Cl  0  0  0  0  0  0  0  0  0  0  0  0
    5.1999   -0.0036    0.0000 C   0  0  0  0  0  0  0  0  0  0  0  0
    4.3301   -0.5075    0.0000 C   0  0  0  0  0  0  0  0  0  0  0  0
    3.4648   -0.0063    0.0000 S   0  0  0  0  0  0  0  0  0  0  0  0
    2.9636   -0.8716    0.0000 O   0  0  0  0  0  0  0  0  0  0  0  0
    3.9661    0.8590    0.0000 O   0  0  0  0  0  0  0  0  0  0  0  0
    2.5995    0.4950    0.0000 C   0  0  0  0  0  0  0  0  0  0  0  0
    1.7328   -0.0038    0.0000 C   0  0  0  0  0  0  0  0  0  0  0  0
    0.8675    0.4975    0.0000 C   0  0  0  0  0  0  0  0  0  0  0  0
    0.0000    0.0000    0.0000 C   0  0  0  0  0  0  0  0  0  0  0  0
   -0.8675    0.4975    0.0000 C   0  0  0  0  0  0  0  0  0  0  0  0
   -0.8675    1.5027    0.0000 C   0  0  0  0  0  0  0  0  0  0  0  0
    0.0000    2.0104    0.0000 N   0  0  0  0  0  0  0  0  0  0  0  0
    0.8675    1.5027    0.0000 C   0  0  0  0  0  0  0  0  0  0  0  0
    4.3257   -1.5127    0.0000 C   0  0  0  0  0  0  0  0  0  0  0  0
  1  2  1  0  0  0  0
  2  3  1  0  0  0  0
  2  4  1  0  0  0  0
  4 21  2  0  0  0  0
  4  5  1  0  0  0  0
  5  6  2  0  0  0  0
  6  7  1  0  0  0  0
  6  8  1  0  0  0  0
  8  9  2  0  0  0  0
  9 10  1  0  0  0  0
 10 11  2  0  0  0  0
 10 12  2  0  0  0  0
 10 13  1  0  0  0  0
 13 14  2  0  0  0  0
 14 15  1  0  0  0  0
 15 20  2  0  0  0  0
 15 16  1  0  0  0  0
 16 17  2  0  0  0  0
 17 18  1  0  0  0  0
 18 19  2  0  0  0  0
 19 20  1  0  0  0  0
  9 21  1  0  0  0  0
M  END
$$$$
AGN-NEW-891-6
  -OEChem-03232022352D

 25 27  0     0  0  0  0  0  0999 V2000
    2.9636   -0.8716    0.0000 O   0  0  0  0  0  0  0  0  0  0  0  0
    3.4648   -0.0063    0.0000 S   0  0  0  0  0  0  0  0  0  0  0  0
    3.9661    0.8590    0.0000 O   0  0  0  0  0  0  0  0  0  0  0  0
    2.5995    0.4950    0.0000 C   0  0  0  0  0  0  0  0  0  0  0  0
    1.7328   -0.0038    0.0000 C   0  0  0  0  0  0  0  0  0  0  0  0
    0.8675    0.4975    0.0000 C   0  0  0  0  0  0  0  0  0  0  0  0
    0.0000    0.0000    0.0000 C   0  0  0  0  0  0  0  0  0  0  0  0
   -0.8675    0.4975    0.0000 C   0  0  0  0  0  0  0  0  0  0  0  0
   -0.8675    1.5027    0.0000 C   0  0  0  0  0  0  0  0  0  0  0  0
    0.0000    2.0104    0.0000 N   0  0  0  0  0  0  0  0  0  0  0  0
    0.8675    1.5027    0.0000 C   0  0  0  0  0  0  0  0  0  0  0  0
    4.3301   -0.5075    0.0000 C   0  0  0  0  0  0  0  0  0  0  0  0
    4.3257   -1.5127    0.0000 C   0  0  0  0  0  0  0  0  0  0  0  0
    5.1910   -2.0140    0.0000 C   0  0  0  0  0  0  0  0  0  0  0  0
    6.0607   -1.5204    0.0000 C   0  0  0  0  0  0  0  0  0  0  0  0
    6.0651   -0.5152    0.0000 C   0  0  0  0  0  0  0  0  0  0  0  0
    6.9348   -0.0215    0.0000 C   0  0  0  0  0  0  0  0  0  0  0  0
    7.8046   -0.5254    0.0000 C   0  0  0  0  0  0  0  0  0  0  0  0
    7.8002   -1.5254    0.0000 F   0  0  0  0  0  0  0  0  0  0  0  0
    8.6788   -0.0292    0.0000 C   0  0  0  0  0  0  0  0  0  0  0  0
    8.6832    0.9708    0.0000 C   0  0  0  0  0  0  0  0  0  0  0  0
    7.8223    1.4797    0.0000 C   0  0  0  0  0  0  0  0  0  0  0  0
    6.9481    0.9835    0.0000 C   0  0  0  0  0  0  0  0  0  0  0  0
    6.0873    1.4924    0.0000 F   0  0  0  0  0  0  0  0  0  0  0  0
    5.1999   -0.0036    0.0000 C   0  0  0  0  0  0  0  0  0  0  0  0
  1  2  2  0  0  0  0
  2  3  2  0  0  0  0
  2  4  1  0  0  0  0
  4  5  2  0  0  0  0
  5  6  1  0  0  0  0
  6 11  2  0  0  0  0
  6  7  1  0  0  0  0
  7  8  2  0  0  0  0
  8  9  1  0  0  0  0
  9 10  2  0  0  0  0
 10 11  1  0  0  0  0
  2 12  1  0  0  0  0
 12 25  2  0  0  0  0
 12 13  1  0  0  0  0
 13 14  2  0  0  0  0
 14 15  1  0  0  0  0
 15 16  2  0  0  0  0
 16 17  1  0  0  0  0
 17 23  2  0  0  0  0
 17 18  1  0  0  0  0
 18 19  1  0  0  0  0
 18 20  2  0  0  0  0
 20 21  1  0  0  0  0
 21 22  2  0  0  0  0
 22 23  1  0  0  0  0
 23 24  1  0  0  0  0
 16 25  1  0  0  0  0
M  END
$$$$
AGN-NEW-891-7
  -OEChem-03232022352D

 25 27  0     0  0  0  0  0  0999 V2000
    2.9636   -0.8716    0.0000 O   0  0  0  0  0  0  0  0  0  0  0  0
    3.4648   -0.0063    0.0000 S   0  0  0  0  0  0  0  0  0  0  0  0
    3.9661    0.8590    0.0000 O   0  0  0  0  0  0  0  0  0  0  0  0
    2.5995    0.4950    0.0000 C   0  0  0  0  0  0  0  0  0  0  0  0
    1.7328   -0.0038    0.0000 C   0  0  0  0  0  0  0  0  0  0  0  0
    0.8675    0.4975    0.0000 C   0  0  0  0  0  0  0  0  0  0  0  0
    0.0000    0.0000    0.0000 C   0  0  0  0  0  0  0  0  0  0  0  0
   -0.8675    0.4975    0.0000 C   0  0  0  0  0  0  0  0  0  0  0  0
   -0.8675    1.5027    0.0000 C   0  0  0  0  0  0  0  0  0  0  0  0
    0.0000    2.0104    0.0000 N   0  0  0  0  0  0  0  0  0  0  0  0
    0.8675    1.5027    0.0000 C   0  0  0  0  0  0  0  0  0  0  0  0
    4.3301   -0.5075    0.0000 C   0  0  0  0  0  0  0  0  0  0  0  0
    4.3257   -1.5127    0.0000 C   0  0  0  0  0  0  0  0  0  0  0  0
    5.1910   -2.0140    0.0000 C   0  0  0  0  0  0  0  0  0  0  0  0
    6.0607   -1.5204    0.0000 C   0  0  0  0  0  0  0  0  0  0  0  0
    6.0651   -0.5152    0.0000 C   0  0  0  0  0  0  0  0  0  0  0  0
    6.9348   -0.0215    0.0000 C   0  0  0  0  0  0  0  0  0  0  0  0
    7.7979   -0.5267    0.0000 C   0  0  0  0  0  0  0  0  0  0  0  0
    8.6697   -0.0368    0.0000 C   0  0  0  0  0  0  0  0  0  0  0  0
    8.6786    0.9683    0.0000 C   0  0  0  0  0  0  0  0  0  0  0  0
    9.5504    1.4581    0.0000 F   0  0  0  0  0  0  0  0  0  0  0  0
    7.8156    1.4837    0.0000 C   0  0  0  0  0  0  0  0  0  0  0  0
    6.9437    0.9836    0.0000 C   0  0  0  0  0  0  0  0  0  0  0  0
    6.0806    1.4887    0.0000 F   0  0  0  0  0  0  0  0  0  0  0  0
    5.1999   -0.0036    0.0000 C   0  0  0  0  0  0  0  0  0  0  0  0
  1  2  2  0  0  0  0
  2  3  2  0  0  0  0
  2  4  1  0  0  0  0
  4  5  2  0  0  0  0
  5  6  1  0  0  0  0
  6 11  2  0  0  0  0
  6  7  1  0  0  0  0
  7  8  2  0  0  0  0
  8  9  1  0  0  0  0
  9 10  2  0  0  0  0
 10 11  1  0  0  0  0
  2 12  1  0  0  0  0
 12 25  2  0  0  0  0
 12 13  1  0  0  0  0
 13 14  2  0  0  0  0
 14 15  1  0  0  0  0
 15 16  2  0  0  0  0
 16 17  1  0  0  0  0
 17 23  2  0  0  0  0
 17 18  1  0  0  0  0
 18 19  2  0  0  0  0
 19 20  1  0  0  0  0
 20 21  1  0  0  0  0
 20 22  2  0  0  0  0
 22 23  1  0  0  0  0
 23 24  1  0  0  0  0
 16 25  1  0  0  0  0
M  END
$$$$
AGN-NEW-891-8
  -OEChem-03232022352D

 24 26  0     0  0  0  0  0  0999 V2000
    2.9636   -0.8716    0.0000 O   0  0  0  0  0  0  0  0  0  0  0  0
    3.4648   -0.0063    0.0000 S   0  0  0  0  0  0  0  0  0  0  0  0
    3.9661    0.8590    0.0000 O   0  0  0  0  0  0  0  0  0  0  0  0
    2.5995    0.4950    0.0000 C   0  0  0  0  0  0  0  0  0  0  0  0
    1.7328   -0.0038    0.0000 C   0  0  0  0  0  0  0  0  0  0  0  0
    0.8675    0.4975    0.0000 C   0  0  0  0  0  0  0  0  0  0  0  0
    0.0000    0.0000    0.0000 C   0  0  0  0  0  0  0  0  0  0  0  0
   -0.8675    0.4975    0.0000 C   0  0  0  0  0  0  0  0  0  0  0  0
   -0.8675    1.5027    0.0000 C   0  0  0  0  0  0  0  0  0  0  0  0
    0.0000    2.0104    0.0000 N   0  0  0  0  0  0  0  0  0  0  0  0
    0.8675    1.5027    0.0000 C   0  0  0  0  0  0  0  0  0  0  0  0
    4.3301   -0.5075    0.0000 C   0  0  0  0  0  0  0  0  0  0  0  0
    4.3257   -1.5127    0.0000 C   0  0  0  0  0  0  0  0  0  0  0  0
    5.1910   -2.0140    0.0000 C   0  0  0  0  0  0  0  0  0  0  0  0
    6.0607   -1.5204    0.0000 C   0  0  0  0  0  0  0  0  0  0  0  0
    6.0651   -0.5152    0.0000 C   0  0  0  0  0  0  0  0  0  0  0  0
    6.9348   -0.0215    0.0000 C   0  0  0  0  0  0  0  0  0  0  0  0
    6.9436    0.9785    0.0000 C   0  0  0  0  0  0  0  0  0  0  0  0
    7.8112    1.4759    0.0000 C   0  0  0  0  0  0  0  0  0  0  0  0
    8.6787    0.9681    0.0000 C   0  0  0  0  0  0  0  0  0  0  0  0
    8.6787   -0.0370    0.0000 C   0  0  0  0  0  0  0  0  0  0  0  0
    7.8024   -0.5293    0.0000 C   0  0  0  0  0  0  0  0  0  0  0  0
    7.7935   -1.5292    0.0000 F   0  0  0  0  0  0  0  0  0  0  0  0
    5.1999   -0.0036    0.0000 C   0  0  0  0  0  0  0  0  0  0  0  0
  1  2  2  0  0  0  0
  2  3  2  0  0  0  0
  2  4  1  0  0  0  0
  4  5  2  0  0  0  0
  5  6  1  0  0  0  0
  6 11  2  0  0  0  0
  6  7  1  0  0  0  0
  7  8  2  0  0  0  0
  8  9  1  0  0  0  0
  9 10  2  0  0  0  0
 10 11  1  0  0  0  0
  2 12  1  0  0  0  0
 12 24  2  0  0  0  0
 12 13  1  0  0  0  0
 13 14  2  0  0  0  0
 14 15  1  0  0  0  0
 15 16  2  0  0  0  0
 16 17  1  0  0  0  0
 17 22  2  0  0  0  0
 17 18  1  0  0  0  0
 18 19  2  0  0  0  0
 19 20  1  0  0  0  0
 20 21  2  0  0  0  0
 21 22  1  0  0  0  0
 22 23  1  0  0  0  0
 16 24  1  0  0  0  0
M  END
$$$$
AGN-NEW-891-9
  -OEChem-03232022352D

 20 21  0     0  0  0  0  0  0999 V2000
    3.4768   -4.0165    0.0000 N   0  0  0  0  0  0  0  0  0  0  0  0
    4.3406   -3.5126    0.0000 C   0  0  0  0  0  0  0  0  0  0  0  0
    5.2044   -3.0088    0.0000 C   0  0  0  0  0  0  0  0  0  0  0  0
    5.1999   -2.0088    0.0000 C   0  0  0  0  0  0  0  0  0  0  0  0
    6.0697   -1.5049    0.0000 C   0  0  0  0  0  0  0  0  0  0  0  0
    6.0653   -0.5048    0.0000 C   0  0  0  0  0  0  0  0  0  0  0  0
    5.1999   -0.0036    0.0000 C   0  0  0  0  0  0  0  0  0  0  0  0
    4.3301   -0.5075    0.0000 C   0  0  0  0  0  0  0  0  0  0  0  0
    3.4648   -0.0063    0.0000 S   0  0  0  0  0  0  0  0  0  0  0  0
    2.9636   -0.8716    0.0000 O   0  0  0  0  0  0  0  0  0  0  0  0
    3.9661    0.8590    0.0000 O   0  0  0  0  0  0  0  0  0  0  0  0
    2.5995    0.4950    0.0000 C   0  0  0  0  0  0  0  0  0  0  0  0
    1.7328   -0.0038    0.0000 C   0  0  0  0  0  0  0  0  0  0  0  0
    0.8675    0.4975    0.0000 C   0  0  0  0  0  0  0  0  0  0  0  0
    0.0000    0.0000    0.0000 C   0  0  0  0  0  0  0  0  0  0  0  0
   -0.8675    0.4975    0.0000 C   0  0  0  0  0  0  0  0  0  0  0  0
   -0.8675    1.5027    0.0000 C   0  0  0  0  0  0  0  0  0  0  0  0
    0.0000    2.0104    0.0000 N   0  0  0  0  0  0  0  0  0  0  0  0
    0.8675    1.5027    0.0000 C   0  0  0  0  0  0  0  0  0  0  0  0
    4.3257   -1.5127    0.0000 C   0  0  0  0  0  0  0  0  0  0  0  0
  1  2  3  0  0  0  0
  2  3  1  0  0  0  0
  3  4  1  0  0  0  0
  4 20  2  0  0  0  0
  4  5  1  0  0  0  0
  5  6  2  0  0  0  0
  6  7  1  0  0  0  0
  7  8  2  0  0  0  0
  8  9  1  0  0  0  0
  9 10  2  0  0  0  0
  9 11  2  0  0  0  0
  9 12  1  0  0  0  0
 12 13  2  0  0  0  0
 13 14  1  0  0  0  0
 14 19  2  0  0  0  0
 14 15  1  0  0  0  0
 15 16  2  0  0  0  0
 16 17  1  0  0  0  0
 17 18  2  0  0  0  0
 18 19  1  0  0  0  0
  8 20  1  0  0  0  0
M  END
$$$$
AGN-NEW-891-10
  -OEChem-03232022352D

 23 25  0     0  0  0  0  0  0999 V2000
    2.9636   -0.8716    0.0000 O   0  0  0  0  0  0  0  0  0  0  0  0
    3.4648   -0.0063    0.0000 S   0  0  0  0  0  0  0  0  0  0  0  0
    3.9661    0.8590    0.0000 O   0  0  0  0  0  0  0  0  0  0  0  0
    2.5995    0.4950    0.0000 C   0  0  0  0  0  0  0  0  0  0  0  0
    1.7328   -0.0038    0.0000 C   0  0  0  0  0  0  0  0  0  0  0  0
    0.8675    0.4975    0.0000 C   0  0  0  0  0  0  0  0  0  0  0  0
    0.0000    0.0000    0.0000 C   0  0  0  0  0  0  0  0  0  0  0  0
   -0.8675    0.4975    0.0000 C   0  0  0  0  0  0  0  0  0  0  0  0
   -0.8675    1.5027    0.0000 C   0  0  0  0  0  0  0  0  0  0  0  0
    0.0000    2.0104    0.0000 N   0  0  0  0  0  0  0  0  0  0  0  0
    0.8675    1.5027    0.0000 C   0  0  0  0  0  0  0  0  0  0  0  0
    4.3301   -0.5075    0.0000 C   0  0  0  0  0  0  0  0  0  0  0  0
    4.3257   -1.5127    0.0000 C   0  0  0  0  0  0  0  0  0  0  0  0
    5.1910   -2.0140    0.0000 C   0  0  0  0  0  0  0  0  0  0  0  0
    6.0607   -1.5204    0.0000 C   0  0  0  0  0  0  0  0  0  0  0  0
    6.0651   -0.5152    0.0000 C   0  0  0  0  0  0  0  0  0  0  0  0
    6.9348   -0.0215    0.0000 C   0  0  0  0  0  0  0  0  0  0  0  0
    7.8001   -0.5331    0.0000 N   0  0  0  0  0  0  0  0  0  0  0  0
    8.6698   -0.0292    0.0000 C   0  0  0  0  0  0  0  0  0  0  0  0
    8.6742    0.9760    0.0000 C   0  0  0  0  0  0  0  0  0  0  0  0
    7.8089    1.4773    0.0000 C   0  0  0  0  0  0  0  0  0  0  0  0
    6.9392    0.9836    0.0000 N   0  0  0  0  0  0  0  0  0  0  0  0
    5.1999   -0.0036    0.0000 C   0  0  0  0  0  0  0  0  0  0  0  0
  1  2  2  0  0  0  0
  2  3  2  0  0  0  0
  2  4  1  0  0  0  0
  4  5  2  0  0  0  0
  5  6  1  0  0  0  0
  6 11  2  0  0  0  0
  6  7  1  0  0  0  0
  7  8  2  0  0  0  0
  8  9  1  0  0  0  0
  9 10  2  0  0  0  0
 10 11  1  0  0  0  0
  2 12  1  0  0  0  0
 12 23  2  0  0  0  0
 12 13  1  0  0  0  0
 13 14  2  0  0  0  0
 14 15  1  0  0  0  0
 15 16  2  0  0  0  0
 16 17  1  0  0  0  0
 17 22  2  0  0  0  0
 17 18  1  0  0  0  0
 18 19  2  0  0  0  0
 19 20  1  0  0  0  0
 20 21  2  0  0  0  0
 21 22  1  0  0  0  0
 16 23  1  0  0  0  0
M  END
$$$$
AGN-NEW-891-11
  -OEChem-03232022352D

 25 27  0     0  0  0  0  0  0999 V2000
    6.9401   -3.0023    0.0000 C   0  0  0  0  0  0  0  0  0  0  0  0
    6.9372   -2.0023    0.0000 O   0  0  0  0  0  0  0  0  0  0  0  0
    6.0697   -1.5049    0.0000 C   0  0  0  0  0  0  0  0  0  0  0  0
    6.0653   -0.5048    0.0000 C   0  0  0  0  0  0  0  0  0  0  0  0
    5.1999   -0.0036    0.0000 C   0  0  0  0  0  0  0  0  0  0  0  0
    4.3301   -0.5075    0.0000 C   0  0  0  0  0  0  0  0  0  0  0  0
    3.4648   -0.0063    0.0000 S   0  0  0  0  0  0  0  0  0  0  0  0
    2.9636   -0.8716    0.0000 O   0  0  0  0  0  0  0  0  0  0  0  0
    3.9661    0.8590    0.0000 O   0  0  0  0  0  0  0  0  0  0  0  0
    2.5995    0.4950    0.0000 C   0  0  0  0  0  0  0  0  0  0  0  0
    1.7328   -0.0038    0.0000 C   0  0  0  0  0  0  0  0  0  0  0  0
    0.8675    0.4975    0.0000 C   0  0  0  0  0  0  0  0  0  0  0  0
    0.0000    0.0000    0.0000 C   0  0  0  0  0  0  0  0  0  0  0  0
   -0.8675    0.4975    0.0000 C   0  0  0  0  0  0  0  0  0  0  0  0
   -0.8675    1.5027    0.0000 C   0  0  0  0  0  0  0  0  0  0  0  0
    0.0000    2.0104    0.0000 N   0  0  0  0  0  0  0  0  0  0  0  0
    0.8675    1.5027    0.0000 C   0  0  0  0  0  0  0  0  0  0  0  0
    4.3257   -1.5127    0.0000 C   0  0  0  0  0  0  0  0  0  0  0  0
    5.1999   -2.0088    0.0000 C   0  0  0  0  0  0  0  0  0  0  0  0
    5.2044   -3.0088    0.0000 C   0  0  0  0  0  0  0  0  0  0  0  0
    4.3346   -3.5126    0.0000 N   0  0  0  0  0  0  0  0  0  0  0  0
    4.3480   -4.5177    0.0000 C   0  0  0  0  0  0  0  0  0  0  0  0
    5.2222   -5.0138    0.0000 C   0  0  0  0  0  0  0  0  0  0  0  0
    6.0831   -4.5049    0.0000 C   0  0  0  0  0  0  0  0  0  0  0  0
    6.0786   -3.5049    0.0000 N   0  0  0  0  0  0  0  0  0  0  0  0
  1  2  1  0  0  0  0
  2  3  1  0  0  0  0
  3 19  2  0  0  0  0
  3  4  1  0  0  0  0
  4  5  2  0  0  0  0
  5  6  1  0  0  0  0
  6  7  1  0  0  0  0
  7  8  2  0  0  0  0
  7  9  2  0  0  0  0
  7 10  1  0  0  0  0
 10 11  2  0  0  0  0
 11 12  1  0  0  0  0
 12 17  2  0  0  0  0
 12 13  1  0  0  0  0
 13 14  2  0  0  0  0
 14 15  1  0  0  0  0
 15 16  2  0  0  0  0
 16 17  1  0  0  0  0
  6 18  2  0  0  0  0
 18 19  1  0  0  0  0
 19 20  1  0  0  0  0
 20 25  2  0  0  0  0
 20 21  1  0  0  0  0
 21 22  2  0  0  0  0
 22 23  1  0  0  0  0
 23 24  2  0  0  0  0
 24 25  1  0  0  0  0
M  END
$$$$
DAR-DIA-842-1
  -OEChem-03232022352D

 15 16  0     0  0  0  0  0  0999 V2000
    0.8646   -1.5025    0.0000 O   0  0  0  0  0  0  0  0  0  0  0  0
    1.7313   -1.0038    0.0000 C   0  0  0  0  0  0  0  0  0  0  0  0
    1.7328   -0.0038    0.0000 N   0  0  0  0  0  0  0  0  0  0  0  0
    0.8675    0.4975    0.0000 C   0  0  0  0  0  0  0  0  0  0  0  0
    0.0000    0.0000    0.0000 C   0  0  0  0  0  0  0  0  0  0  0  0
   -0.8675    0.4975    0.0000 C   0  0  0  0  0  0  0  0  0  0  0  0
   -0.8675    1.5027    0.0000 C   0  0  0  0  0  0  0  0  0  0  0  0
    0.0000    2.0104    0.0000 N   0  0  0  0  0  0  0  0  0  0  0  0
    0.8675    1.5027    0.0000 C   0  0  0  0  0  0  0  0  0  0  0  0
    2.5966   -1.5050    0.0000 N   0  0  0  0  0  0  0  0  0  0  0  0
    2.5952   -2.5050    0.0000 C   0  0  0  0  0  0  0  0  0  0  0  0
    3.4053   -3.0939    0.0000 C   0  0  0  0  0  0  0  0  0  0  0  0
    3.0935   -4.0441    0.0000 C   0  0  0  0  0  0  0  0  0  0  0  0
    2.0930   -4.0473    0.0000 S   0  0  0  0  0  0  0  0  0  0  0  0
    1.7833   -3.0916    0.0000 C   0  0  0  0  0  0  0  0  0  0  0  0
  1  2  2  0  0  0  0
  2  3  1  0  0  0  0
  3  4  1  0  0  0  0
  4  9  2  0  0  0  0
  4  5  1  0  0  0  0
  5  6  2  0  0  0  0
  6  7  1  0  0  0  0
  7  8  2  0  0  0  0
  8  9  1  0  0  0  0
  2 10  1  0  0  0  0
 10 11  1  0  0  0  0
 11 15  2  0  0  0  0
 11 12  1  0  0  0  0
 12 13  2  0  0  0  0
 13 14  1  0  0  0  0
 14 15  1  0  0  0  0
M  END
$$$$
DAR-DIA-842-2
  -OEChem-03232022352D

 16 17  0     0  0  0  0  0  0999 V2000
    1.5030   -4.8551    0.0000 C   0  0  0  0  0  0  0  0  0  0  0  0
    2.0920   -4.0470    0.0000 N   0  0  0  0  0  0  0  0  0  0  0  0
    1.7849   -3.0936    0.0000 C   0  0  0  0  0  0  0  0  0  0  0  0
    2.5952   -2.5050    0.0000 C   0  0  0  0  0  0  0  0  0  0  0  0
    2.5966   -1.5050    0.0000 N   0  0  0  0  0  0  0  0  0  0  0  0
    1.7313   -1.0038    0.0000 C   0  0  0  0  0  0  0  0  0  0  0  0
    0.8646   -1.5025    0.0000 O   0  0  0  0  0  0  0  0  0  0  0  0
    1.7328   -0.0038    0.0000 N   0  0  0  0  0  0  0  0  0  0  0  0
    0.8675    0.4975    0.0000 C   0  0  0  0  0  0  0  0  0  0  0  0
    0.0000    0.0000    0.0000 C   0  0  0  0  0  0  0  0  0  0  0  0
   -0.8675    0.4975    0.0000 C   0  0  0  0  0  0  0  0  0  0  0  0
   -0.8675    1.5027    0.0000 C   0  0  0  0  0  0  0  0  0  0  0  0
    0.0000    2.0104    0.0000 N   0  0  0  0  0  0  0  0  0  0  0  0
    0.8675    1.5027    0.0000 C   0  0  0  0  0  0  0  0  0  0  0  0
    3.4026   -3.0951    0.0000 C   0  0  0  0  0  0  0  0  0  0  0  0
    3.0967   -4.0476    0.0000 N   0  0  0  0  0  0  0  0  0  0  0  0
  1  2  1  0  0  0  0
  2 16  1  0  0  0  0
  2  3  1  0  0  0  0
  3  4  2  0  0  0  0
  4  5  1  0  0  0  0
  5  6  1  0  0  0  0
  6  7  2  0  0  0  0
  6  8  1  0  0  0  0
  8  9  1  0  0  0  0
  9 14  2  0  0  0  0
  9 10  1  0  0  0  0
 10 11  2  0  0  0  0
 11 12  1  0  0  0  0
 12 13  2  0  0  0  0
 13 14  1  0  0  0  0
  4 15  1  0  0  0  0
 15 16  2  0  0  0  0
M  END
$$$$
DAR-DIA-842-3
  -OEChem-03232022352D

 16 17  0     0  0  0  0  0  0999 V2000
    1.5072   -4.8548    0.0000 C   0  0  0  0  0  0  0  0  0  0  0  0
    2.0946   -4.0455    0.0000 C   0  0  0  0  0  0  0  0  0  0  0  0
    3.0946   -4.0482    0.0000 C   0  0  0  0  0  0  0  0  0  0  0  0
    3.4041   -3.0957    0.0000 C   0  0  0  0  0  0  0  0  0  0  0  0
    2.5952   -2.5050    0.0000 C   0  0  0  0  0  0  0  0  0  0  0  0
    2.5966   -1.5050    0.0000 N   0  0  0  0  0  0  0  0  0  0  0  0
    1.7313   -1.0038    0.0000 C   0  0  0  0  0  0  0  0  0  0  0  0
    0.8646   -1.5025    0.0000 O   0  0  0  0  0  0  0  0  0  0  0  0
    1.7328   -0.0038    0.0000 N   0  0  0  0  0  0  0  0  0  0  0  0
    0.8675    0.4975    0.0000 C   0  0  0  0  0  0  0  0  0  0  0  0
    0.0000    0.0000    0.0000 C   0  0  0  0  0  0  0  0  0  0  0  0
   -0.8675    0.4975    0.0000 C   0  0  0  0  0  0  0  0  0  0  0  0
   -0.8675    1.5027    0.0000 C   0  0  0  0  0  0  0  0  0  0  0  0
    0.0000    2.0104    0.0000 N   0  0  0  0  0  0  0  0  0  0  0  0
    0.8675    1.5027    0.0000 C   0  0  0  0  0  0  0  0  0  0  0  0
    1.7821   -3.0951    0.0000 S   0  0  0  0  0  0  0  0  0  0  0  0
  1  2  1  0  0  0  0
  2 16  1  0  0  0  0
  2  3  2  0  0  0  0
  3  4  1  0  0  0  0
  4  5  2  0  0  0  0
  5  6  1  0  0  0  0
  6  7  1  0  0  0  0
  7  8  2  0  0  0  0
  7  9  1  0  0  0  0
  9 10  1  0  0  0  0
 10 15  2  0  0  0  0
 10 11  1  0  0  0  0
 11 12  2  0  0  0  0
 12 13  1  0  0  0  0
 13 14  2  0  0  0  0
 14 15  1  0  0  0  0
  5 16  1  0  0  0  0
M  END
$$$$
DAR-DIA-842-4
  -OEChem-03232022352D

 16 17  0     0  0  0  0  0  0999 V2000
    0.8646   -1.5025    0.0000 O   0  0  0  0  0  0  0  0  0  0  0  0
    1.7313   -1.0038    0.0000 C   0  0  0  0  0  0  0  0  0  0  0  0
    1.7328   -0.0038    0.0000 N   0  0  0  0  0  0  0  0  0  0  0  0
    0.8675    0.4975    0.0000 C   0  0  0  0  0  0  0  0  0  0  0  0
    0.0000    0.0000    0.0000 C   0  0  0  0  0  0  0  0  0  0  0  0
   -0.8675    0.4975    0.0000 C   0  0  0  0  0  0  0  0  0  0  0  0
   -0.8675    1.5027    0.0000 C   0  0  0  0  0  0  0  0  0  0  0  0
    0.0000    2.0104    0.0000 N   0  0  0  0  0  0  0  0  0  0  0  0
    0.8675    1.5027    0.0000 C   0  0  0  0  0  0  0  0  0  0  0  0
    2.5966   -1.5050    0.0000 N   0  0  0  0  0  0  0  0  0  0  0  0
    2.5952   -2.5050    0.0000 C   0  0  0  0  0  0  0  0  0  0  0  0
    1.7835   -3.0891    0.0000 C   0  0  0  0  0  0  0  0  0  0  0  0
    2.0912   -4.0422    0.0000 C   0  0  0  0  0  0  0  0  0  0  0  0
    3.0928   -4.0465    0.0000 C   0  0  0  0  0  0  0  0  0  0  0  0
    3.6779   -4.8574    0.0000 Cl  0  0  0  0  0  0  0  0  0  0  0  0
    3.4055   -3.0917    0.0000 S   0  0  0  0  0  0  0  0  0  0  0  0
  1  2  2  0  0  0  0
  2  3  1  0  0  0  0
  3  4  1  0  0  0  0
  4  9  2  0  0  0  0
  4  5  1  0  0  0  0
  5  6  2  0  0  0  0
  6  7  1  0  0  0  0
  7  8  2  0  0  0  0
  8  9  1  0  0  0  0
  2 10  1  0  0  0  0
 10 11  1  0  0  0  0
 11 16  1  0  0  0  0
 11 12  2  0  0  0  0
 12 13  1  0  0  0  0
 13 14  2  0  0  0  0
 14 15  1  0  0  0  0
 14 16  1  0  0  0  0
M  END
$$$$
DAR-DIA-842-5
  -OEChem-03232022352D

 17 18  0     0  0  0  0  0  0999 V2000
    0.9197   -5.6640    0.0000 N   0  0  0  0  0  0  0  0  0  0  0  0
    1.5072   -4.8548    0.0000 C   0  0  0  0  0  0  0  0  0  0  0  0
    2.0946   -4.0455    0.0000 C   0  0  0  0  0  0  0  0  0  0  0  0
    3.0946   -4.0482    0.0000 C   0  0  0  0  0  0  0  0  0  0  0  0
    3.4041   -3.0957    0.0000 C   0  0  0  0  0  0  0  0  0  0  0  0
    2.5952   -2.5050    0.0000 C   0  0  0  0  0  0  0  0  0  0  0  0
    2.5966   -1.5050    0.0000 N   0  0  0  0  0  0  0  0  0  0  0  0
    1.7313   -1.0038    0.0000 C   0  0  0  0  0  0  0  0  0  0  0  0
    0.8646   -1.5025    0.0000 O   0  0  0  0  0  0  0  0  0  0  0  0
    1.7328   -0.0038    0.0000 N   0  0  0  0  0  0  0  0  0  0  0  0
    0.8675    0.4975    0.0000 C   0  0  0  0  0  0  0  0  0  0  0  0
    0.0000    0.0000    0.0000 C   0  0  0  0  0  0  0  0  0  0  0  0
   -0.8675    0.4975    0.0000 C   0  0  0  0  0  0  0  0  0  0  0  0
   -0.8675    1.5027    0.0000 C   0  0  0  0  0  0  0  0  0  0  0  0
    0.0000    2.0104    0.0000 N   0  0  0  0  0  0  0  0  0  0  0  0
    0.8675    1.5027    0.0000 C   0  0  0  0  0  0  0  0  0  0  0  0
    1.7821   -3.0951    0.0000 S   0  0  0  0  0  0  0  0  0  0  0  0
  1  2  3  0  0  0  0
  2  3  1  0  0  0  0
  3 17  1  0  0  0  0
  3  4  2  0  0  0  0
  4  5  1  0  0  0  0
  5  6  2  0  0  0  0
  6  7  1  0  0  0  0
  7  8  1  0  0  0  0
  8  9  2  0  0  0  0
  8 10  1  0  0  0  0
 10 11  1  0  0  0  0
 11 16  2  0  0  0  0
 11 12  1  0  0  0  0
 12 13  2  0  0  0  0
 13 14  1  0  0  0  0
 14 15  2  0  0  0  0
 15 16  1  0  0  0  0
  6 17  1  0  0  0  0
M  END
$$$$
DAR-DIA-842-6
  -OEChem-03232022352D

 17 18  0     0  0  0  0  0  0999 V2000
    4.2680   -5.6678    0.0000 N   0  0  0  0  0  0  0  0  0  0  0  0
    3.6813   -4.8580    0.0000 C   0  0  0  0  0  0  0  0  0  0  0  0
    3.0946   -4.0482    0.0000 C   0  0  0  0  0  0  0  0  0  0  0  0
    2.0946   -4.0455    0.0000 C   0  0  0  0  0  0  0  0  0  0  0  0
    1.7821   -3.0951    0.0000 O   0  0  0  0  0  0  0  0  0  0  0  0
    2.5952   -2.5050    0.0000 C   0  0  0  0  0  0  0  0  0  0  0  0
    2.5966   -1.5050    0.0000 N   0  0  0  0  0  0  0  0  0  0  0  0
    1.7313   -1.0038    0.0000 C   0  0  0  0  0  0  0  0  0  0  0  0
    0.8646   -1.5025    0.0000 O   0  0  0  0  0  0  0  0  0  0  0  0
    1.7328   -0.0038    0.0000 N   0  0  0  0  0  0  0  0  0  0  0  0
    0.8675    0.4975    0.0000 C   0  0  0  0  0  0  0  0  0  0  0  0
    0.0000    0.0000    0.0000 C   0  0  0  0  0  0  0  0  0  0  0  0
   -0.8675    0.4975    0.0000 C   0  0  0  0  0  0  0  0  0  0  0  0
   -0.8675    1.5027    0.0000 C   0  0  0  0  0  0  0  0  0  0  0  0
    0.0000    2.0104    0.0000 N   0  0  0  0  0  0  0  0  0  0  0  0
    0.8675    1.5027    0.0000 C   0  0  0  0  0  0  0  0  0  0  0  0
    3.4041   -3.0957    0.0000 N   0  0  0  0  0  0  0  0  0  0  0  0
  1  2  3  0  0  0  0
  2  3  1  0  0  0  0
  3 17  1  0  0  0  0
  3  4  2  0  0  0  0
  4  5  1  0  0  0  0
  5  6  1  0  0  0  0
  6  7  1  0  0  0  0
  7  8  1  0  0  0  0
  8  9  2  0  0  0  0
  8 10  1  0  0  0  0
 10 11  1  0  0  0  0
 11 16  2  0  0  0  0
 11 12  1  0  0  0  0
 12 13  2  0  0  0  0
 13 14  1  0  0  0  0
 14 15  2  0  0  0  0
 15 16  1  0  0  0  0
  6 17  2  0  0  0  0
M  END
$$$$
DAR-DIA-842-7
  -OEChem-03232022352D

 16 17  0     0  0  0  0  0  0999 V2000
    3.6813   -4.8580    0.0000 C   0  0  0  0  0  0  0  0  0  0  0  0
    3.0946   -4.0482    0.0000 C   0  0  0  0  0  0  0  0  0  0  0  0
    2.0946   -4.0455    0.0000 C   0  0  0  0  0  0  0  0  0  0  0  0
    1.7821   -3.0951    0.0000 O   0  0  0  0  0  0  0  0  0  0  0  0
    2.5952   -2.5050    0.0000 C   0  0  0  0  0  0  0  0  0  0  0  0
    2.5966   -1.5050    0.0000 N   0  0  0  0  0  0  0  0  0  0  0  0
    1.7313   -1.0038    0.0000 C   0  0  0  0  0  0  0  0  0  0  0  0
    0.8646   -1.5025    0.0000 O   0  0  0  0  0  0  0  0  0  0  0  0
    1.7328   -0.0038    0.0000 N   0  0  0  0  0  0  0  0  0  0  0  0
    0.8675    0.4975    0.0000 C   0  0  0  0  0  0  0  0  0  0  0  0
    0.0000    0.0000    0.0000 C   0  0  0  0  0  0  0  0  0  0  0  0
   -0.8675    0.4975    0.0000 C   0  0  0  0  0  0  0  0  0  0  0  0
   -0.8675    1.5027    0.0000 C   0  0  0  0  0  0  0  0  0  0  0  0
    0.0000    2.0104    0.0000 N   0  0  0  0  0  0  0  0  0  0  0  0
    0.8675    1.5027    0.0000 C   0  0  0  0  0  0  0  0  0  0  0  0
    3.4041   -3.0957    0.0000 N   0  0  0  0  0  0  0  0  0  0  0  0
  1  2  1  0  0  0  0
  2 16  1  0  0  0  0
  2  3  2  0  0  0  0
  3  4  1  0  0  0  0
  4  5  1  0  0  0  0
  5  6  1  0  0  0  0
  6  7  1  0  0  0  0
  7  8  2  0  0  0  0
  7  9  1  0  0  0  0
  9 10  1  0  0  0  0
 10 15  2  0  0  0  0
 10 11  1  0  0  0  0
 11 12  2  0  0  0  0
 12 13  1  0  0  0  0
 13 14  2  0  0  0  0
 14 15  1  0  0  0  0
  5 16  2  0  0  0  0
M  END
$$$$
DAR-DIA-842-8
  -OEChem-03232022352D

 16 17  0     0  0  0  0  0  0999 V2000
    0.8646   -1.5025    0.0000 O   0  0  0  0  0  0  0  0  0  0  0  0
    1.7313   -1.0038    0.0000 C   0  0  0  0  0  0  0  0  0  0  0  0
    1.7328   -0.0038    0.0000 N   0  0  0  0  0  0  0  0  0  0  0  0
    0.8675    0.4975    0.0000 C   0  0  0  0  0  0  0  0  0  0  0  0
    0.0000    0.0000    0.0000 C   0  0  0  0  0  0  0  0  0  0  0  0
   -0.8675    0.4975    0.0000 C   0  0  0  0  0  0  0  0  0  0  0  0
   -0.8675    1.5027    0.0000 C   0  0  0  0  0  0  0  0  0  0  0  0
    0.0000    2.0104    0.0000 N   0  0  0  0  0  0  0  0  0  0  0  0
    0.8675    1.5027    0.0000 C   0  0  0  0  0  0  0  0  0  0  0  0
    2.5966   -1.5050    0.0000 N   0  0  0  0  0  0  0  0  0  0  0  0
    2.5952   -2.5050    0.0000 C   0  0  0  0  0  0  0  0  0  0  0  0
    3.4041   -3.0957    0.0000 N   0  0  0  0  0  0  0  0  0  0  0  0
    3.0946   -4.0482    0.0000 C   0  0  0  0  0  0  0  0  0  0  0  0
    3.6813   -4.8580    0.0000 Cl  0  0  0  0  0  0  0  0  0  0  0  0
    2.0946   -4.0455    0.0000 C   0  0  0  0  0  0  0  0  0  0  0  0
    1.7821   -3.0951    0.0000 O   0  0  0  0  0  0  0  0  0  0  0  0
  1  2  2  0  0  0  0
  2  3  1  0  0  0  0
  3  4  1  0  0  0  0
  4  9  2  0  0  0  0
  4  5  1  0  0  0  0
  5  6  2  0  0  0  0
  6  7  1  0  0  0  0
  7  8  2  0  0  0  0
  8  9  1  0  0  0  0
  2 10  1  0  0  0  0
 10 11  1  0  0  0  0
 11 16  1  0  0  0  0
 11 12  2  0  0  0  0
 12 13  1  0  0  0  0
 13 14  1  0  0  0  0
 13 15  2  0  0  0  0
 15 16  1  0  0  0  0
M  END
$$$$
DAR-DIA-842-9
  -OEChem-03232022352D

 17 18  0     0  0  0  0  0  0999 V2000
    0.9197   -5.6640    0.0000 N   0  0  0  0  0  0  0  0  0  0  0  0
    1.5072   -4.8548    0.0000 C   0  0  0  0  0  0  0  0  0  0  0  0
    2.0946   -4.0455    0.0000 C   0  0  0  0  0  0  0  0  0  0  0  0
    3.0946   -4.0482    0.0000 C   0  0  0  0  0  0  0  0  0  0  0  0
    3.4041   -3.0957    0.0000 C   0  0  0  0  0  0  0  0  0  0  0  0
    2.5952   -2.5050    0.0000 C   0  0  0  0  0  0  0  0  0  0  0  0
    2.5966   -1.5050    0.0000 N   0  0  0  0  0  0  0  0  0  0  0  0
    1.7313   -1.0038    0.0000 C   0  0  0  0  0  0  0  0  0  0  0  0
    0.8646   -1.5025    0.0000 O   0  0  0  0  0  0  0  0  0  0  0  0
    1.7328   -0.0038    0.0000 N   0  0  0  0  0  0  0  0  0  0  0  0
    0.8675    0.4975    0.0000 C   0  0  0  0  0  0  0  0  0  0  0  0
    0.0000    0.0000    0.0000 C   0  0  0  0  0  0  0  0  0  0  0  0
   -0.8675    0.4975    0.0000 C   0  0  0  0  0  0  0  0  0  0  0  0
   -0.8675    1.5027    0.0000 C   0  0  0  0  0  0  0  0  0  0  0  0
    0.0000    2.0104    0.0000 N   0  0  0  0  0  0  0  0  0  0  0  0
    0.8675    1.5027    0.0000 C   0  0  0  0  0  0  0  0  0  0  0  0
    1.7821   -3.0951    0.0000 O   0  0  0  0  0  0  0  0  0  0  0  0
  1  2  3  0  0  0  0
  2  3  1  0  0  0  0
  3 17  1  0  0  0  0
  3  4  2  0  0  0  0
  4  5  1  0  0  0  0
  5  6  2  0  0  0  0
  6  7  1  0  0  0  0
  7  8  1  0  0  0  0
  8  9  2  0  0  0  0
  8 10  1  0  0  0  0
 10 11  1  0  0  0  0
 11 16  2  0  0  0  0
 11 12  1  0  0  0  0
 12 13  2  0  0  0  0
 13 14  1  0  0  0  0
 14 15  2  0  0  0  0
 15 16  1  0  0  0  0
  6 17  1  0  0  0  0
M  END
$$$$
DAR-DIA-842-10
  -OEChem-03232022352D

 15 16  0     0  0  0  0  0  0999 V2000
    2.6010    1.4950    0.0000 O   0  0  0  0  0  0  0  0  0  0  0  0
    2.5995    0.4950    0.0000 C   0  0  0  0  0  0  0  0  0  0  0  0
    3.4648   -0.0063    0.0000 C   0  0  0  0  0  0  0  0  0  0  0  0
    4.3316    0.4925    0.0000 C   0  0  0  0  0  0  0  0  0  0  0  0
    4.4365    1.4885    0.0000 C   0  0  0  0  0  0  0  0  0  0  0  0
    5.4153    1.6935    0.0000 C   0  0  0  0  0  0  0  0  0  0  0  0
    5.9184    0.8288    0.0000 S   0  0  0  0  0  0  0  0  0  0  0  0
    5.2456    0.0826    0.0000 C   0  0  0  0  0  0  0  0  0  0  0  0
    1.7328   -0.0038    0.0000 N   0  0  0  0  0  0  0  0  0  0  0  0
    0.8675    0.4975    0.0000 C   0  0  0  0  0  0  0  0  0  0  0  0
    0.0000    0.0000    0.0000 C   0  0  0  0  0  0  0  0  0  0  0  0
   -0.8675    0.4975    0.0000 C   0  0  0  0  0  0  0  0  0  0  0  0
   -0.8675    1.5027    0.0000 C   0  0  0  0  0  0  0  0  0  0  0  0
    0.0000    2.0104    0.0000 N   0  0  0  0  0  0  0  0  0  0  0  0
    0.8675    1.5027    0.0000 C   0  0  0  0  0  0  0  0  0  0  0  0
  1  2  2  0  0  0  0
  2  3  1  0  0  0  0
  3  4  1  0  0  0  0
  4  8  2  0  0  0  0
  4  5  1  0  0  0  0
  5  6  2  0  0  0  0
  6  7  1  0  0  0  0
  7  8  1  0  0  0  0
  2  9  1  0  0  0  0
  9 10  1  0  0  0  0
 10 15  2  0  0  0  0
 10 11  1  0  0  0  0
 11 12  2  0  0  0  0
 12 13  1  0  0  0  0
 13 14  2  0  0  0  0
 14 15  1  0  0  0  0
M  END
$$$$
DAR-DIA-842-11
  -OEChem-03232022352D

 16 17  0     0  0  0  0  0  0999 V2000
    1.5030   -4.8551    0.0000 C   0  0  0  0  0  0  0  0  0  0  0  0
    2.0920   -4.0470    0.0000 N   0  0  0  0  0  0  0  0  0  0  0  0
    1.7849   -3.0936    0.0000 C   0  0  0  0  0  0  0  0  0  0  0  0
    2.5952   -2.5050    0.0000 C   0  0  0  0  0  0  0  0  0  0  0  0
    2.5966   -1.5050    0.0000 C   0  0  0  0  0  0  0  0  0  0  0  0
    1.7313   -1.0038    0.0000 C   0  0  0  0  0  0  0  0  0  0  0  0
    0.8646   -1.5025    0.0000 O   0  0  0  0  0  0  0  0  0  0  0  0
    1.7328   -0.0038    0.0000 N   0  0  0  0  0  0  0  0  0  0  0  0
    0.8675    0.4975    0.0000 C   0  0  0  0  0  0  0  0  0  0  0  0
    0.0000    0.0000    0.0000 C   0  0  0  0  0  0  0  0  0  0  0  0
   -0.8675    0.4975    0.0000 C   0  0  0  0  0  0  0  0  0  0  0  0
   -0.8675    1.5027    0.0000 C   0  0  0  0  0  0  0  0  0  0  0  0
    0.0000    2.0104    0.0000 N   0  0  0  0  0  0  0  0  0  0  0  0
    0.8675    1.5027    0.0000 C   0  0  0  0  0  0  0  0  0  0  0  0
    3.4026   -3.0951    0.0000 C   0  0  0  0  0  0  0  0  0  0  0  0
    3.0967   -4.0476    0.0000 N   0  0  0  0  0  0  0  0  0  0  0  0
  1  2  1  0  0  0  0
  2 16  1  0  0  0  0
  2  3  1  0  0  0  0
  3  4  2  0  0  0  0
  4  5  1  0  0  0  0
  5  6  1  0  0  0  0
  6  7  2  0  0  0  0
  6  8  1  0  0  0  0
  8  9  1  0  0  0  0
  9 14  2  0  0  0  0
  9 10  1  0  0  0  0
 10 11  2  0  0  0  0
 11 12  1  0  0  0  0
 12 13  2  0  0  0  0
 13 14  1  0  0  0  0
  4 15  1  0  0  0  0
 15 16  2  0  0  0  0
M  END
$$$$
DAR-DIA-842-12
  -OEChem-03232022352D

 16 17  0     0  0  0  0  0  0999 V2000
    1.5072   -4.8548    0.0000 C   0  0  0  0  0  0  0  0  0  0  0  0
    2.0946   -4.0455    0.0000 C   0  0  0  0  0  0  0  0  0  0  0  0
    3.0946   -4.0482    0.0000 C   0  0  0  0  0  0  0  0  0  0  0  0
    3.4041   -3.0957    0.0000 C   0  0  0  0  0  0  0  0  0  0  0  0
    2.5952   -2.5050    0.0000 C   0  0  0  0  0  0  0  0  0  0  0  0
    2.5966   -1.5050    0.0000 C   0  0  0  0  0  0  0  0  0  0  0  0
    1.7313   -1.0038    0.0000 C   0  0  0  0  0  0  0  0  0  0  0  0
    0.8646   -1.5025    0.0000 O   0  0  0  0  0  0  0  0  0  0  0  0
    1.7328   -0.0038    0.0000 N   0  0  0  0  0  0  0  0  0  0  0  0
    0.8675    0.4975    0.0000 C   0  0  0  0  0  0  0  0  0  0  0  0
    0.0000    0.0000    0.0000 C   0  0  0  0  0  0  0  0  0  0  0  0
   -0.8675    0.4975    0.0000 C   0  0  0  0  0  0  0  0  0  0  0  0
   -0.8675    1.5027    0.0000 C   0  0  0  0  0  0  0  0  0  0  0  0
    0.0000    2.0104    0.0000 N   0  0  0  0  0  0  0  0  0  0  0  0
    0.8675    1.5027    0.0000 C   0  0  0  0  0  0  0  0  0  0  0  0
    1.7821   -3.0951    0.0000 S   0  0  0  0  0  0  0  0  0  0  0  0
  1  2  1  0  0  0  0
  2 16  1  0  0  0  0
  2  3  2  0  0  0  0
  3  4  1  0  0  0  0
  4  5  2  0  0  0  0
  5  6  1  0  0  0  0
  6  7  1  0  0  0  0
  7  8  2  0  0  0  0
  7  9  1  0  0  0  0
  9 10  1  0  0  0  0
 10 15  2  0  0  0  0
 10 11  1  0  0  0  0
 11 12  2  0  0  0  0
 12 13  1  0  0  0  0
 13 14  2  0  0  0  0
 14 15  1  0  0  0  0
  5 16  1  0  0  0  0
M  END
$$$$
DAR-DIA-842-13
  -OEChem-03232022352D

 16 17  0     0  0  0  0  0  0999 V2000
    2.6010    1.4950    0.0000 O   0  0  0  0  0  0  0  0  0  0  0  0
    2.5995    0.4950    0.0000 C   0  0  0  0  0  0  0  0  0  0  0  0
    3.4648   -0.0063    0.0000 C   0  0  0  0  0  0  0  0  0  0  0  0
    4.3316    0.4925    0.0000 C   0  0  0  0  0  0  0  0  0  0  0  0
    5.2433    0.0816    0.0000 C   0  0  0  0  0  0  0  0  0  0  0  0
    5.9149    0.8246    0.0000 C   0  0  0  0  0  0  0  0  0  0  0  0
    5.4177    1.6942    0.0000 C   0  0  0  0  0  0  0  0  0  0  0  0
    5.8275    2.6064    0.0000 Cl  0  0  0  0  0  0  0  0  0  0  0  0
    4.4345    1.4876    0.0000 S   0  0  0  0  0  0  0  0  0  0  0  0
    1.7328   -0.0038    0.0000 N   0  0  0  0  0  0  0  0  0  0  0  0
    0.8675    0.4975    0.0000 C   0  0  0  0  0  0  0  0  0  0  0  0
    0.0000    0.0000    0.0000 C   0  0  0  0  0  0  0  0  0  0  0  0
   -0.8675    0.4975    0.0000 C   0  0  0  0  0  0  0  0  0  0  0  0
   -0.8675    1.5027    0.0000 C   0  0  0  0  0  0  0  0  0  0  0  0
    0.0000    2.0104    0.0000 N   0  0  0  0  0  0  0  0  0  0  0  0
    0.8675    1.5027    0.0000 C   0  0  0  0  0  0  0  0  0  0  0  0
  1  2  2  0  0  0  0
  2  3  1  0  0  0  0
  3  4  1  0  0  0  0
  4  9  1  0  0  0  0
  4  5  2  0  0  0  0
  5  6  1  0  0  0  0
  6  7  2  0  0  0  0
  7  8  1  0  0  0  0
  7  9  1  0  0  0  0
  2 10  1  0  0  0  0
 10 11  1  0  0  0  0
 11 16  2  0  0  0  0
 11 12  1  0  0  0  0
 12 13  2  0  0  0  0
 13 14  1  0  0  0  0
 14 15  2  0  0  0  0
 15 16  1  0  0  0  0
M  END
$$$$
DAR-DIA-842-14
  -OEChem-03232022352D

 17 18  0     0  0  0  0  0  0999 V2000
    0.9197   -5.6640    0.0000 N   0  0  0  0  0  0  0  0  0  0  0  0
    1.5072   -4.8548    0.0000 C   0  0  0  0  0  0  0  0  0  0  0  0
    2.0946   -4.0455    0.0000 C   0  0  0  0  0  0  0  0  0  0  0  0
    3.0946   -4.0482    0.0000 C   0  0  0  0  0  0  0  0  0  0  0  0
    3.4041   -3.0957    0.0000 C   0  0  0  0  0  0  0  0  0  0  0  0
    2.5952   -2.5050    0.0000 C   0  0  0  0  0  0  0  0  0  0  0  0
    2.5966   -1.5050    0.0000 C   0  0  0  0  0  0  0  0  0  0  0  0
    1.7313   -1.0038    0.0000 C   0  0  0  0  0  0  0  0  0  0  0  0
    0.8646   -1.5025    0.0000 O   0  0  0  0  0  0  0  0  0  0  0  0
    1.7328   -0.0038    0.0000 N   0  0  0  0  0  0  0  0  0  0  0  0
    0.8675    0.4975    0.0000 C   0  0  0  0  0  0  0  0  0  0  0  0
    0.0000    0.0000    0.0000 C   0  0  0  0  0  0  0  0  0  0  0  0
   -0.8675    0.4975    0.0000 C   0  0  0  0  0  0  0  0  0  0  0  0
   -0.8675    1.5027    0.0000 C   0  0  0  0  0  0  0  0  0  0  0  0
    0.0000    2.0104    0.0000 N   0  0  0  0  0  0  0  0  0  0  0  0
    0.8675    1.5027    0.0000 C   0  0  0  0  0  0  0  0  0  0  0  0
    1.7821   -3.0951    0.0000 S   0  0  0  0  0  0  0  0  0  0  0  0
  1  2  3  0  0  0  0
  2  3  1  0  0  0  0
  3 17  1  0  0  0  0
  3  4  2  0  0  0  0
  4  5  1  0  0  0  0
  5  6  2  0  0  0  0
  6  7  1  0  0  0  0
  7  8  1  0  0  0  0
  8  9  2  0  0  0  0
  8 10  1  0  0  0  0
 10 11  1  0  0  0  0
 11 16  2  0  0  0  0
 11 12  1  0  0  0  0
 12 13  2  0  0  0  0
 13 14  1  0  0  0  0
 14 15  2  0  0  0  0
 15 16  1  0  0  0  0
  6 17  1  0  0  0  0
M  END
$$$$
DAR-DIA-842-15
  -OEChem-03232022352D

 17 18  0     0  0  0  0  0  0999 V2000
    0.9197   -5.6640    0.0000 N   0  0  0  0  0  0  0  0  0  0  0  0
    1.5072   -4.8548    0.0000 C   0  0  0  0  0  0  0  0  0  0  0  0
    2.0946   -4.0455    0.0000 C   0  0  0  0  0  0  0  0  0  0  0  0
    3.0946   -4.0482    0.0000 C   0  0  0  0  0  0  0  0  0  0  0  0
    3.4041   -3.0957    0.0000 N   0  0  0  0  0  0  0  0  0  0  0  0
    2.5952   -2.5050    0.0000 C   0  0  0  0  0  0  0  0  0  0  0  0
    2.5966   -1.5050    0.0000 C   0  0  0  0  0  0  0  0  0  0  0  0
    1.7313   -1.0038    0.0000 C   0  0  0  0  0  0  0  0  0  0  0  0
    0.8646   -1.5025    0.0000 O   0  0  0  0  0  0  0  0  0  0  0  0
    1.7328   -0.0038    0.0000 N   0  0  0  0  0  0  0  0  0  0  0  0
    0.8675    0.4975    0.0000 C   0  0  0  0  0  0  0  0  0  0  0  0
    0.0000    0.0000    0.0000 C   0  0  0  0  0  0  0  0  0  0  0  0
   -0.8675    0.4975    0.0000 C   0  0  0  0  0  0  0  0  0  0  0  0
   -0.8675    1.5027    0.0000 C   0  0  0  0  0  0  0  0  0  0  0  0
    0.0000    2.0104    0.0000 N   0  0  0  0  0  0  0  0  0  0  0  0
    0.8675    1.5027    0.0000 C   0  0  0  0  0  0  0  0  0  0  0  0
    1.7821   -3.0951    0.0000 O   0  0  0  0  0  0  0  0  0  0  0  0
  1  2  3  0  0  0  0
  2  3  1  0  0  0  0
  3 17  1  0  0  0  0
  3  4  2  0  0  0  0
  4  5  1  0  0  0  0
  5  6  2  0  0  0  0
  6  7  1  0  0  0  0
  7  8  1  0  0  0  0
  8  9  2  0  0  0  0
  8 10  1  0  0  0  0
 10 11  1  0  0  0  0
 11 16  2  0  0  0  0
 11 12  1  0  0  0  0
 12 13  2  0  0  0  0
 13 14  1  0  0  0  0
 14 15  2  0  0  0  0
 15 16  1  0  0  0  0
  6 17  1  0  0  0  0
M  END
$$$$
DAR-DIA-842-16
  -OEChem-03232022352D

 16 17  0     0  0  0  0  0  0999 V2000
    1.5072   -4.8548    0.0000 C   0  0  0  0  0  0  0  0  0  0  0  0
    2.0946   -4.0455    0.0000 C   0  0  0  0  0  0  0  0  0  0  0  0
    3.0946   -4.0482    0.0000 C   0  0  0  0  0  0  0  0  0  0  0  0
    3.4041   -3.0957    0.0000 N   0  0  0  0  0  0  0  0  0  0  0  0
    2.5952   -2.5050    0.0000 C   0  0  0  0  0  0  0  0  0  0  0  0
    2.5966   -1.5050    0.0000 C   0  0  0  0  0  0  0  0  0  0  0  0
    1.7313   -1.0038    0.0000 C   0  0  0  0  0  0  0  0  0  0  0  0
    0.8646   -1.5025    0.0000 O   0  0  0  0  0  0  0  0  0  0  0  0
    1.7328   -0.0038    0.0000 N   0  0  0  0  0  0  0  0  0  0  0  0
    0.8675    0.4975    0.0000 C   0  0  0  0  0  0  0  0  0  0  0  0
    0.0000    0.0000    0.0000 C   0  0  0  0  0  0  0  0  0  0  0  0
   -0.8675    0.4975    0.0000 C   0  0  0  0  0  0  0  0  0  0  0  0
   -0.8675    1.5027    0.0000 C   0  0  0  0  0  0  0  0  0  0  0  0
    0.0000    2.0104    0.0000 N   0  0  0  0  0  0  0  0  0  0  0  0
    0.8675    1.5027    0.0000 C   0  0  0  0  0  0  0  0  0  0  0  0
    1.7821   -3.0951    0.0000 O   0  0  0  0  0  0  0  0  0  0  0  0
  1  2  1  0  0  0  0
  2 16  1  0  0  0  0
  2  3  2  0  0  0  0
  3  4  1  0  0  0  0
  4  5  2  0  0  0  0
  5  6  1  0  0  0  0
  6  7  1  0  0  0  0
  7  8  2  0  0  0  0
  7  9  1  0  0  0  0
  9 10  1  0  0  0  0
 10 15  2  0  0  0  0
 10 11  1  0  0  0  0
 11 12  2  0  0  0  0
 12 13  1  0  0  0  0
 13 14  2  0  0  0  0
 14 15  1  0  0  0  0
  5 16  1  0  0  0  0
M  END
$$$$
DAR-DIA-842-17
  -OEChem-03232022352D

 19 21  0     0  0  0  0  0  0999 V2000
    4.2876   -1.2132    0.0000 O   0  0  0  0  0  0  0  0  0  0  0  0
    4.7828   -0.3444    0.0000 C   0  0  0  0  0  0  0  0  0  0  0  0
    4.2780    0.5189    0.0000 C   0  0  0  0  0  0  0  0  0  0  0  0
    3.2780    0.5133    0.0000 C   0  0  0  0  0  0  0  0  0  0  0  0
    2.6940   -0.2997    0.0000 C   0  0  0  0  0  0  0  0  0  0  0  0
    1.7405    0.0044    0.0000 C   0  0  0  0  0  0  0  0  0  0  0  0
    0.8675   -0.4975    0.0000 C   0  0  0  0  0  0  0  0  0  0  0  0
    0.0000    0.0000    0.0000 C   0  0  0  0  0  0  0  0  0  0  0  0
    0.0000    1.0052    0.0000 C   0  0  0  0  0  0  0  0  0  0  0  0
    0.8675    1.5129    0.0000 N   0  0  0  0  0  0  0  0  0  0  0  0
    1.7350    1.0052    0.0000 C   0  0  0  0  0  0  0  0  0  0  0  0
    2.6851    1.3196    0.0000 N   0  0  0  0  0  0  0  0  0  0  0  0
    5.7828   -0.3388    0.0000 N   0  0  0  0  0  0  0  0  0  0  0  0
    6.2876   -1.2020    0.0000 C   0  0  0  0  0  0  0  0  0  0  0  0
    5.8831   -2.1166    0.0000 C   0  0  0  0  0  0  0  0  0  0  0  0
    6.6308   -2.7829    0.0000 C   0  0  0  0  0  0  0  0  0  0  0  0
    7.4969   -2.2797    0.0000 C   0  0  0  0  0  0  0  0  0  0  0  0
    8.4119   -2.6831    0.0000 Cl  0  0  0  0  0  0  0  0  0  0  0  0
    7.2834   -1.2980    0.0000 S   0  0  0  0  0  0  0  0  0  0  0  0
  1  2  2  0  0  0  0
  2  3  1  0  0  0  0
  3  4  1  0  0  0  0
  4 12  1  0  0  0  0
  4  5  2  0  0  0  0
  5  6  1  0  0  0  0
  6 11  2  0  0  0  0
  6  7  1  0  0  0  0
  7  8  2  0  0  0  0
  8  9  1  0  0  0  0
  9 10  2  0  0  0  0
 10 11  1  0  0  0  0
 11 12  1  0  0  0  0
  2 13  1  0  0  0  0
 13 14  1  0  0  0  0
 14 19  1  0  0  0  0
 14 15  2  0  0  0  0
 15 16  1  0  0  0  0
 16 17  2  0  0  0  0
 17 18  1  0  0  0  0
 17 19  1  0  0  0  0
M  END
$$$$
DAR-DIA-842-18
  -OEChem-03232022352D

 19 21  0     0  0  0  0  0  0999 V2000
    6.5383   -3.7793    0.0000 C   0  0  0  0  0  0  0  0  0  0  0  0
    6.6354   -2.7840    0.0000 C   0  0  0  0  0  0  0  0  0  0  0  0
    7.4993   -2.2803    0.0000 C   0  0  0  0  0  0  0  0  0  0  0  0
    7.2842   -1.3021    0.0000 C   0  0  0  0  0  0  0  0  0  0  0  0
    6.2876   -1.2020    0.0000 C   0  0  0  0  0  0  0  0  0  0  0  0
    5.7828   -0.3388    0.0000 N   0  0  0  0  0  0  0  0  0  0  0  0
    4.7828   -0.3444    0.0000 C   0  0  0  0  0  0  0  0  0  0  0  0
    4.2876   -1.2132    0.0000 O   0  0  0  0  0  0  0  0  0  0  0  0
    4.2780    0.5189    0.0000 C   0  0  0  0  0  0  0  0  0  0  0  0
    3.2780    0.5133    0.0000 C   0  0  0  0  0  0  0  0  0  0  0  0
    2.6940   -0.2997    0.0000 C   0  0  0  0  0  0  0  0  0  0  0  0
    1.7405    0.0044    0.0000 C   0  0  0  0  0  0  0  0  0  0  0  0
    0.8675   -0.4975    0.0000 C   0  0  0  0  0  0  0  0  0  0  0  0
    0.0000    0.0000    0.0000 C   0  0  0  0  0  0  0  0  0  0  0  0
    0.0000    1.0052    0.0000 C   0  0  0  0  0  0  0  0  0  0  0  0
    0.8675    1.5129    0.0000 N   0  0  0  0  0  0  0  0  0  0  0  0
    1.7350    1.0052    0.0000 C   0  0  0  0  0  0  0  0  0  0  0  0
    2.6851    1.3196    0.0000 N   0  0  0  0  0  0  0  0  0  0  0  0
    5.8850   -2.1225    0.0000 S   0  0  0  0  0  0  0  0  0  0  0  0
  1  2  1  0  0  0  0
  2 19  1  0  0  0  0
  2  3  2  0  0  0  0
  3  4  1  0  0  0  0
  4  5  2  0  0  0  0
  5  6  1  0  0  0  0
  6  7  1  0  0  0  0
  7  8  2  0  0  0  0
  7  9  1  0  0  0  0
  9 10  1  0  0  0  0
 10 18  1  0  0  0  0
 10 11  2  0  0  0  0
 11 12  1  0  0  0  0
 12 17  2  0  0  0  0
 12 13  1  0  0  0  0
 13 14  2  0  0  0  0
 14 15  1  0  0  0  0
 15 16  2  0  0  0  0
 16 17  1  0  0  0  0
 17 18  1  0  0  0  0
  5 19  1  0  0  0  0
M  END
$$$$
DAR-DIA-842-19
  -OEChem-03232022352D

 20 22  0     0  0  0  0  0  0999 V2000
    6.4412   -4.7746    0.0000 N   0  0  0  0  0  0  0  0  0  0  0  0
    6.5383   -3.7793    0.0000 C   0  0  0  0  0  0  0  0  0  0  0  0
    6.6354   -2.7840    0.0000 C   0  0  0  0  0  0  0  0  0  0  0  0
    7.4993   -2.2803    0.0000 C   0  0  0  0  0  0  0  0  0  0  0  0
    7.2842   -1.3021    0.0000 C   0  0  0  0  0  0  0  0  0  0  0  0
    6.2876   -1.2020    0.0000 C   0  0  0  0  0  0  0  0  0  0  0  0
    5.7828   -0.3388    0.0000 N   0  0  0  0  0  0  0  0  0  0  0  0
    4.7828   -0.3444    0.0000 C   0  0  0  0  0  0  0  0  0  0  0  0
    4.2876   -1.2132    0.0000 O   0  0  0  0  0  0  0  0  0  0  0  0
    4.2780    0.5189    0.0000 C   0  0  0  0  0  0  0  0  0  0  0  0
    3.2780    0.5133    0.0000 C   0  0  0  0  0  0  0  0  0  0  0  0
    2.6940   -0.2997    0.0000 C   0  0  0  0  0  0  0  0  0  0  0  0
    1.7405    0.0044    0.0000 C   0  0  0  0  0  0  0  0  0  0  0  0
    0.8675   -0.4975    0.0000 C   0  0  0  0  0  0  0  0  0  0  0  0
    0.0000    0.0000    0.0000 C   0  0  0  0  0  0  0  0  0  0  0  0
    0.0000    1.0052    0.0000 C   0  0  0  0  0  0  0  0  0  0  0  0
    0.8675    1.5129    0.0000 N   0  0  0  0  0  0  0  0  0  0  0  0
    1.7350    1.0052    0.0000 C   0  0  0  0  0  0  0  0  0  0  0  0
    2.6851    1.3196    0.0000 N   0  0  0  0  0  0  0  0  0  0  0  0
    5.8850   -2.1225    0.0000 S   0  0  0  0  0  0  0  0  0  0  0  0
  1  2  3  0  0  0  0
  2  3  1  0  0  0  0
  3 20  1  0  0  0  0
  3  4  2  0  0  0  0
  4  5  1  0  0  0  0
  5  6  2  0  0  0  0
  6  7  1  0  0  0  0
  7  8  1  0  0  0  0
  8  9  2  0  0  0  0
  8 10  1  0  0  0  0
 10 11  1  0  0  0  0
 11 19  1  0  0  0  0
 11 12  2  0  0  0  0
 12 13  1  0  0  0  0
 13 18  2  0  0  0  0
 13 14  1  0  0  0  0
 14 15  2  0  0  0  0
 15 16  1  0  0  0  0
 16 17  2  0  0  0  0
 17 18  1  0  0  0  0
 18 19  1  0  0  0  0
  6 20  1  0  0  0  0
M  END
$$$$
DAR-DIA-842-20
  -OEChem-03232022352D

 20 22  0     0  0  0  0  0  0999 V2000
    6.4412   -4.7746    0.0000 N   0  0  0  0  0  0  0  0  0  0  0  0
    6.5383   -3.7793    0.0000 C   0  0  0  0  0  0  0  0  0  0  0  0
    6.6354   -2.7840    0.0000 C   0  0  0  0  0  0  0  0  0  0  0  0
    7.4993   -2.2803    0.0000 C   0  0  0  0  0  0  0  0  0  0  0  0
    7.2842   -1.3021    0.0000 N   0  0  0  0  0  0  0  0  0  0  0  0
    6.2876   -1.2020    0.0000 C   0  0  0  0  0  0  0  0  0  0  0  0
    5.7828   -0.3388    0.0000 N   0  0  0  0  0  0  0  0  0  0  0  0
    4.7828   -0.3444    0.0000 C   0  0  0  0  0  0  0  0  0  0  0  0
    4.2876   -1.2132    0.0000 O   0  0  0  0  0  0  0  0  0  0  0  0
    4.2780    0.5189    0.0000 C   0  0  0  0  0  0  0  0  0  0  0  0
    3.2780    0.5133    0.0000 C   0  0  0  0  0  0  0  0  0  0  0  0
    2.6940   -0.2997    0.0000 C   0  0  0  0  0  0  0  0  0  0  0  0
    1.7405    0.0044    0.0000 C   0  0  0  0  0  0  0  0  0  0  0  0
    0.8675   -0.4975    0.0000 C   0  0  0  0  0  0  0  0  0  0  0  0
    0.0000    0.0000    0.0000 C   0  0  0  0  0  0  0  0  0  0  0  0
    0.0000    1.0052    0.0000 C   0  0  0  0  0  0  0  0  0  0  0  0
    0.8675    1.5129    0.0000 N   0  0  0  0  0  0  0  0  0  0  0  0
    1.7350    1.0052    0.0000 C   0  0  0  0  0  0  0  0  0  0  0  0
    2.6851    1.3196    0.0000 N   0  0  0  0  0  0  0  0  0  0  0  0
    5.8850   -2.1225    0.0000 O   0  0  0  0  0  0  0  0  0  0  0  0
  1  2  3  0  0  0  0
  2  3  1  0  0  0  0
  3 20  1  0  0  0  0
  3  4  2  0  0  0  0
  4  5  1  0  0  0  0
  5  6  2  0  0  0  0
  6  7  1  0  0  0  0
  7  8  1  0  0  0  0
  8  9  2  0  0  0  0
  8 10  1  0  0  0  0
 10 11  1  0  0  0  0
 11 19  1  0  0  0  0
 11 12  2  0  0  0  0
 12 13  1  0  0  0  0
 13 18  2  0  0  0  0
 13 14  1  0  0  0  0
 14 15  2  0  0  0  0
 15 16  1  0  0  0  0
 16 17  2  0  0  0  0
 17 18  1  0  0  0  0
 18 19  1  0  0  0  0
  6 20  1  0  0  0  0
M  END
$$$$
DAR-DIA-842-21
  -OEChem-03232022352D

 19 21  0     0  0  0  0  0  0999 V2000
    6.5383   -3.7793    0.0000 C   0  0  0  0  0  0  0  0  0  0  0  0
    6.6354   -2.7840    0.0000 C   0  0  0  0  0  0  0  0  0  0  0  0
    7.4993   -2.2803    0.0000 C   0  0  0  0  0  0  0  0  0  0  0  0
    7.2842   -1.3021    0.0000 N   0  0  0  0  0  0  0  0  0  0  0  0
    6.2876   -1.2020    0.0000 C   0  0  0  0  0  0  0  0  0  0  0  0
    5.7828   -0.3388    0.0000 N   0  0  0  0  0  0  0  0  0  0  0  0
    4.7828   -0.3444    0.0000 C   0  0  0  0  0  0  0  0  0  0  0  0
    4.2876   -1.2132    0.0000 O   0  0  0  0  0  0  0  0  0  0  0  0
    4.2780    0.5189    0.0000 C   0  0  0  0  0  0  0  0  0  0  0  0
    3.2780    0.5133    0.0000 C   0  0  0  0  0  0  0  0  0  0  0  0
    2.6940   -0.2997    0.0000 C   0  0  0  0  0  0  0  0  0  0  0  0
    1.7405    0.0044    0.0000 C   0  0  0  0  0  0  0  0  0  0  0  0
    0.8675   -0.4975    0.0000 C   0  0  0  0  0  0  0  0  0  0  0  0
    0.0000    0.0000    0.0000 C   0  0  0  0  0  0  0  0  0  0  0  0
    0.0000    1.0052    0.0000 C   0  0  0  0  0  0  0  0  0  0  0  0
    0.8675    1.5129    0.0000 N   0  0  0  0  0  0  0  0  0  0  0  0
    1.7350    1.0052    0.0000 C   0  0  0  0  0  0  0  0  0  0  0  0
    2.6851    1.3196    0.0000 N   0  0  0  0  0  0  0  0  0  0  0  0
    5.8850   -2.1225    0.0000 O   0  0  0  0  0  0  0  0  0  0  0  0
  1  2  1  0  0  0  0
  2 19  1  0  0  0  0
  2  3  2  0  0  0  0
  3  4  1  0  0  0  0
  4  5  2  0  0  0  0
  5  6  1  0  0  0  0
  6  7  1  0  0  0  0
  7  8  2  0  0  0  0
  7  9  1  0  0  0  0
  9 10  1  0  0  0  0
 10 18  1  0  0  0  0
 10 11  2  0  0  0  0
 11 12  1  0  0  0  0
 12 17  2  0  0  0  0
 12 13  1  0  0  0  0
 13 14  2  0  0  0  0
 14 15  1  0  0  0  0
 15 16  2  0  0  0  0
 16 17  1  0  0  0  0
 17 18  1  0  0  0  0
  5 19  1  0  0  0  0
M  END
$$$$
DAR-DIA-842-22
  -OEChem-03232022352D

 19 21  0     0  0  0  0  0  0999 V2000
    4.2876   -1.2132    0.0000 O   0  0  0  0  0  0  0  0  0  0  0  0
    4.7828   -0.3444    0.0000 C   0  0  0  0  0  0  0  0  0  0  0  0
    4.2780    0.5189    0.0000 C   0  0  0  0  0  0  0  0  0  0  0  0
    3.2780    0.5133    0.0000 C   0  0  0  0  0  0  0  0  0  0  0  0
    2.6940   -0.2997    0.0000 C   0  0  0  0  0  0  0  0  0  0  0  0
    1.7405    0.0044    0.0000 C   0  0  0  0  0  0  0  0  0  0  0  0
    0.8675   -0.4975    0.0000 C   0  0  0  0  0  0  0  0  0  0  0  0
    0.0000    0.0000    0.0000 C   0  0  0  0  0  0  0  0  0  0  0  0
    0.0000    1.0052    0.0000 C   0  0  0  0  0  0  0  0  0  0  0  0
    0.8675    1.5129    0.0000 N   0  0  0  0  0  0  0  0  0  0  0  0
    1.7350    1.0052    0.0000 C   0  0  0  0  0  0  0  0  0  0  0  0
    2.6851    1.3196    0.0000 N   0  0  0  0  0  0  0  0  0  0  0  0
    5.7828   -0.3388    0.0000 N   0  0  0  0  0  0  0  0  0  0  0  0
    6.2876   -1.2020    0.0000 C   0  0  0  0  0  0  0  0  0  0  0  0
    7.2842   -1.3021    0.0000 N   0  0  0  0  0  0  0  0  0  0  0  0
    7.4993   -2.2803    0.0000 C   0  0  0  0  0  0  0  0  0  0  0  0
    6.6354   -2.7840    0.0000 C   0  0  0  0  0  0  0  0  0  0  0  0
    6.5383   -3.7793    0.0000 Cl  0  0  0  0  0  0  0  0  0  0  0  0
    5.8850   -2.1225    0.0000 O   0  0  0  0  0  0  0  0  0  0  0  0
  1  2  2  0  0  0  0
  2  3  1  0  0  0  0
  3  4  1  0  0  0  0
  4 12  1  0  0  0  0
  4  5  2  0  0  0  0
  5  6  1  0  0  0  0
  6 11  2  0  0  0  0
  6  7  1  0  0  0  0
  7  8  2  0  0  0  0
  8  9  1  0  0  0  0
  9 10  2  0  0  0  0
 10 11  1  0  0  0  0
 11 12  1  0  0  0  0
  2 13  1  0  0  0  0
 13 14  1  0  0  0  0
 14 19  1  0  0  0  0
 14 15  2  0  0  0  0
 15 16  1  0  0  0  0
 16 17  2  0  0  0  0
 17 18  1  0  0  0  0
 17 19  1  0  0  0  0
M  END
$$$$
DAR-DIA-842-23
  -OEChem-03232022352D

 19 21  0     0  0  0  0  0  0999 V2000
    6.5349   -3.7817    0.0000 C   0  0  0  0  0  0  0  0  0  0  0  0
    6.6340   -2.7866    0.0000 N   0  0  0  0  0  0  0  0  0  0  0  0
    5.8866   -2.1197    0.0000 C   0  0  0  0  0  0  0  0  0  0  0  0
    6.2876   -1.2020    0.0000 C   0  0  0  0  0  0  0  0  0  0  0  0
    5.7828   -0.3388    0.0000 N   0  0  0  0  0  0  0  0  0  0  0  0
    4.7828   -0.3444    0.0000 C   0  0  0  0  0  0  0  0  0  0  0  0
    4.2876   -1.2132    0.0000 O   0  0  0  0  0  0  0  0  0  0  0  0
    4.2780    0.5189    0.0000 C   0  0  0  0  0  0  0  0  0  0  0  0
    3.2780    0.5133    0.0000 C   0  0  0  0  0  0  0  0  0  0  0  0
    2.6940   -0.2997    0.0000 C   0  0  0  0  0  0  0  0  0  0  0  0
    1.7405    0.0044    0.0000 C   0  0  0  0  0  0  0  0  0  0  0  0
    0.8675   -0.4975    0.0000 C   0  0  0  0  0  0  0  0  0  0  0  0
    0.0000    0.0000    0.0000 C   0  0  0  0  0  0  0  0  0  0  0  0
    0.0000    1.0052    0.0000 C   0  0  0  0  0  0  0  0  0  0  0  0
    0.8675    1.5129    0.0000 N   0  0  0  0  0  0  0  0  0  0  0  0
    1.7350    1.0052    0.0000 C   0  0  0  0  0  0  0  0  0  0  0  0
    2.6851    1.3196    0.0000 N   0  0  0  0  0  0  0  0  0  0  0  0
    7.2826   -1.3024    0.0000 C   0  0  0  0  0  0  0  0  0  0  0  0
    7.5008   -2.2787    0.0000 N   0  0  0  0  0  0  0  0  0  0  0  0
  1  2  1  0  0  0  0
  2 19  1  0  0  0  0
  2  3  1  0  0  0  0
  3  4  2  0  0  0  0
  4  5  1  0  0  0  0
  5  6  1  0  0  0  0
  6  7  2  0  0  0  0
  6  8  1  0  0  0  0
  8  9  1  0  0  0  0
  9 17  1  0  0  0  0
  9 10  2  0  0  0  0
 10 11  1  0  0  0  0
 11 16  2  0  0  0  0
 11 12  1  0  0  0  0
 12 13  2  0  0  0  0
 13 14  1  0  0  0  0
 14 15  2  0  0  0  0
 15 16  1  0  0  0  0
 16 17  1  0  0  0  0
  4 18  1  0  0  0  0
 18 19  2  0  0  0  0
M  END
$$$$
DAR-DIA-842-24
  -OEChem-03232022352D

 18 20  0     0  0  0  0  0  0999 V2000
    4.2876   -1.2132    0.0000 O   0  0  0  0  0  0  0  0  0  0  0  0
    4.7828   -0.3444    0.0000 C   0  0  0  0  0  0  0  0  0  0  0  0
    4.2780    0.5189    0.0000 C   0  0  0  0  0  0  0  0  0  0  0  0
    3.2780    0.5133    0.0000 C   0  0  0  0  0  0  0  0  0  0  0  0
    2.6940   -0.2997    0.0000 C   0  0  0  0  0  0  0  0  0  0  0  0
    1.7405    0.0044    0.0000 C   0  0  0  0  0  0  0  0  0  0  0  0
    0.8675   -0.4975    0.0000 C   0  0  0  0  0  0  0  0  0  0  0  0
    0.0000    0.0000    0.0000 C   0  0  0  0  0  0  0  0  0  0  0  0
    0.0000    1.0052    0.0000 C   0  0  0  0  0  0  0  0  0  0  0  0
    0.8675    1.5129    0.0000 N   0  0  0  0  0  0  0  0  0  0  0  0
    1.7350    1.0052    0.0000 C   0  0  0  0  0  0  0  0  0  0  0  0
    2.6851    1.3196    0.0000 N   0  0  0  0  0  0  0  0  0  0  0  0
    5.7828   -0.3388    0.0000 N   0  0  0  0  0  0  0  0  0  0  0  0
    6.2876   -1.2020    0.0000 C   0  0  0  0  0  0  0  0  0  0  0  0
    7.2843   -1.3000    0.0000 C   0  0  0  0  0  0  0  0  0  0  0  0
    7.4962   -2.2773    0.0000 C   0  0  0  0  0  0  0  0  0  0  0  0
    6.6350   -2.7864    0.0000 S   0  0  0  0  0  0  0  0  0  0  0  0
    5.8842   -2.1189    0.0000 C   0  0  0  0  0  0  0  0  0  0  0  0
  1  2  2  0  0  0  0
  2  3  1  0  0  0  0
  3  4  1  0  0  0  0
  4 12  1  0  0  0  0
  4  5  2  0  0  0  0
  5  6  1  0  0  0  0
  6 11  2  0  0  0  0
  6  7  1  0  0  0  0
  7  8  2  0  0  0  0
  8  9  1  0  0  0  0
  9 10  2  0  0  0  0
 10 11  1  0  0  0  0
 11 12  1  0  0  0  0
  2 13  1  0  0  0  0
 13 14  1  0  0  0  0
 14 18  2  0  0  0  0
 14 15  1  0  0  0  0
 15 16  2  0  0  0  0
 16 17  1  0  0  0  0
 17 18  1  0  0  0  0
M  END
$$$$
SAM-UNK-83e-1
  -OEChem-03232022352D

 24 26  0     0  0  0  0  0  0999 V2000
    5.5770   -3.5816    0.0000 C   0  0  0  0  0  0  0  0  0  0  0  0
    5.2680   -2.6306    0.0000 C   0  0  0  0  0  0  0  0  0  0  0  0
    5.9372   -1.8874    0.0000 O   0  0  0  0  0  0  0  0  0  0  0  0
    4.2899   -2.4226    0.0000 N   0  0  0  0  0  0  0  0  0  0  0  0
    3.9809   -1.4715    0.0000 C   0  0  0  0  0  0  0  0  0  0  0  0
    3.0028   -1.2636    0.0000 C   0  0  0  0  0  0  0  0  0  0  0  0
    2.6938   -0.3125    0.0000 C   0  0  0  0  0  0  0  0  0  0  0  0
    3.2858    0.5023    0.0000 C   0  0  0  0  0  0  0  0  0  0  0  0
    2.6938    1.3169    0.0000 N   0  0  0  0  0  0  0  0  0  0  0  0
    1.7360    1.0058    0.0000 C   0  0  0  0  0  0  0  0  0  0  0  0
    0.8680    1.5138    0.0000 C   0  0  0  0  0  0  0  0  0  0  0  0
    0.8680    2.5138    0.0000 C   0  0  0  0  0  0  0  0  0  0  0  0
    0.0020    3.0138    0.0000 N   0  0  0  0  0  0  0  0  0  0  0  0
   -0.0040    4.0189    0.0000 C   0  0  0  0  0  0  0  0  0  0  0  0
   -0.8745    4.5215    0.0000 C   0  0  0  0  0  0  0  0  0  0  0  0
   -1.7391    4.0190    0.0000 C   0  0  0  0  0  0  0  0  0  0  0  0
   -2.6051    4.5190    0.0000 O   0  0  0  0  0  0  0  0  0  0  0  0
   -1.7420    3.0190    0.0000 C   0  0  0  0  0  0  0  0  0  0  0  0
   -0.8715    2.5164    0.0000 C   0  0  0  0  0  0  0  0  0  0  0  0
    0.0000    1.0058    0.0000 C   0  0  0  0  0  0  0  0  0  0  0  0
    0.0000    0.0000    0.0000 C   0  0  0  0  0  0  0  0  0  0  0  0
   -0.8653   -0.5013    0.0000 F   0  0  0  0  0  0  0  0  0  0  0  0
    0.8680   -0.4978    0.0000 C   0  0  0  0  0  0  0  0  0  0  0  0
    1.7360   -0.0012    0.0000 C   0  0  0  0  0  0  0  0  0  0  0  0
  1  2  1  0  0  0  0
  2  3  2  0  0  0  0
  2  4  1  0  0  0  0
  4  5  1  0  0  0  0
  5  6  2  3  0  0  0
  6  7  1  0  0  0  0
  7 24  1  0  0  0  0
  7  8  2  0  0  0  0
  8  9  1  0  0  0  0
  9 10  1  0  0  0  0
 10 24  2  0  0  0  0
 10 11  1  0  0  0  0
 11 12  1  0  0  0  0
 12 13  1  0  0  0  0
 13 19  1  0  0  0  0
 13 14  1  0  0  0  0
 14 15  1  0  0  0  0
 15 16  1  0  0  0  0
 16 17  1  0  0  0  0
 16 18  1  0  0  0  0
 18 19  1  0  0  0  0
 11 20  2  0  0  0  0
 20 21  1  0  0  0  0
 21 22  1  0  0  0  0
 21 23  2  0  0  0  0
 23 24  1  0  0  0  0
M  END
$$$$
SAM-UNK-83e-2
  -OEChem-03232022352D

 23 24  0     0  0  0  0  0  0999 V2000
    5.5770   -3.5816    0.0000 C   0  0  0  0  0  0  0  0  0  0  0  0
    5.2680   -2.6306    0.0000 C   0  0  0  0  0  0  0  0  0  0  0  0
    5.9372   -1.8874    0.0000 O   0  0  0  0  0  0  0  0  0  0  0  0
    4.2899   -2.4226    0.0000 N   0  0  0  0  0  0  0  0  0  0  0  0
    3.9809   -1.4715    0.0000 C   0  0  0  0  0  0  0  0  0  0  0  0
    3.0028   -1.2636    0.0000 C   0  0  0  0  0  0  0  0  0  0  0  0
    2.6938   -0.3125    0.0000 C   0  0  0  0  0  0  0  0  0  0  0  0
    3.2858    0.5023    0.0000 C   0  0  0  0  0  0  0  0  0  0  0  0
    2.6938    1.3169    0.0000 N   0  0  0  0  0  0  0  0  0  0  0  0
    1.7360    1.0058    0.0000 C   0  0  0  0  0  0  0  0  0  0  0  0
    0.8680    1.5138    0.0000 C   0  0  0  0  0  0  0  0  0  0  0  0
    0.8680    2.5138    0.0000 C   0  0  0  0  0  0  0  0  0  0  0  0
    0.0020    3.0138    0.0000 C   0  0  0  0  0  0  0  0  0  0  0  0
    0.0020    4.0138    0.0000 N   0  0  0  0  0  0  0  0  0  0  0  0
   -0.8641    4.5138    0.0000 S   0  0  0  0  0  0  0  0  0  0  0  0
   -1.7301    5.0138    0.0000 C   0  0  0  0  0  0  0  0  0  0  0  0
   -1.3641    3.6478    0.0000 O   0  0  0  0  0  0  0  0  0  0  0  0
   -0.3640    5.3798    0.0000 O   0  0  0  0  0  0  0  0  0  0  0  0
    0.0000    1.0058    0.0000 C   0  0  0  0  0  0  0  0  0  0  0  0
    0.0000    0.0000    0.0000 C   0  0  0  0  0  0  0  0  0  0  0  0
   -0.8653   -0.5013    0.0000 F   0  0  0  0  0  0  0  0  0  0  0  0
    0.8680   -0.4978    0.0000 C   0  0  0  0  0  0  0  0  0  0  0  0
    1.7360   -0.0012    0.0000 C   0  0  0  0  0  0  0  0  0  0  0  0
  1  2  1  0  0  0  0
  2  3  2  0  0  0  0
  2  4  1  0  0  0  0
  4  5  1  0  0  0  0
  5  6  2  3  0  0  0
  6  7  1  0  0  0  0
  7 23  1  0  0  0  0
  7  8  2  0  0  0  0
  8  9  1  0  0  0  0
  9 10  1  0  0  0  0
 10 23  2  0  0  0  0
 10 11  1  0  0  0  0
 11 12  1  0  0  0  0
 12 13  1  0  0  0  0
 13 14  1  0  0  0  0
 14 15  1  0  0  0  0
 15 16  1  0  0  0  0
 15 17  2  0  0  0  0
 15 18  2  0  0  0  0
 11 19  2  0  0  0  0
 19 20  1  0  0  0  0
 20 21  1  0  0  0  0
 20 22  2  0  0  0  0
 22 23  1  0  0  0  0
M  END
$$$$
SAM-UNK-83e-3
  -OEChem-03232022352D

 23 24  0     0  0  0  0  0  0999 V2000
    5.5770   -3.5816    0.0000 C   0  0  0  0  0  0  0  0  0  0  0  0
    5.2680   -2.6306    0.0000 C   0  0  0  0  0  0  0  0  0  0  0  0
    5.9372   -1.8874    0.0000 O   0  0  0  0  0  0  0  0  0  0  0  0
    4.2899   -2.4226    0.0000 N   0  0  0  0  0  0  0  0  0  0  0  0
    3.9809   -1.4715    0.0000 C   0  0  0  0  0  0  0  0  0  0  0  0
    3.0028   -1.2636    0.0000 C   0  0  0  0  0  0  0  0  0  0  0  0
    2.6938   -0.3125    0.0000 C   0  0  0  0  0  0  0  0  0  0  0  0
    3.2858    0.5023    0.0000 C   0  0  0  0  0  0  0  0  0  0  0  0
    2.6938    1.3169    0.0000 N   0  0  0  0  0  0  0  0  0  0  0  0
    1.7360    1.0058    0.0000 C   0  0  0  0  0  0  0  0  0  0  0  0
    0.8680    1.5138    0.0000 C   0  0  0  0  0  0  0  0  0  0  0  0
    0.8680    2.5138    0.0000 C   0  0  0  0  0  0  0  0  0  0  0  0
    0.0020    3.0138    0.0000 C   0  0  0  0  0  0  0  0  0  0  0  0
    0.0020    4.0138    0.0000 N   0  0  0  0  0  0  0  0  0  0  0  0
   -0.8641    4.5138    0.0000 S   0  0  0  0  0  0  0  0  0  0  0  0
   -1.7301    5.0138    0.0000 C   0  0  0  0  0  0  0  0  0  0  0  0
   -1.3641    3.6478    0.0000 O   0  0  0  0  0  0  0  0  0  0  0  0
   -0.3640    5.3798    0.0000 O   0  0  0  0  0  0  0  0  0  0  0  0
    0.0000    1.0058    0.0000 C   0  0  0  0  0  0  0  0  0  0  0  0
    0.0000    0.0000    0.0000 C   0  0  0  0  0  0  0  0  0  0  0  0
   -0.8653   -0.5013    0.0000 F   0  0  0  0  0  0  0  0  0  0  0  0
    0.8680   -0.4978    0.0000 C   0  0  0  0  0  0  0  0  0  0  0  0
    1.7360   -0.0012    0.0000 C   0  0  0  0  0  0  0  0  0  0  0  0
  1  2  1  0  0  0  0
  2  3  2  0  0  0  0
  2  4  1  0  0  0  0
  4  5  1  0  0  0  0
  5  6  2  3  0  0  0
  6  7  1  0  0  0  0
  7 23  1  0  0  0  0
  7  8  2  0  0  0  0
  8  9  1  0  0  0  0
  9 10  1  0  0  0  0
 10 23  2  0  0  0  0
 10 11  1  0  0  0  0
 11 12  1  0  0  0  0
 12 13  2  3  0  0  0
 13 14  1  0  0  0  0
 14 15  1  0  0  0  0
 15 16  1  0  0  0  0
 15 17  2  0  0  0  0
 15 18  2  0  0  0  0
 11 19  2  0  0  0  0
 19 20  1  0  0  0  0
 20 21  1  0  0  0  0
 20 22  2  0  0  0  0
 22 23  1  0  0  0  0
M  END
$$$$
AGN-NEW-817-1
  -OEChem-03232022352D

 36 39  0     0  0  0  0  0  0999 V2000
   -2.6025    2.4976    0.0000 C   0  0  0  0  0  0  0  0  0  0  0  0
   -1.7350    2.0001    0.0000 C   0  0  0  0  0  0  0  0  0  0  0  0
   -0.8675    1.5027    0.0000 C   0  0  0  0  0  0  0  0  0  0  0  0
   -0.8675    0.4975    0.0000 C   0  0  0  0  0  0  0  0  0  0  0  0
    0.0000    0.0000    0.0000 C   0  0  0  0  0  0  0  0  0  0  0  0
    0.8675    0.4975    0.0000 C   0  0  0  0  0  0  0  0  0  0  0  0
    0.8675    1.5027    0.0000 C   0  0  0  0  0  0  0  0  0  0  0  0
    1.7350    2.0001    0.0000 C   0  0  0  0  0  0  0  0  0  0  0  0
    2.5995    1.4976    0.0000 N   0  0  0  0  0  0  0  0  0  0  0  0
    3.4670    1.9950    0.0000 C   0  0  0  0  0  0  0  0  0  0  0  0
    4.3316    1.4925    0.0000 O   0  0  0  0  0  0  0  0  0  0  0  0
    3.4700    2.9950    0.0000 N   0  0  0  0  0  0  0  0  0  0  0  0
    4.3375    3.4925    0.0000 C   0  0  0  0  0  0  0  0  0  0  0  0
    4.3419    4.4925    0.0000 C   0  0  0  0  0  0  0  0  0  0  0  0
    3.4766    4.9938    0.0000 C   0  0  0  0  0  0  0  0  0  0  0  0
    2.6098    4.4951    0.0000 N   0  0  0  0  0  0  0  0  0  0  0  0
    2.6112    3.4951    0.0000 C   0  0  0  0  0  0  0  0  0  0  0  0
    1.7400    2.9938    0.0000 C   0  0  0  0  0  0  0  0  0  0  0  0
    0.8673    3.4925    0.0000 O   0  0  0  0  0  0  0  0  0  0  0  0
    0.8747    4.4976    0.0000 C   0  0  0  0  0  0  0  0  0  0  0  0
    1.7460    4.9989    0.0000 C   0  0  0  0  0  0  0  0  0  0  0  0
    5.2072    4.9937    0.0000 C   0  0  0  0  0  0  0  0  0  0  0  0
    6.0770    4.4898    0.0000 C   0  0  0  0  0  0  0  0  0  0  0  0
    6.0814    3.4847    0.0000 N   0  0  0  0  0  0  0  0  0  0  0  0
    5.2073    2.9886    0.0000 C   0  0  0  0  0  0  0  0  0  0  0  0
    5.2028    1.9886    0.0000 C   0  0  0  0  0  0  0  0  0  0  0  0
    2.5966    0.4976    0.0000 C   0  0  0  0  0  0  0  0  0  0  0  0
    1.7232    0.0002    0.0000 N   0  0  0  0  0  0  0  0  0  0  0  0
    1.7291   -1.0050    0.0000 C   0  0  0  0  0  0  0  0  0  0  0  0
    2.5996   -1.5076    0.0000 C   0  0  0  0  0  0  0  0  0  0  0  0
    3.4642   -1.0050    0.0000 C   0  0  0  0  0  0  0  0  0  0  0  0
    4.3302   -1.5050    0.0000 C   0  0  0  0  0  0  0  0  0  0  0  0
    5.1963   -1.0050    0.0000 C   0  0  0  0  0  0  0  0  0  0  0  0
    4.3302   -2.5050    0.0000 C   0  0  0  0  0  0  0  0  0  0  0  0
    3.4671   -0.0050    0.0000 N   0  0  0  0  0  0  0  0  0  0  0  0
   -0.0000    2.0104    0.0000 N   0  0  0  0  0  0  0  0  0  0  0  0
  1  2  3  0  0  0  0
  2  3  1  0  0  0  0
  3 36  2  0  0  0  0
  3  4  1  0  0  0  0
  4  5  2  0  0  0  0
  5  6  1  0  0  0  0
  6  7  2  0  0  0  0
  7  8  1  0  0  0  0
  8  9  1  0  0  0  0
  9 10  1  0  0  0  0
 10 11  2  0  0  0  0
 10 12  1  0  0  0  0
 12 13  1  0  0  0  0
 13 25  2  0  0  0  0
 13 14  1  0  0  0  0
 14 15  1  0  0  0  0
 15 16  1  0  0  0  0
 16 21  1  0  0  0  0
 16 17  1  0  0  0  0
 17 18  1  0  0  0  0
 18 19  1  0  0  0  0
 19 20  1  0  0  0  0
 20 21  1  0  0  0  0
 14 22  2  0  0  0  0
 22 23  1  0  0  0  0
 23 24  2  0  0  0  0
 24 25  1  0  0  0  0
 25 26  1  0  0  0  0
  9 27  1  0  0  0  0
 27 35  2  0  0  0  0
 27 28  1  0  0  0  0
 28 29  2  0  0  0  0
 29 30  1  0  0  0  0
 30 31  2  0  0  0  0
 31 32  1  0  0  0  0
 32 33  1  0  0  0  0
 32 34  1  0  0  0  0
 31 35  1  0  0  0  0
  7 36  1  0  0  0  0
M  END
$$$$
AGN-NEW-817-2
  -OEChem-03232022352D

 36 39  0     0  0  0  0  0  0999 V2000
   -2.6025    2.4976    0.0000 C   0  0  0  0  0  0  0  0  0  0  0  0
   -1.7350    2.0001    0.0000 C   0  0  0  0  0  0  0  0  0  0  0  0
   -0.8675    1.5027    0.0000 C   0  0  0  0  0  0  0  0  0  0  0  0
   -0.8675    0.4975    0.0000 C   0  0  0  0  0  0  0  0  0  0  0  0
    0.0000    0.0000    0.0000 C   0  0  0  0  0  0  0  0  0  0  0  0
    0.8675    0.4975    0.0000 C   0  0  0  0  0  0  0  0  0  0  0  0
    0.8675    1.5027    0.0000 C   0  0  0  0  0  0  0  0  0  0  0  0
    1.7350    2.0001    0.0000 C   0  0  0  0  0  0  0  0  0  0  0  0
    2.5995    1.4976    0.0000 N   0  0  0  0  0  0  0  0  0  0  0  0
    3.4670    1.9950    0.0000 C   0  0  0  0  0  0  0  0  0  0  0  0
    4.3316    1.4925    0.0000 O   0  0  0  0  0  0  0  0  0  0  0  0
    3.4700    2.9950    0.0000 N   0  0  0  0  0  0  0  0  0  0  0  0
    4.3375    3.4925    0.0000 C   0  0  0  0  0  0  0  0  0  0  0  0
    4.3419    4.4925    0.0000 C   0  0  0  0  0  0  0  0  0  0  0  0
    3.4766    4.9938    0.0000 C   0  0  0  0  0  0  0  0  0  0  0  0
    3.4781    5.9938    0.0000 N   0  0  0  0  0  0  0  0  0  0  0  0
    2.6114    6.5028    0.0000 C   0  0  0  0  0  0  0  0  0  0  0  0
    2.6129    7.5080    0.0000 C   0  0  0  0  0  0  0  0  0  0  0  0
    3.4811    8.0042    0.0000 C   0  0  0  0  0  0  0  0  0  0  0  0
    4.3479    7.5054    0.0000 C   0  0  0  0  0  0  0  0  0  0  0  0
    4.3464    6.5002    0.0000 C   0  0  0  0  0  0  0  0  0  0  0  0
    5.2072    4.9937    0.0000 C   0  0  0  0  0  0  0  0  0  0  0  0
    6.0770    4.4898    0.0000 C   0  0  0  0  0  0  0  0  0  0  0  0
    6.0814    3.4847    0.0000 N   0  0  0  0  0  0  0  0  0  0  0  0
    5.2073    2.9886    0.0000 C   0  0  0  0  0  0  0  0  0  0  0  0
    5.2028    1.9886    0.0000 C   0  0  0  0  0  0  0  0  0  0  0  0
    2.5966    0.4976    0.0000 C   0  0  0  0  0  0  0  0  0  0  0  0
    1.7232    0.0002    0.0000 N   0  0  0  0  0  0  0  0  0  0  0  0
    1.7291   -1.0050    0.0000 C   0  0  0  0  0  0  0  0  0  0  0  0
    2.5996   -1.5076    0.0000 C   0  0  0  0  0  0  0  0  0  0  0  0
    3.4642   -1.0050    0.0000 C   0  0  0  0  0  0  0  0  0  0  0  0
    4.3302   -1.5050    0.0000 C   0  0  0  0  0  0  0  0  0  0  0  0
    5.1963   -1.0050    0.0000 C   0  0  0  0  0  0  0  0  0  0  0  0
    4.3302   -2.5050    0.0000 C   0  0  0  0  0  0  0  0  0  0  0  0
    3.4671   -0.0050    0.0000 N   0  0  0  0  0  0  0  0  0  0  0  0
   -0.0000    2.0104    0.0000 N   0  0  0  0  0  0  0  0  0  0  0  0
  1  2  3  0  0  0  0
  2  3  1  0  0  0  0
  3 36  2  0  0  0  0
  3  4  1  0  0  0  0
  4  5  2  0  0  0  0
  5  6  1  0  0  0  0
  6  7  2  0  0  0  0
  7  8  1  0  0  0  0
  8  9  1  0  0  0  0
  9 10  1  0  0  0  0
 10 11  2  0  0  0  0
 10 12  1  0  0  0  0
 12 13  1  0  0  0  0
 13 25  2  0  0  0  0
 13 14  1  0  0  0  0
 14 15  1  0  0  0  0
 15 16  1  0  0  0  0
 16 21  1  0  0  0  0
 16 17  1  0  0  0  0
 17 18  1  0  0  0  0
 18 19  1  0  0  0  0
 19 20  1  0  0  0  0
 20 21  1  0  0  0  0
 14 22  2  0  0  0  0
 22 23  1  0  0  0  0
 23 24  2  0  0  0  0
 24 25  1  0  0  0  0
 25 26  1  0  0  0  0
  9 27  1  0  0  0  0
 27 35  2  0  0  0  0
 27 28  1  0  0  0  0
 28 29  2  0  0  0  0
 29 30  1  0  0  0  0
 30 31  2  0  0  0  0
 31 32  1  0  0  0  0
 32 33  1  0  0  0  0
 32 34  1  0  0  0  0
 31 35  1  0  0  0  0
  7 36  1  0  0  0  0
M  END
$$$$
AGN-NEW-817-3
  -OEChem-03232022352D

 36 39  0     0  0  0  0  0  0999 V2000
    0.8675   -2.4975    0.0000 C   0  0  0  0  0  0  0  0  0  0  0  0
    0.8675   -1.4975    0.0000 C   0  0  0  0  0  0  0  0  0  0  0  0
    0.8675   -0.4975    0.0000 C   0  0  0  0  0  0  0  0  0  0  0  0
    0.0000    0.0000    0.0000 C   0  0  0  0  0  0  0  0  0  0  0  0
   -0.0000    1.0052    0.0000 C   0  0  0  0  0  0  0  0  0  0  0  0
    0.8675    1.5129    0.0000 N   0  0  0  0  0  0  0  0  0  0  0  0
    1.7350    1.0052    0.0000 C   0  0  0  0  0  0  0  0  0  0  0  0
    2.6025    1.5026    0.0000 C   0  0  0  0  0  0  0  0  0  0  0  0
    2.6054    2.5026    0.0000 N   0  0  0  0  0  0  0  0  0  0  0  0
    3.4729    3.0001    0.0000 C   0  0  0  0  0  0  0  0  0  0  0  0
    3.4759    4.0001    0.0000 O   0  0  0  0  0  0  0  0  0  0  0  0
    4.3375    2.4975    0.0000 N   0  0  0  0  0  0  0  0  0  0  0  0
    5.2050    2.9950    0.0000 C   0  0  0  0  0  0  0  0  0  0  0  0
    6.0703    2.4937    0.0000 C   0  0  0  0  0  0  0  0  0  0  0  0
    6.0659    1.4937    0.0000 C   0  0  0  0  0  0  0  0  0  0  0  0
    5.1977    0.9975    0.0000 N   0  0  0  0  0  0  0  0  0  0  0  0
    4.3353    1.5038    0.0000 C   0  0  0  0  0  0  0  0  0  0  0  0
    3.4626    1.0050    0.0000 C   0  0  0  0  0  0  0  0  0  0  0  0
    3.4522   -0.0000    0.0000 O   0  0  0  0  0  0  0  0  0  0  0  0
    4.3234   -0.5013    0.0000 C   0  0  0  0  0  0  0  0  0  0  0  0
    5.1962   -0.0025    0.0000 C   0  0  0  0  0  0  0  0  0  0  0  0
    6.9400    2.9873    0.0000 C   0  0  0  0  0  0  0  0  0  0  0  0
    6.9444    3.9925    0.0000 C   0  0  0  0  0  0  0  0  0  0  0  0
    6.0791    4.5040    0.0000 N   0  0  0  0  0  0  0  0  0  0  0  0
    5.2094    4.0002    0.0000 C   0  0  0  0  0  0  0  0  0  0  0  0
    4.3441    4.5014    0.0000 C   0  0  0  0  0  0  0  0  0  0  0  0
    1.7409    3.0052    0.0000 C   0  0  0  0  0  0  0  0  0  0  0  0
    0.8704    2.5026    0.0000 N   0  0  0  0  0  0  0  0  0  0  0  0
    0.0059    3.0154    0.0000 C   0  0  0  0  0  0  0  0  0  0  0  0
    0.0119    4.0206    0.0000 C   0  0  0  0  0  0  0  0  0  0  0  0
    0.8823    4.5130    0.0000 C   0  0  0  0  0  0  0  0  0  0  0  0
    0.8882    5.5130    0.0000 C   0  0  0  0  0  0  0  0  0  0  0  0
    1.7571    6.0078    0.0000 C   0  0  0  0  0  0  0  0  0  0  0  0
    0.0251    6.0181    0.0000 C   0  0  0  0  0  0  0  0  0  0  0  0
    1.7468    4.0104    0.0000 N   0  0  0  0  0  0  0  0  0  0  0  0
    1.7350    0.0000    0.0000 N   0  0  0  0  0  0  0  0  0  0  0  0
  1  2  3  0  0  0  0
  2  3  1  0  0  0  0
  3 36  2  0  0  0  0
  3  4  1  0  0  0  0
  4  5  2  0  0  0  0
  5  6  1  0  0  0  0
  6  7  2  0  0  0  0
  7  8  1  0  0  0  0
  8  9  1  0  0  0  0
  9 10  1  0  0  0  0
 10 11  2  0  0  0  0
 10 12  1  0  0  0  0
 12 13  1  0  0  0  0
 13 25  2  0  0  0  0
 13 14  1  0  0  0  0
 14 15  1  0  0  0  0
 15 16  1  0  0  0  0
 16 21  1  0  0  0  0
 16 17  1  0  0  0  0
 17 18  1  0  0  0  0
 18 19  1  0  0  0  0
 19 20  1  0  0  0  0
 20 21  1  0  0  0  0
 14 22  2  0  0  0  0
 22 23  1  0  0  0  0
 23 24  2  0  0  0  0
 24 25  1  0  0  0  0
 25 26  1  0  0  0  0
  9 27  1  0  0  0  0
 27 35  2  0  0  0  0
 27 28  1  0  0  0  0
 28 29  2  0  0  0  0
 29 30  1  0  0  0  0
 30 31  2  0  0  0  0
 31 32  1  0  0  0  0
 32 33  1  0  0  0  0
 32 34  1  0  0  0  0
 31 35  1  0  0  0  0
  7 36  1  0  0  0  0
M  END
$$$$
AGN-NEW-817-4
  -OEChem-03232022352D

 29 31  0     0  0  0  0  0  0999 V2000
   -2.6025    2.4976    0.0000 C   0  0  0  0  0  0  0  0  0  0  0  0
   -1.7350    2.0001    0.0000 C   0  0  0  0  0  0  0  0  0  0  0  0
   -0.8675    1.5027    0.0000 C   0  0  0  0  0  0  0  0  0  0  0  0
   -0.8675    0.4975    0.0000 C   0  0  0  0  0  0  0  0  0  0  0  0
    0.0000    0.0000    0.0000 C   0  0  0  0  0  0  0  0  0  0  0  0
    0.8675    0.4975    0.0000 C   0  0  0  0  0  0  0  0  0  0  0  0
    0.8675    1.5027    0.0000 C   0  0  0  0  0  0  0  0  0  0  0  0
    1.7350    2.0001    0.0000 C   0  0  0  0  0  0  0  0  0  0  0  0
    1.7379    3.0001    0.0000 N   0  0  0  0  0  0  0  0  0  0  0  0
    0.8734    3.5027    0.0000 C   0  0  0  0  0  0  0  0  0  0  0  0
    0.8764    4.5027    0.0000 O   0  0  0  0  0  0  0  0  0  0  0  0
    0.0059    3.0052    0.0000 N   0  0  0  0  0  0  0  0  0  0  0  0
   -0.8586    3.5078    0.0000 C   0  0  0  0  0  0  0  0  0  0  0  0
   -1.7269    3.0116    0.0000 C   0  0  0  0  0  0  0  0  0  0  0  0
   -2.5936    3.5104    0.0000 C   0  0  0  0  0  0  0  0  0  0  0  0
   -2.5921    4.5156    0.0000 C   0  0  0  0  0  0  0  0  0  0  0  0
   -1.7239    5.0220    0.0000 N   0  0  0  0  0  0  0  0  0  0  0  0
   -0.8571    4.5130    0.0000 C   0  0  0  0  0  0  0  0  0  0  0  0
    0.0111    5.0091    0.0000 C   0  0  0  0  0  0  0  0  0  0  0  0
    2.6054    3.4976    0.0000 C   0  0  0  0  0  0  0  0  0  0  0  0
    3.4729    2.9899    0.0000 N   0  0  0  0  0  0  0  0  0  0  0  0
    4.3404    3.4976    0.0000 C   0  0  0  0  0  0  0  0  0  0  0  0
    4.3404    4.5028    0.0000 C   0  0  0  0  0  0  0  0  0  0  0  0
    3.4729    5.0003    0.0000 C   0  0  0  0  0  0  0  0  0  0  0  0
    3.4729    6.0003    0.0000 C   0  0  0  0  0  0  0  0  0  0  0  0
    2.6069    6.5003    0.0000 C   0  0  0  0  0  0  0  0  0  0  0  0
    4.3390    6.5003    0.0000 C   0  0  0  0  0  0  0  0  0  0  0  0
    2.6054    4.5028    0.0000 N   0  0  0  0  0  0  0  0  0  0  0  0
   -0.0000    2.0104    0.0000 N   0  0  0  0  0  0  0  0  0  0  0  0
  1  2  3  0  0  0  0
  2  3  1  0  0  0  0
  3 29  2  0  0  0  0
  3  4  1  0  0  0  0
  4  5  2  0  0  0  0
  5  6  1  0  0  0  0
  6  7  2  0  0  0  0
  7  8  1  0  0  0  0
  8  9  1  0  0  0  0
  9 10  1  0  0  0  0
 10 11  2  0  0  0  0
 10 12  1  0  0  0  0
 12 13  1  0  0  0  0
 13 18  2  0  0  0  0
 13 14  1  0  0  0  0
 14 15  2  0  0  0  0
 15 16  1  0  0  0  0
 16 17  2  0  0  0  0
 17 18  1  0  0  0  0
 18 19  1  0  0  0  0
  9 20  1  0  0  0  0
 20 28  2  0  0  0  0
 20 21  1  0  0  0  0
 21 22  2  0  0  0  0
 22 23  1  0  0  0  0
 23 24  2  0  0  0  0
 24 25  1  0  0  0  0
 25 26  1  0  0  0  0
 25 27  1  0  0  0  0
 24 28  1  0  0  0  0
  7 29  1  0  0  0  0
M  END
$$$$
AGN-NEW-817-5
  -OEChem-03232022352D

 30 32  0     0  0  0  0  0  0999 V2000
   -2.6025    2.4976    0.0000 C   0  0  0  0  0  0  0  0  0  0  0  0
   -1.7350    2.0001    0.0000 C   0  0  0  0  0  0  0  0  0  0  0  0
   -0.8675    1.5027    0.0000 C   0  0  0  0  0  0  0  0  0  0  0  0
   -0.8675    0.4975    0.0000 C   0  0  0  0  0  0  0  0  0  0  0  0
    0.0000    0.0000    0.0000 C   0  0  0  0  0  0  0  0  0  0  0  0
    0.0000   -1.0000    0.0000 F   0  0  0  0  0  0  0  0  0  0  0  0
    0.8675    0.4975    0.0000 C   0  0  0  0  0  0  0  0  0  0  0  0
    0.8675    1.5027    0.0000 C   0  0  0  0  0  0  0  0  0  0  0  0
    1.7350    2.0001    0.0000 C   0  0  0  0  0  0  0  0  0  0  0  0
    1.7379    3.0001    0.0000 N   0  0  0  0  0  0  0  0  0  0  0  0
    0.8734    3.5027    0.0000 C   0  0  0  0  0  0  0  0  0  0  0  0
    0.8764    4.5027    0.0000 O   0  0  0  0  0  0  0  0  0  0  0  0
    0.0059    3.0052    0.0000 N   0  0  0  0  0  0  0  0  0  0  0  0
   -0.8586    3.5078    0.0000 C   0  0  0  0  0  0  0  0  0  0  0  0
   -1.7269    3.0116    0.0000 C   0  0  0  0  0  0  0  0  0  0  0  0
   -2.5936    3.5104    0.0000 C   0  0  0  0  0  0  0  0  0  0  0  0
   -2.5921    4.5156    0.0000 C   0  0  0  0  0  0  0  0  0  0  0  0
   -1.7239    5.0220    0.0000 N   0  0  0  0  0  0  0  0  0  0  0  0
   -0.8571    4.5130    0.0000 C   0  0  0  0  0  0  0  0  0  0  0  0
    0.0111    5.0091    0.0000 C   0  0  0  0  0  0  0  0  0  0  0  0
    2.6054    3.4976    0.0000 C   0  0  0  0  0  0  0  0  0  0  0  0
    3.4729    2.9899    0.0000 N   0  0  0  0  0  0  0  0  0  0  0  0
    4.3404    3.4976    0.0000 C   0  0  0  0  0  0  0  0  0  0  0  0
    4.3404    4.5028    0.0000 C   0  0  0  0  0  0  0  0  0  0  0  0
    3.4729    5.0003    0.0000 C   0  0  0  0  0  0  0  0  0  0  0  0
    3.4729    6.0003    0.0000 C   0  0  0  0  0  0  0  0  0  0  0  0
    2.6069    6.5003    0.0000 C   0  0  0  0  0  0  0  0  0  0  0  0
    4.3390    6.5003    0.0000 C   0  0  0  0  0  0  0  0  0  0  0  0
    2.6054    4.5028    0.0000 N   0  0  0  0  0  0  0  0  0  0  0  0
   -0.0000    2.0104    0.0000 N   0  0  0  0  0  0  0  0  0  0  0  0
  1  2  3  0  0  0  0
  2  3  1  0  0  0  0
  3 30  2  0  0  0  0
  3  4  1  0  0  0  0
  4  5  2  0  0  0  0
  5  6  1  0  0  0  0
  5  7  1  0  0  0  0
  7  8  2  0  0  0  0
  8  9  1  0  0  0  0
  9 10  1  0  0  0  0
 10 11  1  0  0  0  0
 11 12  2  0  0  0  0
 11 13  1  0  0  0  0
 13 14  1  0  0  0  0
 14 19  2  0  0  0  0
 14 15  1  0  0  0  0
 15 16  2  0  0  0  0
 16 17  1  0  0  0  0
 17 18  2  0  0  0  0
 18 19  1  0  0  0  0
 19 20  1  0  0  0  0
 10 21  1  0  0  0  0
 21 29  2  0  0  0  0
 21 22  1  0  0  0  0
 22 23  2  0  0  0  0
 23 24  1  0  0  0  0
 24 25  2  0  0  0  0
 25 26  1  0  0  0  0
 26 27  1  0  0  0  0
 26 28  1  0  0  0  0
 25 29  1  0  0  0  0
  8 30  1  0  0  0  0
M  END
$$$$
AGN-NEW-817-6
  -OEChem-03232022352D

 30 32  0     0  0  0  0  0  0999 V2000
   -2.6025    2.4976    0.0000 C   0  0  0  0  0  0  0  0  0  0  0  0
   -1.7350    2.0001    0.0000 C   0  0  0  0  0  0  0  0  0  0  0  0
   -0.8675    1.5027    0.0000 C   0  0  0  0  0  0  0  0  0  0  0  0
   -0.8675    0.4975    0.0000 C   0  0  0  0  0  0  0  0  0  0  0  0
    0.0000    0.0000    0.0000 C   0  0  0  0  0  0  0  0  0  0  0  0
    0.8675    0.4975    0.0000 C   0  0  0  0  0  0  0  0  0  0  0  0
    0.8675    1.5027    0.0000 C   0  0  0  0  0  0  0  0  0  0  0  0
    1.7350    2.0001    0.0000 C   0  0  0  0  0  0  0  0  0  0  0  0
    2.5995    1.4976    0.0000 N   0  0  0  0  0  0  0  0  0  0  0  0
    2.5966    0.4976    0.0000 C   0  0  0  0  0  0  0  0  0  0  0  0
    3.4611   -0.0050    0.0000 O   0  0  0  0  0  0  0  0  0  0  0  0
    1.7291    0.0002    0.0000 N   0  0  0  0  0  0  0  0  0  0  0  0
    1.7261   -0.9998    0.0000 C   0  0  0  0  0  0  0  0  0  0  0  0
    0.8593   -1.4986    0.0000 C   0  0  0  0  0  0  0  0  0  0  0  0
   -0.0045   -0.9948    0.0000 C   0  0  0  0  0  0  0  0  0  0  0  0
    0.8520   -2.4986    0.0000 C   0  0  0  0  0  0  0  0  0  0  0  0
    1.7204   -3.0050    0.0000 C   0  0  0  0  0  0  0  0  0  0  0  0
    2.5960   -2.5114    0.0000 N   0  0  0  0  0  0  0  0  0  0  0  0
    2.5945   -1.5063    0.0000 C   0  0  0  0  0  0  0  0  0  0  0  0
    3.4612   -1.0075    0.0000 C   0  0  0  0  0  0  0  0  0  0  0  0
    3.4670    1.9950    0.0000 C   0  0  0  0  0  0  0  0  0  0  0  0
    3.4670    3.0002    0.0000 N   0  0  0  0  0  0  0  0  0  0  0  0
    4.3434    3.4924    0.0000 C   0  0  0  0  0  0  0  0  0  0  0  0
    5.2109    2.9847    0.0000 C   0  0  0  0  0  0  0  0  0  0  0  0
    5.2021    1.9847    0.0000 C   0  0  0  0  0  0  0  0  0  0  0  0
    6.0652    1.4796    0.0000 C   0  0  0  0  0  0  0  0  0  0  0  0
    6.0593    0.4796    0.0000 C   0  0  0  0  0  0  0  0  0  0  0  0
    6.9342    1.9745    0.0000 C   0  0  0  0  0  0  0  0  0  0  0  0
    4.3346    1.4873    0.0000 N   0  0  0  0  0  0  0  0  0  0  0  0
   -0.0000    2.0104    0.0000 N   0  0  0  0  0  0  0  0  0  0  0  0
  1  2  3  0  0  0  0
  2  3  1  0  0  0  0
  3 30  2  0  0  0  0
  3  4  1  0  0  0  0
  4  5  2  0  0  0  0
  5  6  1  0  0  0  0
  6  7  2  0  0  0  0
  7  8  1  0  0  0  0
  8  9  1  0  0  0  0
  9 10  1  0  0  0  0
 10 11  2  0  0  0  0
 10 12  1  0  0  0  0
 12 13  1  0  0  0  0
 13 19  2  0  0  0  0
 13 14  1  0  0  0  0
 14 15  1  0  0  0  0
 14 16  2  0  0  0  0
 16 17  1  0  0  0  0
 17 18  2  0  0  0  0
 18 19  1  0  0  0  0
 19 20  1  0  0  0  0
  9 21  1  0  0  0  0
 21 29  2  0  0  0  0
 21 22  1  0  0  0  0
 22 23  2  0  0  0  0
 23 24  1  0  0  0  0
 24 25  2  0  0  0  0
 25 26  1  0  0  0  0
 26 27  1  0  0  0  0
 26 28  1  0  0  0  0
 25 29  1  0  0  0  0
  7 30  1  0  0  0  0
M  END
$$$$
DAV-AUT-7eb-1
  -OEChem-03232022352D

 24 26  0     1  0  0  0  0  0999 V2000
   -1.5767   -2.3210    0.0000 C   0  0  0  0  0  0  0  0  0  0  0  0
   -1.4269   -1.3323    0.0000 C   0  0  1  0  0  0  0  0  0  0  0  0
    0.2032   -1.9690    0.0000 H   0  0  0  0  0  0  0  0  0  0  0  0
   -0.8653   -0.5013    0.0000 C   0  0  1  0  0  0  0  0  0  0  0  0
   -0.1831   -1.2324    0.0000 H   0  0  0  0  0  0  0  0  0  0  0  0
    0.0000    0.0000    0.0000 C   0  0  0  0  0  0  0  0  0  0  0  0
   -0.0000    1.0058    0.0000 C   0  0  0  0  0  0  0  0  0  0  0  0
    0.8680    1.5138    0.0000 C   0  0  0  0  0  0  0  0  0  0  0  0
    1.7360    1.0058    0.0000 C   0  0  0  0  0  0  0  0  0  0  0  0
    1.7360   -0.0012    0.0000 C   0  0  0  0  0  0  0  0  0  0  0  0
    0.8680   -0.4978    0.0000 C   0  0  0  0  0  0  0  0  0  0  0  0
    2.6938   -0.3126    0.0000 C   0  0  0  0  0  0  0  0  0  0  0  0
    3.0027   -1.2637    0.0000 O   0  0  0  0  0  0  0  0  0  0  0  0
    3.2858    0.5021    0.0000 N   0  0  0  0  0  0  0  0  0  0  0  0
    2.6939    1.3169    0.0000 S   0  0  1  0  0  0  0  0  0  0  0  0
    2.2873    2.2305    0.0000 C   0  0  0  0  0  0  0  0  0  0  0  0
    3.5600    1.8168    0.0000 O   0  0  0  0  0  0  0  0  0  0  0  0
   -1.1622    0.4609    0.0000 O   0  0  0  0  0  0  0  0  0  0  0  0
   -2.0919    0.8293    0.0000 C   0  0  0  0  0  0  0  0  0  0  0  0
   -2.9644    0.3264    0.0000 C   0  0  0  0  0  0  0  0  0  0  0  0
   -3.1141   -0.6687    0.0000 C   0  0  0  0  0  0  0  0  0  0  0  0
   -4.0691   -0.9651    0.0000 O   0  0  0  0  0  0  0  0  0  0  0  0
   -2.4277   -1.4040    0.0000 N   0  0  0  0  0  0  0  0  0  0  0  0
   -2.7932   -2.3348    0.0000 C   0  0  0  0  0  0  0  0  0  0  0  0
  1  2  1  0  0  0  0
  2  3  1  1  0  0  0
  2 23  1  0  0  0  0
  2  4  1  0  0  0  0
  4  5  1  1  0  0  0
  4  6  1  0  0  0  0
  6 11  2  0  0  0  0
  6  7  1  0  0  0  0
  7  8  2  0  0  0  0
  8  9  1  0  0  0  0
  9 15  1  0  0  0  0
  9 10  2  0  0  0  0
 10 11  1  0  0  0  0
 10 12  1  0  0  0  0
 12 13  2  0  0  0  0
 12 14  1  0  0  0  0
 14 15  2  0  0  0  0
 15 16  1  6  0  0  0
 15 17  2  0  0  0  0
  4 18  1  0  0  0  0
 18 19  1  0  0  0  0
 19 20  1  0  0  0  0
 20 21  1  0  0  0  0
 21 22  2  0  0  0  0
 21 23  1  0  0  0  0
 23 24  1  0  0  0  0
M  END
$$$$
DAV-AUT-7eb-2
  -OEChem-03232022352D

 22 24  0     1  0  0  0  0  0999 V2000
    0.4902   -2.7906    0.0000 C   0  0  0  0  0  0  0  0  0  0  0  0
   -0.3352   -2.2261    0.0000 N   0  0  0  0  0  0  0  0  0  0  0  0
   -0.1810   -1.2346    0.0000 C   0  0  0  0  0  0  0  0  0  0  0  0
   -0.8653   -0.5013    0.0000 C   0  0  1  0  0  0  0  0  0  0  0  0
   -1.1602    0.4543    0.0000 H   0  0  0  0  0  0  0  0  0  0  0  0
    0.0000    0.0000    0.0000 C   0  0  0  0  0  0  0  0  0  0  0  0
   -0.0000    1.0058    0.0000 C   0  0  0  0  0  0  0  0  0  0  0  0
    0.8680    1.5138    0.0000 C   0  0  0  0  0  0  0  0  0  0  0  0
    1.7360    1.0058    0.0000 C   0  0  0  0  0  0  0  0  0  0  0  0
    1.7360   -0.0012    0.0000 C   0  0  0  0  0  0  0  0  0  0  0  0
    0.8680   -0.4978    0.0000 C   0  0  0  0  0  0  0  0  0  0  0  0
    2.6938   -0.3126    0.0000 C   0  0  0  0  0  0  0  0  0  0  0  0
    3.0027   -1.2637    0.0000 O   0  0  0  0  0  0  0  0  0  0  0  0
    3.2858    0.5021    0.0000 N   0  0  0  0  0  0  0  0  0  0  0  0
    2.6939    1.3169    0.0000 S   0  0  1  0  0  0  0  0  0  0  0  0
    2.2873    2.2305    0.0000 C   0  0  0  0  0  0  0  0  0  0  0  0
    3.5600    1.8168    0.0000 O   0  0  0  0  0  0  0  0  0  0  0  0
   -1.8695   -0.5753    0.0000 O   0  0  0  0  0  0  0  0  0  0  0  0
   -2.4366   -1.3989    0.0000 C   0  0  0  0  0  0  0  0  0  0  0  0
   -2.1418   -2.3619    0.0000 C   0  0  0  0  0  0  0  0  0  0  0  0
   -1.2054   -2.7304    0.0000 C   0  0  0  0  0  0  0  0  0  0  0  0
   -1.1304   -3.7276    0.0000 O   0  0  0  0  0  0  0  0  0  0  0  0
  1  2  1  0  0  0  0
  2 21  1  0  0  0  0
  2  3  1  0  0  0  0
  3  4  1  0  0  0  0
  4  5  1  1  0  0  0
  4  6  1  0  0  0  0
  6 11  2  0  0  0  0
  6  7  1  0  0  0  0
  7  8  2  0  0  0  0
  8  9  1  0  0  0  0
  9 15  1  0  0  0  0
  9 10  2  0  0  0  0
 10 11  1  0  0  0  0
 10 12  1  0  0  0  0
 12 13  2  0  0  0  0
 12 14  1  0  0  0  0
 14 15  2  0  0  0  0
 15 16  1  6  0  0  0
 15 17  2  0  0  0  0
  4 18  1  0  0  0  0
 18 19  1  0  0  0  0
 19 20  1  0  0  0  0
 20 21  1  0  0  0  0
 21 22  2  0  0  0  0
M  END
$$$$
DAV-AUT-7eb-3
  -OEChem-03232022352D

 18 18  0     1  0  0  0  0  0999 V2000
    1.7452    5.4642    0.0000 C   0  0  0  0  0  0  0  0  0  0  0  0
    1.2427    4.5997    0.0000 N   0  0  0  0  0  0  0  0  0  0  0  0
    1.7401    3.7322    0.0000 C   0  0  0  0  0  0  0  0  0  0  0  0
    2.7401    3.7292    0.0000 O   0  0  0  0  0  0  0  0  0  0  0  0
    1.2376    2.8676    0.0000 N   0  0  0  0  0  0  0  0  0  0  0  0
    1.7350    2.0001    0.0000 S   0  0  1  0  0  0  0  0  0  0  0  0
    2.6025    2.4976    0.0000 C   0  0  0  0  0  0  0  0  0  0  0  0
    2.2324    1.1326    0.0000 O   0  0  0  0  0  0  0  0  0  0  0  0
    0.8675    1.5027    0.0000 C   0  0  0  0  0  0  0  0  0  0  0  0
    0.8675    0.4975    0.0000 C   0  0  0  0  0  0  0  0  0  0  0  0
    0.0000    0.0000    0.0000 C   0  0  0  0  0  0  0  0  0  0  0  0
   -0.8675    0.4975    0.0000 C   0  0  0  0  0  0  0  0  0  0  0  0
   -1.7328   -0.0038    0.0000 C   0  0  0  0  0  0  0  0  0  0  0  0
   -2.5995    0.4950    0.0000 O   0  0  0  0  0  0  0  0  0  0  0  0
   -1.7313   -1.0038    0.0000 O   0  0  0  0  0  0  0  0  0  0  0  0
   -2.5966   -1.5050    0.0000 C   0  0  0  0  0  0  0  0  0  0  0  0
   -0.8675    1.5027    0.0000 C   0  0  0  0  0  0  0  0  0  0  0  0
    0.0000    2.0104    0.0000 N   0  0  0  0  0  0  0  0  0  0  0  0
  1  2  1  0  0  0  0
  2  3  1  0  0  0  0
  3  4  2  0  0  0  0
  3  5  1  0  0  0  0
  5  6  2  0  0  0  0
  6  7  1  6  0  0  0
  6  8  2  0  0  0  0
  6  9  1  0  0  0  0
  9 18  2  0  0  0  0
  9 10  1  0  0  0  0
 10 11  2  0  0  0  0
 11 12  1  0  0  0  0
 12 13  1  0  0  0  0
 13 14  2  0  0  0  0
 13 15  1  0  0  0  0
 15 16  1  0  0  0  0
 12 17  2  0  0  0  0
 17 18  1  0  0  0  0
M  END
$$$$
DAV-AUT-7eb-4
  -OEChem-03232022352D

 22 24  0     1  0  0  0  0  0999 V2000
    0.4902   -2.7906    0.0000 C   0  0  0  0  0  0  0  0  0  0  0  0
   -0.3352   -2.2261    0.0000 N   0  0  0  0  0  0  0  0  0  0  0  0
   -0.1810   -1.2346    0.0000 C   0  0  0  0  0  0  0  0  0  0  0  0
   -0.8653   -0.5013    0.0000 C   0  0  1  0  0  0  0  0  0  0  0  0
   -1.1602    0.4543    0.0000 H   0  0  0  0  0  0  0  0  0  0  0  0
    0.0000    0.0000    0.0000 C   0  0  0  0  0  0  0  0  0  0  0  0
   -0.0000    1.0058    0.0000 C   0  0  0  0  0  0  0  0  0  0  0  0
    0.8680    1.5138    0.0000 C   0  0  0  0  0  0  0  0  0  0  0  0
    1.7360    1.0058    0.0000 C   0  0  0  0  0  0  0  0  0  0  0  0
    1.7360   -0.0012    0.0000 C   0  0  0  0  0  0  0  0  0  0  0  0
    0.8680   -0.4978    0.0000 C   0  0  0  0  0  0  0  0  0  0  0  0
    2.6938   -0.3126    0.0000 C   0  0  0  0  0  0  0  0  0  0  0  0
    3.0027   -1.2637    0.0000 O   0  0  0  0  0  0  0  0  0  0  0  0
    3.2858    0.5021    0.0000 N   0  0  0  0  0  0  0  0  0  0  0  0
    2.6939    1.3169    0.0000 S   0  0  2  0  0  0  0  0  0  0  0  0
    2.2873    2.2305    0.0000 C   0  0  0  0  0  0  0  0  0  0  0  0
    3.5600    1.8168    0.0000 O   0  0  0  0  0  0  0  0  0  0  0  0
   -1.8695   -0.5753    0.0000 O   0  0  0  0  0  0  0  0  0  0  0  0
   -2.4366   -1.3989    0.0000 C   0  0  0  0  0  0  0  0  0  0  0  0
   -2.1418   -2.3619    0.0000 C   0  0  0  0  0  0  0  0  0  0  0  0
   -1.2054   -2.7304    0.0000 C   0  0  0  0  0  0  0  0  0  0  0  0
   -1.1304   -3.7276    0.0000 O   0  0  0  0  0  0  0  0  0  0  0  0
  1  2  1  0  0  0  0
  2 21  1  0  0  0  0
  2  3  1  0  0  0  0
  3  4  1  0  0  0  0
  4  5  1  1  0  0  0
  4  6  1  0  0  0  0
  6 11  2  0  0  0  0
  6  7  1  0  0  0  0
  7  8  2  0  0  0  0
  8  9  1  0  0  0  0
  9 15  1  0  0  0  0
  9 10  2  0  0  0  0
 10 11  1  0  0  0  0
 10 12  1  0  0  0  0
 12 13  2  0  0  0  0
 12 14  1  0  0  0  0
 14 15  2  0  0  0  0
 15 16  1  1  0  0  0
 15 17  2  0  0  0  0
  4 18  1  0  0  0  0
 18 19  1  0  0  0  0
 19 20  1  0  0  0  0
 20 21  1  0  0  0  0
 21 22  2  0  0  0  0
M  END
$$$$
KIM-UNI-7d1-1
  -OEChem-03232022352D

 20 21  0     0  0  0  0  0  0999 V2000
    3.4648    0.0064    0.0000 C   0  0  0  0  0  0  0  0  0  0  0  0
    3.4663    1.0064    0.0000 C   0  0  0  0  0  0  0  0  0  0  0  0
    2.6011    1.5077    0.0000 N   0  0  0  0  0  0  0  0  0  0  0  0
    2.6026    2.5077    0.0000 C   0  0  0  0  0  0  0  0  0  0  0  0
    3.4686    3.0077    0.0000 C   0  0  0  0  0  0  0  0  0  0  0  0
    3.4745    4.0077    0.0000 C   0  0  0  0  0  0  0  0  0  0  0  0
    2.6055    4.5129    0.0000 C   0  0  0  0  0  0  0  0  0  0  0  0
    2.6114    5.5129    0.0000 Cl  0  0  0  0  0  0  0  0  0  0  0  0
    1.7306    4.0180    0.0000 C   0  0  0  0  0  0  0  0  0  0  0  0
    1.7335    3.0129    0.0000 C   0  0  0  0  0  0  0  0  0  0  0  0
    0.8675    2.5129    0.0000 C   0  0  0  0  0  0  0  0  0  0  0  0
    0.8675    1.5129    0.0000 N   0  0  0  0  0  0  0  0  0  0  0  0
    0.0000    1.0052    0.0000 C   0  0  0  0  0  0  0  0  0  0  0  0
    0.0000    0.0000    0.0000 C   0  0  0  0  0  0  0  0  0  0  0  0
    0.8675   -0.4975    0.0000 N   0  0  0  0  0  0  0  0  0  0  0  0
    0.8675   -1.4975    0.0000 C   0  0  0  0  0  0  0  0  0  0  0  0
    1.7335   -1.9975    0.0000 C   0  0  0  0  0  0  0  0  0  0  0  0
    0.0015   -1.9975    0.0000 O   0  0  0  0  0  0  0  0  0  0  0  0
    1.7350    0.0000    0.0000 C   0  0  0  0  0  0  0  0  0  0  0  0
    1.7350    1.0052    0.0000 C   0  0  0  0  0  0  0  0  0  0  0  0
  1  2  1  0  0  0  0
  2  3  1  0  0  0  0
  3  4  1  0  0  0  0
  4 10  2  0  0  0  0
  4  5  1  0  0  0  0
  5  6  2  0  0  0  0
  6  7  1  0  0  0  0
  7  8  1  0  0  0  0
  7  9  2  0  0  0  0
  9 10  1  0  0  0  0
 10 11  1  0  0  0  0
 11 12  1  0  0  0  0
 12 20  1  0  0  0  0
 12 13  1  0  0  0  0
 13 14  1  0  0  0  0
 14 15  1  0  0  0  0
 15 16  1  0  0  0  0
 16 17  1  0  0  0  0
 16 18  2  0  0  0  0
 15 19  1  0  0  0  0
 19 20  1  0  0  0  0
M  END
$$$$
KIM-UNI-7d1-2
  -OEChem-03232022352D

 21 22  0     0  0  0  0  0  0999 V2000
    3.4648    0.0064    0.0000 C   0  0  0  0  0  0  0  0  0  0  0  0
    3.4663    1.0064    0.0000 C   0  0  0  0  0  0  0  0  0  0  0  0
    2.6011    1.5077    0.0000 N   0  0  0  0  0  0  0  0  0  0  0  0
    2.6026    2.5077    0.0000 C   0  0  0  0  0  0  0  0  0  0  0  0
    3.4686    3.0077    0.0000 C   0  0  0  0  0  0  0  0  0  0  0  0
    3.4745    4.0077    0.0000 C   0  0  0  0  0  0  0  0  0  0  0  0
    2.6055    4.5129    0.0000 C   0  0  0  0  0  0  0  0  0  0  0  0
    2.6114    5.5129    0.0000 C   0  0  0  0  0  0  0  0  0  0  0  0
    2.6173    6.5129    0.0000 N   0  0  0  0  0  0  0  0  0  0  0  0
    1.7306    4.0180    0.0000 C   0  0  0  0  0  0  0  0  0  0  0  0
    1.7335    3.0129    0.0000 C   0  0  0  0  0  0  0  0  0  0  0  0
    0.8675    2.5129    0.0000 C   0  0  0  0  0  0  0  0  0  0  0  0
    0.8675    1.5129    0.0000 N   0  0  0  0  0  0  0  0  0  0  0  0
    0.0000    1.0052    0.0000 C   0  0  0  0  0  0  0  0  0  0  0  0
    0.0000    0.0000    0.0000 C   0  0  0  0  0  0  0  0  0  0  0  0
    0.8675   -0.4975    0.0000 N   0  0  0  0  0  0  0  0  0  0  0  0
    0.8675   -1.4975    0.0000 C   0  0  0  0  0  0  0  0  0  0  0  0
    1.7335   -1.9975    0.0000 C   0  0  0  0  0  0  0  0  0  0  0  0
    0.0015   -1.9975    0.0000 O   0  0  0  0  0  0  0  0  0  0  0  0
    1.7350    0.0000    0.0000 C   0  0  0  0  0  0  0  0  0  0  0  0
    1.7350    1.0052    0.0000 C   0  0  0  0  0  0  0  0  0  0  0  0
  1  2  1  0  0  0  0
  2  3  1  0  0  0  0
  3  4  1  0  0  0  0
  4 11  2  0  0  0  0
  4  5  1  0  0  0  0
  5  6  2  0  0  0  0
  6  7  1  0  0  0  0
  7  8  1  0  0  0  0
  8  9  3  0  0  0  0
  7 10  2  0  0  0  0
 10 11  1  0  0  0  0
 11 12  1  0  0  0  0
 12 13  1  0  0  0  0
 13 21  1  0  0  0  0
 13 14  1  0  0  0  0
 14 15  1  0  0  0  0
 15 16  1  0  0  0  0
 16 17  1  0  0  0  0
 17 18  1  0  0  0  0
 17 19  2  0  0  0  0
 16 20  1  0  0  0  0
 20 21  1  0  0  0  0
M  END
$$$$
KIM-UNI-7d1-3
  -OEChem-03232022352D

 21 22  0     0  0  0  0  0  0999 V2000
    3.4648    0.0064    0.0000 C   0  0  0  0  0  0  0  0  0  0  0  0
    3.4663    1.0064    0.0000 C   0  0  0  0  0  0  0  0  0  0  0  0
    4.3331    1.5051    0.0000 O   0  0  0  0  0  0  0  0  0  0  0  0
    2.6011    1.5077    0.0000 N   0  0  0  0  0  0  0  0  0  0  0  0
    2.6026    2.5077    0.0000 C   0  0  0  0  0  0  0  0  0  0  0  0
    3.4686    3.0077    0.0000 C   0  0  0  0  0  0  0  0  0  0  0  0
    3.4745    4.0077    0.0000 C   0  0  0  0  0  0  0  0  0  0  0  0
    2.6055    4.5129    0.0000 C   0  0  0  0  0  0  0  0  0  0  0  0
    2.6114    5.5129    0.0000 Cl  0  0  0  0  0  0  0  0  0  0  0  0
    1.7306    4.0180    0.0000 C   0  0  0  0  0  0  0  0  0  0  0  0
    1.7335    3.0129    0.0000 C   0  0  0  0  0  0  0  0  0  0  0  0
    0.8675    2.5129    0.0000 C   0  0  0  0  0  0  0  0  0  0  0  0
    0.8675    1.5129    0.0000 N   0  0  0  0  0  0  0  0  0  0  0  0
    0.0000    1.0052    0.0000 C   0  0  0  0  0  0  0  0  0  0  0  0
    0.0000    0.0000    0.0000 C   0  0  0  0  0  0  0  0  0  0  0  0
    0.8675   -0.4975    0.0000 N   0  0  0  0  0  0  0  0  0  0  0  0
    0.8675   -1.4975    0.0000 C   0  0  0  0  0  0  0  0  0  0  0  0
    1.7335   -1.9975    0.0000 C   0  0  0  0  0  0  0  0  0  0  0  0
    0.0015   -1.9975    0.0000 O   0  0  0  0  0  0  0  0  0  0  0  0
    1.7350    0.0000    0.0000 C   0  0  0  0  0  0  0  0  0  0  0  0
    1.7350    1.0052    0.0000 C   0  0  0  0  0  0  0  0  0  0  0  0
  1  2  1  0  0  0  0
  2  3  2  0  0  0  0
  2  4  1  0  0  0  0
  4  5  1  0  0  0  0
  5 11  2  0  0  0  0
  5  6  1  0  0  0  0
  6  7  2  0  0  0  0
  7  8  1  0  0  0  0
  8  9  1  0  0  0  0
  8 10  2  0  0  0  0
 10 11  1  0  0  0  0
 11 12  1  0  0  0  0
 12 13  1  0  0  0  0
 13 21  1  0  0  0  0
 13 14  1  0  0  0  0
 14 15  1  0  0  0  0
 15 16  1  0  0  0  0
 16 17  1  0  0  0  0
 17 18  1  0  0  0  0
 17 19  2  0  0  0  0
 16 20  1  0  0  0  0
 20 21  1  0  0  0  0
M  END
$$$$
KIM-UNI-7d1-4
  -OEChem-03232022352D

 20 22  0     1  0  0  0  0  0999 V2000
    1.7127   -5.0108    0.0000 C   0  0  0  0  0  0  0  0  0  0  0  0
    2.5815   -4.5156    0.0000 C   0  0  0  0  0  0  0  0  0  0  0  0
    3.4448   -5.0205    0.0000 O   0  0  0  0  0  0  0  0  0  0  0  0
    2.5871   -3.5157    0.0000 N   0  0  0  0  0  0  0  0  0  0  0  0
    3.4574   -3.0128    0.0000 C   0  0  0  0  0  0  0  0  0  0  0  0
    3.4630   -2.0076    0.0000 C   0  0  0  0  0  0  0  0  0  0  0  0
    2.5983   -1.5053    0.0000 N   0  0  0  0  0  0  0  0  0  0  0  0
    2.6039   -0.5053    0.0000 C   0  0  3  0  0  0  0  0  0  0  0  0
    3.4805   -0.0073    0.0000 C   0  0  0  0  0  0  0  0  0  0  0  0
    3.4848    1.0014    0.0000 C   0  0  0  0  0  0  0  0  0  0  0  0
    2.6125    1.5125    0.0000 N   0  0  0  0  0  0  0  0  0  0  0  0
    1.7414    1.0089    0.0000 C   0  0  0  0  0  0  0  0  0  0  0  0
    0.8707    1.5185    0.0000 C   0  0  0  0  0  0  0  0  0  0  0  0
    0.0000    1.0089    0.0000 C   0  0  0  0  0  0  0  0  0  0  0  0
    0.0000    0.0000    0.0000 C   0  0  0  0  0  0  0  0  0  0  0  0
   -0.8653   -0.5013    0.0000 Cl  0  0  0  0  0  0  0  0  0  0  0  0
    0.8707   -0.4993    0.0000 C   0  0  0  0  0  0  0  0  0  0  0  0
    1.7371    0.0000    0.0000 C   0  0  0  0  0  0  0  0  0  0  0  0
    1.7281   -1.9979    0.0000 C   0  0  0  0  0  0  0  0  0  0  0  0
    1.7225   -3.0031    0.0000 C   0  0  0  0  0  0  0  0  0  0  0  0
  1  2  1  0  0  0  0
  2  3  2  0  0  0  0
  2  4  1  0  0  0  0
  4 20  1  0  0  0  0
  4  5  1  0  0  0  0
  5  6  1  0  0  0  0
  6  7  1  0  0  0  0
  7  8  1  0  0  0  0
  8 18  1  0  0  0  0
  8  9  1  0  0  0  0
  9 10  1  0  0  0  0
 10 11  1  0  0  0  0
 11 12  1  0  0  0  0
 12 18  2  0  0  0  0
 12 13  1  0  0  0  0
 13 14  2  0  0  0  0
 14 15  1  0  0  0  0
 15 16  1  0  0  0  0
 15 17  2  0  0  0  0
 17 18  1  0  0  0  0
  7 19  1  0  0  0  0
 19 20  1  0  0  0  0
M  END
$$$$
JOO-PER-74f-1
  -OEChem-03232022352D

 16 17  0     0  0  0  0  0  0999 V2000
    3.4700    3.0206    0.0000 C   0  0  0  0  0  0  0  0  0  0  0  0
    2.6010    3.5155    0.0000 C   0  0  0  0  0  0  0  0  0  0  0  0
    2.5981    4.5207    0.0000 C   0  0  0  0  0  0  0  0  0  0  0  0
    1.7291    5.0157    0.0000 C   0  0  0  0  0  0  0  0  0  0  0  0
    0.8631    4.5156    0.0000 C   0  0  0  0  0  0  0  0  0  0  0  0
    0.8660    3.5104    0.0000 C   0  0  0  0  0  0  0  0  0  0  0  0
    0.0000    3.0104    0.0000 C   0  0  0  0  0  0  0  0  0  0  0  0
   -0.0000    2.0104    0.0000 N   0  0  0  0  0  0  0  0  0  0  0  0
   -0.8675    1.5027    0.0000 C   0  0  0  0  0  0  0  0  0  0  0  0
   -0.8675    0.4975    0.0000 C   0  0  0  0  0  0  0  0  0  0  0  0
    0.0000    0.0000    0.0000 C   0  0  0  0  0  0  0  0  0  0  0  0
    0.0000   -1.0000    0.0000 C   0  0  0  0  0  0  0  0  0  0  0  0
    0.0000   -2.0000    0.0000 N   0  0  0  0  0  0  0  0  0  0  0  0
    0.8675    0.4975    0.0000 C   0  0  0  0  0  0  0  0  0  0  0  0
    0.8675    1.5027    0.0000 C   0  0  0  0  0  0  0  0  0  0  0  0
    1.7350    3.0053    0.0000 C   0  0  0  0  0  0  0  0  0  0  0  0
  1  2  1  0  0  0  0
  2 16  2  0  0  0  0
  2  3  1  0  0  0  0
  3  4  2  0  0  0  0
  4  5  1  0  0  0  0
  5  6  2  0  0  0  0
  6  7  1  0  0  0  0
  7  8  1  0  0  0  0
  8 15  1  0  0  0  0
  8  9  1  0  0  0  0
  9 10  1  0  0  0  0
 10 11  1  0  0  0  0
 11 12  1  0  0  0  0
 12 13  3  0  0  0  0
 11 14  1  0  0  0  0
 14 15  1  0  0  0  0
  6 16  1  0  0  0  0
M  END
$$$$
TRY-UNI-714-1
  -OEChem-03232022352D

 18 19  0     0  0  0  0  0  0999 V2000
   -0.0000   -1.0000    0.0000 C   0  0  0  0  0  0  0  0  0  0  0  0
    0.0000    0.0000    0.0000 C   0  0  0  0  0  0  0  0  0  0  0  0
   -0.8675    0.4975    0.0000 C   0  0  0  0  0  0  0  0  0  0  0  0
   -1.7328   -0.0038    0.0000 N   0  0  0  0  0  0  0  0  0  0  0  0
   -0.8675    1.5027    0.0000 C   0  0  0  0  0  0  0  0  0  0  0  0
    0.0000    2.0104    0.0000 N   0  0  0  0  0  0  0  0  0  0  0  0
    0.8675    1.5027    0.0000 C   0  0  0  0  0  0  0  0  0  0  0  0
    0.8675    0.4975    0.0000 C   0  0  0  0  0  0  0  0  0  0  0  0
    1.7328   -0.0038    0.0000 N   0  0  0  0  0  0  0  0  0  0  0  0
    2.5995    0.4950    0.0000 C   0  0  0  0  0  0  0  0  0  0  0  0
    2.6010    1.4950    0.0000 O   0  0  0  0  0  0  0  0  0  0  0  0
    3.4648   -0.0063    0.0000 C   0  0  0  0  0  0  0  0  0  0  0  0
    4.3316    0.4925    0.0000 C   0  0  0  0  0  0  0  0  0  0  0  0
    4.3301    1.4977    0.0000 C   0  0  0  0  0  0  0  0  0  0  0  0
    5.1968    1.9965    0.0000 C   0  0  0  0  0  0  0  0  0  0  0  0
    6.0651    1.5003    0.0000 C   0  0  0  0  0  0  0  0  0  0  0  0
    6.0666    0.4951    0.0000 C   0  0  0  0  0  0  0  0  0  0  0  0
    5.1999   -0.0139    0.0000 C   0  0  0  0  0  0  0  0  0  0  0  0
  1  2  1  0  0  0  0
  2  8  2  0  0  0  0
  2  3  1  0  0  0  0
  3  4  1  0  0  0  0
  3  5  2  0  0  0  0
  5  6  1  0  0  0  0
  6  7  2  0  0  0  0
  7  8  1  0  0  0  0
  8  9  1  0  0  0  0
  9 10  1  0  0  0  0
 10 11  2  0  0  0  0
 10 12  1  0  0  0  0
 12 13  1  0  0  0  0
 13 18  1  0  0  0  0
 13 14  1  0  0  0  0
 14 15  1  0  0  0  0
 15 16  1  0  0  0  0
 16 17  1  0  0  0  0
 17 18  1  0  0  0  0
M  END
$$$$
TRY-UNI-714-2
  -OEChem-03232022352D

 18 19  0     0  0  0  0  0  0999 V2000
   -0.0000   -1.0000    0.0000 C   0  0  0  0  0  0  0  0  0  0  0  0
    0.0000    0.0000    0.0000 C   0  0  0  0  0  0  0  0  0  0  0  0
   -0.8675    0.4975    0.0000 C   0  0  0  0  0  0  0  0  0  0  0  0
   -1.7328   -0.0038    0.0000 N   0  0  0  0  0  0  0  0  0  0  0  0
   -0.8675    1.5027    0.0000 C   0  0  0  0  0  0  0  0  0  0  0  0
    0.0000    2.0104    0.0000 N   0  0  0  0  0  0  0  0  0  0  0  0
    0.8675    1.5027    0.0000 C   0  0  0  0  0  0  0  0  0  0  0  0
    0.8675    0.4975    0.0000 C   0  0  0  0  0  0  0  0  0  0  0  0
    1.7328   -0.0038    0.0000 N   0  0  0  0  0  0  0  0  0  0  0  0
    2.5995    0.4950    0.0000 C   0  0  0  0  0  0  0  0  0  0  0  0
    2.6010    1.4950    0.0000 O   0  0  0  0  0  0  0  0  0  0  0  0
    3.4648   -0.0063    0.0000 C   0  0  0  0  0  0  0  0  0  0  0  0
    4.3316    0.4925    0.0000 C   0  0  0  0  0  0  0  0  0  0  0  0
    4.3301    1.4977    0.0000 C   0  0  0  0  0  0  0  0  0  0  0  0
    5.1968    1.9965    0.0000 C   0  0  0  0  0  0  0  0  0  0  0  0
    6.0651    1.5003    0.0000 C   0  0  0  0  0  0  0  0  0  0  0  0
    6.0666    0.4951    0.0000 C   0  0  0  0  0  0  0  0  0  0  0  0
    5.1999   -0.0139    0.0000 C   0  0  0  0  0  0  0  0  0  0  0  0
  1  2  1  0  0  0  0
  2  8  2  0  0  0  0
  2  3  1  0  0  0  0
  3  4  1  0  0  0  0
  3  5  2  0  0  0  0
  5  6  1  0  0  0  0
  6  7  2  0  0  0  0
  7  8  1  0  0  0  0
  8  9  1  0  0  0  0
  9 10  1  0  0  0  0
 10 11  2  0  0  0  0
 10 12  1  0  0  0  0
 12 13  1  0  0  0  0
 13 18  2  0  0  0  0
 13 14  1  0  0  0  0
 14 15  2  0  0  0  0
 15 16  1  0  0  0  0
 16 17  2  0  0  0  0
 17 18  1  0  0  0  0
M  END
$$$$
TRY-UNI-714-3
  -OEChem-03232022352D

 19 20  0     0  0  0  0  0  0999 V2000
   -0.0000   -1.0000    0.0000 C   0  0  0  0  0  0  0  0  0  0  0  0
    0.0000    0.0000    0.0000 C   0  0  0  0  0  0  0  0  0  0  0  0
   -0.8675    0.4975    0.0000 C   0  0  0  0  0  0  0  0  0  0  0  0
   -1.7328   -0.0038    0.0000 N   0  0  0  0  0  0  0  0  0  0  0  0
   -0.8675    1.5027    0.0000 C   0  0  0  0  0  0  0  0  0  0  0  0
    0.0000    2.0104    0.0000 N   0  0  0  0  0  0  0  0  0  0  0  0
    0.8675    1.5027    0.0000 C   0  0  0  0  0  0  0  0  0  0  0  0
    0.8675    0.4975    0.0000 C   0  0  0  0  0  0  0  0  0  0  0  0
    1.7328   -0.0038    0.0000 N   0  0  0  0  0  0  0  0  0  0  0  0
    2.5995    0.4950    0.0000 C   0  0  0  0  0  0  0  0  0  0  0  0
    2.6010    1.4950    0.0000 O   0  0  0  0  0  0  0  0  0  0  0  0
    3.4648   -0.0063    0.0000 C   0  0  0  0  0  0  0  0  0  0  0  0
    4.3316    0.4925    0.0000 C   0  0  0  0  0  0  0  0  0  0  0  0
    5.1999   -0.0140    0.0000 C   0  0  0  0  0  0  0  0  0  0  0  0
    6.0667    0.4848    0.0000 C   0  0  0  0  0  0  0  0  0  0  0  0
    6.0740    1.4848    0.0000 C   0  0  0  0  0  0  0  0  0  0  0  0
    5.2057    1.9912    0.0000 C   0  0  0  0  0  0  0  0  0  0  0  0
    5.2131    2.9912    0.0000 Cl  0  0  0  0  0  0  0  0  0  0  0  0
    4.3301    1.4976    0.0000 C   0  0  0  0  0  0  0  0  0  0  0  0
  1  2  1  0  0  0  0
  2  8  2  0  0  0  0
  2  3  1  0  0  0  0
  3  4  1  0  0  0  0
  3  5  2  0  0  0  0
  5  6  1  0  0  0  0
  6  7  2  0  0  0  0
  7  8  1  0  0  0  0
  8  9  1  0  0  0  0
  9 10  1  0  0  0  0
 10 11  2  0  0  0  0
 10 12  1  0  0  0  0
 12 13  1  0  0  0  0
 13 19  2  0  0  0  0
 13 14  1  0  0  0  0
 14 15  2  0  0  0  0
 15 16  1  0  0  0  0
 16 17  2  0  0  0  0
 17 18  1  0  0  0  0
 17 19  1  0  0  0  0
M  END
$$$$
TRY-UNI-714-4
  -OEChem-03232022352D

 17 18  0     0  0  0  0  0  0999 V2000
   -0.0000   -1.0000    0.0000 C   0  0  0  0  0  0  0  0  0  0  0  0
    0.0000    0.0000    0.0000 C   0  0  0  0  0  0  0  0  0  0  0  0
   -0.8675    0.4975    0.0000 C   0  0  0  0  0  0  0  0  0  0  0  0
   -0.8675    1.5027    0.0000 C   0  0  0  0  0  0  0  0  0  0  0  0
    0.0000    2.0104    0.0000 N   0  0  0  0  0  0  0  0  0  0  0  0
    0.8675    1.5027    0.0000 C   0  0  0  0  0  0  0  0  0  0  0  0
    0.8675    0.4975    0.0000 C   0  0  0  0  0  0  0  0  0  0  0  0
    1.7328   -0.0038    0.0000 N   0  0  0  0  0  0  0  0  0  0  0  0
    2.5995    0.4950    0.0000 C   0  0  0  0  0  0  0  0  0  0  0  0
    2.6010    1.4950    0.0000 O   0  0  0  0  0  0  0  0  0  0  0  0
    3.4648   -0.0063    0.0000 C   0  0  0  0  0  0  0  0  0  0  0  0
    4.3316    0.4925    0.0000 C   0  0  0  0  0  0  0  0  0  0  0  0
    4.3301    1.4977    0.0000 C   0  0  0  0  0  0  0  0  0  0  0  0
    5.1968    1.9965    0.0000 C   0  0  0  0  0  0  0  0  0  0  0  0
    6.0651    1.5003    0.0000 C   0  0  0  0  0  0  0  0  0  0  0  0
    6.0666    0.4951    0.0000 C   0  0  0  0  0  0  0  0  0  0  0  0
    5.1999   -0.0139    0.0000 C   0  0  0  0  0  0  0  0  0  0  0  0
  1  2  1  0  0  0  0
  2  7  2  0  0  0  0
  2  3  1  0  0  0  0
  3  4  2  0  0  0  0
  4  5  1  0  0  0  0
  5  6  2  0  0  0  0
  6  7  1  0  0  0  0
  7  8  1  0  0  0  0
  8  9  1  0  0  0  0
  9 10  2  0  0  0  0
  9 11  1  0  0  0  0
 11 12  1  0  0  0  0
 12 17  1  0  0  0  0
 12 13  1  0  0  0  0
 13 14  1  0  0  0  0
 14 15  1  0  0  0  0
 15 16  1  0  0  0  0
 16 17  1  0  0  0  0
M  END
$$$$
TRY-UNI-714-5
  -OEChem-03232022352D

 17 18  0     0  0  0  0  0  0999 V2000
   -0.0000   -1.0000    0.0000 C   0  0  0  0  0  0  0  0  0  0  0  0
    0.0000    0.0000    0.0000 C   0  0  0  0  0  0  0  0  0  0  0  0
   -0.8675    0.4975    0.0000 C   0  0  0  0  0  0  0  0  0  0  0  0
   -0.8675    1.5027    0.0000 C   0  0  0  0  0  0  0  0  0  0  0  0
    0.0000    2.0104    0.0000 N   0  0  0  0  0  0  0  0  0  0  0  0
    0.8675    1.5027    0.0000 C   0  0  0  0  0  0  0  0  0  0  0  0
    0.8675    0.4975    0.0000 C   0  0  0  0  0  0  0  0  0  0  0  0
    1.7328   -0.0038    0.0000 N   0  0  0  0  0  0  0  0  0  0  0  0
    2.5995    0.4950    0.0000 C   0  0  0  0  0  0  0  0  0  0  0  0
    2.6010    1.4950    0.0000 O   0  0  0  0  0  0  0  0  0  0  0  0
    3.4648   -0.0063    0.0000 C   0  0  0  0  0  0  0  0  0  0  0  0
    4.3316    0.4925    0.0000 C   0  0  0  0  0  0  0  0  0  0  0  0
    4.3301    1.4977    0.0000 C   0  0  0  0  0  0  0  0  0  0  0  0
    5.1968    1.9965    0.0000 C   0  0  0  0  0  0  0  0  0  0  0  0
    6.0651    1.5003    0.0000 C   0  0  0  0  0  0  0  0  0  0  0  0
    6.0666    0.4951    0.0000 C   0  0  0  0  0  0  0  0  0  0  0  0
    5.1999   -0.0139    0.0000 C   0  0  0  0  0  0  0  0  0  0  0  0
  1  2  1  0  0  0  0
  2  7  2  0  0  0  0
  2  3  1  0  0  0  0
  3  4  2  0  0  0  0
  4  5  1  0  0  0  0
  5  6  2  0  0  0  0
  6  7  1  0  0  0  0
  7  8  1  0  0  0  0
  8  9  1  0  0  0  0
  9 10  2  0  0  0  0
  9 11  1  0  0  0  0
 11 12  1  0  0  0  0
 12 17  2  0  0  0  0
 12 13  1  0  0  0  0
 13 14  2  0  0  0  0
 14 15  1  0  0  0  0
 15 16  2  0  0  0  0
 16 17  1  0  0  0  0
M  END
$$$$
TRY-UNI-714-6
  -OEChem-03232022352D

 18 19  0     0  0  0  0  0  0999 V2000
   -0.0000   -1.0000    0.0000 C   0  0  0  0  0  0  0  0  0  0  0  0
    0.0000    0.0000    0.0000 C   0  0  0  0  0  0  0  0  0  0  0  0
   -0.8675    0.4975    0.0000 C   0  0  0  0  0  0  0  0  0  0  0  0
   -0.8675    1.5027    0.0000 C   0  0  0  0  0  0  0  0  0  0  0  0
    0.0000    2.0104    0.0000 N   0  0  0  0  0  0  0  0  0  0  0  0
    0.8675    1.5027    0.0000 C   0  0  0  0  0  0  0  0  0  0  0  0
    0.8675    0.4975    0.0000 C   0  0  0  0  0  0  0  0  0  0  0  0
    1.7328   -0.0038    0.0000 N   0  0  0  0  0  0  0  0  0  0  0  0
    2.5995    0.4950    0.0000 C   0  0  0  0  0  0  0  0  0  0  0  0
    2.6010    1.4950    0.0000 O   0  0  0  0  0  0  0  0  0  0  0  0
    3.4648   -0.0063    0.0000 C   0  0  0  0  0  0  0  0  0  0  0  0
    4.3316    0.4925    0.0000 C   0  0  0  0  0  0  0  0  0  0  0  0
    5.1999   -0.0140    0.0000 C   0  0  0  0  0  0  0  0  0  0  0  0
    6.0667    0.4848    0.0000 C   0  0  0  0  0  0  0  0  0  0  0  0
    6.0740    1.4848    0.0000 C   0  0  0  0  0  0  0  0  0  0  0  0
    5.2057    1.9912    0.0000 C   0  0  0  0  0  0  0  0  0  0  0  0
    5.2131    2.9912    0.0000 Cl  0  0  0  0  0  0  0  0  0  0  0  0
    4.3301    1.4976    0.0000 C   0  0  0  0  0  0  0  0  0  0  0  0
  1  2  1  0  0  0  0
  2  7  2  0  0  0  0
  2  3  1  0  0  0  0
  3  4  2  0  0  0  0
  4  5  1  0  0  0  0
  5  6  2  0  0  0  0
  6  7  1  0  0  0  0
  7  8  1  0  0  0  0
  8  9  1  0  0  0  0
  9 10  2  0  0  0  0
  9 11  1  0  0  0  0
 11 12  1  0  0  0  0
 12 18  2  0  0  0  0
 12 13  1  0  0  0  0
 13 14  2  0  0  0  0
 14 15  1  0  0  0  0
 15 16  2  0  0  0  0
 16 17  1  0  0  0  0
 16 18  1  0  0  0  0
M  END
$$$$
TRY-UNI-714-7
  -OEChem-03232022352D

 18 19  0     0  0  0  0  0  0999 V2000
   -0.0000   -1.0000    0.0000 C   0  0  0  0  0  0  0  0  0  0  0  0
    0.0000    0.0000    0.0000 C   0  0  0  0  0  0  0  0  0  0  0  0
   -0.8675    0.4975    0.0000 C   0  0  0  0  0  0  0  0  0  0  0  0
   -1.7328   -0.0038    0.0000 N   0  0  0  0  0  0  0  0  0  0  0  0
   -0.8675    1.5027    0.0000 C   0  0  0  0  0  0  0  0  0  0  0  0
    0.0000    2.0104    0.0000 N   0  0  0  0  0  0  0  0  0  0  0  0
    0.8675    1.5027    0.0000 C   0  0  0  0  0  0  0  0  0  0  0  0
    0.8675    0.4975    0.0000 C   0  0  0  0  0  0  0  0  0  0  0  0
    1.7328   -0.0038    0.0000 N   0  0  0  0  0  0  0  0  0  0  0  0
    2.5995    0.4950    0.0000 C   0  0  0  0  0  0  0  0  0  0  0  0
    2.6010    1.4950    0.0000 O   0  0  0  0  0  0  0  0  0  0  0  0
    3.4648   -0.0063    0.0000 N   0  0  0  0  0  0  0  0  0  0  0  0
    4.3316    0.4925    0.0000 C   0  0  0  0  0  0  0  0  0  0  0  0
    4.3301    1.4977    0.0000 C   0  0  0  0  0  0  0  0  0  0  0  0
    5.1968    1.9965    0.0000 C   0  0  0  0  0  0  0  0  0  0  0  0
    6.0651    1.5003    0.0000 C   0  0  0  0  0  0  0  0  0  0  0  0
    6.0666    0.4951    0.0000 C   0  0  0  0  0  0  0  0  0  0  0  0
    5.1999   -0.0139    0.0000 C   0  0  0  0  0  0  0  0  0  0  0  0
  1  2  1  0  0  0  0
  2  8  2  0  0  0  0
  2  3  1  0  0  0  0
  3  4  1  0  0  0  0
  3  5  2  0  0  0  0
  5  6  1  0  0  0  0
  6  7  2  0  0  0  0
  7  8  1  0  0  0  0
  8  9  1  0  0  0  0
  9 10  1  0  0  0  0
 10 11  2  0  0  0  0
 10 12  1  0  0  0  0
 12 13  1  0  0  0  0
 13 18  1  0  0  0  0
 13 14  1  0  0  0  0
 14 15  1  0  0  0  0
 15 16  1  0  0  0  0
 16 17  1  0  0  0  0
 17 18  1  0  0  0  0
M  END
$$$$
TRY-UNI-714-8
  -OEChem-03232022352D

 18 19  0     0  0  0  0  0  0999 V2000
   -0.0000   -1.0000    0.0000 C   0  0  0  0  0  0  0  0  0  0  0  0
    0.0000    0.0000    0.0000 C   0  0  0  0  0  0  0  0  0  0  0  0
   -0.8675    0.4975    0.0000 C   0  0  0  0  0  0  0  0  0  0  0  0
   -1.7328   -0.0038    0.0000 N   0  0  0  0  0  0  0  0  0  0  0  0
   -0.8675    1.5027    0.0000 C   0  0  0  0  0  0  0  0  0  0  0  0
    0.0000    2.0104    0.0000 N   0  0  0  0  0  0  0  0  0  0  0  0
    0.8675    1.5027    0.0000 C   0  0  0  0  0  0  0  0  0  0  0  0
    0.8675    0.4975    0.0000 C   0  0  0  0  0  0  0  0  0  0  0  0
    1.7328   -0.0038    0.0000 N   0  0  0  0  0  0  0  0  0  0  0  0
    2.5995    0.4950    0.0000 C   0  0  0  0  0  0  0  0  0  0  0  0
    2.6010    1.4950    0.0000 O   0  0  0  0  0  0  0  0  0  0  0  0
    3.4648   -0.0063    0.0000 N   0  0  0  0  0  0  0  0  0  0  0  0
    4.3316    0.4925    0.0000 C   0  0  0  0  0  0  0  0  0  0  0  0
    4.3301    1.4977    0.0000 C   0  0  0  0  0  0  0  0  0  0  0  0
    5.1968    1.9965    0.0000 C   0  0  0  0  0  0  0  0  0  0  0  0
    6.0651    1.5003    0.0000 C   0  0  0  0  0  0  0  0  0  0  0  0
    6.0666    0.4951    0.0000 C   0  0  0  0  0  0  0  0  0  0  0  0
    5.1999   -0.0139    0.0000 C   0  0  0  0  0  0  0  0  0  0  0  0
  1  2  1  0  0  0  0
  2  8  2  0  0  0  0
  2  3  1  0  0  0  0
  3  4  1  0  0  0  0
  3  5  2  0  0  0  0
  5  6  1  0  0  0  0
  6  7  2  0  0  0  0
  7  8  1  0  0  0  0
  8  9  1  0  0  0  0
  9 10  1  0  0  0  0
 10 11  2  0  0  0  0
 10 12  1  0  0  0  0
 12 13  1  0  0  0  0
 13 18  2  0  0  0  0
 13 14  1  0  0  0  0
 14 15  2  0  0  0  0
 15 16  1  0  0  0  0
 16 17  2  0  0  0  0
 17 18  1  0  0  0  0
M  END
$$$$
TRY-UNI-714-9
  -OEChem-03232022352D

 19 20  0     0  0  0  0  0  0999 V2000
   -0.0000   -1.0000    0.0000 C   0  0  0  0  0  0  0  0  0  0  0  0
    0.0000    0.0000    0.0000 C   0  0  0  0  0  0  0  0  0  0  0  0
   -0.8675    0.4975    0.0000 C   0  0  0  0  0  0  0  0  0  0  0  0
   -1.7328   -0.0038    0.0000 N   0  0  0  0  0  0  0  0  0  0  0  0
   -0.8675    1.5027    0.0000 C   0  0  0  0  0  0  0  0  0  0  0  0
    0.0000    2.0104    0.0000 N   0  0  0  0  0  0  0  0  0  0  0  0
    0.8675    1.5027    0.0000 C   0  0  0  0  0  0  0  0  0  0  0  0
    0.8675    0.4975    0.0000 C   0  0  0  0  0  0  0  0  0  0  0  0
    1.7328   -0.0038    0.0000 N   0  0  0  0  0  0  0  0  0  0  0  0
    2.5995    0.4950    0.0000 C   0  0  0  0  0  0  0  0  0  0  0  0
    2.6010    1.4950    0.0000 O   0  0  0  0  0  0  0  0  0  0  0  0
    3.4648   -0.0063    0.0000 N   0  0  0  0  0  0  0  0  0  0  0  0
    4.3316    0.4925    0.0000 C   0  0  0  0  0  0  0  0  0  0  0  0
    5.1999   -0.0140    0.0000 C   0  0  0  0  0  0  0  0  0  0  0  0
    6.0667    0.4848    0.0000 C   0  0  0  0  0  0  0  0  0  0  0  0
    6.0740    1.4848    0.0000 C   0  0  0  0  0  0  0  0  0  0  0  0
    5.2057    1.9912    0.0000 C   0  0  0  0  0  0  0  0  0  0  0  0
    5.2131    2.9912    0.0000 Cl  0  0  0  0  0  0  0  0  0  0  0  0
    4.3301    1.4976    0.0000 C   0  0  0  0  0  0  0  0  0  0  0  0
  1  2  1  0  0  0  0
  2  8  2  0  0  0  0
  2  3  1  0  0  0  0
  3  4  1  0  0  0  0
  3  5  2  0  0  0  0
  5  6  1  0  0  0  0
  6  7  2  0  0  0  0
  7  8  1  0  0  0  0
  8  9  1  0  0  0  0
  9 10  1  0  0  0  0
 10 11  2  0  0  0  0
 10 12  1  0  0  0  0
 12 13  1  0  0  0  0
 13 19  2  0  0  0  0
 13 14  1  0  0  0  0
 14 15  2  0  0  0  0
 15 16  1  0  0  0  0
 16 17  2  0  0  0  0
 17 18  1  0  0  0  0
 17 19  1  0  0  0  0
M  END
$$$$
TRY-UNI-714-10
  -OEChem-03232022352D

 17 18  0     0  0  0  0  0  0999 V2000
   -0.0000   -1.0000    0.0000 C   0  0  0  0  0  0  0  0  0  0  0  0
    0.0000    0.0000    0.0000 C   0  0  0  0  0  0  0  0  0  0  0  0
   -0.8675    0.4975    0.0000 C   0  0  0  0  0  0  0  0  0  0  0  0
   -0.8675    1.5027    0.0000 C   0  0  0  0  0  0  0  0  0  0  0  0
    0.0000    2.0104    0.0000 N   0  0  0  0  0  0  0  0  0  0  0  0
    0.8675    1.5027    0.0000 C   0  0  0  0  0  0  0  0  0  0  0  0
    0.8675    0.4975    0.0000 C   0  0  0  0  0  0  0  0  0  0  0  0
    1.7328   -0.0038    0.0000 N   0  0  0  0  0  0  0  0  0  0  0  0
    2.5995    0.4950    0.0000 C   0  0  0  0  0  0  0  0  0  0  0  0
    2.6010    1.4950    0.0000 O   0  0  0  0  0  0  0  0  0  0  0  0
    3.4648   -0.0063    0.0000 N   0  0  0  0  0  0  0  0  0  0  0  0
    4.3316    0.4925    0.0000 C   0  0  0  0  0  0  0  0  0  0  0  0
    4.3301    1.4977    0.0000 C   0  0  0  0  0  0  0  0  0  0  0  0
    5.1968    1.9965    0.0000 C   0  0  0  0  0  0  0  0  0  0  0  0
    6.0651    1.5003    0.0000 C   0  0  0  0  0  0  0  0  0  0  0  0
    6.0666    0.4951    0.0000 C   0  0  0  0  0  0  0  0  0  0  0  0
    5.1999   -0.0139    0.0000 C   0  0  0  0  0  0  0  0  0  0  0  0
  1  2  1  0  0  0  0
  2  7  2  0  0  0  0
  2  3  1  0  0  0  0
  3  4  2  0  0  0  0
  4  5  1  0  0  0  0
  5  6  2  0  0  0  0
  6  7  1  0  0  0  0
  7  8  1  0  0  0  0
  8  9  1  0  0  0  0
  9 10  2  0  0  0  0
  9 11  1  0  0  0  0
 11 12  1  0  0  0  0
 12 17  1  0  0  0  0
 12 13  1  0  0  0  0
 13 14  1  0  0  0  0
 14 15  1  0  0  0  0
 15 16  1  0  0  0  0
 16 17  1  0  0  0  0
M  END
$$$$
TRY-UNI-714-11
  -OEChem-03232022352D

 17 18  0     0  0  0  0  0  0999 V2000
   -0.0000   -1.0000    0.0000 C   0  0  0  0  0  0  0  0  0  0  0  0
    0.0000    0.0000    0.0000 C   0  0  0  0  0  0  0  0  0  0  0  0
   -0.8675    0.4975    0.0000 C   0  0  0  0  0  0  0  0  0  0  0  0
   -0.8675    1.5027    0.0000 C   0  0  0  0  0  0  0  0  0  0  0  0
    0.0000    2.0104    0.0000 N   0  0  0  0  0  0  0  0  0  0  0  0
    0.8675    1.5027    0.0000 C   0  0  0  0  0  0  0  0  0  0  0  0
    0.8675    0.4975    0.0000 C   0  0  0  0  0  0  0  0  0  0  0  0
    1.7328   -0.0038    0.0000 N   0  0  0  0  0  0  0  0  0  0  0  0
    2.5995    0.4950    0.0000 C   0  0  0  0  0  0  0  0  0  0  0  0
    2.6010    1.4950    0.0000 O   0  0  0  0  0  0  0  0  0  0  0  0
    3.4648   -0.0063    0.0000 N   0  0  0  0  0  0  0  0  0  0  0  0
    4.3316    0.4925    0.0000 C   0  0  0  0  0  0  0  0  0  0  0  0
    4.3301    1.4977    0.0000 C   0  0  0  0  0  0  0  0  0  0  0  0
    5.1968    1.9965    0.0000 C   0  0  0  0  0  0  0  0  0  0  0  0
    6.0651    1.5003    0.0000 C   0  0  0  0  0  0  0  0  0  0  0  0
    6.0666    0.4951    0.0000 C   0  0  0  0  0  0  0  0  0  0  0  0
    5.1999   -0.0139    0.0000 C   0  0  0  0  0  0  0  0  0  0  0  0
  1  2  1  0  0  0  0
  2  7  2  0  0  0  0
  2  3  1  0  0  0  0
  3  4  2  0  0  0  0
  4  5  1  0  0  0  0
  5  6  2  0  0  0  0
  6  7  1  0  0  0  0
  7  8  1  0  0  0  0
  8  9  1  0  0  0  0
  9 10  2  0  0  0  0
  9 11  1  0  0  0  0
 11 12  1  0  0  0  0
 12 17  2  0  0  0  0
 12 13  1  0  0  0  0
 13 14  2  0  0  0  0
 14 15  1  0  0  0  0
 15 16  2  0  0  0  0
 16 17  1  0  0  0  0
M  END
$$$$
TRY-UNI-714-12
  -OEChem-03232022352D

 18 19  0     0  0  0  0  0  0999 V2000
   -0.0000   -1.0000    0.0000 C   0  0  0  0  0  0  0  0  0  0  0  0
    0.0000    0.0000    0.0000 C   0  0  0  0  0  0  0  0  0  0  0  0
   -0.8675    0.4975    0.0000 C   0  0  0  0  0  0  0  0  0  0  0  0
   -0.8675    1.5027    0.0000 C   0  0  0  0  0  0  0  0  0  0  0  0
    0.0000    2.0104    0.0000 N   0  0  0  0  0  0  0  0  0  0  0  0
    0.8675    1.5027    0.0000 C   0  0  0  0  0  0  0  0  0  0  0  0
    0.8675    0.4975    0.0000 C   0  0  0  0  0  0  0  0  0  0  0  0
    1.7328   -0.0038    0.0000 N   0  0  0  0  0  0  0  0  0  0  0  0
    2.5995    0.4950    0.0000 C   0  0  0  0  0  0  0  0  0  0  0  0
    2.6010    1.4950    0.0000 O   0  0  0  0  0  0  0  0  0  0  0  0
    3.4648   -0.0063    0.0000 N   0  0  0  0  0  0  0  0  0  0  0  0
    4.3316    0.4925    0.0000 C   0  0  0  0  0  0  0  0  0  0  0  0
    5.1999   -0.0140    0.0000 C   0  0  0  0  0  0  0  0  0  0  0  0
    6.0667    0.4848    0.0000 C   0  0  0  0  0  0  0  0  0  0  0  0
    6.0740    1.4848    0.0000 C   0  0  0  0  0  0  0  0  0  0  0  0
    5.2057    1.9912    0.0000 C   0  0  0  0  0  0  0  0  0  0  0  0
    5.2131    2.9912    0.0000 Cl  0  0  0  0  0  0  0  0  0  0  0  0
    4.3301    1.4976    0.0000 C   0  0  0  0  0  0  0  0  0  0  0  0
  1  2  1  0  0  0  0
  2  7  2  0  0  0  0
  2  3  1  0  0  0  0
  3  4  2  0  0  0  0
  4  5  1  0  0  0  0
  5  6  2  0  0  0  0
  6  7  1  0  0  0  0
  7  8  1  0  0  0  0
  8  9  1  0  0  0  0
  9 10  2  0  0  0  0
  9 11  1  0  0  0  0
 11 12  1  0  0  0  0
 12 18  2  0  0  0  0
 12 13  1  0  0  0  0
 13 14  2  0  0  0  0
 14 15  1  0  0  0  0
 15 16  2  0  0  0  0
 16 17  1  0  0  0  0
 16 18  1  0  0  0  0
M  END
$$$$
TRY-UNI-714-13
  -OEChem-03232022352D

 19 20  0     1  0  0  0  0  0999 V2000
   -0.0000   -1.0000    0.0000 C   0  0  0  0  0  0  0  0  0  0  0  0
    0.0000    0.0000    0.0000 C   0  0  0  0  0  0  0  0  0  0  0  0
   -0.8675    0.4975    0.0000 C   0  0  0  0  0  0  0  0  0  0  0  0
   -1.7328   -0.0038    0.0000 N   0  0  0  0  0  0  0  0  0  0  0  0
   -0.8675    1.5027    0.0000 C   0  0  0  0  0  0  0  0  0  0  0  0
    0.0000    2.0104    0.0000 N   0  0  0  0  0  0  0  0  0  0  0  0
    0.8675    1.5027    0.0000 C   0  0  0  0  0  0  0  0  0  0  0  0
    0.8675    0.4975    0.0000 C   0  0  0  0  0  0  0  0  0  0  0  0
    1.7328   -0.0038    0.0000 N   0  0  0  0  0  0  0  0  0  0  0  0
    2.5995    0.4950    0.0000 C   0  0  0  0  0  0  0  0  0  0  0  0
    2.6010    1.4950    0.0000 O   0  0  0  0  0  0  0  0  0  0  0  0
    3.4648   -0.0063    0.0000 C   0  0  3  0  0  0  0  0  0  0  0  0
    3.4634   -1.0063    0.0000 C   0  0  0  0  0  0  0  0  0  0  0  0
    4.3316    0.4925    0.0000 C   0  0  0  0  0  0  0  0  0  0  0  0
    4.3301    1.4977    0.0000 C   0  0  0  0  0  0  0  0  0  0  0  0
    5.1968    1.9965    0.0000 C   0  0  0  0  0  0  0  0  0  0  0  0
    6.0651    1.5003    0.0000 C   0  0  0  0  0  0  0  0  0  0  0  0
    6.0666    0.4951    0.0000 C   0  0  0  0  0  0  0  0  0  0  0  0
    5.1999   -0.0139    0.0000 C   0  0  0  0  0  0  0  0  0  0  0  0
  1  2  1  0  0  0  0
  2  8  2  0  0  0  0
  2  3  1  0  0  0  0
  3  4  1  0  0  0  0
  3  5  2  0  0  0  0
  5  6  1  0  0  0  0
  6  7  2  0  0  0  0
  7  8  1  0  0  0  0
  8  9  1  0  0  0  0
  9 10  1  0  0  0  0
 10 11  2  0  0  0  0
 10 12  1  0  0  0  0
 12 13  1  0  0  0  0
 12 14  1  0  0  0  0
 14 19  1  0  0  0  0
 14 15  1  0  0  0  0
 15 16  1  0  0  0  0
 16 17  1  0  0  0  0
 17 18  1  0  0  0  0
 18 19  1  0  0  0  0
M  END
$$$$
TRY-UNI-714-14
  -OEChem-03232022352D

 19 20  0     1  0  0  0  0  0999 V2000
   -0.0000   -1.0000    0.0000 C   0  0  0  0  0  0  0  0  0  0  0  0
    0.0000    0.0000    0.0000 C   0  0  0  0  0  0  0  0  0  0  0  0
   -0.8675    0.4975    0.0000 C   0  0  0  0  0  0  0  0  0  0  0  0
   -1.7328   -0.0038    0.0000 N   0  0  0  0  0  0  0  0  0  0  0  0
   -0.8675    1.5027    0.0000 C   0  0  0  0  0  0  0  0  0  0  0  0
    0.0000    2.0104    0.0000 N   0  0  0  0  0  0  0  0  0  0  0  0
    0.8675    1.5027    0.0000 C   0  0  0  0  0  0  0  0  0  0  0  0
    0.8675    0.4975    0.0000 C   0  0  0  0  0  0  0  0  0  0  0  0
    1.7328   -0.0038    0.0000 N   0  0  0  0  0  0  0  0  0  0  0  0
    2.5995    0.4950    0.0000 C   0  0  0  0  0  0  0  0  0  0  0  0
    2.6010    1.4950    0.0000 O   0  0  0  0  0  0  0  0  0  0  0  0
    3.4648   -0.0063    0.0000 C   0  0  3  0  0  0  0  0  0  0  0  0
    3.4634   -1.0063    0.0000 C   0  0  0  0  0  0  0  0  0  0  0  0
    4.3316    0.4925    0.0000 C   0  0  0  0  0  0  0  0  0  0  0  0
    4.3301    1.4977    0.0000 C   0  0  0  0  0  0  0  0  0  0  0  0
    5.1968    1.9965    0.0000 C   0  0  0  0  0  0  0  0  0  0  0  0
    6.0651    1.5003    0.0000 C   0  0  0  0  0  0  0  0  0  0  0  0
    6.0666    0.4951    0.0000 C   0  0  0  0  0  0  0  0  0  0  0  0
    5.1999   -0.0139    0.0000 C   0  0  0  0  0  0  0  0  0  0  0  0
  1  2  1  0  0  0  0
  2  8  2  0  0  0  0
  2  3  1  0  0  0  0
  3  4  1  0  0  0  0
  3  5  2  0  0  0  0
  5  6  1  0  0  0  0
  6  7  2  0  0  0  0
  7  8  1  0  0  0  0
  8  9  1  0  0  0  0
  9 10  1  0  0  0  0
 10 11  2  0  0  0  0
 10 12  1  0  0  0  0
 12 13  1  0  0  0  0
 12 14  1  0  0  0  0
 14 19  2  0  0  0  0
 14 15  1  0  0  0  0
 15 16  2  0  0  0  0
 16 17  1  0  0  0  0
 17 18  2  0  0  0  0
 18 19  1  0  0  0  0
M  END
$$$$
TRY-UNI-714-15
  -OEChem-03232022352D

 20 21  0     1  0  0  0  0  0999 V2000
   -0.0000   -1.0000    0.0000 C   0  0  0  0  0  0  0  0  0  0  0  0
    0.0000    0.0000    0.0000 C   0  0  0  0  0  0  0  0  0  0  0  0
   -0.8675    0.4975    0.0000 C   0  0  0  0  0  0  0  0  0  0  0  0
   -1.7328   -0.0038    0.0000 N   0  0  0  0  0  0  0  0  0  0  0  0
   -0.8675    1.5027    0.0000 C   0  0  0  0  0  0  0  0  0  0  0  0
    0.0000    2.0104    0.0000 N   0  0  0  0  0  0  0  0  0  0  0  0
    0.8675    1.5027    0.0000 C   0  0  0  0  0  0  0  0  0  0  0  0
    0.8675    0.4975    0.0000 C   0  0  0  0  0  0  0  0  0  0  0  0
    1.7328   -0.0038    0.0000 N   0  0  0  0  0  0  0  0  0  0  0  0
    2.5995    0.4950    0.0000 C   0  0  0  0  0  0  0  0  0  0  0  0
    2.6010    1.4950    0.0000 O   0  0  0  0  0  0  0  0  0  0  0  0
    3.4648   -0.0063    0.0000 C   0  0  3  0  0  0  0  0  0  0  0  0
    3.4634   -1.0063    0.0000 C   0  0  0  0  0  0  0  0  0  0  0  0
    4.3316    0.4925    0.0000 C   0  0  0  0  0  0  0  0  0  0  0  0
    5.1999   -0.0140    0.0000 C   0  0  0  0  0  0  0  0  0  0  0  0
    6.0667    0.4848    0.0000 C   0  0  0  0  0  0  0  0  0  0  0  0
    6.0740    1.4848    0.0000 C   0  0  0  0  0  0  0  0  0  0  0  0
    5.2057    1.9912    0.0000 C   0  0  0  0  0  0  0  0  0  0  0  0
    5.2131    2.9912    0.0000 Cl  0  0  0  0  0  0  0  0  0  0  0  0
    4.3301    1.4976    0.0000 C   0  0  0  0  0  0  0  0  0  0  0  0
  1  2  1  0  0  0  0
  2  8  2  0  0  0  0
  2  3  1  0  0  0  0
  3  4  1  0  0  0  0
  3  5  2  0  0  0  0
  5  6  1  0  0  0  0
  6  7  2  0  0  0  0
  7  8  1  0  0  0  0
  8  9  1  0  0  0  0
  9 10  1  0  0  0  0
 10 11  2  0  0  0  0
 10 12  1  0  0  0  0
 12 13  1  0  0  0  0
 12 14  1  0  0  0  0
 14 20  2  0  0  0  0
 14 15  1  0  0  0  0
 15 16  2  0  0  0  0
 16 17  1  0  0  0  0
 17 18  2  0  0  0  0
 18 19  1  0  0  0  0
 18 20  1  0  0  0  0
M  END
$$$$
TRY-UNI-714-16
  -OEChem-03232022352D

 18 19  0     1  0  0  0  0  0999 V2000
   -0.0000   -1.0000    0.0000 C   0  0  0  0  0  0  0  0  0  0  0  0
    0.0000    0.0000    0.0000 C   0  0  0  0  0  0  0  0  0  0  0  0
   -0.8675    0.4975    0.0000 C   0  0  0  0  0  0  0  0  0  0  0  0
   -0.8675    1.5027    0.0000 C   0  0  0  0  0  0  0  0  0  0  0  0
    0.0000    2.0104    0.0000 N   0  0  0  0  0  0  0  0  0  0  0  0
    0.8675    1.5027    0.0000 C   0  0  0  0  0  0  0  0  0  0  0  0
    0.8675    0.4975    0.0000 C   0  0  0  0  0  0  0  0  0  0  0  0
    1.7328   -0.0038    0.0000 N   0  0  0  0  0  0  0  0  0  0  0  0
    2.5995    0.4950    0.0000 C   0  0  0  0  0  0  0  0  0  0  0  0
    2.6010    1.4950    0.0000 O   0  0  0  0  0  0  0  0  0  0  0  0
    3.4648   -0.0063    0.0000 C   0  0  3  0  0  0  0  0  0  0  0  0
    3.4634   -1.0063    0.0000 C   0  0  0  0  0  0  0  0  0  0  0  0
    4.3316    0.4925    0.0000 C   0  0  0  0  0  0  0  0  0  0  0  0
    4.3301    1.4977    0.0000 C   0  0  0  0  0  0  0  0  0  0  0  0
    5.1968    1.9965    0.0000 C   0  0  0  0  0  0  0  0  0  0  0  0
    6.0651    1.5003    0.0000 C   0  0  0  0  0  0  0  0  0  0  0  0
    6.0666    0.4951    0.0000 C   0  0  0  0  0  0  0  0  0  0  0  0
    5.1999   -0.0139    0.0000 C   0  0  0  0  0  0  0  0  0  0  0  0
  1  2  1  0  0  0  0
  2  7  2  0  0  0  0
  2  3  1  0  0  0  0
  3  4  2  0  0  0  0
  4  5  1  0  0  0  0
  5  6  2  0  0  0  0
  6  7  1  0  0  0  0
  7  8  1  0  0  0  0
  8  9  1  0  0  0  0
  9 10  2  0  0  0  0
  9 11  1  0  0  0  0
 11 12  1  0  0  0  0
 11 13  1  0  0  0  0
 13 18  1  0  0  0  0
 13 14  1  0  0  0  0
 14 15  1  0  0  0  0
 15 16  1  0  0  0  0
 16 17  1  0  0  0  0
 17 18  1  0  0  0  0
M  END
$$$$
TRY-UNI-714-17
  -OEChem-03232022352D

 18 19  0     1  0  0  0  0  0999 V2000
   -0.0000   -1.0000    0.0000 C   0  0  0  0  0  0  0  0  0  0  0  0
    0.0000    0.0000    0.0000 C   0  0  0  0  0  0  0  0  0  0  0  0
   -0.8675    0.4975    0.0000 C   0  0  0  0  0  0  0  0  0  0  0  0
   -0.8675    1.5027    0.0000 C   0  0  0  0  0  0  0  0  0  0  0  0
    0.0000    2.0104    0.0000 N   0  0  0  0  0  0  0  0  0  0  0  0
    0.8675    1.5027    0.0000 C   0  0  0  0  0  0  0  0  0  0  0  0
    0.8675    0.4975    0.0000 C   0  0  0  0  0  0  0  0  0  0  0  0
    1.7328   -0.0038    0.0000 N   0  0  0  0  0  0  0  0  0  0  0  0
    2.5995    0.4950    0.0000 C   0  0  0  0  0  0  0  0  0  0  0  0
    2.6010    1.4950    0.0000 O   0  0  0  0  0  0  0  0  0  0  0  0
    3.4648   -0.0063    0.0000 C   0  0  3  0  0  0  0  0  0  0  0  0
    3.4634   -1.0063    0.0000 C   0  0  0  0  0  0  0  0  0  0  0  0
    4.3316    0.4925    0.0000 C   0  0  0  0  0  0  0  0  0  0  0  0
    4.3301    1.4977    0.0000 C   0  0  0  0  0  0  0  0  0  0  0  0
    5.1968    1.9965    0.0000 C   0  0  0  0  0  0  0  0  0  0  0  0
    6.0651    1.5003    0.0000 C   0  0  0  0  0  0  0  0  0  0  0  0
    6.0666    0.4951    0.0000 C   0  0  0  0  0  0  0  0  0  0  0  0
    5.1999   -0.0139    0.0000 C   0  0  0  0  0  0  0  0  0  0  0  0
  1  2  1  0  0  0  0
  2  7  2  0  0  0  0
  2  3  1  0  0  0  0
  3  4  2  0  0  0  0
  4  5  1  0  0  0  0
  5  6  2  0  0  0  0
  6  7  1  0  0  0  0
  7  8  1  0  0  0  0
  8  9  1  0  0  0  0
  9 10  2  0  0  0  0
  9 11  1  0  0  0  0
 11 12  1  0  0  0  0
 11 13  1  0  0  0  0
 13 18  2  0  0  0  0
 13 14  1  0  0  0  0
 14 15  2  0  0  0  0
 15 16  1  0  0  0  0
 16 17  2  0  0  0  0
 17 18  1  0  0  0  0
M  END
$$$$
TRY-UNI-714-18
  -OEChem-03232022352D

 19 20  0     1  0  0  0  0  0999 V2000
   -0.0000   -1.0000    0.0000 C   0  0  0  0  0  0  0  0  0  0  0  0
    0.0000    0.0000    0.0000 C   0  0  0  0  0  0  0  0  0  0  0  0
   -0.8675    0.4975    0.0000 C   0  0  0  0  0  0  0  0  0  0  0  0
   -0.8675    1.5027    0.0000 C   0  0  0  0  0  0  0  0  0  0  0  0
    0.0000    2.0104    0.0000 N   0  0  0  0  0  0  0  0  0  0  0  0
    0.8675    1.5027    0.0000 C   0  0  0  0  0  0  0  0  0  0  0  0
    0.8675    0.4975    0.0000 C   0  0  0  0  0  0  0  0  0  0  0  0
    1.7328   -0.0038    0.0000 N   0  0  0  0  0  0  0  0  0  0  0  0
    2.5995    0.4950    0.0000 C   0  0  0  0  0  0  0  0  0  0  0  0
    2.6010    1.4950    0.0000 O   0  0  0  0  0  0  0  0  0  0  0  0
    3.4648   -0.0063    0.0000 C   0  0  3  0  0  0  0  0  0  0  0  0
    3.4634   -1.0063    0.0000 C   0  0  0  0  0  0  0  0  0  0  0  0
    4.3316    0.4925    0.0000 C   0  0  0  0  0  0  0  0  0  0  0  0
    5.1999   -0.0140    0.0000 C   0  0  0  0  0  0  0  0  0  0  0  0
    6.0667    0.4848    0.0000 C   0  0  0  0  0  0  0  0  0  0  0  0
    6.0740    1.4848    0.0000 C   0  0  0  0  0  0  0  0  0  0  0  0
    5.2057    1.9912    0.0000 C   0  0  0  0  0  0  0  0  0  0  0  0
    5.2131    2.9912    0.0000 Cl  0  0  0  0  0  0  0  0  0  0  0  0
    4.3301    1.4976    0.0000 C   0  0  0  0  0  0  0  0  0  0  0  0
  1  2  1  0  0  0  0
  2  7  2  0  0  0  0
  2  3  1  0  0  0  0
  3  4  2  0  0  0  0
  4  5  1  0  0  0  0
  5  6  2  0  0  0  0
  6  7  1  0  0  0  0
  7  8  1  0  0  0  0
  8  9  1  0  0  0  0
  9 10  2  0  0  0  0
  9 11  1  0  0  0  0
 11 12  1  0  0  0  0
 11 13  1  0  0  0  0
 13 19  2  0  0  0  0
 13 14  1  0  0  0  0
 14 15  2  0  0  0  0
 15 16  1  0  0  0  0
 16 17  2  0  0  0  0
 17 18  1  0  0  0  0
 17 19  1  0  0  0  0
M  END
$$$$
TRY-UNI-714-19
  -OEChem-03232022352D

 20 21  0     0  0  0  0  0  0999 V2000
   -0.0000   -1.0000    0.0000 C   0  0  0  0  0  0  0  0  0  0  0  0
    0.0000    0.0000    0.0000 C   0  0  0  0  0  0  0  0  0  0  0  0
   -0.8675    0.4975    0.0000 C   0  0  0  0  0  0  0  0  0  0  0  0
   -1.7328   -0.0038    0.0000 N   0  0  0  0  0  0  0  0  0  0  0  0
   -0.8675    1.5027    0.0000 C   0  0  0  0  0  0  0  0  0  0  0  0
    0.0000    2.0104    0.0000 N   0  0  0  0  0  0  0  0  0  0  0  0
    0.8675    1.5027    0.0000 C   0  0  0  0  0  0  0  0  0  0  0  0
    0.8675    0.4975    0.0000 C   0  0  0  0  0  0  0  0  0  0  0  0
    1.7328   -0.0038    0.0000 N   0  0  0  0  0  0  0  0  0  0  0  0
    2.5995    0.4950    0.0000 C   0  0  0  0  0  0  0  0  0  0  0  0
    2.6010    1.4950    0.0000 O   0  0  0  0  0  0  0  0  0  0  0  0
    3.4648   -0.0063    0.0000 C   0  0  0  0  0  0  0  0  0  0  0  0
    4.3316    0.4925    0.0000 C   0  0  0  0  0  0  0  0  0  0  0  0
    5.1999   -0.0140    0.0000 C   0  0  0  0  0  0  0  0  0  0  0  0
    6.0667    0.4848    0.0000 C   0  0  0  0  0  0  0  0  0  0  0  0
    6.0740    1.4848    0.0000 C   0  0  0  0  0  0  0  0  0  0  0  0
    5.2057    1.9912    0.0000 C   0  0  0  0  0  0  0  0  0  0  0  0
    5.2131    2.9912    0.0000 C   0  0  0  0  0  0  0  0  0  0  0  0
    5.2204    3.9911    0.0000 N   0  0  0  0  0  0  0  0  0  0  0  0
    4.3301    1.4976    0.0000 C   0  0  0  0  0  0  0  0  0  0  0  0
  1  2  1  0  0  0  0
  2  8  2  0  0  0  0
  2  3  1  0  0  0  0
  3  4  1  0  0  0  0
  3  5  2  0  0  0  0
  5  6  1  0  0  0  0
  6  7  2  0  0  0  0
  7  8  1  0  0  0  0
  8  9  1  0  0  0  0
  9 10  1  0  0  0  0
 10 11  2  0  0  0  0
 10 12  1  0  0  0  0
 12 13  1  0  0  0  0
 13 20  2  0  0  0  0
 13 14  1  0  0  0  0
 14 15  2  0  0  0  0
 15 16  1  0  0  0  0
 16 17  2  0  0  0  0
 17 18  1  0  0  0  0
 18 19  3  0  0  0  0
 17 20  1  0  0  0  0
M  END
$$$$
TRY-UNI-714-20
  -OEChem-03232022352D

 19 20  0     0  0  0  0  0  0999 V2000
   -0.0000   -1.0000    0.0000 C   0  0  0  0  0  0  0  0  0  0  0  0
    0.0000    0.0000    0.0000 C   0  0  0  0  0  0  0  0  0  0  0  0
   -0.8675    0.4975    0.0000 C   0  0  0  0  0  0  0  0  0  0  0  0
   -0.8675    1.5027    0.0000 C   0  0  0  0  0  0  0  0  0  0  0  0
    0.0000    2.0104    0.0000 N   0  0  0  0  0  0  0  0  0  0  0  0
    0.8675    1.5027    0.0000 C   0  0  0  0  0  0  0  0  0  0  0  0
    0.8675    0.4975    0.0000 C   0  0  0  0  0  0  0  0  0  0  0  0
    1.7328   -0.0038    0.0000 N   0  0  0  0  0  0  0  0  0  0  0  0
    2.5995    0.4950    0.0000 C   0  0  0  0  0  0  0  0  0  0  0  0
    2.6010    1.4950    0.0000 O   0  0  0  0  0  0  0  0  0  0  0  0
    3.4648   -0.0063    0.0000 C   0  0  0  0  0  0  0  0  0  0  0  0
    4.3316    0.4925    0.0000 C   0  0  0  0  0  0  0  0  0  0  0  0
    5.1999   -0.0140    0.0000 C   0  0  0  0  0  0  0  0  0  0  0  0
    6.0667    0.4848    0.0000 C   0  0  0  0  0  0  0  0  0  0  0  0
    6.0740    1.4848    0.0000 C   0  0  0  0  0  0  0  0  0  0  0  0
    5.2057    1.9912    0.0000 C   0  0  0  0  0  0  0  0  0  0  0  0
    5.2131    2.9912    0.0000 C   0  0  0  0  0  0  0  0  0  0  0  0
    5.2204    3.9911    0.0000 N   0  0  0  0  0  0  0  0  0  0  0  0
    4.3301    1.4976    0.0000 C   0  0  0  0  0  0  0  0  0  0  0  0
  1  2  1  0  0  0  0
  2  7  2  0  0  0  0
  2  3  1  0  0  0  0
  3  4  2  0  0  0  0
  4  5  1  0  0  0  0
  5  6  2  0  0  0  0
  6  7  1  0  0  0  0
  7  8  1  0  0  0  0
  8  9  1  0  0  0  0
  9 10  2  0  0  0  0
  9 11  1  0  0  0  0
 11 12  1  0  0  0  0
 12 19  2  0  0  0  0
 12 13  1  0  0  0  0
 13 14  2  0  0  0  0
 14 15  1  0  0  0  0
 15 16  2  0  0  0  0
 16 17  1  0  0  0  0
 17 18  3  0  0  0  0
 16 19  1  0  0  0  0
M  END
$$$$
TRY-UNI-714-21
  -OEChem-03232022352D

 21 22  0     1  0  0  0  0  0999 V2000
   -0.0000   -1.0000    0.0000 C   0  0  0  0  0  0  0  0  0  0  0  0
    0.0000    0.0000    0.0000 C   0  0  0  0  0  0  0  0  0  0  0  0
   -0.8675    0.4975    0.0000 C   0  0  0  0  0  0  0  0  0  0  0  0
   -1.7328   -0.0038    0.0000 N   0  0  0  0  0  0  0  0  0  0  0  0
   -0.8675    1.5027    0.0000 C   0  0  0  0  0  0  0  0  0  0  0  0
    0.0000    2.0104    0.0000 N   0  0  0  0  0  0  0  0  0  0  0  0
    0.8675    1.5027    0.0000 C   0  0  0  0  0  0  0  0  0  0  0  0
    0.8675    0.4975    0.0000 C   0  0  0  0  0  0  0  0  0  0  0  0
    1.7328   -0.0038    0.0000 N   0  0  0  0  0  0  0  0  0  0  0  0
    2.5995    0.4950    0.0000 C   0  0  0  0  0  0  0  0  0  0  0  0
    2.6010    1.4950    0.0000 O   0  0  0  0  0  0  0  0  0  0  0  0
    3.4648   -0.0063    0.0000 C   0  0  3  0  0  0  0  0  0  0  0  0
    3.4634   -1.0063    0.0000 C   0  0  0  0  0  0  0  0  0  0  0  0
    4.3316    0.4925    0.0000 C   0  0  0  0  0  0  0  0  0  0  0  0
    5.1999   -0.0140    0.0000 C   0  0  0  0  0  0  0  0  0  0  0  0
    6.0667    0.4848    0.0000 C   0  0  0  0  0  0  0  0  0  0  0  0
    6.0740    1.4848    0.0000 C   0  0  0  0  0  0  0  0  0  0  0  0
    5.2057    1.9912    0.0000 C   0  0  0  0  0  0  0  0  0  0  0  0
    5.2131    2.9912    0.0000 C   0  0  0  0  0  0  0  0  0  0  0  0
    5.2204    3.9911    0.0000 N   0  0  0  0  0  0  0  0  0  0  0  0
    4.3301    1.4976    0.0000 C   0  0  0  0  0  0  0  0  0  0  0  0
  1  2  1  0  0  0  0
  2  8  2  0  0  0  0
  2  3  1  0  0  0  0
  3  4  1  0  0  0  0
  3  5  2  0  0  0  0
  5  6  1  0  0  0  0
  6  7  2  0  0  0  0
  7  8  1  0  0  0  0
  8  9  1  0  0  0  0
  9 10  1  0  0  0  0
 10 11  2  0  0  0  0
 10 12  1  0  0  0  0
 12 13  1  0  0  0  0
 12 14  1  0  0  0  0
 14 21  2  0  0  0  0
 14 15  1  0  0  0  0
 15 16  2  0  0  0  0
 16 17  1  0  0  0  0
 17 18  2  0  0  0  0
 18 19  1  0  0  0  0
 19 20  3  0  0  0  0
 18 21  1  0  0  0  0
M  END
$$$$
TRY-UNI-714-22
  -OEChem-03232022352D

 20 21  0     1  0  0  0  0  0999 V2000
   -0.0000   -1.0000    0.0000 C   0  0  0  0  0  0  0  0  0  0  0  0
    0.0000    0.0000    0.0000 C   0  0  0  0  0  0  0  0  0  0  0  0
   -0.8675    0.4975    0.0000 C   0  0  0  0  0  0  0  0  0  0  0  0
   -0.8675    1.5027    0.0000 C   0  0  0  0  0  0  0  0  0  0  0  0
    0.0000    2.0104    0.0000 N   0  0  0  0  0  0  0  0  0  0  0  0
    0.8675    1.5027    0.0000 C   0  0  0  0  0  0  0  0  0  0  0  0
    0.8675    0.4975    0.0000 C   0  0  0  0  0  0  0  0  0  0  0  0
    1.7328   -0.0038    0.0000 N   0  0  0  0  0  0  0  0  0  0  0  0
    2.5995    0.4950    0.0000 C   0  0  0  0  0  0  0  0  0  0  0  0
    2.6010    1.4950    0.0000 O   0  0  0  0  0  0  0  0  0  0  0  0
    3.4648   -0.0063    0.0000 C   0  0  3  0  0  0  0  0  0  0  0  0
    3.4634   -1.0063    0.0000 C   0  0  0  0  0  0  0  0  0  0  0  0
    4.3316    0.4925    0.0000 C   0  0  0  0  0  0  0  0  0  0  0  0
    5.1999   -0.0140    0.0000 C   0  0  0  0  0  0  0  0  0  0  0  0
    6.0667    0.4848    0.0000 C   0  0  0  0  0  0  0  0  0  0  0  0
    6.0740    1.4848    0.0000 C   0  0  0  0  0  0  0  0  0  0  0  0
    5.2057    1.9912    0.0000 C   0  0  0  0  0  0  0  0  0  0  0  0
    5.2131    2.9912    0.0000 C   0  0  0  0  0  0  0  0  0  0  0  0
    5.2204    3.9911    0.0000 N   0  0  0  0  0  0  0  0  0  0  0  0
    4.3301    1.4976    0.0000 C   0  0  0  0  0  0  0  0  0  0  0  0
  1  2  1  0  0  0  0
  2  7  2  0  0  0  0
  2  3  1  0  0  0  0
  3  4  2  0  0  0  0
  4  5  1  0  0  0  0
  5  6  2  0  0  0  0
  6  7  1  0  0  0  0
  7  8  1  0  0  0  0
  8  9  1  0  0  0  0
  9 10  2  0  0  0  0
  9 11  1  0  0  0  0
 11 12  1  0  0  0  0
 11 13  1  0  0  0  0
 13 20  2  0  0  0  0
 13 14  1  0  0  0  0
 14 15  2  0  0  0  0
 15 16  1  0  0  0  0
 16 17  2  0  0  0  0
 17 18  1  0  0  0  0
 18 19  3  0  0  0  0
 17 20  1  0  0  0  0
M  END
$$$$
TRY-UNI-714-23
  -OEChem-03232022352D

 20 21  0     0  0  0  0  0  0999 V2000
   -0.0000   -1.0000    0.0000 C   0  0  0  0  0  0  0  0  0  0  0  0
    0.0000    0.0000    0.0000 C   0  0  0  0  0  0  0  0  0  0  0  0
   -0.8675    0.4975    0.0000 C   0  0  0  0  0  0  0  0  0  0  0  0
   -1.7328   -0.0038    0.0000 N   0  0  0  0  0  0  0  0  0  0  0  0
   -0.8675    1.5027    0.0000 C   0  0  0  0  0  0  0  0  0  0  0  0
    0.0000    2.0104    0.0000 N   0  0  0  0  0  0  0  0  0  0  0  0
    0.8675    1.5027    0.0000 C   0  0  0  0  0  0  0  0  0  0  0  0
    0.8675    0.4975    0.0000 C   0  0  0  0  0  0  0  0  0  0  0  0
    1.7328   -0.0038    0.0000 N   0  0  0  0  0  0  0  0  0  0  0  0
    2.5995    0.4950    0.0000 C   0  0  0  0  0  0  0  0  0  0  0  0
    2.6010    1.4950    0.0000 O   0  0  0  0  0  0  0  0  0  0  0  0
    3.4648   -0.0063    0.0000 N   0  0  0  0  0  0  0  0  0  0  0  0
    4.3316    0.4925    0.0000 C   0  0  0  0  0  0  0  0  0  0  0  0
    5.1999   -0.0140    0.0000 C   0  0  0  0  0  0  0  0  0  0  0  0
    6.0667    0.4848    0.0000 C   0  0  0  0  0  0  0  0  0  0  0  0
    6.0740    1.4848    0.0000 C   0  0  0  0  0  0  0  0  0  0  0  0
    5.2057    1.9912    0.0000 C   0  0  0  0  0  0  0  0  0  0  0  0
    5.2131    2.9912    0.0000 C   0  0  0  0  0  0  0  0  0  0  0  0
    5.2204    3.9911    0.0000 N   0  0  0  0  0  0  0  0  0  0  0  0
    4.3301    1.4976    0.0000 C   0  0  0  0  0  0  0  0  0  0  0  0
  1  2  1  0  0  0  0
  2  8  2  0  0  0  0
  2  3  1  0  0  0  0
  3  4  1  0  0  0  0
  3  5  2  0  0  0  0
  5  6  1  0  0  0  0
  6  7  2  0  0  0  0
  7  8  1  0  0  0  0
  8  9  1  0  0  0  0
  9 10  1  0  0  0  0
 10 11  2  0  0  0  0
 10 12  1  0  0  0  0
 12 13  1  0  0  0  0
 13 20  2  0  0  0  0
 13 14  1  0  0  0  0
 14 15  2  0  0  0  0
 15 16  1  0  0  0  0
 16 17  2  0  0  0  0
 17 18  1  0  0  0  0
 18 19  3  0  0  0  0
 17 20  1  0  0  0  0
M  END
$$$$
TRY-UNI-714-24
  -OEChem-03232022352D

 19 20  0     0  0  0  0  0  0999 V2000
   -0.0000   -1.0000    0.0000 C   0  0  0  0  0  0  0  0  0  0  0  0
    0.0000    0.0000    0.0000 C   0  0  0  0  0  0  0  0  0  0  0  0
   -0.8675    0.4975    0.0000 C   0  0  0  0  0  0  0  0  0  0  0  0
   -0.8675    1.5027    0.0000 C   0  0  0  0  0  0  0  0  0  0  0  0
    0.0000    2.0104    0.0000 N   0  0  0  0  0  0  0  0  0  0  0  0
    0.8675    1.5027    0.0000 C   0  0  0  0  0  0  0  0  0  0  0  0
    0.8675    0.4975    0.0000 C   0  0  0  0  0  0  0  0  0  0  0  0
    1.7328   -0.0038    0.0000 N   0  0  0  0  0  0  0  0  0  0  0  0
    2.5995    0.4950    0.0000 C   0  0  0  0  0  0  0  0  0  0  0  0
    2.6010    1.4950    0.0000 O   0  0  0  0  0  0  0  0  0  0  0  0
    3.4648   -0.0063    0.0000 N   0  0  0  0  0  0  0  0  0  0  0  0
    4.3316    0.4925    0.0000 C   0  0  0  0  0  0  0  0  0  0  0  0
    5.1999   -0.0140    0.0000 C   0  0  0  0  0  0  0  0  0  0  0  0
    6.0667    0.4848    0.0000 C   0  0  0  0  0  0  0  0  0  0  0  0
    6.0740    1.4848    0.0000 C   0  0  0  0  0  0  0  0  0  0  0  0
    5.2057    1.9912    0.0000 C   0  0  0  0  0  0  0  0  0  0  0  0
    5.2131    2.9912    0.0000 C   0  0  0  0  0  0  0  0  0  0  0  0
    5.2204    3.9911    0.0000 N   0  0  0  0  0  0  0  0  0  0  0  0
    4.3301    1.4976    0.0000 C   0  0  0  0  0  0  0  0  0  0  0  0
  1  2  1  0  0  0  0
  2  7  2  0  0  0  0
  2  3  1  0  0  0  0
  3  4  2  0  0  0  0
  4  5  1  0  0  0  0
  5  6  2  0  0  0  0
  6  7  1  0  0  0  0
  7  8  1  0  0  0  0
  8  9  1  0  0  0  0
  9 10  2  0  0  0  0
  9 11  1  0  0  0  0
 11 12  1  0  0  0  0
 12 19  2  0  0  0  0
 12 13  1  0  0  0  0
 13 14  2  0  0  0  0
 14 15  1  0  0  0  0
 15 16  2  0  0  0  0
 16 17  1  0  0  0  0
 17 18  3  0  0  0  0
 16 19  1  0  0  0  0
M  END
$$$$
CHR-SOS-70e-1
  -OEChem-03232022352D

 23 25  0     0  0  0  0  0  0999 V2000
    2.6010    1.4950    0.0000 O   0  0  0  0  0  0  0  0  0  0  0  0
    2.5995    0.4950    0.0000 C   0  0  0  0  0  0  0  0  0  0  0  0
    3.4648   -0.0063    0.0000 C   0  0  0  0  0  0  0  0  0  0  0  0
    4.3316    0.4925    0.0000 C   0  0  0  0  0  0  0  0  0  0  0  0
    4.6704   -0.4484    0.0000 O   0  0  0  0  0  0  0  0  0  0  0  0
    4.0250   -1.2122    0.0000 C   0  0  0  0  0  0  0  0  0  0  0  0
    3.0362   -1.0314    0.0000 C   0  0  0  0  0  0  0  0  0  0  0  0
    2.3907   -1.7952    0.0000 C   0  0  0  0  0  0  0  0  0  0  0  0
    2.7241   -2.7381    0.0000 C   0  0  0  0  0  0  0  0  0  0  0  0
    3.7128   -2.9189    0.0000 C   0  0  0  0  0  0  0  0  0  0  0  0
    4.3683   -2.1569    0.0000 C   0  0  0  0  0  0  0  0  0  0  0  0
    5.3225    0.6617    0.0000 C   0  0  0  0  0  0  0  0  0  0  0  0
    5.6668    1.6006    0.0000 C   0  0  0  0  0  0  0  0  0  0  0  0
    5.0304    2.3719    0.0000 C   0  0  0  0  0  0  0  0  0  0  0  0
    4.0395    2.2027    0.0000 C   0  0  0  0  0  0  0  0  0  0  0  0
    3.6851    1.2621    0.0000 C   0  0  0  0  0  0  0  0  0  0  0  0
    1.7328   -0.0038    0.0000 N   0  0  0  0  0  0  0  0  0  0  0  0
    0.8675    0.4975    0.0000 C   0  0  0  0  0  0  0  0  0  0  0  0
    0.0000    0.0000    0.0000 C   0  0  0  0  0  0  0  0  0  0  0  0
   -0.8675    0.4975    0.0000 C   0  0  0  0  0  0  0  0  0  0  0  0
   -0.8675    1.5027    0.0000 C   0  0  0  0  0  0  0  0  0  0  0  0
    0.0000    2.0104    0.0000 N   0  0  0  0  0  0  0  0  0  0  0  0
    0.8675    1.5027    0.0000 C   0  0  0  0  0  0  0  0  0  0  0  0
  1  2  2  0  0  0  0
  2  3  1  0  0  0  0
  3  4  1  0  0  0  0
  4 16  1  0  0  0  0
  4  5  1  0  0  0  0
  5  6  1  0  0  0  0
  6 11  2  0  0  0  0
  6  7  1  0  0  0  0
  7  8  2  0  0  0  0
  8  9  1  0  0  0  0
  9 10  2  0  0  0  0
 10 11  1  0  0  0  0
  4 12  1  0  0  0  0
 12 13  1  0  0  0  0
 13 14  1  0  0  0  0
 14 15  1  0  0  0  0
 15 16  1  0  0  0  0
  2 17  1  0  0  0  0
 17 18  1  0  0  0  0
 18 23  2  0  0  0  0
 18 19  1  0  0  0  0
 19 20  2  0  0  0  0
 20 21  1  0  0  0  0
 21 22  2  0  0  0  0
 22 23  1  0  0  0  0
M  END
$$$$
CHR-SOS-70e-2
  -OEChem-03232022352D

 27 29  0     0  0  0  0  0  0999 V2000
   -1.6127   -6.1567    0.0000 N   0  0  0  0  0  0  0  0  0  0  0  0
   -0.9707   -5.3901    0.0000 S   0  0  0  0  0  0  0  0  0  0  0  0
   -0.2040   -6.0321    0.0000 O   0  0  0  0  0  0  0  0  0  0  0  0
   -1.7373   -4.7480    0.0000 O   0  0  0  0  0  0  0  0  0  0  0  0
   -0.3286   -4.6234    0.0000 C   0  0  0  0  0  0  0  0  0  0  0  0
    0.6609   -4.7999    0.0000 C   0  0  0  0  0  0  0  0  0  0  0  0
    1.3030   -4.0332    0.0000 C   0  0  0  0  0  0  0  0  0  0  0  0
    0.9656   -3.0918    0.0000 C   0  0  0  0  0  0  0  0  0  0  0  0
    1.6110   -2.3280    0.0000 O   0  0  0  0  0  0  0  0  0  0  0  0
    2.5952   -2.5050    0.0000 C   0  0  0  0  0  0  0  0  0  0  0  0
    2.5966   -1.5050    0.0000 C   0  0  0  0  0  0  0  0  0  0  0  0
    1.7313   -1.0038    0.0000 C   0  0  0  0  0  0  0  0  0  0  0  0
    0.8646   -1.5025    0.0000 O   0  0  0  0  0  0  0  0  0  0  0  0
    1.7328   -0.0038    0.0000 N   0  0  0  0  0  0  0  0  0  0  0  0
    0.8675    0.4975    0.0000 C   0  0  0  0  0  0  0  0  0  0  0  0
    0.0000    0.0000    0.0000 C   0  0  0  0  0  0  0  0  0  0  0  0
   -0.8675    0.4975    0.0000 C   0  0  0  0  0  0  0  0  0  0  0  0
   -0.8675    1.5027    0.0000 C   0  0  0  0  0  0  0  0  0  0  0  0
    0.0000    2.0104    0.0000 N   0  0  0  0  0  0  0  0  0  0  0  0
    0.8675    1.5027    0.0000 C   0  0  0  0  0  0  0  0  0  0  0  0
    3.5850   -2.3299    0.0000 C   0  0  0  0  0  0  0  0  0  0  0  0
    4.2260   -3.0975    0.0000 C   0  0  0  0  0  0  0  0  0  0  0  0
    3.8872   -4.0384    0.0000 C   0  0  0  0  0  0  0  0  0  0  0  0
    2.8974   -4.2135    0.0000 C   0  0  0  0  0  0  0  0  0  0  0  0
    2.2463   -3.4477    0.0000 C   0  0  0  0  0  0  0  0  0  0  0  0
   -0.0240   -2.9153    0.0000 C   0  0  0  0  0  0  0  0  0  0  0  0
   -0.6761   -3.6802    0.0000 C   0  0  0  0  0  0  0  0  0  0  0  0
  1  2  1  0  0  0  0
  2  3  2  0  0  0  0
  2  4  2  0  0  0  0
  2  5  1  0  0  0  0
  5 27  2  0  0  0  0
  5  6  1  0  0  0  0
  6  7  2  0  0  0  0
  7  8  1  0  0  0  0
  8  9  1  0  0  0  0
  9 10  1  0  0  0  0
 10 25  1  0  0  0  0
 10 11  1  0  0  0  0
 11 12  1  0  0  0  0
 12 13  2  0  0  0  0
 12 14  1  0  0  0  0
 14 15  1  0  0  0  0
 15 20  2  0  0  0  0
 15 16  1  0  0  0  0
 16 17  2  0  0  0  0
 17 18  1  0  0  0  0
 18 19  2  0  0  0  0
 19 20  1  0  0  0  0
 10 21  1  0  0  0  0
 21 22  1  0  0  0  0
 22 23  1  0  0  0  0
 23 24  1  0  0  0  0
 24 25  1  0  0  0  0
  8 26  2  0  0  0  0
 26 27  1  0  0  0  0
M  END
$$$$
CHR-SOS-70e-3
  -OEChem-03232022352D

 22 24  0     0  0  0  0  0  0999 V2000
    2.6010    1.4950    0.0000 O   0  0  0  0  0  0  0  0  0  0  0  0
    2.5995    0.4950    0.0000 C   0  0  0  0  0  0  0  0  0  0  0  0
    3.4648   -0.0063    0.0000 C   0  0  0  0  0  0  0  0  0  0  0  0
    4.3316    0.4925    0.0000 C   0  0  0  0  0  0  0  0  0  0  0  0
    4.7376   -0.4214    0.0000 O   0  0  0  0  0  0  0  0  0  0  0  0
    4.1492   -1.2299    0.0000 C   0  0  0  0  0  0  0  0  0  0  0  0
    3.1499   -1.1211    0.0000 C   0  0  0  0  0  0  0  0  0  0  0  0
    2.5614   -1.9296    0.0000 C   0  0  0  0  0  0  0  0  0  0  0  0
    2.9620   -2.8459    0.0000 C   0  0  0  0  0  0  0  0  0  0  0  0
    3.9613   -2.9547    0.0000 C   0  0  0  0  0  0  0  0  0  0  0  0
    4.5599   -2.1473    0.0000 C   0  0  0  0  0  0  0  0  0  0  0  0
    5.2843    0.8018    0.0000 C   0  0  0  0  0  0  0  0  0  0  0  0
    5.2867    1.8032    0.0000 C   0  0  0  0  0  0  0  0  0  0  0  0
    4.3356    2.1121    0.0000 C   0  0  0  0  0  0  0  0  0  0  0  0
    3.7429    1.3063    0.0000 C   0  0  0  0  0  0  0  0  0  0  0  0
    1.7328   -0.0038    0.0000 N   0  0  0  0  0  0  0  0  0  0  0  0
    0.8675    0.4975    0.0000 C   0  0  0  0  0  0  0  0  0  0  0  0
    0.0000    0.0000    0.0000 C   0  0  0  0  0  0  0  0  0  0  0  0
   -0.8675    0.4975    0.0000 C   0  0  0  0  0  0  0  0  0  0  0  0
   -0.8675    1.5027    0.0000 C   0  0  0  0  0  0  0  0  0  0  0  0
    0.0000    2.0104    0.0000 N   0  0  0  0  0  0  0  0  0  0  0  0
    0.8675    1.5027    0.0000 C   0  0  0  0  0  0  0  0  0  0  0  0
  1  2  2  0  0  0  0
  2  3  1  0  0  0  0
  3  4  1  0  0  0  0
  4 15  1  0  0  0  0
  4  5  1  0  0  0  0
  5  6  1  0  0  0  0
  6 11  2  0  0  0  0
  6  7  1  0  0  0  0
  7  8  2  0  0  0  0
  8  9  1  0  0  0  0
  9 10  2  0  0  0  0
 10 11  1  0  0  0  0
  4 12  1  0  0  0  0
 12 13  1  0  0  0  0
 13 14  1  0  0  0  0
 14 15  1  0  0  0  0
  2 16  1  0  0  0  0
 16 17  1  0  0  0  0
 17 22  2  0  0  0  0
 17 18  1  0  0  0  0
 18 19  2  0  0  0  0
 19 20  1  0  0  0  0
 20 21  2  0  0  0  0
 21 22  1  0  0  0  0
M  END
$$$$
CHR-SOS-70e-4
  -OEChem-03232022352D

 26 28  0     0  0  0  0  0  0999 V2000
    1.6257   -6.7655    0.0000 N   0  0  0  0  0  0  0  0  0  0  0  0
    1.2251   -5.8493    0.0000 S   0  0  0  0  0  0  0  0  0  0  0  0
    2.1413   -5.4487    0.0000 O   0  0  0  0  0  0  0  0  0  0  0  0
    0.3088   -6.2499    0.0000 O   0  0  0  0  0  0  0  0  0  0  0  0
    0.8245   -4.9330    0.0000 C   0  0  0  0  0  0  0  0  0  0  0  0
   -0.1748   -4.8242    0.0000 C   0  0  0  0  0  0  0  0  0  0  0  0
   -0.5755   -3.9079    0.0000 C   0  0  0  0  0  0  0  0  0  0  0  0
    0.0130   -3.0994    0.0000 C   0  0  0  0  0  0  0  0  0  0  0  0
    1.0123   -3.2082    0.0000 C   0  0  0  0  0  0  0  0  0  0  0  0
    1.6008   -2.3997    0.0000 O   0  0  0  0  0  0  0  0  0  0  0  0
    2.5952   -2.5050    0.0000 C   0  0  0  0  0  0  0  0  0  0  0  0
    2.5966   -1.5050    0.0000 C   0  0  0  0  0  0  0  0  0  0  0  0
    1.7313   -1.0038    0.0000 C   0  0  0  0  0  0  0  0  0  0  0  0
    0.8646   -1.5025    0.0000 O   0  0  0  0  0  0  0  0  0  0  0  0
    1.7328   -0.0038    0.0000 N   0  0  0  0  0  0  0  0  0  0  0  0
    0.8675    0.4975    0.0000 C   0  0  0  0  0  0  0  0  0  0  0  0
    0.0000    0.0000    0.0000 C   0  0  0  0  0  0  0  0  0  0  0  0
   -0.8675    0.4975    0.0000 C   0  0  0  0  0  0  0  0  0  0  0  0
   -0.8675    1.5027    0.0000 C   0  0  0  0  0  0  0  0  0  0  0  0
    0.0000    2.0104    0.0000 N   0  0  0  0  0  0  0  0  0  0  0  0
    0.8675    1.5027    0.0000 C   0  0  0  0  0  0  0  0  0  0  0  0
    3.5916   -2.4024    0.0000 C   0  0  0  0  0  0  0  0  0  0  0  0
    3.9990   -3.3171    0.0000 C   0  0  0  0  0  0  0  0  0  0  0  0
    3.2542   -3.9845    0.0000 C   0  0  0  0  0  0  0  0  0  0  0  0
    2.3862   -3.4875    0.0000 C   0  0  0  0  0  0  0  0  0  0  0  0
    1.4231   -4.1256    0.0000 C   0  0  0  0  0  0  0  0  0  0  0  0
  1  2  1  0  0  0  0
  2  3  2  0  0  0  0
  2  4  2  0  0  0  0
  2  5  1  0  0  0  0
  5 26  2  0  0  0  0
  5  6  1  0  0  0  0
  6  7  2  0  0  0  0
  7  8  1  0  0  0  0
  8  9  2  0  0  0  0
  9 10  1  0  0  0  0
 10 11  1  0  0  0  0
 11 25  1  0  0  0  0
 11 12  1  0  0  0  0
 12 13  1  0  0  0  0
 13 14  2  0  0  0  0
 13 15  1  0  0  0  0
 15 16  1  0  0  0  0
 16 21  2  0  0  0  0
 16 17  1  0  0  0  0
 17 18  2  0  0  0  0
 18 19  1  0  0  0  0
 19 20  2  0  0  0  0
 20 21  1  0  0  0  0
 11 22  1  0  0  0  0
 22 23  1  0  0  0  0
 23 24  1  0  0  0  0
 24 25  1  0  0  0  0
  9 26  1  0  0  0  0
M  END
$$$$
CHR-SOS-70e-5
  -OEChem-03232022352D

 26 28  0     0  0  0  0  0  0999 V2000
   -1.3375   -6.4516    0.0000 C   0  0  0  0  0  0  0  0  0  0  0  0
   -0.7526   -5.6405    0.0000 S   0  0  0  0  0  0  0  0  0  0  0  0
    0.0585   -6.2254    0.0000 O   0  0  0  0  0  0  0  0  0  0  0  0
   -1.5637   -5.0556    0.0000 O   0  0  0  0  0  0  0  0  0  0  0  0
   -0.1677   -4.8294    0.0000 C   0  0  0  0  0  0  0  0  0  0  0  0
    0.8321   -4.9338    0.0000 C   0  0  0  0  0  0  0  0  0  0  0  0
    1.4170   -4.1227    0.0000 C   0  0  0  0  0  0  0  0  0  0  0  0
    1.0123   -3.2082    0.0000 C   0  0  0  0  0  0  0  0  0  0  0  0
    1.6008   -2.3997    0.0000 O   0  0  0  0  0  0  0  0  0  0  0  0
    2.5952   -2.5050    0.0000 C   0  0  0  0  0  0  0  0  0  0  0  0
    2.5966   -1.5050    0.0000 C   0  0  0  0  0  0  0  0  0  0  0  0
    1.7313   -1.0038    0.0000 C   0  0  0  0  0  0  0  0  0  0  0  0
    0.8646   -1.5025    0.0000 O   0  0  0  0  0  0  0  0  0  0  0  0
    1.7328   -0.0038    0.0000 N   0  0  0  0  0  0  0  0  0  0  0  0
    0.8675    0.4975    0.0000 C   0  0  0  0  0  0  0  0  0  0  0  0
    0.0000    0.0000    0.0000 C   0  0  0  0  0  0  0  0  0  0  0  0
   -0.8675    0.4975    0.0000 C   0  0  0  0  0  0  0  0  0  0  0  0
   -0.8675    1.5027    0.0000 C   0  0  0  0  0  0  0  0  0  0  0  0
    0.0000    2.0104    0.0000 N   0  0  0  0  0  0  0  0  0  0  0  0
    0.8675    1.5027    0.0000 C   0  0  0  0  0  0  0  0  0  0  0  0
    3.5916   -2.4024    0.0000 C   0  0  0  0  0  0  0  0  0  0  0  0
    3.9990   -3.3171    0.0000 C   0  0  0  0  0  0  0  0  0  0  0  0
    3.2542   -3.9845    0.0000 C   0  0  0  0  0  0  0  0  0  0  0  0
    2.3862   -3.4875    0.0000 C   0  0  0  0  0  0  0  0  0  0  0  0
    0.0126   -3.1038    0.0000 C   0  0  0  0  0  0  0  0  0  0  0  0
   -0.5825   -3.9138    0.0000 C   0  0  0  0  0  0  0  0  0  0  0  0
  1  2  1  0  0  0  0
  2  3  2  0  0  0  0
  2  4  2  0  0  0  0
  2  5  1  0  0  0  0
  5 26  2  0  0  0  0
  5  6  1  0  0  0  0
  6  7  2  0  0  0  0
  7  8  1  0  0  0  0
  8  9  1  0  0  0  0
  9 10  1  0  0  0  0
 10 24  1  0  0  0  0
 10 11  1  0  0  0  0
 11 12  1  0  0  0  0
 12 13  2  0  0  0  0
 12 14  1  0  0  0  0
 14 15  1  0  0  0  0
 15 20  2  0  0  0  0
 15 16  1  0  0  0  0
 16 17  2  0  0  0  0
 17 18  1  0  0  0  0
 18 19  2  0  0  0  0
 19 20  1  0  0  0  0
 10 21  1  0  0  0  0
 21 22  1  0  0  0  0
 22 23  1  0  0  0  0
 23 24  1  0  0  0  0
  8 25  2  0  0  0  0
 25 26  1  0  0  0  0
M  END
$$$$
CHR-SOS-70e-6
  -OEChem-03232022352D

 20 22  0     0  0  0  0  0  0999 V2000
    2.6010    1.4950    0.0000 O   0  0  0  0  0  0  0  0  0  0  0  0
    2.5995    0.4950    0.0000 C   0  0  0  0  0  0  0  0  0  0  0  0
    3.4648   -0.0063    0.0000 C   0  0  0  0  0  0  0  0  0  0  0  0
    4.3316    0.4925    0.0000 C   0  0  0  0  0  0  0  0  0  0  0  0
    4.9738   -0.2740    0.0000 O   0  0  0  0  0  0  0  0  0  0  0  0
    4.6311   -1.2135    0.0000 C   0  0  0  0  0  0  0  0  0  0  0  0
    3.6406   -1.3844    0.0000 C   0  0  0  0  0  0  0  0  0  0  0  0
    3.2978   -2.3238    0.0000 C   0  0  0  0  0  0  0  0  0  0  0  0
    3.9356   -3.0941    0.0000 C   0  0  0  0  0  0  0  0  0  0  0  0
    4.9261   -2.9232    0.0000 C   0  0  0  0  0  0  0  0  0  0  0  0
    5.2789   -1.9820    0.0000 C   0  0  0  0  0  0  0  0  0  0  0  0
    3.9910    1.4347    0.0000 C   0  0  0  0  0  0  0  0  0  0  0  0
    4.9756    1.2600    0.0000 C   0  0  0  0  0  0  0  0  0  0  0  0
    1.7328   -0.0038    0.0000 N   0  0  0  0  0  0  0  0  0  0  0  0
    0.8675    0.4975    0.0000 C   0  0  0  0  0  0  0  0  0  0  0  0
    0.0000    0.0000    0.0000 C   0  0  0  0  0  0  0  0  0  0  0  0
   -0.8675    0.4975    0.0000 C   0  0  0  0  0  0  0  0  0  0  0  0
   -0.8675    1.5027    0.0000 C   0  0  0  0  0  0  0  0  0  0  0  0
    0.0000    2.0104    0.0000 N   0  0  0  0  0  0  0  0  0  0  0  0
    0.8675    1.5027    0.0000 C   0  0  0  0  0  0  0  0  0  0  0  0
  1  2  2  0  0  0  0
  2  3  1  0  0  0  0
  3  4  1  0  0  0  0
  4 13  1  0  0  0  0
  4  5  1  0  0  0  0
  5  6  1  0  0  0  0
  6 11  2  0  0  0  0
  6  7  1  0  0  0  0
  7  8  2  0  0  0  0
  8  9  1  0  0  0  0
  9 10  2  0  0  0  0
 10 11  1  0  0  0  0
  4 12  1  0  0  0  0
 12 13  1  0  0  0  0
  2 14  1  0  0  0  0
 14 15  1  0  0  0  0
 15 20  2  0  0  0  0
 15 16  1  0  0  0  0
 16 17  2  0  0  0  0
 17 18  1  0  0  0  0
 18 19  2  0  0  0  0
 19 20  1  0  0  0  0
M  END
$$$$
CHR-SOS-70e-7
  -OEChem-03232022352D

 24 26  0     0  0  0  0  0  0999 V2000
   -2.0268   -5.0931    0.0000 N   0  0  0  0  0  0  0  0  0  0  0  0
   -1.0429   -4.9143    0.0000 S   0  0  0  0  0  0  0  0  0  0  0  0
   -1.2217   -3.9304    0.0000 O   0  0  0  0  0  0  0  0  0  0  0  0
   -0.8642   -5.8982    0.0000 O   0  0  0  0  0  0  0  0  0  0  0  0
   -0.0590   -4.7356    0.0000 C   0  0  0  0  0  0  0  0  0  0  0  0
    0.5888   -5.5042    0.0000 C   0  0  0  0  0  0  0  0  0  0  0  0
    1.5727   -5.3255    0.0000 C   0  0  0  0  0  0  0  0  0  0  0  0
    1.9154   -4.3860    0.0000 C   0  0  0  0  0  0  0  0  0  0  0  0
    1.2676   -3.6174    0.0000 C   0  0  0  0  0  0  0  0  0  0  0  0
    1.6103   -2.6779    0.0000 O   0  0  0  0  0  0  0  0  0  0  0  0
    2.5952   -2.5050    0.0000 C   0  0  0  0  0  0  0  0  0  0  0  0
    2.5966   -1.5050    0.0000 C   0  0  0  0  0  0  0  0  0  0  0  0
    1.7313   -1.0038    0.0000 C   0  0  0  0  0  0  0  0  0  0  0  0
    0.8646   -1.5025    0.0000 O   0  0  0  0  0  0  0  0  0  0  0  0
    1.7328   -0.0038    0.0000 N   0  0  0  0  0  0  0  0  0  0  0  0
    0.8675    0.4975    0.0000 C   0  0  0  0  0  0  0  0  0  0  0  0
    0.0000    0.0000    0.0000 C   0  0  0  0  0  0  0  0  0  0  0  0
   -0.8675    0.4975    0.0000 C   0  0  0  0  0  0  0  0  0  0  0  0
   -0.8675    1.5027    0.0000 C   0  0  0  0  0  0  0  0  0  0  0  0
    0.0000    2.0104    0.0000 N   0  0  0  0  0  0  0  0  0  0  0  0
    0.8675    1.5027    0.0000 C   0  0  0  0  0  0  0  0  0  0  0  0
    2.9379   -3.4465    0.0000 C   0  0  0  0  0  0  0  0  0  0  0  0
    3.5815   -2.6811    0.0000 C   0  0  0  0  0  0  0  0  0  0  0  0
    0.2770   -3.7883    0.0000 C   0  0  0  0  0  0  0  0  0  0  0  0
  1  2  1  0  0  0  0
  2  3  2  0  0  0  0
  2  4  2  0  0  0  0
  2  5  1  0  0  0  0
  5 24  2  0  0  0  0
  5  6  1  0  0  0  0
  6  7  2  0  0  0  0
  7  8  1  0  0  0  0
  8  9  2  0  0  0  0
  9 10  1  0  0  0  0
 10 11  1  0  0  0  0
 11 23  1  0  0  0  0
 11 12  1  0  0  0  0
 12 13  1  0  0  0  0
 13 14  2  0  0  0  0
 13 15  1  0  0  0  0
 15 16  1  0  0  0  0
 16 21  2  0  0  0  0
 16 17  1  0  0  0  0
 17 18  2  0  0  0  0
 18 19  1  0  0  0  0
 19 20  2  0  0  0  0
 20 21  1  0  0  0  0
 11 22  1  0  0  0  0
 22 23  1  0  0  0  0
  9 24  1  0  0  0  0
M  END
$$$$
CHR-SOS-70e-8
  -OEChem-03232022352D

 21 23  0     0  0  0  0  0  0999 V2000
    2.6010    1.4950    0.0000 O   0  0  0  0  0  0  0  0  0  0  0  0
    2.5995    0.4950    0.0000 C   0  0  0  0  0  0  0  0  0  0  0  0
    3.4648   -0.0063    0.0000 C   0  0  0  0  0  0  0  0  0  0  0  0
    4.3316    0.4925    0.0000 C   0  0  0  0  0  0  0  0  0  0  0  0
    4.8303   -0.3743    0.0000 O   0  0  0  0  0  0  0  0  0  0  0  0
    4.3291   -1.2396    0.0000 C   0  0  0  0  0  0  0  0  0  0  0  0
    3.3239   -1.2352    0.0000 C   0  0  0  0  0  0  0  0  0  0  0  0
    2.8226   -2.1005    0.0000 C   0  0  0  0  0  0  0  0  0  0  0  0
    3.3163   -2.9701    0.0000 C   0  0  0  0  0  0  0  0  0  0  0  0
    4.3214   -2.9746    0.0000 C   0  0  0  0  0  0  0  0  0  0  0  0
    4.8330   -2.1093    0.0000 C   0  0  0  0  0  0  0  0  0  0  0  0
    3.8329    1.3592    0.0000 C   0  0  0  0  0  0  0  0  0  0  0  0
    4.6996    1.8580    0.0000 C   0  0  0  0  0  0  0  0  0  0  0  0
    5.1983    0.9912    0.0000 C   0  0  0  0  0  0  0  0  0  0  0  0
    1.7328   -0.0038    0.0000 N   0  0  0  0  0  0  0  0  0  0  0  0
    0.8675    0.4975    0.0000 C   0  0  0  0  0  0  0  0  0  0  0  0
    0.0000    0.0000    0.0000 C   0  0  0  0  0  0  0  0  0  0  0  0
   -0.8675    0.4975    0.0000 C   0  0  0  0  0  0  0  0  0  0  0  0
   -0.8675    1.5027    0.0000 C   0  0  0  0  0  0  0  0  0  0  0  0
    0.0000    2.0104    0.0000 N   0  0  0  0  0  0  0  0  0  0  0  0
    0.8675    1.5027    0.0000 C   0  0  0  0  0  0  0  0  0  0  0  0
  1  2  2  0  0  0  0
  2  3  1  0  0  0  0
  3  4  1  0  0  0  0
  4 14  1  0  0  0  0
  4  5  1  0  0  0  0
  5  6  1  0  0  0  0
  6 11  2  0  0  0  0
  6  7  1  0  0  0  0
  7  8  2  0  0  0  0
  8  9  1  0  0  0  0
  9 10  2  0  0  0  0
 10 11  1  0  0  0  0
  4 12  1  0  0  0  0
 12 13  1  0  0  0  0
 13 14  1  0  0  0  0
  2 15  1  0  0  0  0
 15 16  1  0  0  0  0
 16 21  2  0  0  0  0
 16 17  1  0  0  0  0
 17 18  2  0  0  0  0
 18 19  1  0  0  0  0
 19 20  2  0  0  0  0
 20 21  1  0  0  0  0
M  END
$$$$
CHR-SOS-70e-9
  -OEChem-03232022352D

 25 27  0     0  0  0  0  0  0999 V2000
    2.0735   -6.8432    0.0000 N   0  0  0  0  0  0  0  0  0  0  0  0
    1.5799   -5.9735    0.0000 S   0  0  0  0  0  0  0  0  0  0  0  0
    2.4496   -5.4799    0.0000 O   0  0  0  0  0  0  0  0  0  0  0  0
    0.7102   -6.4671    0.0000 O   0  0  0  0  0  0  0  0  0  0  0  0
    1.0863   -5.1038    0.0000 C   0  0  0  0  0  0  0  0  0  0  0  0
    0.0811   -5.0994    0.0000 C   0  0  0  0  0  0  0  0  0  0  0  0
   -0.4126   -4.2297    0.0000 C   0  0  0  0  0  0  0  0  0  0  0  0
    0.0887   -3.3644    0.0000 C   0  0  0  0  0  0  0  0  0  0  0  0
    1.0939   -3.3689    0.0000 C   0  0  0  0  0  0  0  0  0  0  0  0
    1.5952   -2.5036    0.0000 O   0  0  0  0  0  0  0  0  0  0  0  0
    2.5952   -2.5050    0.0000 C   0  0  0  0  0  0  0  0  0  0  0  0
    2.5966   -1.5050    0.0000 C   0  0  0  0  0  0  0  0  0  0  0  0
    1.7313   -1.0038    0.0000 C   0  0  0  0  0  0  0  0  0  0  0  0
    0.8646   -1.5025    0.0000 O   0  0  0  0  0  0  0  0  0  0  0  0
    1.7328   -0.0038    0.0000 N   0  0  0  0  0  0  0  0  0  0  0  0
    0.8675    0.4975    0.0000 C   0  0  0  0  0  0  0  0  0  0  0  0
    0.0000    0.0000    0.0000 C   0  0  0  0  0  0  0  0  0  0  0  0
   -0.8675    0.4975    0.0000 C   0  0  0  0  0  0  0  0  0  0  0  0
   -0.8675    1.5027    0.0000 C   0  0  0  0  0  0  0  0  0  0  0  0
    0.0000    2.0104    0.0000 N   0  0  0  0  0  0  0  0  0  0  0  0
    0.8675    1.5027    0.0000 C   0  0  0  0  0  0  0  0  0  0  0  0
    2.5937   -3.5050    0.0000 C   0  0  0  0  0  0  0  0  0  0  0  0
    3.5937   -3.5065    0.0000 C   0  0  0  0  0  0  0  0  0  0  0  0
    3.5952   -2.5065    0.0000 C   0  0  0  0  0  0  0  0  0  0  0  0
    1.5978   -4.2386    0.0000 C   0  0  0  0  0  0  0  0  0  0  0  0
  1  2  1  0  0  0  0
  2  3  2  0  0  0  0
  2  4  2  0  0  0  0
  2  5  1  0  0  0  0
  5 25  2  0  0  0  0
  5  6  1  0  0  0  0
  6  7  2  0  0  0  0
  7  8  1  0  0  0  0
  8  9  2  0  0  0  0
  9 10  1  0  0  0  0
 10 11  1  0  0  0  0
 11 24  1  0  0  0  0
 11 12  1  0  0  0  0
 12 13  1  0  0  0  0
 13 14  2  0  0  0  0
 13 15  1  0  0  0  0
 15 16  1  0  0  0  0
 16 21  2  0  0  0  0
 16 17  1  0  0  0  0
 17 18  2  0  0  0  0
 18 19  1  0  0  0  0
 19 20  2  0  0  0  0
 20 21  1  0  0  0  0
 11 22  1  0  0  0  0
 22 23  1  0  0  0  0
 23 24  1  0  0  0  0
  9 25  1  0  0  0  0
M  END
$$$$
CHR-SOS-70e-10
  -OEChem-03232022352D

 25 27  0     0  0  0  0  0  0999 V2000
    2.0735   -6.8432    0.0000 N   0  0  0  0  0  0  0  0  0  0  0  0
    1.5799   -5.9735    0.0000 S   0  0  0  0  0  0  0  0  0  0  0  0
    2.4496   -5.4799    0.0000 O   0  0  0  0  0  0  0  0  0  0  0  0
    0.7102   -6.4671    0.0000 O   0  0  0  0  0  0  0  0  0  0  0  0
    1.0863   -5.1038    0.0000 C   0  0  0  0  0  0  0  0  0  0  0  0
    0.0811   -5.0994    0.0000 C   0  0  0  0  0  0  0  0  0  0  0  0
   -0.4126   -4.2297    0.0000 C   0  0  0  0  0  0  0  0  0  0  0  0
    0.0887   -3.3644    0.0000 C   0  0  0  0  0  0  0  0  0  0  0  0
    1.0939   -3.3689    0.0000 C   0  0  0  0  0  0  0  0  0  0  0  0
    1.5952   -2.5036    0.0000 O   0  0  0  0  0  0  0  0  0  0  0  0
    2.5952   -2.5050    0.0000 C   0  0  0  0  0  0  0  0  0  0  0  0
    2.5966   -1.5050    0.0000 C   0  0  0  0  0  0  0  0  0  0  0  0
    1.7313   -1.0038    0.0000 C   0  0  0  0  0  0  0  0  0  0  0  0
    0.8646   -1.5025    0.0000 O   0  0  0  0  0  0  0  0  0  0  0  0
    1.7328   -0.0038    0.0000 N   0  0  0  0  0  0  0  0  0  0  0  0
    0.8675    0.4975    0.0000 C   0  0  0  0  0  0  0  0  0  0  0  0
    0.0000    0.0000    0.0000 C   0  0  0  0  0  0  0  0  0  0  0  0
   -0.8675    0.4975    0.0000 C   0  0  0  0  0  0  0  0  0  0  0  0
   -0.8675    1.5027    0.0000 C   0  0  0  0  0  0  0  0  0  0  0  0
    0.0000    2.0104    0.0000 N   0  0  0  0  0  0  0  0  0  0  0  0
    0.8675    1.5027    0.0000 C   0  0  0  0  0  0  0  0  0  0  0  0
    2.5937   -3.5050    0.0000 C   0  0  0  0  0  0  0  0  0  0  0  0
    3.5937   -3.5065    0.0000 C   0  0  0  0  0  0  0  0  0  0  0  0
    3.5952   -2.5065    0.0000 C   0  0  0  0  0  0  0  0  0  0  0  0
    1.5978   -4.2386    0.0000 C   0  0  0  0  0  0  0  0  0  0  0  0
  1  2  1  0  0  0  0
  2  3  2  0  0  0  0
  2  4  2  0  0  0  0
  2  5  1  0  0  0  0
  5 25  2  0  0  0  0
  5  6  1  0  0  0  0
  6  7  2  0  0  0  0
  7  8  1  0  0  0  0
  8  9  2  0  0  0  0
  9 10  1  0  0  0  0
 10 11  1  0  0  0  0
 11 24  1  0  0  0  0
 11 12  1  0  0  0  0
 12 13  1  0  0  0  0
 13 14  2  0  0  0  0
 13 15  1  0  0  0  0
 15 16  1  0  0  0  0
 16 21  2  0  0  0  0
 16 17  1  0  0  0  0
 17 18  2  0  0  0  0
 18 19  1  0  0  0  0
 19 20  2  0  0  0  0
 20 21  1  0  0  0  0
 11 22  1  0  0  0  0
 22 23  1  0  0  0  0
 23 24  1  0  0  0  0
  9 25  1  0  0  0  0
M  END
$$$$
CHR-SOS-70e-11
  -OEChem-03232022352D

 24 26  0     0  0  0  0  0  0999 V2000
   -0.1132   -7.3770    0.0000 N   0  0  0  0  0  0  0  0  0  0  0  0
    0.2337   -6.4391    0.0000 S   0  0  0  0  0  0  0  0  0  0  0  0
   -0.7043   -6.0922    0.0000 O   0  0  0  0  0  0  0  0  0  0  0  0
    1.1716   -6.7859    0.0000 O   0  0  0  0  0  0  0  0  0  0  0  0
    0.5805   -5.5012    0.0000 C   0  0  0  0  0  0  0  0  0  0  0  0
   -0.0640   -4.7297    0.0000 C   0  0  0  0  0  0  0  0  0  0  0  0
    0.2828   -3.7918    0.0000 C   0  0  0  0  0  0  0  0  0  0  0  0
    1.2676   -3.6174    0.0000 C   0  0  0  0  0  0  0  0  0  0  0  0
    1.6103   -2.6779    0.0000 O   0  0  0  0  0  0  0  0  0  0  0  0
    2.5952   -2.5050    0.0000 C   0  0  0  0  0  0  0  0  0  0  0  0
    2.5966   -1.5050    0.0000 C   0  0  0  0  0  0  0  0  0  0  0  0
    1.7313   -1.0038    0.0000 C   0  0  0  0  0  0  0  0  0  0  0  0
    0.8646   -1.5025    0.0000 O   0  0  0  0  0  0  0  0  0  0  0  0
    1.7328   -0.0038    0.0000 N   0  0  0  0  0  0  0  0  0  0  0  0
    0.8675    0.4975    0.0000 C   0  0  0  0  0  0  0  0  0  0  0  0
    0.0000    0.0000    0.0000 C   0  0  0  0  0  0  0  0  0  0  0  0
   -0.8675    0.4975    0.0000 C   0  0  0  0  0  0  0  0  0  0  0  0
   -0.8675    1.5027    0.0000 C   0  0  0  0  0  0  0  0  0  0  0  0
    0.0000    2.0104    0.0000 N   0  0  0  0  0  0  0  0  0  0  0  0
    0.8675    1.5027    0.0000 C   0  0  0  0  0  0  0  0  0  0  0  0
    2.9379   -3.4465    0.0000 C   0  0  0  0  0  0  0  0  0  0  0  0
    3.5815   -2.6811    0.0000 C   0  0  0  0  0  0  0  0  0  0  0  0
    1.9120   -4.3888    0.0000 C   0  0  0  0  0  0  0  0  0  0  0  0
    1.5717   -5.3346    0.0000 C   0  0  0  0  0  0  0  0  0  0  0  0
  1  2  1  0  0  0  0
  2  3  2  0  0  0  0
  2  4  2  0  0  0  0
  2  5  1  0  0  0  0
  5 24  2  0  0  0  0
  5  6  1  0  0  0  0
  6  7  2  0  0  0  0
  7  8  1  0  0  0  0
  8  9  1  0  0  0  0
  9 10  1  0  0  0  0
 10 22  1  0  0  0  0
 10 11  1  0  0  0  0
 11 12  1  0  0  0  0
 12 13  2  0  0  0  0
 12 14  1  0  0  0  0
 14 15  1  0  0  0  0
 15 20  2  0  0  0  0
 15 16  1  0  0  0  0
 16 17  2  0  0  0  0
 17 18  1  0  0  0  0
 18 19  2  0  0  0  0
 19 20  1  0  0  0  0
 10 21  1  0  0  0  0
 21 22  1  0  0  0  0
  8 23  2  0  0  0  0
 23 24  1  0  0  0  0
M  END
$$$$
CHR-SOS-70e-12
  -OEChem-03232022352D

 27 29  0     0  0  0  0  0  0999 V2000
    1.3199   -6.6842    0.0000 N   0  0  0  0  0  0  0  0  0  0  0  0
    0.9867   -5.7414    0.0000 S   0  0  0  0  0  0  0  0  0  0  0  0
    1.9295   -5.4081    0.0000 O   0  0  0  0  0  0  0  0  0  0  0  0
    0.0438   -6.0746    0.0000 O   0  0  0  0  0  0  0  0  0  0  0  0
    0.6534   -4.7985    0.0000 C   0  0  0  0  0  0  0  0  0  0  0  0
   -0.3354   -4.6177    0.0000 C   0  0  0  0  0  0  0  0  0  0  0  0
   -0.6687   -3.6748    0.0000 C   0  0  0  0  0  0  0  0  0  0  0  0
   -0.0232   -2.9110    0.0000 C   0  0  0  0  0  0  0  0  0  0  0  0
    0.9656   -3.0918    0.0000 C   0  0  0  0  0  0  0  0  0  0  0  0
    1.6110   -2.3280    0.0000 O   0  0  0  0  0  0  0  0  0  0  0  0
    2.5952   -2.5050    0.0000 C   0  0  0  0  0  0  0  0  0  0  0  0
    2.5966   -1.5050    0.0000 C   0  0  0  0  0  0  0  0  0  0  0  0
    1.7313   -1.0038    0.0000 C   0  0  0  0  0  0  0  0  0  0  0  0
    0.8646   -1.5025    0.0000 O   0  0  0  0  0  0  0  0  0  0  0  0
    1.7328   -0.0038    0.0000 N   0  0  0  0  0  0  0  0  0  0  0  0
    0.8675    0.4975    0.0000 C   0  0  0  0  0  0  0  0  0  0  0  0
    0.0000    0.0000    0.0000 C   0  0  0  0  0  0  0  0  0  0  0  0
   -0.8675    0.4975    0.0000 C   0  0  0  0  0  0  0  0  0  0  0  0
   -0.8675    1.5027    0.0000 C   0  0  0  0  0  0  0  0  0  0  0  0
    0.0000    2.0104    0.0000 N   0  0  0  0  0  0  0  0  0  0  0  0
    0.8675    1.5027    0.0000 C   0  0  0  0  0  0  0  0  0  0  0  0
    3.5850   -2.3299    0.0000 C   0  0  0  0  0  0  0  0  0  0  0  0
    4.2260   -3.0975    0.0000 C   0  0  0  0  0  0  0  0  0  0  0  0
    3.8872   -4.0384    0.0000 C   0  0  0  0  0  0  0  0  0  0  0  0
    2.8974   -4.2135    0.0000 C   0  0  0  0  0  0  0  0  0  0  0  0
    2.2463   -3.4477    0.0000 C   0  0  0  0  0  0  0  0  0  0  0  0
    1.3089   -4.0365    0.0000 C   0  0  0  0  0  0  0  0  0  0  0  0
  1  2  1  0  0  0  0
  2  3  2  0  0  0  0
  2  4  2  0  0  0  0
  2  5  1  0  0  0  0
  5 27  2  0  0  0  0
  5  6  1  0  0  0  0
  6  7  2  0  0  0  0
  7  8  1  0  0  0  0
  8  9  2  0  0  0  0
  9 10  1  0  0  0  0
 10 11  1  0  0  0  0
 11 26  1  0  0  0  0
 11 12  1  0  0  0  0
 12 13  1  0  0  0  0
 13 14  2  0  0  0  0
 13 15  1  0  0  0  0
 15 16  1  0  0  0  0
 16 21  2  0  0  0  0
 16 17  1  0  0  0  0
 17 18  2  0  0  0  0
 18 19  1  0  0  0  0
 19 20  2  0  0  0  0
 20 21  1  0  0  0  0
 11 22  1  0  0  0  0
 22 23  1  0  0  0  0
 23 24  1  0  0  0  0
 24 25  1  0  0  0  0
 25 26  1  0  0  0  0
  9 27  1  0  0  0  0
M  END
$$$$
CHR-SOS-709-1
  -OEChem-03232022352D

 21 22  0     0  0  0  0  0  0999 V2000
   -3.4685    0.9975    0.0000 O   0  0  0  0  0  0  0  0  0  0  0  0
   -3.4670   -0.0025    0.0000 C   0  0  0  0  0  0  0  0  0  0  0  0
   -2.6003   -0.5013    0.0000 N   0  0  0  0  0  0  0  0  0  0  0  0
   -1.7350   -0.0000    0.0000 C   0  0  0  0  0  0  0  0  0  0  0  0
   -0.8675   -0.4975    0.0000 C   0  0  0  0  0  0  0  0  0  0  0  0
    0.0000    0.0000    0.0000 C   0  0  0  0  0  0  0  0  0  0  0  0
   -0.0000    1.0052    0.0000 C   0  0  0  0  0  0  0  0  0  0  0  0
    0.8675    1.5026    0.0000 N   0  3  0  0  0  0  0  0  0  0  0  0
    1.7320    1.0001    0.0000 O   0  0  0  0  0  0  0  0  0  0  0  0
    0.8704    2.5026    0.0000 O   0  5  0  0  0  0  0  0  0  0  0  0
   -0.8675    1.5129    0.0000 C   0  0  0  0  0  0  0  0  0  0  0  0
   -1.7350    1.0052    0.0000 C   0  0  0  0  0  0  0  0  0  0  0  0
   -2.6025    1.5026    0.0000 Cl  0  0  0  0  0  0  0  0  0  0  0  0
   -4.3323   -0.5038    0.0000 C   0  0  0  0  0  0  0  0  0  0  0  0
   -5.2021    0.0001    0.0000 C   0  0  0  0  0  0  0  0  0  0  0  0
   -6.0673   -0.5114    0.0000 C   0  0  0  0  0  0  0  0  0  0  0  0
   -6.9370   -0.0178    0.0000 Cl  0  0  0  0  0  0  0  0  0  0  0  0
   -6.0629   -1.5166    0.0000 C   0  0  0  0  0  0  0  0  0  0  0  0
   -5.1932   -2.0103    0.0000 C   0  0  0  0  0  0  0  0  0  0  0  0
   -4.3279   -1.5090    0.0000 C   0  0  0  0  0  0  0  0  0  0  0  0
   -3.4604   -2.0064    0.0000 O   0  0  0  0  0  0  0  0  0  0  0  0
  1  2  2  0  0  0  0
  2  3  1  0  0  0  0
  3  4  1  0  0  0  0
  4 12  2  0  0  0  0
  4  5  1  0  0  0  0
  5  6  2  0  0  0  0
  6  7  1  0  0  0  0
  7  8  1  0  0  0  0
  8  9  2  0  0  0  0
  8 10  1  0  0  0  0
  7 11  2  0  0  0  0
 11 12  1  0  0  0  0
 12 13  1  0  0  0  0
  2 14  1  0  0  0  0
 14 20  2  0  0  0  0
 14 15  1  0  0  0  0
 15 16  2  0  0  0  0
 16 17  1  0  0  0  0
 16 18  1  0  0  0  0
 18 19  2  0  0  0  0
 19 20  1  0  0  0  0
 20 21  1  0  0  0  0
M  CHG  2   8   1  10  -1
M  END
$$$$
CHR-SOS-709-2
  -OEChem-03232022352D

 20 21  0     0  0  0  0  0  0999 V2000
   -3.4685    0.9975    0.0000 O   0  0  0  0  0  0  0  0  0  0  0  0
   -3.4670   -0.0025    0.0000 C   0  0  0  0  0  0  0  0  0  0  0  0
   -2.6003   -0.5013    0.0000 N   0  0  0  0  0  0  0  0  0  0  0  0
   -1.7350   -0.0000    0.0000 C   0  0  0  0  0  0  0  0  0  0  0  0
   -0.8675   -0.4975    0.0000 C   0  0  0  0  0  0  0  0  0  0  0  0
    0.0000    0.0000    0.0000 C   0  0  0  0  0  0  0  0  0  0  0  0
   -0.0000    1.0052    0.0000 C   0  0  0  0  0  0  0  0  0  0  0  0
    0.8675    1.5026    0.0000 N   0  3  0  0  0  0  0  0  0  0  0  0
    1.7320    1.0001    0.0000 O   0  0  0  0  0  0  0  0  0  0  0  0
    0.8704    2.5026    0.0000 O   0  5  0  0  0  0  0  0  0  0  0  0
   -0.8675    1.5129    0.0000 C   0  0  0  0  0  0  0  0  0  0  0  0
   -1.7350    1.0052    0.0000 C   0  0  0  0  0  0  0  0  0  0  0  0
   -2.6025    1.5026    0.0000 Cl  0  0  0  0  0  0  0  0  0  0  0  0
   -4.3323   -0.5038    0.0000 C   0  0  0  0  0  0  0  0  0  0  0  0
   -5.2021    0.0001    0.0000 C   0  0  0  0  0  0  0  0  0  0  0  0
   -6.0675   -0.5011    0.0000 C   0  0  0  0  0  0  0  0  0  0  0  0
   -6.0719   -1.5011    0.0000 C   0  0  0  0  0  0  0  0  0  0  0  0
   -5.2021   -2.0050    0.0000 C   0  0  0  0  0  0  0  0  0  0  0  0
   -5.2065   -3.0050    0.0000 Cl  0  0  0  0  0  0  0  0  0  0  0  0
   -4.3279   -1.5089    0.0000 C   0  0  0  0  0  0  0  0  0  0  0  0
  1  2  2  0  0  0  0
  2  3  1  0  0  0  0
  3  4  1  0  0  0  0
  4 12  2  0  0  0  0
  4  5  1  0  0  0  0
  5  6  2  0  0  0  0
  6  7  1  0  0  0  0
  7  8  1  0  0  0  0
  8  9  2  0  0  0  0
  8 10  1  0  0  0  0
  7 11  2  0  0  0  0
 11 12  1  0  0  0  0
 12 13  1  0  0  0  0
  2 14  1  0  0  0  0
 14 20  2  0  0  0  0
 14 15  1  0  0  0  0
 15 16  2  0  0  0  0
 16 17  1  0  0  0  0
 17 18  2  0  0  0  0
 18 19  1  0  0  0  0
 18 20  1  0  0  0  0
M  CHG  2   8   1  10  -1
M  END
$$$$
CHR-SOS-709-3
  -OEChem-03232022352D

 20 21  0     0  0  0  0  0  0999 V2000
    2.5966    0.4976    0.0000 O   0  0  0  0  0  0  0  0  0  0  0  0
    2.5995    1.4976    0.0000 C   0  0  0  0  0  0  0  0  0  0  0  0
    1.7350    2.0001    0.0000 N   0  0  0  0  0  0  0  0  0  0  0  0
    0.8675    1.5027    0.0000 C   0  0  0  0  0  0  0  0  0  0  0  0
    0.8675    0.4975    0.0000 C   0  0  0  0  0  0  0  0  0  0  0  0
    0.0000    0.0000    0.0000 C   0  0  0  0  0  0  0  0  0  0  0  0
   -0.8675    0.4975    0.0000 C   0  0  0  0  0  0  0  0  0  0  0  0
   -1.7328   -0.0038    0.0000 N   0  3  0  0  0  0  0  0  0  0  0  0
   -2.5995    0.4950    0.0000 O   0  0  0  0  0  0  0  0  0  0  0  0
   -1.7313   -1.0038    0.0000 O   0  5  0  0  0  0  0  0  0  0  0  0
   -0.8675    1.5027    0.0000 C   0  0  0  0  0  0  0  0  0  0  0  0
    0.0000    2.0104    0.0000 C   0  0  0  0  0  0  0  0  0  0  0  0
    3.4670    1.9950    0.0000 C   0  0  0  0  0  0  0  0  0  0  0  0
    4.3345    1.4873    0.0000 C   0  0  0  0  0  0  0  0  0  0  0  0
    5.2020    1.9950    0.0000 C   0  0  0  0  0  0  0  0  0  0  0  0
    6.0695    1.4976    0.0000 Cl  0  0  0  0  0  0  0  0  0  0  0  0
    5.2020    3.0002    0.0000 C   0  0  0  0  0  0  0  0  0  0  0  0
    4.3345    3.4977    0.0000 C   0  0  0  0  0  0  0  0  0  0  0  0
    3.4670    3.0002    0.0000 C   0  0  0  0  0  0  0  0  0  0  0  0
    2.6017    3.5015    0.0000 O   0  0  0  0  0  0  0  0  0  0  0  0
  1  2  2  0  0  0  0
  2  3  1  0  0  0  0
  3  4  1  0  0  0  0
  4 12  2  0  0  0  0
  4  5  1  0  0  0  0
  5  6  2  0  0  0  0
  6  7  1  0  0  0  0
  7  8  1  0  0  0  0
  8  9  2  0  0  0  0
  8 10  1  0  0  0  0
  7 11  2  0  0  0  0
 11 12  1  0  0  0  0
  2 13  1  0  0  0  0
 13 19  2  0  0  0  0
 13 14  1  0  0  0  0
 14 15  2  0  0  0  0
 15 16  1  0  0  0  0
 15 17  1  0  0  0  0
 17 18  2  0  0  0  0
 18 19  1  0  0  0  0
 19 20  1  0  0  0  0
M  CHG  2   8   1  10  -1
M  END
$$$$
CHR-SOS-709-4
  -OEChem-03232022352D

 18 19  0     0  0  0  0  0  0999 V2000
    1.7321   -2.0000    0.0000 O   0  0  0  0  0  0  0  0  0  0  0  0
    2.5988   -1.5013    0.0000 C   0  0  0  0  0  0  0  0  0  0  0  0
    2.6003   -0.5013    0.0000 N   0  0  0  0  0  0  0  0  0  0  0  0
    1.7350    0.0000    0.0000 C   0  0  0  0  0  0  0  0  0  0  0  0
    0.8675   -0.4975    0.0000 C   0  0  0  0  0  0  0  0  0  0  0  0
    0.0000    0.0000    0.0000 C   0  0  0  0  0  0  0  0  0  0  0  0
   -0.0000    1.0052    0.0000 C   0  0  0  0  0  0  0  0  0  0  0  0
    0.8675    1.5129    0.0000 C   0  0  0  0  0  0  0  0  0  0  0  0
    1.7350    1.0052    0.0000 C   0  0  0  0  0  0  0  0  0  0  0  0
    2.6025    1.5026    0.0000 Cl  0  0  0  0  0  0  0  0  0  0  0  0
    3.4641   -2.0025    0.0000 C   0  0  0  0  0  0  0  0  0  0  0  0
    3.4597   -3.0076    0.0000 C   0  0  0  0  0  0  0  0  0  0  0  0
    4.3339   -3.5038    0.0000 C   0  0  0  0  0  0  0  0  0  0  0  0
    4.3383   -4.5038    0.0000 Cl  0  0  0  0  0  0  0  0  0  0  0  0
    5.2037   -2.9999    0.0000 C   0  0  0  0  0  0  0  0  0  0  0  0
    5.1993   -1.9998    0.0000 C   0  0  0  0  0  0  0  0  0  0  0  0
    4.3339   -1.4986    0.0000 C   0  0  0  0  0  0  0  0  0  0  0  0
    4.3339   -0.4986    0.0000 O   0  0  0  0  0  0  0  0  0  0  0  0
  1  2  2  0  0  0  0
  2  3  1  0  0  0  0
  3  4  1  0  0  0  0
  4  9  2  0  0  0  0
  4  5  1  0  0  0  0
  5  6  2  0  0  0  0
  6  7  1  0  0  0  0
  7  8  2  0  0  0  0
  8  9  1  0  0  0  0
  9 10  1  0  0  0  0
  2 11  1  0  0  0  0
 11 17  2  0  0  0  0
 11 12  1  0  0  0  0
 12 13  2  0  0  0  0
 13 14  1  0  0  0  0
 13 15  1  0  0  0  0
 15 16  2  0  0  0  0
 16 17  1  0  0  0  0
 17 18  1  0  0  0  0
M  END
$$$$
CHR-SOS-709-5
  -OEChem-03232022352D

 19 20  0     0  0  0  0  0  0999 V2000
    2.5966    0.4976    0.0000 O   0  0  0  0  0  0  0  0  0  0  0  0
    2.5995    1.4976    0.0000 C   0  0  0  0  0  0  0  0  0  0  0  0
    1.7350    2.0001    0.0000 N   0  0  0  0  0  0  0  0  0  0  0  0
    0.8675    1.5027    0.0000 C   0  0  0  0  0  0  0  0  0  0  0  0
    0.8675    0.4975    0.0000 C   0  0  0  0  0  0  0  0  0  0  0  0
    0.0000    0.0000    0.0000 C   0  0  0  0  0  0  0  0  0  0  0  0
   -0.8675    0.4975    0.0000 C   0  0  0  0  0  0  0  0  0  0  0  0
   -1.7328   -0.0038    0.0000 N   0  3  0  0  0  0  0  0  0  0  0  0
   -2.5995    0.4950    0.0000 O   0  0  0  0  0  0  0  0  0  0  0  0
   -1.7313   -1.0038    0.0000 O   0  5  0  0  0  0  0  0  0  0  0  0
   -0.8675    1.5027    0.0000 C   0  0  0  0  0  0  0  0  0  0  0  0
    0.0000    2.0104    0.0000 C   0  0  0  0  0  0  0  0  0  0  0  0
    3.4670    1.9950    0.0000 C   0  0  0  0  0  0  0  0  0  0  0  0
    3.4714    2.9951    0.0000 C   0  0  0  0  0  0  0  0  0  0  0  0
    4.3368    3.4963    0.0000 C   0  0  0  0  0  0  0  0  0  0  0  0
    5.2066    2.9924    0.0000 C   0  0  0  0  0  0  0  0  0  0  0  0
    5.2110    1.9872    0.0000 C   0  0  0  0  0  0  0  0  0  0  0  0
    4.3368    1.4911    0.0000 C   0  0  0  0  0  0  0  0  0  0  0  0
    4.3324    0.4911    0.0000 O   0  0  0  0  0  0  0  0  0  0  0  0
  1  2  2  0  0  0  0
  2  3  1  0  0  0  0
  3  4  1  0  0  0  0
  4 12  2  0  0  0  0
  4  5  1  0  0  0  0
  5  6  2  0  0  0  0
  6  7  1  0  0  0  0
  7  8  1  0  0  0  0
  8  9  2  0  0  0  0
  8 10  1  0  0  0  0
  7 11  2  0  0  0  0
 11 12  1  0  0  0  0
  2 13  1  0  0  0  0
 13 18  2  0  0  0  0
 13 14  1  0  0  0  0
 14 15  2  0  0  0  0
 15 16  1  0  0  0  0
 16 17  2  0  0  0  0
 17 18  1  0  0  0  0
 18 19  1  0  0  0  0
M  CHG  2   8   1  10  -1
M  END
$$$$
CHR-SOS-709-6
  -OEChem-03232022352D

 18 19  0     0  0  0  0  0  0999 V2000
    2.5966    0.4976    0.0000 O   0  0  0  0  0  0  0  0  0  0  0  0
    2.5995    1.4976    0.0000 C   0  0  0  0  0  0  0  0  0  0  0  0
    1.7350    2.0001    0.0000 N   0  0  0  0  0  0  0  0  0  0  0  0
    0.8675    1.5027    0.0000 C   0  0  0  0  0  0  0  0  0  0  0  0
    0.8675    0.4975    0.0000 C   0  0  0  0  0  0  0  0  0  0  0  0
    0.0000    0.0000    0.0000 C   0  0  0  0  0  0  0  0  0  0  0  0
   -0.8675    0.4975    0.0000 C   0  0  0  0  0  0  0  0  0  0  0  0
   -1.7328   -0.0038    0.0000 N   0  3  0  0  0  0  0  0  0  0  0  0
   -2.5995    0.4950    0.0000 O   0  0  0  0  0  0  0  0  0  0  0  0
   -1.7313   -1.0038    0.0000 O   0  5  0  0  0  0  0  0  0  0  0  0
   -0.8675    1.5027    0.0000 C   0  0  0  0  0  0  0  0  0  0  0  0
    0.0000    2.0104    0.0000 C   0  0  0  0  0  0  0  0  0  0  0  0
    3.4670    1.9950    0.0000 C   0  0  0  0  0  0  0  0  0  0  0  0
    3.4670    3.0002    0.0000 C   0  0  0  0  0  0  0  0  0  0  0  0
    4.3345    3.4977    0.0000 C   0  0  0  0  0  0  0  0  0  0  0  0
    5.2020    3.0002    0.0000 C   0  0  0  0  0  0  0  0  0  0  0  0
    5.2020    1.9950    0.0000 C   0  0  0  0  0  0  0  0  0  0  0  0
    4.3345    1.4873    0.0000 C   0  0  0  0  0  0  0  0  0  0  0  0
  1  2  2  0  0  0  0
  2  3  1  0  0  0  0
  3  4  1  0  0  0  0
  4 12  2  0  0  0  0
  4  5  1  0  0  0  0
  5  6  2  0  0  0  0
  6  7  1  0  0  0  0
  7  8  1  0  0  0  0
  8  9  2  0  0  0  0
  8 10  1  0  0  0  0
  7 11  2  0  0  0  0
 11 12  1  0  0  0  0
  2 13  1  0  0  0  0
 13 18  2  0  0  0  0
 13 14  1  0  0  0  0
 14 15  2  0  0  0  0
 15 16  1  0  0  0  0
 16 17  2  0  0  0  0
 17 18  1  0  0  0  0
M  CHG  2   8   1  10  -1
M  END
$$$$
CHR-SOS-709-7
  -OEChem-03232022352D

 17 18  0     0  0  0  0  0  0999 V2000
    2.5966    0.4976    0.0000 O   0  0  0  0  0  0  0  0  0  0  0  0
    2.5995    1.4976    0.0000 C   0  0  0  0  0  0  0  0  0  0  0  0
    1.7350    2.0001    0.0000 N   0  0  0  0  0  0  0  0  0  0  0  0
    0.8675    1.5027    0.0000 C   0  0  0  0  0  0  0  0  0  0  0  0
    0.8675    0.4975    0.0000 C   0  0  0  0  0  0  0  0  0  0  0  0
    0.0000    0.0000    0.0000 C   0  0  0  0  0  0  0  0  0  0  0  0
   -0.8675    0.4975    0.0000 C   0  0  0  0  0  0  0  0  0  0  0  0
   -0.8675    1.5027    0.0000 C   0  0  0  0  0  0  0  0  0  0  0  0
    0.0000    2.0104    0.0000 C   0  0  0  0  0  0  0  0  0  0  0  0
    3.4670    1.9950    0.0000 C   0  0  0  0  0  0  0  0  0  0  0  0
    4.3345    1.4873    0.0000 C   0  0  0  0  0  0  0  0  0  0  0  0
    5.2020    1.9950    0.0000 C   0  0  0  0  0  0  0  0  0  0  0  0
    6.0695    1.4976    0.0000 Cl  0  0  0  0  0  0  0  0  0  0  0  0
    5.2020    3.0002    0.0000 C   0  0  0  0  0  0  0  0  0  0  0  0
    4.3345    3.4977    0.0000 C   0  0  0  0  0  0  0  0  0  0  0  0
    3.4670    3.0002    0.0000 C   0  0  0  0  0  0  0  0  0  0  0  0
    2.6017    3.5015    0.0000 O   0  0  0  0  0  0  0  0  0  0  0  0
  1  2  2  0  0  0  0
  2  3  1  0  0  0  0
  3  4  1  0  0  0  0
  4  9  2  0  0  0  0
  4  5  1  0  0  0  0
  5  6  2  0  0  0  0
  6  7  1  0  0  0  0
  7  8  2  0  0  0  0
  8  9  1  0  0  0  0
  2 10  1  0  0  0  0
 10 16  2  0  0  0  0
 10 11  1  0  0  0  0
 11 12  2  0  0  0  0
 12 13  1  0  0  0  0
 12 14  1  0  0  0  0
 14 15  2  0  0  0  0
 15 16  1  0  0  0  0
 16 17  1  0  0  0  0
M  END
$$$$
CHR-SOS-709-8
  -OEChem-03232022352D

 16 17  0     0  0  0  0  0  0999 V2000
    2.5966    0.4976    0.0000 O   0  0  0  0  0  0  0  0  0  0  0  0
    2.5995    1.4976    0.0000 C   0  0  0  0  0  0  0  0  0  0  0  0
    1.7350    2.0001    0.0000 N   0  0  0  0  0  0  0  0  0  0  0  0
    0.8675    1.5027    0.0000 C   0  0  0  0  0  0  0  0  0  0  0  0
    0.8675    0.4975    0.0000 C   0  0  0  0  0  0  0  0  0  0  0  0
    0.0000    0.0000    0.0000 C   0  0  0  0  0  0  0  0  0  0  0  0
   -0.8675    0.4975    0.0000 C   0  0  0  0  0  0  0  0  0  0  0  0
   -0.8675    1.5027    0.0000 C   0  0  0  0  0  0  0  0  0  0  0  0
    0.0000    2.0104    0.0000 C   0  0  0  0  0  0  0  0  0  0  0  0
    3.4670    1.9950    0.0000 C   0  0  0  0  0  0  0  0  0  0  0  0
    4.3346    1.4873    0.0000 C   0  0  0  0  0  0  0  0  0  0  0  0
    5.2021    1.9847    0.0000 C   0  0  0  0  0  0  0  0  0  0  0  0
    5.2109    2.9847    0.0000 C   0  0  0  0  0  0  0  0  0  0  0  0
    4.3434    3.4924    0.0000 C   0  0  0  0  0  0  0  0  0  0  0  0
    4.3522    4.4924    0.0000 Cl  0  0  0  0  0  0  0  0  0  0  0  0
    3.4670    3.0002    0.0000 C   0  0  0  0  0  0  0  0  0  0  0  0
  1  2  2  0  0  0  0
  2  3  1  0  0  0  0
  3  4  1  0  0  0  0
  4  9  2  0  0  0  0
  4  5  1  0  0  0  0
  5  6  2  0  0  0  0
  6  7  1  0  0  0  0
  7  8  2  0  0  0  0
  8  9  1  0  0  0  0
  2 10  1  0  0  0  0
 10 16  2  0  0  0  0
 10 11  1  0  0  0  0
 11 12  2  0  0  0  0
 12 13  1  0  0  0  0
 13 14  2  0  0  0  0
 14 15  1  0  0  0  0
 14 16  1  0  0  0  0
M  END
$$$$
CHR-SOS-709-9
  -OEChem-03232022352D

 15 16  0     0  0  0  0  0  0999 V2000
    2.5966    0.4976    0.0000 O   0  0  0  0  0  0  0  0  0  0  0  0
    2.5995    1.4976    0.0000 C   0  0  0  0  0  0  0  0  0  0  0  0
    1.7350    2.0001    0.0000 N   0  0  0  0  0  0  0  0  0  0  0  0
    0.8675    1.5027    0.0000 C   0  0  0  0  0  0  0  0  0  0  0  0
    0.8675    0.4975    0.0000 C   0  0  0  0  0  0  0  0  0  0  0  0
    0.0000    0.0000    0.0000 C   0  0  0  0  0  0  0  0  0  0  0  0
   -0.8675    0.4975    0.0000 C   0  0  0  0  0  0  0  0  0  0  0  0
   -0.8675    1.5027    0.0000 C   0  0  0  0  0  0  0  0  0  0  0  0
    0.0000    2.0104    0.0000 C   0  0  0  0  0  0  0  0  0  0  0  0
    3.4670    1.9950    0.0000 C   0  0  0  0  0  0  0  0  0  0  0  0
    3.4670    3.0002    0.0000 C   0  0  0  0  0  0  0  0  0  0  0  0
    4.3345    3.4977    0.0000 C   0  0  0  0  0  0  0  0  0  0  0  0
    5.2020    3.0002    0.0000 C   0  0  0  0  0  0  0  0  0  0  0  0
    5.2020    1.9950    0.0000 C   0  0  0  0  0  0  0  0  0  0  0  0
    4.3345    1.4873    0.0000 C   0  0  0  0  0  0  0  0  0  0  0  0
  1  2  2  0  0  0  0
  2  3  1  0  0  0  0
  3  4  1  0  0  0  0
  4  9  2  0  0  0  0
  4  5  1  0  0  0  0
  5  6  2  0  0  0  0
  6  7  1  0  0  0  0
  7  8  2  0  0  0  0
  8  9  1  0  0  0  0
  2 10  1  0  0  0  0
 10 15  2  0  0  0  0
 10 11  1  0  0  0  0
 11 12  2  0  0  0  0
 12 13  1  0  0  0  0
 13 14  2  0  0  0  0
 14 15  1  0  0  0  0
M  END
$$$$
CHR-SOS-709-10
  -OEChem-03232022352D

 18 19  0     0  0  0  0  0  0999 V2000
    0.8646   -1.5025    0.0000 O   0  0  0  0  0  0  0  0  0  0  0  0
    1.7313   -1.0038    0.0000 C   0  0  0  0  0  0  0  0  0  0  0  0
    1.7328   -0.0038    0.0000 N   0  0  0  0  0  0  0  0  0  0  0  0
    0.8675    0.4975    0.0000 C   0  0  0  0  0  0  0  0  0  0  0  0
    0.8675    1.5027    0.0000 C   0  0  0  0  0  0  0  0  0  0  0  0
   -0.0000    2.0104    0.0000 N   0  0  0  0  0  0  0  0  0  0  0  0
   -0.8675    1.5027    0.0000 C   0  0  0  0  0  0  0  0  0  0  0  0
   -0.8675    0.4975    0.0000 C   0  0  0  0  0  0  0  0  0  0  0  0
    0.0000    0.0000    0.0000 C   0  0  0  0  0  0  0  0  0  0  0  0
    0.0000   -1.0000    0.0000 Cl  0  0  0  0  0  0  0  0  0  0  0  0
    2.5966   -1.5050    0.0000 C   0  0  0  0  0  0  0  0  0  0  0  0
    2.5922   -2.5101    0.0000 C   0  0  0  0  0  0  0  0  0  0  0  0
    3.4664   -3.0063    0.0000 C   0  0  0  0  0  0  0  0  0  0  0  0
    3.4709   -4.0063    0.0000 Cl  0  0  0  0  0  0  0  0  0  0  0  0
    4.3362   -2.5024    0.0000 C   0  0  0  0  0  0  0  0  0  0  0  0
    4.3318   -1.5023    0.0000 C   0  0  0  0  0  0  0  0  0  0  0  0
    3.4664   -1.0011    0.0000 C   0  0  0  0  0  0  0  0  0  0  0  0
    3.4664   -0.0011    0.0000 O   0  0  0  0  0  0  0  0  0  0  0  0
  1  2  2  0  0  0  0
  2  3  1  0  0  0  0
  3  4  1  0  0  0  0
  4  9  2  0  0  0  0
  4  5  1  0  0  0  0
  5  6  2  0  0  0  0
  6  7  1  0  0  0  0
  7  8  2  0  0  0  0
  8  9  1  0  0  0  0
  9 10  1  0  0  0  0
  2 11  1  0  0  0  0
 11 17  2  0  0  0  0
 11 12  1  0  0  0  0
 12 13  2  0  0  0  0
 13 14  1  0  0  0  0
 13 15  1  0  0  0  0
 15 16  2  0  0  0  0
 16 17  1  0  0  0  0
 17 18  1  0  0  0  0
M  END
$$$$
CHR-SOS-709-11
  -OEChem-03232022352D

 17 18  0     0  0  0  0  0  0999 V2000
    0.8646   -1.5025    0.0000 O   0  0  0  0  0  0  0  0  0  0  0  0
    1.7313   -1.0038    0.0000 C   0  0  0  0  0  0  0  0  0  0  0  0
    1.7328   -0.0038    0.0000 N   0  0  0  0  0  0  0  0  0  0  0  0
    0.8675    0.4975    0.0000 C   0  0  0  0  0  0  0  0  0  0  0  0
    0.0000    0.0000    0.0000 C   0  0  0  0  0  0  0  0  0  0  0  0
   -0.8675    0.4975    0.0000 C   0  0  0  0  0  0  0  0  0  0  0  0
   -0.8675    1.5027    0.0000 C   0  0  0  0  0  0  0  0  0  0  0  0
    0.0000    2.0104    0.0000 N   0  0  0  0  0  0  0  0  0  0  0  0
    0.8675    1.5027    0.0000 C   0  0  0  0  0  0  0  0  0  0  0  0
    2.5966   -1.5050    0.0000 C   0  0  0  0  0  0  0  0  0  0  0  0
    2.5922   -2.5101    0.0000 C   0  0  0  0  0  0  0  0  0  0  0  0
    3.4664   -3.0063    0.0000 C   0  0  0  0  0  0  0  0  0  0  0  0
    3.4708   -4.0063    0.0000 Cl  0  0  0  0  0  0  0  0  0  0  0  0
    4.3362   -2.5024    0.0000 C   0  0  0  0  0  0  0  0  0  0  0  0
    4.3318   -1.5023    0.0000 C   0  0  0  0  0  0  0  0  0  0  0  0
    3.4664   -1.0011    0.0000 C   0  0  0  0  0  0  0  0  0  0  0  0
    3.4664   -0.0011    0.0000 O   0  0  0  0  0  0  0  0  0  0  0  0
  1  2  2  0  0  0  0
  2  3  1  0  0  0  0
  3  4  1  0  0  0  0
  4  9  2  0  0  0  0
  4  5  1  0  0  0  0
  5  6  2  0  0  0  0
  6  7  1  0  0  0  0
  7  8  2  0  0  0  0
  8  9  1  0  0  0  0
  2 10  1  0  0  0  0
 10 16  2  0  0  0  0
 10 11  1  0  0  0  0
 11 12  2  0  0  0  0
 12 13  1  0  0  0  0
 12 14  1  0  0  0  0
 14 15  2  0  0  0  0
 15 16  1  0  0  0  0
 16 17  1  0  0  0  0
M  END
$$$$
CHR-SOS-709-12
  -OEChem-03232022352D

 16 17  0     0  0  0  0  0  0999 V2000
    0.8646   -1.5025    0.0000 O   0  0  0  0  0  0  0  0  0  0  0  0
    1.7313   -1.0038    0.0000 C   0  0  0  0  0  0  0  0  0  0  0  0
    1.7328   -0.0038    0.0000 N   0  0  0  0  0  0  0  0  0  0  0  0
    0.8675    0.4975    0.0000 C   0  0  0  0  0  0  0  0  0  0  0  0
    0.0000    0.0000    0.0000 C   0  0  0  0  0  0  0  0  0  0  0  0
   -0.8675    0.4975    0.0000 C   0  0  0  0  0  0  0  0  0  0  0  0
   -0.8675    1.5027    0.0000 C   0  0  0  0  0  0  0  0  0  0  0  0
    0.0000    2.0104    0.0000 N   0  0  0  0  0  0  0  0  0  0  0  0
    0.8675    1.5027    0.0000 C   0  0  0  0  0  0  0  0  0  0  0  0
    2.5966   -1.5050    0.0000 C   0  0  0  0  0  0  0  0  0  0  0  0
    2.5922   -2.5102    0.0000 C   0  0  0  0  0  0  0  0  0  0  0  0
    3.4575   -3.0115    0.0000 C   0  0  0  0  0  0  0  0  0  0  0  0
    4.3272   -2.5178    0.0000 C   0  0  0  0  0  0  0  0  0  0  0  0
    4.3316   -1.5126    0.0000 C   0  0  0  0  0  0  0  0  0  0  0  0
    5.2013   -1.0190    0.0000 Cl  0  0  0  0  0  0  0  0  0  0  0  0
    3.4664   -1.0011    0.0000 C   0  0  0  0  0  0  0  0  0  0  0  0
  1  2  2  0  0  0  0
  2  3  1  0  0  0  0
  3  4  1  0  0  0  0
  4  9  2  0  0  0  0
  4  5  1  0  0  0  0
  5  6  2  0  0  0  0
  6  7  1  0  0  0  0
  7  8  2  0  0  0  0
  8  9  1  0  0  0  0
  2 10  1  0  0  0  0
 10 16  2  0  0  0  0
 10 11  1  0  0  0  0
 11 12  2  0  0  0  0
 12 13  1  0  0  0  0
 13 14  2  0  0  0  0
 14 15  1  0  0  0  0
 14 16  1  0  0  0  0
M  END
$$$$
CHR-SOS-709-13
  -OEChem-03232022352D

 23 25  0     0  0  0  0  0  0999 V2000
    0.8646   -1.5025    0.0000 O   0  0  0  0  0  0  0  0  0  0  0  0
    1.7313   -1.0038    0.0000 C   0  0  0  0  0  0  0  0  0  0  0  0
    1.7328   -0.0038    0.0000 N   0  0  0  0  0  0  0  0  0  0  0  0
    0.8675    0.4975    0.0000 C   0  0  0  0  0  0  0  0  0  0  0  0
    0.0000    0.0000    0.0000 C   0  0  0  0  0  0  0  0  0  0  0  0
   -0.8675    0.4975    0.0000 C   0  0  0  0  0  0  0  0  0  0  0  0
   -0.8675    1.5027    0.0000 C   0  0  0  0  0  0  0  0  0  0  0  0
    0.0000    2.0104    0.0000 N   0  0  0  0  0  0  0  0  0  0  0  0
    0.8675    1.5027    0.0000 C   0  0  0  0  0  0  0  0  0  0  0  0
    2.5966   -1.5050    0.0000 C   0  0  0  0  0  0  0  0  0  0  0  0
    2.5923   -2.5050    0.0000 C   0  0  0  0  0  0  0  0  0  0  0  0
    3.4621   -3.0089    0.0000 C   0  0  0  0  0  0  0  0  0  0  0  0
    3.4577   -4.0089    0.0000 Cl  0  0  0  0  0  0  0  0  0  0  0  0
    4.3362   -2.5127    0.0000 C   0  0  0  0  0  0  0  0  0  0  0  0
    4.3318   -1.5076    0.0000 C   0  0  0  0  0  0  0  0  0  0  0  0
    5.1970   -1.0063    0.0000 C   0  0  0  0  0  0  0  0  0  0  0  0
    5.1926   -0.0011    0.0000 C   0  0  0  0  0  0  0  0  0  0  0  0
    6.0579    0.5002    0.0000 C   0  0  0  0  0  0  0  0  0  0  0  0
    6.9276    0.0066    0.0000 C   0  0  0  0  0  0  0  0  0  0  0  0
    6.9320   -0.9986    0.0000 C   0  0  0  0  0  0  0  0  0  0  0  0
    6.0668   -1.5101    0.0000 C   0  0  0  0  0  0  0  0  0  0  0  0
    3.4620   -1.0037    0.0000 C   0  0  0  0  0  0  0  0  0  0  0  0
    3.4620   -0.0037    0.0000 O   0  0  0  0  0  0  0  0  0  0  0  0
  1  2  2  0  0  0  0
  2  3  1  0  0  0  0
  3  4  1  0  0  0  0
  4  9  2  0  0  0  0
  4  5  1  0  0  0  0
  5  6  2  0  0  0  0
  6  7  1  0  0  0  0
  7  8  2  0  0  0  0
  8  9  1  0  0  0  0
  2 10  1  0  0  0  0
 10 22  2  0  0  0  0
 10 11  1  0  0  0  0
 11 12  2  0  0  0  0
 12 13  1  0  0  0  0
 12 14  1  0  0  0  0
 14 15  2  0  0  0  0
 15 16  1  0  0  0  0
 16 21  2  0  0  0  0
 16 17  1  0  0  0  0
 17 18  2  0  0  0  0
 18 19  1  0  0  0  0
 19 20  2  0  0  0  0
 20 21  1  0  0  0  0
 15 22  1  0  0  0  0
 22 23  1  0  0  0  0
M  END
$$$$
CHR-SOS-709-14
  -OEChem-03232022352D

 22 24  0     0  0  0  0  0  0999 V2000
    0.8646   -1.5025    0.0000 O   0  0  0  0  0  0  0  0  0  0  0  0
    1.7313   -1.0038    0.0000 C   0  0  0  0  0  0  0  0  0  0  0  0
    1.7328   -0.0038    0.0000 N   0  0  0  0  0  0  0  0  0  0  0  0
    0.8675    0.4975    0.0000 C   0  0  0  0  0  0  0  0  0  0  0  0
    0.0000    0.0000    0.0000 C   0  0  0  0  0  0  0  0  0  0  0  0
   -0.8675    0.4975    0.0000 C   0  0  0  0  0  0  0  0  0  0  0  0
   -0.8675    1.5027    0.0000 C   0  0  0  0  0  0  0  0  0  0  0  0
    0.0000    2.0104    0.0000 N   0  0  0  0  0  0  0  0  0  0  0  0
    0.8675    1.5027    0.0000 C   0  0  0  0  0  0  0  0  0  0  0  0
    2.5966   -1.5050    0.0000 C   0  0  0  0  0  0  0  0  0  0  0  0
    2.5922   -2.5101    0.0000 C   0  0  0  0  0  0  0  0  0  0  0  0
    3.4664   -3.0063    0.0000 C   0  0  0  0  0  0  0  0  0  0  0  0
    3.4708   -4.0063    0.0000 Cl  0  0  0  0  0  0  0  0  0  0  0  0
    4.3362   -2.5024    0.0000 C   0  0  0  0  0  0  0  0  0  0  0  0
    4.3318   -1.5023    0.0000 C   0  0  0  0  0  0  0  0  0  0  0  0
    3.4664   -1.0011    0.0000 C   0  0  0  0  0  0  0  0  0  0  0  0
    3.4664   -0.0011    0.0000 C   0  0  0  0  0  0  0  0  0  0  0  0
    2.5943    0.4989    0.0000 C   0  0  0  0  0  0  0  0  0  0  0  0
    2.5942    1.4989    0.0000 C   0  0  0  0  0  0  0  0  0  0  0  0
    3.4573    2.0040    0.0000 C   0  0  0  0  0  0  0  0  0  0  0  0
    4.3294    1.5040    0.0000 C   0  0  0  0  0  0  0  0  0  0  0  0
    4.3383    0.4989    0.0000 C   0  0  0  0  0  0  0  0  0  0  0  0
  1  2  2  0  0  0  0
  2  3  1  0  0  0  0
  3  4  1  0  0  0  0
  4  9  2  0  0  0  0
  4  5  1  0  0  0  0
  5  6  2  0  0  0  0
  6  7  1  0  0  0  0
  7  8  2  0  0  0  0
  8  9  1  0  0  0  0
  2 10  1  0  0  0  0
 10 16  2  0  0  0  0
 10 11  1  0  0  0  0
 11 12  2  0  0  0  0
 12 13  1  0  0  0  0
 12 14  1  0  0  0  0
 14 15  2  0  0  0  0
 15 16  1  0  0  0  0
 16 17  1  0  0  0  0
 17 22  2  0  0  0  0
 17 18  1  0  0  0  0
 18 19  2  0  0  0  0
 19 20  1  0  0  0  0
 20 21  2  0  0  0  0
 21 22  1  0  0  0  0
M  END
$$$$
CHR-SOS-709-15
  -OEChem-03232022352D

 26 28  0     0  0  0  0  0  0999 V2000
   -0.8858   -3.4937    0.0000 N   0  0  0  0  0  0  0  0  0  0  0  0
   -0.0162   -3.0001    0.0000 S   0  0  0  0  0  0  0  0  0  0  0  0
   -0.5098   -2.1304    0.0000 O   0  0  0  0  0  0  0  0  0  0  0  0
    0.4775   -3.8698    0.0000 O   0  0  0  0  0  0  0  0  0  0  0  0
    0.8535   -2.5065    0.0000 C   0  0  0  0  0  0  0  0  0  0  0  0
    0.8579   -1.5013    0.0000 C   0  0  0  0  0  0  0  0  0  0  0  0
    1.7276   -1.0076    0.0000 C   0  0  0  0  0  0  0  0  0  0  0  0
    2.5929   -1.5089    0.0000 C   0  0  0  0  0  0  0  0  0  0  0  0
    3.4604   -1.0115    0.0000 C   0  0  0  0  0  0  0  0  0  0  0  0
    4.3257   -1.5128    0.0000 C   0  0  0  0  0  0  0  0  0  0  0  0
    5.1954   -1.0191    0.0000 C   0  0  0  0  0  0  0  0  0  0  0  0
    5.1998   -0.0139    0.0000 C   0  0  0  0  0  0  0  0  0  0  0  0
    6.0695    0.4797    0.0000 Cl  0  0  0  0  0  0  0  0  0  0  0  0
    4.3346    0.4976    0.0000 C   0  0  0  0  0  0  0  0  0  0  0  0
    3.4648   -0.0063    0.0000 C   0  0  0  0  0  0  0  0  0  0  0  0
    2.5995    0.4950    0.0000 C   0  0  0  0  0  0  0  0  0  0  0  0
    2.6010    1.4950    0.0000 O   0  0  0  0  0  0  0  0  0  0  0  0
    1.7328   -0.0038    0.0000 N   0  0  0  0  0  0  0  0  0  0  0  0
    0.8675    0.4975    0.0000 C   0  0  0  0  0  0  0  0  0  0  0  0
    0.0000    0.0000    0.0000 C   0  0  0  0  0  0  0  0  0  0  0  0
   -0.8675    0.4975    0.0000 C   0  0  0  0  0  0  0  0  0  0  0  0
   -0.8675    1.5027    0.0000 C   0  0  0  0  0  0  0  0  0  0  0  0
    0.0000    2.0104    0.0000 N   0  0  0  0  0  0  0  0  0  0  0  0
    0.8675    1.5027    0.0000 C   0  0  0  0  0  0  0  0  0  0  0  0
    2.5885   -2.5141    0.0000 C   0  0  0  0  0  0  0  0  0  0  0  0
    1.7188   -3.0180    0.0000 C   0  0  0  0  0  0  0  0  0  0  0  0
  1  2  1  0  0  0  0
  2  3  2  0  0  0  0
  2  4  2  0  0  0  0
  2  5  1  0  0  0  0
  5 26  2  0  0  0  0
  5  6  1  0  0  0  0
  6  7  2  0  0  0  0
  7  8  1  0  0  0  0
  8  9  1  0  0  0  0
  9 15  2  0  0  0  0
  9 10  1  0  0  0  0
 10 11  2  0  0  0  0
 11 12  1  0  0  0  0
 12 13  1  0  0  0  0
 12 14  2  0  0  0  0
 14 15  1  0  0  0  0
 15 16  1  0  0  0  0
 16 17  2  0  0  0  0
 16 18  1  0  0  0  0
 18 19  1  0  0  0  0
 19 24  2  0  0  0  0
 19 20  1  0  0  0  0
 20 21  2  0  0  0  0
 21 22  1  0  0  0  0
 22 23  2  0  0  0  0
 23 24  1  0  0  0  0
  8 25  2  0  0  0  0
 25 26  1  0  0  0  0
M  END
$$$$
CHR-SOS-709-16
  -OEChem-03232022352D

 23 25  0     0  0  0  0  0  0999 V2000
    0.8646   -1.5025    0.0000 O   0  0  0  0  0  0  0  0  0  0  0  0
    1.7313   -1.0038    0.0000 C   0  0  0  0  0  0  0  0  0  0  0  0
    1.7328   -0.0038    0.0000 N   0  0  0  0  0  0  0  0  0  0  0  0
    0.8675    0.4975    0.0000 C   0  0  0  0  0  0  0  0  0  0  0  0
    0.0000    0.0000    0.0000 C   0  0  0  0  0  0  0  0  0  0  0  0
   -0.8675    0.4975    0.0000 C   0  0  0  0  0  0  0  0  0  0  0  0
   -0.8675    1.5027    0.0000 C   0  0  0  0  0  0  0  0  0  0  0  0
    0.0000    2.0104    0.0000 N   0  0  0  0  0  0  0  0  0  0  0  0
    0.8675    1.5027    0.0000 C   0  0  0  0  0  0  0  0  0  0  0  0
    2.5966   -1.5050    0.0000 C   0  0  0  0  0  0  0  0  0  0  0  0
    3.4664   -1.0011    0.0000 C   0  0  0  0  0  0  0  0  0  0  0  0
    4.3316   -1.5126    0.0000 C   0  0  0  0  0  0  0  0  0  0  0  0
    5.2013   -1.0190    0.0000 Cl  0  0  0  0  0  0  0  0  0  0  0  0
    4.3272   -2.5178    0.0000 C   0  0  0  0  0  0  0  0  0  0  0  0
    3.4575   -3.0115    0.0000 C   0  0  0  0  0  0  0  0  0  0  0  0
    2.5922   -2.5102    0.0000 C   0  0  0  0  0  0  0  0  0  0  0  0
    1.7247   -3.0076    0.0000 O   0  0  0  0  0  0  0  0  0  0  0  0
    1.7218   -4.0076    0.0000 C   0  0  0  0  0  0  0  0  0  0  0  0
    2.5923   -4.5102    0.0000 C   0  0  0  0  0  0  0  0  0  0  0  0
    2.5894   -5.5103    0.0000 C   0  0  0  0  0  0  0  0  0  0  0  0
    1.7248   -6.0128    0.0000 C   0  0  0  0  0  0  0  0  0  0  0  0
    0.8543   -5.5102    0.0000 C   0  0  0  0  0  0  0  0  0  0  0  0
    0.8483   -4.5051    0.0000 C   0  0  0  0  0  0  0  0  0  0  0  0
  1  2  2  0  0  0  0
  2  3  1  0  0  0  0
  3  4  1  0  0  0  0
  4  9  2  0  0  0  0
  4  5  1  0  0  0  0
  5  6  2  0  0  0  0
  6  7  1  0  0  0  0
  7  8  2  0  0  0  0
  8  9  1  0  0  0  0
  2 10  1  0  0  0  0
 10 16  2  0  0  0  0
 10 11  1  0  0  0  0
 11 12  2  0  0  0  0
 12 13  1  0  0  0  0
 12 14  1  0  0  0  0
 14 15  2  0  0  0  0
 15 16  1  0  0  0  0
 16 17  1  0  0  0  0
 17 18  1  0  0  0  0
 18 23  2  0  0  0  0
 18 19  1  0  0  0  0
 19 20  2  0  0  0  0
 20 21  1  0  0  0  0
 21 22  2  0  0  0  0
 22 23  1  0  0  0  0
M  END
$$$$
CHR-SOS-709-17
  -OEChem-03232022352D

 27 29  0     0  0  0  0  0  0999 V2000
   -0.0066   -5.0166    0.0000 N   0  0  0  0  0  0  0  0  0  0  0  0
    0.8579   -4.5140    0.0000 S   0  0  0  0  0  0  0  0  0  0  0  0
    0.3554   -3.6495    0.0000 O   0  0  0  0  0  0  0  0  0  0  0  0
    1.3605   -5.3786    0.0000 O   0  0  0  0  0  0  0  0  0  0  0  0
    1.7225   -4.0115    0.0000 C   0  0  0  0  0  0  0  0  0  0  0  0
    2.5930   -4.5141    0.0000 C   0  0  0  0  0  0  0  0  0  0  0  0
    3.4576   -4.0115    0.0000 C   0  0  0  0  0  0  0  0  0  0  0  0
    3.4605   -3.0115    0.0000 C   0  0  0  0  0  0  0  0  0  0  0  0
    2.5900   -2.5089    0.0000 C   0  0  0  0  0  0  0  0  0  0  0  0
    2.5929   -1.5089    0.0000 O   0  0  0  0  0  0  0  0  0  0  0  0
    3.4604   -1.0115    0.0000 C   0  0  0  0  0  0  0  0  0  0  0  0
    4.3257   -1.5128    0.0000 C   0  0  0  0  0  0  0  0  0  0  0  0
    5.1954   -1.0191    0.0000 C   0  0  0  0  0  0  0  0  0  0  0  0
    5.1998   -0.0139    0.0000 C   0  0  0  0  0  0  0  0  0  0  0  0
    6.0695    0.4797    0.0000 Cl  0  0  0  0  0  0  0  0  0  0  0  0
    4.3346    0.4976    0.0000 C   0  0  0  0  0  0  0  0  0  0  0  0
    3.4648   -0.0063    0.0000 C   0  0  0  0  0  0  0  0  0  0  0  0
    2.5995    0.4950    0.0000 C   0  0  0  0  0  0  0  0  0  0  0  0
    2.6010    1.4950    0.0000 O   0  0  0  0  0  0  0  0  0  0  0  0
    1.7328   -0.0038    0.0000 N   0  0  0  0  0  0  0  0  0  0  0  0
    0.8675    0.4975    0.0000 C   0  0  0  0  0  0  0  0  0  0  0  0
    0.0000    0.0000    0.0000 C   0  0  0  0  0  0  0  0  0  0  0  0
   -0.8675    0.4975    0.0000 C   0  0  0  0  0  0  0  0  0  0  0  0
   -0.8675    1.5027    0.0000 C   0  0  0  0  0  0  0  0  0  0  0  0
    0.0000    2.0104    0.0000 N   0  0  0  0  0  0  0  0  0  0  0  0
    0.8675    1.5027    0.0000 C   0  0  0  0  0  0  0  0  0  0  0  0
    1.7165   -3.0063    0.0000 C   0  0  0  0  0  0  0  0  0  0  0  0
  1  2  1  0  0  0  0
  2  3  2  0  0  0  0
  2  4  2  0  0  0  0
  2  5  1  0  0  0  0
  5 27  2  0  0  0  0
  5  6  1  0  0  0  0
  6  7  2  0  0  0  0
  7  8  1  0  0  0  0
  8  9  2  0  0  0  0
  9 10  1  0  0  0  0
 10 11  1  0  0  0  0
 11 17  2  0  0  0  0
 11 12  1  0  0  0  0
 12 13  2  0  0  0  0
 13 14  1  0  0  0  0
 14 15  1  0  0  0  0
 14 16  2  0  0  0  0
 16 17  1  0  0  0  0
 17 18  1  0  0  0  0
 18 19  2  0  0  0  0
 18 20  1  0  0  0  0
 20 21  1  0  0  0  0
 21 26  2  0  0  0  0
 21 22  1  0  0  0  0
 22 23  2  0  0  0  0
 23 24  1  0  0  0  0
 24 25  2  0  0  0  0
 25 26  1  0  0  0  0
  9 27  1  0  0  0  0
M  END
$$$$
CHR-SOS-709-18
  -OEChem-03232022352D

 23 25  0     0  0  0  0  0  0999 V2000
    0.8646   -1.5025    0.0000 O   0  0  0  0  0  0  0  0  0  0  0  0
    1.7313   -1.0038    0.0000 C   0  0  0  0  0  0  0  0  0  0  0  0
    1.7328   -0.0038    0.0000 N   0  0  0  0  0  0  0  0  0  0  0  0
    0.8675    0.4975    0.0000 C   0  0  0  0  0  0  0  0  0  0  0  0
    0.0000    0.0000    0.0000 C   0  0  0  0  0  0  0  0  0  0  0  0
   -0.8675    0.4975    0.0000 C   0  0  0  0  0  0  0  0  0  0  0  0
   -0.8675    1.5027    0.0000 C   0  0  0  0  0  0  0  0  0  0  0  0
    0.0000    2.0104    0.0000 N   0  0  0  0  0  0  0  0  0  0  0  0
    0.8675    1.5027    0.0000 C   0  0  0  0  0  0  0  0  0  0  0  0
    2.5966   -1.5050    0.0000 C   0  0  0  0  0  0  0  0  0  0  0  0
    2.5922   -2.5102    0.0000 C   0  0  0  0  0  0  0  0  0  0  0  0
    3.4575   -3.0115    0.0000 C   0  0  0  0  0  0  0  0  0  0  0  0
    3.4531   -4.0115    0.0000 Cl  0  0  0  0  0  0  0  0  0  0  0  0
    4.3272   -2.5178    0.0000 C   0  0  0  0  0  0  0  0  0  0  0  0
    4.3316   -1.5126    0.0000 C   0  0  0  0  0  0  0  0  0  0  0  0
    5.2013   -1.0190    0.0000 O   0  0  0  0  0  0  0  0  0  0  0  0
    5.2087   -0.0191    0.0000 C   0  0  0  0  0  0  0  0  0  0  0  0
    4.3404    0.4874    0.0000 C   0  0  0  0  0  0  0  0  0  0  0  0
    4.3477    1.4874    0.0000 C   0  0  0  0  0  0  0  0  0  0  0  0
    5.2145    1.9861    0.0000 C   0  0  0  0  0  0  0  0  0  0  0  0
    6.0828    1.4797    0.0000 C   0  0  0  0  0  0  0  0  0  0  0  0
    6.0843    0.4745    0.0000 C   0  0  0  0  0  0  0  0  0  0  0  0
    3.4664   -1.0011    0.0000 C   0  0  0  0  0  0  0  0  0  0  0  0
  1  2  2  0  0  0  0
  2  3  1  0  0  0  0
  3  4  1  0  0  0  0
  4  9  2  0  0  0  0
  4  5  1  0  0  0  0
  5  6  2  0  0  0  0
  6  7  1  0  0  0  0
  7  8  2  0  0  0  0
  8  9  1  0  0  0  0
  2 10  1  0  0  0  0
 10 23  2  0  0  0  0
 10 11  1  0  0  0  0
 11 12  2  0  0  0  0
 12 13  1  0  0  0  0
 12 14  1  0  0  0  0
 14 15  2  0  0  0  0
 15 16  1  0  0  0  0
 16 17  1  0  0  0  0
 17 22  2  0  0  0  0
 17 18  1  0  0  0  0
 18 19  2  0  0  0  0
 19 20  1  0  0  0  0
 20 21  2  0  0  0  0
 21 22  1  0  0  0  0
 15 23  1  0  0  0  0
M  END
$$$$
CHR-SOS-709-19
  -OEChem-03232022352D

 27 29  0     0  0  0  0  0  0999 V2000
    0.0113   -5.0218    0.0000 N   0  0  0  0  0  0  0  0  0  0  0  0
    0.8773   -4.5218    0.0000 S   0  0  0  0  0  0  0  0  0  0  0  0
    0.3772   -3.6558    0.0000 O   0  0  0  0  0  0  0  0  0  0  0  0
    1.3773   -5.3878    0.0000 O   0  0  0  0  0  0  0  0  0  0  0  0
    1.7433   -4.0218    0.0000 C   0  0  0  0  0  0  0  0  0  0  0  0
    1.7403   -3.0166    0.0000 C   0  0  0  0  0  0  0  0  0  0  0  0
    2.6063   -2.5165    0.0000 C   0  0  0  0  0  0  0  0  0  0  0  0
    3.4753   -3.0114    0.0000 C   0  0  0  0  0  0  0  0  0  0  0  0
    4.3391   -2.5075    0.0000 O   0  0  0  0  0  0  0  0  0  0  0  0
    4.3346   -1.5075    0.0000 C   0  0  0  0  0  0  0  0  0  0  0  0
    5.2044   -1.0036    0.0000 C   0  0  0  0  0  0  0  0  0  0  0  0
    5.2000   -0.0036    0.0000 C   0  0  0  0  0  0  0  0  0  0  0  0
    6.0652    0.4977    0.0000 Cl  0  0  0  0  0  0  0  0  0  0  0  0
    4.3346    0.4976    0.0000 C   0  0  0  0  0  0  0  0  0  0  0  0
    3.4648   -0.0063    0.0000 C   0  0  0  0  0  0  0  0  0  0  0  0
    2.5995    0.4950    0.0000 C   0  0  0  0  0  0  0  0  0  0  0  0
    2.6010    1.4950    0.0000 O   0  0  0  0  0  0  0  0  0  0  0  0
    1.7328   -0.0038    0.0000 N   0  0  0  0  0  0  0  0  0  0  0  0
    0.8675    0.4975    0.0000 C   0  0  0  0  0  0  0  0  0  0  0  0
    0.0000    0.0000    0.0000 C   0  0  0  0  0  0  0  0  0  0  0  0
   -0.8675    0.4975    0.0000 C   0  0  0  0  0  0  0  0  0  0  0  0
   -0.8675    1.5027    0.0000 C   0  0  0  0  0  0  0  0  0  0  0  0
    0.0000    2.0104    0.0000 N   0  0  0  0  0  0  0  0  0  0  0  0
    0.8675    1.5027    0.0000 C   0  0  0  0  0  0  0  0  0  0  0  0
    3.4604   -1.0114    0.0000 C   0  0  0  0  0  0  0  0  0  0  0  0
    3.4783   -4.0166    0.0000 C   0  0  0  0  0  0  0  0  0  0  0  0
    2.6123   -4.5269    0.0000 C   0  0  0  0  0  0  0  0  0  0  0  0
  1  2  1  0  0  0  0
  2  3  2  0  0  0  0
  2  4  2  0  0  0  0
  2  5  1  0  0  0  0
  5 27  2  0  0  0  0
  5  6  1  0  0  0  0
  6  7  2  0  0  0  0
  7  8  1  0  0  0  0
  8  9  1  0  0  0  0
  9 10  1  0  0  0  0
 10 25  2  0  0  0  0
 10 11  1  0  0  0  0
 11 12  2  0  0  0  0
 12 13  1  0  0  0  0
 12 14  1  0  0  0  0
 14 15  2  0  0  0  0
 15 16  1  0  0  0  0
 16 17  2  0  0  0  0
 16 18  1  0  0  0  0
 18 19  1  0  0  0  0
 19 24  2  0  0  0  0
 19 20  1  0  0  0  0
 20 21  2  0  0  0  0
 21 22  1  0  0  0  0
 22 23  2  0  0  0  0
 23 24  1  0  0  0  0
 15 25  1  0  0  0  0
  8 26  2  0  0  0  0
 26 27  1  0  0  0  0
M  END
$$$$
CHR-SOS-709-20
  -OEChem-03232022352D

 23 25  0     0  0  0  0  0  0999 V2000
    0.8646   -1.5025    0.0000 O   0  0  0  0  0  0  0  0  0  0  0  0
    1.7313   -1.0038    0.0000 C   0  0  0  0  0  0  0  0  0  0  0  0
    1.7328   -0.0038    0.0000 N   0  0  0  0  0  0  0  0  0  0  0  0
    0.8675    0.4975    0.0000 C   0  0  0  0  0  0  0  0  0  0  0  0
    0.0000    0.0000    0.0000 C   0  0  0  0  0  0  0  0  0  0  0  0
   -0.8675    0.4975    0.0000 C   0  0  0  0  0  0  0  0  0  0  0  0
   -0.8675    1.5027    0.0000 C   0  0  0  0  0  0  0  0  0  0  0  0
    0.0000    2.0104    0.0000 N   0  0  0  0  0  0  0  0  0  0  0  0
    0.8675    1.5027    0.0000 C   0  0  0  0  0  0  0  0  0  0  0  0
    2.5966   -1.5050    0.0000 C   0  0  0  0  0  0  0  0  0  0  0  0
    2.5922   -2.5102    0.0000 C   0  0  0  0  0  0  0  0  0  0  0  0
    3.4575   -3.0115    0.0000 C   0  0  0  0  0  0  0  0  0  0  0  0
    3.4531   -4.0115    0.0000 Cl  0  0  0  0  0  0  0  0  0  0  0  0
    4.3272   -2.5178    0.0000 C   0  0  0  0  0  0  0  0  0  0  0  0
    4.3316   -1.5126    0.0000 C   0  0  0  0  0  0  0  0  0  0  0  0
    5.2013   -1.0190    0.0000 O   0  0  0  0  0  0  0  0  0  0  0  0
    5.2087   -0.0191    0.0000 C   0  0  0  0  0  0  0  0  0  0  0  0
    4.3404    0.4874    0.0000 C   0  0  0  0  0  0  0  0  0  0  0  0
    4.3477    1.4874    0.0000 C   0  0  0  0  0  0  0  0  0  0  0  0
    5.2145    1.9861    0.0000 C   0  0  0  0  0  0  0  0  0  0  0  0
    6.0828    1.4797    0.0000 C   0  0  0  0  0  0  0  0  0  0  0  0
    6.0843    0.4745    0.0000 C   0  0  0  0  0  0  0  0  0  0  0  0
    3.4664   -1.0011    0.0000 C   0  0  0  0  0  0  0  0  0  0  0  0
  1  2  2  0  0  0  0
  2  3  1  0  0  0  0
  3  4  1  0  0  0  0
  4  9  2  0  0  0  0
  4  5  1  0  0  0  0
  5  6  2  0  0  0  0
  6  7  1  0  0  0  0
  7  8  2  0  0  0  0
  8  9  1  0  0  0  0
  2 10  1  0  0  0  0
 10 23  2  0  0  0  0
 10 11  1  0  0  0  0
 11 12  2  0  0  0  0
 12 13  1  0  0  0  0
 12 14  1  0  0  0  0
 14 15  2  0  0  0  0
 15 16  1  0  0  0  0
 16 17  1  0  0  0  0
 17 22  2  0  0  0  0
 17 18  1  0  0  0  0
 18 19  2  0  0  0  0
 19 20  1  0  0  0  0
 20 21  2  0  0  0  0
 21 22  1  0  0  0  0
 15 23  1  0  0  0  0
M  END
$$$$
CHR-SOS-709-21
  -OEChem-03232022352D

 17 18  0     0  0  0  0  0  0999 V2000
    0.8646   -1.5025    0.0000 O   0  0  0  0  0  0  0  0  0  0  0  0
    1.7313   -1.0038    0.0000 C   0  0  0  0  0  0  0  0  0  0  0  0
    1.7328   -0.0038    0.0000 N   0  0  0  0  0  0  0  0  0  0  0  0
    0.8675    0.4975    0.0000 C   0  0  0  0  0  0  0  0  0  0  0  0
    0.8675    1.5027    0.0000 C   0  0  0  0  0  0  0  0  0  0  0  0
   -0.0000    2.0104    0.0000 N   0  0  0  0  0  0  0  0  0  0  0  0
   -0.8675    1.5027    0.0000 C   0  0  0  0  0  0  0  0  0  0  0  0
   -0.8675    0.4975    0.0000 C   0  0  0  0  0  0  0  0  0  0  0  0
    0.0000    0.0000    0.0000 C   0  0  0  0  0  0  0  0  0  0  0  0
    0.0000   -1.0000    0.0000 Cl  0  0  0  0  0  0  0  0  0  0  0  0
    2.5966   -1.5050    0.0000 C   0  0  0  0  0  0  0  0  0  0  0  0
    2.5922   -2.5102    0.0000 C   0  0  0  0  0  0  0  0  0  0  0  0
    3.4575   -3.0115    0.0000 C   0  0  0  0  0  0  0  0  0  0  0  0
    4.3272   -2.5178    0.0000 C   0  0  0  0  0  0  0  0  0  0  0  0
    4.3316   -1.5126    0.0000 C   0  0  0  0  0  0  0  0  0  0  0  0
    5.2013   -1.0190    0.0000 Cl  0  0  0  0  0  0  0  0  0  0  0  0
    3.4664   -1.0011    0.0000 C   0  0  0  0  0  0  0  0  0  0  0  0
  1  2  2  0  0  0  0
  2  3  1  0  0  0  0
  3  4  1  0  0  0  0
  4  9  2  0  0  0  0
  4  5  1  0  0  0  0
  5  6  2  0  0  0  0
  6  7  1  0  0  0  0
  7  8  2  0  0  0  0
  8  9  1  0  0  0  0
  9 10  1  0  0  0  0
  2 11  1  0  0  0  0
 11 17  2  0  0  0  0
 11 12  1  0  0  0  0
 12 13  2  0  0  0  0
 13 14  1  0  0  0  0
 14 15  2  0  0  0  0
 15 16  1  0  0  0  0
 15 17  1  0  0  0  0
M  END
$$$$
CHR-SOS-709-22
  -OEChem-03232022352D

 27 29  0     0  0  0  0  0  0999 V2000
   -0.0020   -2.0422    0.0000 N   0  0  0  0  0  0  0  0  0  0  0  0
    0.8692   -2.5332    0.0000 S   0  0  0  0  0  0  0  0  0  0  0  0
    1.3602   -1.6620    0.0000 O   0  0  0  0  0  0  0  0  0  0  0  0
    0.3781   -3.4043    0.0000 O   0  0  0  0  0  0  0  0  0  0  0  0
    1.7403   -3.0242    0.0000 C   0  0  0  0  0  0  0  0  0  0  0  0
    1.7477   -4.0294    0.0000 C   0  0  0  0  0  0  0  0  0  0  0  0
    2.6189   -4.5204    0.0000 C   0  0  0  0  0  0  0  0  0  0  0  0
    3.4827   -4.0165    0.0000 C   0  0  0  0  0  0  0  0  0  0  0  0
    3.4753   -3.0114    0.0000 C   0  0  0  0  0  0  0  0  0  0  0  0
    4.3391   -2.5075    0.0000 O   0  0  0  0  0  0  0  0  0  0  0  0
    4.3346   -1.5075    0.0000 C   0  0  0  0  0  0  0  0  0  0  0  0
    5.2044   -1.0036    0.0000 C   0  0  0  0  0  0  0  0  0  0  0  0
    5.2000   -0.0036    0.0000 C   0  0  0  0  0  0  0  0  0  0  0  0
    6.0652    0.4977    0.0000 Cl  0  0  0  0  0  0  0  0  0  0  0  0
    4.3346    0.4976    0.0000 C   0  0  0  0  0  0  0  0  0  0  0  0
    3.4648   -0.0063    0.0000 C   0  0  0  0  0  0  0  0  0  0  0  0
    2.5995    0.4950    0.0000 C   0  0  0  0  0  0  0  0  0  0  0  0
    2.6010    1.4950    0.0000 O   0  0  0  0  0  0  0  0  0  0  0  0
    1.7328   -0.0038    0.0000 N   0  0  0  0  0  0  0  0  0  0  0  0
    0.8675    0.4975    0.0000 C   0  0  0  0  0  0  0  0  0  0  0  0
    0.0000    0.0000    0.0000 C   0  0  0  0  0  0  0  0  0  0  0  0
   -0.8675    0.4975    0.0000 C   0  0  0  0  0  0  0  0  0  0  0  0
   -0.8675    1.5027    0.0000 C   0  0  0  0  0  0  0  0  0  0  0  0
    0.0000    2.0104    0.0000 N   0  0  0  0  0  0  0  0  0  0  0  0
    0.8675    1.5027    0.0000 C   0  0  0  0  0  0  0  0  0  0  0  0
    3.4604   -1.0114    0.0000 C   0  0  0  0  0  0  0  0  0  0  0  0
    2.6040   -2.5101    0.0000 C   0  0  0  0  0  0  0  0  0  0  0  0
  1  2  1  0  0  0  0
  2  3  2  0  0  0  0
  2  4  2  0  0  0  0
  2  5  1  0  0  0  0
  5 27  2  0  0  0  0
  5  6  1  0  0  0  0
  6  7  2  0  0  0  0
  7  8  1  0  0  0  0
  8  9  2  0  0  0  0
  9 10  1  0  0  0  0
 10 11  1  0  0  0  0
 11 26  2  0  0  0  0
 11 12  1  0  0  0  0
 12 13  2  0  0  0  0
 13 14  1  0  0  0  0
 13 15  1  0  0  0  0
 15 16  2  0  0  0  0
 16 17  1  0  0  0  0
 17 18  2  0  0  0  0
 17 19  1  0  0  0  0
 19 20  1  0  0  0  0
 20 25  2  0  0  0  0
 20 21  1  0  0  0  0
 21 22  2  0  0  0  0
 22 23  1  0  0  0  0
 23 24  2  0  0  0  0
 24 25  1  0  0  0  0
 16 26  1  0  0  0  0
  9 27  1  0  0  0  0
M  END
$$$$
WAR-XCH-6eb-1
  -OEChem-03232022352D

 25 26  0     0  0  0  0  0  0999 V2000
    6.0644   -0.5062    0.0000 C   0  0  0  0  0  0  0  0  0  0  0  0
    6.0645   -1.5062    0.0000 S   0  0  0  0  0  0  0  0  0  0  0  0
    5.0645   -1.5062    0.0000 O   0  0  0  0  0  0  0  0  0  0  0  0
    7.0645   -1.5061    0.0000 O   0  0  0  0  0  0  0  0  0  0  0  0
    6.0645   -2.5062    0.0000 N   0  0  0  0  0  0  0  0  0  0  0  0
    5.1985   -3.0062    0.0000 C   0  0  0  0  0  0  0  0  0  0  0  0
    4.3325   -2.5063    0.0000 C   0  0  0  0  0  0  0  0  0  0  0  0
    3.4665   -3.0063    0.0000 C   0  0  0  0  0  0  0  0  0  0  0  0
    3.4651   -4.0063    0.0000 C   0  0  0  0  0  0  0  0  0  0  0  0
    2.6012   -4.5102    0.0000 C   0  0  0  0  0  0  0  0  0  0  0  0
    1.7299   -4.0089    0.0000 C   0  0  0  0  0  0  0  0  0  0  0  0
    0.8662   -4.5127    0.0000 C   0  0  0  0  0  0  0  0  0  0  0  0
    0.0024   -5.0166    0.0000 N   0  0  0  0  0  0  0  0  0  0  0  0
    1.7225   -3.0037    0.0000 C   0  0  0  0  0  0  0  0  0  0  0  0
    2.5952   -2.5050    0.0000 C   0  0  0  0  0  0  0  0  0  0  0  0
    2.5966   -1.5050    0.0000 N   0  0  0  0  0  0  0  0  0  0  0  0
    1.7313   -1.0038    0.0000 C   0  0  0  0  0  0  0  0  0  0  0  0
    0.8646   -1.5025    0.0000 O   0  0  0  0  0  0  0  0  0  0  0  0
    1.7328   -0.0038    0.0000 N   0  0  0  0  0  0  0  0  0  0  0  0
    0.8675    0.4975    0.0000 C   0  0  0  0  0  0  0  0  0  0  0  0
    0.0000    0.0000    0.0000 C   0  0  0  0  0  0  0  0  0  0  0  0
   -0.8675    0.4975    0.0000 C   0  0  0  0  0  0  0  0  0  0  0  0
   -0.8675    1.5027    0.0000 C   0  0  0  0  0  0  0  0  0  0  0  0
    0.0000    2.0104    0.0000 N   0  0  0  0  0  0  0  0  0  0  0  0
    0.8675    1.5027    0.0000 C   0  0  0  0  0  0  0  0  0  0  0  0
  1  2  1  0  0  0  0
  2  3  2  0  0  0  0
  2  4  2  0  0  0  0
  2  5  1  0  0  0  0
  5  6  1  0  0  0  0
  6  7  1  0  0  0  0
  7  8  1  0  0  0  0
  8 15  2  0  0  0  0
  8  9  1  0  0  0  0
  9 10  2  0  0  0  0
 10 11  1  0  0  0  0
 11 12  1  0  0  0  0
 12 13  3  0  0  0  0
 11 14  2  0  0  0  0
 14 15  1  0  0  0  0
 15 16  1  0  0  0  0
 16 17  1  0  0  0  0
 17 18  2  0  0  0  0
 17 19  1  0  0  0  0
 19 20  1  0  0  0  0
 20 25  2  0  0  0  0
 20 21  1  0  0  0  0
 21 22  2  0  0  0  0
 22 23  1  0  0  0  0
 23 24  2  0  0  0  0
 24 25  1  0  0  0  0
M  END
$$$$
WAR-XCH-6eb-2
  -OEChem-03232022352D

 25 26  0     0  0  0  0  0  0999 V2000
   -3.4707   -1.9885    0.0000 C   0  0  0  0  0  0  0  0  0  0  0  0
   -2.6062   -2.4910    0.0000 S   0  0  0  0  0  0  0  0  0  0  0  0
   -2.1036   -1.6265    0.0000 O   0  0  0  0  0  0  0  0  0  0  0  0
   -3.1087   -3.3556    0.0000 O   0  0  0  0  0  0  0  0  0  0  0  0
   -1.7416   -2.9936    0.0000 N   0  0  0  0  0  0  0  0  0  0  0  0
   -0.8741   -2.4961    0.0000 C   0  0  0  0  0  0  0  0  0  0  0  0
   -0.0096   -2.9987    0.0000 C   0  0  0  0  0  0  0  0  0  0  0  0
    0.8579   -2.5012    0.0000 C   0  0  0  0  0  0  0  0  0  0  0  0
    1.7225   -3.0038    0.0000 C   0  0  0  0  0  0  0  0  0  0  0  0
    1.7210   -4.0038    0.0000 C   0  0  0  0  0  0  0  0  0  0  0  0
    2.5833   -4.5101    0.0000 C   0  0  0  0  0  0  0  0  0  0  0  0
    3.4561   -4.0114    0.0000 C   0  0  0  0  0  0  0  0  0  0  0  0
    4.3184   -4.5177    0.0000 Cl  0  0  0  0  0  0  0  0  0  0  0  0
    3.4664   -3.0063    0.0000 C   0  0  0  0  0  0  0  0  0  0  0  0
    2.5952   -2.5050    0.0000 C   0  0  0  0  0  0  0  0  0  0  0  0
    2.5966   -1.5050    0.0000 N   0  0  0  0  0  0  0  0  0  0  0  0
    1.7313   -1.0038    0.0000 C   0  0  0  0  0  0  0  0  0  0  0  0
    0.8646   -1.5025    0.0000 O   0  0  0  0  0  0  0  0  0  0  0  0
    1.7328   -0.0038    0.0000 N   0  0  0  0  0  0  0  0  0  0  0  0
    0.8675    0.4975    0.0000 C   0  0  0  0  0  0  0  0  0  0  0  0
    0.0000    0.0000    0.0000 C   0  0  0  0  0  0  0  0  0  0  0  0
   -0.8675    0.4975    0.0000 C   0  0  0  0  0  0  0  0  0  0  0  0
   -0.8675    1.5027    0.0000 C   0  0  0  0  0  0  0  0  0  0  0  0
    0.0000    2.0104    0.0000 N   0  0  0  0  0  0  0  0  0  0  0  0
    0.8675    1.5027    0.0000 C   0  0  0  0  0  0  0  0  0  0  0  0
  1  2  1  0  0  0  0
  2  3  2  0  0  0  0
  2  4  2  0  0  0  0
  2  5  1  0  0  0  0
  5  6  1  0  0  0  0
  6  7  1  0  0  0  0
  7  8  1  0  0  0  0
  8  9  1  0  0  0  0
  9 15  2  0  0  0  0
  9 10  1  0  0  0  0
 10 11  2  0  0  0  0
 11 12  1  0  0  0  0
 12 13  1  0  0  0  0
 12 14  2  0  0  0  0
 14 15  1  0  0  0  0
 15 16  1  0  0  0  0
 16 17  1  0  0  0  0
 17 18  2  0  0  0  0
 17 19  1  0  0  0  0
 19 20  1  0  0  0  0
 20 25  2  0  0  0  0
 20 21  1  0  0  0  0
 21 22  2  0  0  0  0
 22 23  1  0  0  0  0
 23 24  2  0  0  0  0
 24 25  1  0  0  0  0
M  END
$$$$
WAR-XCH-6eb-3
  -OEChem-03232022352D

 26 27  0     0  0  0  0  0  0999 V2000
   -3.4707   -1.9885    0.0000 C   0  0  0  0  0  0  0  0  0  0  0  0
   -2.6062   -2.4910    0.0000 S   0  0  0  0  0  0  0  0  0  0  0  0
   -2.1036   -1.6265    0.0000 O   0  0  0  0  0  0  0  0  0  0  0  0
   -3.1087   -3.3556    0.0000 O   0  0  0  0  0  0  0  0  0  0  0  0
   -1.7416   -2.9936    0.0000 N   0  0  0  0  0  0  0  0  0  0  0  0
   -0.8741   -2.4961    0.0000 C   0  0  0  0  0  0  0  0  0  0  0  0
   -0.0096   -2.9987    0.0000 C   0  0  0  0  0  0  0  0  0  0  0  0
    0.8579   -2.5012    0.0000 C   0  0  0  0  0  0  0  0  0  0  0  0
    1.7225   -3.0038    0.0000 C   0  0  0  0  0  0  0  0  0  0  0  0
    1.7210   -4.0038    0.0000 C   0  0  0  0  0  0  0  0  0  0  0  0
    2.5833   -4.5101    0.0000 C   0  0  0  0  0  0  0  0  0  0  0  0
    3.4561   -4.0114    0.0000 C   0  0  0  0  0  0  0  0  0  0  0  0
    4.3184   -4.5177    0.0000 C   0  0  0  0  0  0  0  0  0  0  0  0
    5.1807   -5.0241    0.0000 N   0  0  0  0  0  0  0  0  0  0  0  0
    3.4664   -3.0063    0.0000 C   0  0  0  0  0  0  0  0  0  0  0  0
    2.5952   -2.5050    0.0000 C   0  0  0  0  0  0  0  0  0  0  0  0
    2.5966   -1.5050    0.0000 N   0  0  0  0  0  0  0  0  0  0  0  0
    1.7313   -1.0038    0.0000 C   0  0  0  0  0  0  0  0  0  0  0  0
    0.8646   -1.5025    0.0000 O   0  0  0  0  0  0  0  0  0  0  0  0
    1.7328   -0.0038    0.0000 N   0  0  0  0  0  0  0  0  0  0  0  0
    0.8675    0.4975    0.0000 C   0  0  0  0  0  0  0  0  0  0  0  0
    0.0000    0.0000    0.0000 C   0  0  0  0  0  0  0  0  0  0  0  0
   -0.8675    0.4975    0.0000 C   0  0  0  0  0  0  0  0  0  0  0  0
   -0.8675    1.5027    0.0000 C   0  0  0  0  0  0  0  0  0  0  0  0
    0.0000    2.0104    0.0000 N   0  0  0  0  0  0  0  0  0  0  0  0
    0.8675    1.5027    0.0000 C   0  0  0  0  0  0  0  0  0  0  0  0
  1  2  1  0  0  0  0
  2  3  2  0  0  0  0
  2  4  2  0  0  0  0
  2  5  1  0  0  0  0
  5  6  1  0  0  0  0
  6  7  1  0  0  0  0
  7  8  1  0  0  0  0
  8  9  1  0  0  0  0
  9 16  2  0  0  0  0
  9 10  1  0  0  0  0
 10 11  2  0  0  0  0
 11 12  1  0  0  0  0
 12 13  1  0  0  0  0
 13 14  3  0  0  0  0
 12 15  2  0  0  0  0
 15 16  1  0  0  0  0
 16 17  1  0  0  0  0
 17 18  1  0  0  0  0
 18 19  2  0  0  0  0
 18 20  1  0  0  0  0
 20 21  1  0  0  0  0
 21 26  2  0  0  0  0
 21 22  1  0  0  0  0
 22 23  2  0  0  0  0
 23 24  1  0  0  0  0
 24 25  2  0  0  0  0
 25 26  1  0  0  0  0
M  END
$$$$
WAR-XCH-6eb-4
  -OEChem-03232022352D

 24 25  0     0  0  0  0  0  0999 V2000
    6.0644   -0.5062    0.0000 C   0  0  0  0  0  0  0  0  0  0  0  0
    6.0645   -1.5062    0.0000 S   0  0  0  0  0  0  0  0  0  0  0  0
    5.0645   -1.5062    0.0000 O   0  0  0  0  0  0  0  0  0  0  0  0
    7.0645   -1.5061    0.0000 O   0  0  0  0  0  0  0  0  0  0  0  0
    6.0645   -2.5062    0.0000 N   0  0  0  0  0  0  0  0  0  0  0  0
    5.1985   -3.0062    0.0000 C   0  0  0  0  0  0  0  0  0  0  0  0
    4.3325   -2.5063    0.0000 C   0  0  0  0  0  0  0  0  0  0  0  0
    3.4665   -3.0063    0.0000 C   0  0  0  0  0  0  0  0  0  0  0  0
    3.4651   -4.0063    0.0000 C   0  0  0  0  0  0  0  0  0  0  0  0
    2.6012   -4.5102    0.0000 C   0  0  0  0  0  0  0  0  0  0  0  0
    1.7299   -4.0089    0.0000 C   0  0  0  0  0  0  0  0  0  0  0  0
    0.8662   -4.5127    0.0000 Cl  0  0  0  0  0  0  0  0  0  0  0  0
    1.7225   -3.0037    0.0000 C   0  0  0  0  0  0  0  0  0  0  0  0
    2.5952   -2.5050    0.0000 C   0  0  0  0  0  0  0  0  0  0  0  0
    2.5966   -1.5050    0.0000 N   0  0  0  0  0  0  0  0  0  0  0  0
    1.7313   -1.0038    0.0000 C   0  0  0  0  0  0  0  0  0  0  0  0
    0.8646   -1.5025    0.0000 O   0  0  0  0  0  0  0  0  0  0  0  0
    1.7328   -0.0038    0.0000 N   0  0  0  0  0  0  0  0  0  0  0  0
    0.8675    0.4975    0.0000 C   0  0  0  0  0  0  0  0  0  0  0  0
    0.0000    0.0000    0.0000 C   0  0  0  0  0  0  0  0  0  0  0  0
   -0.8675    0.4975    0.0000 C   0  0  0  0  0  0  0  0  0  0  0  0
   -0.8675    1.5027    0.0000 C   0  0  0  0  0  0  0  0  0  0  0  0
    0.0000    2.0104    0.0000 N   0  0  0  0  0  0  0  0  0  0  0  0
    0.8675    1.5027    0.0000 C   0  0  0  0  0  0  0  0  0  0  0  0
  1  2  1  0  0  0  0
  2  3  2  0  0  0  0
  2  4  2  0  0  0  0
  2  5  1  0  0  0  0
  5  6  1  0  0  0  0
  6  7  1  0  0  0  0
  7  8  1  0  0  0  0
  8 14  2  0  0  0  0
  8  9  1  0  0  0  0
  9 10  2  0  0  0  0
 10 11  1  0  0  0  0
 11 12  1  0  0  0  0
 11 13  2  0  0  0  0
 13 14  1  0  0  0  0
 14 15  1  0  0  0  0
 15 16  1  0  0  0  0
 16 17  2  0  0  0  0
 16 18  1  0  0  0  0
 18 19  1  0  0  0  0
 19 24  2  0  0  0  0
 19 20  1  0  0  0  0
 20 21  2  0  0  0  0
 21 22  1  0  0  0  0
 22 23  2  0  0  0  0
 23 24  1  0  0  0  0
M  END
$$$$
WAR-XCH-6eb-5
  -OEChem-03232022352D

 24 25  0     0  0  0  0  0  0999 V2000
    0.8662   -4.5127    0.0000 C   0  0  0  0  0  0  0  0  0  0  0  0
    1.7299   -4.0089    0.0000 C   0  0  0  0  0  0  0  0  0  0  0  0
    2.6012   -4.5102    0.0000 C   0  0  0  0  0  0  0  0  0  0  0  0
    3.4651   -4.0063    0.0000 C   0  0  0  0  0  0  0  0  0  0  0  0
    3.4665   -3.0063    0.0000 C   0  0  0  0  0  0  0  0  0  0  0  0
    4.3325   -2.5063    0.0000 C   0  0  0  0  0  0  0  0  0  0  0  0
    4.3324   -1.5063    0.0000 C   0  0  0  0  0  0  0  0  0  0  0  0
    5.1984   -1.0062    0.0000 N   0  0  0  0  0  0  0  0  0  0  0  0
    5.1984   -0.0062    0.0000 S   0  0  0  0  0  0  0  0  0  0  0  0
    5.1983    0.9938    0.0000 C   0  0  0  0  0  0  0  0  0  0  0  0
    4.1984   -0.0063    0.0000 O   0  0  0  0  0  0  0  0  0  0  0  0
    6.1984   -0.0062    0.0000 O   0  0  0  0  0  0  0  0  0  0  0  0
    2.5952   -2.5050    0.0000 C   0  0  0  0  0  0  0  0  0  0  0  0
    2.5966   -1.5050    0.0000 N   0  0  0  0  0  0  0  0  0  0  0  0
    1.7313   -1.0038    0.0000 C   0  0  0  0  0  0  0  0  0  0  0  0
    0.8646   -1.5025    0.0000 O   0  0  0  0  0  0  0  0  0  0  0  0
    1.7328   -0.0038    0.0000 N   0  0  0  0  0  0  0  0  0  0  0  0
    0.8675    0.4975    0.0000 C   0  0  0  0  0  0  0  0  0  0  0  0
    0.0000    0.0000    0.0000 C   0  0  0  0  0  0  0  0  0  0  0  0
   -0.8675    0.4975    0.0000 C   0  0  0  0  0  0  0  0  0  0  0  0
   -0.8675    1.5027    0.0000 C   0  0  0  0  0  0  0  0  0  0  0  0
    0.0000    2.0104    0.0000 N   0  0  0  0  0  0  0  0  0  0  0  0
    0.8675    1.5027    0.0000 C   0  0  0  0  0  0  0  0  0  0  0  0
    1.7225   -3.0037    0.0000 C   0  0  0  0  0  0  0  0  0  0  0  0
  1  2  1  0  0  0  0
  2 24  2  0  0  0  0
  2  3  1  0  0  0  0
  3  4  2  0  0  0  0
  4  5  1  0  0  0  0
  5  6  1  0  0  0  0
  6  7  1  0  0  0  0
  7  8  1  0  0  0  0
  8  9  1  0  0  0  0
  9 10  1  0  0  0  0
  9 11  2  0  0  0  0
  9 12  2  0  0  0  0
  5 13  2  0  0  0  0
 13 14  1  0  0  0  0
 14 15  1  0  0  0  0
 15 16  2  0  0  0  0
 15 17  1  0  0  0  0
 17 18  1  0  0  0  0
 18 23  2  0  0  0  0
 18 19  1  0  0  0  0
 19 20  2  0  0  0  0
 20 21  1  0  0  0  0
 21 22  2  0  0  0  0
 22 23  1  0  0  0  0
 13 24  1  0  0  0  0
M  END
$$$$
WAR-XCH-6eb-6
  -OEChem-03232022352D

 25 26  0     0  0  0  0  0  0999 V2000
    0.8662   -4.5127    0.0000 C   0  0  0  0  0  0  0  0  0  0  0  0
    1.7299   -4.0089    0.0000 C   0  0  0  0  0  0  0  0  0  0  0  0
    2.6012   -4.5102    0.0000 C   0  0  0  0  0  0  0  0  0  0  0  0
    3.4651   -4.0063    0.0000 C   0  0  0  0  0  0  0  0  0  0  0  0
    3.4665   -3.0063    0.0000 C   0  0  0  0  0  0  0  0  0  0  0  0
    4.3325   -2.5063    0.0000 C   0  0  0  0  0  0  0  0  0  0  0  0
    4.3324   -1.5063    0.0000 C   0  0  0  0  0  0  0  0  0  0  0  0
    5.1984   -1.0062    0.0000 C   0  0  0  0  0  0  0  0  0  0  0  0
    5.1984   -0.0062    0.0000 N   0  0  0  0  0  0  0  0  0  0  0  0
    6.0644    0.4938    0.0000 S   0  0  0  0  0  0  0  0  0  0  0  0
    6.9304    0.9939    0.0000 C   0  0  0  0  0  0  0  0  0  0  0  0
    5.5643    1.3598    0.0000 O   0  0  0  0  0  0  0  0  0  0  0  0
    6.5644   -0.3722    0.0000 O   0  0  0  0  0  0  0  0  0  0  0  0
    2.5952   -2.5050    0.0000 C   0  0  0  0  0  0  0  0  0  0  0  0
    2.5966   -1.5050    0.0000 N   0  0  0  0  0  0  0  0  0  0  0  0
    1.7313   -1.0038    0.0000 C   0  0  0  0  0  0  0  0  0  0  0  0
    0.8646   -1.5025    0.0000 O   0  0  0  0  0  0  0  0  0  0  0  0
    1.7328   -0.0038    0.0000 N   0  0  0  0  0  0  0  0  0  0  0  0
    0.8675    0.4975    0.0000 C   0  0  0  0  0  0  0  0  0  0  0  0
    0.0000    0.0000    0.0000 C   0  0  0  0  0  0  0  0  0  0  0  0
   -0.8675    0.4975    0.0000 C   0  0  0  0  0  0  0  0  0  0  0  0
   -0.8675    1.5027    0.0000 C   0  0  0  0  0  0  0  0  0  0  0  0
    0.0000    2.0104    0.0000 N   0  0  0  0  0  0  0  0  0  0  0  0
    0.8675    1.5027    0.0000 C   0  0  0  0  0  0  0  0  0  0  0  0
    1.7225   -3.0037    0.0000 C   0  0  0  0  0  0  0  0  0  0  0  0
  1  2  1  0  0  0  0
  2 25  2  0  0  0  0
  2  3  1  0  0  0  0
  3  4  2  0  0  0  0
  4  5  1  0  0  0  0
  5  6  1  0  0  0  0
  6  7  1  0  0  0  0
  7  8  1  0  0  0  0
  8  9  1  0  0  0  0
  9 10  1  0  0  0  0
 10 11  1  0  0  0  0
 10 12  2  0  0  0  0
 10 13  2  0  0  0  0
  5 14  2  0  0  0  0
 14 15  1  0  0  0  0
 15 16  1  0  0  0  0
 16 17  2  0  0  0  0
 16 18  1  0  0  0  0
 18 19  1  0  0  0  0
 19 24  2  0  0  0  0
 19 20  1  0  0  0  0
 20 21  2  0  0  0  0
 21 22  1  0  0  0  0
 22 23  2  0  0  0  0
 23 24  1  0  0  0  0
 14 25  1  0  0  0  0
M  END
$$$$
CHR-SOS-6c4-1
  -OEChem-03232022352D

 25 27  0     0  0  0  0  0  0999 V2000
   -0.0000   -1.0000    0.0000 C   0  0  0  0  0  0  0  0  0  0  0  0
    0.0000    0.0000    0.0000 C   0  0  0  0  0  0  0  0  0  0  0  0
   -0.8675    0.4975    0.0000 C   0  0  0  0  0  0  0  0  0  0  0  0
   -0.8675    1.5027    0.0000 C   0  0  0  0  0  0  0  0  0  0  0  0
    0.0000    2.0104    0.0000 N   0  0  0  0  0  0  0  0  0  0  0  0
    0.8675    1.5027    0.0000 C   0  0  0  0  0  0  0  0  0  0  0  0
    0.8675    0.4975    0.0000 C   0  0  0  0  0  0  0  0  0  0  0  0
    1.7328   -0.0038    0.0000 N   0  0  0  0  0  0  0  0  0  0  0  0
    2.5995    0.4950    0.0000 C   0  0  0  0  0  0  0  0  0  0  0  0
    2.6010    1.4950    0.0000 O   0  0  0  0  0  0  0  0  0  0  0  0
    3.4648   -0.0063    0.0000 N   0  0  0  0  0  0  0  0  0  0  0  0
    4.3316    0.4925    0.0000 C   0  0  0  0  0  0  0  0  0  0  0  0
    4.6704   -0.4484    0.0000 C   0  0  0  0  0  0  0  0  0  0  0  0
    5.0092   -1.3892    0.0000 C   0  0  0  0  0  0  0  0  0  0  0  0
    5.3480   -2.3301    0.0000 C   0  0  0  0  0  0  0  0  0  0  0  0
    4.6970   -3.0960    0.0000 C   0  0  0  0  0  0  0  0  0  0  0  0
    5.0358   -4.0369    0.0000 C   0  0  0  0  0  0  0  0  0  0  0  0
    6.0190   -4.2197    0.0000 C   0  0  0  0  0  0  0  0  0  0  0  0
    6.6700   -3.4538    0.0000 C   0  0  0  0  0  0  0  0  0  0  0  0
    6.3378   -2.5051    0.0000 N   0  0  0  0  0  0  0  0  0  0  0  0
    5.3225    0.6617    0.0000 C   0  0  0  0  0  0  0  0  0  0  0  0
    5.6668    1.6006    0.0000 C   0  0  0  0  0  0  0  0  0  0  0  0
    5.0304    2.3719    0.0000 C   0  0  0  0  0  0  0  0  0  0  0  0
    4.0395    2.2027    0.0000 C   0  0  0  0  0  0  0  0  0  0  0  0
    3.6851    1.2621    0.0000 C   0  0  0  0  0  0  0  0  0  0  0  0
  1  2  1  0  0  0  0
  2  7  2  0  0  0  0
  2  3  1  0  0  0  0
  3  4  2  0  0  0  0
  4  5  1  0  0  0  0
  5  6  2  0  0  0  0
  6  7  1  0  0  0  0
  7  8  1  0  0  0  0
  8  9  1  0  0  0  0
  9 10  2  0  0  0  0
  9 11  1  0  0  0  0
 11 12  1  0  0  0  0
 12 25  1  0  0  0  0
 12 13  1  0  0  0  0
 13 14  3  0  0  0  0
 14 15  1  0  0  0  0
 15 20  2  0  0  0  0
 15 16  1  0  0  0  0
 16 17  2  0  0  0  0
 17 18  1  0  0  0  0
 18 19  2  0  0  0  0
 19 20  1  0  0  0  0
 12 21  1  0  0  0  0
 21 22  1  0  0  0  0
 22 23  1  0  0  0  0
 23 24  1  0  0  0  0
 24 25  1  0  0  0  0
M  END
$$$$
CHR-SOS-6c4-2
  -OEChem-03232022352D

 25 27  0     0  0  0  0  0  0999 V2000
   -0.0000   -1.0000    0.0000 C   0  0  0  0  0  0  0  0  0  0  0  0
    0.0000    0.0000    0.0000 C   0  0  0  0  0  0  0  0  0  0  0  0
   -0.8675    0.4975    0.0000 C   0  0  0  0  0  0  0  0  0  0  0  0
   -0.8675    1.5027    0.0000 C   0  0  0  0  0  0  0  0  0  0  0  0
    0.0000    2.0104    0.0000 N   0  0  0  0  0  0  0  0  0  0  0  0
    0.8675    1.5027    0.0000 C   0  0  0  0  0  0  0  0  0  0  0  0
    0.8675    0.4975    0.0000 C   0  0  0  0  0  0  0  0  0  0  0  0
    1.7328   -0.0038    0.0000 N   0  0  0  0  0  0  0  0  0  0  0  0
    2.5995    0.4950    0.0000 C   0  0  0  0  0  0  0  0  0  0  0  0
    2.6010    1.4950    0.0000 O   0  0  0  0  0  0  0  0  0  0  0  0
    3.4648   -0.0063    0.0000 N   0  0  0  0  0  0  0  0  0  0  0  0
    4.3316    0.4925    0.0000 C   0  0  0  0  0  0  0  0  0  0  0  0
    4.6704   -0.4484    0.0000 C   0  0  0  0  0  0  0  0  0  0  0  0
    5.0092   -1.3892    0.0000 C   0  0  0  0  0  0  0  0  0  0  0  0
    5.3480   -2.3301    0.0000 C   0  0  0  0  0  0  0  0  0  0  0  0
    4.7037   -3.0949    0.0000 C   0  0  0  0  0  0  0  0  0  0  0  0
    5.0384   -4.0373    0.0000 C   0  0  0  0  0  0  0  0  0  0  0  0
    6.0275   -4.2166    0.0000 C   0  0  0  0  0  0  0  0  0  0  0  0
    6.6818   -3.4536    0.0000 N   0  0  0  0  0  0  0  0  0  0  0  0
    6.3371   -2.5095    0.0000 C   0  0  0  0  0  0  0  0  0  0  0  0
    5.3225    0.6617    0.0000 C   0  0  0  0  0  0  0  0  0  0  0  0
    5.6668    1.6006    0.0000 C   0  0  0  0  0  0  0  0  0  0  0  0
    5.0304    2.3719    0.0000 C   0  0  0  0  0  0  0  0  0  0  0  0
    4.0395    2.2027    0.0000 C   0  0  0  0  0  0  0  0  0  0  0  0
    3.6851    1.2621    0.0000 C   0  0  0  0  0  0  0  0  0  0  0  0
  1  2  1  0  0  0  0
  2  7  2  0  0  0  0
  2  3  1  0  0  0  0
  3  4  2  0  0  0  0
  4  5  1  0  0  0  0
  5  6  2  0  0  0  0
  6  7  1  0  0  0  0
  7  8  1  0  0  0  0
  8  9  1  0  0  0  0
  9 10  2  0  0  0  0
  9 11  1  0  0  0  0
 11 12  1  0  0  0  0
 12 25  1  0  0  0  0
 12 13  1  0  0  0  0
 13 14  3  0  0  0  0
 14 15  1  0  0  0  0
 15 20  2  0  0  0  0
 15 16  1  0  0  0  0
 16 17  2  0  0  0  0
 17 18  1  0  0  0  0
 18 19  2  0  0  0  0
 19 20  1  0  0  0  0
 12 21  1  0  0  0  0
 21 22  1  0  0  0  0
 22 23  1  0  0  0  0
 23 24  1  0  0  0  0
 24 25  1  0  0  0  0
M  END
$$$$
CHR-SOS-6c4-3
  -OEChem-03232022352D

 25 27  0     0  0  0  0  0  0999 V2000
   -0.0000   -1.0000    0.0000 C   0  0  0  0  0  0  0  0  0  0  0  0
    0.0000    0.0000    0.0000 C   0  0  0  0  0  0  0  0  0  0  0  0
   -0.8675    0.4975    0.0000 C   0  0  0  0  0  0  0  0  0  0  0  0
   -0.8675    1.5027    0.0000 C   0  0  0  0  0  0  0  0  0  0  0  0
    0.0000    2.0104    0.0000 N   0  0  0  0  0  0  0  0  0  0  0  0
    0.8675    1.5027    0.0000 C   0  0  0  0  0  0  0  0  0  0  0  0
    0.8675    0.4975    0.0000 C   0  0  0  0  0  0  0  0  0  0  0  0
    1.7328   -0.0038    0.0000 N   0  0  0  0  0  0  0  0  0  0  0  0
    2.5995    0.4950    0.0000 C   0  0  0  0  0  0  0  0  0  0  0  0
    2.6010    1.4950    0.0000 O   0  0  0  0  0  0  0  0  0  0  0  0
    3.4648   -0.0063    0.0000 N   0  0  0  0  0  0  0  0  0  0  0  0
    4.3316    0.4925    0.0000 C   0  0  0  0  0  0  0  0  0  0  0  0
    4.6704   -0.4484    0.0000 C   0  0  0  0  0  0  0  0  0  0  0  0
    5.0092   -1.3892    0.0000 C   0  0  0  0  0  0  0  0  0  0  0  0
    5.3480   -2.3301    0.0000 C   0  0  0  0  0  0  0  0  0  0  0  0
    4.7004   -3.0989    0.0000 C   0  0  0  0  0  0  0  0  0  0  0  0
    5.0367   -4.0461    0.0000 N   0  0  0  0  0  0  0  0  0  0  0  0
    6.0273   -4.2167    0.0000 C   0  0  0  0  0  0  0  0  0  0  0  0
    6.6749   -3.4479    0.0000 N   0  0  0  0  0  0  0  0  0  0  0  0
    6.3320   -2.5085    0.0000 C   0  0  0  0  0  0  0  0  0  0  0  0
    5.3225    0.6617    0.0000 C   0  0  0  0  0  0  0  0  0  0  0  0
    5.6668    1.6006    0.0000 C   0  0  0  0  0  0  0  0  0  0  0  0
    5.0304    2.3719    0.0000 C   0  0  0  0  0  0  0  0  0  0  0  0
    4.0395    2.2027    0.0000 C   0  0  0  0  0  0  0  0  0  0  0  0
    3.6851    1.2621    0.0000 C   0  0  0  0  0  0  0  0  0  0  0  0
  1  2  1  0  0  0  0
  2  7  2  0  0  0  0
  2  3  1  0  0  0  0
  3  4  2  0  0  0  0
  4  5  1  0  0  0  0
  5  6  2  0  0  0  0
  6  7  1  0  0  0  0
  7  8  1  0  0  0  0
  8  9  1  0  0  0  0
  9 10  2  0  0  0  0
  9 11  1  0  0  0  0
 11 12  1  0  0  0  0
 12 25  1  0  0  0  0
 12 13  1  0  0  0  0
 13 14  3  0  0  0  0
 14 15  1  0  0  0  0
 15 20  2  0  0  0  0
 15 16  1  0  0  0  0
 16 17  2  0  0  0  0
 17 18  1  0  0  0  0
 18 19  2  0  0  0  0
 19 20  1  0  0  0  0
 12 21  1  0  0  0  0
 21 22  1  0  0  0  0
 22 23  1  0  0  0  0
 23 24  1  0  0  0  0
 24 25  1  0  0  0  0
M  END
$$$$
CHR-SOS-6c4-4
  -OEChem-03232022352D

 24 26  0     0  0  0  0  0  0999 V2000
   -0.0000   -1.0000    0.0000 C   0  0  0  0  0  0  0  0  0  0  0  0
    0.0000    0.0000    0.0000 C   0  0  0  0  0  0  0  0  0  0  0  0
   -0.8675    0.4975    0.0000 C   0  0  0  0  0  0  0  0  0  0  0  0
   -0.8675    1.5027    0.0000 C   0  0  0  0  0  0  0  0  0  0  0  0
    0.0000    2.0104    0.0000 N   0  0  0  0  0  0  0  0  0  0  0  0
    0.8675    1.5027    0.0000 C   0  0  0  0  0  0  0  0  0  0  0  0
    0.8675    0.4975    0.0000 C   0  0  0  0  0  0  0  0  0  0  0  0
    1.7328   -0.0038    0.0000 N   0  0  0  0  0  0  0  0  0  0  0  0
    2.5995    0.4950    0.0000 C   0  0  0  0  0  0  0  0  0  0  0  0
    2.6010    1.4950    0.0000 O   0  0  0  0  0  0  0  0  0  0  0  0
    3.4648   -0.0063    0.0000 N   0  0  0  0  0  0  0  0  0  0  0  0
    4.3316    0.4925    0.0000 C   0  0  0  0  0  0  0  0  0  0  0  0
    4.7376   -0.4214    0.0000 C   0  0  0  0  0  0  0  0  0  0  0  0
    5.1436   -1.3353    0.0000 C   0  0  0  0  0  0  0  0  0  0  0  0
    5.5496   -2.2492    0.0000 C   0  0  0  0  0  0  0  0  0  0  0  0
    4.9557   -3.0601    0.0000 C   0  0  0  0  0  0  0  0  0  0  0  0
    5.3617   -3.9741    0.0000 C   0  0  0  0  0  0  0  0  0  0  0  0
    6.3555   -4.0852    0.0000 C   0  0  0  0  0  0  0  0  0  0  0  0
    6.9494   -3.2742    0.0000 C   0  0  0  0  0  0  0  0  0  0  0  0
    6.5494   -2.3521    0.0000 N   0  0  0  0  0  0  0  0  0  0  0  0
    5.2843    0.8018    0.0000 C   0  0  0  0  0  0  0  0  0  0  0  0
    5.2867    1.8032    0.0000 C   0  0  0  0  0  0  0  0  0  0  0  0
    4.3356    2.1121    0.0000 C   0  0  0  0  0  0  0  0  0  0  0  0
    3.7429    1.3063    0.0000 C   0  0  0  0  0  0  0  0  0  0  0  0
  1  2  1  0  0  0  0
  2  7  2  0  0  0  0
  2  3  1  0  0  0  0
  3  4  2  0  0  0  0
  4  5  1  0  0  0  0
  5  6  2  0  0  0  0
  6  7  1  0  0  0  0
  7  8  1  0  0  0  0
  8  9  1  0  0  0  0
  9 10  2  0  0  0  0
  9 11  1  0  0  0  0
 11 12  1  0  0  0  0
 12 24  1  0  0  0  0
 12 13  1  0  0  0  0
 13 14  3  0  0  0  0
 14 15  1  0  0  0  0
 15 20  2  0  0  0  0
 15 16  1  0  0  0  0
 16 17  2  0  0  0  0
 17 18  1  0  0  0  0
 18 19  2  0  0  0  0
 19 20  1  0  0  0  0
 12 21  1  0  0  0  0
 21 22  1  0  0  0  0
 22 23  1  0  0  0  0
 23 24  1  0  0  0  0
M  END
$$$$
CHR-SOS-6c4-5
  -OEChem-03232022352D

 24 26  0     0  0  0  0  0  0999 V2000
   -0.0000   -1.0000    0.0000 C   0  0  0  0  0  0  0  0  0  0  0  0
    0.0000    0.0000    0.0000 C   0  0  0  0  0  0  0  0  0  0  0  0
   -0.8675    0.4975    0.0000 C   0  0  0  0  0  0  0  0  0  0  0  0
   -0.8675    1.5027    0.0000 C   0  0  0  0  0  0  0  0  0  0  0  0
    0.0000    2.0104    0.0000 N   0  0  0  0  0  0  0  0  0  0  0  0
    0.8675    1.5027    0.0000 C   0  0  0  0  0  0  0  0  0  0  0  0
    0.8675    0.4975    0.0000 C   0  0  0  0  0  0  0  0  0  0  0  0
    1.7328   -0.0038    0.0000 N   0  0  0  0  0  0  0  0  0  0  0  0
    2.5995    0.4950    0.0000 C   0  0  0  0  0  0  0  0  0  0  0  0
    2.6010    1.4950    0.0000 O   0  0  0  0  0  0  0  0  0  0  0  0
    3.4648   -0.0063    0.0000 N   0  0  0  0  0  0  0  0  0  0  0  0
    4.3316    0.4925    0.0000 C   0  0  0  0  0  0  0  0  0  0  0  0
    4.7376   -0.4214    0.0000 C   0  0  0  0  0  0  0  0  0  0  0  0
    5.1436   -1.3353    0.0000 C   0  0  0  0  0  0  0  0  0  0  0  0
    5.5496   -2.2492    0.0000 C   0  0  0  0  0  0  0  0  0  0  0  0
    4.9623   -3.0586    0.0000 C   0  0  0  0  0  0  0  0  0  0  0  0
    5.3643   -3.9742    0.0000 C   0  0  0  0  0  0  0  0  0  0  0  0
    6.3638   -4.0816    0.0000 C   0  0  0  0  0  0  0  0  0  0  0  0
    6.9612   -3.2732    0.0000 N   0  0  0  0  0  0  0  0  0  0  0  0
    6.5490   -2.3565    0.0000 C   0  0  0  0  0  0  0  0  0  0  0  0
    5.2843    0.8018    0.0000 C   0  0  0  0  0  0  0  0  0  0  0  0
    5.2867    1.8032    0.0000 C   0  0  0  0  0  0  0  0  0  0  0  0
    4.3356    2.1121    0.0000 C   0  0  0  0  0  0  0  0  0  0  0  0
    3.7429    1.3063    0.0000 C   0  0  0  0  0  0  0  0  0  0  0  0
  1  2  1  0  0  0  0
  2  7  2  0  0  0  0
  2  3  1  0  0  0  0
  3  4  2  0  0  0  0
  4  5  1  0  0  0  0
  5  6  2  0  0  0  0
  6  7  1  0  0  0  0
  7  8  1  0  0  0  0
  8  9  1  0  0  0  0
  9 10  2  0  0  0  0
  9 11  1  0  0  0  0
 11 12  1  0  0  0  0
 12 24  1  0  0  0  0
 12 13  1  0  0  0  0
 13 14  3  0  0  0  0
 14 15  1  0  0  0  0
 15 20  2  0  0  0  0
 15 16  1  0  0  0  0
 16 17  2  0  0  0  0
 17 18  1  0  0  0  0
 18 19  2  0  0  0  0
 19 20  1  0  0  0  0
 12 21  1  0  0  0  0
 21 22  1  0  0  0  0
 22 23  1  0  0  0  0
 23 24  1  0  0  0  0
M  END
$$$$
CHR-SOS-6c4-6
  -OEChem-03232022352D

 24 26  0     0  0  0  0  0  0999 V2000
   -0.0000   -1.0000    0.0000 C   0  0  0  0  0  0  0  0  0  0  0  0
    0.0000    0.0000    0.0000 C   0  0  0  0  0  0  0  0  0  0  0  0
   -0.8675    0.4975    0.0000 C   0  0  0  0  0  0  0  0  0  0  0  0
   -0.8675    1.5027    0.0000 C   0  0  0  0  0  0  0  0  0  0  0  0
    0.0000    2.0104    0.0000 N   0  0  0  0  0  0  0  0  0  0  0  0
    0.8675    1.5027    0.0000 C   0  0  0  0  0  0  0  0  0  0  0  0
    0.8675    0.4975    0.0000 C   0  0  0  0  0  0  0  0  0  0  0  0
    1.7328   -0.0038    0.0000 N   0  0  0  0  0  0  0  0  0  0  0  0
    2.5995    0.4950    0.0000 C   0  0  0  0  0  0  0  0  0  0  0  0
    2.6010    1.4950    0.0000 O   0  0  0  0  0  0  0  0  0  0  0  0
    3.4648   -0.0063    0.0000 N   0  0  0  0  0  0  0  0  0  0  0  0
    4.3316    0.4925    0.0000 C   0  0  0  0  0  0  0  0  0  0  0  0
    4.7376   -0.4214    0.0000 C   0  0  0  0  0  0  0  0  0  0  0  0
    5.1436   -1.3353    0.0000 C   0  0  0  0  0  0  0  0  0  0  0  0
    5.5496   -2.2492    0.0000 C   0  0  0  0  0  0  0  0  0  0  0  0
    4.9593   -3.0628    0.0000 C   0  0  0  0  0  0  0  0  0  0  0  0
    5.3633   -3.9831    0.0000 N   0  0  0  0  0  0  0  0  0  0  0  0
    6.3636   -4.0817    0.0000 C   0  0  0  0  0  0  0  0  0  0  0  0
    6.9539   -3.2681    0.0000 N   0  0  0  0  0  0  0  0  0  0  0  0
    6.5439   -2.3559    0.0000 C   0  0  0  0  0  0  0  0  0  0  0  0
    5.2843    0.8018    0.0000 C   0  0  0  0  0  0  0  0  0  0  0  0
    5.2867    1.8032    0.0000 C   0  0  0  0  0  0  0  0  0  0  0  0
    4.3356    2.1121    0.0000 C   0  0  0  0  0  0  0  0  0  0  0  0
    3.7429    1.3063    0.0000 C   0  0  0  0  0  0  0  0  0  0  0  0
  1  2  1  0  0  0  0
  2  7  2  0  0  0  0
  2  3  1  0  0  0  0
  3  4  2  0  0  0  0
  4  5  1  0  0  0  0
  5  6  2  0  0  0  0
  6  7  1  0  0  0  0
  7  8  1  0  0  0  0
  8  9  1  0  0  0  0
  9 10  2  0  0  0  0
  9 11  1  0  0  0  0
 11 12  1  0  0  0  0
 12 24  1  0  0  0  0
 12 13  1  0  0  0  0
 13 14  3  0  0  0  0
 14 15  1  0  0  0  0
 15 20  2  0  0  0  0
 15 16  1  0  0  0  0
 16 17  2  0  0  0  0
 17 18  1  0  0  0  0
 18 19  2  0  0  0  0
 19 20  1  0  0  0  0
 12 21  1  0  0  0  0
 21 22  1  0  0  0  0
 22 23  1  0  0  0  0
 23 24  1  0  0  0  0
M  END
$$$$
CHR-SOS-6c4-7
  -OEChem-03232022352D

 23 25  0     0  0  0  0  0  0999 V2000
   -0.0000   -1.0000    0.0000 C   0  0  0  0  0  0  0  0  0  0  0  0
    0.0000    0.0000    0.0000 C   0  0  0  0  0  0  0  0  0  0  0  0
   -0.8675    0.4975    0.0000 C   0  0  0  0  0  0  0  0  0  0  0  0
   -0.8675    1.5027    0.0000 C   0  0  0  0  0  0  0  0  0  0  0  0
    0.0000    2.0104    0.0000 N   0  0  0  0  0  0  0  0  0  0  0  0
    0.8675    1.5027    0.0000 C   0  0  0  0  0  0  0  0  0  0  0  0
    0.8675    0.4975    0.0000 C   0  0  0  0  0  0  0  0  0  0  0  0
    1.7328   -0.0038    0.0000 N   0  0  0  0  0  0  0  0  0  0  0  0
    2.5995    0.4950    0.0000 C   0  0  0  0  0  0  0  0  0  0  0  0
    2.6010    1.4950    0.0000 O   0  0  0  0  0  0  0  0  0  0  0  0
    3.4648   -0.0063    0.0000 N   0  0  0  0  0  0  0  0  0  0  0  0
    4.3316    0.4925    0.0000 C   0  0  0  0  0  0  0  0  0  0  0  0
    3.8329    1.3592    0.0000 C   0  0  0  0  0  0  0  0  0  0  0  0
    3.3341    2.2260    0.0000 C   0  0  0  0  0  0  0  0  0  0  0  0
    2.8354    3.0927    0.0000 C   0  0  0  0  0  0  0  0  0  0  0  0
    1.8302    3.0912    0.0000 C   0  0  0  0  0  0  0  0  0  0  0  0
    1.3314    3.9580    0.0000 C   0  0  0  0  0  0  0  0  0  0  0  0
    1.8276    4.8262    0.0000 C   0  0  0  0  0  0  0  0  0  0  0  0
    2.8328    4.8277    0.0000 C   0  0  0  0  0  0  0  0  0  0  0  0
    3.3418    3.9610    0.0000 N   0  0  0  0  0  0  0  0  0  0  0  0
    4.8303   -0.3743    0.0000 C   0  0  0  0  0  0  0  0  0  0  0  0
    5.6971    0.1245    0.0000 C   0  0  0  0  0  0  0  0  0  0  0  0
    5.1983    0.9912    0.0000 C   0  0  0  0  0  0  0  0  0  0  0  0
  1  2  1  0  0  0  0
  2  7  2  0  0  0  0
  2  3  1  0  0  0  0
  3  4  2  0  0  0  0
  4  5  1  0  0  0  0
  5  6  2  0  0  0  0
  6  7  1  0  0  0  0
  7  8  1  0  0  0  0
  8  9  1  0  0  0  0
  9 10  2  0  0  0  0
  9 11  1  0  0  0  0
 11 12  1  0  0  0  0
 12 23  1  0  0  0  0
 12 13  1  0  0  0  0
 13 14  3  0  0  0  0
 14 15  1  0  0  0  0
 15 20  2  0  0  0  0
 15 16  1  0  0  0  0
 16 17  2  0  0  0  0
 17 18  1  0  0  0  0
 18 19  2  0  0  0  0
 19 20  1  0  0  0  0
 12 21  1  0  0  0  0
 21 22  1  0  0  0  0
 22 23  1  0  0  0  0
M  END
$$$$
CHR-SOS-6c4-8
  -OEChem-03232022352D

 23 25  0     0  0  0  0  0  0999 V2000
   -0.0000   -1.0000    0.0000 C   0  0  0  0  0  0  0  0  0  0  0  0
    0.0000    0.0000    0.0000 C   0  0  0  0  0  0  0  0  0  0  0  0
   -0.8675    0.4975    0.0000 C   0  0  0  0  0  0  0  0  0  0  0  0
   -0.8675    1.5027    0.0000 C   0  0  0  0  0  0  0  0  0  0  0  0
    0.0000    2.0104    0.0000 N   0  0  0  0  0  0  0  0  0  0  0  0
    0.8675    1.5027    0.0000 C   0  0  0  0  0  0  0  0  0  0  0  0
    0.8675    0.4975    0.0000 C   0  0  0  0  0  0  0  0  0  0  0  0
    1.7328   -0.0038    0.0000 N   0  0  0  0  0  0  0  0  0  0  0  0
    2.5995    0.4950    0.0000 C   0  0  0  0  0  0  0  0  0  0  0  0
    2.6010    1.4950    0.0000 O   0  0  0  0  0  0  0  0  0  0  0  0
    3.4648   -0.0063    0.0000 N   0  0  0  0  0  0  0  0  0  0  0  0
    4.3316    0.4925    0.0000 C   0  0  0  0  0  0  0  0  0  0  0  0
    3.8329    1.3592    0.0000 C   0  0  0  0  0  0  0  0  0  0  0  0
    3.3341    2.2260    0.0000 C   0  0  0  0  0  0  0  0  0  0  0  0
    2.8354    3.0927    0.0000 C   0  0  0  0  0  0  0  0  0  0  0  0
    1.8353    3.0956    0.0000 C   0  0  0  0  0  0  0  0  0  0  0  0
    1.3328    3.9602    0.0000 C   0  0  0  0  0  0  0  0  0  0  0  0
    1.8354    4.8308    0.0000 C   0  0  0  0  0  0  0  0  0  0  0  0
    2.8405    4.8367    0.0000 N   0  0  0  0  0  0  0  0  0  0  0  0
    3.3380    3.9633    0.0000 C   0  0  0  0  0  0  0  0  0  0  0  0
    4.8303   -0.3743    0.0000 C   0  0  0  0  0  0  0  0  0  0  0  0
    5.6971    0.1245    0.0000 C   0  0  0  0  0  0  0  0  0  0  0  0
    5.1983    0.9912    0.0000 C   0  0  0  0  0  0  0  0  0  0  0  0
  1  2  1  0  0  0  0
  2  7  2  0  0  0  0
  2  3  1  0  0  0  0
  3  4  2  0  0  0  0
  4  5  1  0  0  0  0
  5  6  2  0  0  0  0
  6  7  1  0  0  0  0
  7  8  1  0  0  0  0
  8  9  1  0  0  0  0
  9 10  2  0  0  0  0
  9 11  1  0  0  0  0
 11 12  1  0  0  0  0
 12 23  1  0  0  0  0
 12 13  1  0  0  0  0
 13 14  3  0  0  0  0
 14 15  1  0  0  0  0
 15 20  2  0  0  0  0
 15 16  1  0  0  0  0
 16 17  2  0  0  0  0
 17 18  1  0  0  0  0
 18 19  2  0  0  0  0
 19 20  1  0  0  0  0
 12 21  1  0  0  0  0
 21 22  1  0  0  0  0
 22 23  1  0  0  0  0
M  END
$$$$
CHR-SOS-6c4-9
  -OEChem-03232022352D

 23 25  0     0  0  0  0  0  0999 V2000
   -0.0000   -1.0000    0.0000 C   0  0  0  0  0  0  0  0  0  0  0  0
    0.0000    0.0000    0.0000 C   0  0  0  0  0  0  0  0  0  0  0  0
   -0.8675    0.4975    0.0000 C   0  0  0  0  0  0  0  0  0  0  0  0
   -0.8675    1.5027    0.0000 C   0  0  0  0  0  0  0  0  0  0  0  0
    0.0000    2.0104    0.0000 N   0  0  0  0  0  0  0  0  0  0  0  0
    0.8675    1.5027    0.0000 C   0  0  0  0  0  0  0  0  0  0  0  0
    0.8675    0.4975    0.0000 C   0  0  0  0  0  0  0  0  0  0  0  0
    1.7328   -0.0038    0.0000 N   0  0  0  0  0  0  0  0  0  0  0  0
    2.5995    0.4950    0.0000 C   0  0  0  0  0  0  0  0  0  0  0  0
    2.6010    1.4950    0.0000 O   0  0  0  0  0  0  0  0  0  0  0  0
    3.4648   -0.0063    0.0000 N   0  0  0  0  0  0  0  0  0  0  0  0
    4.3316    0.4925    0.0000 C   0  0  0  0  0  0  0  0  0  0  0  0
    3.8329    1.3592    0.0000 C   0  0  0  0  0  0  0  0  0  0  0  0
    3.3341    2.2260    0.0000 C   0  0  0  0  0  0  0  0  0  0  0  0
    2.8354    3.0927    0.0000 C   0  0  0  0  0  0  0  0  0  0  0  0
    1.8302    3.0956    0.0000 C   0  0  0  0  0  0  0  0  0  0  0  0
    1.3250    3.9646    0.0000 N   0  0  0  0  0  0  0  0  0  0  0  0
    1.8352    4.8306    0.0000 C   0  0  0  0  0  0  0  0  0  0  0  0
    2.8404    4.8277    0.0000 N   0  0  0  0  0  0  0  0  0  0  0  0
    3.3354    3.9588    0.0000 C   0  0  0  0  0  0  0  0  0  0  0  0
    4.8303   -0.3743    0.0000 C   0  0  0  0  0  0  0  0  0  0  0  0
    5.6971    0.1245    0.0000 C   0  0  0  0  0  0  0  0  0  0  0  0
    5.1983    0.9912    0.0000 C   0  0  0  0  0  0  0  0  0  0  0  0
  1  2  1  0  0  0  0
  2  7  2  0  0  0  0
  2  3  1  0  0  0  0
  3  4  2  0  0  0  0
  4  5  1  0  0  0  0
  5  6  2  0  0  0  0
  6  7  1  0  0  0  0
  7  8  1  0  0  0  0
  8  9  1  0  0  0  0
  9 10  2  0  0  0  0
  9 11  1  0  0  0  0
 11 12  1  0  0  0  0
 12 23  1  0  0  0  0
 12 13  1  0  0  0  0
 13 14  3  0  0  0  0
 14 15  1  0  0  0  0
 15 20  2  0  0  0  0
 15 16  1  0  0  0  0
 16 17  2  0  0  0  0
 17 18  1  0  0  0  0
 18 19  2  0  0  0  0
 19 20  1  0  0  0  0
 12 21  1  0  0  0  0
 21 22  1  0  0  0  0
 22 23  1  0  0  0  0
M  END
$$$$
CHR-SOS-6c4-10
  -OEChem-03232022352D

 22 24  0     0  0  0  0  0  0999 V2000
   -0.0000   -1.0000    0.0000 C   0  0  0  0  0  0  0  0  0  0  0  0
    0.0000    0.0000    0.0000 C   0  0  0  0  0  0  0  0  0  0  0  0
   -0.8675    0.4975    0.0000 C   0  0  0  0  0  0  0  0  0  0  0  0
   -0.8675    1.5027    0.0000 C   0  0  0  0  0  0  0  0  0  0  0  0
    0.0000    2.0104    0.0000 N   0  0  0  0  0  0  0  0  0  0  0  0
    0.8675    1.5027    0.0000 C   0  0  0  0  0  0  0  0  0  0  0  0
    0.8675    0.4975    0.0000 C   0  0  0  0  0  0  0  0  0  0  0  0
    1.7328   -0.0038    0.0000 N   0  0  0  0  0  0  0  0  0  0  0  0
    2.5995    0.4950    0.0000 C   0  0  0  0  0  0  0  0  0  0  0  0
    2.6010    1.4950    0.0000 O   0  0  0  0  0  0  0  0  0  0  0  0
    3.4648   -0.0063    0.0000 N   0  0  0  0  0  0  0  0  0  0  0  0
    4.3316    0.4925    0.0000 C   0  0  0  0  0  0  0  0  0  0  0  0
    3.9916    1.4329    0.0000 C   0  0  0  0  0  0  0  0  0  0  0  0
    3.6516    2.3733    0.0000 C   0  0  0  0  0  0  0  0  0  0  0  0
    3.3117    3.3138    0.0000 C   0  0  0  0  0  0  0  0  0  0  0  0
    2.3216    3.4876    0.0000 C   0  0  0  0  0  0  0  0  0  0  0  0
    1.9816    4.4280    0.0000 C   0  0  0  0  0  0  0  0  0  0  0  0
    2.6216    5.1964    0.0000 C   0  0  0  0  0  0  0  0  0  0  0  0
    3.6116    5.0226    0.0000 C   0  0  0  0  0  0  0  0  0  0  0  0
    3.9617    4.0804    0.0000 N   0  0  0  0  0  0  0  0  0  0  0  0
    4.9750   -0.2755    0.0000 C   0  0  0  0  0  0  0  0  0  0  0  0
    5.3188    0.6636    0.0000 C   0  0  0  0  0  0  0  0  0  0  0  0
  1  2  1  0  0  0  0
  2  7  2  0  0  0  0
  2  3  1  0  0  0  0
  3  4  2  0  0  0  0
  4  5  1  0  0  0  0
  5  6  2  0  0  0  0
  6  7  1  0  0  0  0
  7  8  1  0  0  0  0
  8  9  1  0  0  0  0
  9 10  2  0  0  0  0
  9 11  1  0  0  0  0
 11 12  1  0  0  0  0
 12 22  1  0  0  0  0
 12 13  1  0  0  0  0
 13 14  3  0  0  0  0
 14 15  1  0  0  0  0
 15 20  2  0  0  0  0
 15 16  1  0  0  0  0
 16 17  2  0  0  0  0
 17 18  1  0  0  0  0
 18 19  2  0  0  0  0
 19 20  1  0  0  0  0
 12 21  1  0  0  0  0
 21 22  1  0  0  0  0
M  END
$$$$
CHR-SOS-6c4-11
  -OEChem-03232022352D

 22 24  0     0  0  0  0  0  0999 V2000
   -0.0000   -1.0000    0.0000 C   0  0  0  0  0  0  0  0  0  0  0  0
    0.0000    0.0000    0.0000 C   0  0  0  0  0  0  0  0  0  0  0  0
   -0.8675    0.4975    0.0000 C   0  0  0  0  0  0  0  0  0  0  0  0
   -0.8675    1.5027    0.0000 C   0  0  0  0  0  0  0  0  0  0  0  0
    0.0000    2.0104    0.0000 N   0  0  0  0  0  0  0  0  0  0  0  0
    0.8675    1.5027    0.0000 C   0  0  0  0  0  0  0  0  0  0  0  0
    0.8675    0.4975    0.0000 C   0  0  0  0  0  0  0  0  0  0  0  0
    1.7328   -0.0038    0.0000 N   0  0  0  0  0  0  0  0  0  0  0  0
    2.5995    0.4950    0.0000 C   0  0  0  0  0  0  0  0  0  0  0  0
    2.6010    1.4950    0.0000 O   0  0  0  0  0  0  0  0  0  0  0  0
    3.4648   -0.0063    0.0000 N   0  0  0  0  0  0  0  0  0  0  0  0
    4.3316    0.4925    0.0000 C   0  0  0  0  0  0  0  0  0  0  0  0
    3.9916    1.4329    0.0000 C   0  0  0  0  0  0  0  0  0  0  0  0
    3.6516    2.3733    0.0000 C   0  0  0  0  0  0  0  0  0  0  0  0
    3.3117    3.3138    0.0000 C   0  0  0  0  0  0  0  0  0  0  0  0
    2.3275    3.4910    0.0000 C   0  0  0  0  0  0  0  0  0  0  0  0
    1.9834    4.4300    0.0000 C   0  0  0  0  0  0  0  0  0  0  0  0
    2.6301    5.1995    0.0000 C   0  0  0  0  0  0  0  0  0  0  0  0
    3.6208    5.0301    0.0000 N   0  0  0  0  0  0  0  0  0  0  0  0
    3.9584    4.0833    0.0000 C   0  0  0  0  0  0  0  0  0  0  0  0
    4.9750   -0.2755    0.0000 C   0  0  0  0  0  0  0  0  0  0  0  0
    5.3188    0.6636    0.0000 C   0  0  0  0  0  0  0  0  0  0  0  0
  1  2  1  0  0  0  0
  2  7  2  0  0  0  0
  2  3  1  0  0  0  0
  3  4  2  0  0  0  0
  4  5  1  0  0  0  0
  5  6  2  0  0  0  0
  6  7  1  0  0  0  0
  7  8  1  0  0  0  0
  8  9  1  0  0  0  0
  9 10  2  0  0  0  0
  9 11  1  0  0  0  0
 11 12  1  0  0  0  0
 12 22  1  0  0  0  0
 12 13  1  0  0  0  0
 13 14  3  0  0  0  0
 14 15  1  0  0  0  0
 15 20  2  0  0  0  0
 15 16  1  0  0  0  0
 16 17  2  0  0  0  0
 17 18  1  0  0  0  0
 18 19  2  0  0  0  0
 19 20  1  0  0  0  0
 12 21  1  0  0  0  0
 21 22  1  0  0  0  0
M  END
$$$$
CHR-SOS-6c4-12
  -OEChem-03232022352D

 22 24  0     0  0  0  0  0  0999 V2000
   -0.0000   -1.0000    0.0000 C   0  0  0  0  0  0  0  0  0  0  0  0
    0.0000    0.0000    0.0000 C   0  0  0  0  0  0  0  0  0  0  0  0
   -0.8675    0.4975    0.0000 C   0  0  0  0  0  0  0  0  0  0  0  0
   -0.8675    1.5027    0.0000 C   0  0  0  0  0  0  0  0  0  0  0  0
    0.0000    2.0104    0.0000 N   0  0  0  0  0  0  0  0  0  0  0  0
    0.8675    1.5027    0.0000 C   0  0  0  0  0  0  0  0  0  0  0  0
    0.8675    0.4975    0.0000 C   0  0  0  0  0  0  0  0  0  0  0  0
    1.7328   -0.0038    0.0000 N   0  0  0  0  0  0  0  0  0  0  0  0
    2.5995    0.4950    0.0000 C   0  0  0  0  0  0  0  0  0  0  0  0
    2.6010    1.4950    0.0000 O   0  0  0  0  0  0  0  0  0  0  0  0
    3.4648   -0.0063    0.0000 N   0  0  0  0  0  0  0  0  0  0  0  0
    4.3316    0.4925    0.0000 C   0  0  0  0  0  0  0  0  0  0  0  0
    3.9916    1.4329    0.0000 C   0  0  0  0  0  0  0  0  0  0  0  0
    3.6516    2.3733    0.0000 C   0  0  0  0  0  0  0  0  0  0  0  0
    3.3117    3.3138    0.0000 C   0  0  0  0  0  0  0  0  0  0  0  0
    2.3224    3.4919    0.0000 C   0  0  0  0  0  0  0  0  0  0  0  0
    1.9765    4.4357    0.0000 N   0  0  0  0  0  0  0  0  0  0  0  0
    2.6299    5.1995    0.0000 C   0  0  0  0  0  0  0  0  0  0  0  0
    3.6191    5.0213    0.0000 N   0  0  0  0  0  0  0  0  0  0  0  0
    3.9550    4.0794    0.0000 C   0  0  0  0  0  0  0  0  0  0  0  0
    4.9750   -0.2755    0.0000 C   0  0  0  0  0  0  0  0  0  0  0  0
    5.3188    0.6636    0.0000 C   0  0  0  0  0  0  0  0  0  0  0  0
  1  2  1  0  0  0  0
  2  7  2  0  0  0  0
  2  3  1  0  0  0  0
  3  4  2  0  0  0  0
  4  5  1  0  0  0  0
  5  6  2  0  0  0  0
  6  7  1  0  0  0  0
  7  8  1  0  0  0  0
  8  9  1  0  0  0  0
  9 10  2  0  0  0  0
  9 11  1  0  0  0  0
 11 12  1  0  0  0  0
 12 22  1  0  0  0  0
 12 13  1  0  0  0  0
 13 14  3  0  0  0  0
 14 15  1  0  0  0  0
 15 20  2  0  0  0  0
 15 16  1  0  0  0  0
 16 17  2  0  0  0  0
 17 18  1  0  0  0  0
 18 19  2  0  0  0  0
 19 20  1  0  0  0  0
 12 21  1  0  0  0  0
 21 22  1  0  0  0  0
M  END
$$$$
CHR-SOS-6c4-13
  -OEChem-03232022352D

 25 27  0     0  0  0  0  0  0999 V2000
   -0.0000   -1.0000    0.0000 C   0  0  0  0  0  0  0  0  0  0  0  0
    0.0000    0.0000    0.0000 C   0  0  0  0  0  0  0  0  0  0  0  0
   -0.8675    0.4975    0.0000 C   0  0  0  0  0  0  0  0  0  0  0  0
   -0.8675    1.5027    0.0000 C   0  0  0  0  0  0  0  0  0  0  0  0
    0.0000    2.0104    0.0000 N   0  0  0  0  0  0  0  0  0  0  0  0
    0.8675    1.5027    0.0000 C   0  0  0  0  0  0  0  0  0  0  0  0
    0.8675    0.4975    0.0000 C   0  0  0  0  0  0  0  0  0  0  0  0
    1.7328   -0.0038    0.0000 N   0  0  0  0  0  0  0  0  0  0  0  0
    2.5995    0.4950    0.0000 C   0  0  0  0  0  0  0  0  0  0  0  0
    2.6010    1.4950    0.0000 O   0  0  0  0  0  0  0  0  0  0  0  0
    3.4648   -0.0063    0.0000 N   0  0  0  0  0  0  0  0  0  0  0  0
    4.3316    0.4925    0.0000 C   0  0  0  0  0  0  0  0  0  0  0  0
    4.6704   -0.4484    0.0000 C   0  0  0  0  0  0  0  0  0  0  0  0
    5.0092   -1.3892    0.0000 C   0  0  0  0  0  0  0  0  0  0  0  0
    5.3480   -2.3301    0.0000 C   0  0  0  0  0  0  0  0  0  0  0  0
    4.7871   -3.1580    0.0000 C   0  0  0  0  0  0  0  0  0  0  0  0
    5.3965   -3.9514    0.0000 N   0  0  0  0  0  0  0  0  0  0  0  0
    5.1148   -4.9109    0.0000 C   0  0  0  0  0  0  0  0  0  0  0  0
    6.3420   -3.6118    0.0000 C   0  0  0  0  0  0  0  0  0  0  0  0
    6.3094   -2.6107    0.0000 N   0  0  0  0  0  0  0  0  0  0  0  0
    5.3225    0.6617    0.0000 C   0  0  0  0  0  0  0  0  0  0  0  0
    5.6668    1.6006    0.0000 C   0  0  0  0  0  0  0  0  0  0  0  0
    5.0304    2.3719    0.0000 C   0  0  0  0  0  0  0  0  0  0  0  0
    4.0395    2.2027    0.0000 C   0  0  0  0  0  0  0  0  0  0  0  0
    3.6851    1.2621    0.0000 C   0  0  0  0  0  0  0  0  0  0  0  0
  1  2  1  0  0  0  0
  2  7  2  0  0  0  0
  2  3  1  0  0  0  0
  3  4  2  0  0  0  0
  4  5  1  0  0  0  0
  5  6  2  0  0  0  0
  6  7  1  0  0  0  0
  7  8  1  0  0  0  0
  8  9  1  0  0  0  0
  9 10  2  0  0  0  0
  9 11  1  0  0  0  0
 11 12  1  0  0  0  0
 12 25  1  0  0  0  0
 12 13  1  0  0  0  0
 13 14  3  0  0  0  0
 14 15  1  0  0  0  0
 15 20  1  0  0  0  0
 15 16  2  0  0  0  0
 16 17  1  0  0  0  0
 17 18  1  0  0  0  0
 17 19  1  0  0  0  0
 19 20  2  0  0  0  0
 12 21  1  0  0  0  0
 21 22  1  0  0  0  0
 22 23  1  0  0  0  0
 23 24  1  0  0  0  0
 24 25  1  0  0  0  0
M  END
$$$$
CHR-SOS-6c4-14
  -OEChem-03232022352D

 24 26  0     0  0  0  0  0  0999 V2000
   -0.0000   -1.0000    0.0000 C   0  0  0  0  0  0  0  0  0  0  0  0
    0.0000    0.0000    0.0000 C   0  0  0  0  0  0  0  0  0  0  0  0
   -0.8675    0.4975    0.0000 C   0  0  0  0  0  0  0  0  0  0  0  0
   -0.8675    1.5027    0.0000 C   0  0  0  0  0  0  0  0  0  0  0  0
    0.0000    2.0104    0.0000 N   0  0  0  0  0  0  0  0  0  0  0  0
    0.8675    1.5027    0.0000 C   0  0  0  0  0  0  0  0  0  0  0  0
    0.8675    0.4975    0.0000 C   0  0  0  0  0  0  0  0  0  0  0  0
    1.7328   -0.0038    0.0000 N   0  0  0  0  0  0  0  0  0  0  0  0
    2.5995    0.4950    0.0000 C   0  0  0  0  0  0  0  0  0  0  0  0
    2.6010    1.4950    0.0000 O   0  0  0  0  0  0  0  0  0  0  0  0
    3.4648   -0.0063    0.0000 N   0  0  0  0  0  0  0  0  0  0  0  0
    4.3316    0.4925    0.0000 C   0  0  0  0  0  0  0  0  0  0  0  0
    4.7376   -0.4214    0.0000 C   0  0  0  0  0  0  0  0  0  0  0  0
    5.1436   -1.3353    0.0000 C   0  0  0  0  0  0  0  0  0  0  0  0
    5.5496   -2.2492    0.0000 C   0  0  0  0  0  0  0  0  0  0  0  0
    5.0500   -3.1155    0.0000 C   0  0  0  0  0  0  0  0  0  0  0  0
    5.7152   -3.8627    0.0000 N   0  0  0  0  0  0  0  0  0  0  0  0
    5.5037   -4.8401    0.0000 C   0  0  0  0  0  0  0  0  0  0  0  0
    6.6337   -3.4556    0.0000 C   0  0  0  0  0  0  0  0  0  0  0  0
    6.5288   -2.4595    0.0000 N   0  0  0  0  0  0  0  0  0  0  0  0
    5.2843    0.8018    0.0000 C   0  0  0  0  0  0  0  0  0  0  0  0
    5.2867    1.8032    0.0000 C   0  0  0  0  0  0  0  0  0  0  0  0
    4.3356    2.1121    0.0000 C   0  0  0  0  0  0  0  0  0  0  0  0
    3.7429    1.3063    0.0000 C   0  0  0  0  0  0  0  0  0  0  0  0
  1  2  1  0  0  0  0
  2  7  2  0  0  0  0
  2  3  1  0  0  0  0
  3  4  2  0  0  0  0
  4  5  1  0  0  0  0
  5  6  2  0  0  0  0
  6  7  1  0  0  0  0
  7  8  1  0  0  0  0
  8  9  1  0  0  0  0
  9 10  2  0  0  0  0
  9 11  1  0  0  0  0
 11 12  1  0  0  0  0
 12 24  1  0  0  0  0
 12 13  1  0  0  0  0
 13 14  3  0  0  0  0
 14 15  1  0  0  0  0
 15 20  1  0  0  0  0
 15 16  2  0  0  0  0
 16 17  1  0  0  0  0
 17 18  1  0  0  0  0
 17 19  1  0  0  0  0
 19 20  2  0  0  0  0
 12 21  1  0  0  0  0
 21 22  1  0  0  0  0
 22 23  1  0  0  0  0
 23 24  1  0  0  0  0
M  END
$$$$
CHR-SOS-6c4-15
  -OEChem-03232022352D

 23 25  0     0  0  0  0  0  0999 V2000
   -0.0000   -1.0000    0.0000 C   0  0  0  0  0  0  0  0  0  0  0  0
    0.0000    0.0000    0.0000 C   0  0  0  0  0  0  0  0  0  0  0  0
   -0.8675    0.4975    0.0000 C   0  0  0  0  0  0  0  0  0  0  0  0
   -0.8675    1.5027    0.0000 C   0  0  0  0  0  0  0  0  0  0  0  0
    0.0000    2.0104    0.0000 N   0  0  0  0  0  0  0  0  0  0  0  0
    0.8675    1.5027    0.0000 C   0  0  0  0  0  0  0  0  0  0  0  0
    0.8675    0.4975    0.0000 C   0  0  0  0  0  0  0  0  0  0  0  0
    1.7328   -0.0038    0.0000 N   0  0  0  0  0  0  0  0  0  0  0  0
    2.5995    0.4950    0.0000 C   0  0  0  0  0  0  0  0  0  0  0  0
    2.6010    1.4950    0.0000 O   0  0  0  0  0  0  0  0  0  0  0  0
    3.4648   -0.0063    0.0000 N   0  0  0  0  0  0  0  0  0  0  0  0
    4.3316    0.4925    0.0000 C   0  0  0  0  0  0  0  0  0  0  0  0
    3.8329    1.3592    0.0000 C   0  0  0  0  0  0  0  0  0  0  0  0
    3.3341    2.2260    0.0000 C   0  0  0  0  0  0  0  0  0  0  0  0
    2.8354    3.0927    0.0000 C   0  0  0  0  0  0  0  0  0  0  0  0
    1.8411    3.2000    0.0000 C   0  0  0  0  0  0  0  0  0  0  0  0
    1.6298    4.1779    0.0000 N   0  0  0  0  0  0  0  0  0  0  0  0
    0.7157    4.5833    0.0000 C   0  0  0  0  0  0  0  0  0  0  0  0
    2.5001    4.6797    0.0000 C   0  0  0  0  0  0  0  0  0  0  0  0
    3.2428    4.0076    0.0000 N   0  0  0  0  0  0  0  0  0  0  0  0
    4.8303   -0.3743    0.0000 C   0  0  0  0  0  0  0  0  0  0  0  0
    5.6971    0.1245    0.0000 C   0  0  0  0  0  0  0  0  0  0  0  0
    5.1983    0.9912    0.0000 C   0  0  0  0  0  0  0  0  0  0  0  0
  1  2  1  0  0  0  0
  2  7  2  0  0  0  0
  2  3  1  0  0  0  0
  3  4  2  0  0  0  0
  4  5  1  0  0  0  0
  5  6  2  0  0  0  0
  6  7  1  0  0  0  0
  7  8  1  0  0  0  0
  8  9  1  0  0  0  0
  9 10  2  0  0  0  0
  9 11  1  0  0  0  0
 11 12  1  0  0  0  0
 12 23  1  0  0  0  0
 12 13  1  0  0  0  0
 13 14  3  0  0  0  0
 14 15  1  0  0  0  0
 15 20  1  0  0  0  0
 15 16  2  0  0  0  0
 16 17  1  0  0  0  0
 17 18  1  0  0  0  0
 17 19  1  0  0  0  0
 19 20  2  0  0  0  0
 12 21  1  0  0  0  0
 21 22  1  0  0  0  0
 22 23  1  0  0  0  0
M  END
$$$$
CHR-SOS-6c4-16
  -OEChem-03232022352D

 22 24  0     0  0  0  0  0  0999 V2000
   -0.0000   -1.0000    0.0000 C   0  0  0  0  0  0  0  0  0  0  0  0
    0.0000    0.0000    0.0000 C   0  0  0  0  0  0  0  0  0  0  0  0
   -0.8675    0.4975    0.0000 C   0  0  0  0  0  0  0  0  0  0  0  0
   -0.8675    1.5027    0.0000 C   0  0  0  0  0  0  0  0  0  0  0  0
    0.0000    2.0104    0.0000 N   0  0  0  0  0  0  0  0  0  0  0  0
    0.8675    1.5027    0.0000 C   0  0  0  0  0  0  0  0  0  0  0  0
    0.8675    0.4975    0.0000 C   0  0  0  0  0  0  0  0  0  0  0  0
    1.7328   -0.0038    0.0000 N   0  0  0  0  0  0  0  0  0  0  0  0
    2.5995    0.4950    0.0000 C   0  0  0  0  0  0  0  0  0  0  0  0
    2.6010    1.4950    0.0000 O   0  0  0  0  0  0  0  0  0  0  0  0
    3.4648   -0.0063    0.0000 N   0  0  0  0  0  0  0  0  0  0  0  0
    4.3316    0.4925    0.0000 C   0  0  0  0  0  0  0  0  0  0  0  0
    3.9916    1.4329    0.0000 C   0  0  0  0  0  0  0  0  0  0  0  0
    3.6516    2.3733    0.0000 C   0  0  0  0  0  0  0  0  0  0  0  0
    3.3117    3.3138    0.0000 C   0  0  0  0  0  0  0  0  0  0  0  0
    2.3514    3.5928    0.0000 C   0  0  0  0  0  0  0  0  0  0  0  0
    2.3138    4.5925    0.0000 N   0  0  0  0  0  0  0  0  0  0  0  0
    1.4843    5.1512    0.0000 C   0  0  0  0  0  0  0  0  0  0  0  0
    3.2583    4.9349    0.0000 C   0  0  0  0  0  0  0  0  0  0  0  0
    3.8724    4.1436    0.0000 N   0  0  0  0  0  0  0  0  0  0  0  0
    4.9750   -0.2755    0.0000 C   0  0  0  0  0  0  0  0  0  0  0  0
    5.3188    0.6636    0.0000 C   0  0  0  0  0  0  0  0  0  0  0  0
  1  2  1  0  0  0  0
  2  7  2  0  0  0  0
  2  3  1  0  0  0  0
  3  4  2  0  0  0  0
  4  5  1  0  0  0  0
  5  6  2  0  0  0  0
  6  7  1  0  0  0  0
  7  8  1  0  0  0  0
  8  9  1  0  0  0  0
  9 10  2  0  0  0  0
  9 11  1  0  0  0  0
 11 12  1  0  0  0  0
 12 22  1  0  0  0  0
 12 13  1  0  0  0  0
 13 14  3  0  0  0  0
 14 15  1  0  0  0  0
 15 20  1  0  0  0  0
 15 16  2  0  0  0  0
 16 17  1  0  0  0  0
 17 18  1  0  0  0  0
 17 19  1  0  0  0  0
 19 20  2  0  0  0  0
 12 21  1  0  0  0  0
 21 22  1  0  0  0  0
M  END
$$$$
MIH-UNI-6b9-1
  -OEChem-03232022352D

 16 17  0     0  0  0  0  0  0999 V2000
   -0.0000   -1.0000    0.0000 C   0  0  0  0  0  0  0  0  0  0  0  0
    0.0000    0.0000    0.0000 C   0  0  0  0  0  0  0  0  0  0  0  0
   -0.8675    0.4975    0.0000 C   0  0  0  0  0  0  0  0  0  0  0  0
   -0.8675    1.5027    0.0000 C   0  0  0  0  0  0  0  0  0  0  0  0
    0.0000    2.0104    0.0000 N   0  0  0  0  0  0  0  0  0  0  0  0
    0.8675    1.5027    0.0000 C   0  0  0  0  0  0  0  0  0  0  0  0
    0.8675    0.4975    0.0000 C   0  0  0  0  0  0  0  0  0  0  0  0
    1.7328   -0.0038    0.0000 N   0  0  0  0  0  0  0  0  0  0  0  0
    2.5995    0.4950    0.0000 C   0  0  0  0  0  0  0  0  0  0  0  0
    2.6010    1.4950    0.0000 O   0  0  0  0  0  0  0  0  0  0  0  0
    3.4648   -0.0063    0.0000 C   0  0  0  0  0  0  0  0  0  0  0  0
    4.3316    0.4925    0.0000 C   0  0  0  0  0  0  0  0  0  0  0  0
    4.4365    1.4885    0.0000 C   0  0  0  0  0  0  0  0  0  0  0  0
    5.4153    1.6935    0.0000 C   0  0  0  0  0  0  0  0  0  0  0  0
    5.9184    0.8288    0.0000 S   0  0  0  0  0  0  0  0  0  0  0  0
    5.2456    0.0826    0.0000 C   0  0  0  0  0  0  0  0  0  0  0  0
  1  2  1  0  0  0  0
  2  7  2  0  0  0  0
  2  3  1  0  0  0  0
  3  4  2  0  0  0  0
  4  5  1  0  0  0  0
  5  6  2  0  0  0  0
  6  7  1  0  0  0  0
  7  8  1  0  0  0  0
  8  9  1  0  0  0  0
  9 10  2  0  0  0  0
  9 11  1  0  0  0  0
 11 12  1  0  0  0  0
 12 16  2  0  0  0  0
 12 13  1  0  0  0  0
 13 14  2  0  0  0  0
 14 15  1  0  0  0  0
 15 16  1  0  0  0  0
M  END
$$$$
MIH-UNI-6b9-2
  -OEChem-03232022352D

 24 26  0     1  0  0  0  0  0999 V2000
   -0.0000   -1.0000    0.0000 C   0  0  0  0  0  0  0  0  0  0  0  0
    0.0000    0.0000    0.0000 C   0  0  0  0  0  0  0  0  0  0  0  0
   -0.8675    0.4975    0.0000 C   0  0  0  0  0  0  0  0  0  0  0  0
   -0.8675    1.5027    0.0000 C   0  0  0  0  0  0  0  0  0  0  0  0
    0.0000    2.0104    0.0000 N   0  0  0  0  0  0  0  0  0  0  0  0
    0.8675    1.5027    0.0000 C   0  0  0  0  0  0  0  0  0  0  0  0
    0.8675    0.4975    0.0000 C   0  0  0  0  0  0  0  0  0  0  0  0
    1.7328   -0.0038    0.0000 N   0  0  0  0  0  0  0  0  0  0  0  0
    2.5995    0.4950    0.0000 C   0  0  0  0  0  0  0  0  0  0  0  0
    2.6010    1.4950    0.0000 O   0  0  0  0  0  0  0  0  0  0  0  0
    3.4648   -0.0063    0.0000 C   0  0  1  0  0  0  0  0  0  0  0  0
    2.9636   -0.8716    0.0000 H   0  0  0  0  0  0  0  0  0  0  0  0
    3.9661    0.8590    0.0000 C   0  0  0  0  0  0  0  0  0  0  0  0
    3.5590    1.7741    0.0000 C   0  0  0  0  0  0  0  0  0  0  0  0
    4.3041    2.4410    0.0000 C   0  0  0  0  0  0  0  0  0  0  0  0
    5.1722    1.9436    0.0000 S   0  0  0  0  0  0  0  0  0  0  0  0
    4.9626    0.9611    0.0000 C   0  0  0  0  0  0  0  0  0  0  0  0
    4.3301   -0.5075    0.0000 N   0  0  0  0  0  0  0  0  0  0  0  0
    4.3346   -1.5127    0.0000 C   0  0  0  0  0  0  0  0  0  0  0  0
    5.2044   -2.0165    0.0000 C   0  0  0  0  0  0  0  0  0  0  0  0
    6.0697   -1.5153    0.0000 C   0  0  0  0  0  0  0  0  0  0  0  0
    6.9350   -2.0165    0.0000 O   0  0  0  0  0  0  0  0  0  0  0  0
    6.0741   -0.5152    0.0000 C   0  0  0  0  0  0  0  0  0  0  0  0
    5.2043   -0.0114    0.0000 C   0  0  0  0  0  0  0  0  0  0  0  0
  1  2  1  0  0  0  0
  2  7  2  0  0  0  0
  2  3  1  0  0  0  0
  3  4  2  0  0  0  0
  4  5  1  0  0  0  0
  5  6  2  0  0  0  0
  6  7  1  0  0  0  0
  7  8  1  0  0  0  0
  8  9  1  0  0  0  0
  9 10  2  0  0  0  0
  9 11  1  0  0  0  0
 11 12  1  6  0  0  0
 11 13  1  0  0  0  0
 13 17  2  0  0  0  0
 13 14  1  0  0  0  0
 14 15  2  0  0  0  0
 15 16  1  0  0  0  0
 16 17  1  0  0  0  0
 11 18  1  0  0  0  0
 18 24  1  0  0  0  0
 18 19  1  0  0  0  0
 19 20  1  0  0  0  0
 20 21  1  0  0  0  0
 21 22  1  0  0  0  0
 21 23  1  0  0  0  0
 23 24  1  0  0  0  0
M  END
$$$$
MIH-UNI-6b9-3
  -OEChem-03232022352D

 26 28  0     1  0  0  0  0  0999 V2000
   -0.0000   -1.0000    0.0000 C   0  0  0  0  0  0  0  0  0  0  0  0
    0.0000    0.0000    0.0000 C   0  0  0  0  0  0  0  0  0  0  0  0
   -0.8675    0.4975    0.0000 C   0  0  0  0  0  0  0  0  0  0  0  0
   -0.8675    1.5027    0.0000 C   0  0  0  0  0  0  0  0  0  0  0  0
    0.0000    2.0104    0.0000 N   0  0  0  0  0  0  0  0  0  0  0  0
    0.8675    1.5027    0.0000 C   0  0  0  0  0  0  0  0  0  0  0  0
    0.8675    0.4975    0.0000 C   0  0  0  0  0  0  0  0  0  0  0  0
    1.7328   -0.0038    0.0000 N   0  0  0  0  0  0  0  0  0  0  0  0
    2.5995    0.4950    0.0000 C   0  0  0  0  0  0  0  0  0  0  0  0
    2.6010    1.4950    0.0000 O   0  0  0  0  0  0  0  0  0  0  0  0
    3.4648   -0.0063    0.0000 C   0  0  0  0  0  0  0  0  0  0  0  0
    4.3316    0.4925    0.0000 C   0  0  1  0  0  0  0  0  0  0  0  0
    3.6917    1.2609    0.0000 H   0  0  0  0  0  0  0  0  0  0  0  0
    4.9840    1.2605    0.0000 C   0  0  0  0  0  0  0  0  0  0  0  0
    5.9737    1.0819    0.0000 C   0  0  0  0  0  0  0  0  0  0  0  0
    6.3109    0.1353    0.0000 C   0  0  0  0  0  0  0  0  0  0  0  0
    5.6651   -0.6282    0.0000 C   0  0  0  0  0  0  0  0  0  0  0  0
    5.9994   -1.5724    0.0000 C   0  0  0  0  0  0  0  0  0  0  0  0
    5.3544   -2.3373    0.0000 C   0  0  0  0  0  0  0  0  0  0  0  0
    5.6928   -3.2783    0.0000 S   0  0  0  0  0  0  0  0  0  0  0  0
    6.0313   -4.2193    0.0000 N   0  0  0  0  0  0  0  0  0  0  0  0
    6.6338   -2.9399    0.0000 O   0  0  0  0  0  0  0  0  0  0  0  0
    4.7518   -3.6167    0.0000 O   0  0  0  0  0  0  0  0  0  0  0  0
    4.3650   -2.1574    0.0000 C   0  0  0  0  0  0  0  0  0  0  0  0
    4.0205   -1.2127    0.0000 C   0  0  0  0  0  0  0  0  0  0  0  0
    4.6754   -0.4496    0.0000 C   0  0  0  0  0  0  0  0  0  0  0  0
  1  2  1  0  0  0  0
  2  7  2  0  0  0  0
  2  3  1  0  0  0  0
  3  4  2  0  0  0  0
  4  5  1  0  0  0  0
  5  6  2  0  0  0  0
  6  7  1  0  0  0  0
  7  8  1  0  0  0  0
  8  9  1  0  0  0  0
  9 10  2  0  0  0  0
  9 11  1  0  0  0  0
 11 12  1  0  0  0  0
 12 13  1  6  0  0  0
 12 26  1  0  0  0  0
 12 14  1  0  0  0  0
 14 15  1  0  0  0  0
 15 16  1  0  0  0  0
 16 17  1  0  0  0  0
 17 26  2  0  0  0  0
 17 18  1  0  0  0  0
 18 19  2  0  0  0  0
 19 20  1  0  0  0  0
 20 21  1  0  0  0  0
 20 22  2  0  0  0  0
 20 23  2  0  0  0  0
 19 24  1  0  0  0  0
 24 25  2  0  0  0  0
 25 26  1  0  0  0  0
M  END
$$$$
MIH-UNI-6b9-4
  -OEChem-03232022352D

 22 24  0     1  0  0  0  0  0999 V2000
    2.3779   -3.6511    0.0000 N   0  0  0  0  0  0  0  0  0  0  0  0
    2.0335   -2.7122    0.0000 C   0  0  2  0  0  0  0  0  0  0  0  0
    1.1697   -3.2161    0.0000 H   0  0  0  0  0  0  0  0  0  0  0  0
    3.0233   -2.5372    0.0000 C   0  0  0  0  0  0  0  0  0  0  0  0
    3.3622   -1.5963    0.0000 C   0  0  2  0  0  0  0  0  0  0  0  0
    4.0053   -0.8305    0.0000 H   0  0  0  0  0  0  0  0  0  0  0  0
    4.2289   -2.0950    0.0000 C   0  0  0  0  0  0  0  0  0  0  0  0
    5.1428   -1.6852    0.0000 C   0  0  0  0  0  0  0  0  0  0  0  0
    5.8119   -2.4284    0.0000 C   0  0  0  0  0  0  0  0  0  0  0  0
    5.3171   -3.2979    0.0000 S   0  0  0  0  0  0  0  0  0  0  0  0
    4.3339   -3.0912    0.0000 C   0  0  0  0  0  0  0  0  0  0  0  0
    2.7212   -0.8287    0.0000 C   0  0  0  0  0  0  0  0  0  0  0  0
    1.7313   -1.0038    0.0000 C   0  0  1  0  0  0  0  0  0  0  0  0
    0.7471   -0.8267    0.0000 H   0  0  0  0  0  0  0  0  0  0  0  0
    1.7328   -0.0038    0.0000 N   0  0  0  0  0  0  0  0  0  0  0  0
    0.8675    0.4975    0.0000 C   0  0  0  0  0  0  0  0  0  0  0  0
    0.0000    0.0000    0.0000 C   0  0  0  0  0  0  0  0  0  0  0  0
   -0.8675    0.4975    0.0000 C   0  0  0  0  0  0  0  0  0  0  0  0
   -0.8675    1.5027    0.0000 C   0  0  0  0  0  0  0  0  0  0  0  0
    0.0000    2.0104    0.0000 N   0  0  0  0  0  0  0  0  0  0  0  0
    0.8675    1.5027    0.0000 C   0  0  0  0  0  0  0  0  0  0  0  0
    1.3825   -1.9464    0.0000 O   0  0  0  0  0  0  0  0  0  0  0  0
  1  2  1  0  0  0  0
  2  3  1  6  0  0  0
  2 22  1  0  0  0  0
  2  4  1  0  0  0  0
  4  5  1  0  0  0  0
  5  6  1  6  0  0  0
  5  7  1  0  0  0  0
  7 11  2  0  0  0  0
  7  8  1  0  0  0  0
  8  9  2  0  0  0  0
  9 10  1  0  0  0  0
 10 11  1  0  0  0  0
  5 12  1  0  0  0  0
 12 13  1  0  0  0  0
 13 14  1  1  0  0  0
 13 15  1  0  0  0  0
 15 16  1  0  0  0  0
 16 21  2  0  0  0  0
 16 17  1  0  0  0  0
 17 18  2  0  0  0  0
 18 19  1  0  0  0  0
 19 20  2  0  0  0  0
 20 21  1  0  0  0  0
 13 22  1  0  0  0  0
M  END
$$$$
MIH-UNI-6b9-5
  -OEChem-03232022352D

 17 18  0     0  0  0  0  0  0999 V2000
   -2.6025    2.4976    0.0000 N   0  0  0  0  0  0  0  0  0  0  0  0
   -1.7350    2.0001    0.0000 C   0  0  0  0  0  0  0  0  0  0  0  0
   -0.8675    1.5027    0.0000 C   0  0  0  0  0  0  0  0  0  0  0  0
   -0.8675    0.4975    0.0000 C   0  0  0  0  0  0  0  0  0  0  0  0
    0.0000    0.0000    0.0000 C   0  0  0  0  0  0  0  0  0  0  0  0
    0.8675    0.4975    0.0000 C   0  0  0  0  0  0  0  0  0  0  0  0
    0.8675    1.5027    0.0000 C   0  0  0  0  0  0  0  0  0  0  0  0
    1.7350    2.0001    0.0000 C   0  0  0  0  0  0  0  0  0  0  0  0
    1.7379    3.0001    0.0000 N   0  0  0  0  0  0  0  0  0  0  0  0
    2.6054    3.4976    0.0000 C   0  0  0  0  0  0  0  0  0  0  0  0
    2.6054    4.5028    0.0000 C   0  0  0  0  0  0  0  0  0  0  0  0
    3.4729    5.0003    0.0000 C   0  0  0  0  0  0  0  0  0  0  0  0
    4.3404    4.5028    0.0000 C   0  0  0  0  0  0  0  0  0  0  0  0
    5.2057    5.0040    0.0000 O   0  0  0  0  0  0  0  0  0  0  0  0
    4.3404    3.4976    0.0000 C   0  0  0  0  0  0  0  0  0  0  0  0
    3.4729    2.9899    0.0000 C   0  0  0  0  0  0  0  0  0  0  0  0
   -0.0000    2.0104    0.0000 C   0  0  0  0  0  0  0  0  0  0  0  0
  1  2  3  0  0  0  0
  2  3  1  0  0  0  0
  3 17  2  0  0  0  0
  3  4  1  0  0  0  0
  4  5  2  0  0  0  0
  5  6  1  0  0  0  0
  6  7  2  0  0  0  0
  7  8  1  0  0  0  0
  8  9  1  0  0  0  0
  9 10  1  0  0  0  0
 10 16  2  0  0  0  0
 10 11  1  0  0  0  0
 11 12  2  0  0  0  0
 12 13  1  0  0  0  0
 13 14  1  0  0  0  0
 13 15  2  0  0  0  0
 15 16  1  0  0  0  0
  7 17  1  0  0  0  0
M  END
$$$$
MIH-UNI-6b9-6
  -OEChem-03232022352D

 17 18  0     0  0  0  0  0  0999 V2000
    1.3965   -0.2229    0.0000 O   0  0  0  0  0  0  0  0  0  0  0  0
    0.5868   -0.8097    0.0000 S   0  0  0  0  0  0  0  0  0  0  0  0
   -0.2229   -1.3965    0.0000 O   0  0  0  0  0  0  0  0  0  0  0  0
    1.1736   -1.6194    0.0000 N   0  0  0  0  0  0  0  0  0  0  0  0
    2.1683   -1.5161    0.0000 C   0  0  0  0  0  0  0  0  0  0  0  0
    2.7551   -2.3258    0.0000 C   0  0  0  0  0  0  0  0  0  0  0  0
    3.7498   -2.2225    0.0000 C   0  0  0  0  0  0  0  0  0  0  0  0
    4.1570   -1.3034    0.0000 C   0  0  0  0  0  0  0  0  0  0  0  0
    5.1517   -1.2001    0.0000 C   0  0  0  0  0  0  0  0  0  0  0  0
    5.7432   -2.0063    0.0000 C   0  0  0  0  0  0  0  0  0  0  0  0
    5.3360   -2.9254    0.0000 C   0  0  0  0  0  0  0  0  0  0  0  0
    4.3372   -3.0381    0.0000 C   0  0  0  0  0  0  0  0  0  0  0  0
    0.0000    0.0000    0.0000 C   0  0  0  0  0  0  0  0  0  0  0  0
   -1.0015    0.0000    0.0000 C   0  0  0  0  0  0  0  0  0  0  0  0
   -1.3080    0.9519    0.0000 C   0  0  0  0  0  0  0  0  0  0  0  0
   -0.5007    1.5428    0.0000 O   0  0  0  0  0  0  0  0  0  0  0  0
    0.3118    0.9519    0.0000 C   0  0  0  0  0  0  0  0  0  0  0  0
  1  2  2  0  0  0  0
  2  3  2  0  0  0  0
  2  4  1  0  0  0  0
  4  5  1  0  0  0  0
  5  6  1  0  0  0  0
  6  7  1  0  0  0  0
  7 12  2  0  0  0  0
  7  8  1  0  0  0  0
  8  9  2  0  0  0  0
  9 10  1  0  0  0  0
 10 11  2  0  0  0  0
 11 12  1  0  0  0  0
  2 13  1  0  0  0  0
 13 17  2  0  0  0  0
 13 14  1  0  0  0  0
 14 15  2  0  0  0  0
 15 16  1  0  0  0  0
 16 17  1  0  0  0  0
M  END
$$$$
MIH-UNI-6b9-7
  -OEChem-03232022352D

 22 24  0     1  0  0  0  0  0999 V2000
    2.3779   -3.6511    0.0000 N   0  0  0  0  0  0  0  0  0  0  0  0
    2.0335   -2.7122    0.0000 C   0  0  2  0  0  0  0  0  0  0  0  0
    1.1697   -3.2161    0.0000 H   0  0  0  0  0  0  0  0  0  0  0  0
    3.0233   -2.5372    0.0000 C   0  0  0  0  0  0  0  0  0  0  0  0
    3.3622   -1.5963    0.0000 C   0  0  2  0  0  0  0  0  0  0  0  0
    4.0053   -0.8305    0.0000 H   0  0  0  0  0  0  0  0  0  0  0  0
    4.2289   -2.0950    0.0000 C   0  0  0  0  0  0  0  0  0  0  0  0
    5.1428   -1.6852    0.0000 C   0  0  0  0  0  0  0  0  0  0  0  0
    5.8119   -2.4284    0.0000 C   0  0  0  0  0  0  0  0  0  0  0  0
    5.3171   -3.2979    0.0000 S   0  0  0  0  0  0  0  0  0  0  0  0
    4.3339   -3.0912    0.0000 C   0  0  0  0  0  0  0  0  0  0  0  0
    2.7212   -0.8287    0.0000 C   0  0  0  0  0  0  0  0  0  0  0  0
    1.7313   -1.0038    0.0000 C   0  0  1  0  0  0  0  0  0  0  0  0
    0.7471   -0.8267    0.0000 H   0  0  0  0  0  0  0  0  0  0  0  0
    1.7328   -0.0038    0.0000 C   0  0  0  0  0  0  0  0  0  0  0  0
    0.8675    0.4975    0.0000 C   0  0  0  0  0  0  0  0  0  0  0  0
    0.0000    0.0000    0.0000 C   0  0  0  0  0  0  0  0  0  0  0  0
   -0.8675    0.4975    0.0000 C   0  0  0  0  0  0  0  0  0  0  0  0
   -0.8675    1.5027    0.0000 C   0  0  0  0  0  0  0  0  0  0  0  0
    0.0000    2.0104    0.0000 N   0  0  0  0  0  0  0  0  0  0  0  0
    0.8675    1.5027    0.0000 C   0  0  0  0  0  0  0  0  0  0  0  0
    1.3825   -1.9464    0.0000 O   0  0  0  0  0  0  0  0  0  0  0  0
  1  2  1  0  0  0  0
  2  3  1  6  0  0  0
  2 22  1  0  0  0  0
  2  4  1  0  0  0  0
  4  5  1  0  0  0  0
  5  6  1  6  0  0  0
  5  7  1  0  0  0  0
  7 11  2  0  0  0  0
  7  8  1  0  0  0  0
  8  9  2  0  0  0  0
  9 10  1  0  0  0  0
 10 11  1  0  0  0  0
  5 12  1  0  0  0  0
 12 13  1  0  0  0  0
 13 14  1  1  0  0  0
 13 15  1  0  0  0  0
 15 16  1  0  0  0  0
 16 21  2  0  0  0  0
 16 17  1  0  0  0  0
 17 18  2  0  0  0  0
 18 19  1  0  0  0  0
 19 20  2  0  0  0  0
 20 21  1  0  0  0  0
 13 22  1  0  0  0  0
M  END
$$$$
MIH-UNI-6b9-8
  -OEChem-03232022352D

 22 24  0     1  0  0  0  0  0999 V2000
    2.3779   -3.6511    0.0000 O   0  0  0  0  0  0  0  0  0  0  0  0
    2.0335   -2.7122    0.0000 C   0  0  2  0  0  0  0  0  0  0  0  0
    1.1697   -3.2161    0.0000 H   0  0  0  0  0  0  0  0  0  0  0  0
    3.0233   -2.5372    0.0000 C   0  0  0  0  0  0  0  0  0  0  0  0
    3.3622   -1.5963    0.0000 C   0  0  2  0  0  0  0  0  0  0  0  0
    4.0053   -0.8305    0.0000 H   0  0  0  0  0  0  0  0  0  0  0  0
    4.2289   -2.0950    0.0000 C   0  0  0  0  0  0  0  0  0  0  0  0
    5.1428   -1.6852    0.0000 C   0  0  0  0  0  0  0  0  0  0  0  0
    5.8119   -2.4284    0.0000 C   0  0  0  0  0  0  0  0  0  0  0  0
    5.3171   -3.2979    0.0000 S   0  0  0  0  0  0  0  0  0  0  0  0
    4.3339   -3.0912    0.0000 C   0  0  0  0  0  0  0  0  0  0  0  0
    2.7212   -0.8287    0.0000 C   0  0  0  0  0  0  0  0  0  0  0  0
    1.7313   -1.0038    0.0000 C   0  0  1  0  0  0  0  0  0  0  0  0
    0.7471   -0.8267    0.0000 H   0  0  0  0  0  0  0  0  0  0  0  0
    1.7328   -0.0038    0.0000 N   0  0  0  0  0  0  0  0  0  0  0  0
    0.8675    0.4975    0.0000 C   0  0  0  0  0  0  0  0  0  0  0  0
    0.0000    0.0000    0.0000 C   0  0  0  0  0  0  0  0  0  0  0  0
   -0.8675    0.4975    0.0000 C   0  0  0  0  0  0  0  0  0  0  0  0
   -0.8675    1.5027    0.0000 C   0  0  0  0  0  0  0  0  0  0  0  0
    0.0000    2.0104    0.0000 N   0  0  0  0  0  0  0  0  0  0  0  0
    0.8675    1.5027    0.0000 C   0  0  0  0  0  0  0  0  0  0  0  0
    1.3825   -1.9464    0.0000 O   0  0  0  0  0  0  0  0  0  0  0  0
  1  2  1  0  0  0  0
  2  3  1  6  0  0  0
  2 22  1  0  0  0  0
  2  4  1  0  0  0  0
  4  5  1  0  0  0  0
  5  6  1  6  0  0  0
  5  7  1  0  0  0  0
  7 11  2  0  0  0  0
  7  8  1  0  0  0  0
  8  9  2  0  0  0  0
  9 10  1  0  0  0  0
 10 11  1  0  0  0  0
  5 12  1  0  0  0  0
 12 13  1  0  0  0  0
 13 14  1  1  0  0  0
 13 15  1  0  0  0  0
 15 16  1  0  0  0  0
 16 21  2  0  0  0  0
 16 17  1  0  0  0  0
 17 18  2  0  0  0  0
 18 19  1  0  0  0  0
 19 20  2  0  0  0  0
 20 21  1  0  0  0  0
 13 22  1  0  0  0  0
M  END
$$$$
MIH-UNI-6b9-9
  -OEChem-03232022352D

 25 27  0     1  0  0  0  0  0999 V2000
    1.5064   -2.5105    0.0000 C   0  0  0  0  0  0  0  0  0  0  0  0
    2.0676   -1.6829    0.0000 C   0  0  0  0  0  0  0  0  0  0  0  0
    3.0650   -1.7551    0.0000 O   0  0  0  0  0  0  0  0  0  0  0  0
    1.6314   -0.7830    0.0000 N   0  0  0  0  0  0  0  0  0  0  0  0
    0.6314   -0.7843    0.0000 C   0  0  0  0  0  0  0  0  0  0  0  0
    0.0000    0.0000    0.0000 C   0  0  0  0  0  0  0  0  0  0  0  0
    0.2149    0.9798    0.0000 C   0  0  0  0  0  0  0  0  0  0  0  0
    1.1181    1.4161    0.0000 N   0  0  3  0  0  0  0  0  0  0  0  0
    1.1137    2.4161    0.0000 C   0  0  0  0  0  0  0  0  0  0  0  0
    0.2455    2.9123    0.0000 C   0  0  0  0  0  0  0  0  0  0  0  0
    0.2440    3.9180    0.0000 C   0  0  0  0  0  0  0  0  0  0  0  0
   -0.6247    4.4145    0.0000 C   0  0  0  0  0  0  0  0  0  0  0  0
   -1.4931    3.9153    0.0000 C   0  0  0  0  0  0  0  0  0  0  0  0
   -2.3606    4.4129    0.0000 C   0  0  0  0  0  0  0  0  0  0  0  0
   -3.2308    3.9105    0.0000 C   0  0  0  0  0  0  0  0  0  0  0  0
   -3.2280    2.9048    0.0000 C   0  0  0  0  0  0  0  0  0  0  0  0
   -4.0932    2.4033    0.0000 S   0  0  0  0  0  0  0  0  0  0  0  0
   -4.9583    1.9017    0.0000 N   0  0  0  0  0  0  0  0  0  0  0  0
   -3.5916    1.5381    0.0000 O   0  0  0  0  0  0  0  0  0  0  0  0
   -4.5947    3.2684    0.0000 O   0  0  0  0  0  0  0  0  0  0  0  0
   -2.3550    2.4016    0.0000 C   0  0  0  0  0  0  0  0  0  0  0  0
   -1.4903    2.9096    0.0000 C   0  0  0  0  0  0  0  0  0  0  0  0
   -0.6217    2.4032    0.0000 C   0  0  0  0  0  0  0  0  0  0  0  0
    2.0276    0.9866    0.0000 C   0  0  0  0  0  0  0  0  0  0  0  0
    2.2562    0.0066    0.0000 C   0  0  0  0  0  0  0  0  0  0  0  0
  1  2  1  0  0  0  0
  2  3  2  0  0  0  0
  2  4  1  0  0  0  0
  4 25  1  0  0  0  0
  4  5  1  0  0  0  0
  5  6  1  0  0  0  0
  6  7  1  0  0  0  0
  7  8  1  0  0  0  0
  8  9  1  0  0  0  0
  9 10  1  0  0  0  0
 10 23  2  0  0  0  0
 10 11  1  0  0  0  0
 11 12  2  0  0  0  0
 12 13  1  0  0  0  0
 13 22  2  0  0  0  0
 13 14  1  0  0  0  0
 14 15  2  0  0  0  0
 15 16  1  0  0  0  0
 16 17  1  0  0  0  0
 17 18  1  0  0  0  0
 17 19  2  0  0  0  0
 17 20  2  0  0  0  0
 16 21  2  0  0  0  0
 21 22  1  0  0  0  0
 22 23  1  0  0  0  0
  8 24  1  0  0  0  0
 24 25  1  0  0  0  0
M  END
$$$$
SAL-INS-68b-1
  -OEChem-03232022352D

 36 36  0     1  0  0  0  0  0999 V2000
    0.6818   -3.8628    0.0000 N   0  0  0  0  0  0  0  0  0  0  0  0
    1.1792   -4.7303    0.0000 C   0  0  0  0  0  0  0  0  0  0  0  0
    0.6767   -5.5948    0.0000 N   0  0  0  0  0  0  0  0  0  0  0  0
    2.1792   -4.7332    0.0000 N   0  0  0  0  0  0  0  0  0  0  0  0
    2.6818   -3.8687    0.0000 C   0  0  0  0  0  0  0  0  0  0  0  0
    3.6818   -3.8717    0.0000 C   0  0  0  0  0  0  0  0  0  0  0  0
    4.1843   -3.0071    0.0000 C   0  0  0  0  0  0  0  0  0  0  0  0
    5.1843   -3.0101    0.0000 C   0  0  2  0  0  0  0  0  0  0  0  0
    5.1814   -4.0101    0.0000 H   0  0  0  0  0  0  0  0  0  0  0  0
    5.1873   -2.0101    0.0000 N   0  0  0  0  0  0  0  0  0  0  0  0
    4.3227   -1.5075    0.0000 C   0  0  0  0  0  0  0  0  0  0  0  0
    3.4552   -2.0050    0.0000 O   0  0  0  0  0  0  0  0  0  0  0  0
    4.3257   -0.5075    0.0000 C   0  0  0  0  0  0  0  0  0  0  0  0
    3.4611   -0.0050    0.0000 N   0  0  0  0  0  0  0  0  0  0  0  0
    3.4641    0.9950    0.0000 C   0  0  0  0  0  0  0  0  0  0  0  0
    4.3316    1.4925    0.0000 O   0  0  0  0  0  0  0  0  0  0  0  0
    2.5995    1.4976    0.0000 C   0  0  2  0  0  0  0  0  0  0  0  0
    2.0970    0.6330    0.0000 H   0  0  0  0  0  0  0  0  0  0  0  0
    1.7350    2.0001    0.0000 C   0  0  0  0  0  0  0  0  0  0  0  0
    0.8675    1.5027    0.0000 C   0  0  0  0  0  0  0  0  0  0  0  0
    0.8675    0.4975    0.0000 C   0  0  0  0  0  0  0  0  0  0  0  0
    0.0000    0.0000    0.0000 C   0  0  0  0  0  0  0  0  0  0  0  0
   -0.8675    0.4975    0.0000 C   0  0  0  0  0  0  0  0  0  0  0  0
   -0.8675    1.5027    0.0000 C   0  0  0  0  0  0  0  0  0  0  0  0
    0.0000    2.0104    0.0000 C   0  0  0  0  0  0  0  0  0  0  0  0
    3.1021    2.3621    0.0000 N   0  0  0  0  0  0  0  0  0  0  0  0
    2.6047    3.2296    0.0000 C   0  0  0  0  0  0  0  0  0  0  0  0
    1.6047    3.2326    0.0000 O   0  0  0  0  0  0  0  0  0  0  0  0
    3.1072    4.0942    0.0000 C   0  0  1  0  0  0  0  0  0  0  0  0
    2.2427    4.5967    0.0000 H   0  0  0  0  0  0  0  0  0  0  0  0
    3.9718    3.5916    0.0000 N   0  0  0  0  0  0  0  0  0  0  0  0
    3.6098    4.9587    0.0000 C   0  0  0  0  0  0  0  0  0  0  0  0
    3.1123    5.8262    0.0000 O   0  0  0  0  0  0  0  0  0  0  0  0
    6.1843   -3.0130    0.0000 C   0  0  0  0  0  0  0  0  0  0  0  0
    6.6869   -2.1485    0.0000 O   0  0  0  0  0  0  0  0  0  0  0  0
    6.6818   -3.8805    0.0000 O   0  0  0  0  0  0  0  0  0  0  0  0
  1  2  2  0  0  0  0
  2  3  1  0  0  0  0
  2  4  1  0  0  0  0
  4  5  1  0  0  0  0
  5  6  1  0  0  0  0
  6  7  1  0  0  0  0
  7  8  1  0  0  0  0
  8  9  1  1  0  0  0
  8 10  1  0  0  0  0
 10 11  1  0  0  0  0
 11 12  2  0  0  0  0
 11 13  1  0  0  0  0
 13 14  1  0  0  0  0
 14 15  1  0  0  0  0
 15 16  2  0  0  0  0
 15 17  1  0  0  0  0
 17 18  1  1  0  0  0
 17 19  1  0  0  0  0
 19 20  1  0  0  0  0
 20 25  2  0  0  0  0
 20 21  1  0  0  0  0
 21 22  2  0  0  0  0
 22 23  1  0  0  0  0
 23 24  2  0  0  0  0
 24 25  1  0  0  0  0
 17 26  1  0  0  0  0
 26 27  1  0  0  0  0
 27 28  2  0  0  0  0
 27 29  1  0  0  0  0
 29 30  1  1  0  0  0
 29 31  1  0  0  0  0
 29 32  1  0  0  0  0
 32 33  1  0  0  0  0
  8 34  1  0  0  0  0
 34 35  2  0  0  0  0
 34 36  1  0  0  0  0
M  END
$$$$
SAL-INS-68b-2
  -OEChem-03232022352D

 39 39  0     1  0  0  0  0  0999 V2000
    1.3811    6.0993    0.0000 C   0  0  0  0  0  0  0  0  0  0  0  0
    2.2456    5.5967    0.0000 C   0  0  0  0  0  0  0  0  0  0  0  0
    3.1131    6.0942    0.0000 O   0  0  0  0  0  0  0  0  0  0  0  0
    2.2427    4.5967    0.0000 N   0  0  0  0  0  0  0  0  0  0  0  0
    3.1072    4.0942    0.0000 C   0  0  1  0  0  0  0  0  0  0  0  0
    3.9718    3.5916    0.0000 H   0  0  0  0  0  0  0  0  0  0  0  0
    3.6098    4.9587    0.0000 C   0  0  0  0  0  0  0  0  0  0  0  0
    4.6098    4.9558    0.0000 O   0  0  0  0  0  0  0  0  0  0  0  0
    2.6047    3.2296    0.0000 C   0  0  0  0  0  0  0  0  0  0  0  0
    1.6047    3.2326    0.0000 O   0  0  0  0  0  0  0  0  0  0  0  0
    3.1021    2.3621    0.0000 N   0  0  0  0  0  0  0  0  0  0  0  0
    2.5995    1.4976    0.0000 C   0  0  1  0  0  0  0  0  0  0  0  0
    2.0970    0.6330    0.0000 H   0  0  0  0  0  0  0  0  0  0  0  0
    1.7350    2.0001    0.0000 C   0  0  0  0  0  0  0  0  0  0  0  0
    0.8675    1.5027    0.0000 C   0  0  0  0  0  0  0  0  0  0  0  0
    0.8675    0.4975    0.0000 C   0  0  0  0  0  0  0  0  0  0  0  0
    0.0000    0.0000    0.0000 C   0  0  0  0  0  0  0  0  0  0  0  0
   -0.8675    0.4975    0.0000 C   0  0  0  0  0  0  0  0  0  0  0  0
   -0.8675    1.5027    0.0000 C   0  0  0  0  0  0  0  0  0  0  0  0
    0.0000    2.0104    0.0000 C   0  0  0  0  0  0  0  0  0  0  0  0
    3.4641    0.9950    0.0000 C   0  0  0  0  0  0  0  0  0  0  0  0
    3.4611   -0.0050    0.0000 O   0  0  0  0  0  0  0  0  0  0  0  0
    4.3316    1.4925    0.0000 N   0  0  0  0  0  0  0  0  0  0  0  0
    5.1961    0.9899    0.0000 C   0  0  0  0  0  0  0  0  0  0  0  0
    6.0636    1.4874    0.0000 C   0  0  0  0  0  0  0  0  0  0  0  0
    6.0666    2.4874    0.0000 O   0  0  0  0  0  0  0  0  0  0  0  0
    6.9282    0.9848    0.0000 N   0  0  0  0  0  0  0  0  0  0  0  0
    7.7957    1.4823    0.0000 C   0  0  1  0  0  0  0  0  0  0  0  0
    8.6632    1.9797    0.0000 H   0  0  0  0  0  0  0  0  0  0  0  0
    7.2982    2.3498    0.0000 C   0  0  0  0  0  0  0  0  0  0  0  0
    7.8008    3.2143    0.0000 C   0  0  0  0  0  0  0  0  0  0  0  0
    7.3033    4.0818    0.0000 C   0  0  0  0  0  0  0  0  0  0  0  0
    7.8059    4.9463    0.0000 N   0  0  0  0  0  0  0  0  0  0  0  0
    7.3085    5.8138    0.0000 C   0  0  0  0  0  0  0  0  0  0  0  0
    7.8110    6.6784    0.0000 N   0  0  0  0  0  0  0  0  0  0  0  0
    6.3085    5.8168    0.0000 O   0  0  0  0  0  0  0  0  0  0  0  0
    8.2931    0.6148    0.0000 C   0  0  0  0  0  0  0  0  0  0  0  0
    7.7906   -0.2498    0.0000 N   0  0  0  0  0  0  0  0  0  0  0  0
    9.2931    0.6118    0.0000 O   0  0  0  0  0  0  0  0  0  0  0  0
  1  2  1  0  0  0  0
  2  3  2  0  0  0  0
  2  4  1  0  0  0  0
  4  5  1  0  0  0  0
  5  6  1  6  0  0  0
  5  7  1  0  0  0  0
  7  8  1  0  0  0  0
  5  9  1  0  0  0  0
  9 10  2  0  0  0  0
  9 11  1  0  0  0  0
 11 12  1  0  0  0  0
 12 13  1  1  0  0  0
 12 14  1  0  0  0  0
 14 15  1  0  0  0  0
 15 20  2  0  0  0  0
 15 16  1  0  0  0  0
 16 17  2  0  0  0  0
 17 18  1  0  0  0  0
 18 19  2  0  0  0  0
 19 20  1  0  0  0  0
 12 21  1  0  0  0  0
 21 22  2  0  0  0  0
 21 23  1  0  0  0  0
 23 24  1  0  0  0  0
 24 25  1  0  0  0  0
 25 26  2  0  0  0  0
 25 27  1  0  0  0  0
 27 28  1  0  0  0  0
 28 29  1  6  0  0  0
 28 30  1  0  0  0  0
 30 31  1  0  0  0  0
 31 32  1  0  0  0  0
 32 33  1  0  0  0  0
 33 34  1  0  0  0  0
 34 35  1  0  0  0  0
 34 36  2  0  0  0  0
 28 37  1  0  0  0  0
 37 38  1  0  0  0  0
 37 39  2  0  0  0  0
M  END
$$$$
SAL-INS-68b-3
  -OEChem-03232022352D

 44 45  0     1  0  0  0  0  0999 V2000
    8.1910   -0.7510    0.0000 N   0  0  0  0  0  0  0  0  0  0  0  0
    8.6936    0.1136    0.0000 C   0  0  0  0  0  0  0  0  0  0  0  0
    9.6936    0.1106    0.0000 N   0  0  0  0  0  0  0  0  0  0  0  0
    8.1961    0.9811    0.0000 N   0  0  0  0  0  0  0  0  0  0  0  0
    7.1961    0.9840    0.0000 C   0  0  0  0  0  0  0  0  0  0  0  0
    6.6987    1.8515    0.0000 C   0  0  0  0  0  0  0  0  0  0  0  0
    5.6987    1.8545    0.0000 C   0  0  0  0  0  0  0  0  0  0  0  0
    5.1961    0.9899    0.0000 C   0  0  2  0  0  0  0  0  0  0  0  0
    6.0607    0.4874    0.0000 H   0  0  0  0  0  0  0  0  0  0  0  0
    4.3316    1.4925    0.0000 N   0  0  0  0  0  0  0  0  0  0  0  0
    3.4641    0.9950    0.0000 C   0  0  0  0  0  0  0  0  0  0  0  0
    3.4611   -0.0050    0.0000 O   0  0  0  0  0  0  0  0  0  0  0  0
    2.5995    1.4976    0.0000 C   0  0  2  0  0  0  0  0  0  0  0  0
    2.0970    0.6330    0.0000 H   0  0  0  0  0  0  0  0  0  0  0  0
    1.7350    2.0001    0.0000 C   0  0  0  0  0  0  0  0  0  0  0  0
    0.8675    1.5027    0.0000 C   0  0  0  0  0  0  0  0  0  0  0  0
    0.8675    0.4975    0.0000 C   0  0  0  0  0  0  0  0  0  0  0  0
    0.0000    0.0000    0.0000 C   0  0  0  0  0  0  0  0  0  0  0  0
   -0.8675    0.4975    0.0000 C   0  0  0  0  0  0  0  0  0  0  0  0
   -0.8675    1.5027    0.0000 C   0  0  0  0  0  0  0  0  0  0  0  0
    0.0000    2.0104    0.0000 C   0  0  0  0  0  0  0  0  0  0  0  0
    3.1021    2.3621    0.0000 N   0  0  0  0  0  0  0  0  0  0  0  0
    2.6047    3.2296    0.0000 C   0  0  0  0  0  0  0  0  0  0  0  0
    1.6047    3.2326    0.0000 O   0  0  0  0  0  0  0  0  0  0  0  0
    3.1072    4.0942    0.0000 C   0  0  2  0  0  0  0  0  0  0  0  0
    2.2427    4.5967    0.0000 H   0  0  0  0  0  0  0  0  0  0  0  0
    3.6098    4.9587    0.0000 C   0  0  0  0  0  0  0  0  0  0  0  0
    3.1123    5.8262    0.0000 C   0  0  0  0  0  0  0  0  0  0  0  0
    2.1071    5.8262    0.0000 C   0  0  0  0  0  0  0  0  0  0  0  0
    1.6096    6.6937    0.0000 C   0  0  0  0  0  0  0  0  0  0  0  0
    2.1071    7.5612    0.0000 C   0  0  0  0  0  0  0  0  0  0  0  0
    3.1123    7.5612    0.0000 C   0  0  0  0  0  0  0  0  0  0  0  0
    3.6200    6.6937    0.0000 C   0  0  0  0  0  0  0  0  0  0  0  0
    3.9718    3.5916    0.0000 N   0  0  0  0  0  0  0  0  0  0  0  0
    4.8393    4.0891    0.0000 C   0  0  0  0  0  0  0  0  0  0  0  0
    4.8422    5.0891    0.0000 O   0  0  0  0  0  0  0  0  0  0  0  0
    5.7038    3.5865    0.0000 C   0  0  1  0  0  0  0  0  0  0  0  0
    6.2064    4.4511    0.0000 H   0  0  0  0  0  0  0  0  0  0  0  0
    5.2012    2.7220    0.0000 N   0  0  0  0  0  0  0  0  0  0  0  0
    6.5683    3.0840    0.0000 C   0  0  0  0  0  0  0  0  0  0  0  0
    7.4358    3.5814    0.0000 O   0  0  0  0  0  0  0  0  0  0  0  0
    4.6936    0.1254    0.0000 C   0  0  0  0  0  0  0  0  0  0  0  0
    3.6936    0.1283    0.0000 O   0  0  0  0  0  0  0  0  0  0  0  0
    5.1910   -0.7421    0.0000 O   0  0  0  0  0  0  0  0  0  0  0  0
  1  2  2  0  0  0  0
  2  3  1  0  0  0  0
  2  4  1  0  0  0  0
  4  5  1  0  0  0  0
  5  6  1  0  0  0  0
  6  7  1  0  0  0  0
  7  8  1  0  0  0  0
  8  9  1  6  0  0  0
  8 10  1  0  0  0  0
 10 11  1  0  0  0  0
 11 12  2  0  0  0  0
 11 13  1  0  0  0  0
 13 14  1  1  0  0  0
 13 15  1  0  0  0  0
 15 16  1  0  0  0  0
 16 21  2  0  0  0  0
 16 17  1  0  0  0  0
 17 18  2  0  0  0  0
 18 19  1  0  0  0  0
 19 20  2  0  0  0  0
 20 21  1  0  0  0  0
 13 22  1  0  0  0  0
 22 23  1  0  0  0  0
 23 24  2  0  0  0  0
 23 25  1  0  0  0  0
 25 26  1  1  0  0  0
 25 27  1  0  0  0  0
 27 28  1  0  0  0  0
 28 33  2  0  0  0  0
 28 29  1  0  0  0  0
 29 30  2  0  0  0  0
 30 31  1  0  0  0  0
 31 32  2  0  0  0  0
 32 33  1  0  0  0  0
 25 34  1  0  0  0  0
 34 35  1  0  0  0  0
 35 36  2  0  0  0  0
 35 37  1  0  0  0  0
 37 38  1  1  0  0  0
 37 39  1  0  0  0  0
 37 40  1  0  0  0  0
 40 41  1  0  0  0  0
  8 42  1  0  0  0  0
 42 43  2  0  0  0  0
 42 44  1  0  0  0  0
M  END
$$$$
SAL-INS-68b-4
  -OEChem-03232022352D

 47 48  0     1  0  0  0  0  0999 V2000
    1.3811    6.0993    0.0000 C   0  0  0  0  0  0  0  0  0  0  0  0
    2.2456    5.5967    0.0000 C   0  0  0  0  0  0  0  0  0  0  0  0
    3.1131    6.0942    0.0000 O   0  0  0  0  0  0  0  0  0  0  0  0
    2.2427    4.5967    0.0000 N   0  0  0  0  0  0  0  0  0  0  0  0
    3.1072    4.0942    0.0000 C   0  0  1  0  0  0  0  0  0  0  0  0
    3.9718    3.5916    0.0000 H   0  0  0  0  0  0  0  0  0  0  0  0
    3.6098    4.9587    0.0000 C   0  0  0  0  0  0  0  0  0  0  0  0
    4.6098    4.9558    0.0000 O   0  0  0  0  0  0  0  0  0  0  0  0
    2.6047    3.2296    0.0000 C   0  0  0  0  0  0  0  0  0  0  0  0
    1.6047    3.2326    0.0000 O   0  0  0  0  0  0  0  0  0  0  0  0
    3.1021    2.3621    0.0000 N   0  0  0  0  0  0  0  0  0  0  0  0
    2.5995    1.4976    0.0000 C   0  0  1  0  0  0  0  0  0  0  0  0
    2.0970    0.6330    0.0000 H   0  0  0  0  0  0  0  0  0  0  0  0
    1.7350    2.0001    0.0000 C   0  0  0  0  0  0  0  0  0  0  0  0
    0.8675    1.5027    0.0000 C   0  0  0  0  0  0  0  0  0  0  0  0
    0.8675    0.4975    0.0000 C   0  0  0  0  0  0  0  0  0  0  0  0
    0.0000    0.0000    0.0000 C   0  0  0  0  0  0  0  0  0  0  0  0
   -0.8675    0.4975    0.0000 C   0  0  0  0  0  0  0  0  0  0  0  0
   -0.8675    1.5027    0.0000 C   0  0  0  0  0  0  0  0  0  0  0  0
    0.0000    2.0104    0.0000 C   0  0  0  0  0  0  0  0  0  0  0  0
    3.4641    0.9950    0.0000 C   0  0  0  0  0  0  0  0  0  0  0  0
    4.3316    1.4925    0.0000 O   0  0  0  0  0  0  0  0  0  0  0  0
    3.4611   -0.0050    0.0000 N   0  0  0  0  0  0  0  0  0  0  0  0
    4.3257   -0.5075    0.0000 C   0  0  1  0  0  0  0  0  0  0  0  0
    4.8282    0.3570    0.0000 H   0  0  0  0  0  0  0  0  0  0  0  0
    3.8231   -1.3721    0.0000 C   0  0  0  0  0  0  0  0  0  0  0  0
    2.8231   -1.3691    0.0000 C   0  0  0  0  0  0  0  0  0  0  0  0
    2.3257   -0.4956    0.0000 C   0  0  0  0  0  0  0  0  0  0  0  0
    1.3257   -0.4926    0.0000 C   0  0  0  0  0  0  0  0  0  0  0  0
    0.8180   -1.3542    0.0000 C   0  0  0  0  0  0  0  0  0  0  0  0
    1.3155   -2.2277    0.0000 C   0  0  0  0  0  0  0  0  0  0  0  0
    2.3206   -2.2396    0.0000 C   0  0  0  0  0  0  0  0  0  0  0  0
    5.1902   -1.0101    0.0000 C   0  0  0  0  0  0  0  0  0  0  0  0
    6.0577   -0.5126    0.0000 O   0  0  0  0  0  0  0  0  0  0  0  0
    5.1873   -2.0101    0.0000 N   0  0  0  0  0  0  0  0  0  0  0  0
    6.0518   -2.5126    0.0000 C   0  0  1  0  0  0  0  0  0  0  0  0
    6.5544   -1.6481    0.0000 H   0  0  0  0  0  0  0  0  0  0  0  0
    5.5493   -3.3772    0.0000 C   0  0  0  0  0  0  0  0  0  0  0  0
    4.5493   -3.3742    0.0000 C   0  0  0  0  0  0  0  0  0  0  0  0
    4.0467   -4.2388    0.0000 C   0  0  0  0  0  0  0  0  0  0  0  0
    3.0467   -4.2358    0.0000 N   0  0  0  0  0  0  0  0  0  0  0  0
    2.5442   -5.1004    0.0000 C   0  0  0  0  0  0  0  0  0  0  0  0
    1.5442   -5.0974    0.0000 N   0  0  0  0  0  0  0  0  0  0  0  0
    3.0416   -5.9678    0.0000 O   0  0  0  0  0  0  0  0  0  0  0  0
    6.9164   -3.0152    0.0000 C   0  0  0  0  0  0  0  0  0  0  0  0
    6.9134   -4.0152    0.0000 N   0  0  0  0  0  0  0  0  0  0  0  0
    7.7839   -2.5177    0.0000 O   0  0  0  0  0  0  0  0  0  0  0  0
  1  2  1  0  0  0  0
  2  3  2  0  0  0  0
  2  4  1  0  0  0  0
  4  5  1  0  0  0  0
  5  6  1  6  0  0  0
  5  7  1  0  0  0  0
  7  8  1  0  0  0  0
  5  9  1  0  0  0  0
  9 10  2  0  0  0  0
  9 11  1  0  0  0  0
 11 12  1  0  0  0  0
 12 13  1  1  0  0  0
 12 14  1  0  0  0  0
 14 15  1  0  0  0  0
 15 20  2  0  0  0  0
 15 16  1  0  0  0  0
 16 17  2  0  0  0  0
 17 18  1  0  0  0  0
 18 19  2  0  0  0  0
 19 20  1  0  0  0  0
 12 21  1  0  0  0  0
 21 22  2  0  0  0  0
 21 23  1  0  0  0  0
 23 24  1  0  0  0  0
 24 25  1  1  0  0  0
 24 26  1  0  0  0  0
 26 27  1  0  0  0  0
 27 32  2  0  0  0  0
 27 28  1  0  0  0  0
 28 29  2  0  0  0  0
 29 30  1  0  0  0  0
 30 31  2  0  0  0  0
 31 32  1  0  0  0  0
 24 33  1  0  0  0  0
 33 34  2  0  0  0  0
 33 35  1  0  0  0  0
 35 36  1  0  0  0  0
 36 37  1  1  0  0  0
 36 38  1  0  0  0  0
 38 39  1  0  0  0  0
 39 40  1  0  0  0  0
 40 41  1  0  0  0  0
 41 42  1  0  0  0  0
 42 43  1  0  0  0  0
 42 44  2  0  0  0  0
 36 45  1  0  0  0  0
 45 46  1  0  0  0  0
 45 47  2  0  0  0  0
M  END
$$$$
SAL-INS-68b-5
  -OEChem-03232022352D

 47 49  0     1  0  0  0  0  0999 V2000
    6.3158   -7.7914    0.0000 N   0  0  0  0  0  0  0  0  0  0  0  0
    6.9849   -7.0483    0.0000 C   0  0  0  0  0  0  0  0  0  0  0  0
    7.9631   -7.2562    0.0000 N   0  0  0  0  0  0  0  0  0  0  0  0
    6.6760   -6.0972    0.0000 N   0  0  0  0  0  0  0  0  0  0  0  0
    5.6978   -5.8893    0.0000 C   0  0  0  0  0  0  0  0  0  0  0  0
    5.3888   -4.9382    0.0000 C   0  0  0  0  0  0  0  0  0  0  0  0
    4.4107   -4.7302    0.0000 C   0  0  0  0  0  0  0  0  0  0  0  0
    3.7415   -5.4733    0.0000 C   0  0  2  0  0  0  0  0  0  0  0  0
    4.4847   -6.1425    0.0000 H   0  0  0  0  0  0  0  0  0  0  0  0
    2.9984   -4.8042    0.0000 N   0  0  0  0  0  0  0  0  0  0  0  0
    2.0474   -5.1131    0.0000 C   0  0  0  0  0  0  0  0  0  0  0  0
    1.8394   -6.0913    0.0000 O   0  0  0  0  0  0  0  0  0  0  0  0
    1.3042   -4.4440    0.0000 C   0  0  2  0  0  0  0  0  0  0  0  0
    0.6351   -5.1871    0.0000 H   0  0  0  0  0  0  0  0  0  0  0  0
    0.5611   -3.7748    0.0000 C   0  0  0  0  0  0  0  0  0  0  0  0
   -0.3899   -4.0838    0.0000 C   0  0  0  0  0  0  0  0  0  0  0  0
   -0.5961   -5.0676    0.0000 C   0  0  0  0  0  0  0  0  0  0  0  0
   -1.5472   -5.3766    0.0000 C   0  0  0  0  0  0  0  0  0  0  0  0
   -2.2942   -4.7118    0.0000 C   0  0  0  0  0  0  0  0  0  0  0  0
   -2.0881   -3.7280    0.0000 C   0  0  0  0  0  0  0  0  0  0  0  0
   -1.1349   -3.4090    0.0000 C   0  0  0  0  0  0  0  0  0  0  0  0
    1.9734   -3.7009    0.0000 N   0  0  0  0  0  0  0  0  0  0  0  0
    1.6644   -2.7498    0.0000 C   0  0  0  0  0  0  0  0  0  0  0  0
    0.6863   -2.5418    0.0000 O   0  0  0  0  0  0  0  0  0  0  0  0
    2.3336   -2.0067    0.0000 C   0  0  2  0  0  0  0  0  0  0  0  0
    1.5905   -1.3375    0.0000 H   0  0  0  0  0  0  0  0  0  0  0  0
    3.0028   -1.2636    0.0000 C   0  0  0  0  0  0  0  0  0  0  0  0
    2.6938   -0.3125    0.0000 C   0  0  0  0  0  0  0  0  0  0  0  0
    3.2858    0.5023    0.0000 C   0  0  0  0  0  0  0  0  0  0  0  0
    2.6938    1.3169    0.0000 N   0  0  0  0  0  0  0  0  0  0  0  0
    1.7360    1.0058    0.0000 C   0  0  0  0  0  0  0  0  0  0  0  0
    0.8680    1.5138    0.0000 C   0  0  0  0  0  0  0  0  0  0  0  0
    0.0000    1.0058    0.0000 C   0  0  0  0  0  0  0  0  0  0  0  0
    0.0000    0.0000    0.0000 C   0  0  0  0  0  0  0  0  0  0  0  0
    0.8680   -0.4978    0.0000 C   0  0  0  0  0  0  0  0  0  0  0  0
    1.7360   -0.0012    0.0000 C   0  0  0  0  0  0  0  0  0  0  0  0
    3.0767   -2.6759    0.0000 N   0  0  0  0  0  0  0  0  0  0  0  0
    4.0278   -2.3669    0.0000 C   0  0  0  0  0  0  0  0  0  0  0  0
    4.2357   -1.3887    0.0000 O   0  0  0  0  0  0  0  0  0  0  0  0
    4.7709   -3.0360    0.0000 C   0  0  1  0  0  0  0  0  0  0  0  0
    5.4401   -2.2929    0.0000 H   0  0  0  0  0  0  0  0  0  0  0  0
    4.1017   -3.7792    0.0000 N   0  0  0  0  0  0  0  0  0  0  0  0
    5.5140   -3.7052    0.0000 C   0  0  0  0  0  0  0  0  0  0  0  0
    6.4651   -3.3962    0.0000 O   0  0  0  0  0  0  0  0  0  0  0  0
    3.0724   -6.2165    0.0000 C   0  0  0  0  0  0  0  0  0  0  0  0
    2.0942   -6.0085    0.0000 O   0  0  0  0  0  0  0  0  0  0  0  0
    3.3813   -7.1675    0.0000 O   0  0  0  0  0  0  0  0  0  0  0  0
  1  2  2  0  0  0  0
  2  3  1  0  0  0  0
  2  4  1  0  0  0  0
  4  5  1  0  0  0  0
  5  6  1  0  0  0  0
  6  7  1  0  0  0  0
  7  8  1  0  0  0  0
  8  9  1  6  0  0  0
  8 10  1  0  0  0  0
 10 11  1  0  0  0  0
 11 12  2  0  0  0  0
 11 13  1  0  0  0  0
 13 14  1  1  0  0  0
 13 15  1  0  0  0  0
 15 16  1  0  0  0  0
 16 21  2  0  0  0  0
 16 17  1  0  0  0  0
 17 18  2  0  0  0  0
 18 19  1  0  0  0  0
 19 20  2  0  0  0  0
 20 21  1  0  0  0  0
 13 22  1  0  0  0  0
 22 23  1  0  0  0  0
 23 24  2  0  0  0  0
 23 25  1  0  0  0  0
 25 26  1  1  0  0  0
 25 27  1  0  0  0  0
 27 28  1  0  0  0  0
 28 36  1  0  0  0  0
 28 29  2  0  0  0  0
 29 30  1  0  0  0  0
 30 31  1  0  0  0  0
 31 36  2  0  0  0  0
 31 32  1  0  0  0  0
 32 33  2  0  0  0  0
 33 34  1  0  0  0  0
 34 35  2  0  0  0  0
 35 36  1  0  0  0  0
 25 37  1  0  0  0  0
 37 38  1  0  0  0  0
 38 39  2  0  0  0  0
 38 40  1  0  0  0  0
 40 41  1  1  0  0  0
 40 42  1  0  0  0  0
 40 43  1  0  0  0  0
 43 44  1  0  0  0  0
  8 45  1  0  0  0  0
 45 46  2  0  0  0  0
 45 47  1  0  0  0  0
M  END
$$$$
SAL-INS-68b-6
  -OEChem-03232022352D

 50 52  0     1  0  0  0  0  0999 V2000
   -0.0115   -4.0640    0.0000 C   0  0  0  0  0  0  0  0  0  0  0  0
    0.9666   -4.2719    0.0000 C   0  0  0  0  0  0  0  0  0  0  0  0
    1.2756   -5.2230    0.0000 O   0  0  0  0  0  0  0  0  0  0  0  0
    1.6358   -3.5288    0.0000 N   0  0  0  0  0  0  0  0  0  0  0  0
    2.6139   -3.7368    0.0000 C   0  0  1  0  0  0  0  0  0  0  0  0
    3.5921   -3.9447    0.0000 H   0  0  0  0  0  0  0  0  0  0  0  0
    2.4060   -4.7149    0.0000 C   0  0  0  0  0  0  0  0  0  0  0  0
    3.1491   -5.3841    0.0000 O   0  0  0  0  0  0  0  0  0  0  0  0
    2.8219   -2.7586    0.0000 C   0  0  0  0  0  0  0  0  0  0  0  0
    2.0788   -2.0895    0.0000 O   0  0  0  0  0  0  0  0  0  0  0  0
    3.7730   -2.4497    0.0000 N   0  0  0  0  0  0  0  0  0  0  0  0
    3.9809   -1.4715    0.0000 C   0  0  1  0  0  0  0  0  0  0  0  0
    4.1889   -0.4934    0.0000 H   0  0  0  0  0  0  0  0  0  0  0  0
    3.0028   -1.2636    0.0000 C   0  0  0  0  0  0  0  0  0  0  0  0
    2.6938   -0.3125    0.0000 C   0  0  0  0  0  0  0  0  0  0  0  0
    3.2858    0.5023    0.0000 C   0  0  0  0  0  0  0  0  0  0  0  0
    2.6938    1.3169    0.0000 N   0  0  0  0  0  0  0  0  0  0  0  0
    1.7360    1.0058    0.0000 C   0  0  0  0  0  0  0  0  0  0  0  0
    0.8680    1.5138    0.0000 C   0  0  0  0  0  0  0  0  0  0  0  0
    0.0000    1.0058    0.0000 C   0  0  0  0  0  0  0  0  0  0  0  0
    0.0000    0.0000    0.0000 C   0  0  0  0  0  0  0  0  0  0  0  0
    0.8680   -0.4978    0.0000 C   0  0  0  0  0  0  0  0  0  0  0  0
    1.7360   -0.0012    0.0000 C   0  0  0  0  0  0  0  0  0  0  0  0
    4.9590   -1.6795    0.0000 C   0  0  0  0  0  0  0  0  0  0  0  0
    5.2680   -2.6306    0.0000 O   0  0  0  0  0  0  0  0  0  0  0  0
    5.6282   -0.9364    0.0000 N   0  0  0  0  0  0  0  0  0  0  0  0
    6.6064   -1.1443    0.0000 C   0  0  1  0  0  0  0  0  0  0  0  0
    6.3984   -2.1225    0.0000 H   0  0  0  0  0  0  0  0  0  0  0  0
    6.8143   -0.1662    0.0000 C   0  0  0  0  0  0  0  0  0  0  0  0
    6.0712    0.5030    0.0000 C   0  0  0  0  0  0  0  0  0  0  0  0
    5.1161    0.1896    0.0000 C   0  0  0  0  0  0  0  0  0  0  0  0
    4.3729    0.8587    0.0000 C   0  0  0  0  0  0  0  0  0  0  0  0
    4.5752    1.8381    0.0000 C   0  0  0  0  0  0  0  0  0  0  0  0
    5.5303    2.1515    0.0000 C   0  0  0  0  0  0  0  0  0  0  0  0
    6.2831    1.4855    0.0000 C   0  0  0  0  0  0  0  0  0  0  0  0
    7.5845   -1.3523    0.0000 C   0  0  0  0  0  0  0  0  0  0  0  0
    7.8935   -2.3034    0.0000 O   0  0  0  0  0  0  0  0  0  0  0  0
    8.2537   -0.6092    0.0000 N   0  0  0  0  0  0  0  0  0  0  0  0
    9.2318   -0.8171    0.0000 C   0  0  1  0  0  0  0  0  0  0  0  0
   10.2099   -1.0251    0.0000 H   0  0  0  0  0  0  0  0  0  0  0  0
    9.0238   -1.7953    0.0000 C   0  0  0  0  0  0  0  0  0  0  0  0
    9.7669   -2.4644    0.0000 C   0  0  0  0  0  0  0  0  0  0  0  0
    9.5590   -3.4426    0.0000 C   0  0  0  0  0  0  0  0  0  0  0  0
   10.3021   -4.1118    0.0000 N   0  0  0  0  0  0  0  0  0  0  0  0
   10.0941   -5.0899    0.0000 C   0  0  0  0  0  0  0  0  0  0  0  0
   10.8373   -5.7591    0.0000 N   0  0  0  0  0  0  0  0  0  0  0  0
    9.1431   -5.3989    0.0000 O   0  0  0  0  0  0  0  0  0  0  0  0
    9.4398    0.1610    0.0000 C   0  0  0  0  0  0  0  0  0  0  0  0
    8.6966    0.8302    0.0000 N   0  0  0  0  0  0  0  0  0  0  0  0
   10.3908    0.4700    0.0000 O   0  0  0  0  0  0  0  0  0  0  0  0
  1  2  1  0  0  0  0
  2  3  2  0  0  0  0
  2  4  1  0  0  0  0
  4  5  1  0  0  0  0
  5  6  1  1  0  0  0
  5  7  1  0  0  0  0
  7  8  1  0  0  0  0
  5  9  1  0  0  0  0
  9 10  2  0  0  0  0
  9 11  1  0  0  0  0
 11 12  1  0  0  0  0
 12 13  1  6  0  0  0
 12 14  1  0  0  0  0
 14 15  1  0  0  0  0
 15 23  1  0  0  0  0
 15 16  2  0  0  0  0
 16 17  1  0  0  0  0
 17 18  1  0  0  0  0
 18 23  2  0  0  0  0
 18 19  1  0  0  0  0
 19 20  2  0  0  0  0
 20 21  1  0  0  0  0
 21 22  2  0  0  0  0
 22 23  1  0  0  0  0
 12 24  1  0  0  0  0
 24 25  2  0  0  0  0
 24 26  1  0  0  0  0
 26 27  1  0  0  0  0
 27 28  1  6  0  0  0
 27 29  1  0  0  0  0
 29 30  1  0  0  0  0
 30 35  2  0  0  0  0
 30 31  1  0  0  0  0
 31 32  2  0  0  0  0
 32 33  1  0  0  0  0
 33 34  2  0  0  0  0
 34 35  1  0  0  0  0
 27 36  1  0  0  0  0
 36 37  2  0  0  0  0
 36 38  1  0  0  0  0
 38 39  1  0  0  0  0
 39 40  1  1  0  0  0
 39 41  1  0  0  0  0
 41 42  1  0  0  0  0
 42 43  1  0  0  0  0
 43 44  1  0  0  0  0
 44 45  1  0  0  0  0
 45 46  1  0  0  0  0
 45 47  2  0  0  0  0
 39 48  1  0  0  0  0
 48 49  1  0  0  0  0
 48 50  2  0  0  0  0
M  END
$$$$
SAL-INS-68b-7
  -OEChem-03232022352D

 39 40  0     1  0  0  0  0  0999 V2000
   -2.5196    0.9696    0.0000 N   0  0  0  0  0  0  0  0  0  0  0  0
   -3.4707    0.6606    0.0000 C   0  0  0  0  0  0  0  0  0  0  0  0
   -4.2138    1.3298    0.0000 N   0  0  0  0  0  0  0  0  0  0  0  0
   -3.6786   -0.3175    0.0000 N   0  0  0  0  0  0  0  0  0  0  0  0
   -2.9355   -0.9867    0.0000 C   0  0  0  0  0  0  0  0  0  0  0  0
   -3.1435   -1.9648    0.0000 C   0  0  0  0  0  0  0  0  0  0  0  0
   -2.4003   -2.6340    0.0000 C   0  0  0  0  0  0  0  0  0  0  0  0
   -2.6083   -3.6121    0.0000 C   0  0  2  0  0  0  0  0  0  0  0  0
   -3.5864   -3.4042    0.0000 H   0  0  0  0  0  0  0  0  0  0  0  0
   -1.6302   -3.8201    0.0000 N   0  0  0  0  0  0  0  0  0  0  0  0
   -0.9610   -3.0770    0.0000 C   0  0  0  0  0  0  0  0  0  0  0  0
   -1.2700   -2.1259    0.0000 O   0  0  0  0  0  0  0  0  0  0  0  0
    0.0171   -3.2850    0.0000 C   0  0  0  0  0  0  0  0  0  0  0  0
    0.6863   -2.5418    0.0000 N   0  0  0  0  0  0  0  0  0  0  0  0
    1.6644   -2.7498    0.0000 C   0  0  0  0  0  0  0  0  0  0  0  0
    1.9734   -3.7009    0.0000 O   0  0  0  0  0  0  0  0  0  0  0  0
    2.3336   -2.0067    0.0000 C   0  0  2  0  0  0  0  0  0  0  0  0
    1.5905   -1.3375    0.0000 H   0  0  0  0  0  0  0  0  0  0  0  0
    3.0028   -1.2636    0.0000 C   0  0  0  0  0  0  0  0  0  0  0  0
    2.6938   -0.3125    0.0000 C   0  0  0  0  0  0  0  0  0  0  0  0
    3.2858    0.5023    0.0000 C   0  0  0  0  0  0  0  0  0  0  0  0
    2.6938    1.3169    0.0000 N   0  0  0  0  0  0  0  0  0  0  0  0
    1.7360    1.0058    0.0000 C   0  0  0  0  0  0  0  0  0  0  0  0
    0.8680    1.5138    0.0000 C   0  0  0  0  0  0  0  0  0  0  0  0
    0.0000    1.0058    0.0000 C   0  0  0  0  0  0  0  0  0  0  0  0
    0.0000    0.0000    0.0000 C   0  0  0  0  0  0  0  0  0  0  0  0
    0.8680   -0.4978    0.0000 C   0  0  0  0  0  0  0  0  0  0  0  0
    1.7360   -0.0012    0.0000 C   0  0  0  0  0  0  0  0  0  0  0  0
    3.0767   -2.6759    0.0000 N   0  0  0  0  0  0  0  0  0  0  0  0
    4.0278   -2.3669    0.0000 C   0  0  0  0  0  0  0  0  0  0  0  0
    4.2357   -1.3887    0.0000 O   0  0  0  0  0  0  0  0  0  0  0  0
    4.7709   -3.0360    0.0000 C   0  0  1  0  0  0  0  0  0  0  0  0
    5.4401   -2.2929    0.0000 H   0  0  0  0  0  0  0  0  0  0  0  0
    4.1017   -3.7792    0.0000 N   0  0  0  0  0  0  0  0  0  0  0  0
    5.5140   -3.7052    0.0000 C   0  0  0  0  0  0  0  0  0  0  0  0
    6.4651   -3.3962    0.0000 O   0  0  0  0  0  0  0  0  0  0  0  0
   -2.8163   -4.5903    0.0000 C   0  0  0  0  0  0  0  0  0  0  0  0
   -2.0732   -5.2594    0.0000 O   0  0  0  0  0  0  0  0  0  0  0  0
   -3.7673   -4.8993    0.0000 O   0  0  0  0  0  0  0  0  0  0  0  0
  1  2  2  0  0  0  0
  2  3  1  0  0  0  0
  2  4  1  0  0  0  0
  4  5  1  0  0  0  0
  5  6  1  0  0  0  0
  6  7  1  0  0  0  0
  7  8  1  0  0  0  0
  8  9  1  1  0  0  0
  8 10  1  0  0  0  0
 10 11  1  0  0  0  0
 11 12  2  0  0  0  0
 11 13  1  0  0  0  0
 13 14  1  0  0  0  0
 14 15  1  0  0  0  0
 15 16  2  0  0  0  0
 15 17  1  0  0  0  0
 17 18  1  1  0  0  0
 17 19  1  0  0  0  0
 19 20  1  0  0  0  0
 20 28  1  0  0  0  0
 20 21  2  0  0  0  0
 21 22  1  0  0  0  0
 22 23  1  0  0  0  0
 23 28  2  0  0  0  0
 23 24  1  0  0  0  0
 24 25  2  0  0  0  0
 25 26  1  0  0  0  0
 26 27  2  0  0  0  0
 27 28  1  0  0  0  0
 17 29  1  0  0  0  0
 29 30  1  0  0  0  0
 30 31  2  0  0  0  0
 30 32  1  0  0  0  0
 32 33  1  1  0  0  0
 32 34  1  0  0  0  0
 32 35  1  0  0  0  0
 35 36  1  0  0  0  0
  8 37  1  0  0  0  0
 37 38  2  0  0  0  0
 37 39  1  0  0  0  0
M  END
$$$$
SAL-INS-68b-8
  -OEChem-03232022352D

 42 43  0     1  0  0  0  0  0999 V2000
   -0.0115   -4.0640    0.0000 C   0  0  0  0  0  0  0  0  0  0  0  0
    0.9666   -4.2719    0.0000 C   0  0  0  0  0  0  0  0  0  0  0  0
    1.2756   -5.2230    0.0000 O   0  0  0  0  0  0  0  0  0  0  0  0
    1.6358   -3.5288    0.0000 N   0  0  0  0  0  0  0  0  0  0  0  0
    2.6139   -3.7368    0.0000 C   0  0  1  0  0  0  0  0  0  0  0  0
    3.5921   -3.9447    0.0000 H   0  0  0  0  0  0  0  0  0  0  0  0
    2.4060   -4.7149    0.0000 C   0  0  0  0  0  0  0  0  0  0  0  0
    3.1491   -5.3841    0.0000 O   0  0  0  0  0  0  0  0  0  0  0  0
    2.8219   -2.7586    0.0000 C   0  0  0  0  0  0  0  0  0  0  0  0
    2.0788   -2.0895    0.0000 O   0  0  0  0  0  0  0  0  0  0  0  0
    3.7730   -2.4497    0.0000 N   0  0  0  0  0  0  0  0  0  0  0  0
    3.9809   -1.4715    0.0000 C   0  0  1  0  0  0  0  0  0  0  0  0
    4.1889   -0.4934    0.0000 H   0  0  0  0  0  0  0  0  0  0  0  0
    3.0028   -1.2636    0.0000 C   0  0  0  0  0  0  0  0  0  0  0  0
    2.6938   -0.3125    0.0000 C   0  0  0  0  0  0  0  0  0  0  0  0
    3.2858    0.5023    0.0000 C   0  0  0  0  0  0  0  0  0  0  0  0
    2.6938    1.3169    0.0000 N   0  0  0  0  0  0  0  0  0  0  0  0
    1.7360    1.0058    0.0000 C   0  0  0  0  0  0  0  0  0  0  0  0
    0.8680    1.5138    0.0000 C   0  0  0  0  0  0  0  0  0  0  0  0
    0.0000    1.0058    0.0000 C   0  0  0  0  0  0  0  0  0  0  0  0
    0.0000    0.0000    0.0000 C   0  0  0  0  0  0  0  0  0  0  0  0
    0.8680   -0.4978    0.0000 C   0  0  0  0  0  0  0  0  0  0  0  0
    1.7360   -0.0012    0.0000 C   0  0  0  0  0  0  0  0  0  0  0  0
    4.9590   -1.6795    0.0000 C   0  0  0  0  0  0  0  0  0  0  0  0
    5.2680   -2.6306    0.0000 O   0  0  0  0  0  0  0  0  0  0  0  0
    5.6282   -0.9364    0.0000 N   0  0  0  0  0  0  0  0  0  0  0  0
    5.3192    0.0147    0.0000 C   0  0  0  0  0  0  0  0  0  0  0  0
    5.9884    0.7578    0.0000 C   0  0  0  0  0  0  0  0  0  0  0  0
    6.9665    0.5498    0.0000 O   0  0  0  0  0  0  0  0  0  0  0  0
    5.6794    1.7089    0.0000 N   0  0  0  0  0  0  0  0  0  0  0  0
    6.3486    2.4520    0.0000 C   0  0  1  0  0  0  0  0  0  0  0  0
    7.0178    3.1951    0.0000 H   0  0  0  0  0  0  0  0  0  0  0  0
    7.0917    1.7828    0.0000 C   0  0  0  0  0  0  0  0  0  0  0  0
    8.0428    2.0918    0.0000 C   0  0  0  0  0  0  0  0  0  0  0  0
    8.7859    1.4226    0.0000 C   0  0  0  0  0  0  0  0  0  0  0  0
    9.7370    1.7316    0.0000 N   0  0  0  0  0  0  0  0  0  0  0  0
   10.4801    1.0624    0.0000 C   0  0  0  0  0  0  0  0  0  0  0  0
   11.4312    1.3714    0.0000 N   0  0  0  0  0  0  0  0  0  0  0  0
   10.2721    0.0843    0.0000 O   0  0  0  0  0  0  0  0  0  0  0  0
    5.6055    3.1212    0.0000 C   0  0  0  0  0  0  0  0  0  0  0  0
    4.6544    2.8122    0.0000 N   0  0  0  0  0  0  0  0  0  0  0  0
    5.8135    4.0993    0.0000 O   0  0  0  0  0  0  0  0  0  0  0  0
  1  2  1  0  0  0  0
  2  3  2  0  0  0  0
  2  4  1  0  0  0  0
  4  5  1  0  0  0  0
  5  6  1  1  0  0  0
  5  7  1  0  0  0  0
  7  8  1  0  0  0  0
  5  9  1  0  0  0  0
  9 10  2  0  0  0  0
  9 11  1  0  0  0  0
 11 12  1  0  0  0  0
 12 13  1  6  0  0  0
 12 14  1  0  0  0  0
 14 15  1  0  0  0  0
 15 23  1  0  0  0  0
 15 16  2  0  0  0  0
 16 17  1  0  0  0  0
 17 18  1  0  0  0  0
 18 23  2  0  0  0  0
 18 19  1  0  0  0  0
 19 20  2  0  0  0  0
 20 21  1  0  0  0  0
 21 22  2  0  0  0  0
 22 23  1  0  0  0  0
 12 24  1  0  0  0  0
 24 25  2  0  0  0  0
 24 26  1  0  0  0  0
 26 27  1  0  0  0  0
 27 28  1  0  0  0  0
 28 29  2  0  0  0  0
 28 30  1  0  0  0  0
 30 31  1  0  0  0  0
 31 32  1  1  0  0  0
 31 33  1  0  0  0  0
 33 34  1  0  0  0  0
 34 35  1  0  0  0  0
 35 36  1  0  0  0  0
 36 37  1  0  0  0  0
 37 38  1  0  0  0  0
 37 39  2  0  0  0  0
 31 40  1  0  0  0  0
 40 41  1  0  0  0  0
 40 42  2  0  0  0  0
M  END
$$$$
SAL-INS-68b-9
  -OEChem-03232022352D

 42 43  0     1  0  0  0  0  0999 V2000
    6.3158   -7.7914    0.0000 N   0  0  0  0  0  0  0  0  0  0  0  0
    6.9849   -7.0483    0.0000 C   0  0  0  0  0  0  0  0  0  0  0  0
    7.9631   -7.2562    0.0000 N   0  0  0  0  0  0  0  0  0  0  0  0
    6.6760   -6.0972    0.0000 N   0  0  0  0  0  0  0  0  0  0  0  0
    5.6978   -5.8893    0.0000 C   0  0  0  0  0  0  0  0  0  0  0  0
    5.3888   -4.9382    0.0000 C   0  0  0  0  0  0  0  0  0  0  0  0
    4.4107   -4.7302    0.0000 C   0  0  0  0  0  0  0  0  0  0  0  0
    3.7415   -5.4733    0.0000 C   0  0  2  0  0  0  0  0  0  0  0  0
    4.4847   -6.1425    0.0000 H   0  0  0  0  0  0  0  0  0  0  0  0
    2.9984   -4.8042    0.0000 N   0  0  0  0  0  0  0  0  0  0  0  0
    2.0474   -5.1131    0.0000 C   0  0  0  0  0  0  0  0  0  0  0  0
    1.8394   -6.0913    0.0000 O   0  0  0  0  0  0  0  0  0  0  0  0
    1.3042   -4.4440    0.0000 C   0  0  1  0  0  0  0  0  0  0  0  0
    0.6351   -5.1871    0.0000 H   0  0  0  0  0  0  0  0  0  0  0  0
    0.5611   -3.7748    0.0000 C   0  0  0  0  0  0  0  0  0  0  0  0
   -0.3899   -4.0838    0.0000 O   0  0  0  0  0  0  0  0  0  0  0  0
    1.9734   -3.7009    0.0000 N   0  0  0  0  0  0  0  0  0  0  0  0
    1.6644   -2.7498    0.0000 C   0  0  0  0  0  0  0  0  0  0  0  0
    0.6863   -2.5418    0.0000 O   0  0  0  0  0  0  0  0  0  0  0  0
    2.3336   -2.0067    0.0000 C   0  0  2  0  0  0  0  0  0  0  0  0
    1.5905   -1.3375    0.0000 H   0  0  0  0  0  0  0  0  0  0  0  0
    3.0028   -1.2636    0.0000 C   0  0  0  0  0  0  0  0  0  0  0  0
    2.6938   -0.3125    0.0000 C   0  0  0  0  0  0  0  0  0  0  0  0
    3.2858    0.5023    0.0000 C   0  0  0  0  0  0  0  0  0  0  0  0
    2.6938    1.3169    0.0000 N   0  0  0  0  0  0  0  0  0  0  0  0
    1.7360    1.0058    0.0000 C   0  0  0  0  0  0  0  0  0  0  0  0
    0.8680    1.5138    0.0000 C   0  0  0  0  0  0  0  0  0  0  0  0
    0.0000    1.0058    0.0000 C   0  0  0  0  0  0  0  0  0  0  0  0
    0.0000    0.0000    0.0000 C   0  0  0  0  0  0  0  0  0  0  0  0
    0.8680   -0.4978    0.0000 C   0  0  0  0  0  0  0  0  0  0  0  0
    1.7360   -0.0012    0.0000 C   0  0  0  0  0  0  0  0  0  0  0  0
    3.0767   -2.6759    0.0000 N   0  0  0  0  0  0  0  0  0  0  0  0
    4.0278   -2.3669    0.0000 C   0  0  0  0  0  0  0  0  0  0  0  0
    4.2357   -1.3887    0.0000 O   0  0  0  0  0  0  0  0  0  0  0  0
    4.7709   -3.0360    0.0000 C   0  0  1  0  0  0  0  0  0  0  0  0
    5.4401   -2.2929    0.0000 H   0  0  0  0  0  0  0  0  0  0  0  0
    4.1017   -3.7792    0.0000 N   0  0  0  0  0  0  0  0  0  0  0  0
    5.5140   -3.7052    0.0000 C   0  0  0  0  0  0  0  0  0  0  0  0
    6.4651   -3.3962    0.0000 O   0  0  0  0  0  0  0  0  0  0  0  0
    3.0724   -6.2165    0.0000 C   0  0  0  0  0  0  0  0  0  0  0  0
    2.0942   -6.0085    0.0000 O   0  0  0  0  0  0  0  0  0  0  0  0
    3.3813   -7.1675    0.0000 O   0  0  0  0  0  0  0  0  0  0  0  0
  1  2  2  0  0  0  0
  2  3  1  0  0  0  0
  2  4  1  0  0  0  0
  4  5  1  0  0  0  0
  5  6  1  0  0  0  0
  6  7  1  0  0  0  0
  7  8  1  0  0  0  0
  8  9  1  6  0  0  0
  8 10  1  0  0  0  0
 10 11  1  0  0  0  0
 11 12  2  0  0  0  0
 11 13  1  0  0  0  0
 13 14  1  6  0  0  0
 13 15  1  0  0  0  0
 15 16  1  0  0  0  0
 13 17  1  0  0  0  0
 17 18  1  0  0  0  0
 18 19  2  0  0  0  0
 18 20  1  0  0  0  0
 20 21  1  1  0  0  0
 20 22  1  0  0  0  0
 22 23  1  0  0  0  0
 23 31  1  0  0  0  0
 23 24  2  0  0  0  0
 24 25  1  0  0  0  0
 25 26  1  0  0  0  0
 26 31  2  0  0  0  0
 26 27  1  0  0  0  0
 27 28  2  0  0  0  0
 28 29  1  0  0  0  0
 29 30  2  0  0  0  0
 30 31  1  0  0  0  0
 20 32  1  0  0  0  0
 32 33  1  0  0  0  0
 33 34  2  0  0  0  0
 33 35  1  0  0  0  0
 35 36  1  1  0  0  0
 35 37  1  0  0  0  0
 35 38  1  0  0  0  0
 38 39  1  0  0  0  0
  8 40  1  0  0  0  0
 40 41  2  0  0  0  0
 40 42  1  0  0  0  0
M  END
$$$$
SAL-INS-68b-10
  -OEChem-03232022352D

 45 46  0     1  0  0  0  0  0999 V2000
    7.0874   -1.7578    0.0000 C   0  0  0  0  0  0  0  0  0  0  0  0
    6.4182   -2.5009    0.0000 C   0  0  0  0  0  0  0  0  0  0  0  0
    6.7272   -3.4520    0.0000 O   0  0  0  0  0  0  0  0  0  0  0  0
    5.4401   -2.2929    0.0000 N   0  0  0  0  0  0  0  0  0  0  0  0
    4.7709   -3.0360    0.0000 C   0  0  1  0  0  0  0  0  0  0  0  0
    4.1017   -3.7792    0.0000 H   0  0  0  0  0  0  0  0  0  0  0  0
    5.5140   -3.7052    0.0000 C   0  0  0  0  0  0  0  0  0  0  0  0
    5.3061   -4.6834    0.0000 O   0  0  0  0  0  0  0  0  0  0  0  0
    4.0278   -2.3669    0.0000 C   0  0  0  0  0  0  0  0  0  0  0  0
    4.2357   -1.3887    0.0000 O   0  0  0  0  0  0  0  0  0  0  0  0
    3.0767   -2.6759    0.0000 N   0  0  0  0  0  0  0  0  0  0  0  0
    2.3336   -2.0067    0.0000 C   0  0  1  0  0  0  0  0  0  0  0  0
    1.5905   -1.3375    0.0000 H   0  0  0  0  0  0  0  0  0  0  0  0
    3.0028   -1.2636    0.0000 C   0  0  0  0  0  0  0  0  0  0  0  0
    2.6938   -0.3125    0.0000 C   0  0  0  0  0  0  0  0  0  0  0  0
    3.2858    0.5023    0.0000 C   0  0  0  0  0  0  0  0  0  0  0  0
    2.6938    1.3169    0.0000 N   0  0  0  0  0  0  0  0  0  0  0  0
    1.7360    1.0058    0.0000 C   0  0  0  0  0  0  0  0  0  0  0  0
    0.8680    1.5138    0.0000 C   0  0  0  0  0  0  0  0  0  0  0  0
    0.0000    1.0058    0.0000 C   0  0  0  0  0  0  0  0  0  0  0  0
    0.0000    0.0000    0.0000 C   0  0  0  0  0  0  0  0  0  0  0  0
    0.8680   -0.4978    0.0000 C   0  0  0  0  0  0  0  0  0  0  0  0
    1.7360   -0.0012    0.0000 C   0  0  0  0  0  0  0  0  0  0  0  0
    1.6644   -2.7498    0.0000 C   0  0  0  0  0  0  0  0  0  0  0  0
    1.9734   -3.7009    0.0000 O   0  0  0  0  0  0  0  0  0  0  0  0
    0.6863   -2.5418    0.0000 N   0  0  0  0  0  0  0  0  0  0  0  0
    0.0171   -3.2850    0.0000 C   0  0  2  0  0  0  0  0  0  0  0  0
   -0.6520   -4.0281    0.0000 H   0  0  0  0  0  0  0  0  0  0  0  0
    0.7602   -3.9541    0.0000 C   0  0  0  0  0  0  0  0  0  0  0  0
    0.5523   -4.9323    0.0000 O   0  0  0  0  0  0  0  0  0  0  0  0
   -0.7260   -2.6158    0.0000 C   0  0  0  0  0  0  0  0  0  0  0  0
   -0.5180   -1.6376    0.0000 O   0  0  0  0  0  0  0  0  0  0  0  0
   -1.6771   -2.9248    0.0000 N   0  0  0  0  0  0  0  0  0  0  0  0
   -2.4202   -2.2556    0.0000 C   0  0  1  0  0  0  0  0  0  0  0  0
   -1.7510   -1.5125    0.0000 H   0  0  0  0  0  0  0  0  0  0  0  0
   -3.0893   -2.9987    0.0000 C   0  0  0  0  0  0  0  0  0  0  0  0
   -2.7804   -3.9498    0.0000 C   0  0  0  0  0  0  0  0  0  0  0  0
   -3.4495   -4.6929    0.0000 C   0  0  0  0  0  0  0  0  0  0  0  0
   -3.1406   -5.6440    0.0000 N   0  0  0  0  0  0  0  0  0  0  0  0
   -3.8097   -6.3871    0.0000 C   0  0  0  0  0  0  0  0  0  0  0  0
   -3.5008   -7.3381    0.0000 N   0  0  0  0  0  0  0  0  0  0  0  0
   -4.7879   -6.1791    0.0000 O   0  0  0  0  0  0  0  0  0  0  0  0
   -3.1633   -1.5864    0.0000 C   0  0  0  0  0  0  0  0  0  0  0  0
   -4.1143   -1.8954    0.0000 N   0  0  0  0  0  0  0  0  0  0  0  0
   -2.9553   -0.6083    0.0000 O   0  0  0  0  0  0  0  0  0  0  0  0
  1  2  1  0  0  0  0
  2  3  2  0  0  0  0
  2  4  1  0  0  0  0
  4  5  1  0  0  0  0
  5  6  1  6  0  0  0
  5  7  1  0  0  0  0
  7  8  1  0  0  0  0
  5  9  1  0  0  0  0
  9 10  2  0  0  0  0
  9 11  1  0  0  0  0
 11 12  1  0  0  0  0
 12 13  1  1  0  0  0
 12 14  1  0  0  0  0
 14 15  1  0  0  0  0
 15 23  1  0  0  0  0
 15 16  2  0  0  0  0
 16 17  1  0  0  0  0
 17 18  1  0  0  0  0
 18 23  2  0  0  0  0
 18 19  1  0  0  0  0
 19 20  2  0  0  0  0
 20 21  1  0  0  0  0
 21 22  2  0  0  0  0
 22 23  1  0  0  0  0
 12 24  1  0  0  0  0
 24 25  2  0  0  0  0
 24 26  1  0  0  0  0
 26 27  1  0  0  0  0
 27 28  1  1  0  0  0
 27 29  1  0  0  0  0
 29 30  1  0  0  0  0
 27 31  1  0  0  0  0
 31 32  2  0  0  0  0
 31 33  1  0  0  0  0
 33 34  1  0  0  0  0
 34 35  1  6  0  0  0
 34 36  1  0  0  0  0
 36 37  1  0  0  0  0
 37 38  1  0  0  0  0
 38 39  1  0  0  0  0
 39 40  1  0  0  0  0
 40 41  1  0  0  0  0
 40 42  2  0  0  0  0
 34 43  1  0  0  0  0
 43 44  1  0  0  0  0
 43 45  2  0  0  0  0
M  END
$$$$
SAL-INS-68b-11
  -OEChem-03232022352D

 39 39  0     1  0  0  0  0  0999 V2000
    7.4447    6.5814    0.0000 N   0  0  0  0  0  0  0  0  0  0  0  0
    6.5801    7.0839    0.0000 C   0  0  0  0  0  0  0  0  0  0  0  0
    6.5831    8.0839    0.0000 N   0  0  0  0  0  0  0  0  0  0  0  0
    5.7126    6.5865    0.0000 N   0  0  0  0  0  0  0  0  0  0  0  0
    5.7097    5.5865    0.0000 C   0  0  0  0  0  0  0  0  0  0  0  0
    4.8422    5.0891    0.0000 C   0  0  0  0  0  0  0  0  0  0  0  0
    4.8392    4.0891    0.0000 C   0  0  0  0  0  0  0  0  0  0  0  0
    5.7038    3.5865    0.0000 C   0  0  2  0  0  0  0  0  0  0  0  0
    6.2063    4.4511    0.0000 H   0  0  0  0  0  0  0  0  0  0  0  0
    5.2012    2.7220    0.0000 N   0  0  0  0  0  0  0  0  0  0  0  0
    5.6987    1.8545    0.0000 C   0  0  0  0  0  0  0  0  0  0  0  0
    6.6987    1.8515    0.0000 O   0  0  0  0  0  0  0  0  0  0  0  0
    5.1961    0.9899    0.0000 C   0  0  1  0  0  0  0  0  0  0  0  0
    6.0607    0.4874    0.0000 H   0  0  0  0  0  0  0  0  0  0  0  0
    4.6936    0.1254    0.0000 C   0  0  0  0  0  0  0  0  0  0  0  0
    5.1910   -0.7421    0.0000 O   0  0  0  0  0  0  0  0  0  0  0  0
    4.3316    1.4925    0.0000 N   0  0  0  0  0  0  0  0  0  0  0  0
    3.4641    0.9950    0.0000 C   0  0  0  0  0  0  0  0  0  0  0  0
    3.4611   -0.0050    0.0000 O   0  0  0  0  0  0  0  0  0  0  0  0
    2.5995    1.4976    0.0000 C   0  0  2  0  0  0  0  0  0  0  0  0
    2.0970    0.6330    0.0000 H   0  0  0  0  0  0  0  0  0  0  0  0
    1.7350    2.0001    0.0000 C   0  0  0  0  0  0  0  0  0  0  0  0
    0.8675    1.5027    0.0000 C   0  0  0  0  0  0  0  0  0  0  0  0
    0.8675    0.4975    0.0000 C   0  0  0  0  0  0  0  0  0  0  0  0
    0.0000    0.0000    0.0000 C   0  0  0  0  0  0  0  0  0  0  0  0
   -0.8675    0.4975    0.0000 C   0  0  0  0  0  0  0  0  0  0  0  0
   -0.8675    1.5027    0.0000 C   0  0  0  0  0  0  0  0  0  0  0  0
    0.0000    2.0104    0.0000 C   0  0  0  0  0  0  0  0  0  0  0  0
    3.1021    2.3621    0.0000 N   0  0  0  0  0  0  0  0  0  0  0  0
    2.6047    3.2296    0.0000 C   0  0  0  0  0  0  0  0  0  0  0  0
    1.6047    3.2326    0.0000 O   0  0  0  0  0  0  0  0  0  0  0  0
    3.1072    4.0942    0.0000 C   0  0  1  0  0  0  0  0  0  0  0  0
    2.2427    4.5967    0.0000 H   0  0  0  0  0  0  0  0  0  0  0  0
    3.9718    3.5916    0.0000 N   0  0  0  0  0  0  0  0  0  0  0  0
    3.6098    4.9587    0.0000 C   0  0  0  0  0  0  0  0  0  0  0  0
    3.1123    5.8262    0.0000 O   0  0  0  0  0  0  0  0  0  0  0  0
    6.5683    3.0840    0.0000 C   0  0  0  0  0  0  0  0  0  0  0  0
    6.5654    2.0840    0.0000 O   0  0  0  0  0  0  0  0  0  0  0  0
    7.4358    3.5814    0.0000 O   0  0  0  0  0  0  0  0  0  0  0  0
  1  2  2  0  0  0  0
  2  3  1  0  0  0  0
  2  4  1  0  0  0  0
  4  5  1  0  0  0  0
  5  6  1  0  0  0  0
  6  7  1  0  0  0  0
  7  8  1  0  0  0  0
  8  9  1  6  0  0  0
  8 10  1  0  0  0  0
 10 11  1  0  0  0  0
 11 12  2  0  0  0  0
 11 13  1  0  0  0  0
 13 14  1  6  0  0  0
 13 15  1  0  0  0  0
 15 16  1  0  0  0  0
 13 17  1  0  0  0  0
 17 18  1  0  0  0  0
 18 19  2  0  0  0  0
 18 20  1  0  0  0  0
 20 21  1  1  0  0  0
 20 22  1  0  0  0  0
 22 23  1  0  0  0  0
 23 28  2  0  0  0  0
 23 24  1  0  0  0  0
 24 25  2  0  0  0  0
 25 26  1  0  0  0  0
 26 27  2  0  0  0  0
 27 28  1  0  0  0  0
 20 29  1  0  0  0  0
 29 30  1  0  0  0  0
 30 31  2  0  0  0  0
 30 32  1  0  0  0  0
 32 33  1  1  0  0  0
 32 34  1  0  0  0  0
 32 35  1  0  0  0  0
 35 36  1  0  0  0  0
  8 37  1  0  0  0  0
 37 38  2  0  0  0  0
 37 39  1  0  0  0  0
M  END
$$$$
SAL-INS-68b-12
  -OEChem-03232022352D

 42 42  0     1  0  0  0  0  0999 V2000
    1.3811    6.0993    0.0000 C   0  0  0  0  0  0  0  0  0  0  0  0
    2.2456    5.5967    0.0000 C   0  0  0  0  0  0  0  0  0  0  0  0
    3.1131    6.0942    0.0000 O   0  0  0  0  0  0  0  0  0  0  0  0
    2.2427    4.5967    0.0000 N   0  0  0  0  0  0  0  0  0  0  0  0
    3.1072    4.0942    0.0000 C   0  0  1  0  0  0  0  0  0  0  0  0
    3.9718    3.5916    0.0000 H   0  0  0  0  0  0  0  0  0  0  0  0
    3.6098    4.9587    0.0000 C   0  0  0  0  0  0  0  0  0  0  0  0
    4.6098    4.9558    0.0000 O   0  0  0  0  0  0  0  0  0  0  0  0
    2.6047    3.2296    0.0000 C   0  0  0  0  0  0  0  0  0  0  0  0
    1.6047    3.2326    0.0000 O   0  0  0  0  0  0  0  0  0  0  0  0
    3.1021    2.3621    0.0000 N   0  0  0  0  0  0  0  0  0  0  0  0
    2.5995    1.4976    0.0000 C   0  0  1  0  0  0  0  0  0  0  0  0
    2.0970    0.6330    0.0000 H   0  0  0  0  0  0  0  0  0  0  0  0
    1.7350    2.0001    0.0000 C   0  0  0  0  0  0  0  0  0  0  0  0
    0.8675    1.5027    0.0000 C   0  0  0  0  0  0  0  0  0  0  0  0
    0.8675    0.4975    0.0000 C   0  0  0  0  0  0  0  0  0  0  0  0
    0.0000    0.0000    0.0000 C   0  0  0  0  0  0  0  0  0  0  0  0
   -0.8675    0.4975    0.0000 C   0  0  0  0  0  0  0  0  0  0  0  0
   -0.8675    1.5027    0.0000 C   0  0  0  0  0  0  0  0  0  0  0  0
    0.0000    2.0104    0.0000 C   0  0  0  0  0  0  0  0  0  0  0  0
    3.4641    0.9950    0.0000 C   0  0  0  0  0  0  0  0  0  0  0  0
    3.4611   -0.0050    0.0000 O   0  0  0  0  0  0  0  0  0  0  0  0
    4.3316    1.4925    0.0000 N   0  0  0  0  0  0  0  0  0  0  0  0
    5.1961    0.9899    0.0000 C   0  0  2  0  0  0  0  0  0  0  0  0
    6.0607    0.4874    0.0000 H   0  0  0  0  0  0  0  0  0  0  0  0
    4.6936    0.1254    0.0000 C   0  0  0  0  0  0  0  0  0  0  0  0
    5.1910   -0.7421    0.0000 O   0  0  0  0  0  0  0  0  0  0  0  0
    5.6987    1.8545    0.0000 C   0  0  0  0  0  0  0  0  0  0  0  0
    5.2012    2.7220    0.0000 O   0  0  0  0  0  0  0  0  0  0  0  0
    6.6987    1.8515    0.0000 N   0  0  0  0  0  0  0  0  0  0  0  0
    7.2012    2.7161    0.0000 C   0  0  1  0  0  0  0  0  0  0  0  0
    6.3367    3.2186    0.0000 H   0  0  0  0  0  0  0  0  0  0  0  0
    8.0658    2.2135    0.0000 C   0  0  0  0  0  0  0  0  0  0  0  0
    8.0628    1.2135    0.0000 C   0  0  0  0  0  0  0  0  0  0  0  0
    8.9274    0.7110    0.0000 C   0  0  0  0  0  0  0  0  0  0  0  0
    8.9244   -0.2890    0.0000 N   0  0  0  0  0  0  0  0  0  0  0  0
    9.7890   -0.7916    0.0000 C   0  0  0  0  0  0  0  0  0  0  0  0
    9.7860   -1.7916    0.0000 N   0  0  0  0  0  0  0  0  0  0  0  0
   10.6565   -0.2941    0.0000 O   0  0  0  0  0  0  0  0  0  0  0  0
    7.7038    3.5806    0.0000 C   0  0  0  0  0  0  0  0  0  0  0  0
    8.7038    3.5777    0.0000 N   0  0  0  0  0  0  0  0  0  0  0  0
    7.2063    4.4481    0.0000 O   0  0  0  0  0  0  0  0  0  0  0  0
  1  2  1  0  0  0  0
  2  3  2  0  0  0  0
  2  4  1  0  0  0  0
  4  5  1  0  0  0  0
  5  6  1  6  0  0  0
  5  7  1  0  0  0  0
  7  8  1  0  0  0  0
  5  9  1  0  0  0  0
  9 10  2  0  0  0  0
  9 11  1  0  0  0  0
 11 12  1  0  0  0  0
 12 13  1  1  0  0  0
 12 14  1  0  0  0  0
 14 15  1  0  0  0  0
 15 20  2  0  0  0  0
 15 16  1  0  0  0  0
 16 17  2  0  0  0  0
 17 18  1  0  0  0  0
 18 19  2  0  0  0  0
 19 20  1  0  0  0  0
 12 21  1  0  0  0  0
 21 22  2  0  0  0  0
 21 23  1  0  0  0  0
 23 24  1  0  0  0  0
 24 25  1  6  0  0  0
 24 26  1  0  0  0  0
 26 27  1  0  0  0  0
 24 28  1  0  0  0  0
 28 29  2  0  0  0  0
 28 30  1  0  0  0  0
 30 31  1  0  0  0  0
 31 32  1  1  0  0  0
 31 33  1  0  0  0  0
 33 34  1  0  0  0  0
 34 35  1  0  0  0  0
 35 36  1  0  0  0  0
 36 37  1  0  0  0  0
 37 38  1  0  0  0  0
 37 39  2  0  0  0  0
 31 40  1  0  0  0  0
 40 41  1  0  0  0  0
 40 42  2  0  0  0  0
M  END
$$$$
AGN-NEW-63f-1
  -OEChem-03232022352D

 27 29  0     1  0  0  0  0  0999 V2000
   -3.4641   -0.0050    0.0000 C   0  0  0  0  0  0  0  0  0  0  0  0
   -2.5973   -0.5038    0.0000 C   0  0  0  0  0  0  0  0  0  0  0  0
   -1.7320   -0.0025    0.0000 C   0  0  0  0  0  0  0  0  0  0  0  0
   -1.7335    0.9975    0.0000 O   0  0  0  0  0  0  0  0  0  0  0  0
   -0.8653   -0.5013    0.0000 N   0  0  0  0  0  0  0  0  0  0  0  0
    0.0000    0.0000    0.0000 C   0  0  3  0  0  0  0  0  0  0  0  0
   -0.0000    1.0052    0.0000 C   0  0  0  0  0  0  0  0  0  0  0  0
    0.8675    1.5129    0.0000 N   0  0  0  0  0  0  0  0  0  0  0  0
    0.8675    2.5129    0.0000 C   0  0  0  0  0  0  0  0  0  0  0  0
    1.7395    3.0129    0.0000 C   0  0  0  0  0  0  0  0  0  0  0  0
    1.7396    4.0130    0.0000 C   0  0  0  0  0  0  0  0  0  0  0  0
    2.6071    4.5104    0.0000 C   0  0  0  0  0  0  0  0  0  0  0  0
    0.8764    4.5180    0.0000 C   0  0  0  0  0  0  0  0  0  0  0  0
    0.0044    4.0180    0.0000 C   0  0  0  0  0  0  0  0  0  0  0  0
   -0.8586    4.5231    0.0000 Cl  0  0  0  0  0  0  0  0  0  0  0  0
   -0.0045    3.0129    0.0000 C   0  0  0  0  0  0  0  0  0  0  0  0
    1.7350    1.0052    0.0000 C   0  0  0  0  0  0  0  0  0  0  0  0
    2.6025    1.5026    0.0000 O   0  0  0  0  0  0  0  0  0  0  0  0
    1.7350    0.0000    0.0000 N   0  0  0  0  0  0  0  0  0  0  0  0
    2.6003   -0.5013    0.0000 C   0  0  0  0  0  0  0  0  0  0  0  0
    2.6003   -1.5065    0.0000 C   0  0  0  0  0  0  0  0  0  0  0  0
    3.4678   -2.0142    0.0000 N   0  0  0  0  0  0  0  0  0  0  0  0
    4.3353   -1.5065    0.0000 C   0  0  0  0  0  0  0  0  0  0  0  0
    4.3353   -0.5013    0.0000 C   0  0  0  0  0  0  0  0  0  0  0  0
    3.4678   -0.0038    0.0000 C   0  0  0  0  0  0  0  0  0  0  0  0
    3.4678    0.9962    0.0000 C   0  0  0  0  0  0  0  0  0  0  0  0
    0.8675   -0.4975    0.0000 C   0  0  0  0  0  0  0  0  0  0  0  0
  1  2  2  0  0  0  0
  2  3  1  0  0  0  0
  3  4  2  0  0  0  0
  3  5  1  0  0  0  0
  5  6  1  0  0  0  0
  6 27  1  0  0  0  0
  6  7  1  0  0  0  0
  7  8  1  0  0  0  0
  8  9  1  0  0  0  0
  9 16  2  0  0  0  0
  9 10  1  0  0  0  0
 10 11  2  0  0  0  0
 11 12  1  0  0  0  0
 11 13  1  0  0  0  0
 13 14  2  0  0  0  0
 14 15  1  0  0  0  0
 14 16  1  0  0  0  0
  8 17  1  0  0  0  0
 17 18  2  0  0  0  0
 17 19  1  0  0  0  0
 19 20  1  0  0  0  0
 20 25  2  0  0  0  0
 20 21  1  0  0  0  0
 21 22  2  0  0  0  0
 22 23  1  0  0  0  0
 23 24  2  0  0  0  0
 24 25  1  0  0  0  0
 25 26  1  0  0  0  0
 19 27  1  0  0  0  0
M  END
$$$$
AGN-NEW-63f-2
  -OEChem-03232022352D

 27 29  0     1  0  0  0  0  0999 V2000
   -3.4641   -0.0050    0.0000 C   0  0  0  0  0  0  0  0  0  0  0  0
   -2.5973   -0.5038    0.0000 C   0  0  0  0  0  0  0  0  0  0  0  0
   -1.7320   -0.0025    0.0000 C   0  0  0  0  0  0  0  0  0  0  0  0
   -1.7335    0.9975    0.0000 O   0  0  0  0  0  0  0  0  0  0  0  0
   -0.8653   -0.5013    0.0000 N   0  0  0  0  0  0  0  0  0  0  0  0
    0.0000    0.0000    0.0000 C   0  0  3  0  0  0  0  0  0  0  0  0
   -0.0000    1.0052    0.0000 C   0  0  0  0  0  0  0  0  0  0  0  0
    0.8675    1.5129    0.0000 N   0  0  0  0  0  0  0  0  0  0  0  0
    0.8675    2.5129    0.0000 C   0  0  0  0  0  0  0  0  0  0  0  0
    1.7395    3.0129    0.0000 C   0  0  0  0  0  0  0  0  0  0  0  0
    1.7396    4.0130    0.0000 C   0  0  0  0  0  0  0  0  0  0  0  0
    2.6071    4.5104    0.0000 C   0  0  0  0  0  0  0  0  0  0  0  0
    0.8764    4.5180    0.0000 C   0  0  0  0  0  0  0  0  0  0  0  0
    0.0044    4.0180    0.0000 C   0  0  0  0  0  0  0  0  0  0  0  0
   -0.8586    4.5231    0.0000 F   0  0  0  0  0  0  0  0  0  0  0  0
   -0.0045    3.0129    0.0000 C   0  0  0  0  0  0  0  0  0  0  0  0
    1.7350    1.0052    0.0000 C   0  0  0  0  0  0  0  0  0  0  0  0
    2.6025    1.5026    0.0000 O   0  0  0  0  0  0  0  0  0  0  0  0
    1.7350    0.0000    0.0000 N   0  0  0  0  0  0  0  0  0  0  0  0
    2.6003   -0.5013    0.0000 C   0  0  0  0  0  0  0  0  0  0  0  0
    2.6003   -1.5065    0.0000 C   0  0  0  0  0  0  0  0  0  0  0  0
    3.4678   -2.0142    0.0000 N   0  0  0  0  0  0  0  0  0  0  0  0
    4.3353   -1.5065    0.0000 C   0  0  0  0  0  0  0  0  0  0  0  0
    4.3353   -0.5013    0.0000 C   0  0  0  0  0  0  0  0  0  0  0  0
    3.4678   -0.0038    0.0000 C   0  0  0  0  0  0  0  0  0  0  0  0
    3.4678    0.9962    0.0000 C   0  0  0  0  0  0  0  0  0  0  0  0
    0.8675   -0.4975    0.0000 C   0  0  0  0  0  0  0  0  0  0  0  0
  1  2  2  0  0  0  0
  2  3  1  0  0  0  0
  3  4  2  0  0  0  0
  3  5  1  0  0  0  0
  5  6  1  0  0  0  0
  6 27  1  0  0  0  0
  6  7  1  0  0  0  0
  7  8  1  0  0  0  0
  8  9  1  0  0  0  0
  9 16  2  0  0  0  0
  9 10  1  0  0  0  0
 10 11  2  0  0  0  0
 11 12  1  0  0  0  0
 11 13  1  0  0  0  0
 13 14  2  0  0  0  0
 14 15  1  0  0  0  0
 14 16  1  0  0  0  0
  8 17  1  0  0  0  0
 17 18  2  0  0  0  0
 17 19  1  0  0  0  0
 19 20  1  0  0  0  0
 20 25  2  0  0  0  0
 20 21  1  0  0  0  0
 21 22  2  0  0  0  0
 22 23  1  0  0  0  0
 23 24  2  0  0  0  0
 24 25  1  0  0  0  0
 25 26  1  0  0  0  0
 19 27  1  0  0  0  0
M  END
$$$$
KIM-UNI-60f-1
  -OEChem-03232022352D

 14 15  0     0  0  0  0  0  0999 V2000
    0.8521   -2.5048    0.0000 C   0  0  0  0  0  0  0  0  0  0  0  0
    0.8576   -1.5048    0.0000 C   0  0  0  0  0  0  0  0  0  0  0  0
    1.7264   -1.0096    0.0000 O   0  0  0  0  0  0  0  0  0  0  0  0
   -0.0056   -1.0000    0.0000 N   0  0  0  0  0  0  0  0  0  0  0  0
    0.0000    0.0000    0.0000 C   0  0  0  0  0  0  0  0  0  0  0  0
    0.8766    0.4980    0.0000 C   0  0  0  0  0  0  0  0  0  0  0  0
    0.8809    1.5067    0.0000 N   0  0  0  0  0  0  0  0  0  0  0  0
    0.0086    2.0178    0.0000 C   0  0  0  0  0  0  0  0  0  0  0  0
   -0.8625    1.5142    0.0000 C   0  0  0  0  0  0  0  0  0  0  0  0
   -0.8668    0.5053    0.0000 C   0  0  0  0  0  0  0  0  0  0  0  0
   -1.7332    0.0060    0.0000 C   0  0  0  0  0  0  0  0  0  0  0  0
   -2.6039    0.5053    0.0000 C   0  0  0  0  0  0  0  0  0  0  0  0
   -2.6039    1.5142    0.0000 N   0  0  0  0  0  0  0  0  0  0  0  0
   -1.7332    2.0238    0.0000 C   0  0  0  0  0  0  0  0  0  0  0  0
  1  2  1  0  0  0  0
  2  3  2  0  0  0  0
  2  4  1  0  0  0  0
  4  5  1  0  0  0  0
  5 10  2  0  0  0  0
  5  6  1  0  0  0  0
  6  7  2  0  0  0  0
  7  8  1  0  0  0  0
  8  9  2  0  0  0  0
  9 14  1  0  0  0  0
  9 10  1  0  0  0  0
 10 11  1  0  0  0  0
 11 12  1  0  0  0  0
 12 13  1  0  0  0  0
 13 14  1  0  0  0  0
M  END
$$$$
KIM-UNI-60f-2
  -OEChem-03232022352D

 15 16  0     0  0  0  0  0  0999 V2000
   -0.0000   -1.0000    0.0000 C   0  0  0  0  0  0  0  0  0  0  0  0
    0.0000    0.0000    0.0000 C   0  0  0  0  0  0  0  0  0  0  0  0
   -0.8675    0.4975    0.0000 C   0  0  0  0  0  0  0  0  0  0  0  0
   -0.8675    1.5027    0.0000 C   0  0  0  0  0  0  0  0  0  0  0  0
    0.0000    2.0104    0.0000 N   0  0  0  0  0  0  0  0  0  0  0  0
    0.8675    1.5027    0.0000 C   0  0  0  0  0  0  0  0  0  0  0  0
    0.8675    0.4975    0.0000 C   0  0  0  0  0  0  0  0  0  0  0  0
    1.7328   -0.0038    0.0000 N   0  0  0  0  0  0  0  0  0  0  0  0
    1.7373   -1.0089    0.0000 C   0  0  0  0  0  0  0  0  0  0  0  0
    0.8720   -1.5102    0.0000 O   0  0  0  0  0  0  0  0  0  0  0  0
    2.6071   -1.5128    0.0000 C   0  0  0  0  0  0  0  0  0  0  0  0
    3.4724   -1.0115    0.0000 C   0  0  0  0  0  0  0  0  0  0  0  0
    3.4767   -0.0115    0.0000 N   0  0  0  0  0  0  0  0  0  0  0  0
    2.6070    0.4924    0.0000 C   0  0  0  0  0  0  0  0  0  0  0  0
    2.6114    1.4924    0.0000 O   0  0  0  0  0  0  0  0  0  0  0  0
  1  2  1  0  0  0  0
  2  7  2  0  0  0  0
  2  3  1  0  0  0  0
  3  4  2  0  0  0  0
  4  5  1  0  0  0  0
  5  6  2  0  0  0  0
  6  7  1  0  0  0  0
  7  8  1  0  0  0  0
  8 14  1  0  0  0  0
  8  9  1  0  0  0  0
  9 10  2  0  0  0  0
  9 11  1  0  0  0  0
 11 12  1  0  0  0  0
 12 13  1  0  0  0  0
 13 14  1  0  0  0  0
 14 15  2  0  0  0  0
M  END
$$$$
KIM-UNI-60f-3
  -OEChem-03232022352D

 19 20  0     0  0  0  0  0  0999 V2000
   -0.0000   -1.0000    0.0000 C   0  0  0  0  0  0  0  0  0  0  0  0
    0.0000    0.0000    0.0000 C   0  0  0  0  0  0  0  0  0  0  0  0
   -0.8675    0.4975    0.0000 C   0  0  0  0  0  0  0  0  0  0  0  0
   -0.8675    1.5027    0.0000 C   0  0  0  0  0  0  0  0  0  0  0  0
    0.0000    2.0104    0.0000 N   0  0  0  0  0  0  0  0  0  0  0  0
    0.8675    1.5027    0.0000 C   0  0  0  0  0  0  0  0  0  0  0  0
    0.8675    0.4975    0.0000 C   0  0  0  0  0  0  0  0  0  0  0  0
    1.7328   -0.0038    0.0000 N   0  0  0  0  0  0  0  0  0  0  0  0
    2.6003    0.4937    0.0000 C   0  0  0  0  0  0  0  0  0  0  0  0
    2.6003    1.4937    0.0000 O   0  0  0  0  0  0  0  0  0  0  0  0
    3.4678   -0.0038    0.0000 C   0  0  0  0  0  0  0  0  0  0  0  0
    3.4678   -1.0090    0.0000 C   0  0  0  0  0  0  0  0  0  0  0  0
    2.6003   -1.5167    0.0000 N   0  0  0  0  0  0  0  0  0  0  0  0
    2.6003   -2.5167    0.0000 C   0  0  0  0  0  0  0  0  0  0  0  0
    3.4663   -3.0167    0.0000 C   0  0  0  0  0  0  0  0  0  0  0  0
    4.3323   -2.5167    0.0000 N   0  0  0  0  0  0  0  0  0  0  0  0
    3.4663   -4.0167    0.0000 N   0  0  0  0  0  0  0  0  0  0  0  0
    1.7328   -1.0090    0.0000 C   0  0  0  0  0  0  0  0  0  0  0  0
    0.8653   -1.5064    0.0000 O   0  0  0  0  0  0  0  0  0  0  0  0
  1  2  1  0  0  0  0
  2  7  2  0  0  0  0
  2  3  1  0  0  0  0
  3  4  2  0  0  0  0
  4  5  1  0  0  0  0
  5  6  2  0  0  0  0
  6  7  1  0  0  0  0
  7  8  1  0  0  0  0
  8 18  1  0  0  0  0
  8  9  1  0  0  0  0
  9 10  2  0  0  0  0
  9 11  1  0  0  0  0
 11 12  1  0  0  0  0
 12 13  1  0  0  0  0
 13 14  1  0  0  0  0
 14 15  1  0  0  0  0
 15 16  2  0  0  0  0
 15 17  1  0  0  0  0
 13 18  1  0  0  0  0
 18 19  2  0  0  0  0
M  END
$$$$
KIM-UNI-60f-4
  -OEChem-03232022352D

 19 20  0     0  0  0  0  0  0999 V2000
   -0.0000   -1.0000    0.0000 C   0  0  0  0  0  0  0  0  0  0  0  0
    0.0000    0.0000    0.0000 C   0  0  0  0  0  0  0  0  0  0  0  0
   -0.8675    0.4975    0.0000 C   0  0  0  0  0  0  0  0  0  0  0  0
   -0.8675    1.5027    0.0000 C   0  0  0  0  0  0  0  0  0  0  0  0
    0.0000    2.0104    0.0000 N   0  0  0  0  0  0  0  0  0  0  0  0
    0.8675    1.5027    0.0000 C   0  0  0  0  0  0  0  0  0  0  0  0
    0.8675    0.4975    0.0000 C   0  0  0  0  0  0  0  0  0  0  0  0
    1.7328   -0.0038    0.0000 N   0  0  0  0  0  0  0  0  0  0  0  0
    2.6003    0.4937    0.0000 C   0  0  0  0  0  0  0  0  0  0  0  0
    2.6003    1.4937    0.0000 O   0  0  0  0  0  0  0  0  0  0  0  0
    3.4678   -0.0038    0.0000 C   0  0  0  0  0  0  0  0  0  0  0  0
    3.4678   -1.0090    0.0000 C   0  0  0  0  0  0  0  0  0  0  0  0
    2.6003   -1.5167    0.0000 N   0  0  0  0  0  0  0  0  0  0  0  0
    2.6003   -2.5167    0.0000 C   0  0  0  0  0  0  0  0  0  0  0  0
    3.4663   -3.0167    0.0000 C   0  0  0  0  0  0  0  0  0  0  0  0
    3.4663   -4.0167    0.0000 N   0  0  0  0  0  0  0  0  0  0  0  0
    4.3323   -2.5167    0.0000 O   0  0  0  0  0  0  0  0  0  0  0  0
    1.7328   -1.0090    0.0000 C   0  0  0  0  0  0  0  0  0  0  0  0
    0.8653   -1.5064    0.0000 O   0  0  0  0  0  0  0  0  0  0  0  0
  1  2  1  0  0  0  0
  2  7  2  0  0  0  0
  2  3  1  0  0  0  0
  3  4  2  0  0  0  0
  4  5  1  0  0  0  0
  5  6  2  0  0  0  0
  6  7  1  0  0  0  0
  7  8  1  0  0  0  0
  8 18  1  0  0  0  0
  8  9  1  0  0  0  0
  9 10  2  0  0  0  0
  9 11  1  0  0  0  0
 11 12  1  0  0  0  0
 12 13  1  0  0  0  0
 13 14  1  0  0  0  0
 14 15  1  0  0  0  0
 15 16  1  0  0  0  0
 15 17  2  0  0  0  0
 13 18  1  0  0  0  0
 18 19  2  0  0  0  0
M  END
$$$$
KIM-UNI-60f-5
  -OEChem-03232022352D

 20 21  0     0  0  0  0  0  0999 V2000
   -0.0000   -1.0000    0.0000 C   0  0  0  0  0  0  0  0  0  0  0  0
    0.0000    0.0000    0.0000 C   0  0  0  0  0  0  0  0  0  0  0  0
   -0.8675    0.4975    0.0000 C   0  0  0  0  0  0  0  0  0  0  0  0
   -0.8675    1.5027    0.0000 C   0  0  0  0  0  0  0  0  0  0  0  0
    0.0000    2.0104    0.0000 N   0  0  0  0  0  0  0  0  0  0  0  0
    0.8675    1.5027    0.0000 C   0  0  0  0  0  0  0  0  0  0  0  0
    0.8675    0.4975    0.0000 C   0  0  0  0  0  0  0  0  0  0  0  0
    1.7328   -0.0038    0.0000 N   0  0  0  0  0  0  0  0  0  0  0  0
    2.6003    0.4937    0.0000 C   0  0  0  0  0  0  0  0  0  0  0  0
    2.6003    1.4937    0.0000 O   0  0  0  0  0  0  0  0  0  0  0  0
    3.4678   -0.0038    0.0000 C   0  0  0  0  0  0  0  0  0  0  0  0
    3.4678   -1.0090    0.0000 C   0  0  0  0  0  0  0  0  0  0  0  0
    2.6003   -1.5167    0.0000 N   0  0  0  0  0  0  0  0  0  0  0  0
    2.6003   -2.5167    0.0000 C   0  0  0  0  0  0  0  0  0  0  0  0
    3.4663   -3.0167    0.0000 C   0  0  0  0  0  0  0  0  0  0  0  0
    3.4663   -4.0167    0.0000 C   0  0  0  0  0  0  0  0  0  0  0  0
    2.6003   -4.5167    0.0000 N   0  0  0  0  0  0  0  0  0  0  0  0
    4.3323   -4.5167    0.0000 N   0  0  0  0  0  0  0  0  0  0  0  0
    1.7328   -1.0090    0.0000 C   0  0  0  0  0  0  0  0  0  0  0  0
    0.8653   -1.5064    0.0000 O   0  0  0  0  0  0  0  0  0  0  0  0
  1  2  1  0  0  0  0
  2  7  2  0  0  0  0
  2  3  1  0  0  0  0
  3  4  2  0  0  0  0
  4  5  1  0  0  0  0
  5  6  2  0  0  0  0
  6  7  1  0  0  0  0
  7  8  1  0  0  0  0
  8 19  1  0  0  0  0
  8  9  1  0  0  0  0
  9 10  2  0  0  0  0
  9 11  1  0  0  0  0
 11 12  1  0  0  0  0
 12 13  1  0  0  0  0
 13 14  1  0  0  0  0
 14 15  1  0  0  0  0
 15 16  1  0  0  0  0
 16 17  2  0  0  0  0
 16 18  1  0  0  0  0
 13 19  1  0  0  0  0
 19 20  2  0  0  0  0
M  END
$$$$
KIM-UNI-60f-6
  -OEChem-03232022352D

 20 21  0     0  0  0  0  0  0999 V2000
   -0.0000   -1.0000    0.0000 C   0  0  0  0  0  0  0  0  0  0  0  0
    0.0000    0.0000    0.0000 C   0  0  0  0  0  0  0  0  0  0  0  0
   -0.8675    0.4975    0.0000 C   0  0  0  0  0  0  0  0  0  0  0  0
   -0.8675    1.5027    0.0000 C   0  0  0  0  0  0  0  0  0  0  0  0
    0.0000    2.0104    0.0000 N   0  0  0  0  0  0  0  0  0  0  0  0
    0.8675    1.5027    0.0000 C   0  0  0  0  0  0  0  0  0  0  0  0
    0.8675    0.4975    0.0000 C   0  0  0  0  0  0  0  0  0  0  0  0
    1.7328   -0.0038    0.0000 N   0  0  0  0  0  0  0  0  0  0  0  0
    2.6003    0.4937    0.0000 C   0  0  0  0  0  0  0  0  0  0  0  0
    2.6003    1.4937    0.0000 O   0  0  0  0  0  0  0  0  0  0  0  0
    3.4678   -0.0038    0.0000 C   0  0  0  0  0  0  0  0  0  0  0  0
    3.4678   -1.0090    0.0000 C   0  0  0  0  0  0  0  0  0  0  0  0
    2.6003   -1.5167    0.0000 N   0  0  0  0  0  0  0  0  0  0  0  0
    2.6003   -2.5167    0.0000 C   0  0  0  0  0  0  0  0  0  0  0  0
    3.4663   -3.0167    0.0000 C   0  0  0  0  0  0  0  0  0  0  0  0
    3.4663   -4.0167    0.0000 C   0  0  0  0  0  0  0  0  0  0  0  0
    4.3323   -4.5167    0.0000 N   0  0  0  0  0  0  0  0  0  0  0  0
    2.6003   -4.5167    0.0000 O   0  0  0  0  0  0  0  0  0  0  0  0
    1.7328   -1.0090    0.0000 C   0  0  0  0  0  0  0  0  0  0  0  0
    0.8653   -1.5064    0.0000 O   0  0  0  0  0  0  0  0  0  0  0  0
  1  2  1  0  0  0  0
  2  7  2  0  0  0  0
  2  3  1  0  0  0  0
  3  4  2  0  0  0  0
  4  5  1  0  0  0  0
  5  6  2  0  0  0  0
  6  7  1  0  0  0  0
  7  8  1  0  0  0  0
  8 19  1  0  0  0  0
  8  9  1  0  0  0  0
  9 10  2  0  0  0  0
  9 11  1  0  0  0  0
 11 12  1  0  0  0  0
 12 13  1  0  0  0  0
 13 14  1  0  0  0  0
 14 15  1  0  0  0  0
 15 16  1  0  0  0  0
 16 17  1  0  0  0  0
 16 18  2  0  0  0  0
 13 19  1  0  0  0  0
 19 20  2  0  0  0  0
M  END
$$$$
KIM-UNI-60f-7
  -OEChem-03232022352D

 22 24  0     1  0  0  0  0  0999 V2000
   -2.5957    2.5249    0.0000 C   0  0  0  0  0  0  0  0  0  0  0  0
   -1.7289    3.0236    0.0000 C   0  0  0  0  0  0  0  0  0  0  0  0
   -1.7304    4.0236    0.0000 C   0  0  0  0  0  0  0  0  0  0  0  0
   -0.8591    4.5249    0.0000 C   0  0  0  0  0  0  0  0  0  0  0  0
    0.0136    4.0262    0.0000 N   0  0  0  0  0  0  0  0  0  0  0  0
    0.0062    3.0211    0.0000 C   0  0  0  0  0  0  0  0  0  0  0  0
   -0.8651    2.5198    0.0000 C   0  0  0  0  0  0  0  0  0  0  0  0
   -0.8680    1.5198    0.0000 N   0  0  0  0  0  0  0  0  0  0  0  0
   -1.7391    1.0162    0.0000 C   0  0  0  0  0  0  0  0  0  0  0  0
   -1.7434    0.0073    0.0000 C   0  0  0  0  0  0  0  0  0  0  0  0
   -0.8766   -0.4980    0.0000 C   0  0  0  0  0  0  0  0  0  0  0  0
    0.0000    0.0000    0.0000 C   0  0  0  0  0  0  0  0  0  0  0  0
    0.0043    1.0087    0.0000 C   0  0  0  0  0  0  0  0  0  0  0  0
    0.8730    1.5041    0.0000 O   0  0  0  0  0  0  0  0  0  0  0  0
   -2.6098   -0.4920    0.0000 N   0  0  3  0  0  0  0  0  0  0  0  0
   -2.6087   -1.4920    0.0000 C   0  0  0  0  0  0  0  0  0  0  0  0
   -1.7422   -1.9911    0.0000 C   0  0  0  0  0  0  0  0  0  0  0  0
   -0.8767   -1.4901    0.0000 N   0  0  0  0  0  0  0  0  0  0  0  0
   -1.7411   -2.9911    0.0000 N   0  0  0  0  0  0  0  0  0  0  0  0
   -3.4805    0.0073    0.0000 C   0  0  0  0  0  0  0  0  0  0  0  0
   -3.4805    1.0162    0.0000 C   0  0  0  0  0  0  0  0  0  0  0  0
   -2.6098    1.5258    0.0000 C   0  0  0  0  0  0  0  0  0  0  0  0
  1  2  1  0  0  0  0
  2  7  2  0  0  0  0
  2  3  1  0  0  0  0
  3  4  2  0  0  0  0
  4  5  1  0  0  0  0
  5  6  2  0  0  0  0
  6  7  1  0  0  0  0
  7  8  1  0  0  0  0
  8 13  1  0  0  0  0
  8  9  1  0  0  0  0
  9 22  1  0  0  0  0
  9 10  2  0  0  0  0
 10 11  1  0  0  0  0
 11 12  2  0  0  0  0
 12 13  1  0  0  0  0
 13 14  2  0  0  0  0
 10 15  1  0  0  0  0
 15 16  1  0  0  0  0
 16 17  1  0  0  0  0
 17 18  2  0  0  0  0
 17 19  1  0  0  0  0
 15 20  1  0  0  0  0
 20 21  1  0  0  0  0
 21 22  1  0  0  0  0
M  END
$$$$
KIM-UNI-60f-8
  -OEChem-03232022352D

 22 24  0     1  0  0  0  0  0999 V2000
   -2.5957    2.5249    0.0000 C   0  0  0  0  0  0  0  0  0  0  0  0
   -1.7289    3.0236    0.0000 C   0  0  0  0  0  0  0  0  0  0  0  0
   -1.7304    4.0236    0.0000 C   0  0  0  0  0  0  0  0  0  0  0  0
   -0.8591    4.5249    0.0000 C   0  0  0  0  0  0  0  0  0  0  0  0
    0.0136    4.0262    0.0000 N   0  0  0  0  0  0  0  0  0  0  0  0
    0.0062    3.0211    0.0000 C   0  0  0  0  0  0  0  0  0  0  0  0
   -0.8651    2.5198    0.0000 C   0  0  0  0  0  0  0  0  0  0  0  0
   -0.8680    1.5198    0.0000 N   0  0  0  0  0  0  0  0  0  0  0  0
   -1.7391    1.0162    0.0000 C   0  0  0  0  0  0  0  0  0  0  0  0
   -1.7434    0.0073    0.0000 C   0  0  0  0  0  0  0  0  0  0  0  0
   -0.8766   -0.4980    0.0000 C   0  0  0  0  0  0  0  0  0  0  0  0
    0.0000    0.0000    0.0000 C   0  0  0  0  0  0  0  0  0  0  0  0
    0.0043    1.0087    0.0000 C   0  0  0  0  0  0  0  0  0  0  0  0
    0.8730    1.5041    0.0000 O   0  0  0  0  0  0  0  0  0  0  0  0
   -2.6098   -0.4920    0.0000 N   0  0  3  0  0  0  0  0  0  0  0  0
   -2.6087   -1.4920    0.0000 C   0  0  0  0  0  0  0  0  0  0  0  0
   -1.7422   -1.9911    0.0000 C   0  0  0  0  0  0  0  0  0  0  0  0
   -1.7411   -2.9911    0.0000 N   0  0  0  0  0  0  0  0  0  0  0  0
   -0.8767   -1.4901    0.0000 O   0  0  0  0  0  0  0  0  0  0  0  0
   -3.4805    0.0073    0.0000 C   0  0  0  0  0  0  0  0  0  0  0  0
   -3.4805    1.0162    0.0000 C   0  0  0  0  0  0  0  0  0  0  0  0
   -2.6098    1.5258    0.0000 C   0  0  0  0  0  0  0  0  0  0  0  0
  1  2  1  0  0  0  0
  2  7  2  0  0  0  0
  2  3  1  0  0  0  0
  3  4  2  0  0  0  0
  4  5  1  0  0  0  0
  5  6  2  0  0  0  0
  6  7  1  0  0  0  0
  7  8  1  0  0  0  0
  8 13  1  0  0  0  0
  8  9  1  0  0  0  0
  9 22  1  0  0  0  0
  9 10  2  0  0  0  0
 10 11  1  0  0  0  0
 11 12  2  0  0  0  0
 12 13  1  0  0  0  0
 13 14  2  0  0  0  0
 10 15  1  0  0  0  0
 15 16  1  0  0  0  0
 16 17  1  0  0  0  0
 17 18  1  0  0  0  0
 17 19  2  0  0  0  0
 15 20  1  0  0  0  0
 20 21  1  0  0  0  0
 21 22  1  0  0  0  0
M  END
$$$$
KIM-UNI-60f-9
  -OEChem-03232022352D

 23 25  0     1  0  0  0  0  0999 V2000
   -2.5957    2.5249    0.0000 C   0  0  0  0  0  0  0  0  0  0  0  0
   -1.7289    3.0236    0.0000 C   0  0  0  0  0  0  0  0  0  0  0  0
   -1.7304    4.0236    0.0000 C   0  0  0  0  0  0  0  0  0  0  0  0
   -0.8591    4.5249    0.0000 C   0  0  0  0  0  0  0  0  0  0  0  0
    0.0136    4.0262    0.0000 N   0  0  0  0  0  0  0  0  0  0  0  0
    0.0062    3.0211    0.0000 C   0  0  0  0  0  0  0  0  0  0  0  0
   -0.8651    2.5198    0.0000 C   0  0  0  0  0  0  0  0  0  0  0  0
   -0.8680    1.5198    0.0000 N   0  0  0  0  0  0  0  0  0  0  0  0
   -1.7391    1.0162    0.0000 C   0  0  0  0  0  0  0  0  0  0  0  0
   -1.7434    0.0073    0.0000 C   0  0  0  0  0  0  0  0  0  0  0  0
   -0.8766   -0.4980    0.0000 C   0  0  0  0  0  0  0  0  0  0  0  0
    0.0000    0.0000    0.0000 C   0  0  0  0  0  0  0  0  0  0  0  0
    0.0043    1.0087    0.0000 C   0  0  0  0  0  0  0  0  0  0  0  0
    0.8730    1.5041    0.0000 O   0  0  0  0  0  0  0  0  0  0  0  0
   -2.6098   -0.4920    0.0000 N   0  0  3  0  0  0  0  0  0  0  0  0
   -2.6087   -1.4920    0.0000 C   0  0  0  0  0  0  0  0  0  0  0  0
   -1.7422   -1.9911    0.0000 C   0  0  0  0  0  0  0  0  0  0  0  0
   -1.7411   -2.9911    0.0000 C   0  0  0  0  0  0  0  0  0  0  0  0
   -2.6066   -3.4920    0.0000 N   0  0  0  0  0  0  0  0  0  0  0  0
   -0.8745   -3.4901    0.0000 N   0  0  0  0  0  0  0  0  0  0  0  0
   -3.4805    0.0073    0.0000 C   0  0  0  0  0  0  0  0  0  0  0  0
   -3.4805    1.0162    0.0000 C   0  0  0  0  0  0  0  0  0  0  0  0
   -2.6098    1.5258    0.0000 C   0  0  0  0  0  0  0  0  0  0  0  0
  1  2  1  0  0  0  0
  2  7  2  0  0  0  0
  2  3  1  0  0  0  0
  3  4  2  0  0  0  0
  4  5  1  0  0  0  0
  5  6  2  0  0  0  0
  6  7  1  0  0  0  0
  7  8  1  0  0  0  0
  8 13  1  0  0  0  0
  8  9  1  0  0  0  0
  9 23  1  0  0  0  0
  9 10  2  0  0  0  0
 10 11  1  0  0  0  0
 11 12  2  0  0  0  0
 12 13  1  0  0  0  0
 13 14  2  0  0  0  0
 10 15  1  0  0  0  0
 15 16  1  0  0  0  0
 16 17  1  0  0  0  0
 17 18  1  0  0  0  0
 18 19  2  0  0  0  0
 18 20  1  0  0  0  0
 15 21  1  0  0  0  0
 21 22  1  0  0  0  0
 22 23  1  0  0  0  0
M  END
$$$$
KIM-UNI-60f-10
  -OEChem-03232022352D

 23 25  0     1  0  0  0  0  0999 V2000
   -2.5957    2.5249    0.0000 C   0  0  0  0  0  0  0  0  0  0  0  0
   -1.7289    3.0236    0.0000 C   0  0  0  0  0  0  0  0  0  0  0  0
   -1.7304    4.0236    0.0000 C   0  0  0  0  0  0  0  0  0  0  0  0
   -0.8591    4.5249    0.0000 C   0  0  0  0  0  0  0  0  0  0  0  0
    0.0136    4.0262    0.0000 N   0  0  0  0  0  0  0  0  0  0  0  0
    0.0062    3.0211    0.0000 C   0  0  0  0  0  0  0  0  0  0  0  0
   -0.8651    2.5198    0.0000 C   0  0  0  0  0  0  0  0  0  0  0  0
   -0.8680    1.5198    0.0000 N   0  0  0  0  0  0  0  0  0  0  0  0
   -1.7391    1.0162    0.0000 C   0  0  0  0  0  0  0  0  0  0  0  0
   -1.7434    0.0073    0.0000 C   0  0  0  0  0  0  0  0  0  0  0  0
   -0.8766   -0.4980    0.0000 C   0  0  0  0  0  0  0  0  0  0  0  0
    0.0000    0.0000    0.0000 C   0  0  0  0  0  0  0  0  0  0  0  0
    0.0043    1.0087    0.0000 C   0  0  0  0  0  0  0  0  0  0  0  0
    0.8730    1.5041    0.0000 O   0  0  0  0  0  0  0  0  0  0  0  0
   -2.6098   -0.4920    0.0000 N   0  0  3  0  0  0  0  0  0  0  0  0
   -2.6087   -1.4920    0.0000 C   0  0  0  0  0  0  0  0  0  0  0  0
   -1.7422   -1.9911    0.0000 C   0  0  0  0  0  0  0  0  0  0  0  0
   -1.7411   -2.9911    0.0000 C   0  0  0  0  0  0  0  0  0  0  0  0
   -0.8745   -3.4901    0.0000 N   0  0  0  0  0  0  0  0  0  0  0  0
   -2.6066   -3.4920    0.0000 O   0  0  0  0  0  0  0  0  0  0  0  0
   -3.4805    0.0073    0.0000 C   0  0  0  0  0  0  0  0  0  0  0  0
   -3.4805    1.0162    0.0000 C   0  0  0  0  0  0  0  0  0  0  0  0
   -2.6098    1.5258    0.0000 C   0  0  0  0  0  0  0  0  0  0  0  0
  1  2  1  0  0  0  0
  2  7  2  0  0  0  0
  2  3  1  0  0  0  0
  3  4  2  0  0  0  0
  4  5  1  0  0  0  0
  5  6  2  0  0  0  0
  6  7  1  0  0  0  0
  7  8  1  0  0  0  0
  8 13  1  0  0  0  0
  8  9  1  0  0  0  0
  9 23  1  0  0  0  0
  9 10  2  0  0  0  0
 10 11  1  0  0  0  0
 11 12  2  0  0  0  0
 12 13  1  0  0  0  0
 13 14  2  0  0  0  0
 10 15  1  0  0  0  0
 15 16  1  0  0  0  0
 16 17  1  0  0  0  0
 17 18  1  0  0  0  0
 18 19  1  0  0  0  0
 18 20  2  0  0  0  0
 15 21  1  0  0  0  0
 21 22  1  0  0  0  0
 22 23  1  0  0  0  0
M  END
$$$$
KIM-UNI-60f-11
  -OEChem-03232022352D

 23 25  0     0  0  0  0  0  0999 V2000
   -4.3523   -2.4898    0.0000 N   0  0  0  0  0  0  0  0  0  0  0  0
   -3.4884   -2.9934    0.0000 C   0  0  0  0  0  0  0  0  0  0  0  0
   -3.4925   -3.9934    0.0000 O   0  0  0  0  0  0  0  0  0  0  0  0
   -2.6203   -2.4969    0.0000 C   0  0  0  0  0  0  0  0  0  0  0  0
   -1.7563   -3.0005    0.0000 C   0  0  0  0  0  0  0  0  0  0  0  0
   -0.8882   -2.5041    0.0000 N   0  0  0  0  0  0  0  0  0  0  0  0
   -0.0169   -3.0051    0.0000 C   0  0  0  0  0  0  0  0  0  0  0  0
    0.8557   -2.5061    0.0000 C   0  0  0  0  0  0  0  0  0  0  0  0
    0.8569   -1.5061    0.0000 C   0  0  0  0  0  0  0  0  0  0  0  0
    1.7250   -1.0096    0.0000 O   0  0  0  0  0  0  0  0  0  0  0  0
   -0.0056   -1.0000    0.0000 N   0  0  0  0  0  0  0  0  0  0  0  0
    0.0000    0.0000    0.0000 C   0  0  0  0  0  0  0  0  0  0  0  0
    0.8766    0.4980    0.0000 C   0  0  0  0  0  0  0  0  0  0  0  0
    0.8809    1.5067    0.0000 N   0  0  0  0  0  0  0  0  0  0  0  0
    0.0086    2.0178    0.0000 C   0  0  0  0  0  0  0  0  0  0  0  0
   -0.8625    1.5142    0.0000 C   0  0  0  0  0  0  0  0  0  0  0  0
   -0.8668    0.5053    0.0000 C   0  0  0  0  0  0  0  0  0  0  0  0
   -1.7332    0.0060    0.0000 C   0  0  0  0  0  0  0  0  0  0  0  0
   -2.6039    0.5053    0.0000 C   0  0  0  0  0  0  0  0  0  0  0  0
   -2.6039    1.5142    0.0000 N   0  0  0  0  0  0  0  0  0  0  0  0
   -1.7332    2.0238    0.0000 C   0  0  0  0  0  0  0  0  0  0  0  0
   -0.8782   -1.4990    0.0000 C   0  0  0  0  0  0  0  0  0  0  0  0
   -1.7406   -0.9929    0.0000 O   0  0  0  0  0  0  0  0  0  0  0  0
  1  2  1  0  0  0  0
  2  3  2  0  0  0  0
  2  4  1  0  0  0  0
  4  5  1  0  0  0  0
  5  6  1  0  0  0  0
  6 22  1  0  0  0  0
  6  7  1  0  0  0  0
  7  8  1  0  0  0  0
  8  9  1  0  0  0  0
  9 10  2  0  0  0  0
  9 11  1  0  0  0  0
 11 12  1  0  0  0  0
 12 17  2  0  0  0  0
 12 13  1  0  0  0  0
 13 14  2  0  0  0  0
 14 15  1  0  0  0  0
 15 16  2  0  0  0  0
 16 21  1  0  0  0  0
 16 17  1  0  0  0  0
 17 18  1  0  0  0  0
 18 19  1  0  0  0  0
 19 20  1  0  0  0  0
 20 21  1  0  0  0  0
 11 22  1  0  0  0  0
 22 23  2  0  0  0  0
M  END
$$$$
HAN-NEW-5f5-1
  -OEChem-03232022352D

 17 18  0     0  0  0  0  0  0999 V2000
    0.8675   -1.4975    0.0000 C   0  0  0  0  0  0  0  0  0  0  0  0
    0.8675   -0.4975    0.0000 C   0  0  0  0  0  0  0  0  0  0  0  0
    1.7350    0.0000    0.0000 N   0  0  0  0  0  0  0  0  0  0  0  0
    1.7350    1.0052    0.0000 C   0  0  0  0  0  0  0  0  0  0  0  0
    0.8675    1.5129    0.0000 N   0  0  0  0  0  0  0  0  0  0  0  0
    0.0000    1.0052    0.0000 C   0  0  0  0  0  0  0  0  0  0  0  0
    0.0000    0.0000    0.0000 C   0  0  0  0  0  0  0  0  0  0  0  0
   -0.8653   -0.5013    0.0000 N   0  0  0  0  0  0  0  0  0  0  0  0
   -0.8638   -1.5013    0.0000 C   0  0  0  0  0  0  0  0  0  0  0  0
    0.0029   -2.0000    0.0000 O   0  0  0  0  0  0  0  0  0  0  0  0
   -1.7291   -2.0025    0.0000 N   0  0  0  0  0  0  0  0  0  0  0  0
   -1.7277   -3.0025    0.0000 C   0  0  0  0  0  0  0  0  0  0  0  0
   -0.8550   -3.5013    0.0000 C   0  0  0  0  0  0  0  0  0  0  0  0
   -0.8535   -4.5013    0.0000 C   0  0  0  0  0  0  0  0  0  0  0  0
   -1.7158   -5.0076    0.0000 C   0  0  0  0  0  0  0  0  0  0  0  0
   -2.5886   -4.5089    0.0000 C   0  0  0  0  0  0  0  0  0  0  0  0
   -2.5989   -3.5038    0.0000 C   0  0  0  0  0  0  0  0  0  0  0  0
  1  2  1  0  0  0  0
  2  7  2  0  0  0  0
  2  3  1  0  0  0  0
  3  4  2  0  0  0  0
  4  5  1  0  0  0  0
  5  6  2  0  0  0  0
  6  7  1  0  0  0  0
  7  8  1  0  0  0  0
  8  9  1  0  0  0  0
  9 10  2  0  0  0  0
  9 11  1  0  0  0  0
 11 12  1  0  0  0  0
 12 17  2  0  0  0  0
 12 13  1  0  0  0  0
 13 14  2  0  0  0  0
 14 15  1  0  0  0  0
 15 16  2  0  0  0  0
 16 17  1  0  0  0  0
M  END
$$$$
HAN-NEW-5f5-2
  -OEChem-03232022352D

 23 24  0     0  0  0  0  0  0999 V2000
    5.5770   -3.5816    0.0000 C   0  0  0  0  0  0  0  0  0  0  0  0
    5.2680   -2.6306    0.0000 C   0  0  0  0  0  0  0  0  0  0  0  0
    5.9372   -1.8874    0.0000 O   0  0  0  0  0  0  0  0  0  0  0  0
    4.2899   -2.4226    0.0000 N   0  0  0  0  0  0  0  0  0  0  0  0
    3.9809   -1.4715    0.0000 C   0  0  0  0  0  0  0  0  0  0  0  0
    3.0028   -1.2636    0.0000 C   0  0  0  0  0  0  0  0  0  0  0  0
    2.6938   -0.3125    0.0000 C   0  0  0  0  0  0  0  0  0  0  0  0
    3.2858    0.5023    0.0000 C   0  0  0  0  0  0  0  0  0  0  0  0
    2.6938    1.3169    0.0000 N   0  0  0  0  0  0  0  0  0  0  0  0
    1.7360    1.0058    0.0000 C   0  0  0  0  0  0  0  0  0  0  0  0
    0.8680    1.5138    0.0000 C   0  0  0  0  0  0  0  0  0  0  0  0
    0.8680    2.5138    0.0000 C   0  0  0  0  0  0  0  0  0  0  0  0
    0.0020    3.0138    0.0000 C   0  0  0  0  0  0  0  0  0  0  0  0
    0.0020    4.0138    0.0000 N   0  0  0  0  0  0  0  0  0  0  0  0
   -0.8641    4.5138    0.0000 S   0  0  0  0  0  0  0  0  0  0  0  0
   -1.7301    5.0138    0.0000 C   0  0  0  0  0  0  0  0  0  0  0  0
   -1.3641    3.6478    0.0000 O   0  0  0  0  0  0  0  0  0  0  0  0
   -0.3640    5.3798    0.0000 O   0  0  0  0  0  0  0  0  0  0  0  0
    0.0000    1.0058    0.0000 C   0  0  0  0  0  0  0  0  0  0  0  0
    0.0000    0.0000    0.0000 C   0  0  0  0  0  0  0  0  0  0  0  0
   -0.8653   -0.5013    0.0000 C   0  0  0  0  0  0  0  0  0  0  0  0
    0.8680   -0.4978    0.0000 C   0  0  0  0  0  0  0  0  0  0  0  0
    1.7360   -0.0012    0.0000 C   0  0  0  0  0  0  0  0  0  0  0  0
  1  2  1  0  0  0  0
  2  3  2  0  0  0  0
  2  4  1  0  0  0  0
  4  5  1  0  0  0  0
  5  6  1  0  0  0  0
  6  7  1  0  0  0  0
  7 23  1  0  0  0  0
  7  8  2  0  0  0  0
  8  9  1  0  0  0  0
  9 10  1  0  0  0  0
 10 23  2  0  0  0  0
 10 11  1  0  0  0  0
 11 12  1  0  0  0  0
 12 13  1  0  0  0  0
 13 14  1  0  0  0  0
 14 15  1  0  0  0  0
 15 16  1  0  0  0  0
 15 17  2  0  0  0  0
 15 18  2  0  0  0  0
 11 19  2  0  0  0  0
 19 20  1  0  0  0  0
 20 21  1  0  0  0  0
 20 22  2  0  0  0  0
 22 23  1  0  0  0  0
M  END
$$$$
HAN-NEW-5f5-3
  -OEChem-03232022352D

 28 30  0     0  0  0  0  0  0999 V2000
    2.6010    1.4950    0.0000 O   0  0  0  0  0  0  0  0  0  0  0  0
    2.5995    0.4950    0.0000 C   0  0  0  0  0  0  0  0  0  0  0  0
    3.4648   -0.0063    0.0000 N   0  0  0  0  0  0  0  0  0  0  0  0
    4.3316    0.4925    0.0000 C   0  0  0  0  0  0  0  0  0  0  0  0
    4.3301    1.4977    0.0000 C   0  0  0  0  0  0  0  0  0  0  0  0
    5.1968    1.9965    0.0000 C   0  0  0  0  0  0  0  0  0  0  0  0
    6.0651    1.5003    0.0000 C   0  0  0  0  0  0  0  0  0  0  0  0
    6.0666    0.4951    0.0000 C   0  0  0  0  0  0  0  0  0  0  0  0
    5.1999   -0.0139    0.0000 C   0  0  0  0  0  0  0  0  0  0  0  0
    1.7328   -0.0038    0.0000 N   0  0  0  0  0  0  0  0  0  0  0  0
    0.8675    0.4975    0.0000 C   0  0  0  0  0  0  0  0  0  0  0  0
    0.8675    1.5027    0.0000 C   0  0  0  0  0  0  0  0  0  0  0  0
   -0.0000    2.0104    0.0000 N   0  0  0  0  0  0  0  0  0  0  0  0
   -0.8675    1.5027    0.0000 C   0  0  0  0  0  0  0  0  0  0  0  0
   -0.8675    0.4975    0.0000 C   0  0  0  0  0  0  0  0  0  0  0  0
    0.0000    0.0000    0.0000 C   0  0  0  0  0  0  0  0  0  0  0  0
    0.0000   -1.0000    0.0000 C   0  0  0  0  0  0  0  0  0  0  0  0
    0.8660   -1.5000    0.0000 C   0  0  0  0  0  0  0  0  0  0  0  0
    0.8660   -2.5000    0.0000 N   0  0  0  0  0  0  0  0  0  0  0  0
    1.7321   -3.0000    0.0000 C   0  0  0  0  0  0  0  0  0  0  0  0
    2.5981   -2.5000    0.0000 O   0  0  0  0  0  0  0  0  0  0  0  0
    1.7321   -4.0000    0.0000 N   0  0  0  0  0  0  0  0  0  0  0  0
    2.5981   -4.5000    0.0000 C   0  0  0  0  0  0  0  0  0  0  0  0
    3.4671   -3.9948    0.0000 C   0  0  0  0  0  0  0  0  0  0  0  0
    4.3332   -4.4948    0.0000 C   0  0  0  0  0  0  0  0  0  0  0  0
    4.3390   -5.4948    0.0000 C   0  0  0  0  0  0  0  0  0  0  0  0
    3.4700   -6.0000    0.0000 C   0  0  0  0  0  0  0  0  0  0  0  0
    2.5951   -5.5051    0.0000 C   0  0  0  0  0  0  0  0  0  0  0  0
  1  2  2  0  0  0  0
  2  3  1  0  0  0  0
  3  4  1  0  0  0  0
  4  9  2  0  0  0  0
  4  5  1  0  0  0  0
  5  6  2  0  0  0  0
  6  7  1  0  0  0  0
  7  8  2  0  0  0  0
  8  9  1  0  0  0  0
  2 10  1  0  0  0  0
 10 11  1  0  0  0  0
 11 16  2  0  0  0  0
 11 12  1  0  0  0  0
 12 13  2  0  0  0  0
 13 14  1  0  0  0  0
 14 15  2  0  0  0  0
 15 16  1  0  0  0  0
 16 17  1  0  0  0  0
 17 18  1  0  0  0  0
 18 19  1  0  0  0  0
 19 20  1  0  0  0  0
 20 21  2  0  0  0  0
 20 22  1  0  0  0  0
 22 23  1  0  0  0  0
 23 28  1  0  0  0  0
 23 24  1  0  0  0  0
 24 25  1  0  0  0  0
 25 26  1  0  0  0  0
 26 27  1  0  0  0  0
 27 28  1  0  0  0  0
M  END
$$$$
HAN-NEW-5f5-4
  -OEChem-03232022352D

 31 33  0     1  0  0  0  0  0999 V2000
    5.5770   -3.5816    0.0000 C   0  0  0  0  0  0  0  0  0  0  0  0
    5.2680   -2.6306    0.0000 C   0  0  0  0  0  0  0  0  0  0  0  0
    5.9372   -1.8874    0.0000 O   0  0  0  0  0  0  0  0  0  0  0  0
    4.2899   -2.4226    0.0000 N   0  0  0  0  0  0  0  0  0  0  0  0
    3.9809   -1.4715    0.0000 C   0  0  0  0  0  0  0  0  0  0  0  0
    3.0028   -1.2636    0.0000 C   0  0  0  0  0  0  0  0  0  0  0  0
    2.6938   -0.3125    0.0000 C   0  0  0  0  0  0  0  0  0  0  0  0
    3.2858    0.5023    0.0000 C   0  0  0  0  0  0  0  0  0  0  0  0
    2.6938    1.3169    0.0000 N   0  0  0  0  0  0  0  0  0  0  0  0
    1.7360    1.0058    0.0000 C   0  0  0  0  0  0  0  0  0  0  0  0
    0.8680    1.5138    0.0000 C   0  0  0  0  0  0  0  0  0  0  0  0
    0.8680    2.5138    0.0000 C   0  0  0  0  0  0  0  0  0  0  0  0
    0.0020    3.0138    0.0000 C   0  0  0  0  0  0  0  0  0  0  0  0
    0.0020    4.0138    0.0000 C   0  0  0  0  0  0  0  0  0  0  0  0
   -0.8641    4.5138    0.0000 C   0  0  3  0  0  0  0  0  0  0  0  0
   -1.7331    4.0086    0.0000 C   0  0  0  0  0  0  0  0  0  0  0  0
   -2.5992    4.5086    0.0000 N   0  0  0  0  0  0  0  0  0  0  0  0
   -3.4637    4.0061    0.0000 C   0  0  0  0  0  0  0  0  0  0  0  0
   -4.3312    4.5035    0.0000 O   0  0  0  0  0  0  0  0  0  0  0  0
   -3.4608    3.0061    0.0000 C   0  0  0  0  0  0  0  0  0  0  0  0
   -4.3253    2.5035    0.0000 Cl  0  0  0  0  0  0  0  0  0  0  0  0
   -2.6050    5.5086    0.0000 C   0  0  0  0  0  0  0  0  0  0  0  0
   -1.7360    6.0138    0.0000 C   0  0  0  0  0  0  0  0  0  0  0  0
   -0.8611    5.5189    0.0000 N   0  0  0  0  0  0  0  0  0  0  0  0
    0.0035    6.0215    0.0000 C   0  0  0  0  0  0  0  0  0  0  0  0
    0.0005    7.0215    0.0000 C   0  0  0  0  0  0  0  0  0  0  0  0
    0.8710    5.5241    0.0000 O   0  0  0  0  0  0  0  0  0  0  0  0
    0.0000    1.0058    0.0000 C   0  0  0  0  0  0  0  0  0  0  0  0
    0.0000    0.0000    0.0000 C   0  0  0  0  0  0  0  0  0  0  0  0
    0.8680   -0.4978    0.0000 C   0  0  0  0  0  0  0  0  0  0  0  0
    1.7360   -0.0012    0.0000 C   0  0  0  0  0  0  0  0  0  0  0  0
  1  2  1  0  0  0  0
  2  3  2  0  0  0  0
  2  4  1  0  0  0  0
  4  5  1  0  0  0  0
  5  6  1  0  0  0  0
  6  7  1  0  0  0  0
  7 31  1  0  0  0  0
  7  8  2  0  0  0  0
  8  9  1  0  0  0  0
  9 10  1  0  0  0  0
 10 31  2  0  0  0  0
 10 11  1  0  0  0  0
 11 12  1  0  0  0  0
 12 13  1  0  0  0  0
 13 14  1  0  0  0  0
 14 15  1  0  0  0  0
 15 24  1  0  0  0  0
 15 16  1  0  0  0  0
 16 17  1  0  0  0  0
 17 18  1  0  0  0  0
 18 19  2  0  0  0  0
 18 20  1  0  0  0  0
 20 21  1  0  0  0  0
 17 22  1  0  0  0  0
 22 23  1  0  0  0  0
 23 24  1  0  0  0  0
 24 25  1  0  0  0  0
 25 26  1  0  0  0  0
 25 27  2  0  0  0  0
 11 28  2  0  0  0  0
 28 29  1  0  0  0  0
 29 30  2  0  0  0  0
 30 31  1  0  0  0  0
M  END
$$$$
HAN-NEW-5f5-5
  -OEChem-03232022352D

 31 33  0     1  0  0  0  0  0999 V2000
    3.4648   -0.0063    0.0000 C   0  0  0  0  0  0  0  0  0  0  0  0
    2.5995    0.4950    0.0000 C   0  0  0  0  0  0  0  0  0  0  0  0
    2.6010    1.4950    0.0000 O   0  0  0  0  0  0  0  0  0  0  0  0
    1.7328   -0.0038    0.0000 N   0  0  0  0  0  0  0  0  0  0  0  0
    1.7313   -1.0038    0.0000 C   0  0  0  0  0  0  0  0  0  0  0  0
    2.5966   -1.5050    0.0000 C   0  0  0  0  0  0  0  0  0  0  0  0
    2.5952   -2.5050    0.0000 C   0  0  0  0  0  0  0  0  0  0  0  0
    3.4605   -3.0063    0.0000 C   0  0  0  0  0  0  0  0  0  0  0  0
    4.3272   -2.5075    0.0000 O   0  0  0  0  0  0  0  0  0  0  0  0
    3.4590   -4.0063    0.0000 N   0  0  0  0  0  0  0  0  0  0  0  0
    4.3243   -4.5075    0.0000 C   0  0  0  0  0  0  0  0  0  0  0  0
    5.1941   -4.0036    0.0000 C   0  0  0  0  0  0  0  0  0  0  0  0
    6.0595   -4.5048    0.0000 C   0  0  0  0  0  0  0  0  0  0  0  0
    6.0639   -5.5049    0.0000 C   0  0  0  0  0  0  0  0  0  0  0  0
    6.9314   -6.0023    0.0000 C   0  0  0  0  0  0  0  0  0  0  0  0
    5.1941   -6.0088    0.0000 C   0  0  0  0  0  0  0  0  0  0  0  0
    4.3199   -5.5127    0.0000 C   0  0  0  0  0  0  0  0  0  0  0  0
    2.5923   -4.5050    0.0000 C   0  0  3  0  0  0  0  0  0  0  0  0
    2.4874   -5.5010    0.0000 C   0  0  0  0  0  0  0  0  0  0  0  0
    1.5086   -5.7061    0.0000 C   0  0  0  0  0  0  0  0  0  0  0  0
    1.0055   -4.8413    0.0000 S   0  0  0  0  0  0  0  0  0  0  0  0
    0.1976   -5.4306    0.0000 O   0  0  0  0  0  0  0  0  0  0  0  0
    0.3359   -4.0985    0.0000 O   0  0  0  0  0  0  0  0  0  0  0  0
    1.6783   -4.0952    0.0000 C   0  0  0  0  0  0  0  0  0  0  0  0
    0.8675    0.4975    0.0000 C   0  0  0  0  0  0  0  0  0  0  0  0
    0.8675    1.5027    0.0000 C   0  0  0  0  0  0  0  0  0  0  0  0
   -0.0000    2.0104    0.0000 N   0  0  0  0  0  0  0  0  0  0  0  0
   -0.8675    1.5027    0.0000 C   0  0  0  0  0  0  0  0  0  0  0  0
   -0.8675    0.4975    0.0000 C   0  0  0  0  0  0  0  0  0  0  0  0
    0.0000    0.0000    0.0000 C   0  0  0  0  0  0  0  0  0  0  0  0
    0.0000   -1.0000    0.0000 C   0  0  0  0  0  0  0  0  0  0  0  0
  1  2  1  0  0  0  0
  2  3  2  0  0  0  0
  2  4  1  0  0  0  0
  4  5  1  0  0  0  0
  5  6  1  0  0  0  0
  6  7  1  0  0  0  0
  7  8  1  0  0  0  0
  8  9  2  0  0  0  0
  8 10  1  0  0  0  0
 10 11  1  0  0  0  0
 11 17  2  0  0  0  0
 11 12  1  0  0  0  0
 12 13  2  0  0  0  0
 13 14  1  0  0  0  0
 14 15  1  0  0  0  0
 14 16  2  0  0  0  0
 16 17  1  0  0  0  0
 10 18  1  0  0  0  0
 18 24  1  0  0  0  0
 18 19  1  0  0  0  0
 19 20  2  0  0  0  0
 20 21  1  0  0  0  0
 21 22  2  0  0  0  0
 21 23  2  0  0  0  0
 21 24  1  0  0  0  0
  4 25  1  0  0  0  0
 25 30  2  0  0  0  0
 25 26  1  0  0  0  0
 26 27  2  0  0  0  0
 27 28  1  0  0  0  0
 28 29  2  0  0  0  0
 29 30  1  0  0  0  0
 30 31  1  0  0  0  0
M  END
$$$$
AGN-NEW-5f0-1
  -OEChem-03232022352D

 37 40  0     0  0  0  0  0  0999 V2000
    5.1876   -6.4229    0.0000 C   0  0  0  0  0  0  0  0  0  0  0  0
    5.1890   -5.4229    0.0000 C   0  0  0  0  0  0  0  0  0  0  0  0
    4.3237   -4.9216    0.0000 C   0  0  0  0  0  0  0  0  0  0  0  0
    3.4570   -5.4204    0.0000 O   0  0  0  0  0  0  0  0  0  0  0  0
    4.3252   -3.9216    0.0000 N   0  0  0  0  0  0  0  0  0  0  0  0
    5.0333   -3.2156    0.0000 C   0  0  0  0  0  0  0  0  0  0  0  0
    4.3272   -2.5075    0.0000 C   0  0  0  0  0  0  0  0  0  0  0  0
    4.3287   -1.5075    0.0000 C   0  0  0  0  0  0  0  0  0  0  0  0
    3.4634   -1.0063    0.0000 C   0  0  0  0  0  0  0  0  0  0  0  0
    3.4648   -0.0063    0.0000 N   0  0  0  0  0  0  0  0  0  0  0  0
    2.5995    0.4950    0.0000 C   0  0  0  0  0  0  0  0  0  0  0  0
    2.6010    1.4950    0.0000 O   0  0  0  0  0  0  0  0  0  0  0  0
    1.7328   -0.0038    0.0000 N   0  0  0  0  0  0  0  0  0  0  0  0
    0.8675    0.4975    0.0000 C   0  0  0  0  0  0  0  0  0  0  0  0
    0.8675    1.5027    0.0000 C   0  0  0  0  0  0  0  0  0  0  0  0
    1.7350    2.0001    0.0000 C   0  0  0  0  0  0  0  0  0  0  0  0
   -0.0000    2.0104    0.0000 N   0  0  0  0  0  0  0  0  0  0  0  0
   -0.8675    1.5027    0.0000 C   0  0  0  0  0  0  0  0  0  0  0  0
   -0.8675    0.4975    0.0000 C   0  0  0  0  0  0  0  0  0  0  0  0
   -1.7328   -0.0038    0.0000 C   0  0  0  0  0  0  0  0  0  0  0  0
    0.0000    0.0000    0.0000 C   0  0  0  0  0  0  0  0  0  0  0  0
    0.0000   -1.0000    0.0000 C   0  0  0  0  0  0  0  0  0  0  0  0
    0.8660   -1.5000    0.0000 C   0  0  0  0  0  0  0  0  0  0  0  0
    0.8660   -2.5000    0.0000 N   0  0  0  0  0  0  0  0  0  0  0  0
    1.7335   -2.9975    0.0000 C   0  0  0  0  0  0  0  0  0  0  0  0
    1.7335   -4.0027    0.0000 C   0  0  0  0  0  0  0  0  0  0  0  0
    0.8660   -4.5104    0.0000 O   0  0  0  0  0  0  0  0  0  0  0  0
   -0.0015   -4.0027    0.0000 C   0  0  0  0  0  0  0  0  0  0  0  0
   -0.0015   -2.9975    0.0000 C   0  0  0  0  0  0  0  0  0  0  0  0
    4.3316    0.4925    0.0000 C   0  0  0  0  0  0  0  0  0  0  0  0
    4.3301    1.4977    0.0000 C   0  0  0  0  0  0  0  0  0  0  0  0
    5.1968    1.9965    0.0000 C   0  0  0  0  0  0  0  0  0  0  0  0
    5.1953    2.9965    0.0000 C   0  0  0  0  0  0  0  0  0  0  0  0
    6.0651    1.5003    0.0000 C   0  0  0  0  0  0  0  0  0  0  0  0
    6.0666    0.4951    0.0000 C   0  0  0  0  0  0  0  0  0  0  0  0
    5.1999   -0.0139    0.0000 N   0  0  0  0  0  0  0  0  0  0  0  0
    3.6192   -3.2135    0.0000 C   0  0  0  0  0  0  0  0  0  0  0  0
  1  2  2  0  0  0  0
  2  3  1  0  0  0  0
  3  4  2  0  0  0  0
  3  5  1  0  0  0  0
  5 37  1  0  0  0  0
  5  6  1  0  0  0  0
  6  7  1  0  0  0  0
  7  8  1  0  0  0  0
  8  9  1  0  0  0  0
  9 10  1  0  0  0  0
 10 11  1  0  0  0  0
 11 12  2  0  0  0  0
 11 13  1  0  0  0  0
 13 14  1  0  0  0  0
 14 21  2  0  0  0  0
 14 15  1  0  0  0  0
 15 16  1  0  0  0  0
 15 17  2  0  0  0  0
 17 18  1  0  0  0  0
 18 19  2  0  0  0  0
 19 20  1  0  0  0  0
 19 21  1  0  0  0  0
 21 22  1  0  0  0  0
 22 23  1  0  0  0  0
 23 24  1  0  0  0  0
 24 29  1  0  0  0  0
 24 25  1  0  0  0  0
 25 26  1  0  0  0  0
 26 27  1  0  0  0  0
 27 28  1  0  0  0  0
 28 29  1  0  0  0  0
 10 30  1  0  0  0  0
 30 36  2  0  0  0  0
 30 31  1  0  0  0  0
 31 32  2  0  0  0  0
 32 33  1  0  0  0  0
 32 34  1  0  0  0  0
 34 35  2  0  0  0  0
 35 36  1  0  0  0  0
  7 37  1  0  0  0  0
M  END
$$$$
GIA-UNK-5ec-1
  -OEChem-03232022352D

 17 18  0     0  0  0  0  0  0999 V2000
    0.8660   -1.5000    0.0000 O   0  0  0  0  0  0  0  0  0  0  0  0
   -0.0000   -1.0000    0.0000 C   0  0  0  0  0  0  0  0  0  0  0  0
   -0.8660   -1.5000    0.0000 S   0  0  0  0  0  0  0  0  0  0  0  0
    0.0000    0.0000    0.0000 C   0  0  0  0  0  0  0  0  0  0  0  0
   -0.8675    0.4975    0.0000 C   0  0  0  0  0  0  0  0  0  0  0  0
   -0.8675    1.5027    0.0000 C   0  0  0  0  0  0  0  0  0  0  0  0
    0.0000    2.0104    0.0000 N   0  0  0  0  0  0  0  0  0  0  0  0
    0.0000    3.0104    0.0000 C   0  0  0  0  0  0  0  0  0  0  0  0
    0.8660    3.5104    0.0000 O   0  0  0  0  0  0  0  0  0  0  0  0
   -0.8660    3.5104    0.0000 C   0  0  0  0  0  0  0  0  0  0  0  0
   -1.7351    3.0052    0.0000 C   0  0  0  0  0  0  0  0  0  0  0  0
   -2.6011    3.5052    0.0000 C   0  0  0  0  0  0  0  0  0  0  0  0
   -2.6070    4.5052    0.0000 C   0  0  0  0  0  0  0  0  0  0  0  0
   -1.7380    5.0104    0.0000 C   0  0  0  0  0  0  0  0  0  0  0  0
   -0.8631    4.5155    0.0000 C   0  0  0  0  0  0  0  0  0  0  0  0
    0.8675    1.5027    0.0000 C   0  0  0  0  0  0  0  0  0  0  0  0
    0.8675    0.4975    0.0000 C   0  0  0  0  0  0  0  0  0  0  0  0
  1  2  2  0  0  0  0
  2  3  1  0  0  0  0
  2  4  1  0  0  0  0
  4 17  1  0  0  0  0
  4  5  1  0  0  0  0
  5  6  1  0  0  0  0
  6  7  1  0  0  0  0
  7  8  1  0  0  0  0
  8  9  2  0  0  0  0
  8 10  1  0  0  0  0
 10 15  2  0  0  0  0
 10 11  1  0  0  0  0
 11 12  2  0  0  0  0
 12 13  1  0  0  0  0
 13 14  2  0  0  0  0
 14 15  1  0  0  0  0
  7 16  1  0  0  0  0
 16 17  1  0  0  0  0
M  END
$$$$
GIA-UNK-5ec-2
  -OEChem-03232022352D

 17 18  0     0  0  0  0  0  0999 V2000
    0.8660   -1.5000    0.0000 O   0  0  0  0  0  0  0  0  0  0  0  0
   -0.0000   -1.0000    0.0000 C   0  0  0  0  0  0  0  0  0  0  0  0
   -0.8660   -1.5000    0.0000 S   0  0  0  0  0  0  0  0  0  0  0  0
    0.0000    0.0000    0.0000 C   0  0  0  0  0  0  0  0  0  0  0  0
   -0.8675    0.4975    0.0000 C   0  0  0  0  0  0  0  0  0  0  0  0
   -0.8675    1.5027    0.0000 C   0  0  0  0  0  0  0  0  0  0  0  0
    0.0000    2.0104    0.0000 N   0  0  0  0  0  0  0  0  0  0  0  0
    0.0000    3.0104    0.0000 C   0  0  0  0  0  0  0  0  0  0  0  0
    0.8660    3.5104    0.0000 O   0  0  0  0  0  0  0  0  0  0  0  0
   -0.8660    3.5104    0.0000 C   0  0  0  0  0  0  0  0  0  0  0  0
   -1.7351    3.0052    0.0000 C   0  0  0  0  0  0  0  0  0  0  0  0
   -2.6011    3.5052    0.0000 C   0  0  0  0  0  0  0  0  0  0  0  0
   -2.6070    4.5052    0.0000 C   0  0  0  0  0  0  0  0  0  0  0  0
   -1.7380    5.0104    0.0000 C   0  0  0  0  0  0  0  0  0  0  0  0
   -0.8631    4.5155    0.0000 C   0  0  0  0  0  0  0  0  0  0  0  0
    0.8675    1.5027    0.0000 C   0  0  0  0  0  0  0  0  0  0  0  0
    0.8675    0.4975    0.0000 C   0  0  0  0  0  0  0  0  0  0  0  0
  1  2  2  0  0  0  0
  2  3  1  0  0  0  0
  2  4  1  0  0  0  0
  4 17  1  0  0  0  0
  4  5  1  0  0  0  0
  5  6  1  0  0  0  0
  6  7  1  0  0  0  0
  7  8  1  0  0  0  0
  8  9  2  0  0  0  0
  8 10  1  0  0  0  0
 10 15  1  0  0  0  0
 10 11  1  0  0  0  0
 11 12  1  0  0  0  0
 12 13  1  0  0  0  0
 13 14  1  0  0  0  0
 14 15  1  0  0  0  0
  7 16  1  0  0  0  0
 16 17  1  0  0  0  0
M  END
$$$$
GIA-UNK-5ec-3
  -OEChem-03232022352D

 16 17  0     0  0  0  0  0  0999 V2000
    0.8660   -1.5000    0.0000 O   0  0  0  0  0  0  0  0  0  0  0  0
   -0.0000   -1.0000    0.0000 C   0  0  0  0  0  0  0  0  0  0  0  0
   -0.8660   -1.5000    0.0000 S   0  0  0  0  0  0  0  0  0  0  0  0
    0.0000    0.0000    0.0000 C   0  0  0  0  0  0  0  0  0  0  0  0
   -0.8675    0.4975    0.0000 C   0  0  0  0  0  0  0  0  0  0  0  0
   -0.8675    1.5027    0.0000 C   0  0  0  0  0  0  0  0  0  0  0  0
    0.0000    2.0104    0.0000 N   0  0  0  0  0  0  0  0  0  0  0  0
    0.0000    3.0104    0.0000 C   0  0  0  0  0  0  0  0  0  0  0  0
   -0.8660    3.5104    0.0000 C   0  0  0  0  0  0  0  0  0  0  0  0
   -1.7351    3.0052    0.0000 C   0  0  0  0  0  0  0  0  0  0  0  0
   -2.6011    3.5052    0.0000 C   0  0  0  0  0  0  0  0  0  0  0  0
   -2.6070    4.5052    0.0000 C   0  0  0  0  0  0  0  0  0  0  0  0
   -1.7380    5.0104    0.0000 C   0  0  0  0  0  0  0  0  0  0  0  0
   -0.8631    4.5155    0.0000 C   0  0  0  0  0  0  0  0  0  0  0  0
    0.8675    1.5027    0.0000 C   0  0  0  0  0  0  0  0  0  0  0  0
    0.8675    0.4975    0.0000 C   0  0  0  0  0  0  0  0  0  0  0  0
  1  2  2  0  0  0  0
  2  3  1  0  0  0  0
  2  4  1  0  0  0  0
  4 16  1  0  0  0  0
  4  5  1  0  0  0  0
  5  6  1  0  0  0  0
  6  7  1  0  0  0  0
  7  8  1  0  0  0  0
  8  9  1  0  0  0  0
  9 14  2  0  0  0  0
  9 10  1  0  0  0  0
 10 11  2  0  0  0  0
 11 12  1  0  0  0  0
 12 13  2  0  0  0  0
 13 14  1  0  0  0  0
  7 15  1  0  0  0  0
 15 16  1  0  0  0  0
M  END
$$$$
GIA-UNK-5ec-4
  -OEChem-03232022352D

 18 19  0     0  0  0  0  0  0999 V2000
    0.8660   -1.5000    0.0000 O   0  0  0  0  0  0  0  0  0  0  0  0
   -0.0000   -1.0000    0.0000 C   0  0  0  0  0  0  0  0  0  0  0  0
   -0.8660   -1.5000    0.0000 S   0  0  0  0  0  0  0  0  0  0  0  0
    0.0000    0.0000    0.0000 C   0  0  0  0  0  0  0  0  0  0  0  0
   -0.8675    0.4975    0.0000 C   0  0  0  0  0  0  0  0  0  0  0  0
   -0.8675    1.5027    0.0000 C   0  0  0  0  0  0  0  0  0  0  0  0
    0.0000    2.0104    0.0000 N   0  0  0  0  0  0  0  0  0  0  0  0
    0.0000    3.0104    0.0000 S   0  0  0  0  0  0  0  0  0  0  0  0
   -1.0000    3.0104    0.0000 O   0  0  0  0  0  0  0  0  0  0  0  0
    1.0000    3.0104    0.0000 O   0  0  0  0  0  0  0  0  0  0  0  0
    0.0000    4.0104    0.0000 C   0  0  0  0  0  0  0  0  0  0  0  0
   -0.8720    4.5104    0.0000 C   0  0  0  0  0  0  0  0  0  0  0  0
   -0.8721    5.5105    0.0000 C   0  0  0  0  0  0  0  0  0  0  0  0
   -0.0089    6.0155    0.0000 C   0  0  0  0  0  0  0  0  0  0  0  0
    0.8631    5.5155    0.0000 C   0  0  0  0  0  0  0  0  0  0  0  0
    0.8720    4.5104    0.0000 C   0  0  0  0  0  0  0  0  0  0  0  0
    0.8675    1.5027    0.0000 C   0  0  0  0  0  0  0  0  0  0  0  0
    0.8675    0.4975    0.0000 C   0  0  0  0  0  0  0  0  0  0  0  0
  1  2  2  0  0  0  0
  2  3  1  0  0  0  0
  2  4  1  0  0  0  0
  4 18  1  0  0  0  0
  4  5  1  0  0  0  0
  5  6  1  0  0  0  0
  6  7  1  0  0  0  0
  7  8  1  0  0  0  0
  8  9  2  0  0  0  0
  8 10  2  0  0  0  0
  8 11  1  0  0  0  0
 11 16  2  0  0  0  0
 11 12  1  0  0  0  0
 12 13  2  0  0  0  0
 13 14  1  0  0  0  0
 14 15  2  0  0  0  0
 15 16  1  0  0  0  0
  7 17  1  0  0  0  0
 17 18  1  0  0  0  0
M  END
$$$$
GIA-UNK-5ec-5
  -OEChem-03232022352D

 18 19  0     0  0  0  0  0  0999 V2000
    0.8660   -1.5000    0.0000 O   0  0  0  0  0  0  0  0  0  0  0  0
   -0.0000   -1.0000    0.0000 C   0  0  0  0  0  0  0  0  0  0  0  0
   -0.8660   -1.5000    0.0000 S   0  0  0  0  0  0  0  0  0  0  0  0
    0.0000    0.0000    0.0000 C   0  0  0  0  0  0  0  0  0  0  0  0
   -0.8675    0.4975    0.0000 C   0  0  0  0  0  0  0  0  0  0  0  0
   -0.8675    1.5027    0.0000 C   0  0  0  0  0  0  0  0  0  0  0  0
    0.0000    2.0104    0.0000 N   0  0  0  0  0  0  0  0  0  0  0  0
    0.0000    3.0104    0.0000 C   0  0  0  0  0  0  0  0  0  0  0  0
    0.8660    3.5104    0.0000 O   0  0  0  0  0  0  0  0  0  0  0  0
   -0.8660    3.5104    0.0000 C   0  0  0  0  0  0  0  0  0  0  0  0
   -0.8660    4.5104    0.0000 C   0  0  0  0  0  0  0  0  0  0  0  0
   -1.7380    5.0104    0.0000 C   0  0  0  0  0  0  0  0  0  0  0  0
   -1.7381    6.0105    0.0000 C   0  0  0  0  0  0  0  0  0  0  0  0
   -0.8750    6.5155    0.0000 C   0  0  0  0  0  0  0  0  0  0  0  0
   -0.0030    6.0155    0.0000 C   0  0  0  0  0  0  0  0  0  0  0  0
    0.0059    5.0104    0.0000 C   0  0  0  0  0  0  0  0  0  0  0  0
    0.8675    1.5027    0.0000 C   0  0  0  0  0  0  0  0  0  0  0  0
    0.8675    0.4975    0.0000 C   0  0  0  0  0  0  0  0  0  0  0  0
  1  2  2  0  0  0  0
  2  3  1  0  0  0  0
  2  4  1  0  0  0  0
  4 18  1  0  0  0  0
  4  5  1  0  0  0  0
  5  6  1  0  0  0  0
  6  7  1  0  0  0  0
  7  8  1  0  0  0  0
  8  9  2  0  0  0  0
  8 10  1  0  0  0  0
 10 11  1  0  0  0  0
 11 16  2  0  0  0  0
 11 12  1  0  0  0  0
 12 13  2  0  0  0  0
 13 14  1  0  0  0  0
 14 15  2  0  0  0  0
 15 16  1  0  0  0  0
  7 17  1  0  0  0  0
 17 18  1  0  0  0  0
M  END
$$$$
JOH-MEM-5e3-1
  -OEChem-03232022352D

 18 19  0     1  0  0  0  0  0999 V2000
   -1.7320   -0.0025    0.0000 C   0  0  0  0  0  0  0  0  0  0  0  0
   -0.8653   -0.5013    0.0000 O   0  0  0  0  0  0  0  0  0  0  0  0
    0.0000    0.0000    0.0000 C   0  0  0  0  0  0  0  0  0  0  0  0
   -0.0000    1.0058    0.0000 C   0  0  0  0  0  0  0  0  0  0  0  0
    0.8680    1.5138    0.0000 C   0  0  0  0  0  0  0  0  0  0  0  0
    1.7360    1.0058    0.0000 C   0  0  0  0  0  0  0  0  0  0  0  0
    1.7360   -0.0012    0.0000 C   0  0  0  0  0  0  0  0  0  0  0  0
    0.8680   -0.4978    0.0000 C   0  0  0  0  0  0  0  0  0  0  0  0
    2.6938   -0.3125    0.0000 C   0  0  3  0  0  0  0  0  0  0  0  0
    3.0028   -1.2636    0.0000 C   0  0  0  0  0  0  0  0  0  0  0  0
    3.9809   -1.4715    0.0000 C   0  0  0  0  0  0  0  0  0  0  0  0
    4.2899   -2.4226    0.0000 N   0  0  0  0  0  0  0  0  0  0  0  0
    5.2680   -2.6306    0.0000 C   0  0  0  0  0  0  0  0  0  0  0  0
    5.5770   -3.5816    0.0000 C   0  0  0  0  0  0  0  0  0  0  0  0
    5.9372   -1.8874    0.0000 O   0  0  0  0  0  0  0  0  0  0  0  0
    3.2858    0.5023    0.0000 C   0  0  0  0  0  0  0  0  0  0  0  0
    4.2858    0.5024    0.0000 O   0  0  0  0  0  0  0  0  0  0  0  0
    2.6938    1.3169    0.0000 N   0  0  0  0  0  0  0  0  0  0  0  0
  1  2  1  0  0  0  0
  2  3  1  0  0  0  0
  3  8  2  0  0  0  0
  3  4  1  0  0  0  0
  4  5  2  0  0  0  0
  5  6  1  0  0  0  0
  6 18  1  0  0  0  0
  6  7  2  0  0  0  0
  7  8  1  0  0  0  0
  7  9  1  0  0  0  0
  9 10  1  0  0  0  0
 10 11  1  0  0  0  0
 11 12  1  0  0  0  0
 12 13  1  0  0  0  0
 13 14  1  0  0  0  0
 13 15  2  0  0  0  0
  9 16  1  0  0  0  0
 16 17  2  0  0  0  0
 16 18  1  0  0  0  0
M  END
$$$$
JOH-MEM-5e3-2
  -OEChem-03232022352D

 18 19  0     1  0  0  0  0  0999 V2000
   -1.7320   -0.0025    0.0000 C   0  0  0  0  0  0  0  0  0  0  0  0
   -0.8653   -0.5013    0.0000 O   0  0  0  0  0  0  0  0  0  0  0  0
    0.0000    0.0000    0.0000 C   0  0  0  0  0  0  0  0  0  0  0  0
   -0.0000    1.0058    0.0000 C   0  0  0  0  0  0  0  0  0  0  0  0
    0.8680    1.5138    0.0000 C   0  0  0  0  0  0  0  0  0  0  0  0
    1.7360    1.0058    0.0000 C   0  0  0  0  0  0  0  0  0  0  0  0
    1.7360   -0.0012    0.0000 C   0  0  0  0  0  0  0  0  0  0  0  0
    0.8680   -0.4978    0.0000 C   0  0  0  0  0  0  0  0  0  0  0  0
    2.6938   -0.3125    0.0000 C   0  0  3  0  0  0  0  0  0  0  0  0
    3.5598   -0.8125    0.0000 O   0  0  0  0  0  0  0  0  0  0  0  0
    2.2870   -1.2260    0.0000 C   0  0  0  0  0  0  0  0  0  0  0  0
    2.8747   -2.0351    0.0000 C   0  0  0  0  0  0  0  0  0  0  0  0
    2.4680   -2.9486    0.0000 N   0  0  0  0  0  0  0  0  0  0  0  0
    3.0557   -3.7576    0.0000 C   0  0  0  0  0  0  0  0  0  0  0  0
    2.6489   -4.6712    0.0000 C   0  0  0  0  0  0  0  0  0  0  0  0
    4.0502   -3.6532    0.0000 O   0  0  0  0  0  0  0  0  0  0  0  0
    3.2858    0.5023    0.0000 C   0  0  0  0  0  0  0  0  0  0  0  0
    2.6938    1.3169    0.0000 N   0  0  0  0  0  0  0  0  0  0  0  0
  1  2  1  0  0  0  0
  2  3  1  0  0  0  0
  3  8  2  0  0  0  0
  3  4  1  0  0  0  0
  4  5  2  0  0  0  0
  5  6  1  0  0  0  0
  6 18  1  0  0  0  0
  6  7  2  0  0  0  0
  7  8  1  0  0  0  0
  7  9  1  0  0  0  0
  9 10  1  0  0  0  0
  9 11  1  0  0  0  0
 11 12  1  0  0  0  0
 12 13  1  0  0  0  0
 13 14  2  0  0  0  0
 14 15  1  0  0  0  0
 14 16  1  0  0  0  0
  9 17  1  0  0  0  0
 17 18  1  0  0  0  0
M  END
$$$$
JOH-MEM-5e3-3
  -OEChem-03232022352D

 29 31  0     1  0  0  0  0  0999 V2000
   -1.7320   -0.0025    0.0000 C   0  0  0  0  0  0  0  0  0  0  0  0
   -0.8653   -0.5013    0.0000 O   0  0  0  0  0  0  0  0  0  0  0  0
    0.0000    0.0000    0.0000 C   0  0  0  0  0  0  0  0  0  0  0  0
   -0.0000    1.0058    0.0000 C   0  0  0  0  0  0  0  0  0  0  0  0
    0.8680    1.5138    0.0000 C   0  0  0  0  0  0  0  0  0  0  0  0
    1.7360    1.0058    0.0000 C   0  0  0  0  0  0  0  0  0  0  0  0
    1.7360   -0.0012    0.0000 C   0  0  0  0  0  0  0  0  0  0  0  0
    0.8680   -0.4978    0.0000 C   0  0  0  0  0  0  0  0  0  0  0  0
    2.6938   -0.3125    0.0000 C   0  0  0  0  0  0  0  0  0  0  0  0
    3.0028   -1.2636    0.0000 C   0  0  0  0  0  0  0  0  0  0  0  0
    3.9809   -1.4715    0.0000 C   0  0  0  0  0  0  0  0  0  0  0  0
    4.2899   -2.4226    0.0000 N   0  0  0  0  0  0  0  0  0  0  0  0
    5.2680   -2.6306    0.0000 C   0  0  0  0  0  0  0  0  0  0  0  0
    5.5770   -3.5816    0.0000 C   0  0  0  0  0  0  0  0  0  0  0  0
    5.9372   -1.8874    0.0000 O   0  0  0  0  0  0  0  0  0  0  0  0
    3.2858    0.5023    0.0000 C   0  0  0  0  0  0  0  0  0  0  0  0
    2.6938    1.3169    0.0000 N   0  0  0  0  0  0  0  0  0  0  0  0
    3.0028    2.2680    0.0000 C   0  0  3  0  0  0  0  0  0  0  0  0
    3.9866    2.4741    0.0000 O   0  0  0  0  0  0  0  0  0  0  0  0
    4.2887    3.4327    0.0000 C   0  0  3  0  0  0  0  0  0  0  0  0
    5.2656    3.6464    0.0000 C   0  0  0  0  0  0  0  0  0  0  0  0
    5.9391    2.9072    0.0000 O   0  0  0  0  0  0  0  0  0  0  0  0
    5.5690    4.5993    0.0000 O   0  0  0  0  0  0  0  0  0  0  0  0
    3.6139    4.1777    0.0000 C   0  0  3  0  0  0  0  0  0  0  0  0
    3.9187    5.1301    0.0000 O   0  0  0  0  0  0  0  0  0  0  0  0
    2.6370    3.9641    0.0000 C   0  0  3  0  0  0  0  0  0  0  0  0
    1.9656    4.7052    0.0000 O   0  0  0  0  0  0  0  0  0  0  0  0
    2.3280    3.0130    0.0000 C   0  0  3  0  0  0  0  0  0  0  0  0
    1.3502    2.8036    0.0000 O   0  0  0  0  0  0  0  0  0  0  0  0
  1  2  1  0  0  0  0
  2  3  1  0  0  0  0
  3  8  2  0  0  0  0
  3  4  1  0  0  0  0
  4  5  2  0  0  0  0
  5  6  1  0  0  0  0
  6 17  1  0  0  0  0
  6  7  2  0  0  0  0
  7  8  1  0  0  0  0
  7  9  1  0  0  0  0
  9 10  1  0  0  0  0
 10 11  1  0  0  0  0
 11 12  1  0  0  0  0
 12 13  1  0  0  0  0
 13 14  1  0  0  0  0
 13 15  2  0  0  0  0
  9 16  2  0  0  0  0
 16 17  1  0  0  0  0
 17 18  1  0  0  0  0
 18 28  1  0  0  0  0
 18 19  1  0  0  0  0
 19 20  1  0  0  0  0
 20 21  1  0  0  0  0
 21 22  2  0  0  0  0
 21 23  1  0  0  0  0
 20 24  1  0  0  0  0
 24 25  1  0  0  0  0
 24 26  1  0  0  0  0
 26 27  1  0  0  0  0
 26 28  1  0  0  0  0
 28 29  1  0  0  0  0
M  END
$$$$
JOH-MEM-5e3-4
  -OEChem-03232022352D

 17 19  0     0  0  0  0  0  0999 V2000
   -0.8570    2.5078    0.0000 C   0  0  0  0  0  0  0  0  0  0  0  0
   -0.8596    1.5078    0.0000 O   0  0  0  0  0  0  0  0  0  0  0  0
    0.0051    1.0055    0.0000 C   0  0  0  0  0  0  0  0  0  0  0  0
    0.0000    0.0000    0.0000 C   0  0  0  0  0  0  0  0  0  0  0  0
    0.8635   -0.5043    0.0000 C   0  0  0  0  0  0  0  0  0  0  0  0
    1.7415   -0.0079    0.0000 C   0  0  0  0  0  0  0  0  0  0  0  0
    2.6967   -0.3194    0.0000 N   0  0  0  0  0  0  0  0  0  0  0  0
    3.2908    0.4981    0.0000 C   0  0  0  0  0  0  0  0  0  0  0  0
    2.6984    1.3061    0.0000 C   0  0  0  0  0  0  0  0  0  0  0  0
    1.7426    0.9967    0.0000 C   0  0  0  0  0  0  0  0  0  0  0  0
    0.8736    1.5067    0.0000 C   0  0  0  0  0  0  0  0  0  0  0  0
    3.2838    2.1191    0.0000 C   0  0  0  0  0  0  0  0  0  0  0  0
    4.2379    1.8138    0.0000 C   0  0  0  0  0  0  0  0  0  0  0  0
    4.2422    0.8118    0.0000 N   0  0  0  0  0  0  0  0  0  0  0  0
    5.0537    0.2275    0.0000 C   0  0  0  0  0  0  0  0  0  0  0  0
    5.9655    0.6382    0.0000 C   0  0  0  0  0  0  0  0  0  0  0  0
    4.9535   -0.7675    0.0000 O   0  0  0  0  0  0  0  0  0  0  0  0
  1  2  1  0  0  0  0
  2  3  1  0  0  0  0
  3 11  2  0  0  0  0
  3  4  1  0  0  0  0
  4  5  2  0  0  0  0
  5  6  1  0  0  0  0
  6 10  2  0  0  0  0
  6  7  1  0  0  0  0
  7  8  1  0  0  0  0
  8 14  1  0  0  0  0
  8  9  2  0  0  0  0
  9 10  1  0  0  0  0
 10 11  1  0  0  0  0
  9 12  1  0  0  0  0
 12 13  1  0  0  0  0
 13 14  1  0  0  0  0
 14 15  1  0  0  0  0
 15 16  1  0  0  0  0
 15 17  2  0  0  0  0
M  END
$$$$
JOH-MEM-5e3-5
  -OEChem-03232022352D

 28 31  0     1  0  0  0  0  0999 V2000
    4.9535   -0.7675    0.0000 C   0  0  0  0  0  0  0  0  0  0  0  0
    5.0537    0.2275    0.0000 C   0  0  0  0  0  0  0  0  0  0  0  0
    5.9655    0.6382    0.0000 O   0  0  0  0  0  0  0  0  0  0  0  0
    4.2422    0.8118    0.0000 N   0  0  0  0  0  0  0  0  0  0  0  0
    4.2379    1.8138    0.0000 C   0  0  0  0  0  0  0  0  0  0  0  0
    3.2838    2.1191    0.0000 C   0  0  0  0  0  0  0  0  0  0  0  0
    2.6984    1.3061    0.0000 C   0  0  0  0  0  0  0  0  0  0  0  0
    3.2908    0.4981    0.0000 C   0  0  0  0  0  0  0  0  0  0  0  0
    2.6967   -0.3194    0.0000 N   0  0  0  0  0  0  0  0  0  0  0  0
    1.7415   -0.0079    0.0000 C   0  0  0  0  0  0  0  0  0  0  0  0
    0.8635   -0.5043    0.0000 C   0  0  0  0  0  0  0  0  0  0  0  0
    0.0000    0.0000    0.0000 C   0  0  0  0  0  0  0  0  0  0  0  0
    0.0051    1.0055    0.0000 C   0  0  0  0  0  0  0  0  0  0  0  0
   -0.8596    1.5078    0.0000 O   0  0  0  0  0  0  0  0  0  0  0  0
   -1.7269    1.0101    0.0000 C   0  0  3  0  0  0  0  0  0  0  0  0
   -2.5946    1.5175    0.0000 O   0  0  0  0  0  0  0  0  0  0  0  0
   -3.4619    1.0095    0.0000 C   0  0  3  0  0  0  0  0  0  0  0  0
   -4.3296    1.5067    0.0000 C   0  0  0  0  0  0  0  0  0  0  0  0
   -4.3329    2.5067    0.0000 O   0  0  0  0  0  0  0  0  0  0  0  0
   -5.1940    1.0039    0.0000 O   0  0  0  0  0  0  0  0  0  0  0  0
   -3.4616    0.0043    0.0000 C   0  0  3  0  0  0  0  0  0  0  0  0
   -4.3268   -0.4972    0.0000 O   0  0  0  0  0  0  0  0  0  0  0  0
   -2.5940   -0.4929    0.0000 C   0  0  3  0  0  0  0  0  0  0  0  0
   -2.5937   -1.4929    0.0000 O   0  0  0  0  0  0  0  0  0  0  0  0
   -1.7266    0.0049    0.0000 C   0  0  3  0  0  0  0  0  0  0  0  0
   -0.8612   -0.4961    0.0000 O   0  0  0  0  0  0  0  0  0  0  0  0
    0.8736    1.5067    0.0000 C   0  0  0  0  0  0  0  0  0  0  0  0
    1.7426    0.9967    0.0000 C   0  0  0  0  0  0  0  0  0  0  0  0
  1  2  1  0  0  0  0
  2  3  2  0  0  0  0
  2  4  1  0  0  0  0
  4  8  1  0  0  0  0
  4  5  1  0  0  0  0
  5  6  1  0  0  0  0
  6  7  1  0  0  0  0
  7 28  1  0  0  0  0
  7  8  2  0  0  0  0
  8  9  1  0  0  0  0
  9 10  1  0  0  0  0
 10 28  2  0  0  0  0
 10 11  1  0  0  0  0
 11 12  2  0  0  0  0
 12 13  1  0  0  0  0
 13 14  1  0  0  0  0
 14 15  1  0  0  0  0
 15 25  1  0  0  0  0
 15 16  1  0  0  0  0
 16 17  1  0  0  0  0
 17 18  1  0  0  0  0
 18 19  2  0  0  0  0
 18 20  1  0  0  0  0
 17 21  1  0  0  0  0
 21 22  1  0  0  0  0
 21 23  1  0  0  0  0
 23 24  1  0  0  0  0
 23 25  1  0  0  0  0
 25 26  1  0  0  0  0
 13 27  2  0  0  0  0
 27 28  1  0  0  0  0
M  END
$$$$
JOH-MEM-5e3-6
  -OEChem-03232022352D

 18 20  0     0  0  0  0  0  0999 V2000
   -0.8570    2.5078    0.0000 C   0  0  0  0  0  0  0  0  0  0  0  0
   -0.8596    1.5078    0.0000 O   0  0  0  0  0  0  0  0  0  0  0  0
    0.0051    1.0055    0.0000 C   0  0  0  0  0  0  0  0  0  0  0  0
    0.8736    1.5067    0.0000 C   0  0  0  0  0  0  0  0  0  0  0  0
    1.7426    0.9967    0.0000 C   0  0  0  0  0  0  0  0  0  0  0  0
    2.6984    1.3061    0.0000 C   0  0  0  0  0  0  0  0  0  0  0  0
    3.2908    0.4981    0.0000 C   0  0  0  0  0  0  0  0  0  0  0  0
    2.6967   -0.3194    0.0000 N   0  0  0  0  0  0  0  0  0  0  0  0
    1.7415   -0.0079    0.0000 C   0  0  0  0  0  0  0  0  0  0  0  0
    0.8635   -0.5043    0.0000 C   0  0  0  0  0  0  0  0  0  0  0  0
    0.0000    0.0000    0.0000 C   0  0  0  0  0  0  0  0  0  0  0  0
   -0.8685   -0.4956    0.0000 O   0  0  0  0  0  0  0  0  0  0  0  0
    4.2422    0.8118    0.0000 N   0  0  0  0  0  0  0  0  0  0  0  0
    5.0537    0.2275    0.0000 C   0  0  0  0  0  0  0  0  0  0  0  0
    5.9655    0.6382    0.0000 C   0  0  0  0  0  0  0  0  0  0  0  0
    4.9535   -0.7675    0.0000 O   0  0  0  0  0  0  0  0  0  0  0  0
    4.2379    1.8138    0.0000 C   0  0  0  0  0  0  0  0  0  0  0  0
    3.2838    2.1191    0.0000 C   0  0  0  0  0  0  0  0  0  0  0  0
  1  2  1  0  0  0  0
  2  3  1  0  0  0  0
  3 11  2  0  0  0  0
  3  4  1  0  0  0  0
  4  5  2  0  0  0  0
  5  9  1  0  0  0  0
  5  6  1  0  0  0  0
  6 18  1  0  0  0  0
  6  7  2  0  0  0  0
  7  8  1  0  0  0  0
  8  9  1  0  0  0  0
  9 10  2  0  0  0  0
 10 11  1  0  0  0  0
 11 12  1  0  0  0  0
  7 13  1  0  0  0  0
 13 14  1  0  0  0  0
 14 15  1  0  0  0  0
 14 16  2  0  0  0  0
 13 17  1  0  0  0  0
 17 18  1  0  0  0  0
M  END
$$$$
JOH-MEM-5e3-7
  -OEChem-03232022352D

 13 14  0     0  0  0  0  0  0999 V2000
    4.2899   -2.4226    0.0000 O   0  0  0  0  0  0  0  0  0  0  0  0
    3.9809   -1.4715    0.0000 C   0  0  0  0  0  0  0  0  0  0  0  0
    3.0028   -1.2636    0.0000 C   0  0  0  0  0  0  0  0  0  0  0  0
    2.6938   -0.3125    0.0000 C   0  0  0  0  0  0  0  0  0  0  0  0
    3.2858    0.5023    0.0000 C   0  0  0  0  0  0  0  0  0  0  0  0
    2.6938    1.3169    0.0000 N   0  0  0  0  0  0  0  0  0  0  0  0
    1.7360    1.0058    0.0000 C   0  0  0  0  0  0  0  0  0  0  0  0
    0.8680    1.5138    0.0000 C   0  0  0  0  0  0  0  0  0  0  0  0
    0.0000    1.0058    0.0000 C   0  0  0  0  0  0  0  0  0  0  0  0
    0.0000    0.0000    0.0000 C   0  0  0  0  0  0  0  0  0  0  0  0
   -0.8653   -0.5013    0.0000 O   0  0  0  0  0  0  0  0  0  0  0  0
    0.8680   -0.4978    0.0000 C   0  0  0  0  0  0  0  0  0  0  0  0
    1.7360   -0.0012    0.0000 C   0  0  0  0  0  0  0  0  0  0  0  0
  1  2  2  0  0  0  0
  2  3  1  0  0  0  0
  3  4  1  0  0  0  0
  4 13  1  0  0  0  0
  4  5  2  0  0  0  0
  5  6  1  0  0  0  0
  6  7  1  0  0  0  0
  7 13  2  0  0  0  0
  7  8  1  0  0  0  0
  8  9  2  0  0  0  0
  9 10  1  0  0  0  0
 10 11  1  0  0  0  0
 10 12  2  0  0  0  0
 12 13  1  0  0  0  0
M  END
$$$$
JOH-MEM-5e3-8
  -OEChem-03232022352D

 19 20  0     0  0  0  0  0  0999 V2000
   -1.7320   -0.0025    0.0000 C   0  0  0  0  0  0  0  0  0  0  0  0
   -0.8653   -0.5013    0.0000 O   0  0  0  0  0  0  0  0  0  0  0  0
    0.0000    0.0000    0.0000 C   0  0  0  0  0  0  0  0  0  0  0  0
    0.0000    1.0058    0.0000 C   0  0  0  0  0  0  0  0  0  0  0  0
   -0.8675    1.5032    0.0000 O   0  0  0  0  0  0  0  0  0  0  0  0
    0.8680    1.5138    0.0000 C   0  0  0  0  0  0  0  0  0  0  0  0
    1.7360    1.0058    0.0000 C   0  0  0  0  0  0  0  0  0  0  0  0
    2.6938    1.3169    0.0000 N   0  0  0  0  0  0  0  0  0  0  0  0
    3.2858    0.5023    0.0000 C   0  0  0  0  0  0  0  0  0  0  0  0
    2.6938   -0.3125    0.0000 C   0  0  0  0  0  0  0  0  0  0  0  0
    3.0028   -1.2636    0.0000 C   0  0  0  0  0  0  0  0  0  0  0  0
    3.9809   -1.4715    0.0000 C   0  0  0  0  0  0  0  0  0  0  0  0
    4.2899   -2.4226    0.0000 N   0  0  0  0  0  0  0  0  0  0  0  0
    5.2680   -2.6306    0.0000 C   0  0  0  0  0  0  0  0  0  0  0  0
    5.5770   -3.5816    0.0000 C   0  0  0  0  0  0  0  0  0  0  0  0
    5.9372   -1.8874    0.0000 O   0  0  0  0  0  0  0  0  0  0  0  0
    1.7360   -0.0012    0.0000 C   0  0  0  0  0  0  0  0  0  0  0  0
    0.8680   -0.4978    0.0000 C   0  0  0  0  0  0  0  0  0  0  0  0
    0.8675   -1.4978    0.0000 O   0  0  0  0  0  0  0  0  0  0  0  0
  1  2  1  0  0  0  0
  2  3  1  0  0  0  0
  3 18  2  0  0  0  0
  3  4  1  0  0  0  0
  4  5  1  0  0  0  0
  4  6  2  0  0  0  0
  6  7  1  0  0  0  0
  7 17  2  0  0  0  0
  7  8  1  0  0  0  0
  8  9  1  0  0  0  0
  9 10  2  0  0  0  0
 10 11  1  0  0  0  0
 11 12  1  0  0  0  0
 12 13  1  0  0  0  0
 13 14  1  0  0  0  0
 14 15  1  0  0  0  0
 14 16  2  0  0  0  0
 10 17  1  0  0  0  0
 17 18  1  0  0  0  0
 18 19  1  0  0  0  0
M  END
$$$$
CHR-SOS-597-1
  -OEChem-03232022352D

 22 24  0     0  0  0  0  0  0999 V2000
    2.6010    1.4950    0.0000 O   0  0  0  0  0  0  0  0  0  0  0  0
    2.5995    0.4950    0.0000 C   0  0  0  0  0  0  0  0  0  0  0  0
    3.4648   -0.0063    0.0000 C   0  0  0  0  0  0  0  0  0  0  0  0
    4.3316    0.4925    0.0000 C   0  0  0  0  0  0  0  0  0  0  0  0
    4.7376   -0.4214    0.0000 C   0  0  0  0  0  0  0  0  0  0  0  0
    4.1492   -1.2299    0.0000 C   0  0  0  0  0  0  0  0  0  0  0  0
    3.1499   -1.1211    0.0000 C   0  0  0  0  0  0  0  0  0  0  0  0
    2.5614   -1.9296    0.0000 C   0  0  0  0  0  0  0  0  0  0  0  0
    2.9620   -2.8459    0.0000 C   0  0  0  0  0  0  0  0  0  0  0  0
    3.9613   -2.9547    0.0000 C   0  0  0  0  0  0  0  0  0  0  0  0
    4.5599   -2.1473    0.0000 C   0  0  0  0  0  0  0  0  0  0  0  0
    5.2843    0.8018    0.0000 C   0  0  0  0  0  0  0  0  0  0  0  0
    5.2867    1.8032    0.0000 C   0  0  0  0  0  0  0  0  0  0  0  0
    4.3356    2.1121    0.0000 C   0  0  0  0  0  0  0  0  0  0  0  0
    3.7429    1.3063    0.0000 C   0  0  0  0  0  0  0  0  0  0  0  0
    1.7328   -0.0038    0.0000 N   0  0  0  0  0  0  0  0  0  0  0  0
    0.8675    0.4975    0.0000 C   0  0  0  0  0  0  0  0  0  0  0  0
    0.0000    0.0000    0.0000 C   0  0  0  0  0  0  0  0  0  0  0  0
   -0.8675    0.4975    0.0000 C   0  0  0  0  0  0  0  0  0  0  0  0
   -0.8675    1.5027    0.0000 C   0  0  0  0  0  0  0  0  0  0  0  0
    0.0000    2.0104    0.0000 N   0  0  0  0  0  0  0  0  0  0  0  0
    0.8675    1.5027    0.0000 C   0  0  0  0  0  0  0  0  0  0  0  0
  1  2  2  0  0  0  0
  2  3  1  0  0  0  0
  3  4  1  0  0  0  0
  4 15  1  0  0  0  0
  4  5  1  0  0  0  0
  5  6  1  0  0  0  0
  6 11  2  0  0  0  0
  6  7  1  0  0  0  0
  7  8  2  0  0  0  0
  8  9  1  0  0  0  0
  9 10  2  0  0  0  0
 10 11  1  0  0  0  0
  4 12  1  0  0  0  0
 12 13  1  0  0  0  0
 13 14  1  0  0  0  0
 14 15  1  0  0  0  0
  2 16  1  0  0  0  0
 16 17  1  0  0  0  0
 17 22  2  0  0  0  0
 17 18  1  0  0  0  0
 18 19  2  0  0  0  0
 19 20  1  0  0  0  0
 20 21  2  0  0  0  0
 21 22  1  0  0  0  0
M  END
$$$$
CHR-SOS-597-2
  -OEChem-03232022352D

 22 24  0     0  0  0  0  0  0999 V2000
    0.5545   -2.6208    0.0000 O   0  0  0  0  0  0  0  0  0  0  0  0
    0.1485   -1.7070    0.0000 C   0  0  0  0  0  0  0  0  0  0  0  0
    0.7369   -0.8984    0.0000 C   0  0  0  0  0  0  0  0  0  0  0  0
    1.7313   -1.0038    0.0000 C   0  0  0  0  0  0  0  0  0  0  0  0
    1.7328   -0.0038    0.0000 C   0  0  0  0  0  0  0  0  0  0  0  0
    0.8675    0.4975    0.0000 C   0  0  0  0  0  0  0  0  0  0  0  0
    0.0000    0.0000    0.0000 C   0  0  0  0  0  0  0  0  0  0  0  0
   -0.8675    0.4975    0.0000 C   0  0  0  0  0  0  0  0  0  0  0  0
   -0.8675    1.5027    0.0000 C   0  0  0  0  0  0  0  0  0  0  0  0
    0.0000    2.0104    0.0000 N   0  0  0  0  0  0  0  0  0  0  0  0
    0.8675    1.5027    0.0000 C   0  0  0  0  0  0  0  0  0  0  0  0
    2.7277   -0.9011    0.0000 C   0  0  0  0  0  0  0  0  0  0  0  0
    3.1352   -1.8159    0.0000 C   0  0  0  0  0  0  0  0  0  0  0  0
    2.3904   -2.4832    0.0000 C   0  0  0  0  0  0  0  0  0  0  0  0
    1.5223   -1.9862    0.0000 C   0  0  0  0  0  0  0  0  0  0  0  0
   -0.8460   -1.6016    0.0000 N   0  0  0  0  0  0  0  0  0  0  0  0
   -1.4344   -2.4102    0.0000 C   0  0  0  0  0  0  0  0  0  0  0  0
   -2.4290   -2.3063    0.0000 C   0  0  0  0  0  0  0  0  0  0  0  0
   -3.0210   -3.1123    0.0000 C   0  0  0  0  0  0  0  0  0  0  0  0
   -2.6142   -4.0315    0.0000 C   0  0  0  0  0  0  0  0  0  0  0  0
   -1.6155   -4.1447    0.0000 N   0  0  0  0  0  0  0  0  0  0  0  0
   -1.0276   -3.3294    0.0000 C   0  0  0  0  0  0  0  0  0  0  0  0
  1  2  2  0  0  0  0
  2  3  1  0  0  0  0
  3  4  1  0  0  0  0
  4 15  1  0  0  0  0
  4  5  1  0  0  0  0
  5  6  1  0  0  0  0
  6 11  2  0  0  0  0
  6  7  1  0  0  0  0
  7  8  2  0  0  0  0
  8  9  1  0  0  0  0
  9 10  2  0  0  0  0
 10 11  1  0  0  0  0
  4 12  1  0  0  0  0
 12 13  1  0  0  0  0
 13 14  1  0  0  0  0
 14 15  1  0  0  0  0
  2 16  1  0  0  0  0
 16 17  1  0  0  0  0
 17 22  2  0  0  0  0
 17 18  1  0  0  0  0
 18 19  2  0  0  0  0
 19 20  1  0  0  0  0
 20 21  2  0  0  0  0
 21 22  1  0  0  0  0
M  END
$$$$
CHR-SOS-597-3
  -OEChem-03232022352D

 22 24  0     0  0  0  0  0  0999 V2000
   -1.2492   -4.4698    0.0000 C   0  0  0  0  0  0  0  0  0  0  0  0
   -0.2985   -4.1598    0.0000 C   0  0  0  0  0  0  0  0  0  0  0  0
    0.5131   -4.7470    0.0000 N   0  0  0  0  0  0  0  0  0  0  0  0
    1.3235   -4.1586    0.0000 C   0  0  0  0  0  0  0  0  0  0  0  0
    1.0123   -3.2082    0.0000 C   0  0  0  0  0  0  0  0  0  0  0  0
    1.6008   -2.3997    0.0000 C   0  0  0  0  0  0  0  0  0  0  0  0
    2.5952   -2.5050    0.0000 C   0  0  0  0  0  0  0  0  0  0  0  0
    2.5966   -1.5050    0.0000 C   0  0  0  0  0  0  0  0  0  0  0  0
    1.7313   -1.0038    0.0000 C   0  0  0  0  0  0  0  0  0  0  0  0
    0.8646   -1.5025    0.0000 O   0  0  0  0  0  0  0  0  0  0  0  0
    1.7328   -0.0038    0.0000 N   0  0  0  0  0  0  0  0  0  0  0  0
    0.8675    0.4975    0.0000 C   0  0  0  0  0  0  0  0  0  0  0  0
    0.0000    0.0000    0.0000 C   0  0  0  0  0  0  0  0  0  0  0  0
   -0.8675    0.4975    0.0000 C   0  0  0  0  0  0  0  0  0  0  0  0
   -0.8675    1.5027    0.0000 C   0  0  0  0  0  0  0  0  0  0  0  0
    0.0000    2.0104    0.0000 N   0  0  0  0  0  0  0  0  0  0  0  0
    0.8675    1.5027    0.0000 C   0  0  0  0  0  0  0  0  0  0  0  0
    3.5916   -2.4024    0.0000 C   0  0  0  0  0  0  0  0  0  0  0  0
    3.9990   -3.3171    0.0000 C   0  0  0  0  0  0  0  0  0  0  0  0
    3.2542   -3.9845    0.0000 C   0  0  0  0  0  0  0  0  0  0  0  0
    2.3862   -3.4875    0.0000 C   0  0  0  0  0  0  0  0  0  0  0  0
    0.0119   -3.2043    0.0000 S   0  0  0  0  0  0  0  0  0  0  0  0
  1  2  1  0  0  0  0
  2 22  1  0  0  0  0
  2  3  2  0  0  0  0
  3  4  1  0  0  0  0
  4  5  2  0  0  0  0
  5  6  1  0  0  0  0
  6  7  1  0  0  0  0
  7 21  1  0  0  0  0
  7  8  1  0  0  0  0
  8  9  1  0  0  0  0
  9 10  2  0  0  0  0
  9 11  1  0  0  0  0
 11 12  1  0  0  0  0
 12 17  2  0  0  0  0
 12 13  1  0  0  0  0
 13 14  2  0  0  0  0
 14 15  1  0  0  0  0
 15 16  2  0  0  0  0
 16 17  1  0  0  0  0
  7 18  1  0  0  0  0
 18 19  1  0  0  0  0
 19 20  1  0  0  0  0
 20 21  1  0  0  0  0
  5 22  1  0  0  0  0
M  END
$$$$
CHR-SOS-597-4
  -OEChem-03232022352D

 23 25  0     0  0  0  0  0  0999 V2000
    0.2780   -5.5885    0.0000 C   0  0  0  0  0  0  0  0  0  0  0  0
    0.3530   -4.5913    0.0000 C   0  0  0  0  0  0  0  0  0  0  0  0
   -0.4103   -3.9427    0.0000 N   0  0  0  0  0  0  0  0  0  0  0  0
   -0.0315   -3.0156    0.0000 C   0  0  0  0  0  0  0  0  0  0  0  0
    0.9656   -3.0918    0.0000 C   0  0  0  0  0  0  0  0  0  0  0  0
    1.6110   -2.3280    0.0000 C   0  0  0  0  0  0  0  0  0  0  0  0
    2.5952   -2.5050    0.0000 C   0  0  0  0  0  0  0  0  0  0  0  0
    2.5966   -1.5050    0.0000 C   0  0  0  0  0  0  0  0  0  0  0  0
    1.7313   -1.0038    0.0000 C   0  0  0  0  0  0  0  0  0  0  0  0
    0.8646   -1.5025    0.0000 O   0  0  0  0  0  0  0  0  0  0  0  0
    1.7328   -0.0038    0.0000 N   0  0  0  0  0  0  0  0  0  0  0  0
    0.8675    0.4975    0.0000 C   0  0  0  0  0  0  0  0  0  0  0  0
    0.0000    0.0000    0.0000 C   0  0  0  0  0  0  0  0  0  0  0  0
   -0.8675    0.4975    0.0000 C   0  0  0  0  0  0  0  0  0  0  0  0
   -0.8675    1.5027    0.0000 C   0  0  0  0  0  0  0  0  0  0  0  0
    0.0000    2.0104    0.0000 N   0  0  0  0  0  0  0  0  0  0  0  0
    0.8675    1.5027    0.0000 C   0  0  0  0  0  0  0  0  0  0  0  0
    3.5850   -2.3299    0.0000 C   0  0  0  0  0  0  0  0  0  0  0  0
    4.2260   -3.0975    0.0000 C   0  0  0  0  0  0  0  0  0  0  0  0
    3.8872   -4.0384    0.0000 C   0  0  0  0  0  0  0  0  0  0  0  0
    2.8974   -4.2135    0.0000 C   0  0  0  0  0  0  0  0  0  0  0  0
    2.2463   -3.4477    0.0000 C   0  0  0  0  0  0  0  0  0  0  0  0
    1.2073   -4.0627    0.0000 S   0  0  0  0  0  0  0  0  0  0  0  0
  1  2  1  0  0  0  0
  2 23  1  0  0  0  0
  2  3  2  0  0  0  0
  3  4  1  0  0  0  0
  4  5  2  0  0  0  0
  5  6  1  0  0  0  0
  6  7  1  0  0  0  0
  7 22  1  0  0  0  0
  7  8  1  0  0  0  0
  8  9  1  0  0  0  0
  9 10  2  0  0  0  0
  9 11  1  0  0  0  0
 11 12  1  0  0  0  0
 12 17  2  0  0  0  0
 12 13  1  0  0  0  0
 13 14  2  0  0  0  0
 14 15  1  0  0  0  0
 15 16  2  0  0  0  0
 16 17  1  0  0  0  0
  7 18  1  0  0  0  0
 18 19  1  0  0  0  0
 19 20  1  0  0  0  0
 20 21  1  0  0  0  0
 21 22  1  0  0  0  0
  5 23  1  0  0  0  0
M  END
$$$$
CHR-SOS-597-5
  -OEChem-03232022352D

 23 25  0     0  0  0  0  0  0999 V2000
    2.6010    1.4950    0.0000 O   0  0  0  0  0  0  0  0  0  0  0  0
    2.5995    0.4950    0.0000 C   0  0  0  0  0  0  0  0  0  0  0  0
    3.4648   -0.0063    0.0000 C   0  0  0  0  0  0  0  0  0  0  0  0
    4.3316    0.4925    0.0000 C   0  0  0  0  0  0  0  0  0  0  0  0
    4.6704   -0.4484    0.0000 C   0  0  0  0  0  0  0  0  0  0  0  0
    4.0250   -1.2122    0.0000 C   0  0  0  0  0  0  0  0  0  0  0  0
    3.0362   -1.0314    0.0000 C   0  0  0  0  0  0  0  0  0  0  0  0
    2.3907   -1.7952    0.0000 C   0  0  0  0  0  0  0  0  0  0  0  0
    2.7241   -2.7381    0.0000 C   0  0  0  0  0  0  0  0  0  0  0  0
    3.7128   -2.9189    0.0000 C   0  0  0  0  0  0  0  0  0  0  0  0
    4.3683   -2.1569    0.0000 C   0  0  0  0  0  0  0  0  0  0  0  0
    5.3225    0.6617    0.0000 C   0  0  0  0  0  0  0  0  0  0  0  0
    5.6668    1.6006    0.0000 C   0  0  0  0  0  0  0  0  0  0  0  0
    5.0304    2.3719    0.0000 C   0  0  0  0  0  0  0  0  0  0  0  0
    4.0395    2.2027    0.0000 C   0  0  0  0  0  0  0  0  0  0  0  0
    3.6851    1.2621    0.0000 C   0  0  0  0  0  0  0  0  0  0  0  0
    1.7328   -0.0038    0.0000 N   0  0  0  0  0  0  0  0  0  0  0  0
    0.8675    0.4975    0.0000 C   0  0  0  0  0  0  0  0  0  0  0  0
    0.0000    0.0000    0.0000 C   0  0  0  0  0  0  0  0  0  0  0  0
   -0.8675    0.4975    0.0000 C   0  0  0  0  0  0  0  0  0  0  0  0
   -0.8675    1.5027    0.0000 C   0  0  0  0  0  0  0  0  0  0  0  0
    0.0000    2.0104    0.0000 N   0  0  0  0  0  0  0  0  0  0  0  0
    0.8675    1.5027    0.0000 C   0  0  0  0  0  0  0  0  0  0  0  0
  1  2  2  0  0  0  0
  2  3  1  0  0  0  0
  3  4  1  0  0  0  0
  4 16  1  0  0  0  0
  4  5  1  0  0  0  0
  5  6  1  0  0  0  0
  6 11  2  0  0  0  0
  6  7  1  0  0  0  0
  7  8  2  0  0  0  0
  8  9  1  0  0  0  0
  9 10  2  0  0  0  0
 10 11  1  0  0  0  0
  4 12  1  0  0  0  0
 12 13  1  0  0  0  0
 13 14  1  0  0  0  0
 14 15  1  0  0  0  0
 15 16  1  0  0  0  0
  2 17  1  0  0  0  0
 17 18  1  0  0  0  0
 18 23  2  0  0  0  0
 18 19  1  0  0  0  0
 19 20  2  0  0  0  0
 20 21  1  0  0  0  0
 21 22  2  0  0  0  0
 22 23  1  0  0  0  0
M  END
$$$$
CHR-SOS-597-6
  -OEChem-03232022352D

 23 25  0     0  0  0  0  0  0999 V2000
    0.4405   -2.5314    0.0000 O   0  0  0  0  0  0  0  0  0  0  0  0
    0.1017   -1.5906    0.0000 C   0  0  0  0  0  0  0  0  0  0  0  0
    0.7471   -0.8267    0.0000 C   0  0  0  0  0  0  0  0  0  0  0  0
    1.7313   -1.0038    0.0000 C   0  0  0  0  0  0  0  0  0  0  0  0
    1.7328   -0.0038    0.0000 C   0  0  0  0  0  0  0  0  0  0  0  0
    0.8675    0.4975    0.0000 C   0  0  0  0  0  0  0  0  0  0  0  0
    0.0000    0.0000    0.0000 C   0  0  0  0  0  0  0  0  0  0  0  0
   -0.8675    0.4975    0.0000 C   0  0  0  0  0  0  0  0  0  0  0  0
   -0.8675    1.5027    0.0000 C   0  0  0  0  0  0  0  0  0  0  0  0
    0.0000    2.0104    0.0000 N   0  0  0  0  0  0  0  0  0  0  0  0
    0.8675    1.5027    0.0000 C   0  0  0  0  0  0  0  0  0  0  0  0
    2.7212   -0.8287    0.0000 C   0  0  0  0  0  0  0  0  0  0  0  0
    3.3622   -1.5963    0.0000 C   0  0  0  0  0  0  0  0  0  0  0  0
    3.0233   -2.5372    0.0000 C   0  0  0  0  0  0  0  0  0  0  0  0
    2.0335   -2.7122    0.0000 C   0  0  0  0  0  0  0  0  0  0  0  0
    1.3825   -1.9464    0.0000 C   0  0  0  0  0  0  0  0  0  0  0  0
   -0.8825   -1.4136    0.0000 N   0  0  0  0  0  0  0  0  0  0  0  0
   -1.5279   -2.1774    0.0000 C   0  0  0  0  0  0  0  0  0  0  0  0
   -2.5124   -2.0018    0.0000 C   0  0  0  0  0  0  0  0  0  0  0  0
   -3.1611   -2.7629    0.0000 C   0  0  0  0  0  0  0  0  0  0  0  0
   -2.8219   -3.7091    0.0000 C   0  0  0  0  0  0  0  0  0  0  0  0
   -1.8340   -3.8943    0.0000 N   0  0  0  0  0  0  0  0  0  0  0  0
   -1.1887   -3.1237    0.0000 C   0  0  0  0  0  0  0  0  0  0  0  0
  1  2  2  0  0  0  0
  2  3  1  0  0  0  0
  3  4  1  0  0  0  0
  4 16  1  0  0  0  0
  4  5  1  0  0  0  0
  5  6  1  0  0  0  0
  6 11  2  0  0  0  0
  6  7  1  0  0  0  0
  7  8  2  0  0  0  0
  8  9  1  0  0  0  0
  9 10  2  0  0  0  0
 10 11  1  0  0  0  0
  4 12  1  0  0  0  0
 12 13  1  0  0  0  0
 13 14  1  0  0  0  0
 14 15  1  0  0  0  0
 15 16  1  0  0  0  0
  2 17  1  0  0  0  0
 17 18  1  0  0  0  0
 18 23  2  0  0  0  0
 18 19  1  0  0  0  0
 19 20  2  0  0  0  0
 20 21  1  0  0  0  0
 21 22  2  0  0  0  0
 22 23  1  0  0  0  0
M  END
$$$$
GIA-UNK-595-1
  -OEChem-03232022352D

 19 20  0     0  0  0  0  0  0999 V2000
   -1.7321   -3.0000    0.0000 C   0  0  0  0  0  0  0  0  0  0  0  0
   -0.8660   -2.5000    0.0000 N   0  0  0  0  0  0  0  0  0  0  0  0
   -0.8660   -1.5000    0.0000 C   0  0  0  0  0  0  0  0  0  0  0  0
   -1.7321   -1.0000    0.0000 O   0  0  0  0  0  0  0  0  0  0  0  0
   -0.0000   -1.0000    0.0000 O   0  0  0  0  0  0  0  0  0  0  0  0
    0.0000    0.0000    0.0000 C   0  0  0  0  0  0  0  0  0  0  0  0
   -0.8675    0.4975    0.0000 C   0  0  0  0  0  0  0  0  0  0  0  0
   -0.8675    1.5027    0.0000 C   0  0  0  0  0  0  0  0  0  0  0  0
    0.0000    2.0104    0.0000 N   0  0  0  0  0  0  0  0  0  0  0  0
    0.0000    3.0104    0.0000 C   0  0  0  0  0  0  0  0  0  0  0  0
    0.8660    3.5104    0.0000 O   0  0  0  0  0  0  0  0  0  0  0  0
   -0.8660    3.5104    0.0000 N   0  0  0  0  0  0  0  0  0  0  0  0
   -0.8720    4.5155    0.0000 C   0  0  0  0  0  0  0  0  0  0  0  0
   -1.7425    5.0181    0.0000 C   0  0  0  0  0  0  0  0  0  0  0  0
   -2.6071    4.5156    0.0000 C   0  0  0  0  0  0  0  0  0  0  0  0
   -2.6100    3.5156    0.0000 C   0  0  0  0  0  0  0  0  0  0  0  0
   -1.7395    3.0130    0.0000 C   0  0  0  0  0  0  0  0  0  0  0  0
    0.8675    1.5027    0.0000 C   0  0  0  0  0  0  0  0  0  0  0  0
    0.8675    0.4975    0.0000 C   0  0  0  0  0  0  0  0  0  0  0  0
  1  2  1  0  0  0  0
  2  3  1  0  0  0  0
  3  4  2  0  0  0  0
  3  5  1  0  0  0  0
  5  6  1  0  0  0  0
  6 19  1  0  0  0  0
  6  7  1  0  0  0  0
  7  8  1  0  0  0  0
  8  9  1  0  0  0  0
  9 10  1  0  0  0  0
 10 11  2  0  0  0  0
 10 12  1  0  0  0  0
 12 17  1  0  0  0  0
 12 13  1  0  0  0  0
 13 14  1  0  0  0  0
 14 15  1  0  0  0  0
 15 16  1  0  0  0  0
 16 17  1  0  0  0  0
  9 18  1  0  0  0  0
 18 19  1  0  0  0  0
M  END
$$$$
GIA-UNK-595-2
  -OEChem-03232022352D

 19 20  0     0  0  0  0  0  0999 V2000
   -1.7321   -3.0000    0.0000 C   0  0  0  0  0  0  0  0  0  0  0  0
   -0.8660   -2.5000    0.0000 N   0  0  0  0  0  0  0  0  0  0  0  0
   -0.8660   -1.5000    0.0000 C   0  0  0  0  0  0  0  0  0  0  0  0
   -1.7321   -1.0000    0.0000 O   0  0  0  0  0  0  0  0  0  0  0  0
   -0.0000   -1.0000    0.0000 O   0  0  0  0  0  0  0  0  0  0  0  0
    0.0000    0.0000    0.0000 C   0  0  0  0  0  0  0  0  0  0  0  0
   -0.8675    0.4975    0.0000 C   0  0  0  0  0  0  0  0  0  0  0  0
   -0.8675    1.5027    0.0000 C   0  0  0  0  0  0  0  0  0  0  0  0
    0.0000    2.0104    0.0000 N   0  0  0  0  0  0  0  0  0  0  0  0
    0.0000    3.0104    0.0000 C   0  0  0  0  0  0  0  0  0  0  0  0
    0.8660    3.5104    0.0000 O   0  0  0  0  0  0  0  0  0  0  0  0
   -0.8660    3.5104    0.0000 C   0  0  0  0  0  0  0  0  0  0  0  0
   -1.7351    3.0052    0.0000 C   0  0  0  0  0  0  0  0  0  0  0  0
   -2.6011    3.5052    0.0000 C   0  0  0  0  0  0  0  0  0  0  0  0
   -2.6070    4.5052    0.0000 C   0  0  0  0  0  0  0  0  0  0  0  0
   -1.7380    5.0104    0.0000 C   0  0  0  0  0  0  0  0  0  0  0  0
   -0.8631    4.5155    0.0000 C   0  0  0  0  0  0  0  0  0  0  0  0
    0.8675    1.5027    0.0000 C   0  0  0  0  0  0  0  0  0  0  0  0
    0.8675    0.4975    0.0000 C   0  0  0  0  0  0  0  0  0  0  0  0
  1  2  1  0  0  0  0
  2  3  1  0  0  0  0
  3  4  2  0  0  0  0
  3  5  1  0  0  0  0
  5  6  1  0  0  0  0
  6 19  1  0  0  0  0
  6  7  1  0  0  0  0
  7  8  1  0  0  0  0
  8  9  1  0  0  0  0
  9 10  1  0  0  0  0
 10 11  2  0  0  0  0
 10 12  1  0  0  0  0
 12 17  2  0  0  0  0
 12 13  1  0  0  0  0
 13 14  2  0  0  0  0
 14 15  1  0  0  0  0
 15 16  2  0  0  0  0
 16 17  1  0  0  0  0
  9 18  1  0  0  0  0
 18 19  1  0  0  0  0
M  END
$$$$
GIA-UNK-595-3
  -OEChem-03232022352D

 19 20  0     0  0  0  0  0  0999 V2000
   -1.7321   -3.0000    0.0000 C   0  0  0  0  0  0  0  0  0  0  0  0
   -0.8660   -2.5000    0.0000 N   0  0  0  0  0  0  0  0  0  0  0  0
   -0.8660   -1.5000    0.0000 C   0  0  0  0  0  0  0  0  0  0  0  0
   -1.7321   -1.0000    0.0000 O   0  0  0  0  0  0  0  0  0  0  0  0
   -0.0000   -1.0000    0.0000 O   0  0  0  0  0  0  0  0  0  0  0  0
    0.0000    0.0000    0.0000 C   0  0  0  0  0  0  0  0  0  0  0  0
   -0.8675    0.4975    0.0000 C   0  0  0  0  0  0  0  0  0  0  0  0
   -0.8675    1.5027    0.0000 C   0  0  0  0  0  0  0  0  0  0  0  0
    0.0000    2.0104    0.0000 N   0  0  0  0  0  0  0  0  0  0  0  0
    0.0000    3.0104    0.0000 C   0  0  0  0  0  0  0  0  0  0  0  0
    0.8660    3.5104    0.0000 O   0  0  0  0  0  0  0  0  0  0  0  0
   -0.8660    3.5104    0.0000 C   0  0  0  0  0  0  0  0  0  0  0  0
   -1.7306    3.0079    0.0000 C   0  0  0  0  0  0  0  0  0  0  0  0
   -2.6012    3.5105    0.0000 C   0  0  0  0  0  0  0  0  0  0  0  0
   -2.6071    4.5156    0.0000 N   0  0  0  0  0  0  0  0  0  0  0  0
   -1.7337    5.0130    0.0000 C   0  0  0  0  0  0  0  0  0  0  0  0
   -0.8631    4.5104    0.0000 C   0  0  0  0  0  0  0  0  0  0  0  0
    0.8675    1.5027    0.0000 C   0  0  0  0  0  0  0  0  0  0  0  0
    0.8675    0.4975    0.0000 C   0  0  0  0  0  0  0  0  0  0  0  0
  1  2  1  0  0  0  0
  2  3  1  0  0  0  0
  3  4  2  0  0  0  0
  3  5  1  0  0  0  0
  5  6  1  0  0  0  0
  6 19  1  0  0  0  0
  6  7  1  0  0  0  0
  7  8  1  0  0  0  0
  8  9  1  0  0  0  0
  9 10  1  0  0  0  0
 10 11  2  0  0  0  0
 10 12  1  0  0  0  0
 12 17  2  0  0  0  0
 12 13  1  0  0  0  0
 13 14  2  0  0  0  0
 14 15  1  0  0  0  0
 15 16  2  0  0  0  0
 16 17  1  0  0  0  0
  9 18  1  0  0  0  0
 18 19  1  0  0  0  0
M  END
$$$$
GIA-UNK-595-4
  -OEChem-03232022352D

 20 21  0     0  0  0  0  0  0999 V2000
   -1.7321   -3.0000    0.0000 C   0  0  0  0  0  0  0  0  0  0  0  0
   -0.8660   -2.5000    0.0000 N   0  0  0  0  0  0  0  0  0  0  0  0
   -0.8660   -1.5000    0.0000 C   0  0  0  0  0  0  0  0  0  0  0  0
   -1.7321   -1.0000    0.0000 O   0  0  0  0  0  0  0  0  0  0  0  0
   -0.0000   -1.0000    0.0000 O   0  0  0  0  0  0  0  0  0  0  0  0
    0.0000    0.0000    0.0000 C   0  0  0  0  0  0  0  0  0  0  0  0
   -0.8675    0.4975    0.0000 C   0  0  0  0  0  0  0  0  0  0  0  0
   -0.8675    1.5027    0.0000 C   0  0  0  0  0  0  0  0  0  0  0  0
    0.0000    2.0104    0.0000 N   0  0  0  0  0  0  0  0  0  0  0  0
    0.0000    3.0104    0.0000 S   0  0  0  0  0  0  0  0  0  0  0  0
   -1.0000    3.0104    0.0000 O   0  0  0  0  0  0  0  0  0  0  0  0
    1.0000    3.0104    0.0000 O   0  0  0  0  0  0  0  0  0  0  0  0
    0.0000    4.0104    0.0000 C   0  0  0  0  0  0  0  0  0  0  0  0
   -0.8720    4.5104    0.0000 C   0  0  0  0  0  0  0  0  0  0  0  0
   -0.8721    5.5105    0.0000 C   0  0  0  0  0  0  0  0  0  0  0  0
   -0.0089    6.0155    0.0000 C   0  0  0  0  0  0  0  0  0  0  0  0
    0.8631    5.5155    0.0000 C   0  0  0  0  0  0  0  0  0  0  0  0
    0.8720    4.5104    0.0000 C   0  0  0  0  0  0  0  0  0  0  0  0
    0.8675    1.5027    0.0000 C   0  0  0  0  0  0  0  0  0  0  0  0
    0.8675    0.4975    0.0000 C   0  0  0  0  0  0  0  0  0  0  0  0
  1  2  1  0  0  0  0
  2  3  1  0  0  0  0
  3  4  2  0  0  0  0
  3  5  1  0  0  0  0
  5  6  1  0  0  0  0
  6 20  1  0  0  0  0
  6  7  1  0  0  0  0
  7  8  1  0  0  0  0
  8  9  1  0  0  0  0
  9 10  1  0  0  0  0
 10 11  2  0  0  0  0
 10 12  2  0  0  0  0
 10 13  1  0  0  0  0
 13 18  2  0  0  0  0
 13 14  1  0  0  0  0
 14 15  2  0  0  0  0
 15 16  1  0  0  0  0
 16 17  2  0  0  0  0
 17 18  1  0  0  0  0
  9 19  1  0  0  0  0
 19 20  1  0  0  0  0
M  END
$$$$
GIA-UNK-595-5
  -OEChem-03232022352D

 18 19  0     0  0  0  0  0  0999 V2000
   -1.7321   -3.0000    0.0000 C   0  0  0  0  0  0  0  0  0  0  0  0
   -0.8660   -2.5000    0.0000 N   0  0  0  0  0  0  0  0  0  0  0  0
   -0.8660   -1.5000    0.0000 C   0  0  0  0  0  0  0  0  0  0  0  0
   -1.7321   -1.0000    0.0000 O   0  0  0  0  0  0  0  0  0  0  0  0
   -0.0000   -1.0000    0.0000 O   0  0  0  0  0  0  0  0  0  0  0  0
    0.0000    0.0000    0.0000 C   0  0  0  0  0  0  0  0  0  0  0  0
   -0.8675    0.4975    0.0000 C   0  0  0  0  0  0  0  0  0  0  0  0
   -0.8675    1.5027    0.0000 C   0  0  0  0  0  0  0  0  0  0  0  0
    0.0000    2.0104    0.0000 N   0  0  0  0  0  0  0  0  0  0  0  0
    0.0000    3.0104    0.0000 C   0  0  0  0  0  0  0  0  0  0  0  0
   -0.8660    3.5104    0.0000 C   0  0  0  0  0  0  0  0  0  0  0  0
   -1.7351    3.0052    0.0000 C   0  0  0  0  0  0  0  0  0  0  0  0
   -2.6011    3.5052    0.0000 C   0  0  0  0  0  0  0  0  0  0  0  0
   -2.6070    4.5052    0.0000 C   0  0  0  0  0  0  0  0  0  0  0  0
   -1.7380    5.0104    0.0000 C   0  0  0  0  0  0  0  0  0  0  0  0
   -0.8631    4.5155    0.0000 C   0  0  0  0  0  0  0  0  0  0  0  0
    0.8675    1.5027    0.0000 C   0  0  0  0  0  0  0  0  0  0  0  0
    0.8675    0.4975    0.0000 C   0  0  0  0  0  0  0  0  0  0  0  0
  1  2  1  0  0  0  0
  2  3  1  0  0  0  0
  3  4  2  0  0  0  0
  3  5  1  0  0  0  0
  5  6  1  0  0  0  0
  6 18  1  0  0  0  0
  6  7  1  0  0  0  0
  7  8  1  0  0  0  0
  8  9  1  0  0  0  0
  9 10  1  0  0  0  0
 10 11  1  0  0  0  0
 11 16  2  0  0  0  0
 11 12  1  0  0  0  0
 12 13  2  0  0  0  0
 13 14  1  0  0  0  0
 14 15  2  0  0  0  0
 15 16  1  0  0  0  0
  9 17  1  0  0  0  0
 17 18  1  0  0  0  0
M  END
$$$$
BAR-COM-569-1
  -OEChem-03232022352D

 23 25  0     0  0  0  0  0  0999 V2000
    0.8646   -1.5025    0.0000 O   0  0  0  0  0  0  0  0  0  0  0  0
    1.7313   -1.0038    0.0000 C   0  0  0  0  0  0  0  0  0  0  0  0
    1.7328   -0.0038    0.0000 N   0  0  0  0  0  0  0  0  0  0  0  0
    0.8675    0.4975    0.0000 C   0  0  0  0  0  0  0  0  0  0  0  0
    0.0000    0.0000    0.0000 C   0  0  0  0  0  0  0  0  0  0  0  0
   -0.8675    0.4975    0.0000 C   0  0  0  0  0  0  0  0  0  0  0  0
   -0.8675    1.5027    0.0000 C   0  0  0  0  0  0  0  0  0  0  0  0
    0.0000    2.0104    0.0000 N   0  0  0  0  0  0  0  0  0  0  0  0
    0.8675    1.5027    0.0000 C   0  0  0  0  0  0  0  0  0  0  0  0
    2.5966   -1.5050    0.0000 N   0  0  0  0  0  0  0  0  0  0  0  0
    2.5952   -2.5050    0.0000 C   0  0  0  0  0  0  0  0  0  0  0  0
    3.4598   -3.0075    0.0000 C   0  0  0  0  0  0  0  0  0  0  0  0
    3.4627   -4.0076    0.0000 C   0  0  0  0  0  0  0  0  0  0  0  0
    2.5922   -4.5102    0.0000 C   0  0  0  0  0  0  0  0  0  0  0  0
    1.7187   -4.0127    0.0000 C   0  0  0  0  0  0  0  0  0  0  0  0
    1.7247   -3.0076    0.0000 C   0  0  0  0  0  0  0  0  0  0  0  0
    0.8601   -2.5051    0.0000 C   0  0  0  0  0  0  0  0  0  0  0  0
   -0.0074   -3.0025    0.0000 C   0  0  0  0  0  0  0  0  0  0  0  0
   -0.8719   -2.4999    0.0000 N   0  0  0  0  0  0  0  0  0  0  0  0
   -1.1279   -1.5333    0.0000 C   0  0  0  0  0  0  0  0  0  0  0  0
   -2.0945   -1.7893    0.0000 C   0  0  0  0  0  0  0  0  0  0  0  0
   -2.9590   -1.2867    0.0000 O   0  0  0  0  0  0  0  0  0  0  0  0
   -1.8385   -2.7559    0.0000 C   0  0  0  0  0  0  0  0  0  0  0  0
  1  2  2  0  0  0  0
  2  3  1  0  0  0  0
  3  4  1  0  0  0  0
  4  9  2  0  0  0  0
  4  5  1  0  0  0  0
  5  6  2  0  0  0  0
  6  7  1  0  0  0  0
  7  8  2  0  0  0  0
  8  9  1  0  0  0  0
  2 10  1  0  0  0  0
 10 11  1  0  0  0  0
 11 16  2  0  0  0  0
 11 12  1  0  0  0  0
 12 13  2  0  0  0  0
 13 14  1  0  0  0  0
 14 15  2  0  0  0  0
 15 16  1  0  0  0  0
 16 17  1  0  0  0  0
 17 18  1  0  0  0  0
 18 19  1  0  0  0  0
 19 23  1  0  0  0  0
 19 20  1  0  0  0  0
 20 21  1  0  0  0  0
 21 22  1  0  0  0  0
 21 23  1  0  0  0  0
M  END
$$$$
BAR-COM-569-2
  -OEChem-03232022352D

 23 24  0     0  0  0  0  0  0999 V2000
    8.6626   -3.0061    0.0000 C   0  0  0  0  0  0  0  0  0  0  0  0
    7.7966   -2.5061    0.0000 C   0  0  0  0  0  0  0  0  0  0  0  0
    7.7965   -1.5061    0.0000 O   0  0  0  0  0  0  0  0  0  0  0  0
    6.9306   -3.0061    0.0000 N   0  0  0  0  0  0  0  0  0  0  0  0
    6.0645   -2.5062    0.0000 C   0  0  0  0  0  0  0  0  0  0  0  0
    5.1985   -3.0062    0.0000 C   0  0  0  0  0  0  0  0  0  0  0  0
    4.3325   -2.5063    0.0000 O   0  0  0  0  0  0  0  0  0  0  0  0
    3.4665   -3.0063    0.0000 C   0  0  0  0  0  0  0  0  0  0  0  0
    3.4651   -4.0063    0.0000 C   0  0  0  0  0  0  0  0  0  0  0  0
    2.6012   -4.5102    0.0000 C   0  0  0  0  0  0  0  0  0  0  0  0
    1.7299   -4.0089    0.0000 C   0  0  0  0  0  0  0  0  0  0  0  0
    1.7225   -3.0037    0.0000 C   0  0  0  0  0  0  0  0  0  0  0  0
    2.5952   -2.5050    0.0000 C   0  0  0  0  0  0  0  0  0  0  0  0
    2.5966   -1.5050    0.0000 N   0  0  0  0  0  0  0  0  0  0  0  0
    1.7313   -1.0038    0.0000 C   0  0  0  0  0  0  0  0  0  0  0  0
    0.8646   -1.5025    0.0000 O   0  0  0  0  0  0  0  0  0  0  0  0
    1.7328   -0.0038    0.0000 N   0  0  0  0  0  0  0  0  0  0  0  0
    0.8675    0.4975    0.0000 C   0  0  0  0  0  0  0  0  0  0  0  0
    0.0000    0.0000    0.0000 C   0  0  0  0  0  0  0  0  0  0  0  0
   -0.8675    0.4975    0.0000 C   0  0  0  0  0  0  0  0  0  0  0  0
   -0.8675    1.5027    0.0000 C   0  0  0  0  0  0  0  0  0  0  0  0
    0.0000    2.0104    0.0000 N   0  0  0  0  0  0  0  0  0  0  0  0
    0.8675    1.5027    0.0000 C   0  0  0  0  0  0  0  0  0  0  0  0
  1  2  1  0  0  0  0
  2  3  2  0  0  0  0
  2  4  1  0  0  0  0
  4  5  1  0  0  0  0
  5  6  1  0  0  0  0
  6  7  1  0  0  0  0
  7  8  1  0  0  0  0
  8 13  2  0  0  0  0
  8  9  1  0  0  0  0
  9 10  2  0  0  0  0
 10 11  1  0  0  0  0
 11 12  2  0  0  0  0
 12 13  1  0  0  0  0
 13 14  1  0  0  0  0
 14 15  1  0  0  0  0
 15 16  2  0  0  0  0
 15 17  1  0  0  0  0
 17 18  1  0  0  0  0
 18 23  2  0  0  0  0
 18 19  1  0  0  0  0
 19 20  2  0  0  0  0
 20 21  1  0  0  0  0
 21 22  2  0  0  0  0
 22 23  1  0  0  0  0
M  END
$$$$
BAR-COM-569-3
  -OEChem-03232022352D

 23 24  0     0  0  0  0  0  0999 V2000
    7.7966   -3.5061    0.0000 C   0  0  0  0  0  0  0  0  0  0  0  0
    6.9306   -3.0061    0.0000 C   0  0  0  0  0  0  0  0  0  0  0  0
    6.4306   -3.8722    0.0000 C   0  0  0  0  0  0  0  0  0  0  0  0
    7.4305   -2.1401    0.0000 O   0  0  0  0  0  0  0  0  0  0  0  0
    6.0645   -2.5062    0.0000 C   0  0  0  0  0  0  0  0  0  0  0  0
    5.1985   -3.0062    0.0000 O   0  0  0  0  0  0  0  0  0  0  0  0
    4.3325   -2.5063    0.0000 C   0  0  0  0  0  0  0  0  0  0  0  0
    3.4665   -3.0063    0.0000 C   0  0  0  0  0  0  0  0  0  0  0  0
    3.4651   -4.0063    0.0000 C   0  0  0  0  0  0  0  0  0  0  0  0
    2.6012   -4.5102    0.0000 C   0  0  0  0  0  0  0  0  0  0  0  0
    1.7299   -4.0089    0.0000 C   0  0  0  0  0  0  0  0  0  0  0  0
    1.7225   -3.0037    0.0000 C   0  0  0  0  0  0  0  0  0  0  0  0
    2.5952   -2.5050    0.0000 C   0  0  0  0  0  0  0  0  0  0  0  0
    2.5966   -1.5050    0.0000 N   0  0  0  0  0  0  0  0  0  0  0  0
    1.7313   -1.0038    0.0000 C   0  0  0  0  0  0  0  0  0  0  0  0
    0.8646   -1.5025    0.0000 O   0  0  0  0  0  0  0  0  0  0  0  0
    1.7328   -0.0038    0.0000 N   0  0  0  0  0  0  0  0  0  0  0  0
    0.8675    0.4975    0.0000 C   0  0  0  0  0  0  0  0  0  0  0  0
    0.0000    0.0000    0.0000 C   0  0  0  0  0  0  0  0  0  0  0  0
   -0.8675    0.4975    0.0000 C   0  0  0  0  0  0  0  0  0  0  0  0
   -0.8675    1.5027    0.0000 C   0  0  0  0  0  0  0  0  0  0  0  0
    0.0000    2.0104    0.0000 N   0  0  0  0  0  0  0  0  0  0  0  0
    0.8675    1.5027    0.0000 C   0  0  0  0  0  0  0  0  0  0  0  0
  1  2  1  0  0  0  0
  2  3  1  0  0  0  0
  2  4  1  0  0  0  0
  2  5  1  0  0  0  0
  5  6  1  0  0  0  0
  6  7  1  0  0  0  0
  7  8  1  0  0  0  0
  8 13  2  0  0  0  0
  8  9  1  0  0  0  0
  9 10  2  0  0  0  0
 10 11  1  0  0  0  0
 11 12  2  0  0  0  0
 12 13  1  0  0  0  0
 13 14  1  0  0  0  0
 14 15  1  0  0  0  0
 15 16  2  0  0  0  0
 15 17  1  0  0  0  0
 17 18  1  0  0  0  0
 18 23  2  0  0  0  0
 18 19  1  0  0  0  0
 19 20  2  0  0  0  0
 20 21  1  0  0  0  0
 21 22  2  0  0  0  0
 22 23  1  0  0  0  0
M  END
$$$$
BAR-COM-569-4
  -OEChem-03232022352D

 24 25  0     1  0  0  0  0  0999 V2000
    6.0644    0.4938    0.0000 C   0  0  0  0  0  0  0  0  0  0  0  0
    6.0644   -0.5062    0.0000 C   0  0  0  0  0  0  0  0  0  0  0  0
    6.9305   -1.0061    0.0000 C   0  0  0  0  0  0  0  0  0  0  0  0
    5.1984   -1.0062    0.0000 C   0  0  2  0  0  0  0  0  0  0  0  0
    5.6985   -1.8722    0.0000 H   0  0  0  0  0  0  0  0  0  0  0  0
    4.6984   -0.1402    0.0000 O   0  0  0  0  0  0  0  0  0  0  0  0
    4.3324   -1.5063    0.0000 C   0  0  0  0  0  0  0  0  0  0  0  0
    4.3325   -2.5063    0.0000 C   0  0  0  0  0  0  0  0  0  0  0  0
    3.4665   -3.0063    0.0000 C   0  0  0  0  0  0  0  0  0  0  0  0
    3.4651   -4.0063    0.0000 C   0  0  0  0  0  0  0  0  0  0  0  0
    2.6012   -4.5102    0.0000 C   0  0  0  0  0  0  0  0  0  0  0  0
    1.7299   -4.0089    0.0000 C   0  0  0  0  0  0  0  0  0  0  0  0
    1.7225   -3.0037    0.0000 C   0  0  0  0  0  0  0  0  0  0  0  0
    2.5952   -2.5050    0.0000 C   0  0  0  0  0  0  0  0  0  0  0  0
    2.5966   -1.5050    0.0000 N   0  0  0  0  0  0  0  0  0  0  0  0
    1.7313   -1.0038    0.0000 C   0  0  0  0  0  0  0  0  0  0  0  0
    0.8646   -1.5025    0.0000 O   0  0  0  0  0  0  0  0  0  0  0  0
    1.7328   -0.0038    0.0000 N   0  0  0  0  0  0  0  0  0  0  0  0
    0.8675    0.4975    0.0000 C   0  0  0  0  0  0  0  0  0  0  0  0
    0.0000    0.0000    0.0000 C   0  0  0  0  0  0  0  0  0  0  0  0
   -0.8675    0.4975    0.0000 C   0  0  0  0  0  0  0  0  0  0  0  0
   -0.8675    1.5027    0.0000 C   0  0  0  0  0  0  0  0  0  0  0  0
    0.0000    2.0104    0.0000 N   0  0  0  0  0  0  0  0  0  0  0  0
    0.8675    1.5027    0.0000 C   0  0  0  0  0  0  0  0  0  0  0  0
  1  2  1  0  0  0  0
  2  3  1  0  0  0  0
  2  4  1  0  0  0  0
  4  5  1  6  0  0  0
  4  6  1  0  0  0  0
  4  7  1  0  0  0  0
  7  8  1  0  0  0  0
  8  9  1  0  0  0  0
  9 14  2  0  0  0  0
  9 10  1  0  0  0  0
 10 11  2  0  0  0  0
 11 12  1  0  0  0  0
 12 13  2  0  0  0  0
 13 14  1  0  0  0  0
 14 15  1  0  0  0  0
 15 16  1  0  0  0  0
 16 17  2  0  0  0  0
 16 18  1  0  0  0  0
 18 19  1  0  0  0  0
 19 24  2  0  0  0  0
 19 20  1  0  0  0  0
 20 21  2  0  0  0  0
 21 22  1  0  0  0  0
 22 23  2  0  0  0  0
 23 24  1  0  0  0  0
M  END
$$$$
BAR-COM-569-5
  -OEChem-03232022352D

 23 25  0     0  0  0  0  0  0999 V2000
    0.8646   -1.5025    0.0000 O   0  0  0  0  0  0  0  0  0  0  0  0
    1.7313   -1.0038    0.0000 C   0  0  0  0  0  0  0  0  0  0  0  0
    1.7328   -0.0038    0.0000 N   0  0  0  0  0  0  0  0  0  0  0  0
    0.8675    0.4975    0.0000 C   0  0  0  0  0  0  0  0  0  0  0  0
    0.0000    0.0000    0.0000 C   0  0  0  0  0  0  0  0  0  0  0  0
   -0.8675    0.4975    0.0000 C   0  0  0  0  0  0  0  0  0  0  0  0
   -0.8675    1.5027    0.0000 C   0  0  0  0  0  0  0  0  0  0  0  0
    0.0000    2.0104    0.0000 N   0  0  0  0  0  0  0  0  0  0  0  0
    0.8675    1.5027    0.0000 C   0  0  0  0  0  0  0  0  0  0  0  0
    2.5966   -1.5050    0.0000 N   0  0  0  0  0  0  0  0  0  0  0  0
    2.5952   -2.5050    0.0000 C   0  0  0  0  0  0  0  0  0  0  0  0
    3.4598   -3.0075    0.0000 C   0  0  0  0  0  0  0  0  0  0  0  0
    3.4627   -4.0076    0.0000 C   0  0  0  0  0  0  0  0  0  0  0  0
    2.5922   -4.5102    0.0000 C   0  0  0  0  0  0  0  0  0  0  0  0
    1.7187   -4.0127    0.0000 C   0  0  0  0  0  0  0  0  0  0  0  0
    1.7247   -3.0076    0.0000 C   0  0  0  0  0  0  0  0  0  0  0  0
    0.8601   -2.5051    0.0000 C   0  0  0  0  0  0  0  0  0  0  0  0
   -0.0074   -3.0025    0.0000 C   0  0  0  0  0  0  0  0  0  0  0  0
   -0.8719   -2.4999    0.0000 C   0  0  0  0  0  0  0  0  0  0  0  0
   -1.3745   -3.3645    0.0000 O   0  0  0  0  0  0  0  0  0  0  0  0
   -1.7364   -1.9974    0.0000 C   0  0  0  0  0  0  0  0  0  0  0  0
   -1.2339   -1.1330    0.0000 N   0  3  0  0  0  0  0  0  0  0  0  0
   -0.3694   -1.6355    0.0000 C   0  0  0  0  0  0  0  0  0  0  0  0
  1  2  2  0  0  0  0
  2  3  1  0  0  0  0
  3  4  1  0  0  0  0
  4  9  2  0  0  0  0
  4  5  1  0  0  0  0
  5  6  2  0  0  0  0
  6  7  1  0  0  0  0
  7  8  2  0  0  0  0
  8  9  1  0  0  0  0
  2 10  1  0  0  0  0
 10 11  1  0  0  0  0
 11 16  2  0  0  0  0
 11 12  1  0  0  0  0
 12 13  2  0  0  0  0
 13 14  1  0  0  0  0
 14 15  2  0  0  0  0
 15 16  1  0  0  0  0
 16 17  1  0  0  0  0
 17 18  1  0  0  0  0
 18 19  1  0  0  0  0
 19 23  1  0  0  0  0
 19 20  1  0  0  0  0
 19 21  1  0  0  0  0
 21 22  1  0  0  0  0
 22 23  1  0  0  0  0
M  CHG  1  22   1
M  END
$$$$
CHR-SOS-54d-1
  -OEChem-03232022352D

 23 25  0     1  0  0  0  0  0999 V2000
    2.6010    1.4950    0.0000 O   0  0  0  0  0  0  0  0  0  0  0  0
    2.5995    0.4950    0.0000 C   0  0  0  0  0  0  0  0  0  0  0  0
    3.4648   -0.0063    0.0000 C   0  0  0  0  0  0  0  0  0  0  0  0
    4.3316    0.4925    0.0000 C   0  0  0  0  0  0  0  0  0  0  0  0
    4.6704   -0.4484    0.0000 C   0  0  0  0  0  0  0  0  0  0  0  0
    5.0092   -1.3892    0.0000 C   0  0  0  0  0  0  0  0  0  0  0  0
    5.3480   -2.3301    0.0000 C   0  0  3  0  0  0  0  0  0  0  0  0
    4.7842   -3.1578    0.0000 C   0  0  0  0  0  0  0  0  0  0  0  0
    5.3983   -3.9470    0.0000 C   0  0  0  0  0  0  0  0  0  0  0  0
    6.3412   -3.6125    0.0000 N   0  0  0  0  0  0  0  0  0  0  0  0
    6.3103   -2.6083    0.0000 C   0  0  0  0  0  0  0  0  0  0  0  0
    5.3225    0.6617    0.0000 C   0  0  0  0  0  0  0  0  0  0  0  0
    5.6668    1.6006    0.0000 C   0  0  0  0  0  0  0  0  0  0  0  0
    5.0304    2.3719    0.0000 C   0  0  0  0  0  0  0  0  0  0  0  0
    4.0395    2.2027    0.0000 C   0  0  0  0  0  0  0  0  0  0  0  0
    3.6851    1.2621    0.0000 C   0  0  0  0  0  0  0  0  0  0  0  0
    1.7328   -0.0038    0.0000 N   0  0  0  0  0  0  0  0  0  0  0  0
    0.8675    0.4975    0.0000 C   0  0  0  0  0  0  0  0  0  0  0  0
    0.0000    0.0000    0.0000 C   0  0  0  0  0  0  0  0  0  0  0  0
   -0.8675    0.4975    0.0000 C   0  0  0  0  0  0  0  0  0  0  0  0
   -0.8675    1.5027    0.0000 C   0  0  0  0  0  0  0  0  0  0  0  0
    0.0000    2.0104    0.0000 N   0  0  0  0  0  0  0  0  0  0  0  0
    0.8675    1.5027    0.0000 C   0  0  0  0  0  0  0  0  0  0  0  0
  1  2  2  0  0  0  0
  2  3  1  0  0  0  0
  3  4  1  0  0  0  0
  4 16  1  0  0  0  0
  4  5  1  0  0  0  0
  5  6  3  0  0  0  0
  6  7  1  0  0  0  0
  7 11  1  0  0  0  0
  7  8  1  0  0  0  0
  8  9  1  0  0  0  0
  9 10  1  0  0  0  0
 10 11  1  0  0  0  0
  4 12  1  0  0  0  0
 12 13  1  0  0  0  0
 13 14  1  0  0  0  0
 14 15  1  0  0  0  0
 15 16  1  0  0  0  0
  2 17  1  0  0  0  0
 17 18  1  0  0  0  0
 18 23  2  0  0  0  0
 18 19  1  0  0  0  0
 19 20  2  0  0  0  0
 20 21  1  0  0  0  0
 21 22  2  0  0  0  0
 22 23  1  0  0  0  0
M  END
$$$$
CHR-SOS-54d-2
  -OEChem-03232022352D

 23 25  0     1  0  0  0  0  0999 V2000
    2.6010    1.4950    0.0000 O   0  0  0  0  0  0  0  0  0  0  0  0
    2.5995    0.4950    0.0000 C   0  0  0  0  0  0  0  0  0  0  0  0
    3.4648   -0.0063    0.0000 C   0  0  0  0  0  0  0  0  0  0  0  0
    4.3316    0.4925    0.0000 C   0  0  0  0  0  0  0  0  0  0  0  0
    4.6704   -0.4484    0.0000 C   0  0  0  0  0  0  0  0  0  0  0  0
    5.0092   -1.3892    0.0000 C   0  0  0  0  0  0  0  0  0  0  0  0
    5.3480   -2.3301    0.0000 C   0  0  3  0  0  0  0  0  0  0  0  0
    4.7859   -3.1591    0.0000 C   0  0  0  0  0  0  0  0  0  0  0  0
    5.3986   -3.9513    0.0000 C   0  0  0  0  0  0  0  0  0  0  0  0
    6.3391   -3.6113    0.0000 C   0  0  0  0  0  0  0  0  0  0  0  0
    6.3125   -2.6112    0.0000 N   0  0  0  0  0  0  0  0  0  0  0  0
    5.3225    0.6617    0.0000 C   0  0  0  0  0  0  0  0  0  0  0  0
    5.6668    1.6006    0.0000 C   0  0  0  0  0  0  0  0  0  0  0  0
    5.0304    2.3719    0.0000 C   0  0  0  0  0  0  0  0  0  0  0  0
    4.0395    2.2027    0.0000 C   0  0  0  0  0  0  0  0  0  0  0  0
    3.6851    1.2621    0.0000 C   0  0  0  0  0  0  0  0  0  0  0  0
    1.7328   -0.0038    0.0000 N   0  0  0  0  0  0  0  0  0  0  0  0
    0.8675    0.4975    0.0000 C   0  0  0  0  0  0  0  0  0  0  0  0
    0.0000    0.0000    0.0000 C   0  0  0  0  0  0  0  0  0  0  0  0
   -0.8675    0.4975    0.0000 C   0  0  0  0  0  0  0  0  0  0  0  0
   -0.8675    1.5027    0.0000 C   0  0  0  0  0  0  0  0  0  0  0  0
    0.0000    2.0104    0.0000 N   0  0  0  0  0  0  0  0  0  0  0  0
    0.8675    1.5027    0.0000 C   0  0  0  0  0  0  0  0  0  0  0  0
  1  2  2  0  0  0  0
  2  3  1  0  0  0  0
  3  4  1  0  0  0  0
  4 16  1  0  0  0  0
  4  5  1  0  0  0  0
  5  6  3  0  0  0  0
  6  7  1  0  0  0  0
  7 11  1  0  0  0  0
  7  8  1  0  0  0  0
  8  9  1  0  0  0  0
  9 10  1  0  0  0  0
 10 11  1  0  0  0  0
  4 12  1  0  0  0  0
 12 13  1  0  0  0  0
 13 14  1  0  0  0  0
 14 15  1  0  0  0  0
 15 16  1  0  0  0  0
  2 17  1  0  0  0  0
 17 18  1  0  0  0  0
 18 23  2  0  0  0  0
 18 19  1  0  0  0  0
 19 20  2  0  0  0  0
 20 21  1  0  0  0  0
 21 22  2  0  0  0  0
 22 23  1  0  0  0  0
M  END
$$$$
CHR-SOS-54d-3
  -OEChem-03232022352D

 24 26  0     1  0  0  0  0  0999 V2000
    4.1410   -2.8880    0.0000 O   0  0  0  0  0  0  0  0  0  0  0  0
    3.1568   -2.7110    0.0000 C   0  0  0  0  0  0  0  0  0  0  0  0
    2.8180   -1.7701    0.0000 C   0  0  0  0  0  0  0  0  0  0  0  0
    3.4634   -1.0063    0.0000 C   0  0  0  0  0  0  0  0  0  0  0  0
    2.5981   -0.5050    0.0000 C   0  0  0  0  0  0  0  0  0  0  0  0
    1.7328   -0.0038    0.0000 C   0  0  0  0  0  0  0  0  0  0  0  0
    0.8675    0.4975    0.0000 C   0  0  3  0  0  0  0  0  0  0  0  0
    0.0000    0.0000    0.0000 C   0  0  0  0  0  0  0  0  0  0  0  0
   -0.8675    0.4975    0.0000 C   0  0  0  0  0  0  0  0  0  0  0  0
   -0.8675    1.5027    0.0000 C   0  0  0  0  0  0  0  0  0  0  0  0
    0.0000    2.0104    0.0000 N   0  0  0  0  0  0  0  0  0  0  0  0
    0.8675    1.5027    0.0000 C   0  0  0  0  0  0  0  0  0  0  0  0
    3.8067   -0.0615    0.0000 C   0  0  0  0  0  0  0  0  0  0  0  0
    4.7920    0.1098    0.0000 C   0  0  0  0  0  0  0  0  0  0  0  0
    5.4374   -0.6541    0.0000 C   0  0  0  0  0  0  0  0  0  0  0  0
    5.0941   -1.5988    0.0000 C   0  0  0  0  0  0  0  0  0  0  0  0
    4.1053   -1.7797    0.0000 C   0  0  0  0  0  0  0  0  0  0  0  0
    2.5114   -3.4748    0.0000 N   0  0  0  0  0  0  0  0  0  0  0  0
    2.8502   -4.4157    0.0000 C   0  0  0  0  0  0  0  0  0  0  0  0
    2.2059   -5.1805    0.0000 C   0  0  0  0  0  0  0  0  0  0  0  0
    2.5406   -6.1228    0.0000 C   0  0  0  0  0  0  0  0  0  0  0  0
    3.5297   -6.3022    0.0000 C   0  0  0  0  0  0  0  0  0  0  0  0
    4.1840   -5.5392    0.0000 N   0  0  0  0  0  0  0  0  0  0  0  0
    3.8393   -4.5950    0.0000 C   0  0  0  0  0  0  0  0  0  0  0  0
  1  2  2  0  0  0  0
  2  3  1  0  0  0  0
  3  4  1  0  0  0  0
  4 17  1  0  0  0  0
  4  5  1  0  0  0  0
  5  6  3  0  0  0  0
  6  7  1  0  0  0  0
  7 12  1  0  0  0  0
  7  8  1  0  0  0  0
  8  9  1  0  0  0  0
  9 10  1  0  0  0  0
 10 11  1  0  0  0  0
 11 12  1  0  0  0  0
  4 13  1  0  0  0  0
 13 14  1  0  0  0  0
 14 15  1  0  0  0  0
 15 16  1  0  0  0  0
 16 17  1  0  0  0  0
  2 18  1  0  0  0  0
 18 19  1  0  0  0  0
 19 24  2  0  0  0  0
 19 20  1  0  0  0  0
 20 21  2  0  0  0  0
 21 22  1  0  0  0  0
 22 23  2  0  0  0  0
 23 24  1  0  0  0  0
M  END
$$$$
CHR-SOS-54d-4
  -OEChem-03232022352D

 24 26  0     1  0  0  0  0  0999 V2000
    5.4379    2.6381    0.0000 O   0  0  0  0  0  0  0  0  0  0  0  0
    4.7913    1.8752    0.0000 C   0  0  0  0  0  0  0  0  0  0  0  0
    3.8074    2.0537    0.0000 C   0  0  0  0  0  0  0  0  0  0  0  0
    3.4700    2.9950    0.0000 C   0  0  0  0  0  0  0  0  0  0  0  0
    2.6025    2.4976    0.0000 C   0  0  0  0  0  0  0  0  0  0  0  0
    1.7350    2.0001    0.0000 C   0  0  0  0  0  0  0  0  0  0  0  0
    0.8675    1.5027    0.0000 C   0  0  3  0  0  0  0  0  0  0  0  0
    0.8675    0.4975    0.0000 C   0  0  0  0  0  0  0  0  0  0  0  0
    0.0000    0.0000    0.0000 C   0  0  0  0  0  0  0  0  0  0  0  0
   -0.8675    0.4975    0.0000 C   0  0  0  0  0  0  0  0  0  0  0  0
   -0.8675    1.5027    0.0000 C   0  0  0  0  0  0  0  0  0  0  0  0
    0.0000    2.0104    0.0000 N   0  0  0  0  0  0  0  0  0  0  0  0
    2.8246    3.7657    0.0000 C   0  0  0  0  0  0  0  0  0  0  0  0
    3.1703    4.7041    0.0000 C   0  0  0  0  0  0  0  0  0  0  0  0
    4.1548    4.8796    0.0000 C   0  0  0  0  0  0  0  0  0  0  0  0
    4.8002    4.1090    0.0000 C   0  0  0  0  0  0  0  0  0  0  0  0
    4.4610    3.1628    0.0000 C   0  0  0  0  0  0  0  0  0  0  0  0
    5.1287    0.9338    0.0000 N   0  0  0  0  0  0  0  0  0  0  0  0
    6.1127    0.7553    0.0000 C   0  0  0  0  0  0  0  0  0  0  0  0
    6.4514   -0.1856    0.0000 C   0  0  0  0  0  0  0  0  0  0  0  0
    7.4346   -0.3684    0.0000 C   0  0  0  0  0  0  0  0  0  0  0  0
    8.0856    0.3975    0.0000 C   0  0  0  0  0  0  0  0  0  0  0  0
    7.7535    1.3462    0.0000 N   0  0  0  0  0  0  0  0  0  0  0  0
    6.7637    1.5212    0.0000 C   0  0  0  0  0  0  0  0  0  0  0  0
  1  2  2  0  0  0  0
  2  3  1  0  0  0  0
  3  4  1  0  0  0  0
  4 17  1  0  0  0  0
  4  5  1  0  0  0  0
  5  6  3  0  0  0  0
  6  7  1  0  0  0  0
  7 12  1  0  0  0  0
  7  8  1  0  0  0  0
  8  9  1  0  0  0  0
  9 10  1  0  0  0  0
 10 11  1  0  0  0  0
 11 12  1  0  0  0  0
  4 13  1  0  0  0  0
 13 14  1  0  0  0  0
 14 15  1  0  0  0  0
 15 16  1  0  0  0  0
 16 17  1  0  0  0  0
  2 18  1  0  0  0  0
 18 19  1  0  0  0  0
 19 24  2  0  0  0  0
 19 20  1  0  0  0  0
 20 21  2  0  0  0  0
 21 22  1  0  0  0  0
 22 23  2  0  0  0  0
 23 24  1  0  0  0  0
M  END
$$$$
CHR-SOS-54d-5
  -OEChem-03232022352D

 25 27  0     0  0  0  0  0  0999 V2000
    2.6025    1.5026    0.0000 N   0  0  0  0  0  0  0  0  0  0  0  0
    1.7350    1.0052    0.0000 C   0  0  0  0  0  0  0  0  0  0  0  0
    0.8675    1.5129    0.0000 N   0  0  0  0  0  0  0  0  0  0  0  0
    0.0000    1.0052    0.0000 C   0  0  0  0  0  0  0  0  0  0  0  0
    0.0000    0.0000    0.0000 C   0  0  0  0  0  0  0  0  0  0  0  0
    0.8675   -0.4975    0.0000 C   0  0  0  0  0  0  0  0  0  0  0  0
    0.8675   -1.4975    0.0000 C   0  0  0  0  0  0  0  0  0  0  0  0
    0.8675   -2.4975    0.0000 C   0  0  0  0  0  0  0  0  0  0  0  0
    0.8675   -3.4975    0.0000 C   0  0  0  0  0  0  0  0  0  0  0  0
    1.8520   -3.3219    0.0000 C   0  0  0  0  0  0  0  0  0  0  0  0
    2.4963   -4.0867    0.0000 C   0  0  0  0  0  0  0  0  0  0  0  0
    2.1561   -5.0271    0.0000 O   0  0  0  0  0  0  0  0  0  0  0  0
    3.4807   -3.9111    0.0000 N   0  0  0  0  0  0  0  0  0  0  0  0
    4.1250   -4.6759    0.0000 C   0  0  0  0  0  0  0  0  0  0  0  0
    3.7862   -5.6168    0.0000 C   0  0  0  0  0  0  0  0  0  0  0  0
    4.4272   -6.3844    0.0000 C   0  0  0  0  0  0  0  0  0  0  0  0
    5.4170   -6.2093    0.0000 C   0  0  0  0  0  0  0  0  0  0  0  0
    5.7659   -5.2666    0.0000 N   0  0  0  0  0  0  0  0  0  0  0  0
    5.1149   -4.5008    0.0000 C   0  0  0  0  0  0  0  0  0  0  0  0
    1.2150   -4.4407    0.0000 C   0  0  0  0  0  0  0  0  0  0  0  0
    0.5730   -5.2075    0.0000 C   0  0  0  0  0  0  0  0  0  0  0  0
   -0.4130   -5.0405    0.0000 C   0  0  0  0  0  0  0  0  0  0  0  0
   -0.7605   -4.0973    0.0000 C   0  0  0  0  0  0  0  0  0  0  0  0
   -0.1220   -3.3210    0.0000 C   0  0  0  0  0  0  0  0  0  0  0  0
    1.7350    0.0000    0.0000 N   0  0  0  0  0  0  0  0  0  0  0  0
  1  2  1  0  0  0  0
  2 25  2  0  0  0  0
  2  3  1  0  0  0  0
  3  4  2  0  0  0  0
  4  5  1  0  0  0  0
  5  6  2  0  0  0  0
  6  7  1  0  0  0  0
  7  8  3  0  0  0  0
  8  9  1  0  0  0  0
  9 24  1  0  0  0  0
  9 10  1  0  0  0  0
 10 11  1  0  0  0  0
 11 12  2  0  0  0  0
 11 13  1  0  0  0  0
 13 14  1  0  0  0  0
 14 19  2  0  0  0  0
 14 15  1  0  0  0  0
 15 16  2  0  0  0  0
 16 17  1  0  0  0  0
 17 18  2  0  0  0  0
 18 19  1  0  0  0  0
  9 20  1  0  0  0  0
 20 21  1  0  0  0  0
 21 22  1  0  0  0  0
 22 23  1  0  0  0  0
 23 24  1  0  0  0  0
  6 25  1  0  0  0  0
M  END
$$$$
CHR-SOS-54d-6
  -OEChem-03232022352D

 23 25  0     0  0  0  0  0  0999 V2000
    2.6010    1.4950    0.0000 O   0  0  0  0  0  0  0  0  0  0  0  0
    2.5995    0.4950    0.0000 C   0  0  0  0  0  0  0  0  0  0  0  0
    3.4648   -0.0063    0.0000 C   0  0  0  0  0  0  0  0  0  0  0  0
    4.3316    0.4925    0.0000 C   0  0  0  0  0  0  0  0  0  0  0  0
    4.6704   -0.4484    0.0000 C   0  0  0  0  0  0  0  0  0  0  0  0
    5.0092   -1.3892    0.0000 C   0  0  0  0  0  0  0  0  0  0  0  0
    5.3480   -2.3301    0.0000 C   0  0  0  0  0  0  0  0  0  0  0  0
    6.3092   -2.6061    0.0000 C   0  0  0  0  0  0  0  0  0  0  0  0
    6.3412   -3.6070    0.0000 N   0  0  0  0  0  0  0  0  0  0  0  0
    5.3997   -3.9491    0.0000 C   0  0  0  0  0  0  0  0  0  0  0  0
    4.7832   -3.1558    0.0000 N   0  0  0  0  0  0  0  0  0  0  0  0
    5.3225    0.6617    0.0000 C   0  0  0  0  0  0  0  0  0  0  0  0
    5.6668    1.6006    0.0000 C   0  0  0  0  0  0  0  0  0  0  0  0
    5.0304    2.3719    0.0000 C   0  0  0  0  0  0  0  0  0  0  0  0
    4.0395    2.2027    0.0000 C   0  0  0  0  0  0  0  0  0  0  0  0
    3.6851    1.2621    0.0000 C   0  0  0  0  0  0  0  0  0  0  0  0
    1.7328   -0.0038    0.0000 N   0  0  0  0  0  0  0  0  0  0  0  0
    0.8675    0.4975    0.0000 C   0  0  0  0  0  0  0  0  0  0  0  0
    0.0000    0.0000    0.0000 C   0  0  0  0  0  0  0  0  0  0  0  0
   -0.8675    0.4975    0.0000 C   0  0  0  0  0  0  0  0  0  0  0  0
   -0.8675    1.5027    0.0000 C   0  0  0  0  0  0  0  0  0  0  0  0
    0.0000    2.0104    0.0000 N   0  0  0  0  0  0  0  0  0  0  0  0
    0.8675    1.5027    0.0000 C   0  0  0  0  0  0  0  0  0  0  0  0
  1  2  2  0  0  0  0
  2  3  1  0  0  0  0
  3  4  1  0  0  0  0
  4 16  1  0  0  0  0
  4  5  1  0  0  0  0
  5  6  3  0  0  0  0
  6  7  1  0  0  0  0
  7 11  1  0  0  0  0
  7  8  2  0  0  0  0
  8  9  1  0  0  0  0
  9 10  1  0  0  0  0
 10 11  2  0  0  0  0
  4 12  1  0  0  0  0
 12 13  1  0  0  0  0
 13 14  1  0  0  0  0
 14 15  1  0  0  0  0
 15 16  1  0  0  0  0
  2 17  1  0  0  0  0
 17 18  1  0  0  0  0
 18 23  2  0  0  0  0
 18 19  1  0  0  0  0
 19 20  2  0  0  0  0
 20 21  1  0  0  0  0
 21 22  2  0  0  0  0
 22 23  1  0  0  0  0
M  END
$$$$
CHR-SOS-54d-7
  -OEChem-03232022352D

 23 25  0     0  0  0  0  0  0999 V2000
    2.6010    1.4950    0.0000 O   0  0  0  0  0  0  0  0  0  0  0  0
    2.5995    0.4950    0.0000 C   0  0  0  0  0  0  0  0  0  0  0  0
    3.4648   -0.0063    0.0000 C   0  0  0  0  0  0  0  0  0  0  0  0
    4.3316    0.4925    0.0000 C   0  0  0  0  0  0  0  0  0  0  0  0
    4.6704   -0.4484    0.0000 C   0  0  0  0  0  0  0  0  0  0  0  0
    5.0092   -1.3892    0.0000 C   0  0  0  0  0  0  0  0  0  0  0  0
    5.3480   -2.3301    0.0000 C   0  0  0  0  0  0  0  0  0  0  0  0
    6.3092   -2.6061    0.0000 C   0  0  0  0  0  0  0  0  0  0  0  0
    6.3412   -3.6070    0.0000 C   0  0  0  0  0  0  0  0  0  0  0  0
    5.3997   -3.9491    0.0000 N   0  0  0  0  0  0  0  0  0  0  0  0
    4.7832   -3.1558    0.0000 N   0  0  0  0  0  0  0  0  0  0  0  0
    5.3225    0.6617    0.0000 C   0  0  0  0  0  0  0  0  0  0  0  0
    5.6668    1.6006    0.0000 C   0  0  0  0  0  0  0  0  0  0  0  0
    5.0304    2.3719    0.0000 C   0  0  0  0  0  0  0  0  0  0  0  0
    4.0395    2.2027    0.0000 C   0  0  0  0  0  0  0  0  0  0  0  0
    3.6851    1.2621    0.0000 C   0  0  0  0  0  0  0  0  0  0  0  0
    1.7328   -0.0038    0.0000 N   0  0  0  0  0  0  0  0  0  0  0  0
    0.8675    0.4975    0.0000 C   0  0  0  0  0  0  0  0  0  0  0  0
    0.0000    0.0000    0.0000 C   0  0  0  0  0  0  0  0  0  0  0  0
   -0.8675    0.4975    0.0000 C   0  0  0  0  0  0  0  0  0  0  0  0
   -0.8675    1.5027    0.0000 C   0  0  0  0  0  0  0  0  0  0  0  0
    0.0000    2.0104    0.0000 N   0  0  0  0  0  0  0  0  0  0  0  0
    0.8675    1.5027    0.0000 C   0  0  0  0  0  0  0  0  0  0  0  0
  1  2  2  0  0  0  0
  2  3  1  0  0  0  0
  3  4  1  0  0  0  0
  4 16  1  0  0  0  0
  4  5  1  0  0  0  0
  5  6  3  0  0  0  0
  6  7  1  0  0  0  0
  7 11  2  0  0  0  0
  7  8  1  0  0  0  0
  8  9  2  0  0  0  0
  9 10  1  0  0  0  0
 10 11  1  0  0  0  0
  4 12  1  0  0  0  0
 12 13  1  0  0  0  0
 13 14  1  0  0  0  0
 14 15  1  0  0  0  0
 15 16  1  0  0  0  0
  2 17  1  0  0  0  0
 17 18  1  0  0  0  0
 18 23  2  0  0  0  0
 18 19  1  0  0  0  0
 19 20  2  0  0  0  0
 20 21  1  0  0  0  0
 21 22  2  0  0  0  0
 22 23  1  0  0  0  0
M  END
$$$$
CHR-SOS-54d-8
  -OEChem-03232022352D

 24 26  0     0  0  0  0  0  0999 V2000
    7.6695   -0.4998    0.0000 C   0  0  0  0  0  0  0  0  0  0  0  0
    6.9764   -1.2206    0.0000 C   0  0  0  0  0  0  0  0  0  0  0  0
    5.9845   -1.0821    0.0000 C   0  0  0  0  0  0  0  0  0  0  0  0
    5.5493   -1.9825    0.0000 C   0  0  0  0  0  0  0  0  0  0  0  0
    4.5646   -2.1567    0.0000 C   0  0  0  0  0  0  0  0  0  0  0  0
    3.5799   -2.3309    0.0000 C   0  0  0  0  0  0  0  0  0  0  0  0
    2.5952   -2.5050    0.0000 C   0  0  0  0  0  0  0  0  0  0  0  0
    2.5966   -1.5050    0.0000 C   0  0  0  0  0  0  0  0  0  0  0  0
    1.7313   -1.0038    0.0000 C   0  0  0  0  0  0  0  0  0  0  0  0
    0.8646   -1.5025    0.0000 O   0  0  0  0  0  0  0  0  0  0  0  0
    1.7328   -0.0038    0.0000 N   0  0  0  0  0  0  0  0  0  0  0  0
    0.8675    0.4975    0.0000 C   0  0  0  0  0  0  0  0  0  0  0  0
    0.0000    0.0000    0.0000 C   0  0  0  0  0  0  0  0  0  0  0  0
   -0.8675    0.4975    0.0000 C   0  0  0  0  0  0  0  0  0  0  0  0
   -0.8675    1.5027    0.0000 C   0  0  0  0  0  0  0  0  0  0  0  0
    0.0000    2.0104    0.0000 N   0  0  0  0  0  0  0  0  0  0  0  0
    0.8675    1.5027    0.0000 C   0  0  0  0  0  0  0  0  0  0  0  0
    1.6059   -2.3271    0.0000 C   0  0  0  0  0  0  0  0  0  0  0  0
    0.9627   -3.0928    0.0000 C   0  0  0  0  0  0  0  0  0  0  0  0
    1.2988   -4.0347    0.0000 C   0  0  0  0  0  0  0  0  0  0  0  0
    2.2881   -4.2126    0.0000 C   0  0  0  0  0  0  0  0  0  0  0  0
    2.9413   -3.4487    0.0000 C   0  0  0  0  0  0  0  0  0  0  0  0
    6.2672   -2.6794    0.0000 N   0  0  0  0  0  0  0  0  0  0  0  0
    7.1536   -2.2064    0.0000 N   0  0  0  0  0  0  0  0  0  0  0  0
  1  2  1  0  0  0  0
  2 24  1  0  0  0  0
  2  3  2  0  0  0  0
  3  4  1  0  0  0  0
  4  5  1  0  0  0  0
  5  6  3  0  0  0  0
  6  7  1  0  0  0  0
  7 22  1  0  0  0  0
  7  8  1  0  0  0  0
  8  9  1  0  0  0  0
  9 10  2  0  0  0  0
  9 11  1  0  0  0  0
 11 12  1  0  0  0  0
 12 17  2  0  0  0  0
 12 13  1  0  0  0  0
 13 14  2  0  0  0  0
 14 15  1  0  0  0  0
 15 16  2  0  0  0  0
 16 17  1  0  0  0  0
  7 18  1  0  0  0  0
 18 19  1  0  0  0  0
 19 20  1  0  0  0  0
 20 21  1  0  0  0  0
 21 22  1  0  0  0  0
  4 23  2  0  0  0  0
 23 24  1  0  0  0  0
M  END
$$$$
JAV-UNI-450-1
  -OEChem-03232022352D

 28 31  0     1  0  0  0  0  0999 V2000
    5.2168    0.9922    0.0000 C   0  0  0  0  0  0  0  0  0  0  0  0
    4.3535    1.4968    0.0000 C   0  0  0  0  0  0  0  0  0  0  0  0
    4.3588    2.4968    0.0000 O   0  0  0  0  0  0  0  0  0  0  0  0
    3.4848    1.0014    0.0000 N   0  0  0  0  0  0  0  0  0  0  0  0
    2.6125    1.5125    0.0000 C   0  0  0  0  0  0  0  0  0  0  0  0
    1.7414    1.0089    0.0000 C   0  0  0  0  0  0  0  0  0  0  0  0
    0.8707    1.5185    0.0000 C   0  0  0  0  0  0  0  0  0  0  0  0
    0.0000    1.0089    0.0000 C   0  0  0  0  0  0  0  0  0  0  0  0
    0.0000    0.0000    0.0000 C   0  0  0  0  0  0  0  0  0  0  0  0
    0.8707   -0.4993    0.0000 C   0  0  0  0  0  0  0  0  0  0  0  0
    1.7371    0.0000    0.0000 C   0  0  0  0  0  0  0  0  0  0  0  0
    2.6039   -0.5053    0.0000 C   0  0  2  0  0  0  0  0  0  0  0  0
    3.7207   -1.8526    0.0000 H   0  0  0  0  0  0  0  0  0  0  0  0
    1.4722   -1.8401    0.0000 C   0  0  0  0  0  0  0  0  0  0  0  0
    1.8139   -2.7854    0.0000 C   0  0  0  0  0  0  0  0  0  0  0  0
    1.1673   -3.5482    0.0000 C   0  0  0  0  0  0  0  0  0  0  0  0
    0.1823   -3.3753    0.0000 C   0  0  0  0  0  0  0  0  0  0  0  0
   -0.1595   -2.4300    0.0000 C   0  0  0  0  0  0  0  0  0  0  0  0
    0.4837   -1.6576    0.0000 C   0  0  0  0  0  0  0  0  0  0  0  0
    3.4805   -0.0073    0.0000 C   0  0  1  0  0  0  0  0  0  0  0  0
    4.4662    0.1613    0.0000 H   0  0  0  0  0  0  0  0  0  0  0  0
    3.8168   -0.9490    0.0000 C   0  0  0  0  0  0  0  0  0  0  0  0
    4.8006   -1.1287    0.0000 C   0  0  0  0  0  0  0  0  0  0  0  0
    5.4491   -0.3674    0.0000 C   0  0  0  0  0  0  0  0  0  0  0  0
    6.4336   -0.5428    0.0000 C   0  0  0  0  0  0  0  0  0  0  0  0
    6.7731   -1.4889    0.0000 C   0  0  0  0  0  0  0  0  0  0  0  0
    6.1280   -2.2598    0.0000 N   0  0  0  0  0  0  0  0  0  0  0  0
    5.1400   -2.0748    0.0000 C   0  0  0  0  0  0  0  0  0  0  0  0
  1  2  1  0  0  0  0
  2  3  2  0  0  0  0
  2  4  1  0  0  0  0
  4 20  1  0  0  0  0
  4  5  1  0  0  0  0
  5  6  1  0  0  0  0
  6 11  2  0  0  0  0
  6  7  1  0  0  0  0
  7  8  2  0  0  0  0
  8  9  1  0  0  0  0
  9 10  2  0  0  0  0
 10 11  1  0  0  0  0
 11 12  1  0  0  0  0
 12 13  1  6  0  0  0
 12 14  1  0  0  0  0
 14 19  2  0  0  0  0
 14 15  1  0  0  0  0
 15 16  2  0  0  0  0
 16 17  1  0  0  0  0
 17 18  2  0  0  0  0
 18 19  1  0  0  0  0
 12 20  1  0  0  0  0
 20 21  1  1  0  0  0
 20 22  1  0  0  0  0
 22 23  1  0  0  0  0
 23 28  2  0  0  0  0
 23 24  1  0  0  0  0
 24 25  2  0  0  0  0
 25 26  1  0  0  0  0
 26 27  2  0  0  0  0
 27 28  1  0  0  0  0
M  END
$$$$
DAR-DIA-43a-1
  -OEChem-03232022352D

 24 26  0     1  0  0  0  0  0999 V2000
   -0.4180   -2.0075    0.0000 N   0  0  0  0  0  0  0  0  0  0  0  0
    0.2498   -2.7518    0.0000 C   0  0  0  0  0  0  0  0  0  0  0  0
   -0.0609   -3.7023    0.0000 O   0  0  0  0  0  0  0  0  0  0  0  0
    1.2283   -2.5456    0.0000 C   0  0  1  0  0  0  0  0  0  0  0  0
    1.3318   -3.5403    0.0000 H   0  0  0  0  0  0  0  0  0  0  0  0
    0.9211   -1.5923    0.0000 C   0  0  0  0  0  0  0  0  0  0  0  0
    1.7313   -1.0038    0.0000 C   0  0  0  0  0  0  0  0  0  0  0  0
    1.7328   -0.0038    0.0000 C   0  0  0  0  0  0  0  0  0  0  0  0
    0.8675    0.4975    0.0000 C   0  0  0  0  0  0  0  0  0  0  0  0
    0.0000    0.0000    0.0000 C   0  0  0  0  0  0  0  0  0  0  0  0
   -0.8675    0.4975    0.0000 C   0  0  0  0  0  0  0  0  0  0  0  0
   -0.8675    1.5027    0.0000 C   0  0  0  0  0  0  0  0  0  0  0  0
    0.0000    2.0104    0.0000 N   0  0  0  0  0  0  0  0  0  0  0  0
    0.8675    1.5027    0.0000 C   0  0  0  0  0  0  0  0  0  0  0  0
    2.5388   -1.5938    0.0000 C   0  0  0  0  0  0  0  0  0  0  0  0
    2.2328   -2.5461    0.0000 C   0  0  1  0  0  0  0  0  0  0  0  0
    2.1290   -3.5407    0.0000 H   0  0  0  0  0  0  0  0  0  0  0  0
    3.2114   -2.7520    0.0000 C   0  0  0  0  0  0  0  0  0  0  0  0
    3.5211   -3.7083    0.0000 C   0  0  0  0  0  0  0  0  0  0  0  0
    4.4997   -3.9143    0.0000 C   0  0  0  0  0  0  0  0  0  0  0  0
    5.1717   -3.1737    0.0000 C   0  0  0  0  0  0  0  0  0  0  0  0
    4.8619   -2.2174    0.0000 C   0  0  0  0  0  0  0  0  0  0  0  0
    5.5339   -1.4768    0.0000 Cl  0  0  0  0  0  0  0  0  0  0  0  0
    3.8802   -2.0017    0.0000 C   0  0  0  0  0  0  0  0  0  0  0  0
  1  2  1  0  0  0  0
  2  3  2  0  0  0  0
  2  4  1  0  0  0  0
  4  5  1  6  0  0  0
  4 16  1  0  0  0  0
  4  6  1  0  0  0  0
  6  7  1  0  0  0  0
  7  8  1  0  0  0  0
  8  9  1  0  0  0  0
  9 14  2  0  0  0  0
  9 10  1  0  0  0  0
 10 11  2  0  0  0  0
 11 12  1  0  0  0  0
 12 13  2  0  0  0  0
 13 14  1  0  0  0  0
  7 15  2  0  0  0  0
 15 16  1  0  0  0  0
 16 17  1  6  0  0  0
 16 18  1  0  0  0  0
 18 24  2  0  0  0  0
 18 19  1  0  0  0  0
 19 20  2  0  0  0  0
 20 21  1  0  0  0  0
 21 22  2  0  0  0  0
 22 23  1  0  0  0  0
 22 24  1  0  0  0  0
M  END
$$$$
DAR-DIA-43a-2
  -OEChem-03232022352D

 24 26  0     1  0  0  0  0  0999 V2000
   -0.4180   -2.0075    0.0000 N   0  0  0  0  0  0  0  0  0  0  0  0
    0.2498   -2.7518    0.0000 C   0  0  0  0  0  0  0  0  0  0  0  0
   -0.0609   -3.7023    0.0000 O   0  0  0  0  0  0  0  0  0  0  0  0
    1.2283   -2.5456    0.0000 C   0  0  1  0  0  0  0  0  0  0  0  0
    1.3318   -3.5403    0.0000 H   0  0  0  0  0  0  0  0  0  0  0  0
    0.9211   -1.5923    0.0000 C   0  0  0  0  0  0  0  0  0  0  0  0
    1.7313   -1.0038    0.0000 C   0  0  0  0  0  0  0  0  0  0  0  0
    1.7328   -0.0038    0.0000 C   0  0  0  0  0  0  0  0  0  0  0  0
    0.8675    0.4975    0.0000 C   0  0  0  0  0  0  0  0  0  0  0  0
    0.0000    0.0000    0.0000 C   0  0  0  0  0  0  0  0  0  0  0  0
   -0.8675    0.4975    0.0000 C   0  0  0  0  0  0  0  0  0  0  0  0
   -0.8675    1.5027    0.0000 C   0  0  0  0  0  0  0  0  0  0  0  0
    0.0000    2.0104    0.0000 N   0  0  0  0  0  0  0  0  0  0  0  0
    0.8675    1.5027    0.0000 C   0  0  0  0  0  0  0  0  0  0  0  0
    2.5388   -1.5938    0.0000 C   0  0  0  0  0  0  0  0  0  0  0  0
    2.2328   -2.5461    0.0000 C   0  0  1  0  0  0  0  0  0  0  0  0
    2.1290   -3.5407    0.0000 H   0  0  0  0  0  0  0  0  0  0  0  0
    3.2114   -2.7520    0.0000 C   0  0  0  0  0  0  0  0  0  0  0  0
    3.5211   -3.7083    0.0000 C   0  0  0  0  0  0  0  0  0  0  0  0
    4.4997   -3.9143    0.0000 C   0  0  0  0  0  0  0  0  0  0  0  0
    5.1717   -3.1737    0.0000 C   0  0  0  0  0  0  0  0  0  0  0  0
    4.8619   -2.2174    0.0000 C   0  0  0  0  0  0  0  0  0  0  0  0
    5.5339   -1.4768    0.0000 Br  0  0  0  0  0  0  0  0  0  0  0  0
    3.8802   -2.0017    0.0000 C   0  0  0  0  0  0  0  0  0  0  0  0
  1  2  1  0  0  0  0
  2  3  2  0  0  0  0
  2  4  1  0  0  0  0
  4  5  1  6  0  0  0
  4 16  1  0  0  0  0
  4  6  1  0  0  0  0
  6  7  1  0  0  0  0
  7  8  1  0  0  0  0
  8  9  1  0  0  0  0
  9 14  2  0  0  0  0
  9 10  1  0  0  0  0
 10 11  2  0  0  0  0
 11 12  1  0  0  0  0
 12 13  2  0  0  0  0
 13 14  1  0  0  0  0
  7 15  2  0  0  0  0
 15 16  1  0  0  0  0
 16 17  1  6  0  0  0
 16 18  1  0  0  0  0
 18 24  2  0  0  0  0
 18 19  1  0  0  0  0
 19 20  2  0  0  0  0
 20 21  1  0  0  0  0
 21 22  2  0  0  0  0
 22 23  1  0  0  0  0
 22 24  1  0  0  0  0
M  END
$$$$
DAR-DIA-43a-3
  -OEChem-03232022352D

 24 26  0     1  0  0  0  0  0999 V2000
   -0.4180   -2.0075    0.0000 N   0  0  0  0  0  0  0  0  0  0  0  0
    0.2498   -2.7518    0.0000 C   0  0  0  0  0  0  0  0  0  0  0  0
   -0.0609   -3.7023    0.0000 O   0  0  0  0  0  0  0  0  0  0  0  0
    1.2283   -2.5456    0.0000 C   0  0  1  0  0  0  0  0  0  0  0  0
    1.3318   -3.5403    0.0000 H   0  0  0  0  0  0  0  0  0  0  0  0
    0.9211   -1.5923    0.0000 C   0  0  0  0  0  0  0  0  0  0  0  0
    1.7313   -1.0038    0.0000 C   0  0  0  0  0  0  0  0  0  0  0  0
    1.7328   -0.0038    0.0000 C   0  0  0  0  0  0  0  0  0  0  0  0
    0.8675    0.4975    0.0000 C   0  0  0  0  0  0  0  0  0  0  0  0
    0.0000    0.0000    0.0000 C   0  0  0  0  0  0  0  0  0  0  0  0
   -0.8675    0.4975    0.0000 C   0  0  0  0  0  0  0  0  0  0  0  0
   -0.8675    1.5027    0.0000 C   0  0  0  0  0  0  0  0  0  0  0  0
    0.0000    2.0104    0.0000 N   0  0  0  0  0  0  0  0  0  0  0  0
    0.8675    1.5027    0.0000 C   0  0  0  0  0  0  0  0  0  0  0  0
    2.5388   -1.5938    0.0000 C   0  0  0  0  0  0  0  0  0  0  0  0
    2.2328   -2.5461    0.0000 C   0  0  1  0  0  0  0  0  0  0  0  0
    2.1290   -3.5407    0.0000 H   0  0  0  0  0  0  0  0  0  0  0  0
    3.2114   -2.7520    0.0000 C   0  0  0  0  0  0  0  0  0  0  0  0
    3.5211   -3.7083    0.0000 C   0  0  0  0  0  0  0  0  0  0  0  0
    4.4997   -3.9143    0.0000 C   0  0  0  0  0  0  0  0  0  0  0  0
    5.1717   -3.1737    0.0000 C   0  0  0  0  0  0  0  0  0  0  0  0
    4.8619   -2.2174    0.0000 C   0  0  0  0  0  0  0  0  0  0  0  0
    5.5339   -1.4768    0.0000 I   0  0  0  0  0  0  0  0  0  0  0  0
    3.8802   -2.0017    0.0000 C   0  0  0  0  0  0  0  0  0  0  0  0
  1  2  1  0  0  0  0
  2  3  2  0  0  0  0
  2  4  1  0  0  0  0
  4  5  1  6  0  0  0
  4 16  1  0  0  0  0
  4  6  1  0  0  0  0
  6  7  1  0  0  0  0
  7  8  1  0  0  0  0
  8  9  1  0  0  0  0
  9 14  2  0  0  0  0
  9 10  1  0  0  0  0
 10 11  2  0  0  0  0
 11 12  1  0  0  0  0
 12 13  2  0  0  0  0
 13 14  1  0  0  0  0
  7 15  2  0  0  0  0
 15 16  1  0  0  0  0
 16 17  1  6  0  0  0
 16 18  1  0  0  0  0
 18 24  2  0  0  0  0
 18 19  1  0  0  0  0
 19 20  2  0  0  0  0
 20 21  1  0  0  0  0
 21 22  2  0  0  0  0
 22 23  1  0  0  0  0
 22 24  1  0  0  0  0
M  END
$$$$
DAR-DIA-43a-4
  -OEChem-03232022352D

 27 29  0     1  0  0  0  0  0999 V2000
   -0.4180   -2.0075    0.0000 N   0  0  0  0  0  0  0  0  0  0  0  0
    0.2498   -2.7518    0.0000 C   0  0  0  0  0  0  0  0  0  0  0  0
   -0.0609   -3.7023    0.0000 O   0  0  0  0  0  0  0  0  0  0  0  0
    1.2283   -2.5456    0.0000 C   0  0  1  0  0  0  0  0  0  0  0  0
    1.3318   -3.5403    0.0000 H   0  0  0  0  0  0  0  0  0  0  0  0
    0.9211   -1.5923    0.0000 C   0  0  0  0  0  0  0  0  0  0  0  0
    1.7313   -1.0038    0.0000 C   0  0  0  0  0  0  0  0  0  0  0  0
    1.7328   -0.0038    0.0000 C   0  0  0  0  0  0  0  0  0  0  0  0
    0.8675    0.4975    0.0000 C   0  0  0  0  0  0  0  0  0  0  0  0
    0.0000    0.0000    0.0000 C   0  0  0  0  0  0  0  0  0  0  0  0
   -0.8675    0.4975    0.0000 C   0  0  0  0  0  0  0  0  0  0  0  0
   -0.8675    1.5027    0.0000 C   0  0  0  0  0  0  0  0  0  0  0  0
    0.0000    2.0104    0.0000 N   0  0  0  0  0  0  0  0  0  0  0  0
    0.8675    1.5027    0.0000 C   0  0  0  0  0  0  0  0  0  0  0  0
    2.5388   -1.5938    0.0000 C   0  0  0  0  0  0  0  0  0  0  0  0
    2.2328   -2.5461    0.0000 C   0  0  1  0  0  0  0  0  0  0  0  0
    2.1290   -3.5407    0.0000 H   0  0  0  0  0  0  0  0  0  0  0  0
    3.2114   -2.7520    0.0000 C   0  0  0  0  0  0  0  0  0  0  0  0
    3.5211   -3.7083    0.0000 C   0  0  0  0  0  0  0  0  0  0  0  0
    4.4997   -3.9143    0.0000 C   0  0  0  0  0  0  0  0  0  0  0  0
    5.1717   -3.1737    0.0000 C   0  0  0  0  0  0  0  0  0  0  0  0
    4.8619   -2.2174    0.0000 C   0  0  0  0  0  0  0  0  0  0  0  0
    5.5339   -1.4768    0.0000 C   0  0  0  0  0  0  0  0  0  0  0  0
    4.7934   -0.8048    0.0000 F   0  0  0  0  0  0  0  0  0  0  0  0
    6.2745   -2.1488    0.0000 F   0  0  0  0  0  0  0  0  0  0  0  0
    6.2059   -0.7363    0.0000 F   0  0  0  0  0  0  0  0  0  0  0  0
    3.8802   -2.0017    0.0000 C   0  0  0  0  0  0  0  0  0  0  0  0
  1  2  1  0  0  0  0
  2  3  2  0  0  0  0
  2  4  1  0  0  0  0
  4  5  1  6  0  0  0
  4 16  1  0  0  0  0
  4  6  1  0  0  0  0
  6  7  1  0  0  0  0
  7  8  1  0  0  0  0
  8  9  1  0  0  0  0
  9 14  2  0  0  0  0
  9 10  1  0  0  0  0
 10 11  2  0  0  0  0
 11 12  1  0  0  0  0
 12 13  2  0  0  0  0
 13 14  1  0  0  0  0
  7 15  2  0  0  0  0
 15 16  1  0  0  0  0
 16 17  1  6  0  0  0
 16 18  1  0  0  0  0
 18 27  2  0  0  0  0
 18 19  1  0  0  0  0
 19 20  2  0  0  0  0
 20 21  1  0  0  0  0
 21 22  2  0  0  0  0
 22 23  1  0  0  0  0
 23 24  1  0  0  0  0
 23 25  1  0  0  0  0
 23 26  1  0  0  0  0
 22 27  1  0  0  0  0
M  END
$$$$
DAR-DIA-43a-5
  -OEChem-03232022352D

 25 27  0     1  0  0  0  0  0999 V2000
    4.2562   -3.8569    0.0000 N   0  0  0  0  0  0  0  0  0  0  0  0
    3.9453   -2.9065    0.0000 C   0  0  0  0  0  0  0  0  0  0  0  0
    4.6129   -2.1620    0.0000 O   0  0  0  0  0  0  0  0  0  0  0  0
    2.2328   -2.5461    0.0000 C   0  0  1  0  0  0  0  0  0  0  0  0
    2.1290   -3.5407    0.0000 H   0  0  0  0  0  0  0  0  0  0  0  0
    2.5388   -1.5938    0.0000 C   0  0  3  0  0  0  0  0  0  0  0  0
    3.4897   -1.2845    0.0000 O   0  0  0  0  0  0  0  0  0  0  0  0
    1.7313   -1.0038    0.0000 C   0  0  0  0  0  0  0  0  0  0  0  0
    1.7328   -0.0038    0.0000 C   0  0  0  0  0  0  0  0  0  0  0  0
    0.8675    0.4975    0.0000 C   0  0  0  0  0  0  0  0  0  0  0  0
    0.0000    0.0000    0.0000 C   0  0  0  0  0  0  0  0  0  0  0  0
   -0.8675    0.4975    0.0000 C   0  0  0  0  0  0  0  0  0  0  0  0
   -0.8675    1.5027    0.0000 C   0  0  0  0  0  0  0  0  0  0  0  0
    0.0000    2.0104    0.0000 N   0  0  0  0  0  0  0  0  0  0  0  0
    0.8675    1.5027    0.0000 C   0  0  0  0  0  0  0  0  0  0  0  0
    0.9211   -1.5923    0.0000 C   0  0  0  0  0  0  0  0  0  0  0  0
    1.2283   -2.5456    0.0000 C   0  0  1  0  0  0  0  0  0  0  0  0
    1.3318   -3.5403    0.0000 H   0  0  0  0  0  0  0  0  0  0  0  0
    0.2498   -2.7518    0.0000 C   0  0  0  0  0  0  0  0  0  0  0  0
   -0.4192   -2.0016    0.0000 C   0  0  0  0  0  0  0  0  0  0  0  0
   -1.3978   -2.2078    0.0000 C   0  0  0  0  0  0  0  0  0  0  0  0
   -1.7141   -3.1565    0.0000 C   0  0  0  0  0  0  0  0  0  0  0  0
   -1.0450   -3.9066    0.0000 C   0  0  0  0  0  0  0  0  0  0  0  0
   -1.3613   -4.8553    0.0000 Cl  0  0  0  0  0  0  0  0  0  0  0  0
   -0.0596   -3.7081    0.0000 C   0  0  0  0  0  0  0  0  0  0  0  0
  1  2  1  0  0  0  0
  2  3  2  0  0  0  0
  2  4  1  0  0  0  0
  4  5  1  1  0  0  0
  4 17  1  0  0  0  0
  4  6  1  0  0  0  0
  6  7  1  0  0  0  0
  6  8  1  0  0  0  0
  8  9  1  0  0  0  0
  9 10  1  0  0  0  0
 10 15  2  0  0  0  0
 10 11  1  0  0  0  0
 11 12  2  0  0  0  0
 12 13  1  0  0  0  0
 13 14  2  0  0  0  0
 14 15  1  0  0  0  0
  8 16  2  0  0  0  0
 16 17  1  0  0  0  0
 17 18  1  1  0  0  0
 17 19  1  0  0  0  0
 19 25  2  0  0  0  0
 19 20  1  0  0  0  0
 20 21  2  0  0  0  0
 21 22  1  0  0  0  0
 22 23  2  0  0  0  0
 23 24  1  0  0  0  0
 23 25  1  0  0  0  0
M  END
$$$$
DAR-DIA-43a-6
  -OEChem-03232022352D

 26 28  0     1  0  0  0  0  0999 V2000
    1.1380   -4.6941    0.0000 N   0  0  0  0  0  0  0  0  0  0  0  0
    2.0512   -4.2867    0.0000 C   0  0  0  0  0  0  0  0  0  0  0  0
    2.8607   -4.8738    0.0000 O   0  0  0  0  0  0  0  0  0  0  0  0
    2.2328   -2.5461    0.0000 C   0  0  1  0  0  0  0  0  0  0  0  0
    3.2114   -2.7520    0.0000 H   0  0  0  0  0  0  0  0  0  0  0  0
    1.2283   -2.5456    0.0000 C   0  0  1  0  0  0  0  0  0  0  0  0
    1.3318   -3.5403    0.0000 H   0  0  0  0  0  0  0  0  0  0  0  0
    0.2498   -2.7518    0.0000 C   0  0  0  0  0  0  0  0  0  0  0  0
   -0.4192   -2.0016    0.0000 C   0  0  0  0  0  0  0  0  0  0  0  0
   -1.3978   -2.2078    0.0000 C   0  0  0  0  0  0  0  0  0  0  0  0
   -1.7141   -3.1565    0.0000 C   0  0  0  0  0  0  0  0  0  0  0  0
   -1.0450   -3.9066    0.0000 C   0  0  0  0  0  0  0  0  0  0  0  0
   -1.3613   -4.8553    0.0000 Cl  0  0  0  0  0  0  0  0  0  0  0  0
   -0.0596   -3.7081    0.0000 C   0  0  0  0  0  0  0  0  0  0  0  0
    0.9211   -1.5923    0.0000 C   0  0  0  0  0  0  0  0  0  0  0  0
    1.7313   -1.0038    0.0000 C   0  0  0  0  0  0  0  0  0  0  0  0
    1.7328   -0.0038    0.0000 C   0  0  0  0  0  0  0  0  0  0  0  0
    0.8675    0.4975    0.0000 C   0  0  0  0  0  0  0  0  0  0  0  0
    0.0000    0.0000    0.0000 C   0  0  0  0  0  0  0  0  0  0  0  0
   -0.8675    0.4975    0.0000 C   0  0  0  0  0  0  0  0  0  0  0  0
   -0.8675    1.5027    0.0000 C   0  0  0  0  0  0  0  0  0  0  0  0
    0.0000    2.0104    0.0000 N   0  0  0  0  0  0  0  0  0  0  0  0
    0.8675    1.5027    0.0000 C   0  0  0  0  0  0  0  0  0  0  0  0
    2.5388   -1.5938    0.0000 C   0  0  2  0  0  0  0  0  0  0  0  0
    3.4528   -1.9994    0.0000 H   0  0  0  0  0  0  0  0  0  0  0  0
    3.0394   -0.7282    0.0000 O   0  0  0  0  0  0  0  0  0  0  0  0
  1  2  1  0  0  0  0
  2  3  2  0  0  0  0
  2  4  1  0  0  0  0
  4  5  1  6  0  0  0
  4 24  1  0  0  0  0
  4  6  1  0  0  0  0
  6  7  1  6  0  0  0
  6  8  1  0  0  0  0
  8 14  2  0  0  0  0
  8  9  1  0  0  0  0
  9 10  2  0  0  0  0
 10 11  1  0  0  0  0
 11 12  2  0  0  0  0
 12 13  1  0  0  0  0
 12 14  1  0  0  0  0
  6 15  1  0  0  0  0
 15 16  2  0  0  0  0
 16 17  1  0  0  0  0
 17 18  1  0  0  0  0
 18 23  2  0  0  0  0
 18 19  1  0  0  0  0
 19 20  2  0  0  0  0
 20 21  1  0  0  0  0
 21 22  2  0  0  0  0
 22 23  1  0  0  0  0
 16 24  1  0  0  0  0
 24 25  1  1  0  0  0
 24 26  1  0  0  0  0
M  END
$$$$
DAR-DIA-43a-7
  -OEChem-03232022352D

 24 26  0     1  0  0  0  0  0999 V2000
    2.3906   -0.8653    0.0000 N   0  0  0  0  0  0  0  0  0  0  0  0
    3.3694   -0.6606    0.0000 C   0  0  0  0  0  0  0  0  0  0  0  0
    4.0361   -1.4059    0.0000 O   0  0  0  0  0  0  0  0  0  0  0  0
    3.6815    0.2894    0.0000 C   0  0  1  0  0  0  0  0  0  0  0  0
    4.5940   -0.1197    0.0000 H   0  0  0  0  0  0  0  0  0  0  0  0
    2.7026    0.5015    0.0000 C   0  0  0  0  0  0  0  0  0  0  0  0
    2.5995    1.4976    0.0000 C   0  0  0  0  0  0  0  0  0  0  0  0
    1.7350    2.0001    0.0000 C   0  0  0  0  0  0  0  0  0  0  0  0
    0.8675    1.5027    0.0000 C   0  0  0  0  0  0  0  0  0  0  0  0
    0.8675    0.4975    0.0000 C   0  0  0  0  0  0  0  0  0  0  0  0
    0.0000    0.0000    0.0000 C   0  0  0  0  0  0  0  0  0  0  0  0
   -0.8675    0.4975    0.0000 C   0  0  0  0  0  0  0  0  0  0  0  0
   -0.8675    1.5027    0.0000 C   0  0  0  0  0  0  0  0  0  0  0  0
    0.0000    2.0104    0.0000 C   0  0  0  0  0  0  0  0  0  0  0  0
    3.5148    1.9004    0.0000 C   0  0  0  0  0  0  0  0  0  0  0  0
    4.1855    1.1583    0.0000 C   0  0  1  0  0  0  0  0  0  0  0  0
    4.9941    0.5699    0.0000 H   0  0  0  0  0  0  0  0  0  0  0  0
    4.8542    1.9018    0.0000 C   0  0  0  0  0  0  0  0  0  0  0  0
    5.8369    1.6904    0.0000 C   0  0  0  0  0  0  0  0  0  0  0  0
    6.5057    2.4339    0.0000 C   0  0  0  0  0  0  0  0  0  0  0  0
    6.2018    3.3867    0.0000 C   0  0  0  0  0  0  0  0  0  0  0  0
    5.2190    3.5980    0.0000 C   0  0  0  0  0  0  0  0  0  0  0  0
    4.9151    4.5507    0.0000 Cl  0  0  0  0  0  0  0  0  0  0  0  0
    4.5403    2.8567    0.0000 C   0  0  0  0  0  0  0  0  0  0  0  0
  1  2  1  0  0  0  0
  2  3  2  0  0  0  0
  2  4  1  0  0  0  0
  4  5  1  6  0  0  0
  4 16  1  0  0  0  0
  4  6  1  0  0  0  0
  6  7  1  0  0  0  0
  7  8  1  0  0  0  0
  8  9  1  0  0  0  0
  9 14  2  0  0  0  0
  9 10  1  0  0  0  0
 10 11  2  0  0  0  0
 11 12  1  0  0  0  0
 12 13  2  0  0  0  0
 13 14  1  0  0  0  0
  7 15  2  0  0  0  0
 15 16  1  0  0  0  0
 16 17  1  6  0  0  0
 16 18  1  0  0  0  0
 18 24  2  0  0  0  0
 18 19  1  0  0  0  0
 19 20  2  0  0  0  0
 20 21  1  0  0  0  0
 21 22  2  0  0  0  0
 22 23  1  0  0  0  0
 22 24  1  0  0  0  0
M  END
$$$$
DAR-DIA-43a-8
  -OEChem-03232022352D

 23 25  0     1  0  0  0  0  0999 V2000
    0.4249    3.6708    0.0000 N   0  0  0  0  0  0  0  0  0  0  0  0
   -0.3841    4.2585    0.0000 C   0  0  0  0  0  0  0  0  0  0  0  0
   -0.2797    5.2530    0.0000 O   0  0  0  0  0  0  0  0  0  0  0  0
   -1.2976    3.8516    0.0000 C   0  0  1  0  0  0  0  0  0  0  0  0
   -1.6074    4.8024    0.0000 H   0  0  0  0  0  0  0  0  0  0  0  0
   -0.7973    2.9839    0.0000 C   0  0  0  0  0  0  0  0  0  0  0  0
   -1.4660    2.2386    0.0000 C   0  0  0  0  0  0  0  0  0  0  0  0
   -1.2577    1.2605    0.0000 C   0  0  0  0  0  0  0  0  0  0  0  0
   -0.3065    0.9519    0.0000 C   0  0  0  0  0  0  0  0  0  0  0  0
    0.0000    0.0000    0.0000 C   0  0  0  0  0  0  0  0  0  0  0  0
    1.0015   -0.0000    0.0000 N   0  0  0  0  0  0  0  0  0  0  0  0
    1.3133    0.9519    0.0000 C   0  0  0  0  0  0  0  0  0  0  0  0
    0.5008    1.5428    0.0000 S   0  0  0  0  0  0  0  0  0  0  0  0
   -2.3792    2.6461    0.0000 C   0  0  0  0  0  0  0  0  0  0  0  0
   -2.2798    3.6414    0.0000 C   0  0  1  0  0  0  0  0  0  0  0  0
   -2.3870    4.6357    0.0000 H   0  0  0  0  0  0  0  0  0  0  0  0
   -3.2798    3.6375    0.0000 C   0  0  0  0  0  0  0  0  0  0  0  0
   -3.7833    4.5075    0.0000 C   0  0  0  0  0  0  0  0  0  0  0  0
   -4.7833    4.5037    0.0000 C   0  0  0  0  0  0  0  0  0  0  0  0
   -5.2850    3.6386    0.0000 C   0  0  0  0  0  0  0  0  0  0  0  0
   -4.7815    2.7685    0.0000 C   0  0  0  0  0  0  0  0  0  0  0  0
   -5.2833    1.9035    0.0000 Cl  0  0  0  0  0  0  0  0  0  0  0  0
   -3.7764    2.7636    0.0000 C   0  0  0  0  0  0  0  0  0  0  0  0
  1  2  1  0  0  0  0
  2  3  2  0  0  0  0
  2  4  1  0  0  0  0
  4  5  1  6  0  0  0
  4 15  1  0  0  0  0
  4  6  1  0  0  0  0
  6  7  1  0  0  0  0
  7  8  1  0  0  0  0
  8  9  1  0  0  0  0
  9 13  1  0  0  0  0
  9 10  2  0  0  0  0
 10 11  1  0  0  0  0
 11 12  2  0  0  0  0
 12 13  1  0  0  0  0
  7 14  2  0  0  0  0
 14 15  1  0  0  0  0
 15 16  1  6  0  0  0
 15 17  1  0  0  0  0
 17 23  2  0  0  0  0
 17 18  1  0  0  0  0
 18 19  2  0  0  0  0
 19 20  1  0  0  0  0
 20 21  2  0  0  0  0
 21 22  1  0  0  0  0
 21 23  1  0  0  0  0
M  END
$$$$
DAR-DIA-43a-9
  -OEChem-03232022352D

 23 25  0     1  0  0  0  0  0999 V2000
    0.4249    3.6708    0.0000 N   0  0  0  0  0  0  0  0  0  0  0  0
   -0.3841    4.2585    0.0000 C   0  0  0  0  0  0  0  0  0  0  0  0
   -0.2797    5.2530    0.0000 O   0  0  0  0  0  0  0  0  0  0  0  0
   -1.2976    3.8516    0.0000 C   0  0  1  0  0  0  0  0  0  0  0  0
   -1.6074    4.8024    0.0000 H   0  0  0  0  0  0  0  0  0  0  0  0
   -0.7973    2.9839    0.0000 C   0  0  0  0  0  0  0  0  0  0  0  0
   -1.4660    2.2386    0.0000 C   0  0  0  0  0  0  0  0  0  0  0  0
   -1.2577    1.2605    0.0000 C   0  0  0  0  0  0  0  0  0  0  0  0
   -0.3065    0.9519    0.0000 C   0  0  0  0  0  0  0  0  0  0  0  0
    0.0000    0.0000    0.0000 C   0  0  0  0  0  0  0  0  0  0  0  0
    1.0015   -0.0000    0.0000 N   0  0  0  0  0  0  0  0  0  0  0  0
    1.3133    0.9519    0.0000 C   0  0  0  0  0  0  0  0  0  0  0  0
    0.5008    1.5428    0.0000 O   0  0  0  0  0  0  0  0  0  0  0  0
   -2.3792    2.6461    0.0000 C   0  0  0  0  0  0  0  0  0  0  0  0
   -2.2798    3.6414    0.0000 C   0  0  1  0  0  0  0  0  0  0  0  0
   -2.3870    4.6357    0.0000 H   0  0  0  0  0  0  0  0  0  0  0  0
   -3.2798    3.6375    0.0000 C   0  0  0  0  0  0  0  0  0  0  0  0
   -3.7833    4.5075    0.0000 C   0  0  0  0  0  0  0  0  0  0  0  0
   -4.7833    4.5037    0.0000 C   0  0  0  0  0  0  0  0  0  0  0  0
   -5.2850    3.6386    0.0000 C   0  0  0  0  0  0  0  0  0  0  0  0
   -4.7815    2.7685    0.0000 C   0  0  0  0  0  0  0  0  0  0  0  0
   -5.2833    1.9035    0.0000 Cl  0  0  0  0  0  0  0  0  0  0  0  0
   -3.7764    2.7636    0.0000 C   0  0  0  0  0  0  0  0  0  0  0  0
  1  2  1  0  0  0  0
  2  3  2  0  0  0  0
  2  4  1  0  0  0  0
  4  5  1  6  0  0  0
  4 15  1  0  0  0  0
  4  6  1  0  0  0  0
  6  7  1  0  0  0  0
  7  8  1  0  0  0  0
  8  9  1  0  0  0  0
  9 13  1  0  0  0  0
  9 10  2  0  0  0  0
 10 11  1  0  0  0  0
 11 12  2  0  0  0  0
 12 13  1  0  0  0  0
  7 14  2  0  0  0  0
 14 15  1  0  0  0  0
 15 16  1  6  0  0  0
 15 17  1  0  0  0  0
 17 23  2  0  0  0  0
 17 18  1  0  0  0  0
 18 19  2  0  0  0  0
 19 20  1  0  0  0  0
 20 21  2  0  0  0  0
 21 22  1  0  0  0  0
 21 23  1  0  0  0  0
M  END
$$$$
DAR-DIA-43a-10
  -OEChem-03232022352D

 21 23  0     1  0  0  0  0  0999 V2000
   -4.0908    3.3294    0.0000 N   0  0  0  0  0  0  0  0  0  0  0  0
   -3.6848    2.4155    0.0000 C   0  0  0  0  0  0  0  0  0  0  0  0
   -4.2733    1.6070    0.0000 O   0  0  0  0  0  0  0  0  0  0  0  0
   -2.6904    2.3101    0.0000 C   0  0  1  0  0  0  0  0  0  0  0  0
   -2.8985    1.3320    0.0000 H   0  0  0  0  0  0  0  0  0  0  0  0
   -2.6889    3.3118    0.0000 C   0  0  0  0  0  0  0  0  0  0  0  0
   -1.7368    3.6220    0.0000 C   0  0  0  0  0  0  0  0  0  0  0  0
   -1.4272    4.5729    0.0000 C   0  0  0  0  0  0  0  0  0  0  0  0
   -2.0960    5.3164    0.0000 C   0  0  0  0  0  0  0  0  0  0  0  0
   -2.3048    6.2962    0.0000 C   0  0  0  0  0  0  0  0  0  0  0  0
   -3.0483    5.6275    0.0000 C   0  0  0  0  0  0  0  0  0  0  0  0
   -1.1505    2.8118    0.0000 C   0  0  0  0  0  0  0  0  0  0  0  0
   -1.7350    2.0001    0.0000 C   0  0  1  0  0  0  0  0  0  0  0  0
   -2.1402    1.0859    0.0000 H   0  0  0  0  0  0  0  0  0  0  0  0
   -0.8675    1.5027    0.0000 C   0  0  0  0  0  0  0  0  0  0  0  0
   -0.8675    0.4975    0.0000 C   0  0  0  0  0  0  0  0  0  0  0  0
    0.0000    0.0000    0.0000 C   0  0  0  0  0  0  0  0  0  0  0  0
    0.8675    0.4975    0.0000 C   0  0  0  0  0  0  0  0  0  0  0  0
    0.8675    1.5027    0.0000 C   0  0  0  0  0  0  0  0  0  0  0  0
    1.7350    2.0001    0.0000 Cl  0  0  0  0  0  0  0  0  0  0  0  0
   -0.0000    2.0104    0.0000 C   0  0  0  0  0  0  0  0  0  0  0  0
  1  2  1  0  0  0  0
  2  3  2  0  0  0  0
  2  4  1  0  0  0  0
  4  5  1  6  0  0  0
  4 13  1  0  0  0  0
  4  6  1  0  0  0  0
  6  7  1  0  0  0  0
  7  8  1  0  0  0  0
  8  9  1  0  0  0  0
  9 11  1  0  0  0  0
  9 10  1  0  0  0  0
 10 11  1  0  0  0  0
  7 12  2  0  0  0  0
 12 13  1  0  0  0  0
 13 14  1  6  0  0  0
 13 15  1  0  0  0  0
 15 21  2  0  0  0  0
 15 16  1  0  0  0  0
 16 17  2  0  0  0  0
 17 18  1  0  0  0  0
 18 19  2  0  0  0  0
 19 20  1  0  0  0  0
 19 21  1  0  0  0  0
M  END
$$$$
DAR-DIA-43a-11
  -OEChem-03232022352D

 24 26  0     1  0  0  0  0  0999 V2000
    2.2648    1.2596    0.0000 C   0  0  0  0  0  0  0  0  0  0  0  0
    1.3133    0.9519    0.0000 N   0  0  0  0  0  0  0  0  0  0  0  0
    1.0015    0.0000    0.0000 C   0  0  0  0  0  0  0  0  0  0  0  0
    0.0000    0.0000    0.0000 C   0  0  0  0  0  0  0  0  0  0  0  0
   -0.5889   -0.8082    0.0000 C   0  0  0  0  0  0  0  0  0  0  0  0
   -0.1833   -1.7223    0.0000 C   0  0  0  0  0  0  0  0  0  0  0  0
   -0.6840   -2.5896    0.0000 C   0  0  0  0  0  0  0  0  0  0  0  0
   -0.0155   -3.3354    0.0000 C   0  0  1  0  0  0  0  0  0  0  0  0
    0.4836   -4.2020    0.0000 H   0  0  0  0  0  0  0  0  0  0  0  0
   -0.8255   -3.9219    0.0000 C   0  0  0  0  0  0  0  0  0  0  0  0
   -1.7419   -3.5088    0.0000 C   0  0  0  0  0  0  0  0  0  0  0  0
   -2.5519   -4.0953    0.0000 C   0  0  0  0  0  0  0  0  0  0  0  0
   -2.4549   -5.0906    0.0000 C   0  0  0  0  0  0  0  0  0  0  0  0
   -1.5385   -5.5036    0.0000 C   0  0  0  0  0  0  0  0  0  0  0  0
   -1.4414   -6.4989    0.0000 Cl  0  0  0  0  0  0  0  0  0  0  0  0
   -0.7191   -4.9214    0.0000 C   0  0  0  0  0  0  0  0  0  0  0  0
    0.9022   -2.9272    0.0000 C   0  0  1  0  0  0  0  0  0  0  0  0
    1.2121   -3.8780    0.0000 H   0  0  0  0  0  0  0  0  0  0  0  0
    1.8799   -2.7172    0.0000 C   0  0  0  0  0  0  0  0  0  0  0  0
    2.1869   -1.7655    0.0000 N   0  0  0  0  0  0  0  0  0  0  0  0
    2.5507   -3.4589    0.0000 O   0  0  0  0  0  0  0  0  0  0  0  0
    0.7943   -1.9328    0.0000 C   0  0  0  0  0  0  0  0  0  0  0  0
   -0.3065    0.9519    0.0000 C   0  0  0  0  0  0  0  0  0  0  0  0
    0.5008    1.5428    0.0000 N   0  0  0  0  0  0  0  0  0  0  0  0
  1  2  1  0  0  0  0
  2 24  1  0  0  0  0
  2  3  1  0  0  0  0
  3  4  2  0  0  0  0
  4  5  1  0  0  0  0
  5  6  1  0  0  0  0
  6 22  1  0  0  0  0
  6  7  2  0  0  0  0
  7  8  1  0  0  0  0
  8  9  1  1  0  0  0
  8 10  1  0  0  0  0
 10 16  2  0  0  0  0
 10 11  1  0  0  0  0
 11 12  2  0  0  0  0
 12 13  1  0  0  0  0
 13 14  2  0  0  0  0
 14 15  1  0  0  0  0
 14 16  1  0  0  0  0
  8 17  1  0  0  0  0
 17 18  1  1  0  0  0
 17 19  1  0  0  0  0
 19 20  1  0  0  0  0
 19 21  2  0  0  0  0
 17 22  1  0  0  0  0
  4 23  1  0  0  0  0
 23 24  2  0  0  0  0
M  END
$$$$
DAR-DIA-43a-12
  -OEChem-03232022352D

 29 31  0     1  0  0  0  0  0999 V2000
   -2.1107    1.1760    0.0000 N   0  0  0  0  0  0  0  0  0  0  0  0
   -2.4214    0.2255    0.0000 C   0  0  0  0  0  0  0  0  0  0  0  0
   -1.7536   -0.5188    0.0000 C   0  0  0  0  0  0  0  0  0  0  0  0
   -2.0643   -1.4693    0.0000 C   0  0  0  0  0  0  0  0  0  0  0  0
   -1.3965   -2.2136    0.0000 C   0  0  0  0  0  0  0  0  0  0  0  0
   -0.4180   -2.0075    0.0000 N   0  0  0  0  0  0  0  0  0  0  0  0
    0.2498   -2.7518    0.0000 C   0  0  0  0  0  0  0  0  0  0  0  0
   -0.0609   -3.7023    0.0000 O   0  0  0  0  0  0  0  0  0  0  0  0
    1.2283   -2.5456    0.0000 C   0  0  1  0  0  0  0  0  0  0  0  0
    1.3318   -3.5403    0.0000 H   0  0  0  0  0  0  0  0  0  0  0  0
    0.9211   -1.5923    0.0000 C   0  0  0  0  0  0  0  0  0  0  0  0
    1.7313   -1.0038    0.0000 C   0  0  0  0  0  0  0  0  0  0  0  0
    1.7328   -0.0038    0.0000 C   0  0  0  0  0  0  0  0  0  0  0  0
    0.8675    0.4975    0.0000 C   0  0  0  0  0  0  0  0  0  0  0  0
    0.0000    0.0000    0.0000 C   0  0  0  0  0  0  0  0  0  0  0  0
   -0.8675    0.4975    0.0000 C   0  0  0  0  0  0  0  0  0  0  0  0
   -0.8675    1.5027    0.0000 C   0  0  0  0  0  0  0  0  0  0  0  0
    0.0000    2.0104    0.0000 N   0  0  0  0  0  0  0  0  0  0  0  0
    0.8675    1.5027    0.0000 C   0  0  0  0  0  0  0  0  0  0  0  0
    2.5388   -1.5938    0.0000 C   0  0  0  0  0  0  0  0  0  0  0  0
    2.2328   -2.5461    0.0000 C   0  0  1  0  0  0  0  0  0  0  0  0
    2.1290   -3.5407    0.0000 H   0  0  0  0  0  0  0  0  0  0  0  0
    3.2114   -2.7520    0.0000 C   0  0  0  0  0  0  0  0  0  0  0  0
    3.5211   -3.7083    0.0000 C   0  0  0  0  0  0  0  0  0  0  0  0
    4.4997   -3.9143    0.0000 C   0  0  0  0  0  0  0  0  0  0  0  0
    5.1717   -3.1737    0.0000 C   0  0  0  0  0  0  0  0  0  0  0  0
    4.8619   -2.2174    0.0000 C   0  0  0  0  0  0  0  0  0  0  0  0
    5.5339   -1.4768    0.0000 Cl  0  0  0  0  0  0  0  0  0  0  0  0
    3.8802   -2.0017    0.0000 C   0  0  0  0  0  0  0  0  0  0  0  0
  1  2  1  0  0  0  0
  2  3  1  0  0  0  0
  3  4  1  0  0  0  0
  4  5  1  0  0  0  0
  5  6  1  0  0  0  0
  6  7  1  0  0  0  0
  7  8  2  0  0  0  0
  7  9  1  0  0  0  0
  9 10  1  6  0  0  0
  9 21  1  0  0  0  0
  9 11  1  0  0  0  0
 11 12  1  0  0  0  0
 12 13  1  0  0  0  0
 13 14  1  0  0  0  0
 14 19  2  0  0  0  0
 14 15  1  0  0  0  0
 15 16  2  0  0  0  0
 16 17  1  0  0  0  0
 17 18  2  0  0  0  0
 18 19  1  0  0  0  0
 12 20  2  0  0  0  0
 20 21  1  0  0  0  0
 21 22  1  6  0  0  0
 21 23  1  0  0  0  0
 23 29  2  0  0  0  0
 23 24  1  0  0  0  0
 24 25  2  0  0  0  0
 25 26  1  0  0  0  0
 26 27  2  0  0  0  0
 27 28  1  0  0  0  0
 27 29  1  0  0  0  0
M  END
$$$$
DAR-DIA-43a-13
  -OEChem-03232022352D

 27 29  0     1  0  0  0  0  0999 V2000
   -1.7536   -0.5188    0.0000 N   0  0  0  0  0  0  0  0  0  0  0  0
   -2.0643   -1.4693    0.0000 C   0  0  0  0  0  0  0  0  0  0  0  0
   -1.3965   -2.2136    0.0000 C   0  0  0  0  0  0  0  0  0  0  0  0
   -0.4180   -2.0075    0.0000 N   0  0  0  0  0  0  0  0  0  0  0  0
    0.2498   -2.7518    0.0000 C   0  0  0  0  0  0  0  0  0  0  0  0
   -0.0609   -3.7023    0.0000 O   0  0  0  0  0  0  0  0  0  0  0  0
    1.2283   -2.5456    0.0000 C   0  0  1  0  0  0  0  0  0  0  0  0
    1.3318   -3.5403    0.0000 H   0  0  0  0  0  0  0  0  0  0  0  0
    0.9211   -1.5923    0.0000 C   0  0  0  0  0  0  0  0  0  0  0  0
    1.7313   -1.0038    0.0000 C   0  0  0  0  0  0  0  0  0  0  0  0
    1.7328   -0.0038    0.0000 C   0  0  0  0  0  0  0  0  0  0  0  0
    0.8675    0.4975    0.0000 C   0  0  0  0  0  0  0  0  0  0  0  0
    0.0000    0.0000    0.0000 C   0  0  0  0  0  0  0  0  0  0  0  0
   -0.8675    0.4975    0.0000 C   0  0  0  0  0  0  0  0  0  0  0  0
   -0.8675    1.5027    0.0000 C   0  0  0  0  0  0  0  0  0  0  0  0
    0.0000    2.0104    0.0000 N   0  0  0  0  0  0  0  0  0  0  0  0
    0.8675    1.5027    0.0000 C   0  0  0  0  0  0  0  0  0  0  0  0
    2.5388   -1.5938    0.0000 C   0  0  0  0  0  0  0  0  0  0  0  0
    2.2328   -2.5461    0.0000 C   0  0  1  0  0  0  0  0  0  0  0  0
    2.1290   -3.5407    0.0000 H   0  0  0  0  0  0  0  0  0  0  0  0
    3.2114   -2.7520    0.0000 C   0  0  0  0  0  0  0  0  0  0  0  0
    3.5211   -3.7083    0.0000 C   0  0  0  0  0  0  0  0  0  0  0  0
    4.4997   -3.9143    0.0000 C   0  0  0  0  0  0  0  0  0  0  0  0
    5.1717   -3.1737    0.0000 C   0  0  0  0  0  0  0  0  0  0  0  0
    4.8619   -2.2174    0.0000 C   0  0  0  0  0  0  0  0  0  0  0  0
    5.5339   -1.4768    0.0000 Cl  0  0  0  0  0  0  0  0  0  0  0  0
    3.8802   -2.0017    0.0000 C   0  0  0  0  0  0  0  0  0  0  0  0
  1  2  1  0  0  0  0
  2  3  1  0  0  0  0
  3  4  1  0  0  0  0
  4  5  1  0  0  0  0
  5  6  2  0  0  0  0
  5  7  1  0  0  0  0
  7  8  1  6  0  0  0
  7 19  1  0  0  0  0
  7  9  1  0  0  0  0
  9 10  1  0  0  0  0
 10 11  1  0  0  0  0
 11 12  1  0  0  0  0
 12 17  2  0  0  0  0
 12 13  1  0  0  0  0
 13 14  2  0  0  0  0
 14 15  1  0  0  0  0
 15 16  2  0  0  0  0
 16 17  1  0  0  0  0
 10 18  2  0  0  0  0
 18 19  1  0  0  0  0
 19 20  1  6  0  0  0
 19 21  1  0  0  0  0
 21 27  2  0  0  0  0
 21 22  1  0  0  0  0
 22 23  2  0  0  0  0
 23 24  1  0  0  0  0
 24 25  2  0  0  0  0
 25 26  1  0  0  0  0
 25 27  1  0  0  0  0
M  END
$$$$
DAR-DIA-43a-14
  -OEChem-03232022352D

 29 31  0     1  0  0  0  0  0999 V2000
   -0.9930   -6.5538    0.0000 C   0  0  0  0  0  0  0  0  0  0  0  0
   -0.6823   -5.6033    0.0000 C   0  0  0  0  0  0  0  0  0  0  0  0
   -1.3501   -4.8590    0.0000 C   0  0  0  0  0  0  0  0  0  0  0  0
    0.2962   -5.3971    0.0000 C   0  0  0  0  0  0  0  0  0  0  0  0
    0.6069   -4.4466    0.0000 C   0  0  0  0  0  0  0  0  0  0  0  0
   -0.0609   -3.7023    0.0000 N   0  0  0  0  0  0  0  0  0  0  0  0
    0.2498   -2.7518    0.0000 C   0  0  0  0  0  0  0  0  0  0  0  0
   -0.4180   -2.0075    0.0000 O   0  0  0  0  0  0  0  0  0  0  0  0
    1.2283   -2.5456    0.0000 C   0  0  1  0  0  0  0  0  0  0  0  0
    1.3318   -3.5403    0.0000 H   0  0  0  0  0  0  0  0  0  0  0  0
    0.9211   -1.5923    0.0000 C   0  0  0  0  0  0  0  0  0  0  0  0
    1.7313   -1.0038    0.0000 C   0  0  0  0  0  0  0  0  0  0  0  0
    1.7328   -0.0038    0.0000 C   0  0  0  0  0  0  0  0  0  0  0  0
    0.8675    0.4975    0.0000 C   0  0  0  0  0  0  0  0  0  0  0  0
    0.0000    0.0000    0.0000 C   0  0  0  0  0  0  0  0  0  0  0  0
   -0.8675    0.4975    0.0000 C   0  0  0  0  0  0  0  0  0  0  0  0
   -0.8675    1.5027    0.0000 C   0  0  0  0  0  0  0  0  0  0  0  0
    0.0000    2.0104    0.0000 N   0  0  0  0  0  0  0  0  0  0  0  0
    0.8675    1.5027    0.0000 C   0  0  0  0  0  0  0  0  0  0  0  0
    2.5388   -1.5938    0.0000 C   0  0  0  0  0  0  0  0  0  0  0  0
    2.2328   -2.5461    0.0000 C   0  0  1  0  0  0  0  0  0  0  0  0
    2.1290   -3.5407    0.0000 H   0  0  0  0  0  0  0  0  0  0  0  0
    3.2114   -2.7520    0.0000 C   0  0  0  0  0  0  0  0  0  0  0  0
    3.5211   -3.7083    0.0000 C   0  0  0  0  0  0  0  0  0  0  0  0
    4.4997   -3.9143    0.0000 C   0  0  0  0  0  0  0  0  0  0  0  0
    5.1717   -3.1737    0.0000 C   0  0  0  0  0  0  0  0  0  0  0  0
    4.8619   -2.2174    0.0000 C   0  0  0  0  0  0  0  0  0  0  0  0
    5.5339   -1.4768    0.0000 Cl  0  0  0  0  0  0  0  0  0  0  0  0
    3.8802   -2.0017    0.0000 C   0  0  0  0  0  0  0  0  0  0  0  0
  1  2  1  0  0  0  0
  2  3  1  0  0  0  0
  2  4  1  0  0  0  0
  4  5  1  0  0  0  0
  5  6  1  0  0  0  0
  6  7  1  0  0  0  0
  7  8  2  0  0  0  0
  7  9  1  0  0  0  0
  9 10  1  6  0  0  0
  9 21  1  0  0  0  0
  9 11  1  0  0  0  0
 11 12  1  0  0  0  0
 12 13  1  0  0  0  0
 13 14  1  0  0  0  0
 14 19  2  0  0  0  0
 14 15  1  0  0  0  0
 15 16  2  0  0  0  0
 16 17  1  0  0  0  0
 17 18  2  0  0  0  0
 18 19  1  0  0  0  0
 12 20  2  0  0  0  0
 20 21  1  0  0  0  0
 21 22  1  6  0  0  0
 21 23  1  0  0  0  0
 23 29  2  0  0  0  0
 23 24  1  0  0  0  0
 24 25  2  0  0  0  0
 25 26  1  0  0  0  0
 26 27  2  0  0  0  0
 27 28  1  0  0  0  0
 27 29  1  0  0  0  0
M  END
$$$$
DAR-DIA-43a-15
  -OEChem-03232022352D

 32 35  0     1  0  0  0  0  0999 V2000
    1.7321    6.0104    0.0000 O   0  0  0  0  0  0  0  0  0  0  0  0
    1.7321    5.0104    0.0000 C   0  0  0  0  0  0  0  0  0  0  0  0
    0.8660    4.5104    0.0000 N   0  0  0  0  0  0  0  0  0  0  0  0
    0.8660    3.5104    0.0000 C   0  0  0  0  0  0  0  0  0  0  0  0
    0.0000    3.0104    0.0000 C   0  0  0  0  0  0  0  0  0  0  0  0
   -0.0000    2.0104    0.0000 N   0  0  0  0  0  0  0  0  0  0  0  0
   -0.8675    1.5027    0.0000 C   0  0  0  0  0  0  0  0  0  0  0  0
   -0.8675    0.4975    0.0000 C   0  0  0  0  0  0  0  0  0  0  0  0
    0.0000    0.0000    0.0000 C   0  0  0  0  0  0  0  0  0  0  0  0
    0.8675    0.4975    0.0000 C   0  0  0  0  0  0  0  0  0  0  0  0
    0.8675    1.5027    0.0000 C   0  0  0  0  0  0  0  0  0  0  0  0
    3.2476    4.1354    0.0000 C   0  0  1  0  0  0  0  0  0  0  0  0
    2.6603    3.3260    0.0000 H   0  0  0  0  0  0  0  0  0  0  0  0
    3.9928    3.4661    0.0000 C   0  0  0  0  0  0  0  0  0  0  0  0
    4.8606    3.9660    0.0000 C   0  0  0  0  0  0  0  0  0  0  0  0
    5.7742    3.5595    0.0000 C   0  0  0  0  0  0  0  0  0  0  0  0
    5.8791    2.5650    0.0000 C   0  0  0  0  0  0  0  0  0  0  0  0
    5.0711    1.9758    0.0000 C   0  0  0  0  0  0  0  0  0  0  0  0
    5.1716    0.9808    0.0000 C   0  0  0  0  0  0  0  0  0  0  0  0
    6.0894    0.5709    0.0000 C   0  0  0  0  0  0  0  0  0  0  0  0
    6.9067    1.1560    0.0000 N   0  0  0  0  0  0  0  0  0  0  0  0
    6.7969    2.1551    0.0000 C   0  0  0  0  0  0  0  0  0  0  0  0
    4.6510    4.9438    0.0000 C   0  0  0  0  0  0  0  0  0  0  0  0
    3.6567    5.0527    0.0000 C   0  0  1  0  0  0  0  0  0  0  0  0
    2.7063    5.3636    0.0000 H   0  0  0  0  0  0  0  0  0  0  0  0
    3.8677    6.0302    0.0000 C   0  0  0  0  0  0  0  0  0  0  0  0
    3.1209    6.7030    0.0000 C   0  0  0  0  0  0  0  0  0  0  0  0
    3.3318    7.6805    0.0000 C   0  0  0  0  0  0  0  0  0  0  0  0
    4.2821    7.9921    0.0000 C   0  0  0  0  0  0  0  0  0  0  0  0
    5.0290    7.3193    0.0000 C   0  0  0  0  0  0  0  0  0  0  0  0
    5.9792    7.6309    0.0000 Cl  0  0  0  0  0  0  0  0  0  0  0  0
    4.8256    6.3350    0.0000 C   0  0  0  0  0  0  0  0  0  0  0  0
  1  2  2  0  0  0  0
  2  3  1  0  0  0  0
  3  4  1  0  0  0  0
  4  5  1  0  0  0  0
  5  6  1  0  0  0  0
  6 11  1  0  0  0  0
  6  7  1  0  0  0  0
  7  8  1  0  0  0  0
  8  9  1  0  0  0  0
  9 10  1  0  0  0  0
 10 11  1  0  0  0  0
  2 12  1  0  0  0  0
 12 13  1  1  0  0  0
 12 24  1  0  0  0  0
 12 14  1  0  0  0  0
 14 15  1  0  0  0  0
 15 16  1  0  0  0  0
 16 17  1  0  0  0  0
 17 22  2  0  0  0  0
 17 18  1  0  0  0  0
 18 19  2  0  0  0  0
 19 20  1  0  0  0  0
 20 21  2  0  0  0  0
 21 22  1  0  0  0  0
 15 23  2  0  0  0  0
 23 24  1  0  0  0  0
 24 25  1  1  0  0  0
 24 26  1  0  0  0  0
 26 32  2  0  0  0  0
 26 27  1  0  0  0  0
 27 28  2  0  0  0  0
 28 29  1  0  0  0  0
 29 30  2  0  0  0  0
 30 31  1  0  0  0  0
 30 32  1  0  0  0  0
M  END
$$$$
DAR-DIA-43a-16
  -OEChem-03232022352D

 32 35  0     1  0  0  0  0  0999 V2000
   -0.8646   -4.4975    0.0000 O   0  0  0  0  0  0  0  0  0  0  0  0
   -0.8646   -3.4975    0.0000 C   0  0  0  0  0  0  0  0  0  0  0  0
    0.0015   -2.9975    0.0000 N   0  0  0  0  0  0  0  0  0  0  0  0
    0.0015   -1.9975    0.0000 C   0  0  0  0  0  0  0  0  0  0  0  0
    0.8675   -1.4975    0.0000 C   0  0  0  0  0  0  0  0  0  0  0  0
    0.8675   -0.4975    0.0000 N   0  0  0  0  0  0  0  0  0  0  0  0
    0.0000    0.0000    0.0000 C   0  0  0  0  0  0  0  0  0  0  0  0
   -0.0000    1.0052    0.0000 C   0  0  0  0  0  0  0  0  0  0  0  0
    0.8675    1.5129    0.0000 O   0  0  0  0  0  0  0  0  0  0  0  0
    1.7350    1.0052    0.0000 C   0  0  0  0  0  0  0  0  0  0  0  0
    1.7350    0.0000    0.0000 C   0  0  0  0  0  0  0  0  0  0  0  0
   -2.3801   -2.6225    0.0000 C   0  0  1  0  0  0  0  0  0  0  0  0
   -1.7928   -1.8131    0.0000 H   0  0  0  0  0  0  0  0  0  0  0  0
   -3.1253   -1.9532    0.0000 C   0  0  0  0  0  0  0  0  0  0  0  0
   -3.9931   -2.4531    0.0000 C   0  0  0  0  0  0  0  0  0  0  0  0
   -4.9067   -2.0466    0.0000 C   0  0  0  0  0  0  0  0  0  0  0  0
   -5.0116   -1.0521    0.0000 C   0  0  0  0  0  0  0  0  0  0  0  0
   -4.2036   -0.4629    0.0000 C   0  0  0  0  0  0  0  0  0  0  0  0
   -4.3041    0.5321    0.0000 C   0  0  0  0  0  0  0  0  0  0  0  0
   -5.2219    0.9420    0.0000 C   0  0  0  0  0  0  0  0  0  0  0  0
   -6.0392    0.3569    0.0000 N   0  0  0  0  0  0  0  0  0  0  0  0
   -5.9294   -0.6422    0.0000 C   0  0  0  0  0  0  0  0  0  0  0  0
   -3.7835   -3.4309    0.0000 C   0  0  0  0  0  0  0  0  0  0  0  0
   -2.7892   -3.5398    0.0000 C   0  0  1  0  0  0  0  0  0  0  0  0
   -1.8388   -3.8507    0.0000 H   0  0  0  0  0  0  0  0  0  0  0  0
   -3.0002   -4.5173    0.0000 C   0  0  0  0  0  0  0  0  0  0  0  0
   -2.2534   -5.1901    0.0000 C   0  0  0  0  0  0  0  0  0  0  0  0
   -2.4643   -6.1676    0.0000 C   0  0  0  0  0  0  0  0  0  0  0  0
   -3.4146   -6.4792    0.0000 C   0  0  0  0  0  0  0  0  0  0  0  0
   -4.1615   -5.8064    0.0000 C   0  0  0  0  0  0  0  0  0  0  0  0
   -5.1117   -6.1181    0.0000 Cl  0  0  0  0  0  0  0  0  0  0  0  0
   -3.9581   -4.8221    0.0000 C   0  0  0  0  0  0  0  0  0  0  0  0
  1  2  2  0  0  0  0
  2  3  1  0  0  0  0
  3  4  1  0  0  0  0
  4  5  1  0  0  0  0
  5  6  1  0  0  0  0
  6 11  1  0  0  0  0
  6  7  1  0  0  0  0
  7  8  1  0  0  0  0
  8  9  1  0  0  0  0
  9 10  1  0  0  0  0
 10 11  1  0  0  0  0
  2 12  1  0  0  0  0
 12 13  1  1  0  0  0
 12 24  1  0  0  0  0
 12 14  1  0  0  0  0
 14 15  1  0  0  0  0
 15 16  1  0  0  0  0
 16 17  1  0  0  0  0
 17 22  2  0  0  0  0
 17 18  1  0  0  0  0
 18 19  2  0  0  0  0
 19 20  1  0  0  0  0
 20 21  2  0  0  0  0
 21 22  1  0  0  0  0
 15 23  2  0  0  0  0
 23 24  1  0  0  0  0
 24 25  1  1  0  0  0
 24 26  1  0  0  0  0
 26 32  2  0  0  0  0
 26 27  1  0  0  0  0
 27 28  2  0  0  0  0
 28 29  1  0  0  0  0
 29 30  2  0  0  0  0
 30 31  1  0  0  0  0
 30 32  1  0  0  0  0
M  END
$$$$
DAR-DIA-43a-17
  -OEChem-03232022352D

 33 36  0     1  0  0  0  0  0999 V2000
    0.8675    2.5129    0.0000 C   0  0  0  0  0  0  0  0  0  0  0  0
    0.8675    1.5129    0.0000 N   0  0  0  0  0  0  0  0  0  0  0  0
    0.0000    1.0052    0.0000 C   0  0  0  0  0  0  0  0  0  0  0  0
    0.0000    0.0000    0.0000 C   0  0  0  0  0  0  0  0  0  0  0  0
    0.8675   -0.4975    0.0000 N   0  0  0  0  0  0  0  0  0  0  0  0
    0.8675   -1.4975    0.0000 C   0  0  0  0  0  0  0  0  0  0  0  0
    1.7335   -1.9975    0.0000 C   0  0  0  0  0  0  0  0  0  0  0  0
    2.5996   -1.4975    0.0000 N   0  0  0  0  0  0  0  0  0  0  0  0
    3.4656   -1.9975    0.0000 C   0  0  0  0  0  0  0  0  0  0  0  0
    4.3316   -1.4975    0.0000 O   0  0  0  0  0  0  0  0  0  0  0  0
    3.4656   -2.9975    0.0000 C   0  0  1  0  0  0  0  0  0  0  0  0
    2.4710   -2.8936    0.0000 H   0  0  0  0  0  0  0  0  0  0  0  0
    4.4618   -2.8934    0.0000 C   0  0  0  0  0  0  0  0  0  0  0  0
    4.8706   -3.8076    0.0000 C   0  0  0  0  0  0  0  0  0  0  0  0
    5.8488   -4.0152    0.0000 C   0  0  0  0  0  0  0  0  0  0  0  0
    6.5177   -3.2718    0.0000 C   0  0  0  0  0  0  0  0  0  0  0  0
    6.2098   -2.3204    0.0000 C   0  0  0  0  0  0  0  0  0  0  0  0
    6.8754   -1.5741    0.0000 C   0  0  0  0  0  0  0  0  0  0  0  0
    7.8590   -1.7814    0.0000 C   0  0  0  0  0  0  0  0  0  0  0  0
    8.1770   -2.7349    0.0000 N   0  0  0  0  0  0  0  0  0  0  0  0
    7.5013   -3.4791    0.0000 C   0  0  0  0  0  0  0  0  0  0  0  0
    4.1268   -4.4760    0.0000 C   0  0  0  0  0  0  0  0  0  0  0  0
    3.2580   -3.9803    0.0000 C   0  0  1  0  0  0  0  0  0  0  0  0
    2.3062   -3.6737    0.0000 H   0  0  0  0  0  0  0  0  0  0  0  0
    2.8547   -4.8954    0.0000 C   0  0  0  0  0  0  0  0  0  0  0  0
    1.8551   -5.0013    0.0000 C   0  0  0  0  0  0  0  0  0  0  0  0
    1.4518   -5.9164    0.0000 C   0  0  0  0  0  0  0  0  0  0  0  0
    2.0380   -6.7266    0.0000 C   0  0  0  0  0  0  0  0  0  0  0  0
    3.0376   -6.6207    0.0000 C   0  0  0  0  0  0  0  0  0  0  0  0
    3.6237   -7.4309    0.0000 Cl  0  0  0  0  0  0  0  0  0  0  0  0
    3.4510   -5.7045    0.0000 C   0  0  0  0  0  0  0  0  0  0  0  0
    1.7350    0.0000    0.0000 C   0  0  0  0  0  0  0  0  0  0  0  0
    1.7350    1.0052    0.0000 C   0  0  0  0  0  0  0  0  0  0  0  0
  1  2  1  0  0  0  0
  2 33  1  0  0  0  0
  2  3  1  0  0  0  0
  3  4  1  0  0  0  0
  4  5  1  0  0  0  0
  5  6  1  0  0  0  0
  6  7  1  0  0  0  0
  7  8  1  0  0  0  0
  8  9  1  0  0  0  0
  9 10  2  0  0  0  0
  9 11  1  0  0  0  0
 11 12  1  6  0  0  0
 11 23  1  0  0  0  0
 11 13  1  0  0  0  0
 13 14  1  0  0  0  0
 14 15  1  0  0  0  0
 15 16  1  0  0  0  0
 16 21  2  0  0  0  0
 16 17  1  0  0  0  0
 17 18  2  0  0  0  0
 18 19  1  0  0  0  0
 19 20  2  0  0  0  0
 20 21  1  0  0  0  0
 14 22  2  0  0  0  0
 22 23  1  0  0  0  0
 23 24  1  6  0  0  0
 23 25  1  0  0  0  0
 25 31  2  0  0  0  0
 25 26  1  0  0  0  0
 26 27  2  0  0  0  0
 27 28  1  0  0  0  0
 28 29  2  0  0  0  0
 29 30  1  0  0  0  0
 29 31  1  0  0  0  0
  5 32  1  0  0  0  0
 32 33  1  0  0  0  0
M  END
$$$$
AMD-U.A-3d2-1
  -OEChem-03232022352D

 16 17  0     0  0  0  0  0  0999 V2000
   -1.7320   -0.0025    0.0000 C   0  0  0  0  0  0  0  0  0  0  0  0
   -0.8653   -0.5013    0.0000 O   0  0  0  0  0  0  0  0  0  0  0  0
    0.0000    0.0000    0.0000 C   0  0  0  0  0  0  0  0  0  0  0  0
    0.0000    1.0089    0.0000 C   0  0  0  0  0  0  0  0  0  0  0  0
    0.8707    1.5185    0.0000 C   0  0  0  0  0  0  0  0  0  0  0  0
    1.7414    1.0089    0.0000 C   0  0  0  0  0  0  0  0  0  0  0  0
    2.6125    1.5125    0.0000 N   0  0  0  0  0  0  0  0  0  0  0  0
    3.4848    1.0014    0.0000 C   0  0  0  0  0  0  0  0  0  0  0  0
    3.4805   -0.0073    0.0000 C   0  0  0  0  0  0  0  0  0  0  0  0
    2.6039   -0.5053    0.0000 C   0  0  0  0  0  0  0  0  0  0  0  0
    2.5983   -1.5053    0.0000 C   0  0  0  0  0  0  0  0  0  0  0  0
    1.7295   -2.0004    0.0000 O   0  0  0  0  0  0  0  0  0  0  0  0
    3.4615   -2.0101    0.0000 N   0  0  0  0  0  0  0  0  0  0  0  0
    3.4560   -3.0101    0.0000 N   0  0  0  0  0  0  0  0  0  0  0  0
    1.7371   -0.0000    0.0000 C   0  0  0  0  0  0  0  0  0  0  0  0
    0.8707   -0.4993    0.0000 C   0  0  0  0  0  0  0  0  0  0  0  0
  1  2  1  0  0  0  0
  2  3  1  0  0  0  0
  3 16  2  0  0  0  0
  3  4  1  0  0  0  0
  4  5  2  0  0  0  0
  5  6  1  0  0  0  0
  6 15  2  0  0  0  0
  6  7  1  0  0  0  0
  7  8  2  0  0  0  0
  8  9  1  0  0  0  0
  9 10  2  0  0  0  0
 10 11  1  0  0  0  0
 11 12  2  0  0  0  0
 11 13  1  0  0  0  0
 13 14  1  0  0  0  0
 10 15  1  0  0  0  0
 15 16  1  0  0  0  0
M  END
$$$$
AMD-U.A-3d2-2
  -OEChem-03232022352D

 15 16  0     0  0  0  0  0  0999 V2000
   -2.5995    1.4982    0.0000 N   0  0  0  0  0  0  0  0  0  0  0  0
   -1.7320    1.0007    0.0000 N   0  0  0  0  0  0  0  0  0  0  0  0
   -0.8675    1.5032    0.0000 C   0  0  0  0  0  0  0  0  0  0  0  0
   -0.8704    2.5032    0.0000 O   0  0  0  0  0  0  0  0  0  0  0  0
    0.0000    1.0057    0.0000 C   0  0  0  0  0  0  0  0  0  0  0  0
    0.0000    0.0000    0.0000 C   0  0  0  0  0  0  0  0  0  0  0  0
    0.8679   -0.4978    0.0000 C   0  0  0  0  0  0  0  0  0  0  0  0
    1.7371   -0.0000    0.0000 C   0  0  0  0  0  0  0  0  0  0  0  0
    2.6038   -0.4989    0.0000 C   0  0  0  0  0  0  0  0  0  0  0  0
    3.4748    0.0022    0.0000 C   0  0  0  0  0  0  0  0  0  0  0  0
    3.4735    1.0079    0.0000 C   0  0  0  0  0  0  0  0  0  0  0  0
    4.3394    1.5081    0.0000 O   0  0  0  0  0  0  0  0  0  0  0  0
    2.6012    1.5124    0.0000 C   0  0  0  0  0  0  0  0  0  0  0  0
    1.7358    1.0057    0.0000 C   0  0  0  0  0  0  0  0  0  0  0  0
    0.8679    1.5135    0.0000 C   0  0  0  0  0  0  0  0  0  0  0  0
  1  2  1  0  0  0  0
  2  3  1  0  0  0  0
  3  4  2  0  0  0  0
  3  5  1  0  0  0  0
  5 15  2  0  0  0  0
  5  6  1  0  0  0  0
  6  7  2  0  0  0  0
  7  8  1  0  0  0  0
  8 14  2  0  0  0  0
  8  9  1  0  0  0  0
  9 10  2  0  0  0  0
 10 11  1  0  0  0  0
 11 12  1  0  0  0  0
 11 13  2  0  0  0  0
 13 14  1  0  0  0  0
 14 15  1  0  0  0  0
M  END
$$$$
ANT-DIA-3c7-1
  -OEChem-03232022352D

 21 23  0     0  0  0  0  0  0999 V2000
    4.2698   -5.0476    0.0000 N   0  0  0  0  0  0  0  0  0  0  0  0
    3.2903   -4.8465    0.0000 C   0  0  0  0  0  0  0  0  0  0  0  0
    2.3107   -4.6453    0.0000 C   0  0  0  0  0  0  0  0  0  0  0  0
    1.6456   -5.3921    0.0000 C   0  0  0  0  0  0  0  0  0  0  0  0
    0.6652   -5.1952    0.0000 C   0  0  0  0  0  0  0  0  0  0  0  0
    0.3466   -4.2419    0.0000 C   0  0  0  0  0  0  0  0  0  0  0  0
    1.0084   -3.4854    0.0000 C   0  0  0  0  0  0  0  0  0  0  0  0
    1.9921   -3.6920    0.0000 C   0  0  0  0  0  0  0  0  0  0  0  0
    2.6572   -2.9452    0.0000 N   0  0  0  0  0  0  0  0  0  0  0  0
    2.3431   -1.9958    0.0000 C   0  0  0  0  0  0  0  0  0  0  0  0
    1.3638   -1.7932    0.0000 O   0  0  0  0  0  0  0  0  0  0  0  0
    3.0082   -1.2491    0.0000 C   0  0  0  0  0  0  0  0  0  0  0  0
    2.6940   -0.2997    0.0000 C   0  0  0  0  0  0  0  0  0  0  0  0
    3.2780    0.5133    0.0000 C   0  0  0  0  0  0  0  0  0  0  0  0
    2.6851    1.3196    0.0000 N   0  0  0  0  0  0  0  0  0  0  0  0
    1.7350    1.0052    0.0000 C   0  0  0  0  0  0  0  0  0  0  0  0
    0.8675    1.5129    0.0000 N   0  0  0  0  0  0  0  0  0  0  0  0
    0.0000    1.0052    0.0000 C   0  0  0  0  0  0  0  0  0  0  0  0
    0.0000    0.0000    0.0000 C   0  0  0  0  0  0  0  0  0  0  0  0
    0.8675   -0.4975    0.0000 C   0  0  0  0  0  0  0  0  0  0  0  0
    1.7405    0.0044    0.0000 C   0  0  0  0  0  0  0  0  0  0  0  0
  1  2  3  0  0  0  0
  2  3  1  0  0  0  0
  3  8  2  0  0  0  0
  3  4  1  0  0  0  0
  4  5  2  0  0  0  0
  5  6  1  0  0  0  0
  6  7  2  0  0  0  0
  7  8  1  0  0  0  0
  8  9  1  0  0  0  0
  9 10  1  0  0  0  0
 10 11  2  0  0  0  0
 10 12  1  0  0  0  0
 12 13  1  0  0  0  0
 13 21  1  0  0  0  0
 13 14  2  0  0  0  0
 14 15  1  0  0  0  0
 15 16  1  0  0  0  0
 16 21  2  0  0  0  0
 16 17  1  0  0  0  0
 17 18  2  0  0  0  0
 18 19  1  0  0  0  0
 19 20  2  0  0  0  0
 20 21  1  0  0  0  0
M  END
$$$$
ANT-DIA-3c7-2
  -OEChem-03232022352D

 18 19  0     0  0  0  0  0  0999 V2000
    5.1985   -2.0062    0.0000 N   0  0  0  0  0  0  0  0  0  0  0  0
    4.3325   -2.5063    0.0000 C   0  0  0  0  0  0  0  0  0  0  0  0
    3.4665   -3.0063    0.0000 C   0  0  0  0  0  0  0  0  0  0  0  0
    3.4651   -4.0063    0.0000 C   0  0  0  0  0  0  0  0  0  0  0  0
    2.6012   -4.5102    0.0000 C   0  0  0  0  0  0  0  0  0  0  0  0
    1.7299   -4.0089    0.0000 C   0  0  0  0  0  0  0  0  0  0  0  0
    1.7225   -3.0037    0.0000 C   0  0  0  0  0  0  0  0  0  0  0  0
    2.5952   -2.5050    0.0000 C   0  0  0  0  0  0  0  0  0  0  0  0
    2.5966   -1.5050    0.0000 N   0  0  0  0  0  0  0  0  0  0  0  0
    1.7313   -1.0038    0.0000 C   0  0  0  0  0  0  0  0  0  0  0  0
    0.8646   -1.5025    0.0000 O   0  0  0  0  0  0  0  0  0  0  0  0
    1.7328   -0.0038    0.0000 C   0  0  0  0  0  0  0  0  0  0  0  0
    0.8675    0.4975    0.0000 C   0  0  0  0  0  0  0  0  0  0  0  0
    0.0000    0.0000    0.0000 C   0  0  0  0  0  0  0  0  0  0  0  0
   -0.8675    0.4975    0.0000 C   0  0  0  0  0  0  0  0  0  0  0  0
   -0.8675    1.5027    0.0000 C   0  0  0  0  0  0  0  0  0  0  0  0
    0.0000    2.0104    0.0000 N   0  0  0  0  0  0  0  0  0  0  0  0
    0.8675    1.5027    0.0000 C   0  0  0  0  0  0  0  0  0  0  0  0
  1  2  3  0  0  0  0
  2  3  1  0  0  0  0
  3  8  2  0  0  0  0
  3  4  1  0  0  0  0
  4  5  2  0  0  0  0
  5  6  1  0  0  0  0
  6  7  2  0  0  0  0
  7  8  1  0  0  0  0
  8  9  1  0  0  0  0
  9 10  1  0  0  0  0
 10 11  2  0  0  0  0
 10 12  1  0  0  0  0
 12 13  1  0  0  0  0
 13 18  2  0  0  0  0
 13 14  1  0  0  0  0
 14 15  2  0  0  0  0
 15 16  1  0  0  0  0
 16 17  2  0  0  0  0
 17 18  1  0  0  0  0
M  END
$$$$
ANT-DIA-3c7-3
  -OEChem-03232022352D

 24 26  0     0  0  0  0  0  0999 V2000
   -2.2750   -4.5989    0.0000 C   0  0  0  0  0  0  0  0  0  0  0  0
   -1.2945   -4.7957    0.0000 C   0  0  0  0  0  0  0  0  0  0  0  0
   -0.6339   -4.0450    0.0000 N   0  0  0  0  0  0  0  0  0  0  0  0
    0.3466   -4.2419    0.0000 C   0  0  0  0  0  0  0  0  0  0  0  0
    0.6652   -5.1952    0.0000 C   0  0  0  0  0  0  0  0  0  0  0  0
    1.6456   -5.3921    0.0000 C   0  0  0  0  0  0  0  0  0  0  0  0
    2.3107   -4.6453    0.0000 C   0  0  0  0  0  0  0  0  0  0  0  0
    3.2903   -4.8465    0.0000 C   0  0  0  0  0  0  0  0  0  0  0  0
    4.2699   -5.0476    0.0000 N   0  0  0  0  0  0  0  0  0  0  0  0
    1.9921   -3.6920    0.0000 C   0  0  0  0  0  0  0  0  0  0  0  0
    2.6572   -2.9452    0.0000 N   0  0  0  0  0  0  0  0  0  0  0  0
    2.3431   -1.9958    0.0000 C   0  0  0  0  0  0  0  0  0  0  0  0
    1.3638   -1.7932    0.0000 O   0  0  0  0  0  0  0  0  0  0  0  0
    3.0082   -1.2491    0.0000 C   0  0  0  0  0  0  0  0  0  0  0  0
    2.6940   -0.2997    0.0000 C   0  0  0  0  0  0  0  0  0  0  0  0
    3.2780    0.5133    0.0000 C   0  0  0  0  0  0  0  0  0  0  0  0
    2.6851    1.3196    0.0000 N   0  0  0  0  0  0  0  0  0  0  0  0
    1.7350    1.0052    0.0000 C   0  0  0  0  0  0  0  0  0  0  0  0
    0.8675    1.5129    0.0000 N   0  0  0  0  0  0  0  0  0  0  0  0
    0.0000    1.0052    0.0000 C   0  0  0  0  0  0  0  0  0  0  0  0
    0.0000    0.0000    0.0000 C   0  0  0  0  0  0  0  0  0  0  0  0
    0.8675   -0.4975    0.0000 C   0  0  0  0  0  0  0  0  0  0  0  0
    1.7405    0.0044    0.0000 C   0  0  0  0  0  0  0  0  0  0  0  0
    1.0084   -3.4854    0.0000 C   0  0  0  0  0  0  0  0  0  0  0  0
  1  2  1  0  0  0  0
  2  3  1  0  0  0  0
  3  4  1  0  0  0  0
  4 24  2  0  0  0  0
  4  5  1  0  0  0  0
  5  6  2  0  0  0  0
  6  7  1  0  0  0  0
  7  8  1  0  0  0  0
  8  9  3  0  0  0  0
  7 10  2  0  0  0  0
 10 11  1  0  0  0  0
 11 12  1  0  0  0  0
 12 13  2  0  0  0  0
 12 14  1  0  0  0  0
 14 15  1  0  0  0  0
 15 23  1  0  0  0  0
 15 16  2  0  0  0  0
 16 17  1  0  0  0  0
 17 18  1  0  0  0  0
 18 23  2  0  0  0  0
 18 19  1  0  0  0  0
 19 20  2  0  0  0  0
 20 21  1  0  0  0  0
 21 22  2  0  0  0  0
 22 23  1  0  0  0  0
 10 24  1  0  0  0  0
M  END
$$$$
ANT-DIA-3c7-4
  -OEChem-03232022352D

 19 20  0     0  0  0  0  0  0999 V2000
    3.7809   -3.7419    0.0000 C   0  0  0  0  0  0  0  0  0  0  0  0
    4.3683   -2.9327    0.0000 S   0  0  0  0  0  0  0  0  0  0  0  0
    3.5591   -2.3452    0.0000 O   0  0  0  0  0  0  0  0  0  0  0  0
    5.1776   -3.5201    0.0000 O   0  0  0  0  0  0  0  0  0  0  0  0
    4.9558   -2.1234    0.0000 C   0  0  0  0  0  0  0  0  0  0  0  0
    4.5487   -1.2100    0.0000 C   0  0  0  0  0  0  0  0  0  0  0  0
    5.0510   -0.3453    0.0000 C   0  0  0  0  0  0  0  0  0  0  0  0
    4.3809    0.3989    0.0000 C   0  0  0  0  0  0  0  0  0  0  0  0
    3.4648   -0.0063    0.0000 C   0  0  0  0  0  0  0  0  0  0  0  0
    2.5995    0.4950    0.0000 C   0  0  0  0  0  0  0  0  0  0  0  0
    2.6010    1.4950    0.0000 O   0  0  0  0  0  0  0  0  0  0  0  0
    1.7328   -0.0038    0.0000 N   0  0  0  0  0  0  0  0  0  0  0  0
    0.8675    0.4975    0.0000 C   0  0  0  0  0  0  0  0  0  0  0  0
    0.0000    0.0000    0.0000 C   0  0  0  0  0  0  0  0  0  0  0  0
   -0.8675    0.4975    0.0000 C   0  0  0  0  0  0  0  0  0  0  0  0
   -0.8675    1.5027    0.0000 C   0  0  0  0  0  0  0  0  0  0  0  0
    0.0000    2.0104    0.0000 N   0  0  0  0  0  0  0  0  0  0  0  0
    0.8675    1.5027    0.0000 C   0  0  0  0  0  0  0  0  0  0  0  0
    3.5694   -1.0055    0.0000 O   0  0  0  0  0  0  0  0  0  0  0  0
  1  2  1  0  0  0  0
  2  3  2  0  0  0  0
  2  4  2  0  0  0  0
  2  5  1  0  0  0  0
  5  6  1  0  0  0  0
  6 19  1  0  0  0  0
  6  7  2  0  0  0  0
  7  8  1  0  0  0  0
  8  9  2  0  0  0  0
  9 10  1  0  0  0  0
 10 11  2  0  0  0  0
 10 12  1  0  0  0  0
 12 13  1  0  0  0  0
 13 18  2  0  0  0  0
 13 14  1  0  0  0  0
 14 15  2  0  0  0  0
 15 16  1  0  0  0  0
 16 17  2  0  0  0  0
 17 18  1  0  0  0  0
  9 19  1  0  0  0  0
M  END
$$$$
ANT-DIA-3c7-5
  -OEChem-03232022352D

 21 23  0     0  0  0  0  0  0999 V2000
    0.8646   -1.5025    0.0000 O   0  0  0  0  0  0  0  0  0  0  0  0
    1.7313   -1.0038    0.0000 C   0  0  0  0  0  0  0  0  0  0  0  0
    1.7328   -0.0038    0.0000 N   0  0  0  0  0  0  0  0  0  0  0  0
    0.8675    0.4975    0.0000 C   0  0  0  0  0  0  0  0  0  0  0  0
    0.0000    0.0000    0.0000 C   0  0  0  0  0  0  0  0  0  0  0  0
   -0.8675    0.4975    0.0000 C   0  0  0  0  0  0  0  0  0  0  0  0
   -0.8675    1.5027    0.0000 C   0  0  0  0  0  0  0  0  0  0  0  0
    0.0000    2.0104    0.0000 N   0  0  0  0  0  0  0  0  0  0  0  0
    0.8675    1.5027    0.0000 C   0  0  0  0  0  0  0  0  0  0  0  0
    2.5966   -1.5050    0.0000 C   0  0  0  0  0  0  0  0  0  0  0  0
    2.6967   -2.5000    0.0000 C   0  0  0  0  0  0  0  0  0  0  0  0
    3.6759   -2.7101    0.0000 C   0  0  0  0  0  0  0  0  0  0  0  0
    4.1804   -1.8448    0.0000 C   0  0  0  0  0  0  0  0  0  0  0  0
    5.1753   -1.7435    0.0000 N   0  0  0  0  0  0  0  0  0  0  0  0
    5.7682   -2.5552    0.0000 C   0  0  0  0  0  0  0  0  0  0  0  0
    6.7682   -2.4534    0.0000 C   0  0  0  0  0  0  0  0  0  0  0  0
    7.1753   -1.5400    0.0000 C   0  0  0  0  0  0  0  0  0  0  0  0
    8.1702   -1.4388    0.0000 O   0  0  0  0  0  0  0  0  0  0  0  0
    6.5926   -0.7273    0.0000 C   0  0  0  0  0  0  0  0  0  0  0  0
    5.5925   -0.8291    0.0000 C   0  0  0  0  0  0  0  0  0  0  0  0
    3.5099   -1.0966    0.0000 O   0  0  0  0  0  0  0  0  0  0  0  0
  1  2  2  0  0  0  0
  2  3  1  0  0  0  0
  3  4  1  0  0  0  0
  4  9  2  0  0  0  0
  4  5  1  0  0  0  0
  5  6  2  0  0  0  0
  6  7  1  0  0  0  0
  7  8  2  0  0  0  0
  8  9  1  0  0  0  0
  2 10  1  0  0  0  0
 10 21  1  0  0  0  0
 10 11  2  0  0  0  0
 11 12  1  0  0  0  0
 12 13  2  0  0  0  0
 13 14  1  0  0  0  0
 14 20  1  0  0  0  0
 14 15  1  0  0  0  0
 15 16  1  0  0  0  0
 16 17  1  0  0  0  0
 17 18  1  0  0  0  0
 17 19  1  0  0  0  0
 19 20  1  0  0  0  0
 13 21  1  0  0  0  0
M  END
$$$$
NIM-UNI-36e-1
  -OEChem-03232022352D

 19 21  0     1  0  0  0  0  0999 V2000
    1.7340    2.0079    0.0000 C   0  0  0  0  0  0  0  0  0  0  0  0
    0.8680    1.5079    0.0000 C   0  0  0  0  0  0  0  0  0  0  0  0
    0.0020    2.0079    0.0000 O   0  0  0  0  0  0  0  0  0  0  0  0
    0.8680    0.5079    0.0000 N   0  0  0  0  0  0  0  0  0  0  0  0
    0.0000    0.0000    0.0000 C   0  0  0  0  0  0  0  0  0  0  0  0
   -0.0000   -1.0058    0.0000 C   0  0  0  0  0  0  0  0  0  0  0  0
    0.8680   -1.5037    0.0000 N   0  0  0  0  0  0  0  0  0  0  0  0
    1.7360   -1.0071    0.0000 C   0  0  3  0  0  0  0  0  0  0  0  0
    2.6938   -1.3184    0.0000 N   0  0  0  0  0  0  0  0  0  0  0  0
    3.2858   -0.5036    0.0000 C   0  0  0  0  0  0  0  0  0  0  0  0
    4.2858   -0.5035    0.0000 O   0  0  0  0  0  0  0  0  0  0  0  0
    2.6938    0.3110    0.0000 N   0  0  0  0  0  0  0  0  0  0  0  0
    3.2346    1.9753    0.0000 C   0  0  0  0  0  0  0  0  0  0  0  0
    2.5666    2.7195    0.0000 C   0  0  0  0  0  0  0  0  0  0  0  0
    2.8715    3.6719    0.0000 C   0  0  0  0  0  0  0  0  0  0  0  0
    3.8544    3.8823    0.0000 C   0  0  0  0  0  0  0  0  0  0  0  0
    4.5325    3.1403    0.0000 N   0  0  0  0  0  0  0  0  0  0  0  0
    4.2176    2.1857    0.0000 C   0  0  0  0  0  0  0  0  0  0  0  0
    1.7360   -0.0000    0.0000 C   0  0  3  0  0  0  0  0  0  0  0  0
  1  2  1  0  0  0  0
  2  3  2  0  0  0  0
  2  4  1  0  0  0  0
  4 19  1  0  0  0  0
  4  5  1  0  0  0  0
  5  6  1  0  0  0  0
  6  7  1  0  0  0  0
  7  8  1  0  0  0  0
  8 19  1  0  0  0  0
  8  9  1  0  0  0  0
  9 10  1  0  0  0  0
 10 11  2  0  0  0  0
 10 12  1  0  0  0  0
 12 13  1  0  0  0  0
 13 18  2  0  0  0  0
 13 14  1  0  0  0  0
 14 15  2  0  0  0  0
 15 16  1  0  0  0  0
 16 17  2  0  0  0  0
 17 18  1  0  0  0  0
 12 19  1  0  0  0  0
M  END
$$$$
NIM-UNI-36e-2
  -OEChem-03232022352D

 26 29  0     1  0  0  0  0  0999 V2000
    1.7340    2.0079    0.0000 C   0  0  0  0  0  0  0  0  0  0  0  0
    0.8680    1.5079    0.0000 C   0  0  0  0  0  0  0  0  0  0  0  0
    0.0020    2.0079    0.0000 O   0  0  0  0  0  0  0  0  0  0  0  0
    0.8680    0.5079    0.0000 N   0  0  0  0  0  0  0  0  0  0  0  0
    0.0000    0.0000    0.0000 C   0  0  0  0  0  0  0  0  0  0  0  0
   -0.0000   -1.0058    0.0000 C   0  0  0  0  0  0  0  0  0  0  0  0
    0.8680   -1.5037    0.0000 N   0  0  3  0  0  0  0  0  0  0  0  0
    0.8674   -2.5037    0.0000 C   0  0  0  0  0  0  0  0  0  0  0  0
    1.7332   -3.0042    0.0000 C   0  0  0  0  0  0  0  0  0  0  0  0
    2.6025   -2.4995    0.0000 C   0  0  0  0  0  0  0  0  0  0  0  0
    3.4683   -3.0000    0.0000 C   0  0  0  0  0  0  0  0  0  0  0  0
    3.4736   -4.0000    0.0000 C   0  0  0  0  0  0  0  0  0  0  0  0
    2.6043   -4.5047    0.0000 C   0  0  0  0  0  0  0  0  0  0  0  0
    1.7296   -4.0093    0.0000 C   0  0  0  0  0  0  0  0  0  0  0  0
    1.7360   -1.0071    0.0000 C   0  0  3  0  0  0  0  0  0  0  0  0
    2.6938   -1.3184    0.0000 N   0  0  0  0  0  0  0  0  0  0  0  0
    3.2858   -0.5036    0.0000 C   0  0  0  0  0  0  0  0  0  0  0  0
    4.2858   -0.5035    0.0000 O   0  0  0  0  0  0  0  0  0  0  0  0
    2.6938    0.3110    0.0000 N   0  0  0  0  0  0  0  0  0  0  0  0
    3.2346    1.9753    0.0000 C   0  0  0  0  0  0  0  0  0  0  0  0
    2.5666    2.7195    0.0000 C   0  0  0  0  0  0  0  0  0  0  0  0
    2.8715    3.6719    0.0000 C   0  0  0  0  0  0  0  0  0  0  0  0
    3.8544    3.8823    0.0000 C   0  0  0  0  0  0  0  0  0  0  0  0
    4.5325    3.1403    0.0000 N   0  0  0  0  0  0  0  0  0  0  0  0
    4.2176    2.1857    0.0000 C   0  0  0  0  0  0  0  0  0  0  0  0
    1.7360   -0.0000    0.0000 C   0  0  3  0  0  0  0  0  0  0  0  0
  1  2  1  0  0  0  0
  2  3  2  0  0  0  0
  2  4  1  0  0  0  0
  4 26  1  0  0  0  0
  4  5  1  0  0  0  0
  5  6  1  0  0  0  0
  6  7  1  0  0  0  0
  7  8  1  0  0  0  0
  8  9  1  0  0  0  0
  9 14  2  0  0  0  0
  9 10  1  0  0  0  0
 10 11  2  0  0  0  0
 11 12  1  0  0  0  0
 12 13  2  0  0  0  0
 13 14  1  0  0  0  0
  7 15  1  0  0  0  0
 15 26  1  0  0  0  0
 15 16  1  0  0  0  0
 16 17  1  0  0  0  0
 17 18  2  0  0  0  0
 17 19  1  0  0  0  0
 19 20  1  0  0  0  0
 20 25  2  0  0  0  0
 20 21  1  0  0  0  0
 21 22  2  0  0  0  0
 22 23  1  0  0  0  0
 23 24  2  0  0  0  0
 24 25  1  0  0  0  0
 19 26  1  0  0  0  0
M  END
$$$$
NIM-UNI-36e-3
  -OEChem-03232022352D

 20 22  0     0  0  0  0  0  0999 V2000
    1.7340    2.0079    0.0000 C   0  0  0  0  0  0  0  0  0  0  0  0
    0.8680    1.5079    0.0000 C   0  0  0  0  0  0  0  0  0  0  0  0
    0.0020    2.0079    0.0000 O   0  0  0  0  0  0  0  0  0  0  0  0
    0.8680    0.5079    0.0000 C   0  0  0  0  0  0  0  0  0  0  0  0
    0.0000    0.0000    0.0000 C   0  0  0  0  0  0  0  0  0  0  0  0
   -0.0000   -1.0058    0.0000 C   0  0  0  0  0  0  0  0  0  0  0  0
    0.8680   -1.5037    0.0000 C   0  0  0  0  0  0  0  0  0  0  0  0
    0.8674   -2.5037    0.0000 Br  0  0  0  0  0  0  0  0  0  0  0  0
    1.7360   -1.0071    0.0000 C   0  0  0  0  0  0  0  0  0  0  0  0
    2.6938   -1.3184    0.0000 N   0  0  0  0  0  0  0  0  0  0  0  0
    3.2858   -0.5036    0.0000 C   0  0  0  0  0  0  0  0  0  0  0  0
    4.2858   -0.5035    0.0000 O   0  0  0  0  0  0  0  0  0  0  0  0
    2.6938    0.3110    0.0000 N   0  0  0  0  0  0  0  0  0  0  0  0
    3.2346    1.9753    0.0000 C   0  0  0  0  0  0  0  0  0  0  0  0
    2.5666    2.7195    0.0000 C   0  0  0  0  0  0  0  0  0  0  0  0
    2.8715    3.6719    0.0000 C   0  0  0  0  0  0  0  0  0  0  0  0
    3.8544    3.8823    0.0000 C   0  0  0  0  0  0  0  0  0  0  0  0
    4.5325    3.1403    0.0000 N   0  0  0  0  0  0  0  0  0  0  0  0
    4.2176    2.1857    0.0000 C   0  0  0  0  0  0  0  0  0  0  0  0
    1.7360   -0.0000    0.0000 C   0  0  0  0  0  0  0  0  0  0  0  0
  1  2  1  0  0  0  0
  2  3  2  0  0  0  0
  2  4  1  0  0  0  0
  4 20  2  0  0  0  0
  4  5  1  0  0  0  0
  5  6  2  0  0  0  0
  6  7  1  0  0  0  0
  7  8  1  0  0  0  0
  7  9  2  0  0  0  0
  9 20  1  0  0  0  0
  9 10  1  0  0  0  0
 10 11  1  0  0  0  0
 11 12  2  0  0  0  0
 11 13  1  0  0  0  0
 13 14  1  0  0  0  0
 14 19  2  0  0  0  0
 14 15  1  0  0  0  0
 15 16  2  0  0  0  0
 16 17  1  0  0  0  0
 17 18  2  0  0  0  0
 18 19  1  0  0  0  0
 13 20  1  0  0  0  0
M  END
$$$$
NIM-UNI-36e-4
  -OEChem-03232022352D

 27 30  0     0  0  0  0  0  0999 V2000
    1.7340    2.0079    0.0000 C   0  0  0  0  0  0  0  0  0  0  0  0
    0.8680    1.5079    0.0000 C   0  0  0  0  0  0  0  0  0  0  0  0
    0.0020    2.0079    0.0000 O   0  0  0  0  0  0  0  0  0  0  0  0
    0.8680    0.5079    0.0000 C   0  0  0  0  0  0  0  0  0  0  0  0
    0.0000    0.0000    0.0000 C   0  0  0  0  0  0  0  0  0  0  0  0
   -0.0000   -1.0058    0.0000 C   0  0  0  0  0  0  0  0  0  0  0  0
    0.8680   -1.5037    0.0000 C   0  0  0  0  0  0  0  0  0  0  0  0
    0.8674   -2.5037    0.0000 C   0  0  0  0  0  0  0  0  0  0  0  0
    1.7332   -3.0042    0.0000 C   0  0  0  0  0  0  0  0  0  0  0  0
    2.6025   -2.4995    0.0000 C   0  0  0  0  0  0  0  0  0  0  0  0
    3.4683   -3.0000    0.0000 C   0  0  0  0  0  0  0  0  0  0  0  0
    3.4736   -4.0000    0.0000 C   0  0  0  0  0  0  0  0  0  0  0  0
    4.3415   -4.4967    0.0000 Br  0  0  0  0  0  0  0  0  0  0  0  0
    2.6043   -4.5047    0.0000 C   0  0  0  0  0  0  0  0  0  0  0  0
    1.7296   -4.0093    0.0000 C   0  0  0  0  0  0  0  0  0  0  0  0
    1.7360   -1.0071    0.0000 C   0  0  0  0  0  0  0  0  0  0  0  0
    2.6938   -1.3184    0.0000 N   0  0  0  0  0  0  0  0  0  0  0  0
    3.2858   -0.5036    0.0000 C   0  0  0  0  0  0  0  0  0  0  0  0
    4.2858   -0.5035    0.0000 O   0  0  0  0  0  0  0  0  0  0  0  0
    2.6938    0.3110    0.0000 N   0  0  0  0  0  0  0  0  0  0  0  0
    3.2346    1.9753    0.0000 C   0  0  0  0  0  0  0  0  0  0  0  0
    2.5666    2.7195    0.0000 C   0  0  0  0  0  0  0  0  0  0  0  0
    2.8715    3.6719    0.0000 C   0  0  0  0  0  0  0  0  0  0  0  0
    3.8544    3.8823    0.0000 C   0  0  0  0  0  0  0  0  0  0  0  0
    4.5325    3.1403    0.0000 N   0  0  0  0  0  0  0  0  0  0  0  0
    4.2176    2.1857    0.0000 C   0  0  0  0  0  0  0  0  0  0  0  0
    1.7360   -0.0000    0.0000 C   0  0  0  0  0  0  0  0  0  0  0  0
  1  2  1  0  0  0  0
  2  3  2  0  0  0  0
  2  4  1  0  0  0  0
  4 27  2  0  0  0  0
  4  5  1  0  0  0  0
  5  6  2  0  0  0  0
  6  7  1  0  0  0  0
  7  8  1  0  0  0  0
  8  9  1  0  0  0  0
  9 15  2  0  0  0  0
  9 10  1  0  0  0  0
 10 11  2  0  0  0  0
 11 12  1  0  0  0  0
 12 13  1  0  0  0  0
 12 14  2  0  0  0  0
 14 15  1  0  0  0  0
  7 16  2  0  0  0  0
 16 27  1  0  0  0  0
 16 17  1  0  0  0  0
 17 18  1  0  0  0  0
 18 19  2  0  0  0  0
 18 20  1  0  0  0  0
 20 21  1  0  0  0  0
 21 26  2  0  0  0  0
 21 22  1  0  0  0  0
 22 23  2  0  0  0  0
 23 24  1  0  0  0  0
 24 25  2  0  0  0  0
 25 26  1  0  0  0  0
 20 27  1  0  0  0  0
M  END
$$$$
NIM-UNI-36e-5
  -OEChem-03232022352D

 21 23  0     0  0  0  0  0  0999 V2000
    1.7340    2.0079    0.0000 C   0  0  0  0  0  0  0  0  0  0  0  0
    0.8680    1.5079    0.0000 C   0  0  0  0  0  0  0  0  0  0  0  0
    0.0020    2.0079    0.0000 O   0  0  0  0  0  0  0  0  0  0  0  0
    0.8680    0.5079    0.0000 C   0  0  0  0  0  0  0  0  0  0  0  0
    0.0000    0.0000    0.0000 C   0  0  0  0  0  0  0  0  0  0  0  0
   -0.0000   -1.0058    0.0000 C   0  0  0  0  0  0  0  0  0  0  0  0
    0.8680   -1.5037    0.0000 C   0  0  0  0  0  0  0  0  0  0  0  0
    0.8674   -2.5037    0.0000 C   0  0  0  0  0  0  0  0  0  0  0  0
    0.8669   -3.5037    0.0000 N   0  0  0  0  0  0  0  0  0  0  0  0
    1.7360   -1.0071    0.0000 C   0  0  0  0  0  0  0  0  0  0  0  0
    2.6938   -1.3184    0.0000 N   0  0  0  0  0  0  0  0  0  0  0  0
    3.2858   -0.5036    0.0000 C   0  0  0  0  0  0  0  0  0  0  0  0
    4.2858   -0.5035    0.0000 O   0  0  0  0  0  0  0  0  0  0  0  0
    2.6938    0.3110    0.0000 N   0  0  0  0  0  0  0  0  0  0  0  0
    3.2346    1.9753    0.0000 C   0  0  0  0  0  0  0  0  0  0  0  0
    2.5666    2.7195    0.0000 C   0  0  0  0  0  0  0  0  0  0  0  0
    2.8715    3.6719    0.0000 C   0  0  0  0  0  0  0  0  0  0  0  0
    3.8544    3.8823    0.0000 C   0  0  0  0  0  0  0  0  0  0  0  0
    4.5325    3.1403    0.0000 N   0  0  0  0  0  0  0  0  0  0  0  0
    4.2176    2.1857    0.0000 C   0  0  0  0  0  0  0  0  0  0  0  0
    1.7360   -0.0000    0.0000 C   0  0  0  0  0  0  0  0  0  0  0  0
  1  2  1  0  0  0  0
  2  3  2  0  0  0  0
  2  4  1  0  0  0  0
  4 21  2  0  0  0  0
  4  5  1  0  0  0  0
  5  6  2  0  0  0  0
  6  7  1  0  0  0  0
  7  8  1  0  0  0  0
  8  9  3  0  0  0  0
  7 10  2  0  0  0  0
 10 21  1  0  0  0  0
 10 11  1  0  0  0  0
 11 12  1  0  0  0  0
 12 13  2  0  0  0  0
 12 14  1  0  0  0  0
 14 15  1  0  0  0  0
 15 20  2  0  0  0  0
 15 16  1  0  0  0  0
 16 17  2  0  0  0  0
 17 18  1  0  0  0  0
 18 19  2  0  0  0  0
 19 20  1  0  0  0  0
 14 21  1  0  0  0  0
M  END
$$$$
CHR-SOS-363-1
  -OEChem-03232022352D

 18 19  0     0  0  0  0  0  0999 V2000
   -2.5981   -0.5050    0.0000 N   0  0  0  0  0  0  0  0  0  0  0  0
   -1.7328   -0.0038    0.0000 C   0  0  0  0  0  0  0  0  0  0  0  0
   -0.8675    0.4975    0.0000 C   0  0  0  0  0  0  0  0  0  0  0  0
   -0.8675    1.5027    0.0000 C   0  0  0  0  0  0  0  0  0  0  0  0
    0.0000    2.0104    0.0000 N   0  0  0  0  0  0  0  0  0  0  0  0
    0.8675    1.5027    0.0000 C   0  0  0  0  0  0  0  0  0  0  0  0
    0.8675    0.4975    0.0000 C   0  0  0  0  0  0  0  0  0  0  0  0
    1.7328   -0.0038    0.0000 N   0  0  0  0  0  0  0  0  0  0  0  0
    2.5995    0.4950    0.0000 C   0  0  0  0  0  0  0  0  0  0  0  0
    2.6010    1.4950    0.0000 O   0  0  0  0  0  0  0  0  0  0  0  0
    3.4648   -0.0063    0.0000 N   0  0  0  0  0  0  0  0  0  0  0  0
    4.3316    0.4925    0.0000 C   0  0  0  0  0  0  0  0  0  0  0  0
    4.3345    1.4925    0.0000 C   0  0  0  0  0  0  0  0  0  0  0  0
    5.1991    1.9950    0.0000 C   0  0  0  0  0  0  0  0  0  0  0  0
    6.0696    1.4924    0.0000 C   0  0  0  0  0  0  0  0  0  0  0  0
    6.0756    0.4873    0.0000 N   0  0  0  0  0  0  0  0  0  0  0  0
    5.2021   -0.0101    0.0000 C   0  0  0  0  0  0  0  0  0  0  0  0
    0.0000    0.0000    0.0000 C   0  0  0  0  0  0  0  0  0  0  0  0
  1  2  3  0  0  0  0
  2  3  1  0  0  0  0
  3 18  2  0  0  0  0
  3  4  1  0  0  0  0
  4  5  2  0  0  0  0
  5  6  1  0  0  0  0
  6  7  2  0  0  0  0
  7  8  1  0  0  0  0
  8  9  1  0  0  0  0
  9 10  2  0  0  0  0
  9 11  1  0  0  0  0
 11 12  1  0  0  0  0
 12 17  2  0  0  0  0
 12 13  1  0  0  0  0
 13 14  2  0  0  0  0
 14 15  1  0  0  0  0
 15 16  2  0  0  0  0
 16 17  1  0  0  0  0
  7 18  1  0  0  0  0
M  END
$$$$
CHR-SOS-363-2
  -OEChem-03232022352D

 19 20  0     0  0  0  0  0  0999 V2000
   -0.0000   -1.0000    0.0000 C   0  0  0  0  0  0  0  0  0  0  0  0
    0.0000    0.0000    0.0000 C   0  0  0  0  0  0  0  0  0  0  0  0
   -0.8675    0.4975    0.0000 C   0  0  0  0  0  0  0  0  0  0  0  0
   -0.8675    1.5027    0.0000 C   0  0  0  0  0  0  0  0  0  0  0  0
    0.0000    2.0104    0.0000 N   0  0  0  0  0  0  0  0  0  0  0  0
    0.8675    1.5027    0.0000 C   0  0  0  0  0  0  0  0  0  0  0  0
    0.8675    0.4975    0.0000 C   0  0  0  0  0  0  0  0  0  0  0  0
    1.7328   -0.0038    0.0000 N   0  0  0  0  0  0  0  0  0  0  0  0
    2.5995    0.4950    0.0000 C   0  0  0  0  0  0  0  0  0  0  0  0
    2.6010    1.4950    0.0000 O   0  0  0  0  0  0  0  0  0  0  0  0
    3.4648   -0.0063    0.0000 N   0  0  0  0  0  0  0  0  0  0  0  0
    4.3316    0.4925    0.0000 C   0  0  0  0  0  0  0  0  0  0  0  0
    4.3345    1.4977    0.0000 C   0  0  0  0  0  0  0  0  0  0  0  0
    5.2035    2.0028    0.0000 N   0  0  0  0  0  0  0  0  0  0  0  0
    6.0695    1.4926    0.0000 C   0  0  0  0  0  0  0  0  0  0  0  0
    6.0666    0.4874    0.0000 C   0  0  0  0  0  0  0  0  0  0  0  0
    6.9304   -0.0163    0.0000 C   0  0  0  0  0  0  0  0  0  0  0  0
    7.7943   -0.5201    0.0000 N   0  0  0  0  0  0  0  0  0  0  0  0
    5.1977   -0.0075    0.0000 C   0  0  0  0  0  0  0  0  0  0  0  0
  1  2  1  0  0  0  0
  2  7  2  0  0  0  0
  2  3  1  0  0  0  0
  3  4  2  0  0  0  0
  4  5  1  0  0  0  0
  5  6  2  0  0  0  0
  6  7  1  0  0  0  0
  7  8  1  0  0  0  0
  8  9  1  0  0  0  0
  9 10  2  0  0  0  0
  9 11  1  0  0  0  0
 11 12  1  0  0  0  0
 12 19  2  0  0  0  0
 12 13  1  0  0  0  0
 13 14  2  0  0  0  0
 14 15  1  0  0  0  0
 15 16  2  0  0  0  0
 16 17  1  0  0  0  0
 17 18  3  0  0  0  0
 16 19  1  0  0  0  0
M  END
$$$$
CHR-SOS-363-3
  -OEChem-03232022352D

 25 27  0     0  0  0  0  0  0999 V2000
   -2.5981   -0.5050    0.0000 N   0  0  0  0  0  0  0  0  0  0  0  0
   -1.7328   -0.0038    0.0000 C   0  0  0  0  0  0  0  0  0  0  0  0
   -0.8675    0.4975    0.0000 C   0  0  0  0  0  0  0  0  0  0  0  0
   -0.8675    1.5027    0.0000 C   0  0  0  0  0  0  0  0  0  0  0  0
    0.0000    2.0104    0.0000 N   0  0  0  0  0  0  0  0  0  0  0  0
    0.8675    1.5027    0.0000 C   0  0  0  0  0  0  0  0  0  0  0  0
    0.8675    0.4975    0.0000 C   0  0  0  0  0  0  0  0  0  0  0  0
    1.7328   -0.0038    0.0000 N   0  0  0  0  0  0  0  0  0  0  0  0
    2.5995    0.4950    0.0000 C   0  0  0  0  0  0  0  0  0  0  0  0
    2.6010    1.4950    0.0000 O   0  0  0  0  0  0  0  0  0  0  0  0
    3.4648   -0.0063    0.0000 N   0  0  0  0  0  0  0  0  0  0  0  0
    4.3316    0.4925    0.0000 C   0  0  0  0  0  0  0  0  0  0  0  0
    4.3345    1.4925    0.0000 C   0  0  0  0  0  0  0  0  0  0  0  0
    5.1991    1.9950    0.0000 C   0  0  0  0  0  0  0  0  0  0  0  0
    6.0696    1.4924    0.0000 C   0  0  0  0  0  0  0  0  0  0  0  0
    6.0756    0.4873    0.0000 N   0  0  0  0  0  0  0  0  0  0  0  0
    5.2021   -0.0101    0.0000 C   0  0  0  0  0  0  0  0  0  0  0  0
    0.0000    0.0000    0.0000 C   0  0  0  0  0  0  0  0  0  0  0  0
   -0.0000   -1.0000    0.0000 O   0  0  0  0  0  0  0  0  0  0  0  0
    0.8660   -1.5000    0.0000 C   0  0  0  0  0  0  0  0  0  0  0  0
    1.7351   -0.9948    0.0000 C   0  0  0  0  0  0  0  0  0  0  0  0
    2.6011   -1.4948    0.0000 C   0  0  0  0  0  0  0  0  0  0  0  0
    2.6070   -2.4948    0.0000 C   0  0  0  0  0  0  0  0  0  0  0  0
    1.7380   -3.0000    0.0000 C   0  0  0  0  0  0  0  0  0  0  0  0
    0.8631   -2.5051    0.0000 C   0  0  0  0  0  0  0  0  0  0  0  0
  1  2  3  0  0  0  0
  2  3  1  0  0  0  0
  3 18  2  0  0  0  0
  3  4  1  0  0  0  0
  4  5  2  0  0  0  0
  5  6  1  0  0  0  0
  6  7  2  0  0  0  0
  7  8  1  0  0  0  0
  8  9  1  0  0  0  0
  9 10  2  0  0  0  0
  9 11  1  0  0  0  0
 11 12  1  0  0  0  0
 12 17  2  0  0  0  0
 12 13  1  0  0  0  0
 13 14  2  0  0  0  0
 14 15  1  0  0  0  0
 15 16  2  0  0  0  0
 16 17  1  0  0  0  0
  7 18  1  0  0  0  0
 18 19  1  0  0  0  0
 19 20  1  0  0  0  0
 20 25  2  0  0  0  0
 20 21  1  0  0  0  0
 21 22  2  0  0  0  0
 22 23  1  0  0  0  0
 23 24  2  0  0  0  0
 24 25  1  0  0  0  0
M  END
$$$$
CHR-SOS-363-4
  -OEChem-03232022352D

 29 31  0     0  0  0  0  0  0999 V2000
   -2.5981   -0.5050    0.0000 N   0  0  0  0  0  0  0  0  0  0  0  0
   -1.7328   -0.0038    0.0000 C   0  0  0  0  0  0  0  0  0  0  0  0
   -0.8675    0.4975    0.0000 C   0  0  0  0  0  0  0  0  0  0  0  0
   -0.8675    1.5027    0.0000 C   0  0  0  0  0  0  0  0  0  0  0  0
    0.0000    2.0104    0.0000 N   0  0  0  0  0  0  0  0  0  0  0  0
    0.8675    1.5027    0.0000 C   0  0  0  0  0  0  0  0  0  0  0  0
    0.8675    0.4975    0.0000 C   0  0  0  0  0  0  0  0  0  0  0  0
    1.7328   -0.0038    0.0000 N   0  0  0  0  0  0  0  0  0  0  0  0
    2.5995    0.4950    0.0000 C   0  0  0  0  0  0  0  0  0  0  0  0
    2.6010    1.4950    0.0000 O   0  0  0  0  0  0  0  0  0  0  0  0
    3.4648   -0.0063    0.0000 N   0  0  0  0  0  0  0  0  0  0  0  0
    4.3316    0.4925    0.0000 C   0  0  0  0  0  0  0  0  0  0  0  0
    4.3345    1.4925    0.0000 C   0  0  0  0  0  0  0  0  0  0  0  0
    5.1991    1.9950    0.0000 C   0  0  0  0  0  0  0  0  0  0  0  0
    6.0696    1.4924    0.0000 C   0  0  0  0  0  0  0  0  0  0  0  0
    6.0756    0.4873    0.0000 N   0  0  0  0  0  0  0  0  0  0  0  0
    5.2021   -0.0101    0.0000 C   0  0  0  0  0  0  0  0  0  0  0  0
    0.0000    0.0000    0.0000 C   0  0  0  0  0  0  0  0  0  0  0  0
   -0.0000   -1.0000    0.0000 O   0  0  0  0  0  0  0  0  0  0  0  0
    0.8660   -1.5000    0.0000 C   0  0  0  0  0  0  0  0  0  0  0  0
    1.7351   -0.9948    0.0000 C   0  0  0  0  0  0  0  0  0  0  0  0
    2.6011   -1.4948    0.0000 C   0  0  0  0  0  0  0  0  0  0  0  0
    2.6070   -2.4948    0.0000 C   0  0  0  0  0  0  0  0  0  0  0  0
    3.4752   -2.9910    0.0000 S   0  0  0  0  0  0  0  0  0  0  0  0
    4.3434   -3.4872    0.0000 N   0  0  0  0  0  0  0  0  0  0  0  0
    3.9714   -2.1228    0.0000 O   0  0  0  0  0  0  0  0  0  0  0  0
    2.9790   -3.8592    0.0000 O   0  0  0  0  0  0  0  0  0  0  0  0
    1.7380   -3.0000    0.0000 C   0  0  0  0  0  0  0  0  0  0  0  0
    0.8631   -2.5051    0.0000 C   0  0  0  0  0  0  0  0  0  0  0  0
  1  2  3  0  0  0  0
  2  3  1  0  0  0  0
  3 18  2  0  0  0  0
  3  4  1  0  0  0  0
  4  5  2  0  0  0  0
  5  6  1  0  0  0  0
  6  7  2  0  0  0  0
  7  8  1  0  0  0  0
  8  9  1  0  0  0  0
  9 10  2  0  0  0  0
  9 11  1  0  0  0  0
 11 12  1  0  0  0  0
 12 17  2  0  0  0  0
 12 13  1  0  0  0  0
 13 14  2  0  0  0  0
 14 15  1  0  0  0  0
 15 16  2  0  0  0  0
 16 17  1  0  0  0  0
  7 18  1  0  0  0  0
 18 19  1  0  0  0  0
 19 20  1  0  0  0  0
 20 29  2  0  0  0  0
 20 21  1  0  0  0  0
 21 22  2  0  0  0  0
 22 23  1  0  0  0  0
 23 24  1  0  0  0  0
 24 25  1  0  0  0  0
 24 26  2  0  0  0  0
 24 27  2  0  0  0  0
 23 28  2  0  0  0  0
 28 29  1  0  0  0  0
M  END
$$$$
CHR-SOS-363-5
  -OEChem-03232022352D

 29 31  0     0  0  0  0  0  0999 V2000
   -2.5981   -0.5050    0.0000 N   0  0  0  0  0  0  0  0  0  0  0  0
   -1.7328   -0.0038    0.0000 C   0  0  0  0  0  0  0  0  0  0  0  0
   -0.8675    0.4975    0.0000 C   0  0  0  0  0  0  0  0  0  0  0  0
   -0.8675    1.5027    0.0000 C   0  0  0  0  0  0  0  0  0  0  0  0
    0.0000    2.0104    0.0000 N   0  0  0  0  0  0  0  0  0  0  0  0
    0.8675    1.5027    0.0000 C   0  0  0  0  0  0  0  0  0  0  0  0
    0.8675    0.4975    0.0000 C   0  0  0  0  0  0  0  0  0  0  0  0
    1.7328   -0.0038    0.0000 N   0  0  0  0  0  0  0  0  0  0  0  0
    2.5995    0.4950    0.0000 C   0  0  0  0  0  0  0  0  0  0  0  0
    2.6010    1.4950    0.0000 O   0  0  0  0  0  0  0  0  0  0  0  0
    3.4648   -0.0063    0.0000 N   0  0  0  0  0  0  0  0  0  0  0  0
    4.3316    0.4925    0.0000 C   0  0  0  0  0  0  0  0  0  0  0  0
    4.3345    1.4925    0.0000 C   0  0  0  0  0  0  0  0  0  0  0  0
    5.1991    1.9950    0.0000 C   0  0  0  0  0  0  0  0  0  0  0  0
    6.0696    1.4924    0.0000 C   0  0  0  0  0  0  0  0  0  0  0  0
    6.0756    0.4873    0.0000 N   0  0  0  0  0  0  0  0  0  0  0  0
    5.2021   -0.0101    0.0000 C   0  0  0  0  0  0  0  0  0  0  0  0
    0.0000    0.0000    0.0000 C   0  0  0  0  0  0  0  0  0  0  0  0
   -0.0000   -1.0000    0.0000 O   0  0  0  0  0  0  0  0  0  0  0  0
   -0.8660   -1.5000    0.0000 C   0  0  0  0  0  0  0  0  0  0  0  0
   -1.7351   -0.9948    0.0000 C   0  0  0  0  0  0  0  0  0  0  0  0
   -2.6011   -1.4948    0.0000 C   0  0  0  0  0  0  0  0  0  0  0  0
   -2.6070   -2.4948    0.0000 C   0  0  0  0  0  0  0  0  0  0  0  0
   -1.7380   -3.0000    0.0000 C   0  0  0  0  0  0  0  0  0  0  0  0
   -1.7439   -4.0000    0.0000 S   0  0  0  0  0  0  0  0  0  0  0  0
   -1.7498   -5.0000    0.0000 N   0  0  0  0  0  0  0  0  0  0  0  0
   -0.7439   -4.0059    0.0000 O   0  0  0  0  0  0  0  0  0  0  0  0
   -2.7438   -3.9941    0.0000 O   0  0  0  0  0  0  0  0  0  0  0  0
   -0.8631   -2.5051    0.0000 C   0  0  0  0  0  0  0  0  0  0  0  0
  1  2  3  0  0  0  0
  2  3  1  0  0  0  0
  3 18  2  0  0  0  0
  3  4  1  0  0  0  0
  4  5  2  0  0  0  0
  5  6  1  0  0  0  0
  6  7  2  0  0  0  0
  7  8  1  0  0  0  0
  8  9  1  0  0  0  0
  9 10  2  0  0  0  0
  9 11  1  0  0  0  0
 11 12  1  0  0  0  0
 12 17  2  0  0  0  0
 12 13  1  0  0  0  0
 13 14  2  0  0  0  0
 14 15  1  0  0  0  0
 15 16  2  0  0  0  0
 16 17  1  0  0  0  0
  7 18  1  0  0  0  0
 18 19  1  0  0  0  0
 19 20  1  0  0  0  0
 20 29  2  0  0  0  0
 20 21  1  0  0  0  0
 21 22  2  0  0  0  0
 22 23  1  0  0  0  0
 23 24  2  0  0  0  0
 24 25  1  0  0  0  0
 25 26  1  0  0  0  0
 25 27  2  0  0  0  0
 25 28  2  0  0  0  0
 24 29  1  0  0  0  0
M  END
$$$$
CHR-SOS-363-6
  -OEChem-03232022352D

 30 32  0     0  0  0  0  0  0999 V2000
   -0.0000   -1.0000    0.0000 C   0  0  0  0  0  0  0  0  0  0  0  0
    0.0000    0.0000    0.0000 C   0  0  0  0  0  0  0  0  0  0  0  0
   -0.8675    0.4975    0.0000 C   0  0  0  0  0  0  0  0  0  0  0  0
   -0.8675    1.5027    0.0000 C   0  0  0  0  0  0  0  0  0  0  0  0
    0.0000    2.0104    0.0000 N   0  0  0  0  0  0  0  0  0  0  0  0
    0.8675    1.5027    0.0000 C   0  0  0  0  0  0  0  0  0  0  0  0
    0.8675    0.4975    0.0000 C   0  0  0  0  0  0  0  0  0  0  0  0
    1.7328   -0.0038    0.0000 N   0  0  0  0  0  0  0  0  0  0  0  0
    2.5995    0.4950    0.0000 C   0  0  0  0  0  0  0  0  0  0  0  0
    2.6010    1.4950    0.0000 O   0  0  0  0  0  0  0  0  0  0  0  0
    3.4648   -0.0063    0.0000 N   0  0  0  0  0  0  0  0  0  0  0  0
    4.3316    0.4925    0.0000 C   0  0  0  0  0  0  0  0  0  0  0  0
    4.3345    1.4977    0.0000 C   0  0  0  0  0  0  0  0  0  0  0  0
    5.2035    2.0028    0.0000 N   0  0  0  0  0  0  0  0  0  0  0  0
    6.0695    1.4926    0.0000 C   0  0  0  0  0  0  0  0  0  0  0  0
    6.0666    0.4874    0.0000 C   0  0  0  0  0  0  0  0  0  0  0  0
    6.9304   -0.0163    0.0000 C   0  0  0  0  0  0  0  0  0  0  0  0
    7.7943   -0.5201    0.0000 N   0  0  0  0  0  0  0  0  0  0  0  0
    5.1977   -0.0075    0.0000 C   0  0  0  0  0  0  0  0  0  0  0  0
    5.1947   -1.0075    0.0000 O   0  0  0  0  0  0  0  0  0  0  0  0
    6.0593   -1.5100    0.0000 C   0  0  0  0  0  0  0  0  0  0  0  0
    6.9298   -1.0074    0.0000 C   0  0  0  0  0  0  0  0  0  0  0  0
    7.7944   -1.5099    0.0000 C   0  0  0  0  0  0  0  0  0  0  0  0
    7.7974   -2.5099    0.0000 C   0  0  0  0  0  0  0  0  0  0  0  0
    6.9269   -3.0126    0.0000 C   0  0  0  0  0  0  0  0  0  0  0  0
    6.9299   -4.0126    0.0000 S   0  0  0  0  0  0  0  0  0  0  0  0
    6.9329   -5.0126    0.0000 N   0  0  0  0  0  0  0  0  0  0  0  0
    5.9299   -4.0156    0.0000 O   0  0  0  0  0  0  0  0  0  0  0  0
    7.9299   -4.0096    0.0000 O   0  0  0  0  0  0  0  0  0  0  0  0
    6.0534   -2.5152    0.0000 C   0  0  0  0  0  0  0  0  0  0  0  0
  1  2  1  0  0  0  0
  2  7  2  0  0  0  0
  2  3  1  0  0  0  0
  3  4  2  0  0  0  0
  4  5  1  0  0  0  0
  5  6  2  0  0  0  0
  6  7  1  0  0  0  0
  7  8  1  0  0  0  0
  8  9  1  0  0  0  0
  9 10  2  0  0  0  0
  9 11  1  0  0  0  0
 11 12  1  0  0  0  0
 12 19  2  0  0  0  0
 12 13  1  0  0  0  0
 13 14  2  0  0  0  0
 14 15  1  0  0  0  0
 15 16  2  0  0  0  0
 16 17  1  0  0  0  0
 17 18  3  0  0  0  0
 16 19  1  0  0  0  0
 19 20  1  0  0  0  0
 20 21  1  0  0  0  0
 21 30  2  0  0  0  0
 21 22  1  0  0  0  0
 22 23  2  0  0  0  0
 23 24  1  0  0  0  0
 24 25  2  0  0  0  0
 25 26  1  0  0  0  0
 26 27  1  0  0  0  0
 26 28  2  0  0  0  0
 26 29  2  0  0  0  0
 25 30  1  0  0  0  0
M  END
$$$$
CHR-SOS-363-7
  -OEChem-03232022352D

 26 28  0     0  0  0  0  0  0999 V2000
   -0.0000   -1.0000    0.0000 C   0  0  0  0  0  0  0  0  0  0  0  0
    0.0000    0.0000    0.0000 C   0  0  0  0  0  0  0  0  0  0  0  0
   -0.8675    0.4975    0.0000 C   0  0  0  0  0  0  0  0  0  0  0  0
   -0.8675    1.5027    0.0000 C   0  0  0  0  0  0  0  0  0  0  0  0
    0.0000    2.0104    0.0000 N   0  0  0  0  0  0  0  0  0  0  0  0
    0.8675    1.5027    0.0000 C   0  0  0  0  0  0  0  0  0  0  0  0
    0.8675    0.4975    0.0000 C   0  0  0  0  0  0  0  0  0  0  0  0
    1.7328   -0.0038    0.0000 N   0  0  0  0  0  0  0  0  0  0  0  0
    2.5995    0.4950    0.0000 C   0  0  0  0  0  0  0  0  0  0  0  0
    2.6010    1.4950    0.0000 O   0  0  0  0  0  0  0  0  0  0  0  0
    3.4648   -0.0063    0.0000 N   0  0  0  0  0  0  0  0  0  0  0  0
    4.3316    0.4925    0.0000 C   0  0  0  0  0  0  0  0  0  0  0  0
    4.3345    1.4977    0.0000 C   0  0  0  0  0  0  0  0  0  0  0  0
    5.2035    2.0028    0.0000 N   0  0  0  0  0  0  0  0  0  0  0  0
    6.0695    1.4926    0.0000 C   0  0  0  0  0  0  0  0  0  0  0  0
    6.0666    0.4874    0.0000 C   0  0  0  0  0  0  0  0  0  0  0  0
    6.9304   -0.0163    0.0000 C   0  0  0  0  0  0  0  0  0  0  0  0
    7.7943   -0.5201    0.0000 N   0  0  0  0  0  0  0  0  0  0  0  0
    5.1977   -0.0075    0.0000 C   0  0  0  0  0  0  0  0  0  0  0  0
    5.1947   -1.0075    0.0000 O   0  0  0  0  0  0  0  0  0  0  0  0
    6.0593   -1.5100    0.0000 C   0  0  0  0  0  0  0  0  0  0  0  0
    6.9298   -1.0074    0.0000 C   0  0  0  0  0  0  0  0  0  0  0  0
    7.7944   -1.5099    0.0000 C   0  0  0  0  0  0  0  0  0  0  0  0
    7.7974   -2.5099    0.0000 C   0  0  0  0  0  0  0  0  0  0  0  0
    6.9269   -3.0126    0.0000 C   0  0  0  0  0  0  0  0  0  0  0  0
    6.0534   -2.5152    0.0000 C   0  0  0  0  0  0  0  0  0  0  0  0
  1  2  1  0  0  0  0
  2  7  2  0  0  0  0
  2  3  1  0  0  0  0
  3  4  2  0  0  0  0
  4  5  1  0  0  0  0
  5  6  2  0  0  0  0
  6  7  1  0  0  0  0
  7  8  1  0  0  0  0
  8  9  1  0  0  0  0
  9 10  2  0  0  0  0
  9 11  1  0  0  0  0
 11 12  1  0  0  0  0
 12 19  2  0  0  0  0
 12 13  1  0  0  0  0
 13 14  2  0  0  0  0
 14 15  1  0  0  0  0
 15 16  2  0  0  0  0
 16 17  1  0  0  0  0
 17 18  3  0  0  0  0
 16 19  1  0  0  0  0
 19 20  1  0  0  0  0
 20 21  1  0  0  0  0
 21 26  2  0  0  0  0
 21 22  1  0  0  0  0
 22 23  2  0  0  0  0
 23 24  1  0  0  0  0
 24 25  2  0  0  0  0
 25 26  1  0  0  0  0
M  END
$$$$
CHR-SOS-363-8
  -OEChem-03232022352D

 30 32  0     0  0  0  0  0  0999 V2000
   -0.0000   -1.0000    0.0000 C   0  0  0  0  0  0  0  0  0  0  0  0
    0.0000    0.0000    0.0000 C   0  0  0  0  0  0  0  0  0  0  0  0
   -0.8675    0.4975    0.0000 C   0  0  0  0  0  0  0  0  0  0  0  0
   -0.8675    1.5027    0.0000 C   0  0  0  0  0  0  0  0  0  0  0  0
    0.0000    2.0104    0.0000 N   0  0  0  0  0  0  0  0  0  0  0  0
    0.8675    1.5027    0.0000 C   0  0  0  0  0  0  0  0  0  0  0  0
    0.8675    0.4975    0.0000 C   0  0  0  0  0  0  0  0  0  0  0  0
    1.7328   -0.0038    0.0000 N   0  0  0  0  0  0  0  0  0  0  0  0
    2.5995    0.4950    0.0000 C   0  0  0  0  0  0  0  0  0  0  0  0
    2.6010    1.4950    0.0000 O   0  0  0  0  0  0  0  0  0  0  0  0
    3.4648   -0.0063    0.0000 N   0  0  0  0  0  0  0  0  0  0  0  0
    4.3316    0.4925    0.0000 C   0  0  0  0  0  0  0  0  0  0  0  0
    4.3345    1.4977    0.0000 C   0  0  0  0  0  0  0  0  0  0  0  0
    5.2035    2.0028    0.0000 N   0  0  0  0  0  0  0  0  0  0  0  0
    6.0695    1.4926    0.0000 C   0  0  0  0  0  0  0  0  0  0  0  0
    6.0666    0.4874    0.0000 C   0  0  0  0  0  0  0  0  0  0  0  0
    6.9304   -0.0163    0.0000 C   0  0  0  0  0  0  0  0  0  0  0  0
    7.7943   -0.5201    0.0000 N   0  0  0  0  0  0  0  0  0  0  0  0
    5.1977   -0.0075    0.0000 C   0  0  0  0  0  0  0  0  0  0  0  0
    5.1947   -1.0075    0.0000 O   0  0  0  0  0  0  0  0  0  0  0  0
    6.0593   -1.5100    0.0000 C   0  0  0  0  0  0  0  0  0  0  0  0
    6.9298   -1.0074    0.0000 C   0  0  0  0  0  0  0  0  0  0  0  0
    7.7944   -1.5099    0.0000 C   0  0  0  0  0  0  0  0  0  0  0  0
    7.7974   -2.5099    0.0000 C   0  0  0  0  0  0  0  0  0  0  0  0
    8.6642   -3.0086    0.0000 S   0  0  0  0  0  0  0  0  0  0  0  0
    9.5309   -3.5073    0.0000 N   0  0  0  0  0  0  0  0  0  0  0  0
    9.1629   -2.1418    0.0000 O   0  0  0  0  0  0  0  0  0  0  0  0
    8.1655   -3.8754    0.0000 O   0  0  0  0  0  0  0  0  0  0  0  0
    6.9269   -3.0126    0.0000 C   0  0  0  0  0  0  0  0  0  0  0  0
    6.0534   -2.5152    0.0000 C   0  0  0  0  0  0  0  0  0  0  0  0
  1  2  1  0  0  0  0
  2  7  2  0  0  0  0
  2  3  1  0  0  0  0
  3  4  2  0  0  0  0
  4  5  1  0  0  0  0
  5  6  2  0  0  0  0
  6  7  1  0  0  0  0
  7  8  1  0  0  0  0
  8  9  1  0  0  0  0
  9 10  2  0  0  0  0
  9 11  1  0  0  0  0
 11 12  1  0  0  0  0
 12 19  2  0  0  0  0
 12 13  1  0  0  0  0
 13 14  2  0  0  0  0
 14 15  1  0  0  0  0
 15 16  2  0  0  0  0
 16 17  1  0  0  0  0
 17 18  3  0  0  0  0
 16 19  1  0  0  0  0
 19 20  1  0  0  0  0
 20 21  1  0  0  0  0
 21 30  2  0  0  0  0
 21 22  1  0  0  0  0
 22 23  2  0  0  0  0
 23 24  1  0  0  0  0
 24 25  1  0  0  0  0
 25 26  1  0  0  0  0
 25 27  2  0  0  0  0
 25 28  2  0  0  0  0
 24 29  2  0  0  0  0
 29 30  1  0  0  0  0
M  END
$$$$
JOH-MSK-35a-1
  -OEChem-03232022352D

 17 18  0     0  0  0  0  0  0999 V2000
   -1.7320   -0.0025    0.0000 C   0  0  0  0  0  0  0  0  0  0  0  0
   -0.8653   -0.5013    0.0000 O   0  0  0  0  0  0  0  0  0  0  0  0
    0.0000    0.0000    0.0000 C   0  0  0  0  0  0  0  0  0  0  0  0
    0.0000    1.0058    0.0000 C   0  0  0  0  0  0  0  0  0  0  0  0
    0.8680    1.5138    0.0000 C   0  0  0  0  0  0  0  0  0  0  0  0
    1.7360    1.0058    0.0000 C   0  0  0  0  0  0  0  0  0  0  0  0
    2.6938    1.3169    0.0000 N   0  0  0  0  0  0  0  0  0  0  0  0
    3.2858    0.5023    0.0000 C   0  0  0  0  0  0  0  0  0  0  0  0
    2.6938   -0.3125    0.0000 C   0  0  0  0  0  0  0  0  0  0  0  0
    3.0028   -1.2636    0.0000 C   0  0  0  0  0  0  0  0  0  0  0  0
    3.9809   -1.4715    0.0000 C   0  0  0  0  0  0  0  0  0  0  0  0
    4.2899   -2.4226    0.0000 N   0  0  0  0  0  0  0  0  0  0  0  0
    5.2680   -2.6306    0.0000 C   0  0  0  0  0  0  0  0  0  0  0  0
    5.5770   -3.5816    0.0000 C   0  0  0  0  0  0  0  0  0  0  0  0
    5.9372   -1.8874    0.0000 O   0  0  0  0  0  0  0  0  0  0  0  0
    1.7360   -0.0012    0.0000 C   0  0  0  0  0  0  0  0  0  0  0  0
    0.8680   -0.4978    0.0000 C   0  0  0  0  0  0  0  0  0  0  0  0
  1  2  1  0  0  0  0
  2  3  1  0  0  0  0
  3 17  2  0  0  0  0
  3  4  1  0  0  0  0
  4  5  2  0  0  0  0
  5  6  1  0  0  0  0
  6 16  2  0  0  0  0
  6  7  1  0  0  0  0
  7  8  1  0  0  0  0
  8  9  2  0  0  0  0
  9 10  1  0  0  0  0
 10 11  1  0  0  0  0
 11 12  1  0  0  0  0
 12 13  1  0  0  0  0
 13 14  1  0  0  0  0
 13 15  2  0  0  0  0
  9 16  1  0  0  0  0
 16 17  1  0  0  0  0
M  END
$$$$
PAT-GYR-359-1
  -OEChem-03232022352D

 18 19  0     0  0  0  0  0  0999 V2000
   -4.3374   -5.4925    0.0000 C   0  0  0  0  0  0  0  0  0  0  0  0
   -3.4692   -4.9964    0.0000 C   0  0  0  0  0  0  0  0  0  0  0  0
   -2.6010   -4.5002    0.0000 C   0  0  0  0  0  0  0  0  0  0  0  0
   -2.5995   -3.4950    0.0000 C   0  0  0  0  0  0  0  0  0  0  0  0
   -1.7313   -2.9987    0.0000 C   0  0  0  0  0  0  0  0  0  0  0  0
   -0.8646   -3.4975    0.0000 C   0  0  0  0  0  0  0  0  0  0  0  0
    0.0015   -2.9975    0.0000 C   0  0  0  0  0  0  0  0  0  0  0  0
    0.0015   -1.9975    0.0000 N   0  0  0  0  0  0  0  0  0  0  0  0
    0.8675   -1.4975    0.0000 C   0  0  0  0  0  0  0  0  0  0  0  0
    1.7335   -1.9975    0.0000 O   0  0  0  0  0  0  0  0  0  0  0  0
    0.8675   -0.4975    0.0000 N   0  0  0  0  0  0  0  0  0  0  0  0
    0.0000    0.0000    0.0000 C   0  0  0  0  0  0  0  0  0  0  0  0
   -0.0000    1.0052    0.0000 C   0  0  0  0  0  0  0  0  0  0  0  0
    0.8675    1.5129    0.0000 O   0  0  0  0  0  0  0  0  0  0  0  0
    1.7350    1.0052    0.0000 C   0  0  0  0  0  0  0  0  0  0  0  0
    1.7350    0.0000    0.0000 C   0  0  0  0  0  0  0  0  0  0  0  0
   -0.8660   -4.5027    0.0000 C   0  0  0  0  0  0  0  0  0  0  0  0
   -1.7342   -5.0091    0.0000 C   0  0  0  0  0  0  0  0  0  0  0  0
  1  2  3  0  0  0  0
  2  3  1  0  0  0  0
  3 18  2  0  0  0  0
  3  4  1  0  0  0  0
  4  5  2  0  0  0  0
  5  6  1  0  0  0  0
  6  7  1  0  0  0  0
  7  8  1  0  0  0  0
  8  9  1  0  0  0  0
  9 10  2  0  0  0  0
  9 11  1  0  0  0  0
 11 16  1  0  0  0  0
 11 12  1  0  0  0  0
 12 13  1  0  0  0  0
 13 14  1  0  0  0  0
 14 15  1  0  0  0  0
 15 16  1  0  0  0  0
  6 17  2  0  0  0  0
 17 18  1  0  0  0  0
M  END
$$$$
PAT-GYR-359-2
  -OEChem-03232022352D

 19 20  0     0  0  0  0  0  0999 V2000
    1.7335   -1.9975    0.0000 O   0  0  0  0  0  0  0  0  0  0  0  0
    0.8675   -1.4975    0.0000 C   0  0  0  0  0  0  0  0  0  0  0  0
    0.0015   -1.9975    0.0000 N   0  0  0  0  0  0  0  0  0  0  0  0
    0.0015   -2.9975    0.0000 C   0  0  0  0  0  0  0  0  0  0  0  0
   -0.8646   -3.4975    0.0000 C   0  0  0  0  0  0  0  0  0  0  0  0
   -0.8616   -4.5027    0.0000 C   0  0  0  0  0  0  0  0  0  0  0  0
   -1.7276   -5.0028    0.0000 C   0  0  0  0  0  0  0  0  0  0  0  0
   -2.5966   -4.5078    0.0000 C   0  0  0  0  0  0  0  0  0  0  0  0
   -3.4604   -5.0116    0.0000 C   0  0  0  0  0  0  0  0  0  0  0  0
   -4.3242   -5.5154    0.0000 C   0  0  0  0  0  0  0  0  0  0  0  0
   -5.1880   -6.0192    0.0000 Br  0  0  0  0  0  0  0  0  0  0  0  0
   -2.5995   -3.5026    0.0000 C   0  0  0  0  0  0  0  0  0  0  0  0
   -1.7335   -2.9924    0.0000 C   0  0  0  0  0  0  0  0  0  0  0  0
    0.8675   -0.4975    0.0000 N   0  0  0  0  0  0  0  0  0  0  0  0
    0.0000    0.0000    0.0000 C   0  0  0  0  0  0  0  0  0  0  0  0
   -0.0000    1.0052    0.0000 C   0  0  0  0  0  0  0  0  0  0  0  0
    0.8675    1.5129    0.0000 O   0  0  0  0  0  0  0  0  0  0  0  0
    1.7350    1.0052    0.0000 C   0  0  0  0  0  0  0  0  0  0  0  0
    1.7350    0.0000    0.0000 C   0  0  0  0  0  0  0  0  0  0  0  0
  1  2  2  0  0  0  0
  2  3  1  0  0  0  0
  3  4  1  0  0  0  0
  4  5  1  0  0  0  0
  5 13  2  0  0  0  0
  5  6  1  0  0  0  0
  6  7  2  0  0  0  0
  7  8  1  0  0  0  0
  8  9  1  0  0  0  0
  9 10  3  0  0  0  0
 10 11  1  0  0  0  0
  8 12  2  0  0  0  0
 12 13  1  0  0  0  0
  2 14  1  0  0  0  0
 14 19  1  0  0  0  0
 14 15  1  0  0  0  0
 15 16  1  0  0  0  0
 16 17  1  0  0  0  0
 17 18  1  0  0  0  0
 18 19  1  0  0  0  0
M  END
$$$$
PAT-GYR-359-3
  -OEChem-03232022352D

 22 23  0     0  0  0  0  0  0999 V2000
   -6.0783   -7.4849    0.0000 C   0  0  0  0  0  0  0  0  0  0  0  0
   -5.2101   -6.9887    0.0000 O   0  0  0  0  0  0  0  0  0  0  0  0
   -5.2057   -5.9887    0.0000 C   0  0  0  0  0  0  0  0  0  0  0  0
   -6.0695   -5.4849    0.0000 O   0  0  0  0  0  0  0  0  0  0  0  0
   -4.3374   -5.4925    0.0000 C   0  0  0  0  0  0  0  0  0  0  0  0
   -3.4692   -4.9964    0.0000 C   0  0  0  0  0  0  0  0  0  0  0  0
   -2.6010   -4.5002    0.0000 C   0  0  0  0  0  0  0  0  0  0  0  0
   -2.5995   -3.4950    0.0000 C   0  0  0  0  0  0  0  0  0  0  0  0
   -1.7313   -2.9987    0.0000 C   0  0  0  0  0  0  0  0  0  0  0  0
   -0.8646   -3.4975    0.0000 C   0  0  0  0  0  0  0  0  0  0  0  0
    0.0015   -2.9975    0.0000 C   0  0  0  0  0  0  0  0  0  0  0  0
    0.0015   -1.9975    0.0000 N   0  0  0  0  0  0  0  0  0  0  0  0
    0.8675   -1.4975    0.0000 C   0  0  0  0  0  0  0  0  0  0  0  0
    1.7335   -1.9975    0.0000 O   0  0  0  0  0  0  0  0  0  0  0  0
    0.8675   -0.4975    0.0000 N   0  0  0  0  0  0  0  0  0  0  0  0
    0.0000    0.0000    0.0000 C   0  0  0  0  0  0  0  0  0  0  0  0
   -0.0000    1.0052    0.0000 C   0  0  0  0  0  0  0  0  0  0  0  0
    0.8675    1.5129    0.0000 O   0  0  0  0  0  0  0  0  0  0  0  0
    1.7350    1.0052    0.0000 C   0  0  0  0  0  0  0  0  0  0  0  0
    1.7350    0.0000    0.0000 C   0  0  0  0  0  0  0  0  0  0  0  0
   -0.8660   -4.5027    0.0000 C   0  0  0  0  0  0  0  0  0  0  0  0
   -1.7342   -5.0091    0.0000 C   0  0  0  0  0  0  0  0  0  0  0  0
  1  2  1  0  0  0  0
  2  3  1  0  0  0  0
  3  4  2  0  0  0  0
  3  5  1  0  0  0  0
  5  6  3  0  0  0  0
  6  7  1  0  0  0  0
  7 22  2  0  0  0  0
  7  8  1  0  0  0  0
  8  9  2  0  0  0  0
  9 10  1  0  0  0  0
 10 11  1  0  0  0  0
 11 12  1  0  0  0  0
 12 13  1  0  0  0  0
 13 14  2  0  0  0  0
 13 15  1  0  0  0  0
 15 20  1  0  0  0  0
 15 16  1  0  0  0  0
 16 17  1  0  0  0  0
 17 18  1  0  0  0  0
 18 19  1  0  0  0  0
 19 20  1  0  0  0  0
 10 21  2  0  0  0  0
 21 22  1  0  0  0  0
M  END
$$$$
PAT-GYR-359-4
  -OEChem-03232022352D

 21 22  0     0  0  0  0  0  0999 V2000
   -6.0695   -5.4849    0.0000 N   0  0  0  0  0  0  0  0  0  0  0  0
   -5.2057   -5.9887    0.0000 C   0  0  0  0  0  0  0  0  0  0  0  0
   -5.2101   -6.9887    0.0000 O   0  0  0  0  0  0  0  0  0  0  0  0
   -4.3374   -5.4925    0.0000 C   0  0  0  0  0  0  0  0  0  0  0  0
   -3.4692   -4.9964    0.0000 C   0  0  0  0  0  0  0  0  0  0  0  0
   -2.6010   -4.5002    0.0000 C   0  0  0  0  0  0  0  0  0  0  0  0
   -2.5995   -3.4950    0.0000 C   0  0  0  0  0  0  0  0  0  0  0  0
   -1.7313   -2.9987    0.0000 C   0  0  0  0  0  0  0  0  0  0  0  0
   -0.8646   -3.4975    0.0000 C   0  0  0  0  0  0  0  0  0  0  0  0
    0.0015   -2.9975    0.0000 C   0  0  0  0  0  0  0  0  0  0  0  0
    0.0015   -1.9975    0.0000 N   0  0  0  0  0  0  0  0  0  0  0  0
    0.8675   -1.4975    0.0000 C   0  0  0  0  0  0  0  0  0  0  0  0
    1.7335   -1.9975    0.0000 O   0  0  0  0  0  0  0  0  0  0  0  0
    0.8675   -0.4975    0.0000 N   0  0  0  0  0  0  0  0  0  0  0  0
    0.0000    0.0000    0.0000 C   0  0  0  0  0  0  0  0  0  0  0  0
   -0.0000    1.0052    0.0000 C   0  0  0  0  0  0  0  0  0  0  0  0
    0.8675    1.5129    0.0000 O   0  0  0  0  0  0  0  0  0  0  0  0
    1.7350    1.0052    0.0000 C   0  0  0  0  0  0  0  0  0  0  0  0
    1.7350    0.0000    0.0000 C   0  0  0  0  0  0  0  0  0  0  0  0
   -0.8660   -4.5027    0.0000 C   0  0  0  0  0  0  0  0  0  0  0  0
   -1.7342   -5.0091    0.0000 C   0  0  0  0  0  0  0  0  0  0  0  0
  1  2  1  0  0  0  0
  2  3  2  0  0  0  0
  2  4  1  0  0  0  0
  4  5  3  0  0  0  0
  5  6  1  0  0  0  0
  6 21  2  0  0  0  0
  6  7  1  0  0  0  0
  7  8  2  0  0  0  0
  8  9  1  0  0  0  0
  9 10  1  0  0  0  0
 10 11  1  0  0  0  0
 11 12  1  0  0  0  0
 12 13  2  0  0  0  0
 12 14  1  0  0  0  0
 14 19  1  0  0  0  0
 14 15  1  0  0  0  0
 15 16  1  0  0  0  0
 16 17  1  0  0  0  0
 17 18  1  0  0  0  0
 18 19  1  0  0  0  0
  9 20  2  0  0  0  0
 20 21  1  0  0  0  0
M  END
$$$$
PAT-GYR-359-5
  -OEChem-03232022352D

 21 22  0     0  0  0  0  0  0999 V2000
    1.7335   -1.9975    0.0000 O   0  0  0  0  0  0  0  0  0  0  0  0
    0.8675   -1.4975    0.0000 C   0  0  0  0  0  0  0  0  0  0  0  0
    0.0015   -1.9975    0.0000 N   0  0  0  0  0  0  0  0  0  0  0  0
    0.0015   -2.9975    0.0000 C   0  0  0  0  0  0  0  0  0  0  0  0
   -0.8646   -3.4975    0.0000 C   0  0  0  0  0  0  0  0  0  0  0  0
   -0.8616   -4.5027    0.0000 C   0  0  0  0  0  0  0  0  0  0  0  0
   -1.7276   -5.0028    0.0000 C   0  0  0  0  0  0  0  0  0  0  0  0
   -2.5966   -4.5078    0.0000 C   0  0  0  0  0  0  0  0  0  0  0  0
   -3.4604   -5.0116    0.0000 C   0  0  0  0  0  0  0  0  0  0  0  0
   -4.3242   -5.5154    0.0000 C   0  0  0  0  0  0  0  0  0  0  0  0
   -5.1880   -6.0192    0.0000 C   0  0  0  0  0  0  0  0  0  0  0  0
   -5.1836   -7.0192    0.0000 C   0  0  0  0  0  0  0  0  0  0  0  0
   -6.0474   -7.5230    0.0000 O   0  0  0  0  0  0  0  0  0  0  0  0
   -2.5995   -3.5026    0.0000 C   0  0  0  0  0  0  0  0  0  0  0  0
   -1.7335   -2.9924    0.0000 C   0  0  0  0  0  0  0  0  0  0  0  0
    0.8675   -0.4975    0.0000 N   0  0  0  0  0  0  0  0  0  0  0  0
    0.0000    0.0000    0.0000 C   0  0  0  0  0  0  0  0  0  0  0  0
   -0.0000    1.0052    0.0000 C   0  0  0  0  0  0  0  0  0  0  0  0
    0.8675    1.5129    0.0000 O   0  0  0  0  0  0  0  0  0  0  0  0
    1.7350    1.0052    0.0000 C   0  0  0  0  0  0  0  0  0  0  0  0
    1.7350    0.0000    0.0000 C   0  0  0  0  0  0  0  0  0  0  0  0
  1  2  2  0  0  0  0
  2  3  1  0  0  0  0
  3  4  1  0  0  0  0
  4  5  1  0  0  0  0
  5 15  2  0  0  0  0
  5  6  1  0  0  0  0
  6  7  2  0  0  0  0
  7  8  1  0  0  0  0
  8  9  1  0  0  0  0
  9 10  3  0  0  0  0
 10 11  1  0  0  0  0
 11 12  1  0  0  0  0
 12 13  1  0  0  0  0
  8 14  2  0  0  0  0
 14 15  1  0  0  0  0
  2 16  1  0  0  0  0
 16 21  1  0  0  0  0
 16 17  1  0  0  0  0
 17 18  1  0  0  0  0
 18 19  1  0  0  0  0
 19 20  1  0  0  0  0
 20 21  1  0  0  0  0
M  END
$$$$
CAR-INS-33b-1
  -OEChem-03232022352D

 28 31  0     0  0  0  0  0  0999 V2000
    3.1191   -0.9755    0.0000 O   0  0  0  0  0  0  0  0  0  0  0  0
    2.1412   -0.7665    0.0000 C   0  0  0  0  0  0  0  0  0  0  0  0
    1.4712   -1.5089    0.0000 C   0  0  0  0  0  0  0  0  0  0  0  0
    0.4933   -1.2999    0.0000 O   0  0  0  0  0  0  0  0  0  0  0  0
    1.7792   -2.4603    0.0000 N   0  0  0  0  0  0  0  0  0  0  0  0
    1.1102   -3.2105    0.0000 C   0  0  0  0  0  0  0  0  0  0  0  0
    1.4198   -4.1668    0.0000 C   0  0  0  0  0  0  0  0  0  0  0  0
    2.3983   -4.3730    0.0000 N   0  0  0  0  0  0  0  0  0  0  0  0
    2.7063   -5.3244    0.0000 C   0  0  0  0  0  0  0  0  0  0  0  0
    2.0363   -6.0668    0.0000 O   0  0  0  0  0  0  0  0  0  0  0  0
    3.6842   -5.5334    0.0000 C   0  0  0  0  0  0  0  0  0  0  0  0
    3.9910   -6.4906    0.0000 C   0  0  0  0  0  0  0  0  0  0  0  0
    4.9689   -6.6997    0.0000 C   0  0  0  0  0  0  0  0  0  0  0  0
    5.6432   -5.9612    0.0000 C   0  0  0  0  0  0  0  0  0  0  0  0
    5.3365   -5.0039    0.0000 C   0  0  0  0  0  0  0  0  0  0  0  0
    6.0108   -4.2655    0.0000 F   0  0  0  0  0  0  0  0  0  0  0  0
    4.3554   -4.7852    0.0000 C   0  0  0  0  0  0  0  0  0  0  0  0
    3.0705   -3.6325    0.0000 C   0  0  0  0  0  0  0  0  0  0  0  0
    2.7609   -2.6762    0.0000 C   0  0  0  0  0  0  0  0  0  0  0  0
    1.8332    0.1849    0.0000 C   0  0  0  0  0  0  0  0  0  0  0  0
    2.4247    0.9971    0.0000 C   0  0  0  0  0  0  0  0  0  0  0  0
    1.8349    1.8105    0.0000 N   0  0  0  0  0  0  0  0  0  0  0  0
    0.8791    1.5011    0.0000 C   0  0  0  0  0  0  0  0  0  0  0  0
    0.0101    2.0110    0.0000 C   0  0  0  0  0  0  0  0  0  0  0  0
   -0.8584    1.5098    0.0000 N   0  0  0  0  0  0  0  0  0  0  0  0
   -0.8635    0.5043    0.0000 C   0  0  0  0  0  0  0  0  0  0  0  0
    0.0000    0.0000    0.0000 C   0  0  0  0  0  0  0  0  0  0  0  0
    0.8780    0.4964    0.0000 C   0  0  0  0  0  0  0  0  0  0  0  0
  1  2  2  0  0  0  0
  2  3  1  0  0  0  0
  3  4  2  0  0  0  0
  3  5  1  0  0  0  0
  5 19  1  0  0  0  0
  5  6  1  0  0  0  0
  6  7  1  0  0  0  0
  7  8  1  0  0  0  0
  8  9  1  0  0  0  0
  9 10  2  0  0  0  0
  9 11  1  0  0  0  0
 11 17  2  0  0  0  0
 11 12  1  0  0  0  0
 12 13  2  0  0  0  0
 13 14  1  0  0  0  0
 14 15  2  0  0  0  0
 15 16  1  0  0  0  0
 15 17  1  0  0  0  0
  8 18  1  0  0  0  0
 18 19  1  0  0  0  0
  2 20  1  0  0  0  0
 20 28  1  0  0  0  0
 20 21  2  0  0  0  0
 21 22  1  0  0  0  0
 22 23  1  0  0  0  0
 23 28  2  0  0  0  0
 23 24  1  0  0  0  0
 24 25  2  0  0  0  0
 25 26  1  0  0  0  0
 26 27  2  0  0  0  0
 27 28  1  0  0  0  0
M  END
$$$$
CAR-INS-33b-2
  -OEChem-03232022352D

 28 31  0     0  0  0  0  0  0999 V2000
    3.1191   -0.9755    0.0000 O   0  0  0  0  0  0  0  0  0  0  0  0
    2.1412   -0.7665    0.0000 C   0  0  0  0  0  0  0  0  0  0  0  0
    1.4712   -1.5089    0.0000 C   0  0  0  0  0  0  0  0  0  0  0  0
    0.4933   -1.2999    0.0000 O   0  0  0  0  0  0  0  0  0  0  0  0
    1.7792   -2.4603    0.0000 N   0  0  0  0  0  0  0  0  0  0  0  0
    1.1102   -3.2105    0.0000 C   0  0  0  0  0  0  0  0  0  0  0  0
    1.4198   -4.1668    0.0000 C   0  0  0  0  0  0  0  0  0  0  0  0
    2.3983   -4.3730    0.0000 N   0  0  0  0  0  0  0  0  0  0  0  0
    2.7063   -5.3244    0.0000 C   0  0  0  0  0  0  0  0  0  0  0  0
    2.0363   -6.0668    0.0000 O   0  0  0  0  0  0  0  0  0  0  0  0
    3.6842   -5.5334    0.0000 C   0  0  0  0  0  0  0  0  0  0  0  0
    3.9910   -6.4906    0.0000 C   0  0  0  0  0  0  0  0  0  0  0  0
    4.9689   -6.6997    0.0000 C   0  0  0  0  0  0  0  0  0  0  0  0
    5.6432   -5.9612    0.0000 C   0  0  0  0  0  0  0  0  0  0  0  0
    5.3365   -5.0039    0.0000 C   0  0  0  0  0  0  0  0  0  0  0  0
    6.0108   -4.2655    0.0000 Cl  0  0  0  0  0  0  0  0  0  0  0  0
    4.3554   -4.7852    0.0000 C   0  0  0  0  0  0  0  0  0  0  0  0
    3.0705   -3.6325    0.0000 C   0  0  0  0  0  0  0  0  0  0  0  0
    2.7609   -2.6762    0.0000 C   0  0  0  0  0  0  0  0  0  0  0  0
    1.8332    0.1849    0.0000 C   0  0  0  0  0  0  0  0  0  0  0  0
    2.4247    0.9971    0.0000 C   0  0  0  0  0  0  0  0  0  0  0  0
    1.8349    1.8105    0.0000 N   0  0  0  0  0  0  0  0  0  0  0  0
    0.8791    1.5011    0.0000 C   0  0  0  0  0  0  0  0  0  0  0  0
    0.0101    2.0110    0.0000 C   0  0  0  0  0  0  0  0  0  0  0  0
   -0.8584    1.5098    0.0000 N   0  0  0  0  0  0  0  0  0  0  0  0
   -0.8635    0.5043    0.0000 C   0  0  0  0  0  0  0  0  0  0  0  0
    0.0000    0.0000    0.0000 C   0  0  0  0  0  0  0  0  0  0  0  0
    0.8780    0.4964    0.0000 C   0  0  0  0  0  0  0  0  0  0  0  0
  1  2  2  0  0  0  0
  2  3  1  0  0  0  0
  3  4  2  0  0  0  0
  3  5  1  0  0  0  0
  5 19  1  0  0  0  0
  5  6  1  0  0  0  0
  6  7  1  0  0  0  0
  7  8  1  0  0  0  0
  8  9  1  0  0  0  0
  9 10  2  0  0  0  0
  9 11  1  0  0  0  0
 11 17  2  0  0  0  0
 11 12  1  0  0  0  0
 12 13  2  0  0  0  0
 13 14  1  0  0  0  0
 14 15  2  0  0  0  0
 15 16  1  0  0  0  0
 15 17  1  0  0  0  0
  8 18  1  0  0  0  0
 18 19  1  0  0  0  0
  2 20  1  0  0  0  0
 20 28  1  0  0  0  0
 20 21  2  0  0  0  0
 21 22  1  0  0  0  0
 22 23  1  0  0  0  0
 23 28  2  0  0  0  0
 23 24  1  0  0  0  0
 24 25  2  0  0  0  0
 25 26  1  0  0  0  0
 26 27  2  0  0  0  0
 27 28  1  0  0  0  0
M  END
$$$$
CAR-INS-33b-3
  -OEChem-03232022352D

 27 30  0     0  0  0  0  0  0999 V2000
    3.1191   -0.9755    0.0000 O   0  0  0  0  0  0  0  0  0  0  0  0
    2.1412   -0.7665    0.0000 C   0  0  0  0  0  0  0  0  0  0  0  0
    1.4712   -1.5089    0.0000 C   0  0  0  0  0  0  0  0  0  0  0  0
    0.4933   -1.2999    0.0000 O   0  0  0  0  0  0  0  0  0  0  0  0
    1.7792   -2.4603    0.0000 N   0  0  0  0  0  0  0  0  0  0  0  0
    1.1102   -3.2105    0.0000 C   0  0  0  0  0  0  0  0  0  0  0  0
    1.4198   -4.1668    0.0000 C   0  0  0  0  0  0  0  0  0  0  0  0
    2.3983   -4.3730    0.0000 N   0  0  0  0  0  0  0  0  0  0  0  0
    2.7063   -5.3244    0.0000 C   0  0  0  0  0  0  0  0  0  0  0  0
    2.0363   -6.0668    0.0000 O   0  0  0  0  0  0  0  0  0  0  0  0
    3.6842   -5.5334    0.0000 C   0  0  0  0  0  0  0  0  0  0  0  0
    4.3554   -4.7851    0.0000 C   0  0  0  0  0  0  0  0  0  0  0  0
    5.3334   -4.9941    0.0000 C   0  0  0  0  0  0  0  0  0  0  0  0
    5.6469   -5.9437    0.0000 C   0  0  0  0  0  0  0  0  0  0  0  0
    4.9757   -6.6919    0.0000 C   0  0  0  0  0  0  0  0  0  0  0  0
    3.9909   -6.4906    0.0000 C   0  0  0  0  0  0  0  0  0  0  0  0
    3.0705   -3.6325    0.0000 C   0  0  0  0  0  0  0  0  0  0  0  0
    2.7609   -2.6762    0.0000 C   0  0  0  0  0  0  0  0  0  0  0  0
    1.8332    0.1849    0.0000 C   0  0  0  0  0  0  0  0  0  0  0  0
    2.4247    0.9971    0.0000 C   0  0  0  0  0  0  0  0  0  0  0  0
    1.8349    1.8105    0.0000 N   0  0  0  0  0  0  0  0  0  0  0  0
    0.8791    1.5011    0.0000 C   0  0  0  0  0  0  0  0  0  0  0  0
    0.0101    2.0110    0.0000 C   0  0  0  0  0  0  0  0  0  0  0  0
   -0.8584    1.5098    0.0000 N   0  0  0  0  0  0  0  0  0  0  0  0
   -0.8635    0.5043    0.0000 C   0  0  0  0  0  0  0  0  0  0  0  0
    0.0000    0.0000    0.0000 C   0  0  0  0  0  0  0  0  0  0  0  0
    0.8780    0.4964    0.0000 C   0  0  0  0  0  0  0  0  0  0  0  0
  1  2  2  0  0  0  0
  2  3  1  0  0  0  0
  3  4  2  0  0  0  0
  3  5  1  0  0  0  0
  5 18  1  0  0  0  0
  5  6  1  0  0  0  0
  6  7  1  0  0  0  0
  7  8  1  0  0  0  0
  8  9  1  0  0  0  0
  9 10  2  0  0  0  0
  9 11  1  0  0  0  0
 11 16  2  0  0  0  0
 11 12  1  0  0  0  0
 12 13  2  0  0  0  0
 13 14  1  0  0  0  0
 14 15  2  0  0  0  0
 15 16  1  0  0  0  0
  8 17  1  0  0  0  0
 17 18  1  0  0  0  0
  2 19  1  0  0  0  0
 19 27  1  0  0  0  0
 19 20  2  0  0  0  0
 20 21  1  0  0  0  0
 21 22  1  0  0  0  0
 22 27  2  0  0  0  0
 22 23  1  0  0  0  0
 23 24  2  0  0  0  0
 24 25  1  0  0  0  0
 25 26  2  0  0  0  0
 26 27  1  0  0  0  0
M  END
$$$$
CAR-INS-33b-4
  -OEChem-03232022352D

 29 32  0     0  0  0  0  0  0999 V2000
   -0.8765   -1.4939    0.0000 C   0  0  0  0  0  0  0  0  0  0  0  0
   -0.0070   -1.0000    0.0000 O   0  0  0  0  0  0  0  0  0  0  0  0
    0.0000    0.0000    0.0000 C   0  0  0  0  0  0  0  0  0  0  0  0
   -0.8635    0.5043    0.0000 C   0  0  0  0  0  0  0  0  0  0  0  0
   -0.8584    1.5098    0.0000 N   0  0  0  0  0  0  0  0  0  0  0  0
    0.0101    2.0110    0.0000 C   0  0  0  0  0  0  0  0  0  0  0  0
    0.8791    1.5011    0.0000 C   0  0  0  0  0  0  0  0  0  0  0  0
    1.8349    1.8105    0.0000 N   0  0  0  0  0  0  0  0  0  0  0  0
    2.4247    0.9971    0.0000 C   0  0  0  0  0  0  0  0  0  0  0  0
    1.8332    0.1849    0.0000 C   0  0  0  0  0  0  0  0  0  0  0  0
    2.1412   -0.7665    0.0000 C   0  0  0  0  0  0  0  0  0  0  0  0
    1.4712   -1.5089    0.0000 O   0  0  0  0  0  0  0  0  0  0  0  0
    3.1191   -0.9755    0.0000 C   0  0  0  0  0  0  0  0  0  0  0  0
    3.7890   -0.2331    0.0000 O   0  0  0  0  0  0  0  0  0  0  0  0
    3.4271   -1.9269    0.0000 N   0  0  0  0  0  0  0  0  0  0  0  0
    2.7581   -2.6771    0.0000 C   0  0  0  0  0  0  0  0  0  0  0  0
    3.0676   -3.6334    0.0000 C   0  0  0  0  0  0  0  0  0  0  0  0
    4.0462   -3.8396    0.0000 N   0  0  0  0  0  0  0  0  0  0  0  0
    4.3542   -4.7910    0.0000 C   0  0  0  0  0  0  0  0  0  0  0  0
    3.6842   -5.5334    0.0000 O   0  0  0  0  0  0  0  0  0  0  0  0
    5.3321   -5.0000    0.0000 C   0  0  0  0  0  0  0  0  0  0  0  0
    6.0033   -4.2517    0.0000 C   0  0  0  0  0  0  0  0  0  0  0  0
    6.9813   -4.4607    0.0000 C   0  0  0  0  0  0  0  0  0  0  0  0
    7.2948   -5.4103    0.0000 C   0  0  0  0  0  0  0  0  0  0  0  0
    6.6236   -6.1585    0.0000 C   0  0  0  0  0  0  0  0  0  0  0  0
    5.6388   -5.9572    0.0000 C   0  0  0  0  0  0  0  0  0  0  0  0
    4.7183   -3.0991    0.0000 C   0  0  0  0  0  0  0  0  0  0  0  0
    4.4087   -2.1427    0.0000 C   0  0  0  0  0  0  0  0  0  0  0  0
    0.8780    0.4964    0.0000 C   0  0  0  0  0  0  0  0  0  0  0  0
  1  2  1  0  0  0  0
  2  3  1  0  0  0  0
  3 29  2  0  0  0  0
  3  4  1  0  0  0  0
  4  5  2  0  0  0  0
  5  6  1  0  0  0  0
  6  7  2  0  0  0  0
  7 29  1  0  0  0  0
  7  8  1  0  0  0  0
  8  9  1  0  0  0  0
  9 10  2  0  0  0  0
 10 11  1  0  0  0  0
 11 12  2  0  0  0  0
 11 13  1  0  0  0  0
 13 14  2  0  0  0  0
 13 15  1  0  0  0  0
 15 28  1  0  0  0  0
 15 16  1  0  0  0  0
 16 17  1  0  0  0  0
 17 18  1  0  0  0  0
 18 19  1  0  0  0  0
 19 20  2  0  0  0  0
 19 21  1  0  0  0  0
 21 26  2  0  0  0  0
 21 22  1  0  0  0  0
 22 23  2  0  0  0  0
 23 24  1  0  0  0  0
 24 25  2  0  0  0  0
 25 26  1  0  0  0  0
 18 27  1  0  0  0  0
 27 28  1  0  0  0  0
 10 29  1  0  0  0  0
M  END
$$$$
SAL-INS-316-1
  -OEChem-03232022352D

 33 37  0     0  0  0  0  0  0999 V2000
    4.0868    1.7121    0.0000 O   0  0  0  0  0  0  0  0  0  0  0  0
    4.5825    0.8436    0.0000 C   0  0  0  0  0  0  0  0  0  0  0  0
    5.5825    0.8387    0.0000 N   0  0  0  0  0  0  0  0  0  0  0  0
    6.0868    1.7022    0.0000 C   0  0  0  0  0  0  0  0  0  0  0  0
    5.5886    2.5693    0.0000 C   0  0  0  0  0  0  0  0  0  0  0  0
    6.0955    3.4373    0.0000 C   0  0  0  0  0  0  0  0  0  0  0  0
    7.1006    3.4382    0.0000 N   0  0  0  0  0  0  0  0  0  0  0  0
    7.5937    2.5623    0.0000 C   0  0  0  0  0  0  0  0  0  0  0  0
    7.0868    1.6943    0.0000 N   0  0  0  0  0  0  0  0  0  0  0  0
    4.0782   -0.0199    0.0000 N   0  0  0  0  0  0  0  0  0  0  0  0
    3.0782   -0.0149    0.0000 C   0  0  0  0  0  0  0  0  0  0  0  0
    2.4944    0.7970    0.0000 S   0  0  0  0  0  0  0  0  0  0  0  0
    1.5413    0.4930    0.0000 C   0  0  0  0  0  0  0  0  0  0  0  0
    0.5915    0.8064    0.0000 C   0  0  0  0  0  0  0  0  0  0  0  0
    0.0000    0.0000    0.0000 C   0  0  0  0  0  0  0  0  0  0  0  0
   -1.0000    0.0045    0.0000 C   0  0  0  0  0  0  0  0  0  0  0  0
   -1.5039   -0.8592    0.0000 C   0  0  0  0  0  0  0  0  0  0  0  0
   -2.5039   -0.8547    0.0000 C   0  0  0  0  0  0  0  0  0  0  0  0
   -3.0971   -1.6618    0.0000 N   0  0  0  0  0  0  0  0  0  0  0  0
   -4.0486   -1.3493    0.0000 C   0  0  0  0  0  0  0  0  0  0  0  0
   -4.0429   -0.3493    0.0000 C   0  0  0  0  0  0  0  0  0  0  0  0
   -3.0915   -0.0398    0.0000 N   0  0  0  0  0  0  0  0  0  0  0  0
    0.5842   -0.8118    0.0000 N   0  0  0  0  0  0  0  0  0  0  0  0
    1.5367   -0.5071    0.0000 C   0  0  0  0  0  0  0  0  0  0  0  0
    2.4863   -0.8210    0.0000 C   0  0  0  0  0  0  0  0  0  0  0  0
    2.7905   -1.7736    0.0000 C   0  0  0  0  0  0  0  0  0  0  0  0
    3.7676   -1.9865    0.0000 C   0  0  0  0  0  0  0  0  0  0  0  0
    4.4418   -1.2409    0.0000 C   0  0  0  0  0  0  0  0  0  0  0  0
    5.4189   -1.4537    0.0000 C   0  0  0  0  0  0  0  0  0  0  0  0
    5.7287   -2.4046    0.0000 C   0  0  0  0  0  0  0  0  0  0  0  0
    6.7067   -2.6131    0.0000 O   0  0  0  0  0  0  0  0  0  0  0  0
    5.0545   -3.1501    0.0000 C   0  0  0  0  0  0  0  0  0  0  0  0
    4.0705   -2.9449    0.0000 C   0  0  0  0  0  0  0  0  0  0  0  0
  1  2  2  0  0  0  0
  2  3  1  0  0  0  0
  3  4  1  0  0  0  0
  4  9  2  0  0  0  0
  4  5  1  0  0  0  0
  5  6  2  0  0  0  0
  6  7  1  0  0  0  0
  7  8  2  0  0  0  0
  8  9  1  0  0  0  0
  2 10  1  0  0  0  0
 10 11  1  0  0  0  0
 11 25  2  0  0  0  0
 11 12  1  0  0  0  0
 12 13  1  0  0  0  0
 13 24  2  0  0  0  0
 13 14  1  0  0  0  0
 14 15  2  0  0  0  0
 15 16  1  0  0  0  0
 16 17  1  0  0  0  0
 17 18  1  0  0  0  0
 18 22  1  0  0  0  0
 18 19  2  0  0  0  0
 19 20  1  0  0  0  0
 20 21  2  0  0  0  0
 21 22  1  0  0  0  0
 15 23  1  0  0  0  0
 23 24  1  0  0  0  0
 24 25  1  0  0  0  0
 25 26  1  0  0  0  0
 26 27  1  0  0  0  0
 27 33  1  0  0  0  0
 27 28  1  0  0  0  0
 28 29  1  0  0  0  0
 29 30  1  0  0  0  0
 30 31  1  0  0  0  0
 30 32  1  0  0  0  0
 32 33  1  0  0  0  0
M  END
$$$$
SAL-INS-316-2
  -OEChem-03232022352D

 25 28  0     0  0  0  0  0  0999 V2000
    4.0868    1.7121    0.0000 O   0  0  0  0  0  0  0  0  0  0  0  0
    4.5825    0.8436    0.0000 C   0  0  0  0  0  0  0  0  0  0  0  0
    5.5825    0.8387    0.0000 N   0  0  0  0  0  0  0  0  0  0  0  0
    6.0868    1.7022    0.0000 C   0  0  0  0  0  0  0  0  0  0  0  0
    5.5886    2.5693    0.0000 C   0  0  0  0  0  0  0  0  0  0  0  0
    6.0955    3.4373    0.0000 C   0  0  0  0  0  0  0  0  0  0  0  0
    7.1006    3.4382    0.0000 N   0  0  0  0  0  0  0  0  0  0  0  0
    7.5937    2.5623    0.0000 C   0  0  0  0  0  0  0  0  0  0  0  0
    7.0868    1.6943    0.0000 N   0  0  0  0  0  0  0  0  0  0  0  0
    4.0782   -0.0199    0.0000 N   0  0  0  0  0  0  0  0  0  0  0  0
    3.0782   -0.0149    0.0000 C   0  0  0  0  0  0  0  0  0  0  0  0
    2.4863   -0.8210    0.0000 C   0  0  0  0  0  0  0  0  0  0  0  0
    1.5367   -0.5071    0.0000 C   0  0  0  0  0  0  0  0  0  0  0  0
    0.5842   -0.8118    0.0000 N   0  0  0  0  0  0  0  0  0  0  0  0
    0.0000    0.0000    0.0000 C   0  0  0  0  0  0  0  0  0  0  0  0
    0.5915    0.8064    0.0000 C   0  0  0  0  0  0  0  0  0  0  0  0
    0.2868    1.7589    0.0000 C   0  0  0  0  0  0  0  0  0  0  0  0
   -0.6904    1.9712    0.0000 C   0  0  0  0  0  0  0  0  0  0  0  0
   -0.9951    2.9237    0.0000 C   0  0  0  0  0  0  0  0  0  0  0  0
   -1.9460    3.2384    0.0000 N   0  0  0  0  0  0  0  0  0  0  0  0
   -1.9429    4.2399    0.0000 C   0  0  0  0  0  0  0  0  0  0  0  0
   -0.9900    4.5435    0.0000 C   0  0  0  0  0  0  0  0  0  0  0  0
   -0.4016    3.7343    0.0000 N   0  0  0  0  0  0  0  0  0  0  0  0
    1.5413    0.4930    0.0000 C   0  0  0  0  0  0  0  0  0  0  0  0
    2.4944    0.7970    0.0000 S   0  0  0  0  0  0  0  0  0  0  0  0
  1  2  2  0  0  0  0
  2  3  1  0  0  0  0
  3  4  1  0  0  0  0
  4  9  2  0  0  0  0
  4  5  1  0  0  0  0
  5  6  2  0  0  0  0
  6  7  1  0  0  0  0
  7  8  2  0  0  0  0
  8  9  1  0  0  0  0
  2 10  1  0  0  0  0
 10 11  1  0  0  0  0
 11 25  1  0  0  0  0
 11 12  2  0  0  0  0
 12 13  1  0  0  0  0
 13 24  2  0  0  0  0
 13 14  1  0  0  0  0
 14 15  1  0  0  0  0
 15 16  2  0  0  0  0
 16 17  1  0  0  0  0
 17 18  1  0  0  0  0
 18 19  1  0  0  0  0
 19 23  1  0  0  0  0
 19 20  2  0  0  0  0
 20 21  1  0  0  0  0
 21 22  2  0  0  0  0
 22 23  1  0  0  0  0
 16 24  1  0  0  0  0
 24 25  1  0  0  0  0
M  END
$$$$
SAL-INS-316-3
  -OEChem-03232022352D

 26 29  0     0  0  0  0  0  0999 V2000
    4.0868    1.7121    0.0000 O   0  0  0  0  0  0  0  0  0  0  0  0
    4.5825    0.8436    0.0000 C   0  0  0  0  0  0  0  0  0  0  0  0
    5.5825    0.8387    0.0000 N   0  0  0  0  0  0  0  0  0  0  0  0
    6.0868    1.7022    0.0000 C   0  0  0  0  0  0  0  0  0  0  0  0
    5.5886    2.5693    0.0000 C   0  0  0  0  0  0  0  0  0  0  0  0
    6.0955    3.4373    0.0000 C   0  0  0  0  0  0  0  0  0  0  0  0
    7.1006    3.4382    0.0000 N   0  0  0  0  0  0  0  0  0  0  0  0
    7.5937    2.5623    0.0000 C   0  0  0  0  0  0  0  0  0  0  0  0
    7.0868    1.6943    0.0000 N   0  0  0  0  0  0  0  0  0  0  0  0
    4.0782   -0.0199    0.0000 N   0  0  0  0  0  0  0  0  0  0  0  0
    3.0782   -0.0149    0.0000 C   0  0  0  0  0  0  0  0  0  0  0  0
    2.4944    0.7970    0.0000 S   0  0  0  0  0  0  0  0  0  0  0  0
    1.5413    0.4930    0.0000 C   0  0  0  0  0  0  0  0  0  0  0  0
    0.5915    0.8064    0.0000 C   0  0  0  0  0  0  0  0  0  0  0  0
    0.0000    0.0000    0.0000 C   0  0  0  0  0  0  0  0  0  0  0  0
    0.5842   -0.8118    0.0000 N   0  0  0  0  0  0  0  0  0  0  0  0
    1.5367   -0.5071    0.0000 C   0  0  0  0  0  0  0  0  0  0  0  0
    2.4863   -0.8210    0.0000 C   0  0  0  0  0  0  0  0  0  0  0  0
    2.7905   -1.7736    0.0000 C   0  0  0  0  0  0  0  0  0  0  0  0
    3.7676   -1.9865    0.0000 C   0  0  0  0  0  0  0  0  0  0  0  0
    4.4418   -1.2409    0.0000 C   0  0  0  0  0  0  0  0  0  0  0  0
    5.4189   -1.4537    0.0000 C   0  0  0  0  0  0  0  0  0  0  0  0
    5.7287   -2.4046    0.0000 C   0  0  0  0  0  0  0  0  0  0  0  0
    6.7067   -2.6131    0.0000 O   0  0  0  0  0  0  0  0  0  0  0  0
    5.0545   -3.1501    0.0000 C   0  0  0  0  0  0  0  0  0  0  0  0
    4.0705   -2.9449    0.0000 C   0  0  0  0  0  0  0  0  0  0  0  0
  1  2  2  0  0  0  0
  2  3  1  0  0  0  0
  3  4  1  0  0  0  0
  4  9  2  0  0  0  0
  4  5  1  0  0  0  0
  5  6  2  0  0  0  0
  6  7  1  0  0  0  0
  7  8  2  0  0  0  0
  8  9  1  0  0  0  0
  2 10  1  0  0  0  0
 10 11  1  0  0  0  0
 11 18  2  0  0  0  0
 11 12  1  0  0  0  0
 12 13  1  0  0  0  0
 13 17  2  0  0  0  0
 13 14  1  0  0  0  0
 14 15  2  0  0  0  0
 15 16  1  0  0  0  0
 16 17  1  0  0  0  0
 17 18  1  0  0  0  0
 18 19  1  0  0  0  0
 19 20  1  0  0  0  0
 20 26  1  0  0  0  0
 20 21  1  0  0  0  0
 21 22  1  0  0  0  0
 22 23  1  0  0  0  0
 23 24  1  0  0  0  0
 23 25  1  0  0  0  0
 25 26  1  0  0  0  0
M  END
$$$$
SAL-INS-316-4
  -OEChem-03232022352D

 23 26  0     0  0  0  0  0  0999 V2000
    0.0923   -4.7335    0.0000 O   0  0  0  0  0  0  0  0  0  0  0  0
    0.7684   -3.9967    0.0000 C   0  0  0  0  0  0  0  0  0  0  0  0
    0.4641   -3.0387    0.0000 C   0  0  0  0  0  0  0  0  0  0  0  0
    1.1402   -2.3019    0.0000 C   0  0  0  0  0  0  0  0  0  0  0  0
    2.1176   -2.5134    0.0000 C   0  0  0  0  0  0  0  0  0  0  0  0
    2.7905   -1.7736    0.0000 C   0  0  0  0  0  0  0  0  0  0  0  0
    2.4863   -0.8210    0.0000 C   0  0  0  0  0  0  0  0  0  0  0  0
    3.0782   -0.0149    0.0000 C   0  0  0  0  0  0  0  0  0  0  0  0
    2.4944    0.7970    0.0000 S   0  0  0  0  0  0  0  0  0  0  0  0
    1.5413    0.4930    0.0000 C   0  0  0  0  0  0  0  0  0  0  0  0
    0.5915    0.8064    0.0000 C   0  0  0  0  0  0  0  0  0  0  0  0
    0.2868    1.7589    0.0000 C   0  0  0  0  0  0  0  0  0  0  0  0
   -0.6904    1.9712    0.0000 C   0  0  0  0  0  0  0  0  0  0  0  0
   -0.9951    2.9237    0.0000 C   0  0  0  0  0  0  0  0  0  0  0  0
   -1.9460    3.2384    0.0000 N   0  0  0  0  0  0  0  0  0  0  0  0
   -1.9429    4.2399    0.0000 C   0  0  0  0  0  0  0  0  0  0  0  0
   -0.9900    4.5435    0.0000 C   0  0  0  0  0  0  0  0  0  0  0  0
   -0.4016    3.7343    0.0000 N   0  0  0  0  0  0  0  0  0  0  0  0
    0.0000    0.0000    0.0000 C   0  0  0  0  0  0  0  0  0  0  0  0
    0.5842   -0.8118    0.0000 N   0  0  0  0  0  0  0  0  0  0  0  0
    1.5367   -0.5071    0.0000 C   0  0  0  0  0  0  0  0  0  0  0  0
    2.4220   -3.4714    0.0000 C   0  0  0  0  0  0  0  0  0  0  0  0
    1.7490   -4.2179    0.0000 C   0  0  0  0  0  0  0  0  0  0  0  0
  1  2  1  0  0  0  0
  2 23  1  0  0  0  0
  2  3  1  0  0  0  0
  3  4  1  0  0  0  0
  4  5  1  0  0  0  0
  5  6  1  0  0  0  0
  6  7  1  0  0  0  0
  7 21  1  0  0  0  0
  7  8  2  0  0  0  0
  8  9  1  0  0  0  0
  9 10  1  0  0  0  0
 10 21  2  0  0  0  0
 10 11  1  0  0  0  0
 11 12  1  0  0  0  0
 12 13  1  0  0  0  0
 13 14  1  0  0  0  0
 14 18  1  0  0  0  0
 14 15  2  0  0  0  0
 15 16  1  0  0  0  0
 16 17  2  0  0  0  0
 17 18  1  0  0  0  0
 11 19  2  0  0  0  0
 19 20  1  0  0  0  0
 20 21  1  0  0  0  0
  5 22  1  0  0  0  0
 22 23  1  0  0  0  0
M  END
$$$$
JOR-UNI-2fc-1
  -OEChem-03232022352D

 24 26  0     0  0  0  0  0  0999 V2000
    0.8646   -1.5025    0.0000 O   0  0  0  0  0  0  0  0  0  0  0  0
    1.7313   -1.0038    0.0000 C   0  0  0  0  0  0  0  0  0  0  0  0
    1.7328   -0.0038    0.0000 N   0  0  0  0  0  0  0  0  0  0  0  0
    0.8675    0.4975    0.0000 C   0  0  0  0  0  0  0  0  0  0  0  0
    0.0000    0.0000    0.0000 C   0  0  0  0  0  0  0  0  0  0  0  0
   -0.8675    0.4975    0.0000 C   0  0  0  0  0  0  0  0  0  0  0  0
   -0.8675    1.5027    0.0000 C   0  0  0  0  0  0  0  0  0  0  0  0
    0.0000    2.0104    0.0000 N   0  0  0  0  0  0  0  0  0  0  0  0
    0.8675    1.5027    0.0000 C   0  0  0  0  0  0  0  0  0  0  0  0
    2.5966   -1.5050    0.0000 N   0  0  0  0  0  0  0  0  0  0  0  0
    3.4634   -1.0063    0.0000 C   0  0  0  0  0  0  0  0  0  0  0  0
    3.4648   -0.0063    0.0000 N   0  0  0  0  0  0  0  0  0  0  0  0
    2.5981    0.4925    0.0000 C   0  0  0  0  0  0  0  0  0  0  0  0
    2.5995    1.4977    0.0000 C   0  0  0  0  0  0  0  0  0  0  0  0
    3.4678    2.0041    0.0000 O   0  0  0  0  0  0  0  0  0  0  0  0
    4.3345    1.4952    0.0000 C   0  0  0  0  0  0  0  0  0  0  0  0
    4.3331    0.4900    0.0000 C   0  0  0  0  0  0  0  0  0  0  0  0
    2.5952   -2.5050    0.0000 C   0  0  0  0  0  0  0  0  0  0  0  0
    1.7225   -3.0038    0.0000 C   0  0  0  0  0  0  0  0  0  0  0  0
    1.7210   -4.0038    0.0000 C   0  0  0  0  0  0  0  0  0  0  0  0
    2.5833   -4.5101    0.0000 C   0  0  0  0  0  0  0  0  0  0  0  0
    3.4561   -4.0114    0.0000 C   0  0  0  0  0  0  0  0  0  0  0  0
    4.3184   -4.5177    0.0000 Cl  0  0  0  0  0  0  0  0  0  0  0  0
    3.4664   -3.0063    0.0000 C   0  0  0  0  0  0  0  0  0  0  0  0
  1  2  2  0  0  0  0
  2  3  1  0  0  0  0
  3  4  1  0  0  0  0
  4  9  2  0  0  0  0
  4  5  1  0  0  0  0
  5  6  2  0  0  0  0
  6  7  1  0  0  0  0
  7  8  2  0  0  0  0
  8  9  1  0  0  0  0
  2 10  1  0  0  0  0
 10 11  1  0  0  0  0
 11 12  1  0  0  0  0
 12 17  1  0  0  0  0
 12 13  1  0  0  0  0
 13 14  1  0  0  0  0
 14 15  1  0  0  0  0
 15 16  1  0  0  0  0
 16 17  1  0  0  0  0
 10 18  1  0  0  0  0
 18 24  2  0  0  0  0
 18 19  1  0  0  0  0
 19 20  2  0  0  0  0
 20 21  1  0  0  0  0
 21 22  2  0  0  0  0
 22 23  1  0  0  0  0
 22 24  1  0  0  0  0
M  END
$$$$
JOR-UNI-2fc-2
  -OEChem-03232022352D

 22 23  0     0  0  0  0  0  0999 V2000
    3.4605   -3.0063    0.0000 N   0  0  0  0  0  0  0  0  0  0  0  0
    2.5952   -2.5050    0.0000 C   0  0  0  0  0  0  0  0  0  0  0  0
    1.7284   -3.0038    0.0000 N   0  0  0  0  0  0  0  0  0  0  0  0
    2.5966   -1.5050    0.0000 C   0  0  0  0  0  0  0  0  0  0  0  0
    3.4634   -1.0063    0.0000 C   0  0  0  0  0  0  0  0  0  0  0  0
    3.4648   -0.0063    0.0000 N   0  0  0  0  0  0  0  0  0  0  0  0
    2.5995    0.4950    0.0000 C   0  0  0  0  0  0  0  0  0  0  0  0
    2.6010    1.4950    0.0000 O   0  0  0  0  0  0  0  0  0  0  0  0
    1.7328   -0.0038    0.0000 N   0  0  0  0  0  0  0  0  0  0  0  0
    0.8675    0.4975    0.0000 C   0  0  0  0  0  0  0  0  0  0  0  0
    0.0000    0.0000    0.0000 C   0  0  0  0  0  0  0  0  0  0  0  0
   -0.8675    0.4975    0.0000 C   0  0  0  0  0  0  0  0  0  0  0  0
   -0.8675    1.5027    0.0000 C   0  0  0  0  0  0  0  0  0  0  0  0
    0.0000    2.0104    0.0000 N   0  0  0  0  0  0  0  0  0  0  0  0
    0.8675    1.5027    0.0000 C   0  0  0  0  0  0  0  0  0  0  0  0
    4.3316    0.4925    0.0000 C   0  0  0  0  0  0  0  0  0  0  0  0
    5.1999   -0.0140    0.0000 C   0  0  0  0  0  0  0  0  0  0  0  0
    6.0667    0.4848    0.0000 C   0  0  0  0  0  0  0  0  0  0  0  0
    6.0740    1.4848    0.0000 C   0  0  0  0  0  0  0  0  0  0  0  0
    5.2057    1.9912    0.0000 C   0  0  0  0  0  0  0  0  0  0  0  0
    5.2131    2.9912    0.0000 Cl  0  0  0  0  0  0  0  0  0  0  0  0
    4.3301    1.4976    0.0000 C   0  0  0  0  0  0  0  0  0  0  0  0
  1  2  2  0  0  0  0
  2  3  1  0  0  0  0
  2  4  1  0  0  0  0
  4  5  1  0  0  0  0
  5  6  1  0  0  0  0
  6  7  1  0  0  0  0
  7  8  2  0  0  0  0
  7  9  1  0  0  0  0
  9 10  1  0  0  0  0
 10 15  2  0  0  0  0
 10 11  1  0  0  0  0
 11 12  2  0  0  0  0
 12 13  1  0  0  0  0
 13 14  2  0  0  0  0
 14 15  1  0  0  0  0
  6 16  1  0  0  0  0
 16 22  2  0  0  0  0
 16 17  1  0  0  0  0
 17 18  2  0  0  0  0
 18 19  1  0  0  0  0
 19 20  2  0  0  0  0
 20 21  1  0  0  0  0
 20 22  1  0  0  0  0
M  END
$$$$
JOR-UNI-2fc-3
  -OEChem-03232022352D

 25 27  0     0  0  0  0  0  0999 V2000
    0.8646   -1.5025    0.0000 O   0  0  0  0  0  0  0  0  0  0  0  0
    1.7313   -1.0038    0.0000 C   0  0  0  0  0  0  0  0  0  0  0  0
    1.7328   -0.0038    0.0000 N   0  0  0  0  0  0  0  0  0  0  0  0
    0.8675    0.4975    0.0000 C   0  0  0  0  0  0  0  0  0  0  0  0
    0.0000    0.0000    0.0000 C   0  0  0  0  0  0  0  0  0  0  0  0
   -0.8675    0.4975    0.0000 C   0  0  0  0  0  0  0  0  0  0  0  0
   -0.8675    1.5027    0.0000 C   0  0  0  0  0  0  0  0  0  0  0  0
    0.0000    2.0104    0.0000 N   0  0  0  0  0  0  0  0  0  0  0  0
    0.8675    1.5027    0.0000 C   0  0  0  0  0  0  0  0  0  0  0  0
    2.5966   -1.5050    0.0000 N   0  0  0  0  0  0  0  0  0  0  0  0
    3.4634   -1.0063    0.0000 C   0  0  0  0  0  0  0  0  0  0  0  0
    3.4648   -0.0063    0.0000 N   0  0  0  0  0  0  0  0  0  0  0  0
    4.3331    0.5002    0.0000 C   0  0  0  0  0  0  0  0  0  0  0  0
    4.3345    1.5054    0.0000 C   0  0  0  0  0  0  0  0  0  0  0  0
    3.4678    2.0041    0.0000 C   0  0  0  0  0  0  0  0  0  0  0  0
    3.4692    3.0041    0.0000 O   0  0  0  0  0  0  0  0  0  0  0  0
    2.5995    1.5079    0.0000 C   0  0  0  0  0  0  0  0  0  0  0  0
    2.5981    0.5027    0.0000 C   0  0  0  0  0  0  0  0  0  0  0  0
    2.5952   -2.5050    0.0000 C   0  0  0  0  0  0  0  0  0  0  0  0
    1.7225   -3.0038    0.0000 C   0  0  0  0  0  0  0  0  0  0  0  0
    1.7210   -4.0038    0.0000 C   0  0  0  0  0  0  0  0  0  0  0  0
    2.5833   -4.5101    0.0000 C   0  0  0  0  0  0  0  0  0  0  0  0
    3.4561   -4.0114    0.0000 C   0  0  0  0  0  0  0  0  0  0  0  0
    4.3184   -4.5177    0.0000 Cl  0  0  0  0  0  0  0  0  0  0  0  0
    3.4664   -3.0063    0.0000 C   0  0  0  0  0  0  0  0  0  0  0  0
  1  2  2  0  0  0  0
  2  3  1  0  0  0  0
  3  4  1  0  0  0  0
  4  9  2  0  0  0  0
  4  5  1  0  0  0  0
  5  6  2  0  0  0  0
  6  7  1  0  0  0  0
  7  8  2  0  0  0  0
  8  9  1  0  0  0  0
  2 10  1  0  0  0  0
 10 11  1  0  0  0  0
 11 12  1  0  0  0  0
 12 18  1  0  0  0  0
 12 13  1  0  0  0  0
 13 14  1  0  0  0  0
 14 15  1  0  0  0  0
 15 16  1  0  0  0  0
 15 17  1  0  0  0  0
 17 18  1  0  0  0  0
 10 19  1  0  0  0  0
 19 25  2  0  0  0  0
 19 20  1  0  0  0  0
 20 21  2  0  0  0  0
 21 22  1  0  0  0  0
 22 23  2  0  0  0  0
 23 24  1  0  0  0  0
 23 25  1  0  0  0  0
M  END
$$$$
JOR-UNI-2fc-4
  -OEChem-03232022352D

 24 26  0     0  0  0  0  0  0999 V2000
    0.8646   -1.5025    0.0000 O   0  0  0  0  0  0  0  0  0  0  0  0
    1.7313   -1.0038    0.0000 C   0  0  0  0  0  0  0  0  0  0  0  0
    1.7328   -0.0038    0.0000 N   0  0  0  0  0  0  0  0  0  0  0  0
    0.8675    0.4975    0.0000 C   0  0  0  0  0  0  0  0  0  0  0  0
    0.0000    0.0000    0.0000 C   0  0  0  0  0  0  0  0  0  0  0  0
   -0.8675    0.4975    0.0000 C   0  0  0  0  0  0  0  0  0  0  0  0
   -0.8675    1.5027    0.0000 C   0  0  0  0  0  0  0  0  0  0  0  0
    0.0000    2.0104    0.0000 N   0  0  0  0  0  0  0  0  0  0  0  0
    0.8675    1.5027    0.0000 C   0  0  0  0  0  0  0  0  0  0  0  0
    2.5966   -1.5050    0.0000 N   0  0  0  0  0  0  0  0  0  0  0  0
    3.4634   -1.0063    0.0000 C   0  0  0  0  0  0  0  0  0  0  0  0
    3.4648   -0.0063    0.0000 N   0  0  0  0  0  0  0  0  0  0  0  0
    4.3331    0.5002    0.0000 C   0  0  0  0  0  0  0  0  0  0  0  0
    4.3345    1.5054    0.0000 C   0  0  0  0  0  0  0  0  0  0  0  0
    3.4678    2.0041    0.0000 N   0  0  0  0  0  0  0  0  0  0  0  0
    2.5995    1.5079    0.0000 C   0  0  0  0  0  0  0  0  0  0  0  0
    2.5981    0.5027    0.0000 C   0  0  0  0  0  0  0  0  0  0  0  0
    2.5952   -2.5050    0.0000 C   0  0  0  0  0  0  0  0  0  0  0  0
    1.7225   -3.0038    0.0000 C   0  0  0  0  0  0  0  0  0  0  0  0
    1.7210   -4.0038    0.0000 C   0  0  0  0  0  0  0  0  0  0  0  0
    2.5833   -4.5101    0.0000 C   0  0  0  0  0  0  0  0  0  0  0  0
    3.4561   -4.0114    0.0000 C   0  0  0  0  0  0  0  0  0  0  0  0
    4.3184   -4.5177    0.0000 Cl  0  0  0  0  0  0  0  0  0  0  0  0
    3.4664   -3.0063    0.0000 C   0  0  0  0  0  0  0  0  0  0  0  0
  1  2  2  0  0  0  0
  2  3  1  0  0  0  0
  3  4  1  0  0  0  0
  4  9  2  0  0  0  0
  4  5  1  0  0  0  0
  5  6  2  0  0  0  0
  6  7  1  0  0  0  0
  7  8  2  0  0  0  0
  8  9  1  0  0  0  0
  2 10  1  0  0  0  0
 10 11  1  0  0  0  0
 11 12  1  0  0  0  0
 12 17  1  0  0  0  0
 12 13  1  0  0  0  0
 13 14  1  0  0  0  0
 14 15  1  0  0  0  0
 15 16  1  0  0  0  0
 16 17  1  0  0  0  0
 10 18  1  0  0  0  0
 18 24  2  0  0  0  0
 18 19  1  0  0  0  0
 19 20  2  0  0  0  0
 20 21  1  0  0  0  0
 21 22  2  0  0  0  0
 22 23  1  0  0  0  0
 22 24  1  0  0  0  0
M  END
$$$$
JOR-UNI-2fc-5
  -OEChem-03232022352D

 25 27  0     0  0  0  0  0  0999 V2000
    0.8675    2.5129    0.0000 C   0  0  0  0  0  0  0  0  0  0  0  0
    0.8675    1.5129    0.0000 N   0  0  0  0  0  0  0  0  0  0  0  0
    0.0000    1.0052    0.0000 C   0  0  0  0  0  0  0  0  0  0  0  0
    0.0000    0.0000    0.0000 C   0  0  0  0  0  0  0  0  0  0  0  0
    0.8675   -0.4975    0.0000 N   0  0  0  0  0  0  0  0  0  0  0  0
    0.8675   -1.4975    0.0000 C   0  0  0  0  0  0  0  0  0  0  0  0
    1.7335   -1.9975    0.0000 N   0  0  0  0  0  0  0  0  0  0  0  0
    2.5996   -1.4975    0.0000 C   0  0  0  0  0  0  0  0  0  0  0  0
    3.4656   -1.9975    0.0000 O   0  0  0  0  0  0  0  0  0  0  0  0
    2.5996   -0.4975    0.0000 N   0  0  0  0  0  0  0  0  0  0  0  0
    3.4656    0.0025    0.0000 C   0  0  0  0  0  0  0  0  0  0  0  0
    3.4670    1.0025    0.0000 C   0  0  0  0  0  0  0  0  0  0  0  0
    4.3309    1.5063    0.0000 C   0  0  0  0  0  0  0  0  0  0  0  0
    5.2022    1.0050    0.0000 C   0  0  0  0  0  0  0  0  0  0  0  0
    5.2095   -0.0001    0.0000 N   0  0  0  0  0  0  0  0  0  0  0  0
    4.3368   -0.4988    0.0000 C   0  0  0  0  0  0  0  0  0  0  0  0
    1.7335   -2.9975    0.0000 C   0  0  0  0  0  0  0  0  0  0  0  0
    0.8615   -3.4975    0.0000 C   0  0  0  0  0  0  0  0  0  0  0  0
    0.8615   -4.4976    0.0000 C   0  0  0  0  0  0  0  0  0  0  0  0
    1.7246   -5.0026    0.0000 C   0  0  0  0  0  0  0  0  0  0  0  0
    2.5966   -4.5026    0.0000 C   0  0  0  0  0  0  0  0  0  0  0  0
    3.4597   -5.0077    0.0000 Cl  0  0  0  0  0  0  0  0  0  0  0  0
    2.6055   -3.4975    0.0000 C   0  0  0  0  0  0  0  0  0  0  0  0
    1.7350    0.0000    0.0000 C   0  0  0  0  0  0  0  0  0  0  0  0
    1.7350    1.0052    0.0000 C   0  0  0  0  0  0  0  0  0  0  0  0
  1  2  1  0  0  0  0
  2 25  1  0  0  0  0
  2  3  1  0  0  0  0
  3  4  1  0  0  0  0
  4  5  1  0  0  0  0
  5  6  1  0  0  0  0
  6  7  1  0  0  0  0
  7  8  1  0  0  0  0
  8  9  2  0  0  0  0
  8 10  1  0  0  0  0
 10 11  1  0  0  0  0
 11 16  2  0  0  0  0
 11 12  1  0  0  0  0
 12 13  2  0  0  0  0
 13 14  1  0  0  0  0
 14 15  2  0  0  0  0
 15 16  1  0  0  0  0
  7 17  1  0  0  0  0
 17 23  2  0  0  0  0
 17 18  1  0  0  0  0
 18 19  2  0  0  0  0
 19 20  1  0  0  0  0
 20 21  2  0  0  0  0
 21 22  1  0  0  0  0
 21 23  1  0  0  0  0
  5 24  1  0  0  0  0
 24 25  1  0  0  0  0
M  END
$$$$
JOR-UNI-2fc-6
  -OEChem-03232022352D

 25 27  0     0  0  0  0  0  0999 V2000
    0.8646   -1.5025    0.0000 O   0  0  0  0  0  0  0  0  0  0  0  0
    1.7313   -1.0038    0.0000 C   0  0  0  0  0  0  0  0  0  0  0  0
    1.7328   -0.0038    0.0000 N   0  0  0  0  0  0  0  0  0  0  0  0
    0.8675    0.4975    0.0000 C   0  0  0  0  0  0  0  0  0  0  0  0
    0.0000    0.0000    0.0000 C   0  0  0  0  0  0  0  0  0  0  0  0
   -0.8675    0.4975    0.0000 C   0  0  0  0  0  0  0  0  0  0  0  0
   -0.8675    1.5027    0.0000 C   0  0  0  0  0  0  0  0  0  0  0  0
    0.0000    2.0104    0.0000 N   0  0  0  0  0  0  0  0  0  0  0  0
    0.8675    1.5027    0.0000 C   0  0  0  0  0  0  0  0  0  0  0  0
    2.5966   -1.5050    0.0000 N   0  0  0  0  0  0  0  0  0  0  0  0
    3.4634   -1.0063    0.0000 C   0  0  0  0  0  0  0  0  0  0  0  0
    3.4648   -0.0063    0.0000 C   0  0  0  0  0  0  0  0  0  0  0  0
    4.3316    0.4925    0.0000 N   0  0  0  0  0  0  0  0  0  0  0  0
    4.3301    1.4925    0.0000 C   0  0  0  0  0  0  0  0  0  0  0  0
    5.2014    1.9938    0.0000 C   0  0  0  0  0  0  0  0  0  0  0  0
    6.0741    1.4951    0.0000 O   0  0  0  0  0  0  0  0  0  0  0  0
    6.0667    0.4900    0.0000 C   0  0  0  0  0  0  0  0  0  0  0  0
    5.1955   -0.0113    0.0000 C   0  0  0  0  0  0  0  0  0  0  0  0
    2.5952   -2.5050    0.0000 C   0  0  0  0  0  0  0  0  0  0  0  0
    1.7225   -3.0038    0.0000 C   0  0  0  0  0  0  0  0  0  0  0  0
    1.7210   -4.0038    0.0000 C   0  0  0  0  0  0  0  0  0  0  0  0
    2.5833   -4.5101    0.0000 C   0  0  0  0  0  0  0  0  0  0  0  0
    3.4561   -4.0114    0.0000 C   0  0  0  0  0  0  0  0  0  0  0  0
    4.3184   -4.5177    0.0000 Cl  0  0  0  0  0  0  0  0  0  0  0  0
    3.4664   -3.0063    0.0000 C   0  0  0  0  0  0  0  0  0  0  0  0
  1  2  2  0  0  0  0
  2  3  1  0  0  0  0
  3  4  1  0  0  0  0
  4  9  2  0  0  0  0
  4  5  1  0  0  0  0
  5  6  2  0  0  0  0
  6  7  1  0  0  0  0
  7  8  2  0  0  0  0
  8  9  1  0  0  0  0
  2 10  1  0  0  0  0
 10 11  1  0  0  0  0
 11 12  1  0  0  0  0
 12 13  1  0  0  0  0
 13 18  1  0  0  0  0
 13 14  1  0  0  0  0
 14 15  1  0  0  0  0
 15 16  1  0  0  0  0
 16 17  1  0  0  0  0
 17 18  1  0  0  0  0
 10 19  1  0  0  0  0
 19 25  2  0  0  0  0
 19 20  1  0  0  0  0
 20 21  2  0  0  0  0
 21 22  1  0  0  0  0
 22 23  2  0  0  0  0
 23 24  1  0  0  0  0
 23 25  1  0  0  0  0
M  END
$$$$
JOR-UNI-2fc-7
  -OEChem-03232022352D

 17 18  0     0  0  0  0  0  0999 V2000
    0.8646   -1.5025    0.0000 O   0  0  0  0  0  0  0  0  0  0  0  0
    1.7313   -1.0038    0.0000 C   0  0  0  0  0  0  0  0  0  0  0  0
    1.7328   -0.0038    0.0000 N   0  0  0  0  0  0  0  0  0  0  0  0
    0.8675    0.4975    0.0000 C   0  0  0  0  0  0  0  0  0  0  0  0
    0.0000    0.0000    0.0000 C   0  0  0  0  0  0  0  0  0  0  0  0
   -0.8675    0.4975    0.0000 C   0  0  0  0  0  0  0  0  0  0  0  0
   -0.8675    1.5027    0.0000 C   0  0  0  0  0  0  0  0  0  0  0  0
    0.0000    2.0104    0.0000 N   0  0  0  0  0  0  0  0  0  0  0  0
    0.8675    1.5027    0.0000 C   0  0  0  0  0  0  0  0  0  0  0  0
    2.5966   -1.5050    0.0000 N   0  0  0  0  0  0  0  0  0  0  0  0
    2.5952   -2.5050    0.0000 C   0  0  0  0  0  0  0  0  0  0  0  0
    1.7225   -3.0038    0.0000 C   0  0  0  0  0  0  0  0  0  0  0  0
    1.7210   -4.0038    0.0000 C   0  0  0  0  0  0  0  0  0  0  0  0
    2.5833   -4.5101    0.0000 C   0  0  0  0  0  0  0  0  0  0  0  0
    3.4561   -4.0114    0.0000 C   0  0  0  0  0  0  0  0  0  0  0  0
    4.3184   -4.5177    0.0000 Cl  0  0  0  0  0  0  0  0  0  0  0  0
    3.4664   -3.0063    0.0000 C   0  0  0  0  0  0  0  0  0  0  0  0
  1  2  2  0  0  0  0
  2  3  1  0  0  0  0
  3  4  1  0  0  0  0
  4  9  2  0  0  0  0
  4  5  1  0  0  0  0
  5  6  2  0  0  0  0
  6  7  1  0  0  0  0
  7  8  2  0  0  0  0
  8  9  1  0  0  0  0
  2 10  1  0  0  0  0
 10 11  1  0  0  0  0
 11 17  2  0  0  0  0
 11 12  1  0  0  0  0
 12 13  2  0  0  0  0
 13 14  1  0  0  0  0
 14 15  2  0  0  0  0
 15 16  1  0  0  0  0
 15 17  1  0  0  0  0
M  END
$$$$
JOR-UNI-2fc-8
  -OEChem-03232022352D

 22 24  0     0  0  0  0  0  0999 V2000
    0.8646   -1.5025    0.0000 O   0  0  0  0  0  0  0  0  0  0  0  0
    1.7313   -1.0038    0.0000 C   0  0  0  0  0  0  0  0  0  0  0  0
    1.7328   -0.0038    0.0000 N   0  0  0  0  0  0  0  0  0  0  0  0
    0.8675    0.4975    0.0000 C   0  0  0  0  0  0  0  0  0  0  0  0
    0.0000    0.0000    0.0000 C   0  0  0  0  0  0  0  0  0  0  0  0
   -0.8675    0.4975    0.0000 C   0  0  0  0  0  0  0  0  0  0  0  0
   -0.8675    1.5027    0.0000 C   0  0  0  0  0  0  0  0  0  0  0  0
    0.0000    2.0104    0.0000 N   0  0  0  0  0  0  0  0  0  0  0  0
    0.8675    1.5027    0.0000 C   0  0  0  0  0  0  0  0  0  0  0  0
    2.5966   -1.5050    0.0000 N   0  0  0  0  0  0  0  0  0  0  0  0
    3.4634   -1.0063    0.0000 C   0  0  0  0  0  0  0  0  0  0  0  0
    3.4648   -0.0063    0.0000 C   0  0  0  0  0  0  0  0  0  0  0  0
    4.3316    0.4925    0.0000 C   0  0  0  0  0  0  0  0  0  0  0  0
    5.3335    0.4921    0.0000 C   0  0  0  0  0  0  0  0  0  0  0  0
    4.8347    1.3589    0.0000 C   0  0  0  0  0  0  0  0  0  0  0  0
    2.5952   -2.5050    0.0000 C   0  0  0  0  0  0  0  0  0  0  0  0
    1.7225   -3.0038    0.0000 C   0  0  0  0  0  0  0  0  0  0  0  0
    1.7210   -4.0038    0.0000 C   0  0  0  0  0  0  0  0  0  0  0  0
    2.5833   -4.5101    0.0000 C   0  0  0  0  0  0  0  0  0  0  0  0
    3.4561   -4.0114    0.0000 C   0  0  0  0  0  0  0  0  0  0  0  0
    4.3184   -4.5177    0.0000 Cl  0  0  0  0  0  0  0  0  0  0  0  0
    3.4664   -3.0063    0.0000 C   0  0  0  0  0  0  0  0  0  0  0  0
  1  2  2  0  0  0  0
  2  3  1  0  0  0  0
  3  4  1  0  0  0  0
  4  9  2  0  0  0  0
  4  5  1  0  0  0  0
  5  6  2  0  0  0  0
  6  7  1  0  0  0  0
  7  8  2  0  0  0  0
  8  9  1  0  0  0  0
  2 10  1  0  0  0  0
 10 11  1  0  0  0  0
 11 12  1  0  0  0  0
 12 13  1  0  0  0  0
 13 15  1  0  0  0  0
 13 14  1  0  0  0  0
 14 15  1  0  0  0  0
 10 16  1  0  0  0  0
 16 22  2  0  0  0  0
 16 17  1  0  0  0  0
 17 18  2  0  0  0  0
 18 19  1  0  0  0  0
 19 20  2  0  0  0  0
 20 21  1  0  0  0  0
 20 22  1  0  0  0  0
M  END
$$$$
JOR-UNI-2fc-9
  -OEChem-03232022352D

 26 28  0     1  0  0  0  0  0999 V2000
    1.6983   -3.6216    0.0000 O   0  0  0  0  0  0  0  0  0  0  0  0
    1.2737   -2.7162    0.0000 C   0  0  0  0  0  0  0  0  0  0  0  0
    0.2774   -2.6312    0.0000 N   0  0  0  0  0  0  0  0  0  0  0  0
   -0.2945   -3.4516    0.0000 C   0  0  0  0  0  0  0  0  0  0  0  0
    0.1288   -4.3576    0.0000 C   0  0  0  0  0  0  0  0  0  0  0  0
   -0.4394   -5.1805    0.0000 C   0  0  0  0  0  0  0  0  0  0  0  0
   -1.4411   -5.0965    0.0000 C   0  0  0  0  0  0  0  0  0  0  0  0
   -1.8745   -4.1896    0.0000 N   0  0  0  0  0  0  0  0  0  0  0  0
   -1.2961   -3.3676    0.0000 C   0  0  0  0  0  0  0  0  0  0  0  0
    1.8455   -1.8958    0.0000 N   0  0  0  0  0  0  0  0  0  0  0  0
    1.4210   -0.9904    0.0000 C   0  0  0  0  0  0  0  0  0  0  0  0
    0.4246   -0.9054    0.0000 C   0  0  0  0  0  0  0  0  0  0  0  0
    0.0000    0.0000    0.0000 N   0  0  3  0  0  0  0  0  0  0  0  0
   -1.0058    0.0072    0.0000 C   0  0  0  0  0  0  0  0  0  0  0  0
   -1.6255    0.8001    0.0000 C   0  0  0  0  0  0  0  0  0  0  0  0
   -1.3907    1.7794    0.0000 C   0  0  0  0  0  0  0  0  0  0  0  0
   -0.4840    2.2012    0.0000 O   0  0  0  0  0  0  0  0  0  0  0  0
    0.4188    1.7552    0.0000 C   0  0  0  0  0  0  0  0  0  0  0  0
    0.6361    0.7760    0.0000 C   0  0  0  0  0  0  0  0  0  0  0  0
    2.8419   -1.9808    0.0000 C   0  0  0  0  0  0  0  0  0  0  0  0
    3.2660   -2.8921    0.0000 C   0  0  0  0  0  0  0  0  0  0  0  0
    4.2624   -2.9772    0.0000 C   0  0  0  0  0  0  0  0  0  0  0  0
    4.8390   -2.1601    0.0000 C   0  0  0  0  0  0  0  0  0  0  0  0
    4.4149   -1.2488    0.0000 C   0  0  0  0  0  0  0  0  0  0  0  0
    4.9916   -0.4318    0.0000 Cl  0  0  0  0  0  0  0  0  0  0  0  0
    3.4142   -1.1545    0.0000 C   0  0  0  0  0  0  0  0  0  0  0  0
  1  2  2  0  0  0  0
  2  3  1  0  0  0  0
  3  4  1  0  0  0  0
  4  9  2  0  0  0  0
  4  5  1  0  0  0  0
  5  6  2  0  0  0  0
  6  7  1  0  0  0  0
  7  8  2  0  0  0  0
  8  9  1  0  0  0  0
  2 10  1  0  0  0  0
 10 11  1  0  0  0  0
 11 12  1  0  0  0  0
 12 13  1  0  0  0  0
 13 19  1  0  0  0  0
 13 14  1  0  0  0  0
 14 15  1  0  0  0  0
 15 16  1  0  0  0  0
 16 17  1  0  0  0  0
 17 18  1  0  0  0  0
 18 19  1  0  0  0  0
 10 20  1  0  0  0  0
 20 26  2  0  0  0  0
 20 21  1  0  0  0  0
 21 22  2  0  0  0  0
 22 23  1  0  0  0  0
 23 24  2  0  0  0  0
 24 25  1  0  0  0  0
 24 26  1  0  0  0  0
M  END
$$$$
JOR-UNI-2fc-10
  -OEChem-03232022352D

 25 27  0     0  0  0  0  0  0999 V2000
    0.8646   -1.5025    0.0000 O   0  0  0  0  0  0  0  0  0  0  0  0
    1.7313   -1.0038    0.0000 C   0  0  0  0  0  0  0  0  0  0  0  0
    1.7328   -0.0038    0.0000 N   0  0  0  0  0  0  0  0  0  0  0  0
    0.8675    0.4975    0.0000 C   0  0  0  0  0  0  0  0  0  0  0  0
    0.0000    0.0000    0.0000 C   0  0  0  0  0  0  0  0  0  0  0  0
   -0.8675    0.4975    0.0000 C   0  0  0  0  0  0  0  0  0  0  0  0
   -0.8675    1.5027    0.0000 C   0  0  0  0  0  0  0  0  0  0  0  0
    0.0000    2.0104    0.0000 N   0  0  0  0  0  0  0  0  0  0  0  0
    0.8675    1.5027    0.0000 C   0  0  0  0  0  0  0  0  0  0  0  0
    2.5966   -1.5050    0.0000 N   0  0  0  0  0  0  0  0  0  0  0  0
    3.4634   -1.0063    0.0000 C   0  0  0  0  0  0  0  0  0  0  0  0
    3.4648   -0.0063    0.0000 C   0  0  0  0  0  0  0  0  0  0  0  0
    4.3316    0.4925    0.0000 N   0  0  0  0  0  0  0  0  0  0  0  0
    5.2043   -0.0062    0.0000 C   0  0  0  0  0  0  0  0  0  0  0  0
    6.0756    0.4951    0.0000 C   0  0  0  0  0  0  0  0  0  0  0  0
    6.0741    1.4951    0.0000 N   0  3  0  0  0  0  0  0  0  0  0  0
    5.2102    1.9989    0.0000 C   0  0  0  0  0  0  0  0  0  0  0  0
    4.3390    1.4976    0.0000 C   0  0  0  0  0  0  0  0  0  0  0  0
    2.5952   -2.5050    0.0000 C   0  0  0  0  0  0  0  0  0  0  0  0
    1.7225   -3.0038    0.0000 C   0  0  0  0  0  0  0  0  0  0  0  0
    1.7210   -4.0038    0.0000 C   0  0  0  0  0  0  0  0  0  0  0  0
    2.5833   -4.5101    0.0000 C   0  0  0  0  0  0  0  0  0  0  0  0
    3.4561   -4.0114    0.0000 C   0  0  0  0  0  0  0  0  0  0  0  0
    4.3184   -4.5177    0.0000 Cl  0  0  0  0  0  0  0  0  0  0  0  0
    3.4664   -3.0063    0.0000 C   0  0  0  0  0  0  0  0  0  0  0  0
  1  2  2  0  0  0  0
  2  3  1  0  0  0  0
  3  4  1  0  0  0  0
  4  9  2  0  0  0  0
  4  5  1  0  0  0  0
  5  6  2  0  0  0  0
  6  7  1  0  0  0  0
  7  8  2  0  0  0  0
  8  9  1  0  0  0  0
  2 10  1  0  0  0  0
 10 11  1  0  0  0  0
 11 12  1  0  0  0  0
 12 13  1  0  0  0  0
 13 18  1  0  0  0  0
 13 14  1  0  0  0  0
 14 15  1  0  0  0  0
 15 16  1  0  0  0  0
 16 17  1  0  0  0  0
 17 18  1  0  0  0  0
 10 19  1  0  0  0  0
 19 25  2  0  0  0  0
 19 20  1  0  0  0  0
 20 21  2  0  0  0  0
 21 22  1  0  0  0  0
 22 23  2  0  0  0  0
 23 24  1  0  0  0  0
 23 25  1  0  0  0  0
M  CHG  1  16   1
M  END
$$$$
JOR-UNI-2fc-11
  -OEChem-03232022352D

 26 28  0     0  0  0  0  0  0999 V2000
    0.8675    2.5129    0.0000 C   0  0  0  0  0  0  0  0  0  0  0  0
    0.8675    1.5129    0.0000 N   0  0  0  0  0  0  0  0  0  0  0  0
    0.0000    1.0052    0.0000 C   0  0  0  0  0  0  0  0  0  0  0  0
    0.0000    0.0000    0.0000 C   0  0  0  0  0  0  0  0  0  0  0  0
    0.8675   -0.4975    0.0000 N   0  0  0  0  0  0  0  0  0  0  0  0
    0.8675   -1.4975    0.0000 C   0  0  0  0  0  0  0  0  0  0  0  0
    1.7335   -1.9975    0.0000 C   0  0  0  0  0  0  0  0  0  0  0  0
    1.7335   -2.9975    0.0000 N   0  0  0  0  0  0  0  0  0  0  0  0
    2.5996   -3.4975    0.0000 C   0  0  0  0  0  0  0  0  0  0  0  0
    2.5996   -4.4975    0.0000 O   0  0  0  0  0  0  0  0  0  0  0  0
    3.4656   -2.9975    0.0000 N   0  0  0  0  0  0  0  0  0  0  0  0
    4.3316   -3.4975    0.0000 C   0  0  0  0  0  0  0  0  0  0  0  0
    5.1984   -2.9987    0.0000 C   0  0  0  0  0  0  0  0  0  0  0  0
    6.0666   -3.4950    0.0000 C   0  0  0  0  0  0  0  0  0  0  0  0
    6.0681   -4.5002    0.0000 C   0  0  0  0  0  0  0  0  0  0  0  0
    5.2013   -5.0091    0.0000 N   0  0  0  0  0  0  0  0  0  0  0  0
    4.3331   -4.5027    0.0000 C   0  0  0  0  0  0  0  0  0  0  0  0
    0.8675   -3.4975    0.0000 C   0  0  0  0  0  0  0  0  0  0  0  0
   -0.0015   -2.9923    0.0000 C   0  0  0  0  0  0  0  0  0  0  0  0
   -0.8676   -3.4923    0.0000 C   0  0  0  0  0  0  0  0  0  0  0  0
   -0.8735   -4.4923    0.0000 C   0  0  0  0  0  0  0  0  0  0  0  0
   -0.0044   -4.9975    0.0000 C   0  0  0  0  0  0  0  0  0  0  0  0
   -0.0103   -5.9975    0.0000 Cl  0  0  0  0  0  0  0  0  0  0  0  0
    0.8705   -4.5026    0.0000 C   0  0  0  0  0  0  0  0  0  0  0  0
    1.7350    0.0000    0.0000 C   0  0  0  0  0  0  0  0  0  0  0  0
    1.7350    1.0052    0.0000 C   0  0  0  0  0  0  0  0  0  0  0  0
  1  2  1  0  0  0  0
  2 26  1  0  0  0  0
  2  3  1  0  0  0  0
  3  4  1  0  0  0  0
  4  5  1  0  0  0  0
  5  6  1  0  0  0  0
  6  7  1  0  0  0  0
  7  8  1  0  0  0  0
  8  9  1  0  0  0  0
  9 10  2  0  0  0  0
  9 11  1  0  0  0  0
 11 12  1  0  0  0  0
 12 17  2  0  0  0  0
 12 13  1  0  0  0  0
 13 14  2  0  0  0  0
 14 15  1  0  0  0  0
 15 16  2  0  0  0  0
 16 17  1  0  0  0  0
  8 18  1  0  0  0  0
 18 24  2  0  0  0  0
 18 19  1  0  0  0  0
 19 20  2  0  0  0  0
 20 21  1  0  0  0  0
 21 22  2  0  0  0  0
 22 23  1  0  0  0  0
 22 24  1  0  0  0  0
  5 25  1  0  0  0  0
 25 26  1  0  0  0  0
M  END
$$$$
JOR-UNI-2fc-12
  -OEChem-03232022352D

 25 27  0     0  0  0  0  0  0999 V2000
    0.8646   -1.5025    0.0000 O   0  0  0  0  0  0  0  0  0  0  0  0
    1.7313   -1.0038    0.0000 C   0  0  0  0  0  0  0  0  0  0  0  0
    1.7328   -0.0038    0.0000 N   0  0  0  0  0  0  0  0  0  0  0  0
    0.8675    0.4975    0.0000 C   0  0  0  0  0  0  0  0  0  0  0  0
    0.0000    0.0000    0.0000 C   0  0  0  0  0  0  0  0  0  0  0  0
   -0.8675    0.4975    0.0000 C   0  0  0  0  0  0  0  0  0  0  0  0
   -0.8675    1.5027    0.0000 C   0  0  0  0  0  0  0  0  0  0  0  0
    0.0000    2.0104    0.0000 N   0  0  0  0  0  0  0  0  0  0  0  0
    0.8675    1.5027    0.0000 C   0  0  0  0  0  0  0  0  0  0  0  0
    2.5966   -1.5050    0.0000 N   0  0  0  0  0  0  0  0  0  0  0  0
    3.4634   -1.0063    0.0000 C   0  0  0  0  0  0  0  0  0  0  0  0
    3.4648   -0.0063    0.0000 C   0  0  0  0  0  0  0  0  0  0  0  0
    4.3316    0.4925    0.0000 C   0  0  0  0  0  0  0  0  0  0  0  0
    4.3301    1.4977    0.0000 C   0  0  0  0  0  0  0  0  0  0  0  0
    5.1968    1.9965    0.0000 C   0  0  0  0  0  0  0  0  0  0  0  0
    6.0651    1.5003    0.0000 C   0  0  0  0  0  0  0  0  0  0  0  0
    6.0666    0.4951    0.0000 C   0  0  0  0  0  0  0  0  0  0  0  0
    5.1999   -0.0139    0.0000 C   0  0  0  0  0  0  0  0  0  0  0  0
    2.5952   -2.5050    0.0000 C   0  0  0  0  0  0  0  0  0  0  0  0
    1.7225   -3.0038    0.0000 C   0  0  0  0  0  0  0  0  0  0  0  0
    1.7210   -4.0038    0.0000 C   0  0  0  0  0  0  0  0  0  0  0  0
    2.5833   -4.5101    0.0000 C   0  0  0  0  0  0  0  0  0  0  0  0
    3.4561   -4.0114    0.0000 C   0  0  0  0  0  0  0  0  0  0  0  0
    4.3184   -4.5177    0.0000 Cl  0  0  0  0  0  0  0  0  0  0  0  0
    3.4664   -3.0063    0.0000 C   0  0  0  0  0  0  0  0  0  0  0  0
  1  2  2  0  0  0  0
  2  3  1  0  0  0  0
  3  4  1  0  0  0  0
  4  9  2  0  0  0  0
  4  5  1  0  0  0  0
  5  6  2  0  0  0  0
  6  7  1  0  0  0  0
  7  8  2  0  0  0  0
  8  9  1  0  0  0  0
  2 10  1  0  0  0  0
 10 11  1  0  0  0  0
 11 12  1  0  0  0  0
 12 13  1  0  0  0  0
 13 18  1  0  0  0  0
 13 14  1  0  0  0  0
 14 15  1  0  0  0  0
 15 16  1  0  0  0  0
 16 17  1  0  0  0  0
 17 18  1  0  0  0  0
 10 19  1  0  0  0  0
 19 25  2  0  0  0  0
 19 20  1  0  0  0  0
 20 21  2  0  0  0  0
 21 22  1  0  0  0  0
 22 23  2  0  0  0  0
 23 24  1  0  0  0  0
 23 25  1  0  0  0  0
M  END
$$$$
JOR-UNI-2fc-13
  -OEChem-03232022352D

 26 28  0     0  0  0  0  0  0999 V2000
    0.8646   -1.5025    0.0000 O   0  0  0  0  0  0  0  0  0  0  0  0
    1.7313   -1.0038    0.0000 C   0  0  0  0  0  0  0  0  0  0  0  0
    1.7328   -0.0038    0.0000 N   0  0  0  0  0  0  0  0  0  0  0  0
    0.8675    0.4975    0.0000 C   0  0  0  0  0  0  0  0  0  0  0  0
    0.0000    0.0000    0.0000 C   0  0  0  0  0  0  0  0  0  0  0  0
   -0.8675    0.4975    0.0000 C   0  0  0  0  0  0  0  0  0  0  0  0
   -0.8675    1.5027    0.0000 C   0  0  0  0  0  0  0  0  0  0  0  0
    0.0000    2.0104    0.0000 N   0  0  0  0  0  0  0  0  0  0  0  0
    0.8675    1.5027    0.0000 C   0  0  0  0  0  0  0  0  0  0  0  0
    2.5966   -1.5050    0.0000 N   0  0  0  0  0  0  0  0  0  0  0  0
    3.4634   -1.0063    0.0000 C   0  0  0  0  0  0  0  0  0  0  0  0
    3.4648   -0.0063    0.0000 C   0  0  0  0  0  0  0  0  0  0  0  0
    4.3316    0.4925    0.0000 N   0  0  0  0  0  0  0  0  0  0  0  0
    5.2043   -0.0062    0.0000 C   0  0  0  0  0  0  0  0  0  0  0  0
    6.0756    0.4951    0.0000 C   0  0  0  0  0  0  0  0  0  0  0  0
    6.0741    1.4951    0.0000 C   0  0  0  0  0  0  0  0  0  0  0  0
    6.9409    1.9939    0.0000 O   0  0  0  0  0  0  0  0  0  0  0  0
    5.2102    1.9989    0.0000 C   0  0  0  0  0  0  0  0  0  0  0  0
    4.3390    1.4976    0.0000 C   0  0  0  0  0  0  0  0  0  0  0  0
    2.5952   -2.5050    0.0000 C   0  0  0  0  0  0  0  0  0  0  0  0
    1.7225   -3.0038    0.0000 C   0  0  0  0  0  0  0  0  0  0  0  0
    1.7210   -4.0038    0.0000 C   0  0  0  0  0  0  0  0  0  0  0  0
    2.5833   -4.5101    0.0000 C   0  0  0  0  0  0  0  0  0  0  0  0
    3.4561   -4.0114    0.0000 C   0  0  0  0  0  0  0  0  0  0  0  0
    4.3184   -4.5177    0.0000 Cl  0  0  0  0  0  0  0  0  0  0  0  0
    3.4664   -3.0063    0.0000 C   0  0  0  0  0  0  0  0  0  0  0  0
  1  2  2  0  0  0  0
  2  3  1  0  0  0  0
  3  4  1  0  0  0  0
  4  9  2  0  0  0  0
  4  5  1  0  0  0  0
  5  6  2  0  0  0  0
  6  7  1  0  0  0  0
  7  8  2  0  0  0  0
  8  9  1  0  0  0  0
  2 10  1  0  0  0  0
 10 11  1  0  0  0  0
 11 12  1  0  0  0  0
 12 13  1  0  0  0  0
 13 19  1  0  0  0  0
 13 14  1  0  0  0  0
 14 15  1  0  0  0  0
 15 16  1  0  0  0  0
 16 17  1  0  0  0  0
 16 18  1  0  0  0  0
 18 19  1  0  0  0  0
 10 20  1  0  0  0  0
 20 26  2  0  0  0  0
 20 21  1  0  0  0  0
 21 22  2  0  0  0  0
 22 23  1  0  0  0  0
 23 24  2  0  0  0  0
 24 25  1  0  0  0  0
 24 26  1  0  0  0  0
M  END
$$$$
JOR-UNI-2fc-14
  -OEChem-03232022352D

 25 27  0     0  0  0  0  0  0999 V2000
   -0.0000   -1.0000    0.0000 C   0  0  0  0  0  0  0  0  0  0  0  0
    0.0000    0.0000    0.0000 C   0  0  0  0  0  0  0  0  0  0  0  0
   -0.8675    0.4975    0.0000 C   0  0  0  0  0  0  0  0  0  0  0  0
   -0.8675    1.5027    0.0000 C   0  0  0  0  0  0  0  0  0  0  0  0
    0.0000    2.0104    0.0000 N   0  0  0  0  0  0  0  0  0  0  0  0
    0.0000    3.0104    0.0000 C   0  0  0  0  0  0  0  0  0  0  0  0
   -0.8660    3.5104    0.0000 N   0  0  0  0  0  0  0  0  0  0  0  0
   -1.7321    3.0104    0.0000 C   0  0  0  0  0  0  0  0  0  0  0  0
   -2.5981    3.5104    0.0000 O   0  0  0  0  0  0  0  0  0  0  0  0
   -1.7321    2.0104    0.0000 N   0  0  0  0  0  0  0  0  0  0  0  0
   -2.5981    1.5104    0.0000 C   0  0  0  0  0  0  0  0  0  0  0  0
   -2.5995    0.5104    0.0000 C   0  0  0  0  0  0  0  0  0  0  0  0
   -3.4634    0.0066    0.0000 C   0  0  0  0  0  0  0  0  0  0  0  0
   -4.3347    0.5079    0.0000 C   0  0  0  0  0  0  0  0  0  0  0  0
   -4.3420    1.5130    0.0000 N   0  0  0  0  0  0  0  0  0  0  0  0
   -3.4693    2.0117    0.0000 C   0  0  0  0  0  0  0  0  0  0  0  0
   -0.8660    4.5104    0.0000 C   0  0  0  0  0  0  0  0  0  0  0  0
    0.0060    5.0104    0.0000 C   0  0  0  0  0  0  0  0  0  0  0  0
    0.0060    6.0105    0.0000 C   0  0  0  0  0  0  0  0  0  0  0  0
   -0.8571    6.5155    0.0000 C   0  0  0  0  0  0  0  0  0  0  0  0
   -1.7291    6.0155    0.0000 C   0  0  0  0  0  0  0  0  0  0  0  0
   -2.5921    6.5206    0.0000 Cl  0  0  0  0  0  0  0  0  0  0  0  0
   -1.7380    5.0104    0.0000 C   0  0  0  0  0  0  0  0  0  0  0  0
    0.8675    1.5027    0.0000 C   0  0  0  0  0  0  0  0  0  0  0  0
    0.8675    0.4975    0.0000 C   0  0  0  0  0  0  0  0  0  0  0  0
  1  2  1  0  0  0  0
  2 25  1  0  0  0  0
  2  3  1  0  0  0  0
  3  4  1  0  0  0  0
  4  5  1  0  0  0  0
  5  6  1  0  0  0  0
  6  7  1  0  0  0  0
  7  8  1  0  0  0  0
  8  9  2  0  0  0  0
  8 10  1  0  0  0  0
 10 11  1  0  0  0  0
 11 16  2  0  0  0  0
 11 12  1  0  0  0  0
 12 13  2  0  0  0  0
 13 14  1  0  0  0  0
 14 15  2  0  0  0  0
 15 16  1  0  0  0  0
  7 17  1  0  0  0  0
 17 23  2  0  0  0  0
 17 18  1  0  0  0  0
 18 19  2  0  0  0  0
 19 20  1  0  0  0  0
 20 21  2  0  0  0  0
 21 22  1  0  0  0  0
 21 23  1  0  0  0  0
  5 24  1  0  0  0  0
 24 25  1  0  0  0  0
M  END
$$$$
JOR-UNI-2fc-15
  -OEChem-03232022352D

 26 28  0     0  0  0  0  0  0999 V2000
   -0.0000   -1.0000    0.0000 C   0  0  0  0  0  0  0  0  0  0  0  0
    0.0000    0.0000    0.0000 C   0  0  0  0  0  0  0  0  0  0  0  0
   -0.8675    0.4975    0.0000 C   0  0  0  0  0  0  0  0  0  0  0  0
   -0.8675    1.5027    0.0000 C   0  0  0  0  0  0  0  0  0  0  0  0
    0.0000    2.0104    0.0000 N   0  0  0  0  0  0  0  0  0  0  0  0
    0.0000    3.0104    0.0000 C   0  0  0  0  0  0  0  0  0  0  0  0
   -0.8660    3.5104    0.0000 C   0  0  0  0  0  0  0  0  0  0  0  0
   -0.8660    4.5104    0.0000 N   0  0  0  0  0  0  0  0  0  0  0  0
   -1.7320    5.0104    0.0000 C   0  0  0  0  0  0  0  0  0  0  0  0
   -1.7320    6.0104    0.0000 O   0  0  0  0  0  0  0  0  0  0  0  0
   -2.5981    4.5104    0.0000 N   0  0  0  0  0  0  0  0  0  0  0  0
   -3.4641    5.0104    0.0000 C   0  0  0  0  0  0  0  0  0  0  0  0
   -4.3309    4.5116    0.0000 C   0  0  0  0  0  0  0  0  0  0  0  0
   -5.1991    5.0079    0.0000 C   0  0  0  0  0  0  0  0  0  0  0  0
   -5.2006    6.0131    0.0000 C   0  0  0  0  0  0  0  0  0  0  0  0
   -4.3338    6.5220    0.0000 N   0  0  0  0  0  0  0  0  0  0  0  0
   -3.4656    6.0156    0.0000 C   0  0  0  0  0  0  0  0  0  0  0  0
    0.0000    5.0104    0.0000 C   0  0  0  0  0  0  0  0  0  0  0  0
    0.8690    4.5052    0.0000 C   0  0  0  0  0  0  0  0  0  0  0  0
    1.7351    5.0052    0.0000 C   0  0  0  0  0  0  0  0  0  0  0  0
    1.7410    6.0052    0.0000 C   0  0  0  0  0  0  0  0  0  0  0  0
    0.8719    6.5104    0.0000 C   0  0  0  0  0  0  0  0  0  0  0  0
    0.8778    7.5104    0.0000 Cl  0  0  0  0  0  0  0  0  0  0  0  0
   -0.0030    6.0155    0.0000 C   0  0  0  0  0  0  0  0  0  0  0  0
    0.8675    1.5027    0.0000 C   0  0  0  0  0  0  0  0  0  0  0  0
    0.8675    0.4975    0.0000 C   0  0  0  0  0  0  0  0  0  0  0  0
  1  2  1  0  0  0  0
  2 26  1  0  0  0  0
  2  3  1  0  0  0  0
  3  4  1  0  0  0  0
  4  5  1  0  0  0  0
  5  6  1  0  0  0  0
  6  7  1  0  0  0  0
  7  8  1  0  0  0  0
  8  9  1  0  0  0  0
  9 10  2  0  0  0  0
  9 11  1  0  0  0  0
 11 12  1  0  0  0  0
 12 17  2  0  0  0  0
 12 13  1  0  0  0  0
 13 14  2  0  0  0  0
 14 15  1  0  0  0  0
 15 16  2  0  0  0  0
 16 17  1  0  0  0  0
  8 18  1  0  0  0  0
 18 24  2  0  0  0  0
 18 19  1  0  0  0  0
 19 20  2  0  0  0  0
 20 21  1  0  0  0  0
 21 22  2  0  0  0  0
 22 23  1  0  0  0  0
 22 24  1  0  0  0  0
  5 25  1  0  0  0  0
 25 26  1  0  0  0  0
M  END
$$$$
JOR-UNI-2fc-16
  -OEChem-03232022352D

 24 26  0     0  0  0  0  0  0999 V2000
    0.8646   -1.5025    0.0000 O   0  0  0  0  0  0  0  0  0  0  0  0
    1.7313   -1.0038    0.0000 C   0  0  0  0  0  0  0  0  0  0  0  0
    1.7328   -0.0038    0.0000 N   0  0  0  0  0  0  0  0  0  0  0  0
    0.8675    0.4975    0.0000 C   0  0  0  0  0  0  0  0  0  0  0  0
    0.0000    0.0000    0.0000 C   0  0  0  0  0  0  0  0  0  0  0  0
   -0.8675    0.4975    0.0000 C   0  0  0  0  0  0  0  0  0  0  0  0
   -0.8675    1.5027    0.0000 C   0  0  0  0  0  0  0  0  0  0  0  0
    0.0000    2.0104    0.0000 N   0  0  0  0  0  0  0  0  0  0  0  0
    0.8675    1.5027    0.0000 C   0  0  0  0  0  0  0  0  0  0  0  0
    2.5966   -1.5050    0.0000 N   0  0  0  0  0  0  0  0  0  0  0  0
    3.4634   -1.0063    0.0000 C   0  0  0  0  0  0  0  0  0  0  0  0
    3.4648   -0.0063    0.0000 N   0  0  0  0  0  0  0  0  0  0  0  0
    4.3331    0.5002    0.0000 C   0  0  0  0  0  0  0  0  0  0  0  0
    4.3345    1.5054    0.0000 C   0  0  0  0  0  0  0  0  0  0  0  0
    3.4678    2.0041    0.0000 C   0  0  0  0  0  0  0  0  0  0  0  0
    2.5995    1.5079    0.0000 C   0  0  0  0  0  0  0  0  0  0  0  0
    2.5981    0.5027    0.0000 C   0  0  0  0  0  0  0  0  0  0  0  0
    2.5952   -2.5050    0.0000 C   0  0  0  0  0  0  0  0  0  0  0  0
    1.7225   -3.0038    0.0000 C   0  0  0  0  0  0  0  0  0  0  0  0
    1.7210   -4.0038    0.0000 C   0  0  0  0  0  0  0  0  0  0  0  0
    2.5833   -4.5101    0.0000 C   0  0  0  0  0  0  0  0  0  0  0  0
    3.4561   -4.0114    0.0000 C   0  0  0  0  0  0  0  0  0  0  0  0
    4.3184   -4.5177    0.0000 Cl  0  0  0  0  0  0  0  0  0  0  0  0
    3.4664   -3.0063    0.0000 C   0  0  0  0  0  0  0  0  0  0  0  0
  1  2  2  0  0  0  0
  2  3  1  0  0  0  0
  3  4  1  0  0  0  0
  4  9  2  0  0  0  0
  4  5  1  0  0  0  0
  5  6  2  0  0  0  0
  6  7  1  0  0  0  0
  7  8  2  0  0  0  0
  8  9  1  0  0  0  0
  2 10  1  0  0  0  0
 10 11  1  0  0  0  0
 11 12  1  0  0  0  0
 12 17  1  0  0  0  0
 12 13  1  0  0  0  0
 13 14  1  0  0  0  0
 14 15  1  0  0  0  0
 15 16  1  0  0  0  0
 16 17  1  0  0  0  0
 10 18  1  0  0  0  0
 18 24  2  0  0  0  0
 18 19  1  0  0  0  0
 19 20  2  0  0  0  0
 20 21  1  0  0  0  0
 21 22  2  0  0  0  0
 22 23  1  0  0  0  0
 22 24  1  0  0  0  0
M  END
$$$$
JOR-UNI-2fc-17
  -OEChem-03232022352D

 25 27  0     0  0  0  0  0  0999 V2000
    0.8646   -1.5025    0.0000 O   0  0  0  0  0  0  0  0  0  0  0  0
    1.7313   -1.0038    0.0000 C   0  0  0  0  0  0  0  0  0  0  0  0
    1.7328   -0.0038    0.0000 N   0  0  0  0  0  0  0  0  0  0  0  0
    0.8675    0.4975    0.0000 C   0  0  0  0  0  0  0  0  0  0  0  0
    0.0000    0.0000    0.0000 C   0  0  0  0  0  0  0  0  0  0  0  0
   -0.8675    0.4975    0.0000 C   0  0  0  0  0  0  0  0  0  0  0  0
   -0.8675    1.5027    0.0000 C   0  0  0  0  0  0  0  0  0  0  0  0
    0.0000    2.0104    0.0000 N   0  0  0  0  0  0  0  0  0  0  0  0
    0.8675    1.5027    0.0000 C   0  0  0  0  0  0  0  0  0  0  0  0
    2.5966   -1.5050    0.0000 N   0  0  0  0  0  0  0  0  0  0  0  0
    3.4634   -1.0063    0.0000 C   0  0  0  0  0  0  0  0  0  0  0  0
    3.4648   -0.0063    0.0000 C   0  0  0  0  0  0  0  0  0  0  0  0
    4.3316    0.4925    0.0000 N   0  0  0  0  0  0  0  0  0  0  0  0
    5.2043   -0.0062    0.0000 C   0  0  0  0  0  0  0  0  0  0  0  0
    6.0756    0.4951    0.0000 C   0  0  0  0  0  0  0  0  0  0  0  0
    6.0741    1.4951    0.0000 C   0  0  0  0  0  0  0  0  0  0  0  0
    5.2102    1.9989    0.0000 C   0  0  0  0  0  0  0  0  0  0  0  0
    4.3390    1.4976    0.0000 C   0  0  0  0  0  0  0  0  0  0  0  0
    2.5952   -2.5050    0.0000 C   0  0  0  0  0  0  0  0  0  0  0  0
    1.7225   -3.0038    0.0000 C   0  0  0  0  0  0  0  0  0  0  0  0
    1.7210   -4.0038    0.0000 C   0  0  0  0  0  0  0  0  0  0  0  0
    2.5833   -4.5101    0.0000 C   0  0  0  0  0  0  0  0  0  0  0  0
    3.4561   -4.0114    0.0000 C   0  0  0  0  0  0  0  0  0  0  0  0
    4.3184   -4.5177    0.0000 Cl  0  0  0  0  0  0  0  0  0  0  0  0
    3.4664   -3.0063    0.0000 C   0  0  0  0  0  0  0  0  0  0  0  0
  1  2  2  0  0  0  0
  2  3  1  0  0  0  0
  3  4  1  0  0  0  0
  4  9  2  0  0  0  0
  4  5  1  0  0  0  0
  5  6  2  0  0  0  0
  6  7  1  0  0  0  0
  7  8  2  0  0  0  0
  8  9  1  0  0  0  0
  2 10  1  0  0  0  0
 10 11  1  0  0  0  0
 11 12  1  0  0  0  0
 12 13  1  0  0  0  0
 13 18  1  0  0  0  0
 13 14  1  0  0  0  0
 14 15  1  0  0  0  0
 15 16  1  0  0  0  0
 16 17  1  0  0  0  0
 17 18  1  0  0  0  0
 10 19  1  0  0  0  0
 19 25  2  0  0  0  0
 19 20  1  0  0  0  0
 20 21  2  0  0  0  0
 21 22  1  0  0  0  0
 22 23  2  0  0  0  0
 23 24  1  0  0  0  0
 23 25  1  0  0  0  0
M  END
$$$$
KIM-UNI-2ee-1
  -OEChem-03232022352D

 18 19  0     0  0  0  0  0  0999 V2000
    1.7335    3.0129    0.0000 C   0  0  0  0  0  0  0  0  0  0  0  0
    0.8675    2.5129    0.0000 C   0  0  0  0  0  0  0  0  0  0  0  0
    0.0015    3.0129    0.0000 O   0  0  0  0  0  0  0  0  0  0  0  0
    0.8675    1.5129    0.0000 N   0  0  0  0  0  0  0  0  0  0  0  0
    0.0000    1.0052    0.0000 C   0  0  0  0  0  0  0  0  0  0  0  0
    0.0000    0.0000    0.0000 C   0  0  0  0  0  0  0  0  0  0  0  0
    0.8675   -0.4975    0.0000 N   0  0  0  0  0  0  0  0  0  0  0  0
    0.8675   -1.4975    0.0000 C   0  0  0  0  0  0  0  0  0  0  0  0
    1.7335   -1.9975    0.0000 C   0  0  0  0  0  0  0  0  0  0  0  0
    1.7306   -3.0027    0.0000 C   0  0  0  0  0  0  0  0  0  0  0  0
    2.5966   -3.5028    0.0000 C   0  0  0  0  0  0  0  0  0  0  0  0
    2.5936   -4.5027    0.0000 O   0  0  0  0  0  0  0  0  0  0  0  0
    3.4656   -3.0078    0.0000 C   0  0  0  0  0  0  0  0  0  0  0  0
    3.4685   -2.0026    0.0000 C   0  0  0  0  0  0  0  0  0  0  0  0
    4.3375   -1.5077    0.0000 Cl  0  0  0  0  0  0  0  0  0  0  0  0
    2.6025   -1.4924    0.0000 C   0  0  0  0  0  0  0  0  0  0  0  0
    1.7350    0.0000    0.0000 C   0  0  0  0  0  0  0  0  0  0  0  0
    1.7350    1.0052    0.0000 C   0  0  0  0  0  0  0  0  0  0  0  0
  1  2  1  0  0  0  0
  2  3  2  0  0  0  0
  2  4  1  0  0  0  0
  4 18  1  0  0  0  0
  4  5  1  0  0  0  0
  5  6  1  0  0  0  0
  6  7  1  0  0  0  0
  7  8  1  0  0  0  0
  8  9  1  0  0  0  0
  9 16  2  0  0  0  0
  9 10  1  0  0  0  0
 10 11  2  0  0  0  0
 11 12  1  0  0  0  0
 11 13  1  0  0  0  0
 13 14  2  0  0  0  0
 14 15  1  0  0  0  0
 14 16  1  0  0  0  0
  7 17  1  0  0  0  0
 17 18  1  0  0  0  0
M  END
$$$$
ANN-UNI-263-1
  -OEChem-03232022352D

 16 17  0     0  0  0  0  0  0999 V2000
    2.6054    3.4976    0.0000 C   0  0  0  0  0  0  0  0  0  0  0  0
    1.7379    3.0001    0.0000 C   0  0  0  0  0  0  0  0  0  0  0  0
    1.7350    2.0001    0.0000 N   0  0  0  0  0  0  0  0  0  0  0  0
    0.8675    1.5027    0.0000 C   0  0  0  0  0  0  0  0  0  0  0  0
    0.8675    0.4975    0.0000 C   0  0  0  0  0  0  0  0  0  0  0  0
    0.0000    0.0000    0.0000 C   0  0  0  0  0  0  0  0  0  0  0  0
   -0.8675    0.4975    0.0000 C   0  0  0  0  0  0  0  0  0  0  0  0
   -1.7328   -0.0038    0.0000 C   0  0  0  0  0  0  0  0  0  0  0  0
   -2.6026    0.5001    0.0000 C   0  0  0  0  0  0  0  0  0  0  0  0
   -3.4679   -0.0011    0.0000 C   0  0  0  0  0  0  0  0  0  0  0  0
   -3.4723   -1.0011    0.0000 C   0  0  0  0  0  0  0  0  0  0  0  0
   -2.6026   -1.5050    0.0000 C   0  0  0  0  0  0  0  0  0  0  0  0
   -2.6070   -2.5050    0.0000 O   0  0  0  0  0  0  0  0  0  0  0  0
   -1.7284   -1.0089    0.0000 N   0  0  0  0  0  0  0  0  0  0  0  0
   -0.8675    1.5027    0.0000 C   0  0  0  0  0  0  0  0  0  0  0  0
    0.0000    2.0104    0.0000 N   0  0  0  0  0  0  0  0  0  0  0  0
  1  2  1  0  0  0  0
  2  3  1  0  0  0  0
  3  4  1  0  0  0  0
  4 16  2  0  0  0  0
  4  5  1  0  0  0  0
  5  6  2  0  0  0  0
  6  7  1  0  0  0  0
  7  8  1  0  0  0  0
  8 14  1  0  0  0  0
  8  9  2  0  0  0  0
  9 10  1  0  0  0  0
 10 11  2  0  0  0  0
 11 12  1  0  0  0  0
 12 13  2  0  0  0  0
 12 14  1  0  0  0  0
  7 15  2  0  0  0  0
 15 16  1  0  0  0  0
M  END
$$$$
ANN-UNI-263-2
  -OEChem-03232022352D

 14 15  0     0  0  0  0  0  0999 V2000
    2.6054    3.4976    0.0000 C   0  0  0  0  0  0  0  0  0  0  0  0
    1.7379    3.0001    0.0000 C   0  0  0  0  0  0  0  0  0  0  0  0
    1.7350    2.0001    0.0000 N   0  0  0  0  0  0  0  0  0  0  0  0
    0.8675    1.5027    0.0000 C   0  0  0  0  0  0  0  0  0  0  0  0
    0.8675    0.4975    0.0000 C   0  0  0  0  0  0  0  0  0  0  0  0
    0.0000    0.0000    0.0000 C   0  0  0  0  0  0  0  0  0  0  0  0
   -0.8675    0.4975    0.0000 C   0  0  0  0  0  0  0  0  0  0  0  0
   -1.7328   -0.0038    0.0000 C   0  0  0  0  0  0  0  0  0  0  0  0
   -2.6457    0.4045    0.0000 C   0  0  0  0  0  0  0  0  0  0  0  0
   -3.3151   -0.3404    0.0000 N   0  0  0  0  0  0  0  0  0  0  0  0
   -2.8154   -1.2086    0.0000 C   0  0  0  0  0  0  0  0  0  0  0  0
   -1.8329   -0.9992    0.0000 O   0  0  0  0  0  0  0  0  0  0  0  0
   -0.8675    1.5027    0.0000 C   0  0  0  0  0  0  0  0  0  0  0  0
    0.0000    2.0104    0.0000 N   0  0  0  0  0  0  0  0  0  0  0  0
  1  2  1  0  0  0  0
  2  3  1  0  0  0  0
  3  4  1  0  0  0  0
  4 14  2  0  0  0  0
  4  5  1  0  0  0  0
  5  6  2  0  0  0  0
  6  7  1  0  0  0  0
  7  8  1  0  0  0  0
  8 12  1  0  0  0  0
  8  9  2  0  0  0  0
  9 10  1  0  0  0  0
 10 11  2  0  0  0  0
 11 12  1  0  0  0  0
  7 13  2  0  0  0  0
 13 14  1  0  0  0  0
M  END
$$$$
ANN-UNI-263-3
  -OEChem-03232022352D

 18 19  0     0  0  0  0  0  0999 V2000
    2.5807   -6.5101    0.0000 N   0  0  0  0  0  0  0  0  0  0  0  0
    2.5866   -5.5101    0.0000 C   0  0  0  0  0  0  0  0  0  0  0  0
    2.5924   -4.5102    0.0000 C   0  0  0  0  0  0  0  0  0  0  0  0
    1.7233   -4.0050    0.0000 C   0  0  0  0  0  0  0  0  0  0  0  0
    1.7291   -3.0050    0.0000 C   0  0  0  0  0  0  0  0  0  0  0  0
    2.5952   -2.5050    0.0000 C   0  0  0  0  0  0  0  0  0  0  0  0
    2.5966   -1.5050    0.0000 N   0  0  0  0  0  0  0  0  0  0  0  0
    1.7313   -1.0038    0.0000 C   0  0  0  0  0  0  0  0  0  0  0  0
    0.8646   -1.5025    0.0000 O   0  0  0  0  0  0  0  0  0  0  0  0
    1.7328   -0.0038    0.0000 N   0  0  0  0  0  0  0  0  0  0  0  0
    0.8675    0.4975    0.0000 C   0  0  0  0  0  0  0  0  0  0  0  0
    0.0000    0.0000    0.0000 C   0  0  0  0  0  0  0  0  0  0  0  0
   -0.8675    0.4975    0.0000 C   0  0  0  0  0  0  0  0  0  0  0  0
   -0.8675    1.5027    0.0000 C   0  0  0  0  0  0  0  0  0  0  0  0
    0.0000    2.0104    0.0000 N   0  0  0  0  0  0  0  0  0  0  0  0
    0.8675    1.5027    0.0000 C   0  0  0  0  0  0  0  0  0  0  0  0
    3.4643   -3.0101    0.0000 C   0  0  0  0  0  0  0  0  0  0  0  0
    3.4673   -4.0153    0.0000 C   0  0  0  0  0  0  0  0  0  0  0  0
  1  2  3  0  0  0  0
  2  3  1  0  0  0  0
  3 18  2  0  0  0  0
  3  4  1  0  0  0  0
  4  5  2  0  0  0  0
  5  6  1  0  0  0  0
  6  7  1  0  0  0  0
  7  8  1  0  0  0  0
  8  9  2  0  0  0  0
  8 10  1  0  0  0  0
 10 11  1  0  0  0  0
 11 16  2  0  0  0  0
 11 12  1  0  0  0  0
 12 13  2  0  0  0  0
 13 14  1  0  0  0  0
 14 15  2  0  0  0  0
 15 16  1  0  0  0  0
  6 17  2  0  0  0  0
 17 18  1  0  0  0  0
M  END
$$$$
ANN-UNI-263-4
  -OEChem-03232022352D

 18 19  0     0  0  0  0  0  0999 V2000
    0.0024   -5.0166    0.0000 N   0  0  0  0  0  0  0  0  0  0  0  0
    0.8662   -4.5127    0.0000 C   0  0  0  0  0  0  0  0  0  0  0  0
    1.7299   -4.0089    0.0000 C   0  0  0  0  0  0  0  0  0  0  0  0
    2.6012   -4.5102    0.0000 C   0  0  0  0  0  0  0  0  0  0  0  0
    3.4651   -4.0063    0.0000 C   0  0  0  0  0  0  0  0  0  0  0  0
    3.4665   -3.0063    0.0000 C   0  0  0  0  0  0  0  0  0  0  0  0
    2.5952   -2.5050    0.0000 C   0  0  0  0  0  0  0  0  0  0  0  0
    2.5966   -1.5050    0.0000 N   0  0  0  0  0  0  0  0  0  0  0  0
    1.7313   -1.0038    0.0000 C   0  0  0  0  0  0  0  0  0  0  0  0
    0.8646   -1.5025    0.0000 O   0  0  0  0  0  0  0  0  0  0  0  0
    1.7328   -0.0038    0.0000 N   0  0  0  0  0  0  0  0  0  0  0  0
    0.8675    0.4975    0.0000 C   0  0  0  0  0  0  0  0  0  0  0  0
    0.0000    0.0000    0.0000 C   0  0  0  0  0  0  0  0  0  0  0  0
   -0.8675    0.4975    0.0000 C   0  0  0  0  0  0  0  0  0  0  0  0
   -0.8675    1.5027    0.0000 C   0  0  0  0  0  0  0  0  0  0  0  0
    0.0000    2.0104    0.0000 N   0  0  0  0  0  0  0  0  0  0  0  0
    0.8675    1.5027    0.0000 C   0  0  0  0  0  0  0  0  0  0  0  0
    1.7225   -3.0037    0.0000 C   0  0  0  0  0  0  0  0  0  0  0  0
  1  2  3  0  0  0  0
  2  3  1  0  0  0  0
  3 18  2  0  0  0  0
  3  4  1  0  0  0  0
  4  5  2  0  0  0  0
  5  6  1  0  0  0  0
  6  7  2  0  0  0  0
  7  8  1  0  0  0  0
  8  9  1  0  0  0  0
  9 10  2  0  0  0  0
  9 11  1  0  0  0  0
 11 12  1  0  0  0  0
 12 17  2  0  0  0  0
 12 13  1  0  0  0  0
 13 14  2  0  0  0  0
 14 15  1  0  0  0  0
 15 16  2  0  0  0  0
 16 17  1  0  0  0  0
  7 18  1  0  0  0  0
M  END
$$$$
ANN-UNI-263-5
  -OEChem-03232022352D

 18 19  0     0  0  0  0  0  0999 V2000
    0.0024   -5.0166    0.0000 N   0  0  0  0  0  0  0  0  0  0  0  0
    0.8662   -4.5127    0.0000 C   0  0  0  0  0  0  0  0  0  0  0  0
    1.7299   -4.0089    0.0000 C   0  0  0  0  0  0  0  0  0  0  0  0
    2.6012   -4.5102    0.0000 C   0  0  0  0  0  0  0  0  0  0  0  0
    3.4651   -4.0063    0.0000 C   0  0  0  0  0  0  0  0  0  0  0  0
    3.4665   -3.0063    0.0000 C   0  0  0  0  0  0  0  0  0  0  0  0
    2.5952   -2.5050    0.0000 C   0  0  0  0  0  0  0  0  0  0  0  0
    2.5966   -1.5050    0.0000 C   0  0  0  0  0  0  0  0  0  0  0  0
    1.7313   -1.0038    0.0000 C   0  0  0  0  0  0  0  0  0  0  0  0
    0.8646   -1.5025    0.0000 O   0  0  0  0  0  0  0  0  0  0  0  0
    1.7328   -0.0038    0.0000 N   0  0  0  0  0  0  0  0  0  0  0  0
    0.8675    0.4975    0.0000 C   0  0  0  0  0  0  0  0  0  0  0  0
    0.0000    0.0000    0.0000 C   0  0  0  0  0  0  0  0  0  0  0  0
   -0.8675    0.4975    0.0000 C   0  0  0  0  0  0  0  0  0  0  0  0
   -0.8675    1.5027    0.0000 C   0  0  0  0  0  0  0  0  0  0  0  0
    0.0000    2.0104    0.0000 N   0  0  0  0  0  0  0  0  0  0  0  0
    0.8675    1.5027    0.0000 C   0  0  0  0  0  0  0  0  0  0  0  0
    1.7225   -3.0037    0.0000 C   0  0  0  0  0  0  0  0  0  0  0  0
  1  2  3  0  0  0  0
  2  3  1  0  0  0  0
  3 18  2  0  0  0  0
  3  4  1  0  0  0  0
  4  5  2  0  0  0  0
  5  6  1  0  0  0  0
  6  7  2  0  0  0  0
  7  8  1  0  0  0  0
  8  9  1  0  0  0  0
  9 10  2  0  0  0  0
  9 11  1  0  0  0  0
 11 12  1  0  0  0  0
 12 17  2  0  0  0  0
 12 13  1  0  0  0  0
 13 14  2  0  0  0  0
 14 15  1  0  0  0  0
 15 16  2  0  0  0  0
 16 17  1  0  0  0  0
  7 18  1  0  0  0  0
M  END
$$$$
ANN-UNI-263-6
  -OEChem-03232022352D

 20 21  0     0  0  0  0  0  0999 V2000
   -1.7379    3.0001    0.0000 C   0  0  0  0  0  0  0  0  0  0  0  0
   -1.7350    2.0001    0.0000 O   0  0  0  0  0  0  0  0  0  0  0  0
   -0.8675    1.5027    0.0000 C   0  0  0  0  0  0  0  0  0  0  0  0
   -0.8675    0.4975    0.0000 C   0  0  0  0  0  0  0  0  0  0  0  0
    0.0000    0.0000    0.0000 C   0  0  0  0  0  0  0  0  0  0  0  0
    0.8675    0.4975    0.0000 C   0  0  0  0  0  0  0  0  0  0  0  0
    0.8675    1.5027    0.0000 C   0  0  0  0  0  0  0  0  0  0  0  0
    1.7350    2.0001    0.0000 N   0  0  0  0  0  0  0  0  0  0  0  0
    1.7379    3.0001    0.0000 C   0  0  0  0  0  0  0  0  0  0  0  0
    0.8734    3.5027    0.0000 O   0  0  0  0  0  0  0  0  0  0  0  0
    2.6054    3.4976    0.0000 N   0  0  0  0  0  0  0  0  0  0  0  0
    2.6084    4.4976    0.0000 C   0  0  0  0  0  0  0  0  0  0  0  0
    3.4819    4.9950    0.0000 C   0  0  0  0  0  0  0  0  0  0  0  0
    3.4849    5.9951    0.0000 C   0  0  0  0  0  0  0  0  0  0  0  0
    2.6233    6.5027    0.0000 C   0  0  0  0  0  0  0  0  0  0  0  0
    1.7498    6.0052    0.0000 C   0  0  0  0  0  0  0  0  0  0  0  0
    0.8882    6.5129    0.0000 C   0  0  0  0  0  0  0  0  0  0  0  0
    0.0266    7.0205    0.0000 N   0  0  0  0  0  0  0  0  0  0  0  0
    1.7379    5.0001    0.0000 C   0  0  0  0  0  0  0  0  0  0  0  0
   -0.0000    2.0104    0.0000 C   0  0  0  0  0  0  0  0  0  0  0  0
  1  2  1  0  0  0  0
  2  3  1  0  0  0  0
  3 20  2  0  0  0  0
  3  4  1  0  0  0  0
  4  5  2  0  0  0  0
  5  6  1  0  0  0  0
  6  7  2  0  0  0  0
  7  8  1  0  0  0  0
  8  9  1  0  0  0  0
  9 10  2  0  0  0  0
  9 11  1  0  0  0  0
 11 12  1  0  0  0  0
 12 19  2  0  0  0  0
 12 13  1  0  0  0  0
 13 14  2  0  0  0  0
 14 15  1  0  0  0  0
 15 16  2  0  0  0  0
 16 17  1  0  0  0  0
 17 18  3  0  0  0  0
 16 19  1  0  0  0  0
  7 20  1  0  0  0  0
M  END
$$$$
ANN-UNI-263-7
  -OEChem-03232022352D

 22 24  0     1  0  0  0  0  0999 V2000
   -2.8076   -0.1399    0.0000 N   0  0  0  0  0  0  0  0  0  0  0  0
   -3.1197   -1.0899    0.0000 C   0  0  0  0  0  0  0  0  0  0  0  0
   -4.0985   -1.2946    0.0000 O   0  0  0  0  0  0  0  0  0  0  0  0
   -2.4530   -1.8353    0.0000 C   0  0  1  0  0  0  0  0  0  0  0  0
   -3.2635   -2.4211    0.0000 H   0  0  0  0  0  0  0  0  0  0  0  0
   -1.7808   -1.0949    0.0000 C   0  0  0  0  0  0  0  0  0  0  0  0
   -0.8660   -1.5000    0.0000 N   0  0  3  0  0  0  0  0  0  0  0  0
   -0.0000   -1.0000    0.0000 C   0  0  0  0  0  0  0  0  0  0  0  0
    0.0000    0.0000    0.0000 C   0  0  0  0  0  0  0  0  0  0  0  0
   -0.8675    0.4975    0.0000 C   0  0  0  0  0  0  0  0  0  0  0  0
   -0.8675    1.5027    0.0000 C   0  0  0  0  0  0  0  0  0  0  0  0
    0.0000    2.0104    0.0000 N   0  0  0  0  0  0  0  0  0  0  0  0
    0.8675    1.5027    0.0000 C   0  0  0  0  0  0  0  0  0  0  0  0
    0.8675    0.4975    0.0000 C   0  0  0  0  0  0  0  0  0  0  0  0
   -0.9730   -2.4989    0.0000 C   0  0  0  0  0  0  0  0  0  0  0  0
   -1.9536   -2.7034    0.0000 C   0  0  1  0  0  0  0  0  0  0  0  0
   -2.8681   -3.1080    0.0000 H   0  0  0  0  0  0  0  0  0  0  0  0
   -1.6476   -3.6554    0.0000 C   0  0  0  0  0  0  0  0  0  0  0  0
   -0.6957   -3.9667    0.0000 C   0  0  0  0  0  0  0  0  0  0  0  0
   -0.7003   -4.9667    0.0000 C   0  0  0  0  0  0  0  0  0  0  0  0
   -1.6512   -5.2774    0.0000 S   0  0  0  0  0  0  0  0  0  0  0  0
   -2.2398   -4.4632    0.0000 C   0  0  0  0  0  0  0  0  0  0  0  0
  1  2  1  0  0  0  0
  2  3  2  0  0  0  0
  2  4  1  0  0  0  0
  4  5  1  6  0  0  0
  4 16  1  0  0  0  0
  4  6  1  0  0  0  0
  6  7  1  0  0  0  0
  7  8  1  0  0  0  0
  8  9  1  0  0  0  0
  9 14  2  0  0  0  0
  9 10  1  0  0  0  0
 10 11  2  0  0  0  0
 11 12  1  0  0  0  0
 12 13  2  0  0  0  0
 13 14  1  0  0  0  0
  7 15  1  0  0  0  0
 15 16  1  0  0  0  0
 16 17  1  6  0  0  0
 16 18  1  0  0  0  0
 18 22  2  0  0  0  0
 18 19  1  0  0  0  0
 19 20  2  0  0  0  0
 20 21  1  0  0  0  0
 21 22  1  0  0  0  0
M  END
$$$$
DAR-DIA-23a-1
  -OEChem-03232022352D

 21 23  0     0  0  0  0  0  0999 V2000
   -1.6143   -3.8482    0.0000 N   0  0  0  0  0  0  0  0  0  0  0  0
   -0.6339   -4.0450    0.0000 C   0  0  0  0  0  0  0  0  0  0  0  0
    0.3466   -4.2419    0.0000 C   0  0  0  0  0  0  0  0  0  0  0  0
    0.6652   -5.1952    0.0000 C   0  0  0  0  0  0  0  0  0  0  0  0
    1.6456   -5.3921    0.0000 C   0  0  0  0  0  0  0  0  0  0  0  0
    2.3107   -4.6453    0.0000 C   0  0  0  0  0  0  0  0  0  0  0  0
    1.9921   -3.6920    0.0000 C   0  0  0  0  0  0  0  0  0  0  0  0
    2.6572   -2.9452    0.0000 N   0  0  0  0  0  0  0  0  0  0  0  0
    2.3431   -1.9958    0.0000 C   0  0  0  0  0  0  0  0  0  0  0  0
    1.3638   -1.7932    0.0000 O   0  0  0  0  0  0  0  0  0  0  0  0
    3.0082   -1.2491    0.0000 C   0  0  0  0  0  0  0  0  0  0  0  0
    2.6940   -0.2997    0.0000 C   0  0  0  0  0  0  0  0  0  0  0  0
    3.2780    0.5133    0.0000 C   0  0  0  0  0  0  0  0  0  0  0  0
    2.6851    1.3196    0.0000 N   0  0  0  0  0  0  0  0  0  0  0  0
    1.7350    1.0052    0.0000 C   0  0  0  0  0  0  0  0  0  0  0  0
    0.8675    1.5129    0.0000 N   0  0  0  0  0  0  0  0  0  0  0  0
    0.0000    1.0052    0.0000 C   0  0  0  0  0  0  0  0  0  0  0  0
    0.0000    0.0000    0.0000 C   0  0  0  0  0  0  0  0  0  0  0  0
    0.8675   -0.4975    0.0000 C   0  0  0  0  0  0  0  0  0  0  0  0
    1.7405    0.0044    0.0000 C   0  0  0  0  0  0  0  0  0  0  0  0
    1.0084   -3.4854    0.0000 C   0  0  0  0  0  0  0  0  0  0  0  0
  1  2  3  0  0  0  0
  2  3  1  0  0  0  0
  3 21  2  0  0  0  0
  3  4  1  0  0  0  0
  4  5  2  0  0  0  0
  5  6  1  0  0  0  0
  6  7  2  0  0  0  0
  7  8  1  0  0  0  0
  8  9  1  0  0  0  0
  9 10  2  0  0  0  0
  9 11  1  0  0  0  0
 11 12  1  0  0  0  0
 12 20  1  0  0  0  0
 12 13  2  0  0  0  0
 13 14  1  0  0  0  0
 14 15  1  0  0  0  0
 15 20  2  0  0  0  0
 15 16  1  0  0  0  0
 16 17  2  0  0  0  0
 17 18  1  0  0  0  0
 18 19  2  0  0  0  0
 19 20  1  0  0  0  0
  7 21  1  0  0  0  0
M  END
$$$$
DAR-DIA-23a-2
  -OEChem-03232022352D

 21 23  0     0  0  0  0  0  0999 V2000
    2.2769   -7.2884    0.0000 N   0  0  0  0  0  0  0  0  0  0  0  0
    1.9600   -6.3399    0.0000 C   0  0  0  0  0  0  0  0  0  0  0  0
    1.6430   -5.3915    0.0000 C   0  0  0  0  0  0  0  0  0  0  0  0
    0.6584   -5.1892    0.0000 C   0  0  0  0  0  0  0  0  0  0  0  0
    0.3356   -4.2373    0.0000 N   0  0  0  0  0  0  0  0  0  0  0  0
    1.0075   -3.4897    0.0000 C   0  0  0  0  0  0  0  0  0  0  0  0
    1.9921   -3.6920    0.0000 C   0  0  0  0  0  0  0  0  0  0  0  0
    2.6572   -2.9452    0.0000 N   0  0  0  0  0  0  0  0  0  0  0  0
    2.3431   -1.9958    0.0000 C   0  0  0  0  0  0  0  0  0  0  0  0
    1.3638   -1.7932    0.0000 O   0  0  0  0  0  0  0  0  0  0  0  0
    3.0082   -1.2491    0.0000 C   0  0  0  0  0  0  0  0  0  0  0  0
    2.6940   -0.2997    0.0000 C   0  0  0  0  0  0  0  0  0  0  0  0
    3.2780    0.5133    0.0000 C   0  0  0  0  0  0  0  0  0  0  0  0
    2.6851    1.3196    0.0000 N   0  0  0  0  0  0  0  0  0  0  0  0
    1.7350    1.0052    0.0000 C   0  0  0  0  0  0  0  0  0  0  0  0
    0.8675    1.5129    0.0000 N   0  0  0  0  0  0  0  0  0  0  0  0
    0.0000    1.0052    0.0000 C   0  0  0  0  0  0  0  0  0  0  0  0
    0.0000    0.0000    0.0000 C   0  0  0  0  0  0  0  0  0  0  0  0
    0.8675   -0.4975    0.0000 C   0  0  0  0  0  0  0  0  0  0  0  0
    1.7405    0.0044    0.0000 C   0  0  0  0  0  0  0  0  0  0  0  0
    2.3049   -4.6418    0.0000 C   0  0  0  0  0  0  0  0  0  0  0  0
  1  2  3  0  0  0  0
  2  3  1  0  0  0  0
  3 21  2  0  0  0  0
  3  4  1  0  0  0  0
  4  5  2  0  0  0  0
  5  6  1  0  0  0  0
  6  7  2  0  0  0  0
  7  8  1  0  0  0  0
  8  9  1  0  0  0  0
  9 10  2  0  0  0  0
  9 11  1  0  0  0  0
 11 12  1  0  0  0  0
 12 20  1  0  0  0  0
 12 13  2  0  0  0  0
 13 14  1  0  0  0  0
 14 15  1  0  0  0  0
 15 20  2  0  0  0  0
 15 16  1  0  0  0  0
 16 17  2  0  0  0  0
 17 18  1  0  0  0  0
 18 19  2  0  0  0  0
 19 20  1  0  0  0  0
  7 21  1  0  0  0  0
M  END
$$$$
DAR-DIA-23a-3
  -OEChem-03232022352D

 19 20  0     0  0  0  0  0  0999 V2000
   -5.2204    3.9911    0.0000 N   0  0  0  0  0  0  0  0  0  0  0  0
   -5.2131    2.9912    0.0000 C   0  0  0  0  0  0  0  0  0  0  0  0
   -5.2057    1.9912    0.0000 C   0  0  0  0  0  0  0  0  0  0  0  0
   -6.0740    1.4848    0.0000 C   0  0  0  0  0  0  0  0  0  0  0  0
   -6.0667    0.4848    0.0000 C   0  0  0  0  0  0  0  0  0  0  0  0
   -5.1999   -0.0140    0.0000 C   0  0  0  0  0  0  0  0  0  0  0  0
   -4.3316    0.4925    0.0000 C   0  0  0  0  0  0  0  0  0  0  0  0
   -3.4648   -0.0063    0.0000 N   0  0  0  0  0  0  0  0  0  0  0  0
   -2.5995    0.4950    0.0000 C   0  0  0  0  0  0  0  0  0  0  0  0
   -2.6010    1.4950    0.0000 O   0  0  0  0  0  0  0  0  0  0  0  0
   -1.7328   -0.0038    0.0000 C   0  0  0  0  0  0  0  0  0  0  0  0
   -0.8675    0.4975    0.0000 C   0  0  0  0  0  0  0  0  0  0  0  0
   -0.8675    1.5027    0.0000 C   0  0  0  0  0  0  0  0  0  0  0  0
    0.0000    2.0104    0.0000 N   0  0  0  0  0  0  0  0  0  0  0  0
    0.8675    1.5027    0.0000 C   0  0  0  0  0  0  0  0  0  0  0  0
    0.8675    0.4975    0.0000 C   0  0  0  0  0  0  0  0  0  0  0  0
    1.7328   -0.0038    0.0000 N   0  0  0  0  0  0  0  0  0  0  0  0
    0.0000    0.0000    0.0000 C   0  0  0  0  0  0  0  0  0  0  0  0
   -4.3301    1.4976    0.0000 C   0  0  0  0  0  0  0  0  0  0  0  0
  1  2  3  0  0  0  0
  2  3  1  0  0  0  0
  3 19  2  0  0  0  0
  3  4  1  0  0  0  0
  4  5  2  0  0  0  0
  5  6  1  0  0  0  0
  6  7  2  0  0  0  0
  7  8  1  0  0  0  0
  8  9  1  0  0  0  0
  9 10  2  0  0  0  0
  9 11  1  0  0  0  0
 11 12  1  0  0  0  0
 12 18  2  0  0  0  0
 12 13  1  0  0  0  0
 13 14  2  0  0  0  0
 14 15  1  0  0  0  0
 15 16  2  0  0  0  0
 16 17  1  0  0  0  0
 16 18  1  0  0  0  0
  7 19  1  0  0  0  0
M  END
$$$$
DAR-DIA-23a-4
  -OEChem-03232022352D

 18 19  0     0  0  0  0  0  0999 V2000
    0.0024   -5.0166    0.0000 N   0  0  0  0  0  0  0  0  0  0  0  0
    0.8662   -4.5127    0.0000 C   0  0  0  0  0  0  0  0  0  0  0  0
    1.7299   -4.0089    0.0000 C   0  0  0  0  0  0  0  0  0  0  0  0
    2.6012   -4.5102    0.0000 C   0  0  0  0  0  0  0  0  0  0  0  0
    3.4651   -4.0063    0.0000 C   0  0  0  0  0  0  0  0  0  0  0  0
    3.4665   -3.0063    0.0000 C   0  0  0  0  0  0  0  0  0  0  0  0
    2.5952   -2.5050    0.0000 C   0  0  0  0  0  0  0  0  0  0  0  0
    2.5966   -1.5050    0.0000 N   0  0  0  0  0  0  0  0  0  0  0  0
    1.7313   -1.0038    0.0000 C   0  0  0  0  0  0  0  0  0  0  0  0
    0.8646   -1.5025    0.0000 O   0  0  0  0  0  0  0  0  0  0  0  0
    1.7328   -0.0038    0.0000 C   0  0  0  0  0  0  0  0  0  0  0  0
    0.8675    0.4975    0.0000 C   0  0  0  0  0  0  0  0  0  0  0  0
    0.0000    0.0000    0.0000 C   0  0  0  0  0  0  0  0  0  0  0  0
   -0.8675    0.4975    0.0000 C   0  0  0  0  0  0  0  0  0  0  0  0
   -0.8675    1.5027    0.0000 C   0  0  0  0  0  0  0  0  0  0  0  0
    0.0000    2.0104    0.0000 N   0  0  0  0  0  0  0  0  0  0  0  0
    0.8675    1.5027    0.0000 C   0  0  0  0  0  0  0  0  0  0  0  0
    1.7225   -3.0037    0.0000 C   0  0  0  0  0  0  0  0  0  0  0  0
  1  2  3  0  0  0  0
  2  3  1  0  0  0  0
  3 18  2  0  0  0  0
  3  4  1  0  0  0  0
  4  5  2  0  0  0  0
  5  6  1  0  0  0  0
  6  7  2  0  0  0  0
  7  8  1  0  0  0  0
  8  9  1  0  0  0  0
  9 10  2  0  0  0  0
  9 11  1  0  0  0  0
 11 12  1  0  0  0  0
 12 17  2  0  0  0  0
 12 13  1  0  0  0  0
 13 14  2  0  0  0  0
 14 15  1  0  0  0  0
 15 16  2  0  0  0  0
 16 17  1  0  0  0  0
  7 18  1  0  0  0  0
M  END
$$$$
DAR-DIA-23a-5
  -OEChem-03232022352D

 18 19  0     0  0  0  0  0  0999 V2000
    0.0024   -5.0166    0.0000 N   0  0  0  0  0  0  0  0  0  0  0  0
    0.8662   -4.5127    0.0000 C   0  0  0  0  0  0  0  0  0  0  0  0
    1.7299   -4.0089    0.0000 C   0  0  0  0  0  0  0  0  0  0  0  0
    2.6012   -4.5102    0.0000 C   0  0  0  0  0  0  0  0  0  0  0  0
    3.4651   -4.0063    0.0000 C   0  0  0  0  0  0  0  0  0  0  0  0
    3.4665   -3.0063    0.0000 C   0  0  0  0  0  0  0  0  0  0  0  0
    2.5952   -2.5050    0.0000 C   0  0  0  0  0  0  0  0  0  0  0  0
    2.5966   -1.5050    0.0000 N   0  0  0  0  0  0  0  0  0  0  0  0
    1.7313   -1.0038    0.0000 C   0  0  0  0  0  0  0  0  0  0  0  0
    0.8646   -1.5025    0.0000 O   0  0  0  0  0  0  0  0  0  0  0  0
    1.7328   -0.0038    0.0000 N   0  0  0  0  0  0  0  0  0  0  0  0
    0.8675    0.4975    0.0000 C   0  0  0  0  0  0  0  0  0  0  0  0
    0.0000    0.0000    0.0000 C   0  0  0  0  0  0  0  0  0  0  0  0
   -0.8675    0.4975    0.0000 C   0  0  0  0  0  0  0  0  0  0  0  0
   -0.8675    1.5027    0.0000 C   0  0  0  0  0  0  0  0  0  0  0  0
    0.0000    2.0104    0.0000 N   0  0  0  0  0  0  0  0  0  0  0  0
    0.8675    1.5027    0.0000 C   0  0  0  0  0  0  0  0  0  0  0  0
    1.7225   -3.0037    0.0000 C   0  0  0  0  0  0  0  0  0  0  0  0
  1  2  3  0  0  0  0
  2  3  1  0  0  0  0
  3 18  2  0  0  0  0
  3  4  1  0  0  0  0
  4  5  2  0  0  0  0
  5  6  1  0  0  0  0
  6  7  2  0  0  0  0
  7  8  1  0  0  0  0
  8  9  1  0  0  0  0
  9 10  2  0  0  0  0
  9 11  1  0  0  0  0
 11 12  1  0  0  0  0
 12 17  2  0  0  0  0
 12 13  1  0  0  0  0
 13 14  2  0  0  0  0
 14 15  1  0  0  0  0
 15 16  2  0  0  0  0
 16 17  1  0  0  0  0
  7 18  1  0  0  0  0
M  END
$$$$
DAR-DIA-23a-6
  -OEChem-03232022352D

 18 19  0     0  0  0  0  0  0999 V2000
   -2.5981   -0.5050    0.0000 N   0  0  0  0  0  0  0  0  0  0  0  0
   -1.7328   -0.0038    0.0000 C   0  0  0  0  0  0  0  0  0  0  0  0
   -0.8675    0.4975    0.0000 C   0  0  0  0  0  0  0  0  0  0  0  0
   -0.8675    1.5027    0.0000 C   0  0  0  0  0  0  0  0  0  0  0  0
    0.0000    2.0104    0.0000 N   0  0  0  0  0  0  0  0  0  0  0  0
    0.8675    1.5027    0.0000 C   0  0  0  0  0  0  0  0  0  0  0  0
    0.8675    0.4975    0.0000 C   0  0  0  0  0  0  0  0  0  0  0  0
    1.7328   -0.0038    0.0000 N   0  0  0  0  0  0  0  0  0  0  0  0
    2.5995    0.4950    0.0000 C   0  0  0  0  0  0  0  0  0  0  0  0
    2.6010    1.4950    0.0000 O   0  0  0  0  0  0  0  0  0  0  0  0
    3.4648   -0.0063    0.0000 C   0  0  0  0  0  0  0  0  0  0  0  0
    4.3316    0.4925    0.0000 C   0  0  0  0  0  0  0  0  0  0  0  0
    4.3345    1.4925    0.0000 C   0  0  0  0  0  0  0  0  0  0  0  0
    5.1991    1.9950    0.0000 C   0  0  0  0  0  0  0  0  0  0  0  0
    6.0696    1.4924    0.0000 C   0  0  0  0  0  0  0  0  0  0  0  0
    6.0756    0.4873    0.0000 N   0  0  0  0  0  0  0  0  0  0  0  0
    5.2021   -0.0101    0.0000 C   0  0  0  0  0  0  0  0  0  0  0  0
    0.0000    0.0000    0.0000 C   0  0  0  0  0  0  0  0  0  0  0  0
  1  2  3  0  0  0  0
  2  3  1  0  0  0  0
  3 18  2  0  0  0  0
  3  4  1  0  0  0  0
  4  5  2  0  0  0  0
  5  6  1  0  0  0  0
  6  7  2  0  0  0  0
  7  8  1  0  0  0  0
  8  9  1  0  0  0  0
  9 10  2  0  0  0  0
  9 11  1  0  0  0  0
 11 12  1  0  0  0  0
 12 17  2  0  0  0  0
 12 13  1  0  0  0  0
 13 14  2  0  0  0  0
 14 15  1  0  0  0  0
 15 16  2  0  0  0  0
 16 17  1  0  0  0  0
  7 18  1  0  0  0  0
M  END
$$$$
DAR-DIA-23a-7
  -OEChem-03232022352D

 19 20  0     0  0  0  0  0  0999 V2000
   -2.5981   -0.5050    0.0000 N   0  0  0  0  0  0  0  0  0  0  0  0
   -1.7328   -0.0038    0.0000 C   0  0  0  0  0  0  0  0  0  0  0  0
   -0.8675    0.4975    0.0000 C   0  0  0  0  0  0  0  0  0  0  0  0
   -0.8675    1.5027    0.0000 C   0  0  0  0  0  0  0  0  0  0  0  0
    0.0000    2.0104    0.0000 N   0  0  0  0  0  0  0  0  0  0  0  0
    0.8675    1.5027    0.0000 C   0  0  0  0  0  0  0  0  0  0  0  0
    0.8675    0.4975    0.0000 C   0  0  0  0  0  0  0  0  0  0  0  0
    1.7328   -0.0038    0.0000 N   0  0  0  0  0  0  0  0  0  0  0  0
    2.5995    0.4950    0.0000 C   0  0  0  0  0  0  0  0  0  0  0  0
    2.6010    1.4950    0.0000 O   0  0  0  0  0  0  0  0  0  0  0  0
    3.4648   -0.0063    0.0000 C   0  0  0  0  0  0  0  0  0  0  0  0
    4.3316    0.4925    0.0000 C   0  0  0  0  0  0  0  0  0  0  0  0
    4.3345    1.4977    0.0000 C   0  0  0  0  0  0  0  0  0  0  0  0
    5.2035    2.0028    0.0000 N   0  0  0  0  0  0  0  0  0  0  0  0
    6.0695    1.4926    0.0000 C   0  0  0  0  0  0  0  0  0  0  0  0
    6.0666    0.4874    0.0000 C   0  0  0  0  0  0  0  0  0  0  0  0
    6.9304   -0.0163    0.0000 N   0  0  0  0  0  0  0  0  0  0  0  0
    5.1977   -0.0075    0.0000 C   0  0  0  0  0  0  0  0  0  0  0  0
    0.0000    0.0000    0.0000 C   0  0  0  0  0  0  0  0  0  0  0  0
  1  2  3  0  0  0  0
  2  3  1  0  0  0  0
  3 19  2  0  0  0  0
  3  4  1  0  0  0  0
  4  5  2  0  0  0  0
  5  6  1  0  0  0  0
  6  7  2  0  0  0  0
  7  8  1  0  0  0  0
  8  9  1  0  0  0  0
  9 10  2  0  0  0  0
  9 11  1  0  0  0  0
 11 12  1  0  0  0  0
 12 18  2  0  0  0  0
 12 13  1  0  0  0  0
 13 14  2  0  0  0  0
 14 15  1  0  0  0  0
 15 16  2  0  0  0  0
 16 17  1  0  0  0  0
 16 18  1  0  0  0  0
  7 19  1  0  0  0  0
M  END
$$$$
DAR-DIA-23a-8
  -OEChem-03232022352D

 19 20  0     0  0  0  0  0  0999 V2000
   -5.2204    3.9911    0.0000 N   0  0  0  0  0  0  0  0  0  0  0  0
   -5.2131    2.9912    0.0000 C   0  0  0  0  0  0  0  0  0  0  0  0
   -5.2057    1.9912    0.0000 C   0  0  0  0  0  0  0  0  0  0  0  0
   -6.0740    1.4848    0.0000 C   0  0  0  0  0  0  0  0  0  0  0  0
   -6.0667    0.4848    0.0000 C   0  0  0  0  0  0  0  0  0  0  0  0
   -5.1999   -0.0140    0.0000 C   0  0  0  0  0  0  0  0  0  0  0  0
   -4.3316    0.4925    0.0000 C   0  0  0  0  0  0  0  0  0  0  0  0
   -3.4648   -0.0063    0.0000 N   0  0  0  0  0  0  0  0  0  0  0  0
   -2.5995    0.4950    0.0000 C   0  0  0  0  0  0  0  0  0  0  0  0
   -2.6010    1.4950    0.0000 O   0  0  0  0  0  0  0  0  0  0  0  0
   -1.7328   -0.0038    0.0000 N   0  0  0  0  0  0  0  0  0  0  0  0
   -0.8675    0.4975    0.0000 C   0  0  0  0  0  0  0  0  0  0  0  0
   -0.8675    1.5027    0.0000 C   0  0  0  0  0  0  0  0  0  0  0  0
    0.0000    2.0104    0.0000 N   0  0  0  0  0  0  0  0  0  0  0  0
    0.8675    1.5027    0.0000 C   0  0  0  0  0  0  0  0  0  0  0  0
    0.8675    0.4975    0.0000 C   0  0  0  0  0  0  0  0  0  0  0  0
    1.7328   -0.0038    0.0000 N   0  0  0  0  0  0  0  0  0  0  0  0
    0.0000    0.0000    0.0000 C   0  0  0  0  0  0  0  0  0  0  0  0
   -4.3301    1.4976    0.0000 C   0  0  0  0  0  0  0  0  0  0  0  0
  1  2  3  0  0  0  0
  2  3  1  0  0  0  0
  3 19  2  0  0  0  0
  3  4  1  0  0  0  0
  4  5  2  0  0  0  0
  5  6  1  0  0  0  0
  6  7  2  0  0  0  0
  7  8  1  0  0  0  0
  8  9  1  0  0  0  0
  9 10  2  0  0  0  0
  9 11  1  0  0  0  0
 11 12  1  0  0  0  0
 12 18  2  0  0  0  0
 12 13  1  0  0  0  0
 13 14  2  0  0  0  0
 14 15  1  0  0  0  0
 15 16  2  0  0  0  0
 16 17  1  0  0  0  0
 16 18  1  0  0  0  0
  7 19  1  0  0  0  0
M  END
$$$$
DAR-DIA-23a-9
  -OEChem-03232022352D

 19 20  0     0  0  0  0  0  0999 V2000
   -2.5981   -0.5050    0.0000 N   0  0  0  0  0  0  0  0  0  0  0  0
   -1.7328   -0.0038    0.0000 C   0  0  0  0  0  0  0  0  0  0  0  0
   -0.8675    0.4975    0.0000 C   0  0  0  0  0  0  0  0  0  0  0  0
   -0.8675    1.5027    0.0000 C   0  0  0  0  0  0  0  0  0  0  0  0
    0.0000    2.0104    0.0000 N   0  0  0  0  0  0  0  0  0  0  0  0
    0.8675    1.5027    0.0000 C   0  0  0  0  0  0  0  0  0  0  0  0
    0.8675    0.4975    0.0000 C   0  0  0  0  0  0  0  0  0  0  0  0
    1.7328   -0.0038    0.0000 N   0  0  0  0  0  0  0  0  0  0  0  0
    2.5995    0.4950    0.0000 C   0  0  0  0  0  0  0  0  0  0  0  0
    2.6010    1.4950    0.0000 O   0  0  0  0  0  0  0  0  0  0  0  0
    3.4648   -0.0063    0.0000 N   0  0  0  0  0  0  0  0  0  0  0  0
    4.3316    0.4925    0.0000 C   0  0  0  0  0  0  0  0  0  0  0  0
    4.3345    1.4977    0.0000 C   0  0  0  0  0  0  0  0  0  0  0  0
    5.2035    2.0028    0.0000 N   0  0  0  0  0  0  0  0  0  0  0  0
    6.0695    1.4926    0.0000 C   0  0  0  0  0  0  0  0  0  0  0  0
    6.0666    0.4874    0.0000 C   0  0  0  0  0  0  0  0  0  0  0  0
    6.9304   -0.0163    0.0000 N   0  0  0  0  0  0  0  0  0  0  0  0
    5.1977   -0.0075    0.0000 C   0  0  0  0  0  0  0  0  0  0  0  0
    0.0000    0.0000    0.0000 C   0  0  0  0  0  0  0  0  0  0  0  0
  1  2  3  0  0  0  0
  2  3  1  0  0  0  0
  3 19  2  0  0  0  0
  3  4  1  0  0  0  0
  4  5  2  0  0  0  0
  5  6  1  0  0  0  0
  6  7  2  0  0  0  0
  7  8  1  0  0  0  0
  8  9  1  0  0  0  0
  9 10  2  0  0  0  0
  9 11  1  0  0  0  0
 11 12  1  0  0  0  0
 12 18  2  0  0  0  0
 12 13  1  0  0  0  0
 13 14  2  0  0  0  0
 14 15  1  0  0  0  0
 15 16  2  0  0  0  0
 16 17  1  0  0  0  0
 16 18  1  0  0  0  0
  7 19  1  0  0  0  0
M  END
$$$$
DAR-DIA-23a-10
  -OEChem-03232022352D

 21 23  0     0  0  0  0  0  0999 V2000
    2.2769   -7.2884    0.0000 N   0  0  0  0  0  0  0  0  0  0  0  0
    1.9600   -6.3399    0.0000 C   0  0  0  0  0  0  0  0  0  0  0  0
    1.6430   -5.3915    0.0000 C   0  0  0  0  0  0  0  0  0  0  0  0
    0.6584   -5.1892    0.0000 C   0  0  0  0  0  0  0  0  0  0  0  0
    0.3356   -4.2373    0.0000 N   0  0  0  0  0  0  0  0  0  0  0  0
    1.0075   -3.4897    0.0000 C   0  0  0  0  0  0  0  0  0  0  0  0
    1.9921   -3.6920    0.0000 C   0  0  0  0  0  0  0  0  0  0  0  0
    2.6572   -2.9452    0.0000 N   0  0  0  0  0  0  0  0  0  0  0  0
    2.3431   -1.9958    0.0000 C   0  0  0  0  0  0  0  0  0  0  0  0
    1.3638   -1.7932    0.0000 O   0  0  0  0  0  0  0  0  0  0  0  0
    3.0082   -1.2491    0.0000 N   0  0  0  0  0  0  0  0  0  0  0  0
    2.6940   -0.2997    0.0000 C   0  0  0  0  0  0  0  0  0  0  0  0
    3.2780    0.5133    0.0000 C   0  0  0  0  0  0  0  0  0  0  0  0
    2.6851    1.3196    0.0000 N   0  0  0  0  0  0  0  0  0  0  0  0
    1.7350    1.0052    0.0000 C   0  0  0  0  0  0  0  0  0  0  0  0
    0.8675    1.5129    0.0000 N   0  0  0  0  0  0  0  0  0  0  0  0
    0.0000    1.0052    0.0000 C   0  0  0  0  0  0  0  0  0  0  0  0
    0.0000    0.0000    0.0000 C   0  0  0  0  0  0  0  0  0  0  0  0
    0.8675   -0.4975    0.0000 C   0  0  0  0  0  0  0  0  0  0  0  0
    1.7405    0.0044    0.0000 C   0  0  0  0  0  0  0  0  0  0  0  0
    2.3049   -4.6418    0.0000 C   0  0  0  0  0  0  0  0  0  0  0  0
  1  2  3  0  0  0  0
  2  3  1  0  0  0  0
  3 21  2  0  0  0  0
  3  4  1  0  0  0  0
  4  5  2  0  0  0  0
  5  6  1  0  0  0  0
  6  7  2  0  0  0  0
  7  8  1  0  0  0  0
  8  9  1  0  0  0  0
  9 10  2  0  0  0  0
  9 11  1  0  0  0  0
 11 12  1  0  0  0  0
 12 20  1  0  0  0  0
 12 13  2  0  0  0  0
 13 14  1  0  0  0  0
 14 15  1  0  0  0  0
 15 20  2  0  0  0  0
 15 16  1  0  0  0  0
 16 17  2  0  0  0  0
 17 18  1  0  0  0  0
 18 19  2  0  0  0  0
 19 20  1  0  0  0  0
  7 21  1  0  0  0  0
M  END
$$$$
DAR-DIA-23a-11
  -OEChem-03232022352D

 21 23  0     0  0  0  0  0  0999 V2000
   -1.6143   -3.8482    0.0000 N   0  0  0  0  0  0  0  0  0  0  0  0
   -0.6339   -4.0450    0.0000 C   0  0  0  0  0  0  0  0  0  0  0  0
    0.3466   -4.2419    0.0000 C   0  0  0  0  0  0  0  0  0  0  0  0
    0.6652   -5.1952    0.0000 C   0  0  0  0  0  0  0  0  0  0  0  0
    1.6456   -5.3921    0.0000 C   0  0  0  0  0  0  0  0  0  0  0  0
    2.3107   -4.6453    0.0000 C   0  0  0  0  0  0  0  0  0  0  0  0
    1.9921   -3.6920    0.0000 C   0  0  0  0  0  0  0  0  0  0  0  0
    2.6572   -2.9452    0.0000 N   0  0  0  0  0  0  0  0  0  0  0  0
    2.3431   -1.9958    0.0000 C   0  0  0  0  0  0  0  0  0  0  0  0
    1.3638   -1.7932    0.0000 O   0  0  0  0  0  0  0  0  0  0  0  0
    3.0082   -1.2491    0.0000 N   0  0  0  0  0  0  0  0  0  0  0  0
    2.6940   -0.2997    0.0000 C   0  0  0  0  0  0  0  0  0  0  0  0
    3.2780    0.5133    0.0000 C   0  0  0  0  0  0  0  0  0  0  0  0
    2.6851    1.3196    0.0000 N   0  0  0  0  0  0  0  0  0  0  0  0
    1.7350    1.0052    0.0000 C   0  0  0  0  0  0  0  0  0  0  0  0
    0.8675    1.5129    0.0000 N   0  0  0  0  0  0  0  0  0  0  0  0
    0.0000    1.0052    0.0000 C   0  0  0  0  0  0  0  0  0  0  0  0
    0.0000    0.0000    0.0000 C   0  0  0  0  0  0  0  0  0  0  0  0
    0.8675   -0.4975    0.0000 C   0  0  0  0  0  0  0  0  0  0  0  0
    1.7405    0.0044    0.0000 C   0  0  0  0  0  0  0  0  0  0  0  0
    1.0084   -3.4854    0.0000 C   0  0  0  0  0  0  0  0  0  0  0  0
  1  2  3  0  0  0  0
  2  3  1  0  0  0  0
  3 21  2  0  0  0  0
  3  4  1  0  0  0  0
  4  5  2  0  0  0  0
  5  6  1  0  0  0  0
  6  7  2  0  0  0  0
  7  8  1  0  0  0  0
  8  9  1  0  0  0  0
  9 10  2  0  0  0  0
  9 11  1  0  0  0  0
 11 12  1  0  0  0  0
 12 20  1  0  0  0  0
 12 13  2  0  0  0  0
 13 14  1  0  0  0  0
 14 15  1  0  0  0  0
 15 20  2  0  0  0  0
 15 16  1  0  0  0  0
 16 17  2  0  0  0  0
 17 18  1  0  0  0  0
 18 19  2  0  0  0  0
 19 20  1  0  0  0  0
  7 21  1  0  0  0  0
M  END
$$$$
DAR-DIA-23a-12
  -OEChem-03232022352D

 20 22  0     0  0  0  0  0  0999 V2000
    1.3638   -1.7932    0.0000 O   0  0  0  0  0  0  0  0  0  0  0  0
    2.3431   -1.9958    0.0000 C   0  0  0  0  0  0  0  0  0  0  0  0
    3.0082   -1.2491    0.0000 C   0  0  0  0  0  0  0  0  0  0  0  0
    2.6940   -0.2997    0.0000 C   0  0  0  0  0  0  0  0  0  0  0  0
    3.2780    0.5133    0.0000 C   0  0  0  0  0  0  0  0  0  0  0  0
    2.6851    1.3196    0.0000 N   0  0  0  0  0  0  0  0  0  0  0  0
    1.7350    1.0052    0.0000 C   0  0  0  0  0  0  0  0  0  0  0  0
    0.8675    1.5129    0.0000 N   0  0  0  0  0  0  0  0  0  0  0  0
    0.0000    1.0052    0.0000 C   0  0  0  0  0  0  0  0  0  0  0  0
    0.0000    0.0000    0.0000 C   0  0  0  0  0  0  0  0  0  0  0  0
    0.8675   -0.4975    0.0000 C   0  0  0  0  0  0  0  0  0  0  0  0
    1.7405    0.0044    0.0000 C   0  0  0  0  0  0  0  0  0  0  0  0
    2.6572   -2.9452    0.0000 N   0  0  0  0  0  0  0  0  0  0  0  0
    1.9921   -3.6920    0.0000 C   0  0  0  0  0  0  0  0  0  0  0  0
    1.0084   -3.4854    0.0000 C   0  0  0  0  0  0  0  0  0  0  0  0
    0.3432   -4.2321    0.0000 C   0  0  0  0  0  0  0  0  0  0  0  0
    0.6518   -5.1833    0.0000 C   0  0  0  0  0  0  0  0  0  0  0  0
    1.6356   -5.3899    0.0000 C   0  0  0  0  0  0  0  0  0  0  0  0
    1.9441   -6.3411    0.0000 Cl  0  0  0  0  0  0  0  0  0  0  0  0
    2.3107   -4.6453    0.0000 C   0  0  0  0  0  0  0  0  0  0  0  0
  1  2  2  0  0  0  0
  2  3  1  0  0  0  0
  3  4  1  0  0  0  0
  4 12  1  0  0  0  0
  4  5  2  0  0  0  0
  5  6  1  0  0  0  0
  6  7  1  0  0  0  0
  7 12  2  0  0  0  0
  7  8  1  0  0  0  0
  8  9  2  0  0  0  0
  9 10  1  0  0  0  0
 10 11  2  0  0  0  0
 11 12  1  0  0  0  0
  2 13  1  0  0  0  0
 13 14  1  0  0  0  0
 14 20  2  0  0  0  0
 14 15  1  0  0  0  0
 15 16  2  0  0  0  0
 16 17  1  0  0  0  0
 17 18  2  0  0  0  0
 18 19  1  0  0  0  0
 18 20  1  0  0  0  0
M  END
$$$$
DAR-DIA-23a-13
  -OEChem-03232022352D

 18 19  0     0  0  0  0  0  0999 V2000
   -1.7328   -0.0038    0.0000 N   0  0  0  0  0  0  0  0  0  0  0  0
   -0.8675    0.4975    0.0000 C   0  0  0  0  0  0  0  0  0  0  0  0
   -0.8675    1.5027    0.0000 C   0  0  0  0  0  0  0  0  0  0  0  0
    0.0000    2.0104    0.0000 N   0  0  0  0  0  0  0  0  0  0  0  0
    0.8675    1.5027    0.0000 C   0  0  0  0  0  0  0  0  0  0  0  0
    0.8675    0.4975    0.0000 C   0  0  0  0  0  0  0  0  0  0  0  0
    1.7328   -0.0038    0.0000 N   0  0  0  0  0  0  0  0  0  0  0  0
    2.5995    0.4950    0.0000 C   0  0  0  0  0  0  0  0  0  0  0  0
    2.6010    1.4950    0.0000 O   0  0  0  0  0  0  0  0  0  0  0  0
    3.4648   -0.0063    0.0000 N   0  0  0  0  0  0  0  0  0  0  0  0
    4.3316    0.4925    0.0000 C   0  0  0  0  0  0  0  0  0  0  0  0
    5.1999   -0.0140    0.0000 C   0  0  0  0  0  0  0  0  0  0  0  0
    6.0667    0.4848    0.0000 C   0  0  0  0  0  0  0  0  0  0  0  0
    6.0740    1.4848    0.0000 C   0  0  0  0  0  0  0  0  0  0  0  0
    5.2057    1.9912    0.0000 C   0  0  0  0  0  0  0  0  0  0  0  0
    5.2131    2.9912    0.0000 Cl  0  0  0  0  0  0  0  0  0  0  0  0
    4.3301    1.4976    0.0000 C   0  0  0  0  0  0  0  0  0  0  0  0
    0.0000    0.0000    0.0000 C   0  0  0  0  0  0  0  0  0  0  0  0
  1  2  1  0  0  0  0
  2 18  2  0  0  0  0
  2  3  1  0  0  0  0
  3  4  2  0  0  0  0
  4  5  1  0  0  0  0
  5  6  2  0  0  0  0
  6  7  1  0  0  0  0
  7  8  1  0  0  0  0
  8  9  2  0  0  0  0
  8 10  1  0  0  0  0
 10 11  1  0  0  0  0
 11 17  2  0  0  0  0
 11 12  1  0  0  0  0
 12 13  2  0  0  0  0
 13 14  1  0  0  0  0
 14 15  2  0  0  0  0
 15 16  1  0  0  0  0
 15 17  1  0  0  0  0
  6 18  1  0  0  0  0
M  END
$$$$
DAR-DIA-23a-14
  -OEChem-03232022352D

 17 18  0     0  0  0  0  0  0999 V2000
    0.8646   -1.5025    0.0000 O   0  0  0  0  0  0  0  0  0  0  0  0
    1.7313   -1.0038    0.0000 C   0  0  0  0  0  0  0  0  0  0  0  0
    1.7328   -0.0038    0.0000 N   0  0  0  0  0  0  0  0  0  0  0  0
    0.8675    0.4975    0.0000 C   0  0  0  0  0  0  0  0  0  0  0  0
    0.0000    0.0000    0.0000 C   0  0  0  0  0  0  0  0  0  0  0  0
   -0.8675    0.4975    0.0000 C   0  0  0  0  0  0  0  0  0  0  0  0
   -0.8675    1.5027    0.0000 C   0  0  0  0  0  0  0  0  0  0  0  0
    0.0000    2.0104    0.0000 N   0  0  0  0  0  0  0  0  0  0  0  0
    0.8675    1.5027    0.0000 C   0  0  0  0  0  0  0  0  0  0  0  0
    2.5966   -1.5050    0.0000 N   0  0  0  0  0  0  0  0  0  0  0  0
    2.5952   -2.5050    0.0000 C   0  0  0  0  0  0  0  0  0  0  0  0
    1.7225   -3.0038    0.0000 C   0  0  0  0  0  0  0  0  0  0  0  0
    1.7210   -4.0038    0.0000 C   0  0  0  0  0  0  0  0  0  0  0  0
    2.5833   -4.5101    0.0000 C   0  0  0  0  0  0  0  0  0  0  0  0
    3.4561   -4.0114    0.0000 C   0  0  0  0  0  0  0  0  0  0  0  0
    4.3184   -4.5177    0.0000 Cl  0  0  0  0  0  0  0  0  0  0  0  0
    3.4664   -3.0063    0.0000 C   0  0  0  0  0  0  0  0  0  0  0  0
  1  2  2  0  0  0  0
  2  3  1  0  0  0  0
  3  4  1  0  0  0  0
  4  9  2  0  0  0  0
  4  5  1  0  0  0  0
  5  6  2  0  0  0  0
  6  7  1  0  0  0  0
  7  8  2  0  0  0  0
  8  9  1  0  0  0  0
  2 10  1  0  0  0  0
 10 11  1  0  0  0  0
 11 17  2  0  0  0  0
 11 12  1  0  0  0  0
 12 13  2  0  0  0  0
 13 14  1  0  0  0  0
 14 15  2  0  0  0  0
 15 16  1  0  0  0  0
 15 17  1  0  0  0  0
M  END
$$$$
DAR-DIA-23a-15
  -OEChem-03232022352D

 17 18  0     0  0  0  0  0  0999 V2000
    0.8646   -1.5025    0.0000 O   0  0  0  0  0  0  0  0  0  0  0  0
    1.7313   -1.0038    0.0000 C   0  0  0  0  0  0  0  0  0  0  0  0
    1.7328   -0.0038    0.0000 N   0  0  0  0  0  0  0  0  0  0  0  0
    0.8675    0.4975    0.0000 C   0  0  0  0  0  0  0  0  0  0  0  0
    0.0000    0.0000    0.0000 C   0  0  0  0  0  0  0  0  0  0  0  0
   -0.8675    0.4975    0.0000 C   0  0  0  0  0  0  0  0  0  0  0  0
   -0.8675    1.5027    0.0000 C   0  0  0  0  0  0  0  0  0  0  0  0
    0.0000    2.0104    0.0000 N   0  0  0  0  0  0  0  0  0  0  0  0
    0.8675    1.5027    0.0000 C   0  0  0  0  0  0  0  0  0  0  0  0
    2.5966   -1.5050    0.0000 N   0  0  0  0  0  0  0  0  0  0  0  0
    2.5952   -2.5050    0.0000 C   0  0  0  0  0  0  0  0  0  0  0  0
    3.4643   -3.0101    0.0000 C   0  0  0  0  0  0  0  0  0  0  0  0
    3.4673   -4.0153    0.0000 N   0  0  0  0  0  0  0  0  0  0  0  0
    2.5924   -4.5102    0.0000 C   0  0  0  0  0  0  0  0  0  0  0  0
    1.7233   -4.0050    0.0000 C   0  0  0  0  0  0  0  0  0  0  0  0
    0.8551   -4.5013    0.0000 Cl  0  0  0  0  0  0  0  0  0  0  0  0
    1.7291   -3.0050    0.0000 C   0  0  0  0  0  0  0  0  0  0  0  0
  1  2  2  0  0  0  0
  2  3  1  0  0  0  0
  3  4  1  0  0  0  0
  4  9  2  0  0  0  0
  4  5  1  0  0  0  0
  5  6  2  0  0  0  0
  6  7  1  0  0  0  0
  7  8  2  0  0  0  0
  8  9  1  0  0  0  0
  2 10  1  0  0  0  0
 10 11  1  0  0  0  0
 11 17  2  0  0  0  0
 11 12  1  0  0  0  0
 12 13  2  0  0  0  0
 13 14  1  0  0  0  0
 14 15  2  0  0  0  0
 15 16  1  0  0  0  0
 15 17  1  0  0  0  0
M  END
$$$$
DAR-DIA-23a-16
  -OEChem-03232022352D

 17 18  0     0  0  0  0  0  0999 V2000
   -2.6010    1.4950    0.0000 O   0  0  0  0  0  0  0  0  0  0  0  0
   -2.5995    0.4950    0.0000 C   0  0  0  0  0  0  0  0  0  0  0  0
   -1.7328   -0.0038    0.0000 C   0  0  0  0  0  0  0  0  0  0  0  0
   -0.8675    0.4975    0.0000 C   0  0  0  0  0  0  0  0  0  0  0  0
   -0.8675    1.5027    0.0000 C   0  0  0  0  0  0  0  0  0  0  0  0
    0.0000    2.0104    0.0000 N   0  0  0  0  0  0  0  0  0  0  0  0
    0.8675    1.5027    0.0000 C   0  0  0  0  0  0  0  0  0  0  0  0
    0.8675    0.4975    0.0000 C   0  0  0  0  0  0  0  0  0  0  0  0
    1.7328   -0.0038    0.0000 Cl  0  0  0  0  0  0  0  0  0  0  0  0
    0.0000    0.0000    0.0000 C   0  0  0  0  0  0  0  0  0  0  0  0
   -3.4648   -0.0063    0.0000 N   0  0  0  0  0  0  0  0  0  0  0  0
   -4.3316    0.4925    0.0000 C   0  0  0  0  0  0  0  0  0  0  0  0
   -5.1977   -0.0075    0.0000 C   0  0  0  0  0  0  0  0  0  0  0  0
   -6.0666    0.4874    0.0000 C   0  0  0  0  0  0  0  0  0  0  0  0
   -6.0695    1.4926    0.0000 C   0  0  0  0  0  0  0  0  0  0  0  0
   -5.2035    2.0029    0.0000 N   0  0  0  0  0  0  0  0  0  0  0  0
   -4.3345    1.4977    0.0000 C   0  0  0  0  0  0  0  0  0  0  0  0
  1  2  2  0  0  0  0
  2  3  1  0  0  0  0
  3  4  1  0  0  0  0
  4 10  2  0  0  0  0
  4  5  1  0  0  0  0
  5  6  2  0  0  0  0
  6  7  1  0  0  0  0
  7  8  2  0  0  0  0
  8  9  1  0  0  0  0
  8 10  1  0  0  0  0
  2 11  1  0  0  0  0
 11 12  1  0  0  0  0
 12 17  2  0  0  0  0
 12 13  1  0  0  0  0
 13 14  2  0  0  0  0
 14 15  1  0  0  0  0
 15 16  2  0  0  0  0
 16 17  1  0  0  0  0
M  END
$$$$
DAR-DIA-23a-17
  -OEChem-03232022352D

 18 19  0     0  0  0  0  0  0999 V2000
   -2.5981   -0.5050    0.0000 N   0  0  0  0  0  0  0  0  0  0  0  0
   -1.7328   -0.0038    0.0000 C   0  0  0  0  0  0  0  0  0  0  0  0
   -0.8675    0.4975    0.0000 C   0  0  0  0  0  0  0  0  0  0  0  0
   -0.8675    1.5027    0.0000 C   0  0  0  0  0  0  0  0  0  0  0  0
    0.0000    2.0104    0.0000 N   0  0  0  0  0  0  0  0  0  0  0  0
    0.8675    1.5027    0.0000 C   0  0  0  0  0  0  0  0  0  0  0  0
    0.8675    0.4975    0.0000 C   0  0  0  0  0  0  0  0  0  0  0  0
    1.7328   -0.0038    0.0000 C   0  0  0  0  0  0  0  0  0  0  0  0
    2.5995    0.4950    0.0000 C   0  0  0  0  0  0  0  0  0  0  0  0
    2.6010    1.4950    0.0000 O   0  0  0  0  0  0  0  0  0  0  0  0
    3.4648   -0.0063    0.0000 N   0  0  0  0  0  0  0  0  0  0  0  0
    4.3316    0.4925    0.0000 C   0  0  0  0  0  0  0  0  0  0  0  0
    4.3345    1.4925    0.0000 C   0  0  0  0  0  0  0  0  0  0  0  0
    5.1991    1.9950    0.0000 C   0  0  0  0  0  0  0  0  0  0  0  0
    6.0696    1.4924    0.0000 C   0  0  0  0  0  0  0  0  0  0  0  0
    6.0756    0.4873    0.0000 N   0  0  0  0  0  0  0  0  0  0  0  0
    5.2021   -0.0101    0.0000 C   0  0  0  0  0  0  0  0  0  0  0  0
    0.0000    0.0000    0.0000 C   0  0  0  0  0  0  0  0  0  0  0  0
  1  2  3  0  0  0  0
  2  3  1  0  0  0  0
  3 18  2  0  0  0  0
  3  4  1  0  0  0  0
  4  5  2  0  0  0  0
  5  6  1  0  0  0  0
  6  7  2  0  0  0  0
  7  8  1  0  0  0  0
  8  9  1  0  0  0  0
  9 10  2  0  0  0  0
  9 11  1  0  0  0  0
 11 12  1  0  0  0  0
 12 17  2  0  0  0  0
 12 13  1  0  0  0  0
 13 14  2  0  0  0  0
 14 15  1  0  0  0  0
 15 16  2  0  0  0  0
 16 17  1  0  0  0  0
  7 18  1  0  0  0  0
M  END
$$$$
DAR-DIA-23a-18
  -OEChem-03232022352D

 22 24  0     0  0  0  0  0  0999 V2000
   -7.8126   -2.5129    0.0000 N   0  0  0  0  0  0  0  0  0  0  0  0
   -6.9431   -3.0069    0.0000 C   0  0  0  0  0  0  0  0  0  0  0  0
   -6.0736   -3.5008    0.0000 C   0  0  0  0  0  0  0  0  0  0  0  0
   -6.0696   -4.5060    0.0000 C   0  0  0  0  0  0  0  0  0  0  0  0
   -5.2001   -5.0000    0.0000 C   0  0  0  0  0  0  0  0  0  0  0  0
   -4.3346   -4.4990    0.0000 C   0  0  0  0  0  0  0  0  0  0  0  0
   -4.3386   -3.4939    0.0000 C   0  0  0  0  0  0  0  0  0  0  0  0
   -3.4732   -2.9929    0.0000 N   0  0  0  0  0  0  0  0  0  0  0  0
   -3.4742   -1.9929    0.0000 C   0  0  0  0  0  0  0  0  0  0  0  0
   -4.3408   -1.4939    0.0000 O   0  0  0  0  0  0  0  0  0  0  0  0
   -2.6087   -1.4920    0.0000 C   0  0  0  0  0  0  0  0  0  0  0  0
   -2.6098   -0.4920    0.0000 C   0  0  0  0  0  0  0  0  0  0  0  0
   -3.4805    0.0073    0.0000 C   0  0  0  0  0  0  0  0  0  0  0  0
   -3.4805    1.0162    0.0000 N   0  0  0  0  0  0  0  0  0  0  0  0
   -2.6098    1.5258    0.0000 C   0  0  0  0  0  0  0  0  0  0  0  0
   -1.7391    1.0162    0.0000 C   0  0  0  0  0  0  0  0  0  0  0  0
   -0.8680    1.5198    0.0000 N   0  0  0  0  0  0  0  0  0  0  0  0
    0.0043    1.0087    0.0000 C   0  0  0  0  0  0  0  0  0  0  0  0
    0.0000    0.0000    0.0000 C   0  0  0  0  0  0  0  0  0  0  0  0
   -0.8766   -0.4980    0.0000 C   0  0  0  0  0  0  0  0  0  0  0  0
   -1.7434    0.0073    0.0000 C   0  0  0  0  0  0  0  0  0  0  0  0
   -5.2082   -2.9896    0.0000 C   0  0  0  0  0  0  0  0  0  0  0  0
  1  2  3  0  0  0  0
  2  3  1  0  0  0  0
  3 22  2  0  0  0  0
  3  4  1  0  0  0  0
  4  5  2  0  0  0  0
  5  6  1  0  0  0  0
  6  7  2  0  0  0  0
  7  8  1  0  0  0  0
  8  9  1  0  0  0  0
  9 10  2  0  0  0  0
  9 11  1  0  0  0  0
 11 12  1  0  0  0  0
 12 21  2  0  0  0  0
 12 13  1  0  0  0  0
 13 14  2  0  0  0  0
 14 15  1  0  0  0  0
 15 16  2  0  0  0  0
 16 21  1  0  0  0  0
 16 17  1  0  0  0  0
 17 18  2  0  0  0  0
 18 19  1  0  0  0  0
 19 20  2  0  0  0  0
 20 21  1  0  0  0  0
  7 22  1  0  0  0  0
M  END
$$$$
DAR-DIA-23a-19
  -OEChem-03232022352D

 22 24  0     0  0  0  0  0  0999 V2000
   -2.6122   -2.4916    0.0000 N   0  0  0  0  0  0  0  0  0  0  0  0
   -1.7460   -2.9913    0.0000 C   0  0  0  0  0  0  0  0  0  0  0  0
   -0.8798   -3.4910    0.0000 C   0  0  0  0  0  0  0  0  0  0  0  0
   -0.8825   -4.4962    0.0000 C   0  0  0  0  0  0  0  0  0  0  0  0
   -0.0163   -4.9960    0.0000 C   0  0  0  0  0  0  0  0  0  0  0  0
    0.8525   -4.5008    0.0000 C   0  0  0  0  0  0  0  0  0  0  0  0
    0.8551   -3.4956    0.0000 C   0  0  0  0  0  0  0  0  0  0  0  0
    1.7239   -3.0004    0.0000 N   0  0  0  0  0  0  0  0  0  0  0  0
    1.7295   -2.0004    0.0000 C   0  0  0  0  0  0  0  0  0  0  0  0
    0.8663   -1.4956    0.0000 O   0  0  0  0  0  0  0  0  0  0  0  0
    2.5983   -1.5053    0.0000 C   0  0  0  0  0  0  0  0  0  0  0  0
    2.6039   -0.5053    0.0000 C   0  0  0  0  0  0  0  0  0  0  0  0
    3.4805   -0.0073    0.0000 C   0  0  0  0  0  0  0  0  0  0  0  0
    3.4848    1.0014    0.0000 N   0  0  0  0  0  0  0  0  0  0  0  0
    2.6125    1.5125    0.0000 C   0  0  0  0  0  0  0  0  0  0  0  0
    1.7414    1.0089    0.0000 C   0  0  0  0  0  0  0  0  0  0  0  0
    0.8707    1.5185    0.0000 C   0  0  0  0  0  0  0  0  0  0  0  0
    0.0000    1.0089    0.0000 C   0  0  0  0  0  0  0  0  0  0  0  0
    0.0000    0.0000    0.0000 C   0  0  0  0  0  0  0  0  0  0  0  0
    0.8707   -0.4993    0.0000 C   0  0  0  0  0  0  0  0  0  0  0  0
    1.7371    0.0000    0.0000 C   0  0  0  0  0  0  0  0  0  0  0  0
   -0.0110   -2.9856    0.0000 C   0  0  0  0  0  0  0  0  0  0  0  0
  1  2  3  0  0  0  0
  2  3  1  0  0  0  0
  3 22  2  0  0  0  0
  3  4  1  0  0  0  0
  4  5  2  0  0  0  0
  5  6  1  0  0  0  0
  6  7  2  0  0  0  0
  7  8  1  0  0  0  0
  8  9  1  0  0  0  0
  9 10  2  0  0  0  0
  9 11  1  0  0  0  0
 11 12  1  0  0  0  0
 12 21  2  0  0  0  0
 12 13  1  0  0  0  0
 13 14  2  0  0  0  0
 14 15  1  0  0  0  0
 15 16  2  0  0  0  0
 16 21  1  0  0  0  0
 16 17  1  0  0  0  0
 17 18  2  0  0  0  0
 18 19  1  0  0  0  0
 19 20  2  0  0  0  0
 20 21  1  0  0  0  0
  7 22  1  0  0  0  0
M  END
$$$$
DAR-DIA-23a-20
  -OEChem-03232022352D

 20 22  0     0  0  0  0  0  0999 V2000
    0.8663   -1.4956    0.0000 O   0  0  0  0  0  0  0  0  0  0  0  0
    1.7295   -2.0004    0.0000 C   0  0  0  0  0  0  0  0  0  0  0  0
    2.5983   -1.5053    0.0000 C   0  0  0  0  0  0  0  0  0  0  0  0
    2.6039   -0.5053    0.0000 C   0  0  0  0  0  0  0  0  0  0  0  0
    3.4805   -0.0073    0.0000 C   0  0  0  0  0  0  0  0  0  0  0  0
    3.4848    1.0014    0.0000 N   0  0  0  0  0  0  0  0  0  0  0  0
    2.6125    1.5125    0.0000 C   0  0  0  0  0  0  0  0  0  0  0  0
    1.7414    1.0089    0.0000 C   0  0  0  0  0  0  0  0  0  0  0  0
    0.8707    1.5185    0.0000 C   0  0  0  0  0  0  0  0  0  0  0  0
    0.0000    1.0089    0.0000 C   0  0  0  0  0  0  0  0  0  0  0  0
    0.0000    0.0000    0.0000 C   0  0  0  0  0  0  0  0  0  0  0  0
    0.8707   -0.4993    0.0000 C   0  0  0  0  0  0  0  0  0  0  0  0
    1.7371    0.0000    0.0000 C   0  0  0  0  0  0  0  0  0  0  0  0
    1.7239   -3.0004    0.0000 N   0  0  0  0  0  0  0  0  0  0  0  0
    0.8552   -3.4956    0.0000 C   0  0  0  0  0  0  0  0  0  0  0  0
    0.8525   -4.5008    0.0000 C   0  0  0  0  0  0  0  0  0  0  0  0
   -0.0163   -4.9960    0.0000 C   0  0  0  0  0  0  0  0  0  0  0  0
   -0.8825   -4.4962    0.0000 C   0  0  0  0  0  0  0  0  0  0  0  0
   -0.8798   -3.4910    0.0000 C   0  0  0  0  0  0  0  0  0  0  0  0
   -0.0110   -2.9856    0.0000 C   0  0  0  0  0  0  0  0  0  0  0  0
  1  2  2  0  0  0  0
  2  3  1  0  0  0  0
  3  4  1  0  0  0  0
  4 13  2  0  0  0  0
  4  5  1  0  0  0  0
  5  6  2  0  0  0  0
  6  7  1  0  0  0  0
  7  8  2  0  0  0  0
  8 13  1  0  0  0  0
  8  9  1  0  0  0  0
  9 10  2  0  0  0  0
 10 11  1  0  0  0  0
 11 12  2  0  0  0  0
 12 13  1  0  0  0  0
  2 14  1  0  0  0  0
 14 15  1  0  0  0  0
 15 20  2  0  0  0  0
 15 16  1  0  0  0  0
 16 17  2  0  0  0  0
 17 18  1  0  0  0  0
 18 19  2  0  0  0  0
 19 20  1  0  0  0  0
M  END
$$$$
BAR-COM-21d-1
  -OEChem-03232022352D

 25 27  0     1  0  0  0  0  0999 V2000
   -1.5037   -5.7577    0.0000 N   0  3  0  0  0  0  0  0  0  0  0  0
   -0.8570   -6.5204    0.0000 C   0  0  0  0  0  0  0  0  0  0  0  0
    0.0068   -6.0166    0.0000 C   0  0  2  0  0  0  0  0  0  0  0  0
   -0.4970   -5.1528    0.0000 H   0  0  0  0  0  0  0  0  0  0  0  0
    0.5107   -6.8803    0.0000 O   0  0  0  0  0  0  0  0  0  0  0  0
    0.8706   -5.5127    0.0000 C   0  0  0  0  0  0  0  0  0  0  0  0
    0.8662   -4.5127    0.0000 C   0  0  0  0  0  0  0  0  0  0  0  0
    1.7299   -4.0089    0.0000 C   0  0  0  0  0  0  0  0  0  0  0  0
    2.6012   -4.5102    0.0000 C   0  0  0  0  0  0  0  0  0  0  0  0
    3.4651   -4.0063    0.0000 C   0  0  0  0  0  0  0  0  0  0  0  0
    3.4665   -3.0063    0.0000 C   0  0  0  0  0  0  0  0  0  0  0  0
    2.5952   -2.5050    0.0000 C   0  0  0  0  0  0  0  0  0  0  0  0
    2.5966   -1.5050    0.0000 N   0  0  0  0  0  0  0  0  0  0  0  0
    1.7313   -1.0038    0.0000 C   0  0  0  0  0  0  0  0  0  0  0  0
    0.8646   -1.5025    0.0000 O   0  0  0  0  0  0  0  0  0  0  0  0
    1.7328   -0.0038    0.0000 N   0  0  0  0  0  0  0  0  0  0  0  0
    0.8675    0.4975    0.0000 C   0  0  0  0  0  0  0  0  0  0  0  0
    0.0000    0.0000    0.0000 C   0  0  0  0  0  0  0  0  0  0  0  0
   -0.8675    0.4975    0.0000 C   0  0  0  0  0  0  0  0  0  0  0  0
   -0.8675    1.5027    0.0000 C   0  0  0  0  0  0  0  0  0  0  0  0
    0.0000    2.0104    0.0000 N   0  0  0  0  0  0  0  0  0  0  0  0
    0.8675    1.5027    0.0000 C   0  0  0  0  0  0  0  0  0  0  0  0
    1.7225   -3.0037    0.0000 C   0  0  0  0  0  0  0  0  0  0  0  0
   -1.4964   -7.2917    0.0000 C   0  0  0  0  0  0  0  0  0  0  0  0
   -0.5108   -7.4606    0.0000 C   0  0  0  0  0  0  0  0  0  0  0  0
  1  2  1  0  0  0  0
  2 25  1  0  0  0  0
  2  3  1  0  0  0  0
  3  4  1  6  0  0  0
  3  5  1  0  0  0  0
  3  6  1  0  0  0  0
  6  7  1  0  0  0  0
  7  8  1  0  0  0  0
  8 23  2  0  0  0  0
  8  9  1  0  0  0  0
  9 10  2  0  0  0  0
 10 11  1  0  0  0  0
 11 12  2  0  0  0  0
 12 13  1  0  0  0  0
 13 14  1  0  0  0  0
 14 15  2  0  0  0  0
 14 16  1  0  0  0  0
 16 17  1  0  0  0  0
 17 22  2  0  0  0  0
 17 18  1  0  0  0  0
 18 19  2  0  0  0  0
 19 20  1  0  0  0  0
 20 21  2  0  0  0  0
 21 22  1  0  0  0  0
 12 23  1  0  0  0  0
  2 24  1  0  0  0  0
 24 25  1  0  0  0  0
M  CHG  1   1   1
M  END
$$$$
BAR-COM-21d-2
  -OEChem-03232022352D

 25 27  0     1  0  0  0  0  0999 V2000
   -0.4970   -5.1528    0.0000 C   0  0  0  0  0  0  0  0  0  0  0  0
    0.0068   -6.0166    0.0000 C   0  0  2  0  0  0  0  0  0  0  0  0
    0.8706   -5.5127    0.0000 C   0  0  0  0  0  0  0  0  0  0  0  0
    0.8662   -4.5127    0.0000 C   0  0  0  0  0  0  0  0  0  0  0  0
    1.7299   -4.0089    0.0000 C   0  0  0  0  0  0  0  0  0  0  0  0
    2.6012   -4.5102    0.0000 C   0  0  0  0  0  0  0  0  0  0  0  0
    3.4651   -4.0063    0.0000 C   0  0  0  0  0  0  0  0  0  0  0  0
    3.4665   -3.0063    0.0000 C   0  0  0  0  0  0  0  0  0  0  0  0
    2.5952   -2.5050    0.0000 C   0  0  0  0  0  0  0  0  0  0  0  0
    2.5966   -1.5050    0.0000 N   0  0  0  0  0  0  0  0  0  0  0  0
    1.7313   -1.0038    0.0000 C   0  0  0  0  0  0  0  0  0  0  0  0
    0.8646   -1.5025    0.0000 O   0  0  0  0  0  0  0  0  0  0  0  0
    1.7328   -0.0038    0.0000 N   0  0  0  0  0  0  0  0  0  0  0  0
    0.8675    0.4975    0.0000 C   0  0  0  0  0  0  0  0  0  0  0  0
    0.0000    0.0000    0.0000 C   0  0  0  0  0  0  0  0  0  0  0  0
   -0.8675    0.4975    0.0000 C   0  0  0  0  0  0  0  0  0  0  0  0
   -0.8675    1.5027    0.0000 C   0  0  0  0  0  0  0  0  0  0  0  0
    0.0000    2.0104    0.0000 N   0  0  0  0  0  0  0  0  0  0  0  0
    0.8675    1.5027    0.0000 C   0  0  0  0  0  0  0  0  0  0  0  0
    1.7225   -3.0037    0.0000 C   0  0  0  0  0  0  0  0  0  0  0  0
    0.5106   -6.8803    0.0000 N   0  3  0  0  0  0  0  0  0  0  0  0
   -0.3531   -7.3841    0.0000 C   0  0  0  0  0  0  0  0  0  0  0  0
   -0.8569   -6.5204    0.0000 C   0  0  2  0  0  0  0  0  0  0  0  0
   -1.7207   -7.0242    0.0000 H   0  0  0  0  0  0  0  0  0  0  0  0
   -1.3607   -5.6566    0.0000 O   0  0  0  0  0  0  0  0  0  0  0  0
  2  1  1  6  0  0  0
  2 23  1  0  0  0  0
  2  3  1  0  0  0  0
  3  4  1  0  0  0  0
  4  5  1  0  0  0  0
  5 20  2  0  0  0  0
  5  6  1  0  0  0  0
  6  7  2  0  0  0  0
  7  8  1  0  0  0  0
  8  9  2  0  0  0  0
  9 10  1  0  0  0  0
 10 11  1  0  0  0  0
 11 12  2  0  0  0  0
 11 13  1  0  0  0  0
 13 14  1  0  0  0  0
 14 19  2  0  0  0  0
 14 15  1  0  0  0  0
 15 16  2  0  0  0  0
 16 17  1  0  0  0  0
 17 18  2  0  0  0  0
 18 19  1  0  0  0  0
  9 20  1  0  0  0  0
  2 21  1  0  0  0  0
 21 22  1  0  0  0  0
 22 23  1  0  0  0  0
 23 24  1  1  0  0  0
 23 25  1  0  0  0  0
M  CHG  1  21   1
M  END
$$$$
BAR-COM-21d-3
  -OEChem-03232022352D

 24 26  0     0  0  0  0  0  0999 V2000
    0.8646   -1.5025    0.0000 O   0  0  0  0  0  0  0  0  0  0  0  0
    1.7313   -1.0038    0.0000 C   0  0  0  0  0  0  0  0  0  0  0  0
    1.7328   -0.0038    0.0000 N   0  0  0  0  0  0  0  0  0  0  0  0
    0.8675    0.4975    0.0000 C   0  0  0  0  0  0  0  0  0  0  0  0
    0.0000    0.0000    0.0000 C   0  0  0  0  0  0  0  0  0  0  0  0
   -0.8675    0.4975    0.0000 C   0  0  0  0  0  0  0  0  0  0  0  0
   -0.8675    1.5027    0.0000 C   0  0  0  0  0  0  0  0  0  0  0  0
    0.0000    2.0104    0.0000 N   0  0  0  0  0  0  0  0  0  0  0  0
    0.8675    1.5027    0.0000 C   0  0  0  0  0  0  0  0  0  0  0  0
    2.5966   -1.5050    0.0000 N   0  0  0  0  0  0  0  0  0  0  0  0
    2.5952   -2.5050    0.0000 C   0  0  0  0  0  0  0  0  0  0  0  0
    1.7225   -3.0038    0.0000 C   0  0  0  0  0  0  0  0  0  0  0  0
    1.7210   -4.0038    0.0000 C   0  0  0  0  0  0  0  0  0  0  0  0
    2.5833   -4.5101    0.0000 C   0  0  0  0  0  0  0  0  0  0  0  0
    3.4561   -4.0114    0.0000 C   0  0  0  0  0  0  0  0  0  0  0  0
    4.3184   -4.5177    0.0000 C   0  0  0  0  0  0  0  0  0  0  0  0
    5.1881   -4.0241    0.0000 C   0  0  0  0  0  0  0  0  0  0  0  0
    6.0504   -4.5305    0.0000 C   0  0  0  0  0  0  0  0  0  0  0  0
    6.9201   -4.0368    0.0000 C   0  0  0  0  0  0  0  0  0  0  0  0
    7.0331   -3.0416    0.0000 C   0  0  0  0  0  0  0  0  0  0  0  0
    8.0139   -2.8391    0.0000 C   0  0  0  0  0  0  0  0  0  0  0  0
    8.5065   -3.7095    0.0000 C   0  0  0  0  0  0  0  0  0  0  0  0
    7.8352   -4.4513    0.0000 N   0  0  0  0  0  0  0  0  0  0  0  0
    3.4664   -3.0063    0.0000 C   0  0  0  0  0  0  0  0  0  0  0  0
  1  2  2  0  0  0  0
  2  3  1  0  0  0  0
  3  4  1  0  0  0  0
  4  9  2  0  0  0  0
  4  5  1  0  0  0  0
  5  6  2  0  0  0  0
  6  7  1  0  0  0  0
  7  8  2  0  0  0  0
  8  9  1  0  0  0  0
  2 10  1  0  0  0  0
 10 11  1  0  0  0  0
 11 24  2  0  0  0  0
 11 12  1  0  0  0  0
 12 13  2  0  0  0  0
 13 14  1  0  0  0  0
 14 15  2  0  0  0  0
 15 16  1  0  0  0  0
 16 17  1  0  0  0  0
 17 18  1  0  0  0  0
 18 19  1  0  0  0  0
 19 23  1  0  0  0  0
 19 20  2  0  0  0  0
 20 21  1  0  0  0  0
 21 22  2  0  0  0  0
 22 23  1  0  0  0  0
 15 24  1  0  0  0  0
M  END
$$$$
BAR-COM-21d-4
  -OEChem-03232022352D

 23 25  0     0  0  0  0  0  0999 V2000
    0.8646   -1.5025    0.0000 O   0  0  0  0  0  0  0  0  0  0  0  0
    1.7313   -1.0038    0.0000 C   0  0  0  0  0  0  0  0  0  0  0  0
    1.7328   -0.0038    0.0000 N   0  0  0  0  0  0  0  0  0  0  0  0
    0.8675    0.4975    0.0000 C   0  0  0  0  0  0  0  0  0  0  0  0
    0.0000    0.0000    0.0000 C   0  0  0  0  0  0  0  0  0  0  0  0
   -0.8675    0.4975    0.0000 C   0  0  0  0  0  0  0  0  0  0  0  0
   -0.8675    1.5027    0.0000 C   0  0  0  0  0  0  0  0  0  0  0  0
    0.0000    2.0104    0.0000 N   0  0  0  0  0  0  0  0  0  0  0  0
    0.8675    1.5027    0.0000 C   0  0  0  0  0  0  0  0  0  0  0  0
    2.5966   -1.5050    0.0000 N   0  0  0  0  0  0  0  0  0  0  0  0
    2.5952   -2.5050    0.0000 C   0  0  0  0  0  0  0  0  0  0  0  0
    1.7225   -3.0038    0.0000 C   0  0  0  0  0  0  0  0  0  0  0  0
    1.7210   -4.0038    0.0000 C   0  0  0  0  0  0  0  0  0  0  0  0
    2.5833   -4.5101    0.0000 C   0  0  0  0  0  0  0  0  0  0  0  0
    3.4561   -4.0114    0.0000 C   0  0  0  0  0  0  0  0  0  0  0  0
    4.3184   -4.5177    0.0000 C   0  0  0  0  0  0  0  0  0  0  0  0
    5.1881   -4.0241    0.0000 C   0  0  0  0  0  0  0  0  0  0  0  0
    6.0504   -4.5305    0.0000 C   0  0  0  0  0  0  0  0  0  0  0  0
    6.6994   -3.7696    0.0000 C   0  0  0  0  0  0  0  0  0  0  0  0
    6.3649   -2.8272    0.0000 O   0  0  0  0  0  0  0  0  0  0  0  0
    5.7015   -5.4696    0.0000 C   0  0  0  0  0  0  0  0  0  0  0  0
    6.6876   -5.3036    0.0000 C   0  0  0  0  0  0  0  0  0  0  0  0
    3.4664   -3.0063    0.0000 C   0  0  0  0  0  0  0  0  0  0  0  0
  1  2  2  0  0  0  0
  2  3  1  0  0  0  0
  3  4  1  0  0  0  0
  4  9  2  0  0  0  0
  4  5  1  0  0  0  0
  5  6  2  0  0  0  0
  6  7  1  0  0  0  0
  7  8  2  0  0  0  0
  8  9  1  0  0  0  0
  2 10  1  0  0  0  0
 10 11  1  0  0  0  0
 11 23  2  0  0  0  0
 11 12  1  0  0  0  0
 12 13  2  0  0  0  0
 13 14  1  0  0  0  0
 14 15  2  0  0  0  0
 15 16  1  0  0  0  0
 16 17  1  0  0  0  0
 17 18  1  0  0  0  0
 18 22  1  0  0  0  0
 18 19  1  0  0  0  0
 19 20  1  0  0  0  0
 18 21  1  0  0  0  0
 21 22  1  0  0  0  0
 15 23  1  0  0  0  0
M  END
$$$$
BAR-COM-21d-5
  -OEChem-03232022352D

 24 26  0     0  0  0  0  0  0999 V2000
   -1.4766   -8.1392    0.0000 C   0  0  0  0  0  0  0  0  0  0  0  0
   -1.0722   -7.2246    0.0000 C   0  0  0  0  0  0  0  0  0  0  0  0
   -1.5744   -6.3580    0.0000 N   0  0  0  0  0  0  0  0  0  0  0  0
   -0.9073   -5.6110    0.0000 C   0  0  0  0  0  0  0  0  0  0  0  0
    0.0068   -6.0166    0.0000 C   0  0  0  0  0  0  0  0  0  0  0  0
    0.8706   -5.5127    0.0000 C   0  0  0  0  0  0  0  0  0  0  0  0
    0.8662   -4.5127    0.0000 C   0  0  0  0  0  0  0  0  0  0  0  0
    1.7299   -4.0089    0.0000 C   0  0  0  0  0  0  0  0  0  0  0  0
    2.6012   -4.5102    0.0000 C   0  0  0  0  0  0  0  0  0  0  0  0
    3.4651   -4.0063    0.0000 C   0  0  0  0  0  0  0  0  0  0  0  0
    3.4665   -3.0063    0.0000 C   0  0  0  0  0  0  0  0  0  0  0  0
    2.5952   -2.5050    0.0000 C   0  0  0  0  0  0  0  0  0  0  0  0
    2.5966   -1.5050    0.0000 N   0  0  0  0  0  0  0  0  0  0  0  0
    1.7313   -1.0038    0.0000 C   0  0  0  0  0  0  0  0  0  0  0  0
    0.8646   -1.5025    0.0000 O   0  0  0  0  0  0  0  0  0  0  0  0
    1.7328   -0.0038    0.0000 N   0  0  0  0  0  0  0  0  0  0  0  0
    0.8675    0.4975    0.0000 C   0  0  0  0  0  0  0  0  0  0  0  0
    0.0000    0.0000    0.0000 C   0  0  0  0  0  0  0  0  0  0  0  0
   -0.8675    0.4975    0.0000 C   0  0  0  0  0  0  0  0  0  0  0  0
   -0.8675    1.5027    0.0000 C   0  0  0  0  0  0  0  0  0  0  0  0
    0.0000    2.0104    0.0000 N   0  0  0  0  0  0  0  0  0  0  0  0
    0.8675    1.5027    0.0000 C   0  0  0  0  0  0  0  0  0  0  0  0
    1.7225   -3.0037    0.0000 C   0  0  0  0  0  0  0  0  0  0  0  0
   -0.0903   -7.0123    0.0000 N   0  0  0  0  0  0  0  0  0  0  0  0
  1  2  1  0  0  0  0
  2 24  1  0  0  0  0
  2  3  2  0  0  0  0
  3  4  1  0  0  0  0
  4  5  2  0  0  0  0
  5  6  1  0  0  0  0
  6  7  1  0  0  0  0
  7  8  1  0  0  0  0
  8 23  2  0  0  0  0
  8  9  1  0  0  0  0
  9 10  2  0  0  0  0
 10 11  1  0  0  0  0
 11 12  2  0  0  0  0
 12 13  1  0  0  0  0
 13 14  1  0  0  0  0
 14 15  2  0  0  0  0
 14 16  1  0  0  0  0
 16 17  1  0  0  0  0
 17 22  2  0  0  0  0
 17 18  1  0  0  0  0
 18 19  2  0  0  0  0
 19 20  1  0  0  0  0
 20 21  2  0  0  0  0
 21 22  1  0  0  0  0
 12 23  1  0  0  0  0
  5 24  1  0  0  0  0
M  END
$$$$
BAR-COM-21d-6
  -OEChem-03232022352D

 24 25  0     1  0  0  0  0  0999 V2000
   -1.7163   -8.0242    0.0000 C   0  0  0  0  0  0  0  0  0  0  0  0
   -0.8525   -7.5204    0.0000 C   0  0  0  0  0  0  0  0  0  0  0  0
   -0.8570   -6.5204    0.0000 C   0  0  0  0  0  0  0  0  0  0  0  0
    0.0068   -6.0166    0.0000 C   0  0  2  0  0  0  0  0  0  0  0  0
   -0.4970   -5.1528    0.0000 C   0  0  0  0  0  0  0  0  0  0  0  0
    0.5107   -6.8803    0.0000 O   0  0  0  0  0  0  0  0  0  0  0  0
    0.8706   -5.5127    0.0000 C   0  0  0  0  0  0  0  0  0  0  0  0
    0.8662   -4.5127    0.0000 C   0  0  0  0  0  0  0  0  0  0  0  0
    1.7299   -4.0089    0.0000 C   0  0  0  0  0  0  0  0  0  0  0  0
    2.6012   -4.5102    0.0000 C   0  0  0  0  0  0  0  0  0  0  0  0
    3.4651   -4.0063    0.0000 C   0  0  0  0  0  0  0  0  0  0  0  0
    3.4665   -3.0063    0.0000 C   0  0  0  0  0  0  0  0  0  0  0  0
    2.5952   -2.5050    0.0000 C   0  0  0  0  0  0  0  0  0  0  0  0
    2.5966   -1.5050    0.0000 N   0  0  0  0  0  0  0  0  0  0  0  0
    1.7313   -1.0038    0.0000 C   0  0  0  0  0  0  0  0  0  0  0  0
    0.8646   -1.5025    0.0000 O   0  0  0  0  0  0  0  0  0  0  0  0
    1.7328   -0.0038    0.0000 N   0  0  0  0  0  0  0  0  0  0  0  0
    0.8675    0.4975    0.0000 C   0  0  0  0  0  0  0  0  0  0  0  0
    0.0000    0.0000    0.0000 C   0  0  0  0  0  0  0  0  0  0  0  0
   -0.8675    0.4975    0.0000 C   0  0  0  0  0  0  0  0  0  0  0  0
   -0.8675    1.5027    0.0000 C   0  0  0  0  0  0  0  0  0  0  0  0
    0.0000    2.0104    0.0000 N   0  0  0  0  0  0  0  0  0  0  0  0
    0.8675    1.5027    0.0000 C   0  0  0  0  0  0  0  0  0  0  0  0
    1.7225   -3.0037    0.0000 C   0  0  0  0  0  0  0  0  0  0  0  0
  1  2  1  0  0  0  0
  2  3  1  0  0  0  0
  3  4  1  0  0  0  0
  4  5  1  0  0  0  0
  4  6  1  6  0  0  0
  4  7  1  0  0  0  0
  7  8  1  0  0  0  0
  8  9  1  0  0  0  0
  9 24  2  0  0  0  0
  9 10  1  0  0  0  0
 10 11  2  0  0  0  0
 11 12  1  0  0  0  0
 12 13  2  0  0  0  0
 13 14  1  0  0  0  0
 14 15  1  0  0  0  0
 15 16  2  0  0  0  0
 15 17  1  0  0  0  0
 17 18  1  0  0  0  0
 18 23  2  0  0  0  0
 18 19  1  0  0  0  0
 19 20  2  0  0  0  0
 20 21  1  0  0  0  0
 21 22  2  0  0  0  0
 22 23  1  0  0  0  0
 13 24  1  0  0  0  0
M  END
$$$$
BAR-COM-21d-7
  -OEChem-03232022352D

 24 26  0     0  0  0  0  0  0999 V2000
   -1.0009   -4.2890    0.0000 N   0  0  0  0  0  0  0  0  0  0  0  0
   -0.4970   -5.1528    0.0000 C   0  0  0  0  0  0  0  0  0  0  0  0
    0.0068   -6.0166    0.0000 C   0  0  0  0  0  0  0  0  0  0  0  0
    0.8706   -5.5127    0.0000 C   0  0  0  0  0  0  0  0  0  0  0  0
    0.8662   -4.5127    0.0000 C   0  0  0  0  0  0  0  0  0  0  0  0
    1.7299   -4.0089    0.0000 C   0  0  0  0  0  0  0  0  0  0  0  0
    2.6012   -4.5102    0.0000 C   0  0  0  0  0  0  0  0  0  0  0  0
    3.4651   -4.0063    0.0000 C   0  0  0  0  0  0  0  0  0  0  0  0
    3.4665   -3.0063    0.0000 C   0  0  0  0  0  0  0  0  0  0  0  0
    2.5952   -2.5050    0.0000 C   0  0  0  0  0  0  0  0  0  0  0  0
    2.5966   -1.5050    0.0000 N   0  0  0  0  0  0  0  0  0  0  0  0
    1.7313   -1.0038    0.0000 C   0  0  0  0  0  0  0  0  0  0  0  0
    0.8646   -1.5025    0.0000 O   0  0  0  0  0  0  0  0  0  0  0  0
    1.7328   -0.0038    0.0000 N   0  0  0  0  0  0  0  0  0  0  0  0
    0.8675    0.4975    0.0000 C   0  0  0  0  0  0  0  0  0  0  0  0
    0.0000    0.0000    0.0000 C   0  0  0  0  0  0  0  0  0  0  0  0
   -0.8675    0.4975    0.0000 C   0  0  0  0  0  0  0  0  0  0  0  0
   -0.8675    1.5027    0.0000 C   0  0  0  0  0  0  0  0  0  0  0  0
    0.0000    2.0104    0.0000 N   0  0  0  0  0  0  0  0  0  0  0  0
    0.8675    1.5027    0.0000 C   0  0  0  0  0  0  0  0  0  0  0  0
    1.7225   -3.0037    0.0000 C   0  0  0  0  0  0  0  0  0  0  0  0
   -0.8570   -6.5204    0.0000 C   0  0  0  0  0  0  0  0  0  0  0  0
   -0.3531   -7.3842    0.0000 C   0  0  0  0  0  0  0  0  0  0  0  0
    0.5107   -6.8803    0.0000 C   0  0  0  0  0  0  0  0  0  0  0  0
  1  2  3  0  0  0  0
  2  3  1  0  0  0  0
  3 24  1  0  0  0  0
  3  4  1  0  0  0  0
  4  5  1  0  0  0  0
  5  6  1  0  0  0  0
  6 21  2  0  0  0  0
  6  7  1  0  0  0  0
  7  8  2  0  0  0  0
  8  9  1  0  0  0  0
  9 10  2  0  0  0  0
 10 11  1  0  0  0  0
 11 12  1  0  0  0  0
 12 13  2  0  0  0  0
 12 14  1  0  0  0  0
 14 15  1  0  0  0  0
 15 20  2  0  0  0  0
 15 16  1  0  0  0  0
 16 17  2  0  0  0  0
 17 18  1  0  0  0  0
 18 19  2  0  0  0  0
 19 20  1  0  0  0  0
 10 21  1  0  0  0  0
  3 22  1  0  0  0  0
 22 23  1  0  0  0  0
 23 24  1  0  0  0  0
M  END
$$$$
BAR-COM-21d-8
  -OEChem-03232022352D

 23 24  0     0  0  0  0  0  0999 V2000
   -0.8614   -5.5204    0.0000 C   0  0  0  0  0  0  0  0  0  0  0  0
    0.0068   -6.0166    0.0000 N   0  0  0  0  0  0  0  0  0  0  0  0
    0.8706   -5.5127    0.0000 C   0  0  0  0  0  0  0  0  0  0  0  0
    0.8662   -4.5127    0.0000 C   0  0  0  0  0  0  0  0  0  0  0  0
    1.7299   -4.0089    0.0000 C   0  0  0  0  0  0  0  0  0  0  0  0
    2.6012   -4.5102    0.0000 C   0  0  0  0  0  0  0  0  0  0  0  0
    3.4651   -4.0063    0.0000 C   0  0  0  0  0  0  0  0  0  0  0  0
    3.4665   -3.0063    0.0000 C   0  0  0  0  0  0  0  0  0  0  0  0
    2.5952   -2.5050    0.0000 C   0  0  0  0  0  0  0  0  0  0  0  0
    2.5966   -1.5050    0.0000 N   0  0  0  0  0  0  0  0  0  0  0  0
    1.7313   -1.0038    0.0000 C   0  0  0  0  0  0  0  0  0  0  0  0
    0.8646   -1.5025    0.0000 O   0  0  0  0  0  0  0  0  0  0  0  0
    1.7328   -0.0038    0.0000 N   0  0  0  0  0  0  0  0  0  0  0  0
    0.8675    0.4975    0.0000 C   0  0  0  0  0  0  0  0  0  0  0  0
    0.0000    0.0000    0.0000 C   0  0  0  0  0  0  0  0  0  0  0  0
   -0.8675    0.4975    0.0000 C   0  0  0  0  0  0  0  0  0  0  0  0
   -0.8675    1.5027    0.0000 C   0  0  0  0  0  0  0  0  0  0  0  0
    0.0000    2.0104    0.0000 N   0  0  0  0  0  0  0  0  0  0  0  0
    0.8675    1.5027    0.0000 C   0  0  0  0  0  0  0  0  0  0  0  0
    1.7225   -3.0037    0.0000 C   0  0  0  0  0  0  0  0  0  0  0  0
    0.0113   -7.0165    0.0000 C   0  0  0  0  0  0  0  0  0  0  0  0
   -0.8525   -7.5204    0.0000 N   0  0  0  0  0  0  0  0  0  0  0  0
    0.8795   -7.5127    0.0000 O   0  0  0  0  0  0  0  0  0  0  0  0
  1  2  1  0  0  0  0
  2  3  1  0  0  0  0
  3  4  1  0  0  0  0
  4  5  1  0  0  0  0
  5 20  2  0  0  0  0
  5  6  1  0  0  0  0
  6  7  2  0  0  0  0
  7  8  1  0  0  0  0
  8  9  2  0  0  0  0
  9 10  1  0  0  0  0
 10 11  1  0  0  0  0
 11 12  2  0  0  0  0
 11 13  1  0  0  0  0
 13 14  1  0  0  0  0
 14 19  2  0  0  0  0
 14 15  1  0  0  0  0
 15 16  2  0  0  0  0
 16 17  1  0  0  0  0
 17 18  2  0  0  0  0
 18 19  1  0  0  0  0
  9 20  1  0  0  0  0
  2 21  1  0  0  0  0
 21 22  1  0  0  0  0
 21 23  2  0  0  0  0
M  END
$$$$
BAR-COM-21d-9
  -OEChem-03232022352D

 24 25  0     1  0  0  0  0  0999 V2000
   -1.7252   -6.0243    0.0000 N   0  0  0  0  0  0  0  0  0  0  0  0
   -0.8570   -6.5204    0.0000 C   0  0  0  0  0  0  0  0  0  0  0  0
   -0.8525   -7.5204    0.0000 O   0  0  0  0  0  0  0  0  0  0  0  0
    0.0068   -6.0166    0.0000 C   0  0  1  0  0  0  0  0  0  0  0  0
   -0.4970   -5.1528    0.0000 H   0  0  0  0  0  0  0  0  0  0  0  0
    0.5107   -6.8803    0.0000 F   0  0  0  0  0  0  0  0  0  0  0  0
    0.8706   -5.5127    0.0000 C   0  0  0  0  0  0  0  0  0  0  0  0
    0.8662   -4.5127    0.0000 C   0  0  0  0  0  0  0  0  0  0  0  0
    1.7299   -4.0089    0.0000 C   0  0  0  0  0  0  0  0  0  0  0  0
    2.6012   -4.5102    0.0000 C   0  0  0  0  0  0  0  0  0  0  0  0
    3.4651   -4.0063    0.0000 C   0  0  0  0  0  0  0  0  0  0  0  0
    3.4665   -3.0063    0.0000 C   0  0  0  0  0  0  0  0  0  0  0  0
    2.5952   -2.5050    0.0000 C   0  0  0  0  0  0  0  0  0  0  0  0
    2.5966   -1.5050    0.0000 N   0  0  0  0  0  0  0  0  0  0  0  0
    1.7313   -1.0038    0.0000 C   0  0  0  0  0  0  0  0  0  0  0  0
    0.8646   -1.5025    0.0000 O   0  0  0  0  0  0  0  0  0  0  0  0
    1.7328   -0.0038    0.0000 N   0  0  0  0  0  0  0  0  0  0  0  0
    0.8675    0.4975    0.0000 C   0  0  0  0  0  0  0  0  0  0  0  0
    0.0000    0.0000    0.0000 C   0  0  0  0  0  0  0  0  0  0  0  0
   -0.8675    0.4975    0.0000 C   0  0  0  0  0  0  0  0  0  0  0  0
   -0.8675    1.5027    0.0000 C   0  0  0  0  0  0  0  0  0  0  0  0
    0.0000    2.0104    0.0000 N   0  0  0  0  0  0  0  0  0  0  0  0
    0.8675    1.5027    0.0000 C   0  0  0  0  0  0  0  0  0  0  0  0
    1.7225   -3.0037    0.0000 C   0  0  0  0  0  0  0  0  0  0  0  0
  1  2  1  0  0  0  0
  2  3  2  0  0  0  0
  2  4  1  0  0  0  0
  4  5  1  1  0  0  0
  4  6  1  0  0  0  0
  4  7  1  0  0  0  0
  7  8  1  0  0  0  0
  8  9  1  0  0  0  0
  9 24  2  0  0  0  0
  9 10  1  0  0  0  0
 10 11  2  0  0  0  0
 11 12  1  0  0  0  0
 12 13  2  0  0  0  0
 13 14  1  0  0  0  0
 14 15  1  0  0  0  0
 15 16  2  0  0  0  0
 15 17  1  0  0  0  0
 17 18  1  0  0  0  0
 18 23  2  0  0  0  0
 18 19  1  0  0  0  0
 19 20  2  0  0  0  0
 20 21  1  0  0  0  0
 21 22  2  0  0  0  0
 22 23  1  0  0  0  0
 13 24  1  0  0  0  0
M  END
$$$$
TRY-UNI-1fd-1
  -OEChem-03232022352D

 22 23  0     0  0  0  0  0  0999 V2000
    2.6054    3.4976    0.0000 C   0  0  0  0  0  0  0  0  0  0  0  0
    1.7379    3.0001    0.0000 C   0  0  0  0  0  0  0  0  0  0  0  0
    1.7350    2.0001    0.0000 N   0  0  0  0  0  0  0  0  0  0  0  0
    0.8675    1.5027    0.0000 C   0  0  0  0  0  0  0  0  0  0  0  0
   -0.0000    2.0104    0.0000 N   0  0  0  0  0  0  0  0  0  0  0  0
   -0.8675    1.5027    0.0000 C   0  0  0  0  0  0  0  0  0  0  0  0
   -0.8675    0.4975    0.0000 C   0  0  0  0  0  0  0  0  0  0  0  0
   -1.7328   -0.0038    0.0000 C   0  0  0  0  0  0  0  0  0  0  0  0
   -2.5981   -0.5050    0.0000 N   0  0  0  0  0  0  0  0  0  0  0  0
    0.0000    0.0000    0.0000 C   0  0  0  0  0  0  0  0  0  0  0  0
    0.8675    0.4975    0.0000 C   0  0  0  0  0  0  0  0  0  0  0  0
    1.7328   -0.0038    0.0000 C   0  0  0  0  0  0  0  0  0  0  0  0
    2.5995    0.4950    0.0000 C   0  0  0  0  0  0  0  0  0  0  0  0
    2.6010    1.4950    0.0000 O   0  0  0  0  0  0  0  0  0  0  0  0
    3.4648   -0.0063    0.0000 N   0  0  0  0  0  0  0  0  0  0  0  0
    4.3316    0.4925    0.0000 C   0  0  0  0  0  0  0  0  0  0  0  0
    5.2021   -0.0101    0.0000 C   0  0  0  0  0  0  0  0  0  0  0  0
    6.0756    0.4873    0.0000 N   0  0  0  0  0  0  0  0  0  0  0  0
    6.0696    1.4924    0.0000 C   0  0  0  0  0  0  0  0  0  0  0  0
    5.1991    1.9950    0.0000 C   0  0  0  0  0  0  0  0  0  0  0  0
    4.3345    1.4925    0.0000 C   0  0  0  0  0  0  0  0  0  0  0  0
    3.4685    1.9925    0.0000 C   0  0  0  0  0  0  0  0  0  0  0  0
  1  2  1  0  0  0  0
  2  3  1  0  0  0  0
  3  4  1  0  0  0  0
  4 11  2  0  0  0  0
  4  5  1  0  0  0  0
  5  6  2  0  0  0  0
  6  7  1  0  0  0  0
  7  8  1  0  0  0  0
  8  9  3  0  0  0  0
  7 10  2  0  0  0  0
 10 11  1  0  0  0  0
 11 12  1  0  0  0  0
 12 13  1  0  0  0  0
 13 14  2  0  0  0  0
 13 15  1  0  0  0  0
 15 16  1  0  0  0  0
 16 21  2  0  0  0  0
 16 17  1  0  0  0  0
 17 18  2  0  0  0  0
 18 19  1  0  0  0  0
 19 20  2  0  0  0  0
 20 21  1  0  0  0  0
 21 22  1  0  0  0  0
M  END
$$$$
TRY-UNI-1fd-2
  -OEChem-03232022352D

 22 23  0     0  0  0  0  0  0999 V2000
    2.6054    3.4976    0.0000 C   0  0  0  0  0  0  0  0  0  0  0  0
    1.7379    3.0001    0.0000 C   0  0  0  0  0  0  0  0  0  0  0  0
    1.7350    2.0001    0.0000 N   0  0  0  0  0  0  0  0  0  0  0  0
    0.8675    1.5027    0.0000 C   0  0  0  0  0  0  0  0  0  0  0  0
   -0.0000    2.0104    0.0000 N   0  0  0  0  0  0  0  0  0  0  0  0
   -0.8675    1.5027    0.0000 C   0  0  0  0  0  0  0  0  0  0  0  0
   -0.8675    0.4975    0.0000 C   0  0  0  0  0  0  0  0  0  0  0  0
   -1.7328   -0.0038    0.0000 C   0  0  0  0  0  0  0  0  0  0  0  0
   -2.5981   -0.5050    0.0000 N   0  0  0  0  0  0  0  0  0  0  0  0
    0.0000    0.0000    0.0000 C   0  0  0  0  0  0  0  0  0  0  0  0
    0.8675    0.4975    0.0000 C   0  0  0  0  0  0  0  0  0  0  0  0
    1.7328   -0.0038    0.0000 N   0  0  0  0  0  0  0  0  0  0  0  0
    2.5995    0.4950    0.0000 C   0  0  0  0  0  0  0  0  0  0  0  0
    2.6010    1.4950    0.0000 O   0  0  0  0  0  0  0  0  0  0  0  0
    3.4648   -0.0063    0.0000 N   0  0  0  0  0  0  0  0  0  0  0  0
    4.3316    0.4925    0.0000 C   0  0  0  0  0  0  0  0  0  0  0  0
    5.2021   -0.0101    0.0000 C   0  0  0  0  0  0  0  0  0  0  0  0
    6.0756    0.4873    0.0000 N   0  0  0  0  0  0  0  0  0  0  0  0
    6.0696    1.4924    0.0000 C   0  0  0  0  0  0  0  0  0  0  0  0
    5.1991    1.9950    0.0000 C   0  0  0  0  0  0  0  0  0  0  0  0
    4.3345    1.4925    0.0000 C   0  0  0  0  0  0  0  0  0  0  0  0
    3.4685    1.9925    0.0000 C   0  0  0  0  0  0  0  0  0  0  0  0
  1  2  1  0  0  0  0
  2  3  1  0  0  0  0
  3  4  1  0  0  0  0
  4 11  2  0  0  0  0
  4  5  1  0  0  0  0
  5  6  2  0  0  0  0
  6  7  1  0  0  0  0
  7  8  1  0  0  0  0
  8  9  3  0  0  0  0
  7 10  2  0  0  0  0
 10 11  1  0  0  0  0
 11 12  1  0  0  0  0
 12 13  1  0  0  0  0
 13 14  2  0  0  0  0
 13 15  1  0  0  0  0
 15 16  1  0  0  0  0
 16 21  2  0  0  0  0
 16 17  1  0  0  0  0
 17 18  2  0  0  0  0
 18 19  1  0  0  0  0
 19 20  2  0  0  0  0
 20 21  1  0  0  0  0
 21 22  1  0  0  0  0
M  END
$$$$
TRY-UNI-1fd-3
  -OEChem-03232022352D

 26 27  0     0  0  0  0  0  0999 V2000
   -0.0000   -1.0000    0.0000 C   0  0  0  0  0  0  0  0  0  0  0  0
    0.0000    0.0000    0.0000 C   0  0  0  0  0  0  0  0  0  0  0  0
   -0.8675    0.4975    0.0000 C   0  0  0  0  0  0  0  0  0  0  0  0
   -0.8675    1.5027    0.0000 C   0  0  0  0  0  0  0  0  0  0  0  0
    0.0000    2.0104    0.0000 N   0  0  0  0  0  0  0  0  0  0  0  0
    0.8675    1.5027    0.0000 C   0  0  0  0  0  0  0  0  0  0  0  0
    0.8675    0.4975    0.0000 C   0  0  0  0  0  0  0  0  0  0  0  0
    1.7328   -0.0038    0.0000 N   0  0  0  0  0  0  0  0  0  0  0  0
    2.5995    0.4950    0.0000 C   0  0  0  0  0  0  0  0  0  0  0  0
    2.6010    1.4950    0.0000 O   0  0  0  0  0  0  0  0  0  0  0  0
    3.4648   -0.0063    0.0000 N   0  0  0  0  0  0  0  0  0  0  0  0
    4.3316    0.4925    0.0000 C   0  0  0  0  0  0  0  0  0  0  0  0
    4.3345    1.4925    0.0000 C   0  0  0  0  0  0  0  0  0  0  0  0
    5.1991    1.9950    0.0000 C   0  0  0  0  0  0  0  0  0  0  0  0
    5.1976    2.9950    0.0000 C   0  0  0  0  0  0  0  0  0  0  0  0
    5.1962    3.9950    0.0000 N   0  0  0  0  0  0  0  0  0  0  0  0
    6.0696    1.4924    0.0000 C   0  0  0  0  0  0  0  0  0  0  0  0
    6.0756    0.4873    0.0000 N   0  0  0  0  0  0  0  0  0  0  0  0
    5.2021   -0.0101    0.0000 C   0  0  0  0  0  0  0  0  0  0  0  0
    5.1992   -1.0101    0.0000 C   0  0  0  0  0  0  0  0  0  0  0  0
    6.0637   -1.5127    0.0000 C   0  0  0  0  0  0  0  0  0  0  0  0
    6.0608   -2.5127    0.0000 N   0  0  0  0  0  0  0  0  0  0  0  0
    6.9253   -3.0152    0.0000 S   0  0  0  0  0  0  0  0  0  0  0  0
    7.7899   -3.5178    0.0000 C   0  0  0  0  0  0  0  0  0  0  0  0
    7.4279   -2.1507    0.0000 O   0  0  0  0  0  0  0  0  0  0  0  0
    6.4228   -3.8798    0.0000 O   0  0  0  0  0  0  0  0  0  0  0  0
  1  2  1  0  0  0  0
  2  7  2  0  0  0  0
  2  3  1  0  0  0  0
  3  4  2  0  0  0  0
  4  5  1  0  0  0  0
  5  6  2  0  0  0  0
  6  7  1  0  0  0  0
  7  8  1  0  0  0  0
  8  9  1  0  0  0  0
  9 10  2  0  0  0  0
  9 11  1  0  0  0  0
 11 12  1  0  0  0  0
 12 19  2  0  0  0  0
 12 13  1  0  0  0  0
 13 14  2  0  0  0  0
 14 15  1  0  0  0  0
 15 16  3  0  0  0  0
 14 17  1  0  0  0  0
 17 18  2  0  0  0  0
 18 19  1  0  0  0  0
 19 20  1  0  0  0  0
 20 21  1  0  0  0  0
 21 22  1  0  0  0  0
 22 23  1  0  0  0  0
 23 24  1  0  0  0  0
 23 25  2  0  0  0  0
 23 26  2  0  0  0  0
M  END
$$$$
TRY-UNI-1fd-4
  -OEChem-03232022352D

 21 23  0     0  0  0  0  0  0999 V2000
   -0.7290    7.6946    0.0000 N   0  0  0  0  0  0  0  0  0  0  0  0
   -0.0587    6.9524    0.0000 S   0  0  0  0  0  0  0  0  0  0  0  0
    0.6834    7.6227    0.0000 O   0  0  0  0  0  0  0  0  0  0  0  0
   -0.8009    6.2822    0.0000 O   0  0  0  0  0  0  0  0  0  0  0  0
    0.6115    6.2103    0.0000 C   0  0  0  0  0  0  0  0  0  0  0  0
    1.5953    6.4195    0.0000 C   0  0  0  0  0  0  0  0  0  0  0  0
    2.2727    5.6761    0.0000 C   0  0  0  0  0  0  0  0  0  0  0  0
    1.9563    4.7214    0.0000 C   0  0  0  0  0  0  0  0  0  0  0  0
    2.4598    3.8492    0.0000 S   0  0  0  0  0  0  0  0  0  0  0  0
    1.7861    3.1008    0.0000 C   0  0  0  0  0  0  0  0  0  0  0  0
    0.8660    3.5104    0.0000 C   0  0  0  0  0  0  0  0  0  0  0  0
    0.0000    3.0104    0.0000 C   0  0  0  0  0  0  0  0  0  0  0  0
   -0.0000    2.0104    0.0000 N   0  0  0  0  0  0  0  0  0  0  0  0
   -0.8675    1.5027    0.0000 C   0  0  0  0  0  0  0  0  0  0  0  0
   -0.8675    0.4975    0.0000 C   0  0  0  0  0  0  0  0  0  0  0  0
    0.0000    0.0000    0.0000 C   0  0  0  0  0  0  0  0  0  0  0  0
    0.0000   -1.0000    0.0000 O   0  0  0  0  0  0  0  0  0  0  0  0
    0.8675    0.4975    0.0000 C   0  0  0  0  0  0  0  0  0  0  0  0
    0.8675    1.5027    0.0000 C   0  0  0  0  0  0  0  0  0  0  0  0
    0.9713    4.5120    0.0000 C   0  0  0  0  0  0  0  0  0  0  0  0
    0.3051    5.2577    0.0000 C   0  0  0  0  0  0  0  0  0  0  0  0
  1  2  1  0  0  0  0
  2  3  2  0  0  0  0
  2  4  2  0  0  0  0
  2  5  1  0  0  0  0
  5 21  2  0  0  0  0
  5  6  1  0  0  0  0
  6  7  2  0  0  0  0
  7  8  1  0  0  0  0
  8 20  2  0  0  0  0
  8  9  1  0  0  0  0
  9 10  1  0  0  0  0
 10 11  2  0  0  0  0
 11 12  1  0  0  0  0
 12 13  1  0  0  0  0
 13 19  1  0  0  0  0
 13 14  1  0  0  0  0
 14 15  1  0  0  0  0
 15 16  1  0  0  0  0
 16 17  1  0  0  0  0
 16 18  1  0  0  0  0
 18 19  1  0  0  0  0
 11 20  1  0  0  0  0
 20 21  1  0  0  0  0
M  END
$$$$
TRY-UNI-1fd-5
  -OEChem-03232022352D

 21 23  0     0  0  0  0  0  0999 V2000
    1.3638   -1.7932    0.0000 O   0  0  0  0  0  0  0  0  0  0  0  0
    2.3431   -1.9958    0.0000 C   0  0  0  0  0  0  0  0  0  0  0  0
    3.0082   -1.2491    0.0000 C   0  0  0  0  0  0  0  0  0  0  0  0
    2.6940   -0.2997    0.0000 C   0  0  0  0  0  0  0  0  0  0  0  0
    3.2780    0.5133    0.0000 C   0  0  0  0  0  0  0  0  0  0  0  0
    2.6851    1.3196    0.0000 N   0  0  0  0  0  0  0  0  0  0  0  0
    1.7350    1.0052    0.0000 C   0  0  0  0  0  0  0  0  0  0  0  0
    0.8675    1.5129    0.0000 N   0  0  0  0  0  0  0  0  0  0  0  0
    0.0000    1.0052    0.0000 C   0  0  0  0  0  0  0  0  0  0  0  0
    0.0000    0.0000    0.0000 C   0  0  0  0  0  0  0  0  0  0  0  0
    0.8675   -0.4975    0.0000 C   0  0  0  0  0  0  0  0  0  0  0  0
    1.7405    0.0044    0.0000 C   0  0  0  0  0  0  0  0  0  0  0  0
    2.6572   -2.9452    0.0000 N   0  0  0  0  0  0  0  0  0  0  0  0
    1.9921   -3.6920    0.0000 C   0  0  0  0  0  0  0  0  0  0  0  0
    2.3063   -4.6413    0.0000 C   0  0  0  0  0  0  0  0  0  0  0  0
    1.6355   -5.3900    0.0000 C   0  0  0  0  0  0  0  0  0  0  0  0
    1.9496   -6.3394    0.0000 C   0  0  0  0  0  0  0  0  0  0  0  0
    2.9277   -6.5477    0.0000 C   0  0  0  0  0  0  0  0  0  0  0  0
    3.5985   -5.7991    0.0000 C   0  0  0  0  0  0  0  0  0  0  0  0
    4.5765   -6.0075    0.0000 Cl  0  0  0  0  0  0  0  0  0  0  0  0
    3.2912   -4.8421    0.0000 C   0  0  0  0  0  0  0  0  0  0  0  0
  1  2  2  0  0  0  0
  2  3  1  0  0  0  0
  3  4  1  0  0  0  0
  4 12  1  0  0  0  0
  4  5  2  0  0  0  0
  5  6  1  0  0  0  0
  6  7  1  0  0  0  0
  7 12  2  0  0  0  0
  7  8  1  0  0  0  0
  8  9  2  0  0  0  0
  9 10  1  0  0  0  0
 10 11  2  0  0  0  0
 11 12  1  0  0  0  0
  2 13  1  0  0  0  0
 13 14  1  0  0  0  0
 14 15  1  0  0  0  0
 15 21  2  0  0  0  0
 15 16  1  0  0  0  0
 16 17  2  0  0  0  0
 17 18  1  0  0  0  0
 18 19  2  0  0  0  0
 19 20  1  0  0  0  0
 19 21  1  0  0  0  0
M  END
$$$$
TRY-UNI-1fd-6
  -OEChem-03232022352D

 22 24  0     0  0  0  0  0  0999 V2000
    3.9271   -6.7544    0.0000 N   0  0  0  0  0  0  0  0  0  0  0  0
    4.5878   -6.0038    0.0000 C   0  0  0  0  0  0  0  0  0  0  0  0
    5.2485   -5.2531    0.0000 C   0  0  0  0  0  0  0  0  0  0  0  0
    6.2334   -5.4538    0.0000 C   0  0  0  0  0  0  0  0  0  0  0  0
    6.8942   -4.7032    0.0000 C   0  0  0  0  0  0  0  0  0  0  0  0
    6.5799   -3.7538    0.0000 C   0  0  0  0  0  0  0  0  0  0  0  0
    5.5950   -3.5530    0.0000 C   0  0  0  0  0  0  0  0  0  0  0  0
    5.2808   -2.6037    0.0000 C   0  0  0  0  0  0  0  0  0  0  0  0
    4.3016   -2.4011    0.0000 N   0  0  0  0  0  0  0  0  0  0  0  0
    3.9874   -1.4517    0.0000 C   0  0  0  0  0  0  0  0  0  0  0  0
    4.6525   -0.7049    0.0000 O   0  0  0  0  0  0  0  0  0  0  0  0
    3.0082   -1.2491    0.0000 C   0  0  0  0  0  0  0  0  0  0  0  0
    2.6940   -0.2997    0.0000 C   0  0  0  0  0  0  0  0  0  0  0  0
    3.2780    0.5133    0.0000 C   0  0  0  0  0  0  0  0  0  0  0  0
    2.6851    1.3196    0.0000 N   0  0  0  0  0  0  0  0  0  0  0  0
    1.7350    1.0052    0.0000 C   0  0  0  0  0  0  0  0  0  0  0  0
    0.8675    1.5129    0.0000 N   0  0  0  0  0  0  0  0  0  0  0  0
    0.0000    1.0052    0.0000 C   0  0  0  0  0  0  0  0  0  0  0  0
    0.0000    0.0000    0.0000 C   0  0  0  0  0  0  0  0  0  0  0  0
    0.8675   -0.4975    0.0000 C   0  0  0  0  0  0  0  0  0  0  0  0
    1.7405    0.0044    0.0000 C   0  0  0  0  0  0  0  0  0  0  0  0
    4.9243   -4.3017    0.0000 C   0  0  0  0  0  0  0  0  0  0  0  0
  1  2  3  0  0  0  0
  2  3  1  0  0  0  0
  3 22  2  0  0  0  0
  3  4  1  0  0  0  0
  4  5  2  0  0  0  0
  5  6  1  0  0  0  0
  6  7  2  0  0  0  0
  7  8  1  0  0  0  0
  8  9  1  0  0  0  0
  9 10  1  0  0  0  0
 10 11  2  0  0  0  0
 10 12  1  0  0  0  0
 12 13  1  0  0  0  0
 13 21  1  0  0  0  0
 13 14  2  0  0  0  0
 14 15  1  0  0  0  0
 15 16  1  0  0  0  0
 16 21  2  0  0  0  0
 16 17  1  0  0  0  0
 17 18  2  0  0  0  0
 18 19  1  0  0  0  0
 19 20  2  0  0  0  0
 20 21  1  0  0  0  0
  7 22  1  0  0  0  0
M  END
$$$$
TRY-UNI-1fd-7
  -OEChem-03232022352D

 21 23  0     0  0  0  0  0  0999 V2000
    1.3638   -1.7932    0.0000 O   0  0  0  0  0  0  0  0  0  0  0  0
    2.3431   -1.9958    0.0000 C   0  0  0  0  0  0  0  0  0  0  0  0
    3.0082   -1.2491    0.0000 C   0  0  0  0  0  0  0  0  0  0  0  0
    2.6940   -0.2997    0.0000 C   0  0  0  0  0  0  0  0  0  0  0  0
    3.2780    0.5133    0.0000 C   0  0  0  0  0  0  0  0  0  0  0  0
    2.6851    1.3196    0.0000 N   0  0  0  0  0  0  0  0  0  0  0  0
    1.7350    1.0052    0.0000 C   0  0  0  0  0  0  0  0  0  0  0  0
    0.8675    1.5129    0.0000 N   0  0  0  0  0  0  0  0  0  0  0  0
    0.0000    1.0052    0.0000 C   0  0  0  0  0  0  0  0  0  0  0  0
    0.0000    0.0000    0.0000 C   0  0  0  0  0  0  0  0  0  0  0  0
    0.8675   -0.4975    0.0000 C   0  0  0  0  0  0  0  0  0  0  0  0
    1.7405    0.0044    0.0000 C   0  0  0  0  0  0  0  0  0  0  0  0
    2.6572   -2.9452    0.0000 N   0  0  0  0  0  0  0  0  0  0  0  0
    1.9921   -3.6920    0.0000 C   0  0  0  0  0  0  0  0  0  0  0  0
    2.3063   -4.6413    0.0000 C   0  0  0  0  0  0  0  0  0  0  0  0
    3.2912   -4.8421    0.0000 C   0  0  0  0  0  0  0  0  0  0  0  0
    3.6054   -5.7915    0.0000 C   0  0  0  0  0  0  0  0  0  0  0  0
    2.9447   -6.5421    0.0000 C   0  0  0  0  0  0  0  0  0  0  0  0
    3.2630   -7.4901    0.0000 Cl  0  0  0  0  0  0  0  0  0  0  0  0
    1.9598   -6.3414    0.0000 C   0  0  0  0  0  0  0  0  0  0  0  0
    1.6355   -5.3899    0.0000 C   0  0  0  0  0  0  0  0  0  0  0  0
  1  2  2  0  0  0  0
  2  3  1  0  0  0  0
  3  4  1  0  0  0  0
  4 12  1  0  0  0  0
  4  5  2  0  0  0  0
  5  6  1  0  0  0  0
  6  7  1  0  0  0  0
  7 12  2  0  0  0  0
  7  8  1  0  0  0  0
  8  9  2  0  0  0  0
  9 10  1  0  0  0  0
 10 11  2  0  0  0  0
 11 12  1  0  0  0  0
  2 13  1  0  0  0  0
 13 14  1  0  0  0  0
 14 15  1  0  0  0  0
 15 21  2  0  0  0  0
 15 16  1  0  0  0  0
 16 17  2  0  0  0  0
 17 18  1  0  0  0  0
 18 19  1  0  0  0  0
 18 20  2  0  0  0  0
 20 21  1  0  0  0  0
M  END
$$$$
TRY-UNI-1fd-8
  -OEChem-03232022352D

 22 24  0     0  0  0  0  0  0999 V2000
    6.8450   -7.3581    0.0000 N   0  0  0  0  0  0  0  0  0  0  0  0
    6.5350   -6.4074    0.0000 C   0  0  0  0  0  0  0  0  0  0  0  0
    6.2250   -5.4566    0.0000 C   0  0  0  0  0  0  0  0  0  0  0  0
    5.2410   -5.2515    0.0000 C   0  0  0  0  0  0  0  0  0  0  0  0
    4.9310   -4.3008    0.0000 C   0  0  0  0  0  0  0  0  0  0  0  0
    5.5950   -3.5530    0.0000 C   0  0  0  0  0  0  0  0  0  0  0  0
    5.2808   -2.6037    0.0000 C   0  0  0  0  0  0  0  0  0  0  0  0
    4.3016   -2.4011    0.0000 N   0  0  0  0  0  0  0  0  0  0  0  0
    3.9874   -1.4517    0.0000 C   0  0  0  0  0  0  0  0  0  0  0  0
    4.6525   -0.7049    0.0000 O   0  0  0  0  0  0  0  0  0  0  0  0
    3.0082   -1.2491    0.0000 C   0  0  0  0  0  0  0  0  0  0  0  0
    2.6940   -0.2997    0.0000 C   0  0  0  0  0  0  0  0  0  0  0  0
    3.2780    0.5133    0.0000 C   0  0  0  0  0  0  0  0  0  0  0  0
    2.6851    1.3196    0.0000 N   0  0  0  0  0  0  0  0  0  0  0  0
    1.7350    1.0052    0.0000 C   0  0  0  0  0  0  0  0  0  0  0  0
    0.8675    1.5129    0.0000 N   0  0  0  0  0  0  0  0  0  0  0  0
    0.0000    1.0052    0.0000 C   0  0  0  0  0  0  0  0  0  0  0  0
    0.0000    0.0000    0.0000 C   0  0  0  0  0  0  0  0  0  0  0  0
    0.8675   -0.4975    0.0000 C   0  0  0  0  0  0  0  0  0  0  0  0
    1.7405    0.0044    0.0000 C   0  0  0  0  0  0  0  0  0  0  0  0
    6.5790   -3.7581    0.0000 C   0  0  0  0  0  0  0  0  0  0  0  0
    6.8991   -4.7110    0.0000 C   0  0  0  0  0  0  0  0  0  0  0  0
  1  2  3  0  0  0  0
  2  3  1  0  0  0  0
  3 22  2  0  0  0  0
  3  4  1  0  0  0  0
  4  5  2  0  0  0  0
  5  6  1  0  0  0  0
  6  7  1  0  0  0  0
  7  8  1  0  0  0  0
  8  9  1  0  0  0  0
  9 10  2  0  0  0  0
  9 11  1  0  0  0  0
 11 12  1  0  0  0  0
 12 20  1  0  0  0  0
 12 13  2  0  0  0  0
 13 14  1  0  0  0  0
 14 15  1  0  0  0  0
 15 20  2  0  0  0  0
 15 16  1  0  0  0  0
 16 17  2  0  0  0  0
 17 18  1  0  0  0  0
 18 19  2  0  0  0  0
 19 20  1  0  0  0  0
  6 21  2  0  0  0  0
 21 22  1  0  0  0  0
M  END
$$$$
TRY-UNI-1fd-9
  -OEChem-03232022352D

 21 23  0     0  0  0  0  0  0999 V2000
    1.3638   -1.7932    0.0000 O   0  0  0  0  0  0  0  0  0  0  0  0
    2.3431   -1.9958    0.0000 C   0  0  0  0  0  0  0  0  0  0  0  0
    3.0082   -1.2491    0.0000 C   0  0  0  0  0  0  0  0  0  0  0  0
    2.6940   -0.2997    0.0000 C   0  0  0  0  0  0  0  0  0  0  0  0
    3.2780    0.5133    0.0000 C   0  0  0  0  0  0  0  0  0  0  0  0
    2.6851    1.3196    0.0000 N   0  0  0  0  0  0  0  0  0  0  0  0
    1.7350    1.0052    0.0000 C   0  0  0  0  0  0  0  0  0  0  0  0
    0.8675    1.5129    0.0000 N   0  0  0  0  0  0  0  0  0  0  0  0
    0.0000    1.0052    0.0000 C   0  0  0  0  0  0  0  0  0  0  0  0
    0.0000    0.0000    0.0000 C   0  0  0  0  0  0  0  0  0  0  0  0
    0.8675   -0.4975    0.0000 C   0  0  0  0  0  0  0  0  0  0  0  0
    1.7405    0.0044    0.0000 C   0  0  0  0  0  0  0  0  0  0  0  0
    2.6572   -2.9452    0.0000 N   0  0  0  0  0  0  0  0  0  0  0  0
    1.9921   -3.6920    0.0000 C   0  0  0  0  0  0  0  0  0  0  0  0
    2.3063   -4.6413    0.0000 C   0  0  0  0  0  0  0  0  0  0  0  0
    3.2912   -4.8421    0.0000 C   0  0  0  0  0  0  0  0  0  0  0  0
    3.6054   -5.7915    0.0000 C   0  0  0  0  0  0  0  0  0  0  0  0
    4.5853   -5.9912    0.0000 Cl  0  0  0  0  0  0  0  0  0  0  0  0
    2.9447   -6.5421    0.0000 C   0  0  0  0  0  0  0  0  0  0  0  0
    1.9598   -6.3414    0.0000 C   0  0  0  0  0  0  0  0  0  0  0  0
    1.6355   -5.3899    0.0000 N   0  0  0  0  0  0  0  0  0  0  0  0
  1  2  2  0  0  0  0
  2  3  1  0  0  0  0
  3  4  1  0  0  0  0
  4 12  1  0  0  0  0
  4  5  2  0  0  0  0
  5  6  1  0  0  0  0
  6  7  1  0  0  0  0
  7 12  2  0  0  0  0
  7  8  1  0  0  0  0
  8  9  2  0  0  0  0
  9 10  1  0  0  0  0
 10 11  2  0  0  0  0
 11 12  1  0  0  0  0
  2 13  1  0  0  0  0
 13 14  1  0  0  0  0
 14 15  1  0  0  0  0
 15 21  2  0  0  0  0
 15 16  1  0  0  0  0
 16 17  2  0  0  0  0
 17 18  1  0  0  0  0
 17 19  1  0  0  0  0
 19 20  2  0  0  0  0
 20 21  1  0  0  0  0
M  END
$$$$
TRY-UNI-1fd-10
  -OEChem-03232022352D

 22 24  0     0  0  0  0  0  0999 V2000
    8.8539   -5.1026    0.0000 N   0  0  0  0  0  0  0  0  0  0  0  0
    7.8740   -4.9029    0.0000 C   0  0  0  0  0  0  0  0  0  0  0  0
    6.8942   -4.7032    0.0000 C   0  0  0  0  0  0  0  0  0  0  0  0
    6.2334   -5.4538    0.0000 C   0  0  0  0  0  0  0  0  0  0  0  0
    5.2485   -5.2531    0.0000 C   0  0  0  0  0  0  0  0  0  0  0  0
    4.9243   -4.3017    0.0000 N   0  0  0  0  0  0  0  0  0  0  0  0
    5.5950   -3.5530    0.0000 C   0  0  0  0  0  0  0  0  0  0  0  0
    5.2808   -2.6037    0.0000 C   0  0  0  0  0  0  0  0  0  0  0  0
    4.3016   -2.4011    0.0000 N   0  0  0  0  0  0  0  0  0  0  0  0
    3.9874   -1.4517    0.0000 C   0  0  0  0  0  0  0  0  0  0  0  0
    4.6525   -0.7049    0.0000 O   0  0  0  0  0  0  0  0  0  0  0  0
    3.0082   -1.2491    0.0000 C   0  0  0  0  0  0  0  0  0  0  0  0
    2.6940   -0.2997    0.0000 C   0  0  0  0  0  0  0  0  0  0  0  0
    3.2780    0.5133    0.0000 C   0  0  0  0  0  0  0  0  0  0  0  0
    2.6851    1.3196    0.0000 N   0  0  0  0  0  0  0  0  0  0  0  0
    1.7350    1.0052    0.0000 C   0  0  0  0  0  0  0  0  0  0  0  0
    0.8675    1.5129    0.0000 N   0  0  0  0  0  0  0  0  0  0  0  0
    0.0000    1.0052    0.0000 C   0  0  0  0  0  0  0  0  0  0  0  0
    0.0000    0.0000    0.0000 C   0  0  0  0  0  0  0  0  0  0  0  0
    0.8675   -0.4975    0.0000 C   0  0  0  0  0  0  0  0  0  0  0  0
    1.7405    0.0044    0.0000 C   0  0  0  0  0  0  0  0  0  0  0  0
    6.5799   -3.7538    0.0000 C   0  0  0  0  0  0  0  0  0  0  0  0
  1  2  3  0  0  0  0
  2  3  1  0  0  0  0
  3 22  2  0  0  0  0
  3  4  1  0  0  0  0
  4  5  2  0  0  0  0
  5  6  1  0  0  0  0
  6  7  2  0  0  0  0
  7  8  1  0  0  0  0
  8  9  1  0  0  0  0
  9 10  1  0  0  0  0
 10 11  2  0  0  0  0
 10 12  1  0  0  0  0
 12 13  1  0  0  0  0
 13 21  1  0  0  0  0
 13 14  2  0  0  0  0
 14 15  1  0  0  0  0
 15 16  1  0  0  0  0
 16 21  2  0  0  0  0
 16 17  1  0  0  0  0
 17 18  2  0  0  0  0
 18 19  1  0  0  0  0
 19 20  2  0  0  0  0
 20 21  1  0  0  0  0
  7 22  1  0  0  0  0
M  END
$$$$
TRY-UNI-1fd-11
  -OEChem-03232022352D

 21 23  0     0  0  0  0  0  0999 V2000
    1.3638   -1.7932    0.0000 O   0  0  0  0  0  0  0  0  0  0  0  0
    2.3431   -1.9958    0.0000 C   0  0  0  0  0  0  0  0  0  0  0  0
    3.0082   -1.2491    0.0000 C   0  0  0  0  0  0  0  0  0  0  0  0
    2.6940   -0.2997    0.0000 C   0  0  0  0  0  0  0  0  0  0  0  0
    3.2780    0.5133    0.0000 C   0  0  0  0  0  0  0  0  0  0  0  0
    2.6851    1.3196    0.0000 N   0  0  0  0  0  0  0  0  0  0  0  0
    1.7350    1.0052    0.0000 C   0  0  0  0  0  0  0  0  0  0  0  0
    0.8675    1.5129    0.0000 N   0  0  0  0  0  0  0  0  0  0  0  0
    0.0000    1.0052    0.0000 C   0  0  0  0  0  0  0  0  0  0  0  0
    0.0000    0.0000    0.0000 C   0  0  0  0  0  0  0  0  0  0  0  0
    0.8675   -0.4975    0.0000 C   0  0  0  0  0  0  0  0  0  0  0  0
    1.7405    0.0044    0.0000 C   0  0  0  0  0  0  0  0  0  0  0  0
    2.6572   -2.9452    0.0000 N   0  0  0  0  0  0  0  0  0  0  0  0
    1.9921   -3.6920    0.0000 C   0  0  0  0  0  0  0  0  0  0  0  0
    2.3063   -4.6413    0.0000 C   0  0  0  0  0  0  0  0  0  0  0  0
    3.2912   -4.8421    0.0000 C   0  0  0  0  0  0  0  0  0  0  0  0
    3.6054   -5.7915    0.0000 C   0  0  0  0  0  0  0  0  0  0  0  0
    2.9447   -6.5421    0.0000 C   0  0  0  0  0  0  0  0  0  0  0  0
    3.2630   -7.4901    0.0000 Cl  0  0  0  0  0  0  0  0  0  0  0  0
    1.9598   -6.3414    0.0000 C   0  0  0  0  0  0  0  0  0  0  0  0
    1.6355   -5.3899    0.0000 N   0  0  0  0  0  0  0  0  0  0  0  0
  1  2  2  0  0  0  0
  2  3  1  0  0  0  0
  3  4  1  0  0  0  0
  4 12  1  0  0  0  0
  4  5  2  0  0  0  0
  5  6  1  0  0  0  0
  6  7  1  0  0  0  0
  7 12  2  0  0  0  0
  7  8  1  0  0  0  0
  8  9  2  0  0  0  0
  9 10  1  0  0  0  0
 10 11  2  0  0  0  0
 11 12  1  0  0  0  0
  2 13  1  0  0  0  0
 13 14  1  0  0  0  0
 14 15  1  0  0  0  0
 15 21  2  0  0  0  0
 15 16  1  0  0  0  0
 16 17  2  0  0  0  0
 17 18  1  0  0  0  0
 18 19  1  0  0  0  0
 18 20  2  0  0  0  0
 20 21  1  0  0  0  0
M  END
$$$$
TRY-UNI-1fd-12
  -OEChem-03232022352D

 22 24  0     0  0  0  0  0  0999 V2000
    6.8701   -7.3498    0.0000 N   0  0  0  0  0  0  0  0  0  0  0  0
    6.5518   -6.4018    0.0000 C   0  0  0  0  0  0  0  0  0  0  0  0
    6.2334   -5.4538    0.0000 C   0  0  0  0  0  0  0  0  0  0  0  0
    6.8942   -4.7032    0.0000 C   0  0  0  0  0  0  0  0  0  0  0  0
    6.5799   -3.7538    0.0000 C   0  0  0  0  0  0  0  0  0  0  0  0
    5.5950   -3.5530    0.0000 C   0  0  0  0  0  0  0  0  0  0  0  0
    5.2808   -2.6037    0.0000 C   0  0  0  0  0  0  0  0  0  0  0  0
    4.3016   -2.4011    0.0000 N   0  0  0  0  0  0  0  0  0  0  0  0
    3.9874   -1.4517    0.0000 C   0  0  0  0  0  0  0  0  0  0  0  0
    4.6525   -0.7049    0.0000 O   0  0  0  0  0  0  0  0  0  0  0  0
    3.0082   -1.2491    0.0000 C   0  0  0  0  0  0  0  0  0  0  0  0
    2.6940   -0.2997    0.0000 C   0  0  0  0  0  0  0  0  0  0  0  0
    3.2780    0.5133    0.0000 C   0  0  0  0  0  0  0  0  0  0  0  0
    2.6851    1.3196    0.0000 N   0  0  0  0  0  0  0  0  0  0  0  0
    1.7350    1.0052    0.0000 C   0  0  0  0  0  0  0  0  0  0  0  0
    0.8675    1.5129    0.0000 N   0  0  0  0  0  0  0  0  0  0  0  0
    0.0000    1.0052    0.0000 C   0  0  0  0  0  0  0  0  0  0  0  0
    0.0000    0.0000    0.0000 C   0  0  0  0  0  0  0  0  0  0  0  0
    0.8675   -0.4975    0.0000 C   0  0  0  0  0  0  0  0  0  0  0  0
    1.7405    0.0044    0.0000 C   0  0  0  0  0  0  0  0  0  0  0  0
    4.9243   -4.3017    0.0000 N   0  0  0  0  0  0  0  0  0  0  0  0
    5.2485   -5.2531    0.0000 C   0  0  0  0  0  0  0  0  0  0  0  0
  1  2  3  0  0  0  0
  2  3  1  0  0  0  0
  3 22  2  0  0  0  0
  3  4  1  0  0  0  0
  4  5  2  0  0  0  0
  5  6  1  0  0  0  0
  6  7  1  0  0  0  0
  7  8  1  0  0  0  0
  8  9  1  0  0  0  0
  9 10  2  0  0  0  0
  9 11  1  0  0  0  0
 11 12  1  0  0  0  0
 12 20  1  0  0  0  0
 12 13  2  0  0  0  0
 13 14  1  0  0  0  0
 14 15  1  0  0  0  0
 15 20  2  0  0  0  0
 15 16  1  0  0  0  0
 16 17  2  0  0  0  0
 17 18  1  0  0  0  0
 18 19  2  0  0  0  0
 19 20  1  0  0  0  0
  6 21  2  0  0  0  0
 21 22  1  0  0  0  0
M  END
$$$$
CHR-SOS-1f3-1
  -OEChem-03232022352D

 24 26  0     0  0  0  0  0  0999 V2000
   -0.0000   -1.0000    0.0000 C   0  0  0  0  0  0  0  0  0  0  0  0
    0.0000    0.0000    0.0000 C   0  0  0  0  0  0  0  0  0  0  0  0
   -0.8675    0.4975    0.0000 C   0  0  0  0  0  0  0  0  0  0  0  0
   -0.8675    1.5027    0.0000 C   0  0  0  0  0  0  0  0  0  0  0  0
    0.0000    2.0104    0.0000 N   0  0  0  0  0  0  0  0  0  0  0  0
    0.8675    1.5027    0.0000 C   0  0  0  0  0  0  0  0  0  0  0  0
    0.8675    0.4975    0.0000 C   0  0  0  0  0  0  0  0  0  0  0  0
    1.7328   -0.0038    0.0000 N   0  0  0  0  0  0  0  0  0  0  0  0
    2.5995    0.4950    0.0000 C   0  0  0  0  0  0  0  0  0  0  0  0
    3.4648   -0.0063    0.0000 O   0  0  0  0  0  0  0  0  0  0  0  0
    2.6010    1.4950    0.0000 N   0  0  0  0  0  0  0  0  0  0  0  0
    3.4678    1.9937    0.0000 C   0  0  0  0  0  0  0  0  0  0  0  0
    2.8246    2.7594    0.0000 O   0  0  0  0  0  0  0  0  0  0  0  0
    3.1661    3.6993    0.0000 C   0  0  0  0  0  0  0  0  0  0  0  0
    4.1565    3.8715    0.0000 C   0  0  0  0  0  0  0  0  0  0  0  0
    4.4980    4.8113    0.0000 C   0  0  0  0  0  0  0  0  0  0  0  0
    3.8593    5.5808    0.0000 C   0  0  0  0  0  0  0  0  0  0  0  0
    2.8690    5.4087    0.0000 C   0  0  0  0  0  0  0  0  0  0  0  0
    2.5173    4.4671    0.0000 C   0  0  0  0  0  0  0  0  0  0  0  0
    4.1120    2.7654    0.0000 C   0  0  0  0  0  0  0  0  0  0  0  0
    5.0967    2.5913    0.0000 C   0  0  0  0  0  0  0  0  0  0  0  0
    5.4438    1.6534    0.0000 C   0  0  0  0  0  0  0  0  0  0  0  0
    4.7996    0.8818    0.0000 C   0  0  0  0  0  0  0  0  0  0  0  0
    3.8083    1.0480    0.0000 C   0  0  0  0  0  0  0  0  0  0  0  0
  1  2  1  0  0  0  0
  2  7  2  0  0  0  0
  2  3  1  0  0  0  0
  3  4  2  0  0  0  0
  4  5  1  0  0  0  0
  5  6  2  0  0  0  0
  6  7  1  0  0  0  0
  7  8  1  0  0  0  0
  8  9  1  0  0  0  0
  9 10  2  0  0  0  0
  9 11  1  0  0  0  0
 11 12  1  0  0  0  0
 12 24  1  0  0  0  0
 12 13  1  0  0  0  0
 13 14  1  0  0  0  0
 14 19  2  0  0  0  0
 14 15  1  0  0  0  0
 15 16  2  0  0  0  0
 16 17  1  0  0  0  0
 17 18  2  0  0  0  0
 18 19  1  0  0  0  0
 12 20  1  0  0  0  0
 20 21  1  0  0  0  0
 21 22  1  0  0  0  0
 22 23  1  0  0  0  0
 23 24  1  0  0  0  0
M  END
$$$$
CHR-SOS-1f3-2
  -OEChem-03232022352D

 28 30  0     0  0  0  0  0  0999 V2000
   -0.0000   -1.0000    0.0000 C   0  0  0  0  0  0  0  0  0  0  0  0
    0.0000    0.0000    0.0000 C   0  0  0  0  0  0  0  0  0  0  0  0
   -0.8675    0.4975    0.0000 C   0  0  0  0  0  0  0  0  0  0  0  0
   -0.8675    1.5027    0.0000 C   0  0  0  0  0  0  0  0  0  0  0  0
    0.0000    2.0104    0.0000 N   0  0  0  0  0  0  0  0  0  0  0  0
    0.8675    1.5027    0.0000 C   0  0  0  0  0  0  0  0  0  0  0  0
    0.8675    0.4975    0.0000 C   0  0  0  0  0  0  0  0  0  0  0  0
    1.7328   -0.0038    0.0000 N   0  0  0  0  0  0  0  0  0  0  0  0
    2.5995    0.4950    0.0000 C   0  0  0  0  0  0  0  0  0  0  0  0
    2.6010    1.4950    0.0000 O   0  0  0  0  0  0  0  0  0  0  0  0
    3.4648   -0.0063    0.0000 N   0  0  0  0  0  0  0  0  0  0  0  0
    3.4634   -1.0063    0.0000 C   0  0  0  0  0  0  0  0  0  0  0  0
    4.4481   -0.8321    0.0000 O   0  0  0  0  0  0  0  0  0  0  0  0
    5.0913   -1.5978    0.0000 C   0  0  0  0  0  0  0  0  0  0  0  0
    6.0806   -1.4198    0.0000 C   0  0  0  0  0  0  0  0  0  0  0  0
    6.7239   -2.1856    0.0000 C   0  0  0  0  0  0  0  0  0  0  0  0
    6.3878   -3.1274    0.0000 C   0  0  0  0  0  0  0  0  0  0  0  0
    5.3985   -3.3054    0.0000 C   0  0  0  0  0  0  0  0  0  0  0  0
    5.0625   -4.2473    0.0000 S   0  0  0  0  0  0  0  0  0  0  0  0
    4.7265   -5.1891    0.0000 N   0  0  0  0  0  0  0  0  0  0  0  0
    4.1206   -3.9113    0.0000 O   0  0  0  0  0  0  0  0  0  0  0  0
    6.0044   -4.5833    0.0000 O   0  0  0  0  0  0  0  0  0  0  0  0
    4.7452   -2.5415    0.0000 C   0  0  0  0  0  0  0  0  0  0  0  0
    3.8095   -1.9500    0.0000 C   0  0  0  0  0  0  0  0  0  0  0  0
    3.1664   -2.7158    0.0000 C   0  0  0  0  0  0  0  0  0  0  0  0
    2.1807   -2.5474    0.0000 C   0  0  0  0  0  0  0  0  0  0  0  0
    1.8345   -1.6037    0.0000 C   0  0  0  0  0  0  0  0  0  0  0  0
    2.4741   -0.8283    0.0000 C   0  0  0  0  0  0  0  0  0  0  0  0
  1  2  1  0  0  0  0
  2  7  2  0  0  0  0
  2  3  1  0  0  0  0
  3  4  2  0  0  0  0
  4  5  1  0  0  0  0
  5  6  2  0  0  0  0
  6  7  1  0  0  0  0
  7  8  1  0  0  0  0
  8  9  1  0  0  0  0
  9 10  2  0  0  0  0
  9 11  1  0  0  0  0
 11 12  1  0  0  0  0
 12 28  1  0  0  0  0
 12 13  1  0  0  0  0
 13 14  1  0  0  0  0
 14 23  2  0  0  0  0
 14 15  1  0  0  0  0
 15 16  2  0  0  0  0
 16 17  1  0  0  0  0
 17 18  2  0  0  0  0
 18 19  1  0  0  0  0
 19 20  1  0  0  0  0
 19 21  2  0  0  0  0
 19 22  2  0  0  0  0
 18 23  1  0  0  0  0
 12 24  1  0  0  0  0
 24 25  1  0  0  0  0
 25 26  1  0  0  0  0
 26 27  1  0  0  0  0
 27 28  1  0  0  0  0
M  END
$$$$
CHR-SOS-1f3-3
  -OEChem-03232022352D

 28 30  0     0  0  0  0  0  0999 V2000
   -0.0000   -1.0000    0.0000 C   0  0  0  0  0  0  0  0  0  0  0  0
    0.0000    0.0000    0.0000 C   0  0  0  0  0  0  0  0  0  0  0  0
   -0.8675    0.4975    0.0000 C   0  0  0  0  0  0  0  0  0  0  0  0
   -0.8675    1.5027    0.0000 C   0  0  0  0  0  0  0  0  0  0  0  0
    0.0000    2.0104    0.0000 N   0  0  0  0  0  0  0  0  0  0  0  0
    0.8675    1.5027    0.0000 C   0  0  0  0  0  0  0  0  0  0  0  0
    0.8675    0.4975    0.0000 C   0  0  0  0  0  0  0  0  0  0  0  0
    1.7328   -0.0038    0.0000 N   0  0  0  0  0  0  0  0  0  0  0  0
    2.5995    0.4950    0.0000 C   0  0  0  0  0  0  0  0  0  0  0  0
    3.4648   -0.0063    0.0000 O   0  0  0  0  0  0  0  0  0  0  0  0
    2.6010    1.4950    0.0000 N   0  0  0  0  0  0  0  0  0  0  0  0
    3.4678    1.9937    0.0000 C   0  0  0  0  0  0  0  0  0  0  0  0
    2.8246    2.7594    0.0000 O   0  0  0  0  0  0  0  0  0  0  0  0
    3.1661    3.6993    0.0000 C   0  0  0  0  0  0  0  0  0  0  0  0
    4.1565    3.8715    0.0000 C   0  0  0  0  0  0  0  0  0  0  0  0
    4.4980    4.8113    0.0000 C   0  0  0  0  0  0  0  0  0  0  0  0
    3.8593    5.5808    0.0000 C   0  0  0  0  0  0  0  0  0  0  0  0
    4.2050    6.5192    0.0000 S   0  0  0  0  0  0  0  0  0  0  0  0
    4.5507    7.4575    0.0000 N   0  0  0  0  0  0  0  0  0  0  0  0
    5.1434    6.1735    0.0000 O   0  0  0  0  0  0  0  0  0  0  0  0
    3.2666    6.8648    0.0000 O   0  0  0  0  0  0  0  0  0  0  0  0
    2.8690    5.4087    0.0000 C   0  0  0  0  0  0  0  0  0  0  0  0
    2.5173    4.4671    0.0000 C   0  0  0  0  0  0  0  0  0  0  0  0
    4.1120    2.7654    0.0000 C   0  0  0  0  0  0  0  0  0  0  0  0
    5.0967    2.5913    0.0000 C   0  0  0  0  0  0  0  0  0  0  0  0
    5.4438    1.6534    0.0000 C   0  0  0  0  0  0  0  0  0  0  0  0
    4.7996    0.8818    0.0000 C   0  0  0  0  0  0  0  0  0  0  0  0
    3.8083    1.0480    0.0000 C   0  0  0  0  0  0  0  0  0  0  0  0
  1  2  1  0  0  0  0
  2  7  2  0  0  0  0
  2  3  1  0  0  0  0
  3  4  2  0  0  0  0
  4  5  1  0  0  0  0
  5  6  2  0  0  0  0
  6  7  1  0  0  0  0
  7  8  1  0  0  0  0
  8  9  1  0  0  0  0
  9 10  2  0  0  0  0
  9 11  1  0  0  0  0
 11 12  1  0  0  0  0
 12 28  1  0  0  0  0
 12 13  1  0  0  0  0
 13 14  1  0  0  0  0
 14 23  2  0  0  0  0
 14 15  1  0  0  0  0
 15 16  2  0  0  0  0
 16 17  1  0  0  0  0
 17 18  1  0  0  0  0
 18 19  1  0  0  0  0
 18 20  2  0  0  0  0
 18 21  2  0  0  0  0
 17 22  2  0  0  0  0
 22 23  1  0  0  0  0
 12 24  1  0  0  0  0
 24 25  1  0  0  0  0
 25 26  1  0  0  0  0
 26 27  1  0  0  0  0
 27 28  1  0  0  0  0
M  END
$$$$
CHR-SOS-1f3-4
  -OEChem-03232022352D

 23 25  0     0  0  0  0  0  0999 V2000
   -0.0000   -1.0000    0.0000 C   0  0  0  0  0  0  0  0  0  0  0  0
    0.0000    0.0000    0.0000 C   0  0  0  0  0  0  0  0  0  0  0  0
   -0.8675    0.4975    0.0000 C   0  0  0  0  0  0  0  0  0  0  0  0
   -0.8675    1.5027    0.0000 C   0  0  0  0  0  0  0  0  0  0  0  0
    0.0000    2.0104    0.0000 N   0  0  0  0  0  0  0  0  0  0  0  0
    0.8675    1.5027    0.0000 C   0  0  0  0  0  0  0  0  0  0  0  0
    0.8675    0.4975    0.0000 C   0  0  0  0  0  0  0  0  0  0  0  0
    1.7328   -0.0038    0.0000 N   0  0  0  0  0  0  0  0  0  0  0  0
    2.5995    0.4950    0.0000 C   0  0  0  0  0  0  0  0  0  0  0  0
    3.4648   -0.0063    0.0000 O   0  0  0  0  0  0  0  0  0  0  0  0
    2.6010    1.4950    0.0000 N   0  0  0  0  0  0  0  0  0  0  0  0
    3.4678    1.9937    0.0000 C   0  0  0  0  0  0  0  0  0  0  0  0
    2.8817    2.8040    0.0000 O   0  0  0  0  0  0  0  0  0  0  0  0
    3.2903    3.7167    0.0000 C   0  0  0  0  0  0  0  0  0  0  0  0
    4.2905    3.8167    0.0000 C   0  0  0  0  0  0  0  0  0  0  0  0
    4.6992    4.7294    0.0000 C   0  0  0  0  0  0  0  0  0  0  0  0
    4.1179    5.5431    0.0000 C   0  0  0  0  0  0  0  0  0  0  0  0
    3.1176    5.4431    0.0000 C   0  0  0  0  0  0  0  0  0  0  0  0
    2.6988    4.5293    0.0000 C   0  0  0  0  0  0  0  0  0  0  0  0
    4.2139    2.6619    0.0000 C   0  0  0  0  0  0  0  0  0  0  0  0
    5.0810    2.1608    0.0000 C   0  0  0  0  0  0  0  0  0  0  0  0
    4.8700    1.1833    0.0000 C   0  0  0  0  0  0  0  0  0  0  0  0
    3.8756    1.0758    0.0000 C   0  0  0  0  0  0  0  0  0  0  0  0
  1  2  1  0  0  0  0
  2  7  2  0  0  0  0
  2  3  1  0  0  0  0
  3  4  2  0  0  0  0
  4  5  1  0  0  0  0
  5  6  2  0  0  0  0
  6  7  1  0  0  0  0
  7  8  1  0  0  0  0
  8  9  1  0  0  0  0
  9 10  2  0  0  0  0
  9 11  1  0  0  0  0
 11 12  1  0  0  0  0
 12 23  1  0  0  0  0
 12 13  1  0  0  0  0
 13 14  1  0  0  0  0
 14 19  2  0  0  0  0
 14 15  1  0  0  0  0
 15 16  2  0  0  0  0
 16 17  1  0  0  0  0
 17 18  2  0  0  0  0
 18 19  1  0  0  0  0
 12 20  1  0  0  0  0
 20 21  1  0  0  0  0
 21 22  1  0  0  0  0
 22 23  1  0  0  0  0
M  END
$$$$
CHR-SOS-1f3-5
  -OEChem-03232022352D

 27 29  0     0  0  0  0  0  0999 V2000
   -0.0000   -1.0000    0.0000 C   0  0  0  0  0  0  0  0  0  0  0  0
    0.0000    0.0000    0.0000 C   0  0  0  0  0  0  0  0  0  0  0  0
   -0.8675    0.4975    0.0000 C   0  0  0  0  0  0  0  0  0  0  0  0
   -0.8675    1.5027    0.0000 C   0  0  0  0  0  0  0  0  0  0  0  0
    0.0000    2.0104    0.0000 N   0  0  0  0  0  0  0  0  0  0  0  0
    0.8675    1.5027    0.0000 C   0  0  0  0  0  0  0  0  0  0  0  0
    0.8675    0.4975    0.0000 C   0  0  0  0  0  0  0  0  0  0  0  0
    1.7328   -0.0038    0.0000 N   0  0  0  0  0  0  0  0  0  0  0  0
    2.5995    0.4950    0.0000 C   0  0  0  0  0  0  0  0  0  0  0  0
    2.6010    1.4950    0.0000 O   0  0  0  0  0  0  0  0  0  0  0  0
    3.4648   -0.0063    0.0000 N   0  0  0  0  0  0  0  0  0  0  0  0
    3.4634   -1.0063    0.0000 C   0  0  0  0  0  0  0  0  0  0  0  0
    4.4581   -0.9038    0.0000 O   0  0  0  0  0  0  0  0  0  0  0  0
    5.0442   -1.7141    0.0000 C   0  0  0  0  0  0  0  0  0  0  0  0
    6.0438   -1.6081    0.0000 C   0  0  0  0  0  0  0  0  0  0  0  0
    6.6300   -2.4184    0.0000 C   0  0  0  0  0  0  0  0  0  0  0  0
    6.2267   -3.3335    0.0000 C   0  0  0  0  0  0  0  0  0  0  0  0
    5.2271   -3.4394    0.0000 C   0  0  0  0  0  0  0  0  0  0  0  0
    4.8238   -4.3545    0.0000 S   0  0  0  0  0  0  0  0  0  0  0  0
    4.4206   -5.2696    0.0000 N   0  0  0  0  0  0  0  0  0  0  0  0
    3.9087   -3.9512    0.0000 O   0  0  0  0  0  0  0  0  0  0  0  0
    5.7389   -4.7577    0.0000 O   0  0  0  0  0  0  0  0  0  0  0  0
    4.6308   -2.6302    0.0000 C   0  0  0  0  0  0  0  0  0  0  0  0
    3.6690   -1.9866    0.0000 C   0  0  0  0  0  0  0  0  0  0  0  0
    2.8015   -2.4869    0.0000 C   0  0  0  0  0  0  0  0  0  0  0  0
    2.0604   -1.8154    0.0000 C   0  0  0  0  0  0  0  0  0  0  0  0
    2.4645   -0.9005    0.0000 C   0  0  0  0  0  0  0  0  0  0  0  0
  1  2  1  0  0  0  0
  2  7  2  0  0  0  0
  2  3  1  0  0  0  0
  3  4  2  0  0  0  0
  4  5  1  0  0  0  0
  5  6  2  0  0  0  0
  6  7  1  0  0  0  0
  7  8  1  0  0  0  0
  8  9  1  0  0  0  0
  9 10  2  0  0  0  0
  9 11  1  0  0  0  0
 11 12  1  0  0  0  0
 12 27  1  0  0  0  0
 12 13  1  0  0  0  0
 13 14  1  0  0  0  0
 14 23  2  0  0  0  0
 14 15  1  0  0  0  0
 15 16  2  0  0  0  0
 16 17  1  0  0  0  0
 17 18  2  0  0  0  0
 18 19  1  0  0  0  0
 19 20  1  0  0  0  0
 19 21  2  0  0  0  0
 19 22  2  0  0  0  0
 18 23  1  0  0  0  0
 12 24  1  0  0  0  0
 24 25  1  0  0  0  0
 25 26  1  0  0  0  0
 26 27  1  0  0  0  0
M  END
$$$$
CHR-SOS-1f3-6
  -OEChem-03232022352D

 27 29  0     0  0  0  0  0  0999 V2000
   -0.0000   -1.0000    0.0000 C   0  0  0  0  0  0  0  0  0  0  0  0
    0.0000    0.0000    0.0000 C   0  0  0  0  0  0  0  0  0  0  0  0
   -0.8675    0.4975    0.0000 C   0  0  0  0  0  0  0  0  0  0  0  0
   -0.8675    1.5027    0.0000 C   0  0  0  0  0  0  0  0  0  0  0  0
    0.0000    2.0104    0.0000 N   0  0  0  0  0  0  0  0  0  0  0  0
    0.8675    1.5027    0.0000 C   0  0  0  0  0  0  0  0  0  0  0  0
    0.8675    0.4975    0.0000 C   0  0  0  0  0  0  0  0  0  0  0  0
    1.7328   -0.0038    0.0000 N   0  0  0  0  0  0  0  0  0  0  0  0
    2.5995    0.4950    0.0000 C   0  0  0  0  0  0  0  0  0  0  0  0
    3.4648   -0.0063    0.0000 O   0  0  0  0  0  0  0  0  0  0  0  0
    2.6010    1.4950    0.0000 N   0  0  0  0  0  0  0  0  0  0  0  0
    3.4678    1.9937    0.0000 C   0  0  0  0  0  0  0  0  0  0  0  0
    2.8817    2.8040    0.0000 O   0  0  0  0  0  0  0  0  0  0  0  0
    3.2903    3.7167    0.0000 C   0  0  0  0  0  0  0  0  0  0  0  0
    4.2905    3.8167    0.0000 C   0  0  0  0  0  0  0  0  0  0  0  0
    4.6992    4.7294    0.0000 C   0  0  0  0  0  0  0  0  0  0  0  0
    4.1179    5.5431    0.0000 C   0  0  0  0  0  0  0  0  0  0  0  0
    4.5305    6.4540    0.0000 S   0  0  0  0  0  0  0  0  0  0  0  0
    4.9432    7.3649    0.0000 C   0  0  0  0  0  0  0  0  0  0  0  0
    5.4414    6.0413    0.0000 O   0  0  0  0  0  0  0  0  0  0  0  0
    3.6196    6.8666    0.0000 O   0  0  0  0  0  0  0  0  0  0  0  0
    3.1176    5.4431    0.0000 C   0  0  0  0  0  0  0  0  0  0  0  0
    2.6988    4.5293    0.0000 C   0  0  0  0  0  0  0  0  0  0  0  0
    4.2139    2.6619    0.0000 C   0  0  0  0  0  0  0  0  0  0  0  0
    5.0810    2.1608    0.0000 C   0  0  0  0  0  0  0  0  0  0  0  0
    4.8700    1.1833    0.0000 C   0  0  0  0  0  0  0  0  0  0  0  0
    3.8756    1.0758    0.0000 C   0  0  0  0  0  0  0  0  0  0  0  0
  1  2  1  0  0  0  0
  2  7  2  0  0  0  0
  2  3  1  0  0  0  0
  3  4  2  0  0  0  0
  4  5  1  0  0  0  0
  5  6  2  0  0  0  0
  6  7  1  0  0  0  0
  7  8  1  0  0  0  0
  8  9  1  0  0  0  0
  9 10  2  0  0  0  0
  9 11  1  0  0  0  0
 11 12  1  0  0  0  0
 12 27  1  0  0  0  0
 12 13  1  0  0  0  0
 13 14  1  0  0  0  0
 14 23  2  0  0  0  0
 14 15  1  0  0  0  0
 15 16  2  0  0  0  0
 16 17  1  0  0  0  0
 17 18  1  0  0  0  0
 18 19  1  0  0  0  0
 18 20  2  0  0  0  0
 18 21  2  0  0  0  0
 17 22  2  0  0  0  0
 22 23  1  0  0  0  0
 12 24  1  0  0  0  0
 24 25  1  0  0  0  0
 25 26  1  0  0  0  0
 26 27  1  0  0  0  0
M  END
$$$$
CHR-SOS-1f3-7
  -OEChem-03232022352D

 22 24  0     0  0  0  0  0  0999 V2000
   -0.0000   -1.0000    0.0000 C   0  0  0  0  0  0  0  0  0  0  0  0
    0.0000    0.0000    0.0000 C   0  0  0  0  0  0  0  0  0  0  0  0
   -0.8675    0.4975    0.0000 C   0  0  0  0  0  0  0  0  0  0  0  0
   -0.8675    1.5027    0.0000 C   0  0  0  0  0  0  0  0  0  0  0  0
    0.0000    2.0104    0.0000 N   0  0  0  0  0  0  0  0  0  0  0  0
    0.8675    1.5027    0.0000 C   0  0  0  0  0  0  0  0  0  0  0  0
    0.8675    0.4975    0.0000 C   0  0  0  0  0  0  0  0  0  0  0  0
    1.7328   -0.0038    0.0000 N   0  0  0  0  0  0  0  0  0  0  0  0
    2.5995    0.4950    0.0000 C   0  0  0  0  0  0  0  0  0  0  0  0
    3.4648   -0.0063    0.0000 O   0  0  0  0  0  0  0  0  0  0  0  0
    2.6010    1.4950    0.0000 N   0  0  0  0  0  0  0  0  0  0  0  0
    3.4678    1.9937    0.0000 C   0  0  0  0  0  0  0  0  0  0  0  0
    2.9690    2.8605    0.0000 O   0  0  0  0  0  0  0  0  0  0  0  0
    3.4703    3.7258    0.0000 C   0  0  0  0  0  0  0  0  0  0  0  0
    4.4755    3.7214    0.0000 C   0  0  0  0  0  0  0  0  0  0  0  0
    4.9768    4.5867    0.0000 C   0  0  0  0  0  0  0  0  0  0  0  0
    4.4831    5.4563    0.0000 C   0  0  0  0  0  0  0  0  0  0  0  0
    3.4779    5.4608    0.0000 C   0  0  0  0  0  0  0  0  0  0  0  0
    2.9664    4.5955    0.0000 C   0  0  0  0  0  0  0  0  0  0  0  0
    3.9665    1.1270    0.0000 C   0  0  0  0  0  0  0  0  0  0  0  0
    4.8332    1.6257    0.0000 C   0  0  0  0  0  0  0  0  0  0  0  0
    4.3345    2.4925    0.0000 C   0  0  0  0  0  0  0  0  0  0  0  0
  1  2  1  0  0  0  0
  2  7  2  0  0  0  0
  2  3  1  0  0  0  0
  3  4  2  0  0  0  0
  4  5  1  0  0  0  0
  5  6  2  0  0  0  0
  6  7  1  0  0  0  0
  7  8  1  0  0  0  0
  8  9  1  0  0  0  0
  9 10  2  0  0  0  0
  9 11  1  0  0  0  0
 11 12  1  0  0  0  0
 12 22  1  0  0  0  0
 12 13  1  0  0  0  0
 13 14  1  0  0  0  0
 14 19  2  0  0  0  0
 14 15  1  0  0  0  0
 15 16  2  0  0  0  0
 16 17  1  0  0  0  0
 17 18  2  0  0  0  0
 18 19  1  0  0  0  0
 12 20  1  0  0  0  0
 20 21  1  0  0  0  0
 21 22  1  0  0  0  0
M  END
$$$$
CHR-SOS-1f3-8
  -OEChem-03232022352D

 26 28  0     0  0  0  0  0  0999 V2000
   -0.0000   -1.0000    0.0000 C   0  0  0  0  0  0  0  0  0  0  0  0
    0.0000    0.0000    0.0000 C   0  0  0  0  0  0  0  0  0  0  0  0
   -0.8675    0.4975    0.0000 C   0  0  0  0  0  0  0  0  0  0  0  0
   -0.8675    1.5027    0.0000 C   0  0  0  0  0  0  0  0  0  0  0  0
    0.0000    2.0104    0.0000 N   0  0  0  0  0  0  0  0  0  0  0  0
    0.8675    1.5027    0.0000 C   0  0  0  0  0  0  0  0  0  0  0  0
    0.8675    0.4975    0.0000 C   0  0  0  0  0  0  0  0  0  0  0  0
    1.7328   -0.0038    0.0000 N   0  0  0  0  0  0  0  0  0  0  0  0
    2.5995    0.4950    0.0000 C   0  0  0  0  0  0  0  0  0  0  0  0
    2.6010    1.4950    0.0000 O   0  0  0  0  0  0  0  0  0  0  0  0
    3.4648   -0.0063    0.0000 N   0  0  0  0  0  0  0  0  0  0  0  0
    3.4634   -1.0063    0.0000 C   0  0  0  0  0  0  0  0  0  0  0  0
    4.4634   -1.0077    0.0000 O   0  0  0  0  0  0  0  0  0  0  0  0
    4.9647   -0.1424    0.0000 C   0  0  0  0  0  0  0  0  0  0  0  0
    5.9698   -0.1468    0.0000 C   0  0  0  0  0  0  0  0  0  0  0  0
    6.4712    0.7185    0.0000 C   0  0  0  0  0  0  0  0  0  0  0  0
    5.9775    1.5881    0.0000 C   0  0  0  0  0  0  0  0  0  0  0  0
    4.9723    1.5926    0.0000 C   0  0  0  0  0  0  0  0  0  0  0  0
    4.4787    2.4622    0.0000 S   0  0  0  0  0  0  0  0  0  0  0  0
    3.9850    3.3319    0.0000 N   0  0  0  0  0  0  0  0  0  0  0  0
    3.6090    1.9686    0.0000 O   0  0  0  0  0  0  0  0  0  0  0  0
    5.3483    2.9559    0.0000 O   0  0  0  0  0  0  0  0  0  0  0  0
    4.4608    0.7273    0.0000 C   0  0  0  0  0  0  0  0  0  0  0  0
    2.4634   -1.0048    0.0000 C   0  0  0  0  0  0  0  0  0  0  0  0
    2.4619   -2.0048    0.0000 C   0  0  0  0  0  0  0  0  0  0  0  0
    3.4619   -2.0063    0.0000 C   0  0  0  0  0  0  0  0  0  0  0  0
  1  2  1  0  0  0  0
  2  7  2  0  0  0  0
  2  3  1  0  0  0  0
  3  4  2  0  0  0  0
  4  5  1  0  0  0  0
  5  6  2  0  0  0  0
  6  7  1  0  0  0  0
  7  8  1  0  0  0  0
  8  9  1  0  0  0  0
  9 10  2  0  0  0  0
  9 11  1  0  0  0  0
 11 12  1  0  0  0  0
 12 26  1  0  0  0  0
 12 13  1  0  0  0  0
 13 14  1  0  0  0  0
 14 23  2  0  0  0  0
 14 15  1  0  0  0  0
 15 16  2  0  0  0  0
 16 17  1  0  0  0  0
 17 18  2  0  0  0  0
 18 19  1  0  0  0  0
 19 20  1  0  0  0  0
 19 21  2  0  0  0  0
 19 22  2  0  0  0  0
 18 23  1  0  0  0  0
 12 24  1  0  0  0  0
 24 25  1  0  0  0  0
 25 26  1  0  0  0  0
M  END
$$$$
CHR-SOS-1f3-9
  -OEChem-03232022352D

 26 28  0     0  0  0  0  0  0999 V2000
   -0.0000   -1.0000    0.0000 C   0  0  0  0  0  0  0  0  0  0  0  0
    0.0000    0.0000    0.0000 C   0  0  0  0  0  0  0  0  0  0  0  0
   -0.8675    0.4975    0.0000 C   0  0  0  0  0  0  0  0  0  0  0  0
   -0.8675    1.5027    0.0000 C   0  0  0  0  0  0  0  0  0  0  0  0
    0.0000    2.0104    0.0000 N   0  0  0  0  0  0  0  0  0  0  0  0
    0.8675    1.5027    0.0000 C   0  0  0  0  0  0  0  0  0  0  0  0
    0.8675    0.4975    0.0000 C   0  0  0  0  0  0  0  0  0  0  0  0
    1.7328   -0.0038    0.0000 N   0  0  0  0  0  0  0  0  0  0  0  0
    2.5995    0.4950    0.0000 C   0  0  0  0  0  0  0  0  0  0  0  0
    3.4648   -0.0063    0.0000 O   0  0  0  0  0  0  0  0  0  0  0  0
    2.6010    1.4950    0.0000 N   0  0  0  0  0  0  0  0  0  0  0  0
    3.4678    1.9937    0.0000 C   0  0  0  0  0  0  0  0  0  0  0  0
    2.9690    2.8605    0.0000 O   0  0  0  0  0  0  0  0  0  0  0  0
    3.4703    3.7258    0.0000 C   0  0  0  0  0  0  0  0  0  0  0  0
    4.4755    3.7214    0.0000 C   0  0  0  0  0  0  0  0  0  0  0  0
    4.9768    4.5867    0.0000 C   0  0  0  0  0  0  0  0  0  0  0  0
    4.4831    5.4563    0.0000 C   0  0  0  0  0  0  0  0  0  0  0  0
    4.9882    6.3194    0.0000 S   0  0  0  0  0  0  0  0  0  0  0  0
    5.4932    7.1825    0.0000 N   0  0  0  0  0  0  0  0  0  0  0  0
    5.8512    5.8144    0.0000 O   0  0  0  0  0  0  0  0  0  0  0  0
    4.1251    6.8245    0.0000 O   0  0  0  0  0  0  0  0  0  0  0  0
    3.4779    5.4608    0.0000 C   0  0  0  0  0  0  0  0  0  0  0  0
    2.9664    4.5955    0.0000 C   0  0  0  0  0  0  0  0  0  0  0  0
    3.9665    1.1270    0.0000 C   0  0  0  0  0  0  0  0  0  0  0  0
    4.8332    1.6257    0.0000 C   0  0  0  0  0  0  0  0  0  0  0  0
    4.3345    2.4925    0.0000 C   0  0  0  0  0  0  0  0  0  0  0  0
  1  2  1  0  0  0  0
  2  7  2  0  0  0  0
  2  3  1  0  0  0  0
  3  4  2  0  0  0  0
  4  5  1  0  0  0  0
  5  6  2  0  0  0  0
  6  7  1  0  0  0  0
  7  8  1  0  0  0  0
  8  9  1  0  0  0  0
  9 10  2  0  0  0  0
  9 11  1  0  0  0  0
 11 12  1  0  0  0  0
 12 26  1  0  0  0  0
 12 13  1  0  0  0  0
 13 14  1  0  0  0  0
 14 23  2  0  0  0  0
 14 15  1  0  0  0  0
 15 16  2  0  0  0  0
 16 17  1  0  0  0  0
 17 18  1  0  0  0  0
 18 19  1  0  0  0  0
 18 20  2  0  0  0  0
 18 21  2  0  0  0  0
 17 22  2  0  0  0  0
 22 23  1  0  0  0  0
 12 24  1  0  0  0  0
 24 25  1  0  0  0  0
 25 26  1  0  0  0  0
M  END
$$$$
CHR-SOS-1f3-10
  -OEChem-03232022352D

 21 23  0     0  0  0  0  0  0999 V2000
   -0.0000   -1.0000    0.0000 C   0  0  0  0  0  0  0  0  0  0  0  0
    0.0000    0.0000    0.0000 C   0  0  0  0  0  0  0  0  0  0  0  0
   -0.8675    0.4975    0.0000 C   0  0  0  0  0  0  0  0  0  0  0  0
   -0.8675    1.5027    0.0000 C   0  0  0  0  0  0  0  0  0  0  0  0
    0.0000    2.0104    0.0000 N   0  0  0  0  0  0  0  0  0  0  0  0
    0.8675    1.5027    0.0000 C   0  0  0  0  0  0  0  0  0  0  0  0
    0.8675    0.4975    0.0000 C   0  0  0  0  0  0  0  0  0  0  0  0
    1.7328   -0.0038    0.0000 N   0  0  0  0  0  0  0  0  0  0  0  0
    2.5995    0.4950    0.0000 C   0  0  0  0  0  0  0  0  0  0  0  0
    3.4648   -0.0063    0.0000 O   0  0  0  0  0  0  0  0  0  0  0  0
    2.6010    1.4950    0.0000 N   0  0  0  0  0  0  0  0  0  0  0  0
    3.4678    1.9937    0.0000 C   0  0  0  0  0  0  0  0  0  0  0  0
    3.1278    2.9342    0.0000 O   0  0  0  0  0  0  0  0  0  0  0  0
    3.7722    3.6988    0.0000 C   0  0  0  0  0  0  0  0  0  0  0  0
    4.7612    3.5192    0.0000 C   0  0  0  0  0  0  0  0  0  0  0  0
    5.4058    4.2838    0.0000 C   0  0  0  0  0  0  0  0  0  0  0  0
    5.0713    5.2263    0.0000 C   0  0  0  0  0  0  0  0  0  0  0  0
    4.0823    5.4059    0.0000 C   0  0  0  0  0  0  0  0  0  0  0  0
    3.4277    4.6431    0.0000 C   0  0  0  0  0  0  0  0  0  0  0  0
    4.1112    1.2258    0.0000 C   0  0  0  0  0  0  0  0  0  0  0  0
    4.4549    2.1648    0.0000 C   0  0  0  0  0  0  0  0  0  0  0  0
  1  2  1  0  0  0  0
  2  7  2  0  0  0  0
  2  3  1  0  0  0  0
  3  4  2  0  0  0  0
  4  5  1  0  0  0  0
  5  6  2  0  0  0  0
  6  7  1  0  0  0  0
  7  8  1  0  0  0  0
  8  9  1  0  0  0  0
  9 10  2  0  0  0  0
  9 11  1  0  0  0  0
 11 12  1  0  0  0  0
 12 21  1  0  0  0  0
 12 13  1  0  0  0  0
 13 14  1  0  0  0  0
 14 19  2  0  0  0  0
 14 15  1  0  0  0  0
 15 16  2  0  0  0  0
 16 17  1  0  0  0  0
 17 18  2  0  0  0  0
 18 19  1  0  0  0  0
 12 20  1  0  0  0  0
 20 21  1  0  0  0  0
M  END
$$$$
CHR-SOS-1f3-11
  -OEChem-03232022352D

 25 27  0     0  0  0  0  0  0999 V2000
   -0.0000   -1.0000    0.0000 C   0  0  0  0  0  0  0  0  0  0  0  0
    0.0000    0.0000    0.0000 C   0  0  0  0  0  0  0  0  0  0  0  0
   -0.8675    0.4975    0.0000 C   0  0  0  0  0  0  0  0  0  0  0  0
   -0.8675    1.5027    0.0000 C   0  0  0  0  0  0  0  0  0  0  0  0
    0.0000    2.0104    0.0000 N   0  0  0  0  0  0  0  0  0  0  0  0
    0.8675    1.5027    0.0000 C   0  0  0  0  0  0  0  0  0  0  0  0
    0.8675    0.4975    0.0000 C   0  0  0  0  0  0  0  0  0  0  0  0
    1.7328   -0.0038    0.0000 N   0  0  0  0  0  0  0  0  0  0  0  0
    2.5995    0.4950    0.0000 C   0  0  0  0  0  0  0  0  0  0  0  0
    3.4648   -0.0063    0.0000 O   0  0  0  0  0  0  0  0  0  0  0  0
    2.6010    1.4950    0.0000 N   0  0  0  0  0  0  0  0  0  0  0  0
    3.4678    1.9937    0.0000 C   0  0  0  0  0  0  0  0  0  0  0  0
    3.1278    2.9342    0.0000 O   0  0  0  0  0  0  0  0  0  0  0  0
    3.7722    3.6988    0.0000 C   0  0  0  0  0  0  0  0  0  0  0  0
    3.4277    4.6431    0.0000 C   0  0  0  0  0  0  0  0  0  0  0  0
    4.0721    5.4078    0.0000 C   0  0  0  0  0  0  0  0  0  0  0  0
    5.0576    5.2378    0.0000 C   0  0  0  0  0  0  0  0  0  0  0  0
    5.4021    4.2935    0.0000 C   0  0  0  0  0  0  0  0  0  0  0  0
    6.3876    4.1235    0.0000 S   0  0  0  0  0  0  0  0  0  0  0  0
    7.3730    3.9535    0.0000 N   0  0  0  0  0  0  0  0  0  0  0  0
    6.2176    3.1381    0.0000 O   0  0  0  0  0  0  0  0  0  0  0  0
    6.5576    5.1089    0.0000 O   0  0  0  0  0  0  0  0  0  0  0  0
    4.7612    3.5192    0.0000 C   0  0  0  0  0  0  0  0  0  0  0  0
    4.1112    1.2258    0.0000 C   0  0  0  0  0  0  0  0  0  0  0  0
    4.4549    2.1648    0.0000 C   0  0  0  0  0  0  0  0  0  0  0  0
  1  2  1  0  0  0  0
  2  7  2  0  0  0  0
  2  3  1  0  0  0  0
  3  4  2  0  0  0  0
  4  5  1  0  0  0  0
  5  6  2  0  0  0  0
  6  7  1  0  0  0  0
  7  8  1  0  0  0  0
  8  9  1  0  0  0  0
  9 10  2  0  0  0  0
  9 11  1  0  0  0  0
 11 12  1  0  0  0  0
 12 25  1  0  0  0  0
 12 13  1  0  0  0  0
 13 14  1  0  0  0  0
 14 23  2  0  0  0  0
 14 15  1  0  0  0  0
 15 16  2  0  0  0  0
 16 17  1  0  0  0  0
 17 18  2  0  0  0  0
 18 19  1  0  0  0  0
 19 20  1  0  0  0  0
 19 21  2  0  0  0  0
 19 22  2  0  0  0  0
 18 23  1  0  0  0  0
 12 24  1  0  0  0  0
 24 25  1  0  0  0  0
M  END
$$$$
CHR-SOS-1f3-12
  -OEChem-03232022352D

 25 27  0     0  0  0  0  0  0999 V2000
   -0.0000   -1.0000    0.0000 C   0  0  0  0  0  0  0  0  0  0  0  0
    0.0000    0.0000    0.0000 C   0  0  0  0  0  0  0  0  0  0  0  0
   -0.8675    0.4975    0.0000 C   0  0  0  0  0  0  0  0  0  0  0  0
   -0.8675    1.5027    0.0000 C   0  0  0  0  0  0  0  0  0  0  0  0
    0.0000    2.0104    0.0000 N   0  0  0  0  0  0  0  0  0  0  0  0
    0.8675    1.5027    0.0000 C   0  0  0  0  0  0  0  0  0  0  0  0
    0.8675    0.4975    0.0000 C   0  0  0  0  0  0  0  0  0  0  0  0
    1.7328   -0.0038    0.0000 N   0  0  0  0  0  0  0  0  0  0  0  0
    2.5995    0.4950    0.0000 C   0  0  0  0  0  0  0  0  0  0  0  0
    3.4648   -0.0063    0.0000 O   0  0  0  0  0  0  0  0  0  0  0  0
    2.6010    1.4950    0.0000 N   0  0  0  0  0  0  0  0  0  0  0  0
    3.4678    1.9937    0.0000 C   0  0  0  0  0  0  0  0  0  0  0  0
    3.1278    2.9342    0.0000 O   0  0  0  0  0  0  0  0  0  0  0  0
    3.7722    3.6988    0.0000 C   0  0  0  0  0  0  0  0  0  0  0  0
    4.7612    3.5192    0.0000 C   0  0  0  0  0  0  0  0  0  0  0  0
    5.4058    4.2838    0.0000 C   0  0  0  0  0  0  0  0  0  0  0  0
    5.0713    5.2263    0.0000 C   0  0  0  0  0  0  0  0  0  0  0  0
    5.7191    5.9881    0.0000 S   0  0  0  0  0  0  0  0  0  0  0  0
    6.3669    6.7499    0.0000 N   0  0  0  0  0  0  0  0  0  0  0  0
    6.4809    5.3403    0.0000 O   0  0  0  0  0  0  0  0  0  0  0  0
    4.9573    6.6359    0.0000 O   0  0  0  0  0  0  0  0  0  0  0  0
    4.0823    5.4059    0.0000 C   0  0  0  0  0  0  0  0  0  0  0  0
    3.4277    4.6431    0.0000 C   0  0  0  0  0  0  0  0  0  0  0  0
    4.1112    1.2258    0.0000 C   0  0  0  0  0  0  0  0  0  0  0  0
    4.4549    2.1648    0.0000 C   0  0  0  0  0  0  0  0  0  0  0  0
  1  2  1  0  0  0  0
  2  7  2  0  0  0  0
  2  3  1  0  0  0  0
  3  4  2  0  0  0  0
  4  5  1  0  0  0  0
  5  6  2  0  0  0  0
  6  7  1  0  0  0  0
  7  8  1  0  0  0  0
  8  9  1  0  0  0  0
  9 10  2  0  0  0  0
  9 11  1  0  0  0  0
 11 12  1  0  0  0  0
 12 25  1  0  0  0  0
 12 13  1  0  0  0  0
 13 14  1  0  0  0  0
 14 23  2  0  0  0  0
 14 15  1  0  0  0  0
 15 16  2  0  0  0  0
 16 17  1  0  0  0  0
 17 18  1  0  0  0  0
 18 19  1  0  0  0  0
 18 20  2  0  0  0  0
 18 21  2  0  0  0  0
 17 22  2  0  0  0  0
 22 23  1  0  0  0  0
 12 24  1  0  0  0  0
 24 25  1  0  0  0  0
M  END
$$$$
SAL-INS-1ea-1
  -OEChem-03232022352D

 29 31  0     1  0  0  0  0  0999 V2000
    0.0015    3.0129    0.0000 O   0  0  0  0  0  0  0  0  0  0  0  0
    0.8675    2.5129    0.0000 C   0  0  0  0  0  0  0  0  0  0  0  0
    1.7335    3.0129    0.0000 C   0  0  0  0  0  0  0  0  0  0  0  0
    1.7335    4.0129    0.0000 Cl  0  0  0  0  0  0  0  0  0  0  0  0
    0.8675    1.5129    0.0000 N   0  0  0  0  0  0  0  0  0  0  0  0
    0.0000    1.0052    0.0000 C   0  0  0  0  0  0  0  0  0  0  0  0
    0.0000    0.0000    0.0000 C   0  0  0  0  0  0  0  0  0  0  0  0
    0.8675   -0.4975    0.0000 N   0  0  3  0  0  0  0  0  0  0  0  0
    0.8675   -1.4975    0.0000 S   0  0  0  0  0  0  0  0  0  0  0  0
    1.8675   -1.4975    0.0000 O   0  0  0  0  0  0  0  0  0  0  0  0
   -0.1325   -1.4975    0.0000 O   0  0  0  0  0  0  0  0  0  0  0  0
    0.8675   -2.4975    0.0000 C   0  0  0  0  0  0  0  0  0  0  0  0
    1.7395   -2.9975    0.0000 C   0  0  0  0  0  0  0  0  0  0  0  0
    1.7396   -3.9976    0.0000 C   0  0  0  0  0  0  0  0  0  0  0  0
    0.8764   -4.5026    0.0000 C   0  0  0  0  0  0  0  0  0  0  0  0
    0.8808   -5.5026    0.0000 Cl  0  0  0  0  0  0  0  0  0  0  0  0
    0.0044   -4.0026    0.0000 C   0  0  0  0  0  0  0  0  0  0  0  0
   -0.0045   -2.9975    0.0000 C   0  0  0  0  0  0  0  0  0  0  0  0
    1.7350    0.0000    0.0000 C   0  0  0  0  0  0  0  0  0  0  0  0
    1.7350    1.0052    0.0000 C   0  0  2  0  0  0  0  0  0  0  0  0
    2.0807    1.9435    0.0000 H   0  0  0  0  0  0  0  0  0  0  0  0
    2.7195    0.8296    0.0000 O   0  0  0  0  0  0  0  0  0  0  0  0
    3.3638    1.5944    0.0000 C   0  0  0  0  0  0  0  0  0  0  0  0
    3.0190    2.5386    0.0000 C   0  0  0  0  0  0  0  0  0  0  0  0
    3.6633    3.3035    0.0000 C   0  0  0  0  0  0  0  0  0  0  0  0
    4.6488    3.1336    0.0000 C   0  0  0  0  0  0  0  0  0  0  0  0
    5.2897    3.9012    0.0000 F   0  0  0  0  0  0  0  0  0  0  0  0
    4.9935    2.1894    0.0000 C   0  0  0  0  0  0  0  0  0  0  0  0
    4.3528    1.4150    0.0000 C   0  0  0  0  0  0  0  0  0  0  0  0
  1  2  2  0  0  0  0
  2  3  1  0  0  0  0
  3  4  1  0  0  0  0
  2  5  1  0  0  0  0
  5 20  1  0  0  0  0
  5  6  1  0  0  0  0
  6  7  1  0  0  0  0
  7  8  1  0  0  0  0
  8  9  1  0  0  0  0
  9 10  2  0  0  0  0
  9 11  2  0  0  0  0
  9 12  1  0  0  0  0
 12 18  2  0  0  0  0
 12 13  1  0  0  0  0
 13 14  2  0  0  0  0
 14 15  1  0  0  0  0
 15 16  1  0  0  0  0
 15 17  2  0  0  0  0
 17 18  1  0  0  0  0
  8 19  1  0  0  0  0
 19 20  1  0  0  0  0
 20 21  1  6  0  0  0
 20 22  1  0  0  0  0
 22 23  1  0  0  0  0
 23 29  2  0  0  0  0
 23 24  1  0  0  0  0
 24 25  2  0  0  0  0
 25 26  1  0  0  0  0
 26 27  1  0  0  0  0
 26 28  2  0  0  0  0
 28 29  1  0  0  0  0
M  END
$$$$
SAL-INS-1ea-2
  -OEChem-03232022352D

 28 30  0     1  0  0  0  0  0999 V2000
    0.0015    3.0129    0.0000 O   0  0  0  0  0  0  0  0  0  0  0  0
    0.8675    2.5129    0.0000 C   0  0  0  0  0  0  0  0  0  0  0  0
    1.7335    3.0129    0.0000 C   0  0  0  0  0  0  0  0  0  0  0  0
    1.7335    4.0129    0.0000 Cl  0  0  0  0  0  0  0  0  0  0  0  0
    0.8675    1.5129    0.0000 N   0  0  0  0  0  0  0  0  0  0  0  0
    0.0000    1.0052    0.0000 C   0  0  0  0  0  0  0  0  0  0  0  0
    0.0000    0.0000    0.0000 C   0  0  0  0  0  0  0  0  0  0  0  0
    0.8675   -0.4975    0.0000 N   0  0  3  0  0  0  0  0  0  0  0  0
    0.8675   -1.4975    0.0000 S   0  0  0  0  0  0  0  0  0  0  0  0
    1.8675   -1.4975    0.0000 O   0  0  0  0  0  0  0  0  0  0  0  0
   -0.1325   -1.4975    0.0000 O   0  0  0  0  0  0  0  0  0  0  0  0
    0.8675   -2.4975    0.0000 C   0  0  0  0  0  0  0  0  0  0  0  0
    0.0566   -3.0828    0.0000 C   0  0  0  0  0  0  0  0  0  0  0  0
    0.3657   -4.0354    0.0000 C   0  0  0  0  0  0  0  0  0  0  0  0
    1.3674   -4.0382    0.0000 C   0  0  0  0  0  0  0  0  0  0  0  0
    1.9537   -4.8483    0.0000 Cl  0  0  0  0  0  0  0  0  0  0  0  0
    1.6787   -3.0830    0.0000 S   0  0  0  0  0  0  0  0  0  0  0  0
    1.7350    0.0000    0.0000 C   0  0  0  0  0  0  0  0  0  0  0  0
    1.7350    1.0052    0.0000 C   0  0  2  0  0  0  0  0  0  0  0  0
    2.0807    1.9435    0.0000 H   0  0  0  0  0  0  0  0  0  0  0  0
    2.7195    0.8296    0.0000 O   0  0  0  0  0  0  0  0  0  0  0  0
    3.3638    1.5944    0.0000 C   0  0  0  0  0  0  0  0  0  0  0  0
    3.0190    2.5386    0.0000 C   0  0  0  0  0  0  0  0  0  0  0  0
    3.6633    3.3035    0.0000 C   0  0  0  0  0  0  0  0  0  0  0  0
    4.6488    3.1336    0.0000 C   0  0  0  0  0  0  0  0  0  0  0  0
    5.2897    3.9012    0.0000 F   0  0  0  0  0  0  0  0  0  0  0  0
    4.9935    2.1894    0.0000 C   0  0  0  0  0  0  0  0  0  0  0  0
    4.3528    1.4150    0.0000 C   0  0  0  0  0  0  0  0  0  0  0  0
  1  2  2  0  0  0  0
  2  3  1  0  0  0  0
  3  4  1  0  0  0  0
  2  5  1  0  0  0  0
  5 19  1  0  0  0  0
  5  6  1  0  0  0  0
  6  7  1  0  0  0  0
  7  8  1  0  0  0  0
  8  9  1  0  0  0  0
  9 10  2  0  0  0  0
  9 11  2  0  0  0  0
  9 12  1  0  0  0  0
 12 17  1  0  0  0  0
 12 13  2  0  0  0  0
 13 14  1  0  0  0  0
 14 15  2  0  0  0  0
 15 16  1  0  0  0  0
 15 17  1  0  0  0  0
  8 18  1  0  0  0  0
 18 19  1  0  0  0  0
 19 20  1  6  0  0  0
 19 21  1  0  0  0  0
 21 22  1  0  0  0  0
 22 28  2  0  0  0  0
 22 23  1  0  0  0  0
 23 24  2  0  0  0  0
 24 25  1  0  0  0  0
 25 26  1  0  0  0  0
 25 27  2  0  0  0  0
 27 28  1  0  0  0  0
M  END
$$$$
SAL-INS-1ea-3
  -OEChem-03232022352D

 29 31  0     1  0  0  0  0  0999 V2000
    1.7335   -3.0027    0.0000 O   0  0  0  0  0  0  0  0  0  0  0  0
    0.8675   -2.5027    0.0000 C   0  0  0  0  0  0  0  0  0  0  0  0
    0.0015   -3.0027    0.0000 C   0  0  0  0  0  0  0  0  0  0  0  0
    0.0015   -4.0027    0.0000 Cl  0  0  0  0  0  0  0  0  0  0  0  0
    0.8675   -1.5027    0.0000 N   0  0  0  0  0  0  0  0  0  0  0  0
    0.0000   -1.0052    0.0000 C   0  0  0  0  0  0  0  0  0  0  0  0
    0.0000    0.0000    0.0000 C   0  0  0  0  0  0  0  0  0  0  0  0
    0.8675    0.5077    0.0000 N   0  0  3  0  0  0  0  0  0  0  0  0
    0.8675    2.2577    0.0000 S   0  0  0  0  0  0  0  0  0  0  0  0
   -0.1325    2.2577    0.0000 O   0  0  0  0  0  0  0  0  0  0  0  0
    1.8675    2.2577    0.0000 O   0  0  0  0  0  0  0  0  0  0  0  0
    0.8675    3.2577    0.0000 C   0  0  0  0  0  0  0  0  0  0  0  0
    1.6784    3.8430    0.0000 C   0  0  0  0  0  0  0  0  0  0  0  0
    1.3693    4.7956    0.0000 C   0  0  0  0  0  0  0  0  0  0  0  0
    0.3676    4.7984    0.0000 C   0  0  0  0  0  0  0  0  0  0  0  0
   -0.2186    5.6085    0.0000 Cl  0  0  0  0  0  0  0  0  0  0  0  0
    0.0563    3.8432    0.0000 S   0  0  0  0  0  0  0  0  0  0  0  0
    1.7350   -0.0000    0.0000 C   0  0  1  0  0  0  0  0  0  0  0  0
    2.0807    0.9383    0.0000 H   0  0  0  0  0  0  0  0  0  0  0  0
    2.7195   -0.1756    0.0000 C   0  0  0  0  0  0  0  0  0  0  0  0
    3.3638    0.5892    0.0000 C   0  0  0  0  0  0  0  0  0  0  0  0
    4.3482    0.4136    0.0000 C   0  0  0  0  0  0  0  0  0  0  0  0
    4.9936    1.1775    0.0000 C   0  0  0  0  0  0  0  0  0  0  0  0
    5.9789    1.0062    0.0000 C   0  0  0  0  0  0  0  0  0  0  0  0
    6.3222    0.0614    0.0000 C   0  0  0  0  0  0  0  0  0  0  0  0
    5.6803   -0.7120    0.0000 C   0  0  0  0  0  0  0  0  0  0  0  0
    4.6915   -0.5311    0.0000 C   0  0  0  0  0  0  0  0  0  0  0  0
    4.0461   -1.2950    0.0000 O   0  0  0  0  0  0  0  0  0  0  0  0
    1.7350   -1.0052    0.0000 C   0  0  0  0  0  0  0  0  0  0  0  0
  1  2  2  0  0  0  0
  2  3  1  0  0  0  0
  3  4  1  0  0  0  0
  2  5  1  0  0  0  0
  5 29  1  0  0  0  0
  5  6  1  0  0  0  0
  6  7  1  0  0  0  0
  7  8  1  0  0  0  0
  8  9  1  0  0  0  0
  9 10  2  0  0  0  0
  9 11  2  0  0  0  0
  9 12  1  0  0  0  0
 12 17  1  0  0  0  0
 12 13  2  0  0  0  0
 13 14  1  0  0  0  0
 14 15  2  0  0  0  0
 15 16  1  0  0  0  0
 15 17  1  0  0  0  0
  8 18  1  0  0  0  0
 18 19  1  6  0  0  0
 18 20  1  0  0  0  0
 20 21  1  0  0  0  0
 21 22  1  0  0  0  0
 22 27  2  0  0  0  0
 22 23  1  0  0  0  0
 23 24  2  0  0  0  0
 24 25  1  0  0  0  0
 25 26  2  0  0  0  0
 26 27  1  0  0  0  0
 27 28  1  0  0  0  0
 18 29  1  0  0  0  0
M  END
$$$$
SAL-INS-1ea-4
  -OEChem-03232022352D

 30 32  0     1  0  0  0  0  0999 V2000
    1.7335   -3.0027    0.0000 O   0  0  0  0  0  0  0  0  0  0  0  0
    0.8675   -2.5027    0.0000 C   0  0  0  0  0  0  0  0  0  0  0  0
    0.0015   -3.0027    0.0000 C   0  0  0  0  0  0  0  0  0  0  0  0
    0.0015   -4.0027    0.0000 Cl  0  0  0  0  0  0  0  0  0  0  0  0
    0.8675   -1.5027    0.0000 N   0  0  0  0  0  0  0  0  0  0  0  0
    0.0000   -1.0052    0.0000 C   0  0  0  0  0  0  0  0  0  0  0  0
    0.0000    0.0000    0.0000 C   0  0  0  0  0  0  0  0  0  0  0  0
    0.8675    0.5077    0.0000 N   0  0  3  0  0  0  0  0  0  0  0  0
    0.8675    2.2577    0.0000 S   0  0  0  0  0  0  0  0  0  0  0  0
   -0.1325    2.2577    0.0000 O   0  0  0  0  0  0  0  0  0  0  0  0
    1.8675    2.2577    0.0000 O   0  0  0  0  0  0  0  0  0  0  0  0
    0.8675    3.2577    0.0000 C   0  0  0  0  0  0  0  0  0  0  0  0
   -0.0045    3.7577    0.0000 C   0  0  0  0  0  0  0  0  0  0  0  0
   -0.0046    4.7578    0.0000 C   0  0  0  0  0  0  0  0  0  0  0  0
    0.8586    5.2628    0.0000 C   0  0  0  0  0  0  0  0  0  0  0  0
    0.8542    6.2628    0.0000 Cl  0  0  0  0  0  0  0  0  0  0  0  0
    1.7306    4.7628    0.0000 C   0  0  0  0  0  0  0  0  0  0  0  0
    1.7395    3.7577    0.0000 C   0  0  0  0  0  0  0  0  0  0  0  0
    1.7350   -0.0000    0.0000 C   0  0  1  0  0  0  0  0  0  0  0  0
    2.0807    0.9383    0.0000 H   0  0  0  0  0  0  0  0  0  0  0  0
    2.7195   -0.1756    0.0000 C   0  0  0  0  0  0  0  0  0  0  0  0
    3.3638    0.5892    0.0000 C   0  0  0  0  0  0  0  0  0  0  0  0
    4.3482    0.4136    0.0000 C   0  0  0  0  0  0  0  0  0  0  0  0
    4.9936    1.1775    0.0000 C   0  0  0  0  0  0  0  0  0  0  0  0
    5.9789    1.0062    0.0000 C   0  0  0  0  0  0  0  0  0  0  0  0
    6.3222    0.0614    0.0000 C   0  0  0  0  0  0  0  0  0  0  0  0
    5.6803   -0.7120    0.0000 C   0  0  0  0  0  0  0  0  0  0  0  0
    4.6915   -0.5311    0.0000 C   0  0  0  0  0  0  0  0  0  0  0  0
    4.0461   -1.2950    0.0000 O   0  0  0  0  0  0  0  0  0  0  0  0
    1.7350   -1.0052    0.0000 C   0  0  0  0  0  0  0  0  0  0  0  0
  1  2  2  0  0  0  0
  2  3  1  0  0  0  0
  3  4  1  0  0  0  0
  2  5  1  0  0  0  0
  5 30  1  0  0  0  0
  5  6  1  0  0  0  0
  6  7  1  0  0  0  0
  7  8  1  0  0  0  0
  8  9  1  0  0  0  0
  9 10  2  0  0  0  0
  9 11  2  0  0  0  0
  9 12  1  0  0  0  0
 12 18  2  0  0  0  0
 12 13  1  0  0  0  0
 13 14  2  0  0  0  0
 14 15  1  0  0  0  0
 15 16  1  0  0  0  0
 15 17  2  0  0  0  0
 17 18  1  0  0  0  0
  8 19  1  0  0  0  0
 19 20  1  6  0  0  0
 19 21  1  0  0  0  0
 21 22  1  0  0  0  0
 22 23  1  0  0  0  0
 23 28  2  0  0  0  0
 23 24  1  0  0  0  0
 24 25  2  0  0  0  0
 25 26  1  0  0  0  0
 26 27  2  0  0  0  0
 27 28  1  0  0  0  0
 28 29  1  0  0  0  0
 19 30  1  0  0  0  0
M  END
$$$$
SAL-INS-1c7-1
  -OEChem-03232022352D

 27 29  0     1  0  0  0  0  0999 V2000
   -3.4641    0.9986    0.0000 C   0  0  0  0  0  0  0  0  0  0  0  0
   -2.5995    1.5012    0.0000 C   0  0  0  0  0  0  0  0  0  0  0  0
   -2.6025    2.5012    0.0000 C   0  0  0  0  0  0  0  0  0  0  0  0
   -1.7320    1.0038    0.0000 N   0  0  0  0  0  0  0  0  0  0  0  0
   -1.7291    0.0038    0.0000 C   0  0  0  0  0  0  0  0  0  0  0  0
   -0.8675    1.5063    0.0000 C   0  0  0  0  0  0  0  0  0  0  0  0
   -0.8705    2.5063    0.0000 O   0  0  0  0  0  0  0  0  0  0  0  0
    0.0000    1.0089    0.0000 C   0  0  0  0  0  0  0  0  0  0  0  0
    0.0000    0.0000    0.0000 C   0  0  0  0  0  0  0  0  0  0  0  0
    0.8707   -0.4993    0.0000 C   0  0  0  0  0  0  0  0  0  0  0  0
    1.7371    0.0000    0.0000 C   0  0  0  0  0  0  0  0  0  0  0  0
    1.7414    1.0089    0.0000 C   0  0  0  0  0  0  0  0  0  0  0  0
    0.8707    1.5185    0.0000 C   0  0  0  0  0  0  0  0  0  0  0  0
    2.6125    1.5125    0.0000 C   0  0  0  0  0  0  0  0  0  0  0  0
    3.4848    1.0014    0.0000 N   0  0  0  0  0  0  0  0  0  0  0  0
    4.3535    1.4968    0.0000 C   0  0  0  0  0  0  0  0  0  0  0  0
    5.2168    0.9922    0.0000 O   0  0  0  0  0  0  0  0  0  0  0  0
    4.3588    2.4968    0.0000 C   0  0  0  0  0  0  0  0  0  0  0  0
    5.2275    2.9921    0.0000 Cl  0  0  0  0  0  0  0  0  0  0  0  0
    3.4805   -0.0073    0.0000 C   0  0  0  0  0  0  0  0  0  0  0  0
    2.6039   -0.5053    0.0000 C   0  0  3  0  0  0  0  0  0  0  0  0
    2.5983   -1.5053    0.0000 C   0  0  0  0  0  0  0  0  0  0  0  0
    3.4675   -2.0102    0.0000 C   0  0  0  0  0  0  0  0  0  0  0  0
    3.4620   -3.0102    0.0000 C   0  0  0  0  0  0  0  0  0  0  0  0
    2.5961   -3.5104    0.0000 C   0  0  0  0  0  0  0  0  0  0  0  0
    1.7269   -3.0056    0.0000 C   0  0  0  0  0  0  0  0  0  0  0  0
    1.7236   -2.0004    0.0000 C   0  0  0  0  0  0  0  0  0  0  0  0
  1  2  1  0  0  0  0
  2  3  1  0  0  0  0
  2  4  1  0  0  0  0
  4  5  1  0  0  0  0
  4  6  1  0  0  0  0
  6  7  2  0  0  0  0
  6  8  1  0  0  0  0
  8 13  2  0  0  0  0
  8  9  1  0  0  0  0
  9 10  2  0  0  0  0
 10 11  1  0  0  0  0
 11 21  1  0  0  0  0
 11 12  2  0  0  0  0
 12 13  1  0  0  0  0
 12 14  1  0  0  0  0
 14 15  1  0  0  0  0
 15 16  1  0  0  0  0
 16 17  2  0  0  0  0
 16 18  1  0  0  0  0
 18 19  1  0  0  0  0
 15 20  1  0  0  0  0
 20 21  1  0  0  0  0
 21 22  1  0  0  0  0
 22 27  2  0  0  0  0
 22 23  1  0  0  0  0
 23 24  2  0  0  0  0
 24 25  1  0  0  0  0
 25 26  2  0  0  0  0
 26 27  1  0  0  0  0
M  END
$$$$
SAL-INS-1c7-2
  -OEChem-03232022352D

 29 32  0     1  0  0  0  0  0999 V2000
   -0.0059    3.0089    0.0000 C   0  0  0  0  0  0  0  0  0  0  0  0
   -0.8705    2.5063    0.0000 N   0  0  0  0  0  0  0  0  0  0  0  0
   -0.8675    1.5063    0.0000 C   0  0  0  0  0  0  0  0  0  0  0  0
   -1.7320    1.0038    0.0000 O   0  0  0  0  0  0  0  0  0  0  0  0
    0.0000    1.0089    0.0000 C   0  0  0  0  0  0  0  0  0  0  0  0
    0.0000    0.0000    0.0000 C   0  0  0  0  0  0  0  0  0  0  0  0
    0.8707   -0.4993    0.0000 C   0  0  0  0  0  0  0  0  0  0  0  0
    1.7371    0.0000    0.0000 C   0  0  0  0  0  0  0  0  0  0  0  0
    1.7414    1.0089    0.0000 C   0  0  0  0  0  0  0  0  0  0  0  0
    0.8707    1.5185    0.0000 C   0  0  0  0  0  0  0  0  0  0  0  0
    2.6125    1.5125    0.0000 C   0  0  0  0  0  0  0  0  0  0  0  0
    3.4848    1.0014    0.0000 N   0  0  0  0  0  0  0  0  0  0  0  0
    4.3535    1.4968    0.0000 C   0  0  0  0  0  0  0  0  0  0  0  0
    5.2168    0.9922    0.0000 O   0  0  0  0  0  0  0  0  0  0  0  0
    4.3588    2.4968    0.0000 C   0  0  0  0  0  0  0  0  0  0  0  0
    5.2275    2.9921    0.0000 Cl  0  0  0  0  0  0  0  0  0  0  0  0
    3.4805   -0.0073    0.0000 C   0  0  0  0  0  0  0  0  0  0  0  0
    2.6039   -0.5053    0.0000 C   0  0  3  0  0  0  0  0  0  0  0  0
    2.5983   -1.5053    0.0000 C   0  0  0  0  0  0  0  0  0  0  0  0
    3.4675   -2.0102    0.0000 C   0  0  0  0  0  0  0  0  0  0  0  0
    3.4620   -3.0102    0.0000 C   0  0  0  0  0  0  0  0  0  0  0  0
    2.5961   -3.5104    0.0000 C   0  0  0  0  0  0  0  0  0  0  0  0
    1.7269   -3.0056    0.0000 C   0  0  0  0  0  0  0  0  0  0  0  0
    1.7236   -2.0004    0.0000 C   0  0  0  0  0  0  0  0  0  0  0  0
   -1.7380    3.0038    0.0000 C   0  0  0  0  0  0  0  0  0  0  0  0
   -1.8424    3.9983    0.0000 C   0  0  0  0  0  0  0  0  0  0  0  0
   -2.8225    4.2041    0.0000 N   0  0  0  0  0  0  0  0  0  0  0  0
   -3.3232    3.3365    0.0000 C   0  0  0  0  0  0  0  0  0  0  0  0
   -2.6494    2.5913    0.0000 N   0  0  0  0  0  0  0  0  0  0  0  0
  1  2  1  0  0  0  0
  2  3  1  0  0  0  0
  3  4  2  0  0  0  0
  3  5  1  0  0  0  0
  5 10  2  0  0  0  0
  5  6  1  0  0  0  0
  6  7  2  0  0  0  0
  7  8  1  0  0  0  0
  8 18  1  0  0  0  0
  8  9  2  0  0  0  0
  9 10  1  0  0  0  0
  9 11  1  0  0  0  0
 11 12  1  0  0  0  0
 12 13  1  0  0  0  0
 13 14  2  0  0  0  0
 13 15  1  0  0  0  0
 15 16  1  0  0  0  0
 12 17  1  0  0  0  0
 17 18  1  0  0  0  0
 18 19  1  0  0  0  0
 19 24  2  0  0  0  0
 19 20  1  0  0  0  0
 20 21  2  0  0  0  0
 21 22  1  0  0  0  0
 22 23  2  0  0  0  0
 23 24  1  0  0  0  0
  2 25  1  0  0  0  0
 25 29  1  0  0  0  0
 25 26  2  0  0  0  0
 26 27  1  0  0  0  0
 27 28  1  0  0  0  0
 28 29  2  0  0  0  0
M  END
$$$$
SAL-INS-1c7-3
  -OEChem-03232022352D

 26 28  0     1  0  0  0  0  0999 V2000
   -3.4641    0.9986    0.0000 C   0  0  0  0  0  0  0  0  0  0  0  0
   -2.5995    1.5012    0.0000 C   0  0  0  0  0  0  0  0  0  0  0  0
   -2.6025    2.5012    0.0000 C   0  0  0  0  0  0  0  0  0  0  0  0
   -1.7320    1.0038    0.0000 N   0  0  0  0  0  0  0  0  0  0  0  0
   -1.7291    0.0038    0.0000 C   0  0  0  0  0  0  0  0  0  0  0  0
   -0.8675    1.5063    0.0000 C   0  0  0  0  0  0  0  0  0  0  0  0
   -0.8705    2.5063    0.0000 O   0  0  0  0  0  0  0  0  0  0  0  0
    0.0000    1.0089    0.0000 C   0  0  0  0  0  0  0  0  0  0  0  0
    0.0000    0.0000    0.0000 C   0  0  0  0  0  0  0  0  0  0  0  0
    0.8707   -0.4993    0.0000 C   0  0  0  0  0  0  0  0  0  0  0  0
    1.7371    0.0000    0.0000 C   0  0  0  0  0  0  0  0  0  0  0  0
    1.7414    1.0089    0.0000 C   0  0  0  0  0  0  0  0  0  0  0  0
    0.8707    1.5185    0.0000 C   0  0  0  0  0  0  0  0  0  0  0  0
    2.6125    1.5125    0.0000 C   0  0  0  0  0  0  0  0  0  0  0  0
    3.4848    1.0014    0.0000 N   0  0  0  0  0  0  0  0  0  0  0  0
    4.3535    1.4968    0.0000 C   0  0  0  0  0  0  0  0  0  0  0  0
    5.2168    0.9922    0.0000 O   0  0  0  0  0  0  0  0  0  0  0  0
    4.3588    2.4968    0.0000 C   0  0  0  0  0  0  0  0  0  0  0  0
    5.2275    2.9921    0.0000 Cl  0  0  0  0  0  0  0  0  0  0  0  0
    3.4805   -0.0073    0.0000 C   0  0  0  0  0  0  0  0  0  0  0  0
    2.6039   -0.5053    0.0000 C   0  0  3  0  0  0  0  0  0  0  0  0
    2.5983   -1.5053    0.0000 C   0  0  0  0  0  0  0  0  0  0  0  0
    1.7842   -2.0861    0.0000 C   0  0  0  0  0  0  0  0  0  0  0  0
    2.0880   -3.0404    0.0000 N   0  0  0  0  0  0  0  0  0  0  0  0
    3.0896   -3.0488    0.0000 C   0  0  0  0  0  0  0  0  0  0  0  0
    3.4062   -2.0953    0.0000 N   0  0  0  0  0  0  0  0  0  0  0  0
  1  2  1  0  0  0  0
  2  3  1  0  0  0  0
  2  4  1  0  0  0  0
  4  5  1  0  0  0  0
  4  6  1  0  0  0  0
  6  7  2  0  0  0  0
  6  8  1  0  0  0  0
  8 13  2  0  0  0  0
  8  9  1  0  0  0  0
  9 10  2  0  0  0  0
 10 11  1  0  0  0  0
 11 21  1  0  0  0  0
 11 12  2  0  0  0  0
 12 13  1  0  0  0  0
 12 14  1  0  0  0  0
 14 15  1  0  0  0  0
 15 16  1  0  0  0  0
 16 17  2  0  0  0  0
 16 18  1  0  0  0  0
 18 19  1  0  0  0  0
 15 20  1  0  0  0  0
 20 21  1  0  0  0  0
 21 22  1  0  0  0  0
 22 26  1  0  0  0  0
 22 23  2  0  0  0  0
 23 24  1  0  0  0  0
 24 25  1  0  0  0  0
 25 26  2  0  0  0  0
M  END
$$$$
SAL-INS-1c7-4
  -OEChem-03232022352D

 28 31  0     1  0  0  0  0  0999 V2000
   -0.0059    3.0089    0.0000 C   0  0  0  0  0  0  0  0  0  0  0  0
   -0.8705    2.5063    0.0000 N   0  0  0  0  0  0  0  0  0  0  0  0
   -0.8675    1.5063    0.0000 C   0  0  0  0  0  0  0  0  0  0  0  0
   -1.7320    1.0038    0.0000 O   0  0  0  0  0  0  0  0  0  0  0  0
    0.0000    1.0089    0.0000 C   0  0  0  0  0  0  0  0  0  0  0  0
    0.0000    0.0000    0.0000 C   0  0  0  0  0  0  0  0  0  0  0  0
    0.8707   -0.4993    0.0000 C   0  0  0  0  0  0  0  0  0  0  0  0
    1.7371    0.0000    0.0000 C   0  0  0  0  0  0  0  0  0  0  0  0
    1.7414    1.0089    0.0000 C   0  0  0  0  0  0  0  0  0  0  0  0
    0.8707    1.5185    0.0000 C   0  0  0  0  0  0  0  0  0  0  0  0
    2.6125    1.5125    0.0000 C   0  0  0  0  0  0  0  0  0  0  0  0
    3.4848    1.0014    0.0000 N   0  0  0  0  0  0  0  0  0  0  0  0
    4.3535    1.4968    0.0000 C   0  0  0  0  0  0  0  0  0  0  0  0
    5.2168    0.9922    0.0000 O   0  0  0  0  0  0  0  0  0  0  0  0
    4.3588    2.4968    0.0000 C   0  0  0  0  0  0  0  0  0  0  0  0
    5.2275    2.9921    0.0000 Cl  0  0  0  0  0  0  0  0  0  0  0  0
    3.4805   -0.0073    0.0000 C   0  0  0  0  0  0  0  0  0  0  0  0
    2.6039   -0.5053    0.0000 C   0  0  3  0  0  0  0  0  0  0  0  0
    2.5983   -1.5053    0.0000 C   0  0  0  0  0  0  0  0  0  0  0  0
    1.7842   -2.0861    0.0000 C   0  0  0  0  0  0  0  0  0  0  0  0
    2.0880   -3.0404    0.0000 N   0  0  0  0  0  0  0  0  0  0  0  0
    3.0896   -3.0488    0.0000 C   0  0  0  0  0  0  0  0  0  0  0  0
    3.4062   -2.0953    0.0000 N   0  0  0  0  0  0  0  0  0  0  0  0
   -1.7380    3.0038    0.0000 C   0  0  0  0  0  0  0  0  0  0  0  0
   -1.8424    3.9983    0.0000 C   0  0  0  0  0  0  0  0  0  0  0  0
   -2.8225    4.2041    0.0000 N   0  0  0  0  0  0  0  0  0  0  0  0
   -3.3232    3.3365    0.0000 C   0  0  0  0  0  0  0  0  0  0  0  0
   -2.6494    2.5913    0.0000 N   0  0  0  0  0  0  0  0  0  0  0  0
  1  2  1  0  0  0  0
  2  3  1  0  0  0  0
  3  4  2  0  0  0  0
  3  5  1  0  0  0  0
  5 10  2  0  0  0  0
  5  6  1  0  0  0  0
  6  7  2  0  0  0  0
  7  8  1  0  0  0  0
  8 18  1  0  0  0  0
  8  9  2  0  0  0  0
  9 10  1  0  0  0  0
  9 11  1  0  0  0  0
 11 12  1  0  0  0  0
 12 13  1  0  0  0  0
 13 14  2  0  0  0  0
 13 15  1  0  0  0  0
 15 16  1  0  0  0  0
 12 17  1  0  0  0  0
 17 18  1  0  0  0  0
 18 19  1  0  0  0  0
 19 23  1  0  0  0  0
 19 20  2  0  0  0  0
 20 21  1  0  0  0  0
 21 22  1  0  0  0  0
 22 23  2  0  0  0  0
  2 24  1  0  0  0  0
 24 28  1  0  0  0  0
 24 25  2  0  0  0  0
 25 26  1  0  0  0  0
 26 27  1  0  0  0  0
 27 28  2  0  0  0  0
M  END
$$$$
SAL-INS-1c7-5
  -OEChem-03232022352D

 27 30  0     1  0  0  0  0  0999 V2000
    6.0982    2.4886    0.0000 O   0  0  0  0  0  0  0  0  0  0  0  0
    6.0926    1.4886    0.0000 C   0  0  0  0  0  0  0  0  0  0  0  0
    6.9558    0.9838    0.0000 C   0  0  0  0  0  0  0  0  0  0  0  0
    7.8246    1.4789    0.0000 Cl  0  0  0  0  0  0  0  0  0  0  0  0
    5.2238    0.9935    0.0000 N   0  0  0  0  0  0  0  0  0  0  0  0
    4.3538    1.5034    0.0000 C   0  0  0  0  0  0  0  0  0  0  0  0
    3.4848    1.0015    0.0000 C   0  0  0  0  0  0  0  0  0  0  0  0
    2.6125    1.5125    0.0000 C   0  0  0  0  0  0  0  0  0  0  0  0
    1.7414    1.0089    0.0000 C   0  0  0  0  0  0  0  0  0  0  0  0
    0.8707    1.5184    0.0000 C   0  0  0  0  0  0  0  0  0  0  0  0
    0.8707    2.5184    0.0000 N   0  3  0  0  0  0  0  0  0  0  0  0
    1.7367    3.0184    0.0000 O   0  0  0  0  0  0  0  0  0  0  0  0
    0.0047    3.0184    0.0000 O   0  5  0  0  0  0  0  0  0  0  0  0
    0.0000    1.0089    0.0000 C   0  0  0  0  0  0  0  0  0  0  0  0
    0.0000    0.0000    0.0000 C   0  0  0  0  0  0  0  0  0  0  0  0
    0.8707   -0.4993    0.0000 C   0  0  0  0  0  0  0  0  0  0  0  0
    1.7372   -0.0000    0.0000 C   0  0  0  0  0  0  0  0  0  0  0  0
    2.6040   -0.5053    0.0000 C   0  0  0  0  0  0  0  0  0  0  0  0
    3.4802   -0.0049    0.0000 C   0  0  0  0  0  0  0  0  0  0  0  0
    4.3445   -0.5092    0.0000 C   0  0  3  0  0  0  0  0  0  0  0  0
    4.3385   -1.5092    0.0000 C   0  0  0  0  0  0  0  0  0  0  0  0
    5.2075   -2.0144    0.0000 C   0  0  0  0  0  0  0  0  0  0  0  0
    5.2015   -3.0145    0.0000 C   0  0  0  0  0  0  0  0  0  0  0  0
    4.3354   -3.5143    0.0000 C   0  0  0  0  0  0  0  0  0  0  0  0
    3.4664   -3.0091    0.0000 C   0  0  0  0  0  0  0  0  0  0  0  0
    3.4635   -2.0039    0.0000 C   0  0  0  0  0  0  0  0  0  0  0  0
    5.2191   -0.0129    0.0000 C   0  0  0  0  0  0  0  0  0  0  0  0
  1  2  2  0  0  0  0
  2  3  1  0  0  0  0
  3  4  1  0  0  0  0
  2  5  1  0  0  0  0
  5 27  1  0  0  0  0
  5  6  1  0  0  0  0
  6  7  1  0  0  0  0
  7 19  2  0  0  0  0
  7  8  1  0  0  0  0
  8  9  2  0  0  0  0
  9 17  1  0  0  0  0
  9 10  1  0  0  0  0
 10 11  1  0  0  0  0
 11 12  2  0  0  0  0
 11 13  1  0  0  0  0
 10 14  2  0  0  0  0
 14 15  1  0  0  0  0
 15 16  2  0  0  0  0
 16 17  1  0  0  0  0
 17 18  2  0  0  0  0
 18 19  1  0  0  0  0
 19 20  1  0  0  0  0
 20 21  1  0  0  0  0
 21 26  2  0  0  0  0
 21 22  1  0  0  0  0
 22 23  2  0  0  0  0
 23 24  1  0  0  0  0
 24 25  2  0  0  0  0
 25 26  1  0  0  0  0
 20 27  1  0  0  0  0
M  CHG  2  11   1  13  -1
M  END
$$$$
SAL-INS-1c7-6
  -OEChem-03232022352D

 26 29  0     1  0  0  0  0  0999 V2000
    6.0982    2.4886    0.0000 O   0  0  0  0  0  0  0  0  0  0  0  0
    6.0926    1.4886    0.0000 C   0  0  0  0  0  0  0  0  0  0  0  0
    6.9558    0.9838    0.0000 C   0  0  0  0  0  0  0  0  0  0  0  0
    7.8246    1.4789    0.0000 Cl  0  0  0  0  0  0  0  0  0  0  0  0
    5.2238    0.9935    0.0000 N   0  0  0  0  0  0  0  0  0  0  0  0
    4.3538    1.5034    0.0000 C   0  0  0  0  0  0  0  0  0  0  0  0
    3.4848    1.0015    0.0000 C   0  0  0  0  0  0  0  0  0  0  0  0
    2.6125    1.5125    0.0000 C   0  0  0  0  0  0  0  0  0  0  0  0
    1.7414    1.0089    0.0000 C   0  0  0  0  0  0  0  0  0  0  0  0
    0.8707    1.5184    0.0000 C   0  0  0  0  0  0  0  0  0  0  0  0
    0.8707    2.5184    0.0000 N   0  3  0  0  0  0  0  0  0  0  0  0
    1.7367    3.0184    0.0000 O   0  0  0  0  0  0  0  0  0  0  0  0
    0.0047    3.0184    0.0000 O   0  5  0  0  0  0  0  0  0  0  0  0
    0.0000    1.0089    0.0000 C   0  0  0  0  0  0  0  0  0  0  0  0
    0.0000    0.0000    0.0000 C   0  0  0  0  0  0  0  0  0  0  0  0
    0.8707   -0.4993    0.0000 C   0  0  0  0  0  0  0  0  0  0  0  0
    1.7372   -0.0000    0.0000 C   0  0  0  0  0  0  0  0  0  0  0  0
    2.6040   -0.5053    0.0000 C   0  0  0  0  0  0  0  0  0  0  0  0
    3.4802   -0.0049    0.0000 C   0  0  0  0  0  0  0  0  0  0  0  0
    4.3445   -0.5092    0.0000 C   0  0  3  0  0  0  0  0  0  0  0  0
    4.3385   -1.5092    0.0000 C   0  0  0  0  0  0  0  0  0  0  0  0
    3.5241   -2.0896    0.0000 C   0  0  0  0  0  0  0  0  0  0  0  0
    3.8275   -3.0441    0.0000 N   0  0  0  0  0  0  0  0  0  0  0  0
    4.8291   -3.0529    0.0000 C   0  0  0  0  0  0  0  0  0  0  0  0
    5.1461   -2.0996    0.0000 N   0  0  0  0  0  0  0  0  0  0  0  0
    5.2191   -0.0129    0.0000 C   0  0  0  0  0  0  0  0  0  0  0  0
  1  2  2  0  0  0  0
  2  3  1  0  0  0  0
  3  4  1  0  0  0  0
  2  5  1  0  0  0  0
  5 26  1  0  0  0  0
  5  6  1  0  0  0  0
  6  7  1  0  0  0  0
  7 19  2  0  0  0  0
  7  8  1  0  0  0  0
  8  9  2  0  0  0  0
  9 17  1  0  0  0  0
  9 10  1  0  0  0  0
 10 11  1  0  0  0  0
 11 12  2  0  0  0  0
 11 13  1  0  0  0  0
 10 14  2  0  0  0  0
 14 15  1  0  0  0  0
 15 16  2  0  0  0  0
 16 17  1  0  0  0  0
 17 18  2  0  0  0  0
 18 19  1  0  0  0  0
 19 20  1  0  0  0  0
 20 21  1  0  0  0  0
 21 25  1  0  0  0  0
 21 22  2  0  0  0  0
 22 23  1  0  0  0  0
 23 24  1  0  0  0  0
 24 25  2  0  0  0  0
 20 26  1  0  0  0  0
M  CHG  2  11   1  13  -1
M  END
$$$$
SAL-INS-1c7-7
  -OEChem-03232022352D

 26 28  0     1  0  0  0  0  0999 V2000
    4.5701   -0.3915    0.0000 C   0  0  0  0  0  0  0  0  0  0  0  0
    3.5759   -0.4993    0.0000 C   0  0  0  0  0  0  0  0  0  0  0  0
    2.9848    0.3138    0.0000 C   0  0  0  0  0  0  0  0  0  0  0  0
    1.9906    0.2061    0.0000 C   0  0  0  0  0  0  0  0  0  0  0  0
    1.5815   -0.7064    0.0000 C   0  0  0  0  0  0  0  0  0  0  0  0
    0.5868   -0.8097    0.0000 N   0  0  0  0  0  0  0  0  0  0  0  0
    0.1790   -1.7228    0.0000 C   0  0  0  0  0  0  0  0  0  0  0  0
   -0.8156   -1.8261    0.0000 O   0  0  0  0  0  0  0  0  0  0  0  0
    0.7658   -2.5325    0.0000 C   0  0  0  0  0  0  0  0  0  0  0  0
    0.3580   -3.4456    0.0000 Cl  0  0  0  0  0  0  0  0  0  0  0  0
    0.0000    0.0000    0.0000 C   0  0  3  0  0  0  0  0  0  0  0  0
   -1.0015    0.0000    0.0000 C   0  0  0  0  0  0  0  0  0  0  0  0
   -1.3080    0.9519    0.0000 C   0  0  0  0  0  0  0  0  0  0  0  0
   -0.5007    1.5428    0.0000 S   0  0  0  0  0  0  0  0  0  0  0  0
   -1.1715    2.2845    0.0000 O   0  0  0  0  0  0  0  0  0  0  0  0
    0.1678    2.2865    0.0000 O   0  0  0  0  0  0  0  0  0  0  0  0
    0.3118    0.9519    0.0000 C   0  0  0  0  0  0  0  0  0  0  0  0
    2.1725   -1.5194    0.0000 C   0  0  0  0  0  0  0  0  0  0  0  0
    1.7633   -2.4319    0.0000 C   0  0  0  0  0  0  0  0  0  0  0  0
    2.3489   -3.2425    0.0000 C   0  0  0  0  0  0  0  0  0  0  0  0
    3.3486   -3.1372    0.0000 C   0  0  0  0  0  0  0  0  0  0  0  0
    3.9343   -3.9477    0.0000 C   0  0  0  0  0  0  0  0  0  0  0  0
    3.5304   -4.8626    0.0000 C   0  0  0  0  0  0  0  0  0  0  0  0
    2.5307   -4.9679    0.0000 C   0  0  0  0  0  0  0  0  0  0  0  0
    1.9349   -4.1584    0.0000 C   0  0  0  0  0  0  0  0  0  0  0  0
    3.1727   -1.4200    0.0000 C   0  0  0  0  0  0  0  0  0  0  0  0
  1  2  1  0  0  0  0
  2 26  2  0  0  0  0
  2  3  1  0  0  0  0
  3  4  2  0  0  0  0
  4  5  1  0  0  0  0
  5  6  1  0  0  0  0
  6  7  1  0  0  0  0
  7  8  2  0  0  0  0
  7  9  1  0  0  0  0
  9 10  1  0  0  0  0
  6 11  1  0  0  0  0
 11 17  1  0  0  0  0
 11 12  1  0  0  0  0
 12 13  2  0  0  0  0
 13 14  1  0  0  0  0
 14 15  2  0  0  0  0
 14 16  2  0  0  0  0
 14 17  1  0  0  0  0
  5 18  2  0  0  0  0
 18 19  1  0  0  0  0
 19 20  1  0  0  0  0
 20 25  2  0  0  0  0
 20 21  1  0  0  0  0
 21 22  2  0  0  0  0
 22 23  1  0  0  0  0
 23 24  2  0  0  0  0
 24 25  1  0  0  0  0
 18 26  1  0  0  0  0
M  END
$$$$
SAL-INS-1c7-8
  -OEChem-03232022352D

 26 28  0     1  0  0  0  0  0999 V2000
    1.9893    0.2067    0.0000 O   0  0  0  0  0  0  0  0  0  0  0  0
    1.5815   -0.7064    0.0000 C   0  0  0  0  0  0  0  0  0  0  0  0
    2.1683   -1.5161    0.0000 C   0  0  0  0  0  0  0  0  0  0  0  0
    3.1629   -1.4127    0.0000 Cl  0  0  0  0  0  0  0  0  0  0  0  0
    0.5868   -0.8097    0.0000 N   0  0  0  0  0  0  0  0  0  0  0  0
    0.1790   -1.7228    0.0000 C   0  0  0  0  0  0  0  0  0  0  0  0
    0.7647   -2.5334    0.0000 C   0  0  0  0  0  0  0  0  0  0  0  0
    0.3608   -3.4482    0.0000 C   0  0  0  0  0  0  0  0  0  0  0  0
   -0.6389   -3.5536    0.0000 C   0  0  0  0  0  0  0  0  0  0  0  0
   -1.0427   -4.4684    0.0000 F   0  0  0  0  0  0  0  0  0  0  0  0
   -1.2347   -2.7440    0.0000 C   0  0  0  0  0  0  0  0  0  0  0  0
   -0.8207   -1.8281    0.0000 C   0  0  0  0  0  0  0  0  0  0  0  0
   -1.4063   -1.0175    0.0000 C   0  0  0  0  0  0  0  0  0  0  0  0
   -2.4011   -1.1194    0.0000 C   0  0  0  0  0  0  0  0  0  0  0  0
   -2.8097   -2.0378    0.0000 C   0  0  0  0  0  0  0  0  0  0  0  0
   -3.8045   -2.1397    0.0000 C   0  0  0  0  0  0  0  0  0  0  0  0
   -4.3949   -1.3325    0.0000 C   0  0  0  0  0  0  0  0  0  0  0  0
   -3.9863   -0.4141    0.0000 C   0  0  0  0  0  0  0  0  0  0  0  0
   -2.9873   -0.3029    0.0000 C   0  0  0  0  0  0  0  0  0  0  0  0
    0.0000    0.0000    0.0000 C   0  0  3  0  0  0  0  0  0  0  0  0
   -1.0015    0.0000    0.0000 C   0  0  0  0  0  0  0  0  0  0  0  0
   -1.3080    0.9519    0.0000 C   0  0  0  0  0  0  0  0  0  0  0  0
   -0.5007    1.5428    0.0000 S   0  0  0  0  0  0  0  0  0  0  0  0
   -1.1715    2.2845    0.0000 O   0  0  0  0  0  0  0  0  0  0  0  0
    0.1678    2.2865    0.0000 O   0  0  0  0  0  0  0  0  0  0  0  0
    0.3118    0.9519    0.0000 C   0  0  0  0  0  0  0  0  0  0  0  0
  1  2  2  0  0  0  0
  2  3  1  0  0  0  0
  3  4  1  0  0  0  0
  2  5  1  0  0  0  0
  5  6  1  0  0  0  0
  6 12  2  0  0  0  0
  6  7  1  0  0  0  0
  7  8  2  0  0  0  0
  8  9  1  0  0  0  0
  9 10  1  0  0  0  0
  9 11  2  0  0  0  0
 11 12  1  0  0  0  0
 12 13  1  0  0  0  0
 13 14  1  0  0  0  0
 14 19  2  0  0  0  0
 14 15  1  0  0  0  0
 15 16  2  0  0  0  0
 16 17  1  0  0  0  0
 17 18  2  0  0  0  0
 18 19  1  0  0  0  0
  5 20  1  0  0  0  0
 20 26  1  0  0  0  0
 20 21  1  0  0  0  0
 21 22  2  0  0  0  0
 22 23  1  0  0  0  0
 23 24  2  0  0  0  0
 23 25  2  0  0  0  0
 23 26  1  0  0  0  0
M  END
$$$$
SAL-INS-1c7-9
  -OEChem-03232022352D

 25 27  0     1  0  0  0  0  0999 V2000
    0.1099    3.6124    0.0000 C   0  0  0  0  0  0  0  0  0  0  0  0
   -0.6290    2.9385    0.0000 C   0  0  0  0  0  0  0  0  0  0  0  0
   -1.5860    3.2459    0.0000 C   0  0  0  0  0  0  0  0  0  0  0  0
   -2.3250    2.5721    0.0000 C   0  0  0  0  0  0  0  0  0  0  0  0
   -2.1166    1.5940    0.0000 C   0  0  0  0  0  0  0  0  0  0  0  0
   -2.8584    0.9235    0.0000 N   0  0  0  0  0  0  0  0  0  0  0  0
   -2.6486   -0.0543    0.0000 C   0  0  0  0  0  0  0  0  0  0  0  0
   -3.3905   -0.7248    0.0000 O   0  0  0  0  0  0  0  0  0  0  0  0
   -1.6970   -0.3614    0.0000 C   0  0  0  0  0  0  0  0  0  0  0  0
   -1.4872   -1.3392    0.0000 Cl  0  0  0  0  0  0  0  0  0  0  0  0
   -3.8101    1.2306    0.0000 C   0  0  3  0  0  0  0  0  0  0  0  0
   -4.6185    0.6395    0.0000 C   0  0  0  0  0  0  0  0  0  0  0  0
   -5.4278    1.2269    0.0000 C   0  0  0  0  0  0  0  0  0  0  0  0
   -5.1250    2.1804    0.0000 S   0  0  0  0  0  0  0  0  0  0  0  0
   -6.1042    2.3831    0.0000 O   0  0  0  0  0  0  0  0  0  0  0  0
   -5.0244    3.1753    0.0000 O   0  0  0  0  0  0  0  0  0  0  0  0
   -4.1203    2.1831    0.0000 C   0  0  0  0  0  0  0  0  0  0  0  0
   -1.1595    1.2867    0.0000 C   0  0  0  0  0  0  0  0  0  0  0  0
   -0.9512    0.3086    0.0000 C   0  0  0  0  0  0  0  0  0  0  0  0
    0.0000    0.0000    0.0000 C   0  0  0  0  0  0  0  0  0  0  0  0
    0.3065   -0.9519    0.0000 C   0  0  0  0  0  0  0  0  0  0  0  0
    1.3080   -0.9519    0.0000 N   0  0  0  0  0  0  0  0  0  0  0  0
    1.6198   -0.0000    0.0000 C   0  0  0  0  0  0  0  0  0  0  0  0
    0.8073    0.5909    0.0000 N   0  0  0  0  0  0  0  0  0  0  0  0
   -0.4109    1.9574    0.0000 C   0  0  0  0  0  0  0  0  0  0  0  0
  1  2  1  0  0  0  0
  2 25  2  0  0  0  0
  2  3  1  0  0  0  0
  3  4  2  0  0  0  0
  4  5  1  0  0  0  0
  5  6  1  0  0  0  0
  6  7  1  0  0  0  0
  7  8  2  0  0  0  0
  7  9  1  0  0  0  0
  9 10  1  0  0  0  0
  6 11  1  0  0  0  0
 11 17  1  0  0  0  0
 11 12  1  0  0  0  0
 12 13  2  0  0  0  0
 13 14  1  0  0  0  0
 14 15  2  0  0  0  0
 14 16  2  0  0  0  0
 14 17  1  0  0  0  0
  5 18  2  0  0  0  0
 18 19  1  0  0  0  0
 19 20  1  0  0  0  0
 20 24  1  0  0  0  0
 20 21  2  0  0  0  0
 21 22  1  0  0  0  0
 22 23  1  0  0  0  0
 23 24  2  0  0  0  0
 18 25  1  0  0  0  0
M  END
$$$$
SAL-INS-1c7-10
  -OEChem-03232022352D

 25 27  0     1  0  0  0  0  0999 V2000
   -4.5519    0.5601    0.0000 O   0  0  0  0  0  0  0  0  0  0  0  0
   -3.8101    1.2307    0.0000 C   0  0  0  0  0  0  0  0  0  0  0  0
   -4.0199    2.2084    0.0000 C   0  0  0  0  0  0  0  0  0  0  0  0
   -4.9715    2.5156    0.0000 Cl  0  0  0  0  0  0  0  0  0  0  0  0
   -2.8584    0.9235    0.0000 N   0  0  0  0  0  0  0  0  0  0  0  0
   -2.1166    1.5940    0.0000 C   0  0  0  0  0  0  0  0  0  0  0  0
   -2.3250    2.5721    0.0000 C   0  0  0  0  0  0  0  0  0  0  0  0
   -1.5860    3.2459    0.0000 C   0  0  0  0  0  0  0  0  0  0  0  0
   -0.6290    2.9385    0.0000 C   0  0  0  0  0  0  0  0  0  0  0  0
    0.1099    3.6124    0.0000 F   0  0  0  0  0  0  0  0  0  0  0  0
   -0.4109    1.9574    0.0000 C   0  0  0  0  0  0  0  0  0  0  0  0
   -1.1595    1.2867    0.0000 C   0  0  0  0  0  0  0  0  0  0  0  0
   -0.9512    0.3086    0.0000 C   0  0  0  0  0  0  0  0  0  0  0  0
    0.0000    0.0000    0.0000 C   0  0  0  0  0  0  0  0  0  0  0  0
    0.3065   -0.9519    0.0000 C   0  0  0  0  0  0  0  0  0  0  0  0
    1.3080   -0.9519    0.0000 N   0  0  0  0  0  0  0  0  0  0  0  0
    1.6198   -0.0000    0.0000 C   0  0  0  0  0  0  0  0  0  0  0  0
    0.8073    0.5909    0.0000 N   0  0  0  0  0  0  0  0  0  0  0  0
   -2.6486   -0.0543    0.0000 C   0  0  3  0  0  0  0  0  0  0  0  0
   -1.7324   -0.4588    0.0000 C   0  0  0  0  0  0  0  0  0  0  0  0
   -1.8365   -1.4534    0.0000 C   0  0  0  0  0  0  0  0  0  0  0  0
   -2.8137   -1.6679    0.0000 S   0  0  0  0  0  0  0  0  0  0  0  0
   -2.4996   -2.6173    0.0000 O   0  0  0  0  0  0  0  0  0  0  0  0
   -3.7256   -2.0782    0.0000 O   0  0  0  0  0  0  0  0  0  0  0  0
   -3.3183   -0.7991    0.0000 C   0  0  0  0  0  0  0  0  0  0  0  0
  1  2  2  0  0  0  0
  2  3  1  0  0  0  0
  3  4  1  0  0  0  0
  2  5  1  0  0  0  0
  5  6  1  0  0  0  0
  6 12  2  0  0  0  0
  6  7  1  0  0  0  0
  7  8  2  0  0  0  0
  8  9  1  0  0  0  0
  9 10  1  0  0  0  0
  9 11  2  0  0  0  0
 11 12  1  0  0  0  0
 12 13  1  0  0  0  0
 13 14  1  0  0  0  0
 14 18  1  0  0  0  0
 14 15  2  0  0  0  0
 15 16  1  0  0  0  0
 16 17  1  0  0  0  0
 17 18  2  0  0  0  0
  5 19  1  0  0  0  0
 19 25  1  0  0  0  0
 19 20  1  0  0  0  0
 20 21  2  0  0  0  0
 21 22  1  0  0  0  0
 22 23  2  0  0  0  0
 22 24  2  0  0  0  0
 22 25  1  0  0  0  0
M  END
$$$$
SAL-INS-1c7-11
  -OEChem-03232022352D

 23 25  0     1  0  0  0  0  0999 V2000
    1.7335   -3.0027    0.0000 O   0  0  0  0  0  0  0  0  0  0  0  0
    0.8675   -2.5027    0.0000 C   0  0  0  0  0  0  0  0  0  0  0  0
    0.0015   -3.0027    0.0000 C   0  0  0  0  0  0  0  0  0  0  0  0
    0.0015   -4.0027    0.0000 Cl  0  0  0  0  0  0  0  0  0  0  0  0
    0.8675   -1.5027    0.0000 N   0  0  0  0  0  0  0  0  0  0  0  0
    0.0000   -1.0052    0.0000 C   0  0  0  0  0  0  0  0  0  0  0  0
    0.0000    0.0000    0.0000 C   0  0  0  0  0  0  0  0  0  0  0  0
    0.8675    0.5077    0.0000 N   0  0  3  0  0  0  0  0  0  0  0  0
    0.8675    1.5077    0.0000 C   0  0  0  0  0  0  0  0  0  0  0  0
    0.0015    2.0077    0.0000 C   0  0  0  0  0  0  0  0  0  0  0  0
   -0.1000    3.0026    0.0000 C   0  0  0  0  0  0  0  0  0  0  0  0
   -1.0795    3.2112    0.0000 C   0  0  0  0  0  0  0  0  0  0  0  0
   -1.5828    2.3452    0.0000 C   0  0  0  0  0  0  0  0  0  0  0  0
   -2.5775    2.2425    0.0000 Br  0  0  0  0  0  0  0  0  0  0  0  0
   -0.9112    1.5980    0.0000 S   0  0  0  0  0  0  0  0  0  0  0  0
    1.7350   -0.0000    0.0000 C   0  0  3  0  0  0  0  0  0  0  0  0
    2.6025    0.4974    0.0000 C   0  0  0  0  0  0  0  0  0  0  0  0
    2.6025    1.5026    0.0000 C   0  0  0  0  0  0  0  0  0  0  0  0
    3.4700    2.0001    0.0000 C   0  0  0  0  0  0  0  0  0  0  0  0
    4.3375    1.5026    0.0000 C   0  0  0  0  0  0  0  0  0  0  0  0
    4.3375    0.4974    0.0000 C   0  0  0  0  0  0  0  0  0  0  0  0
    3.4700   -0.0103    0.0000 C   0  0  0  0  0  0  0  0  0  0  0  0
    1.7350   -1.0052    0.0000 C   0  0  0  0  0  0  0  0  0  0  0  0
  1  2  2  0  0  0  0
  2  3  1  0  0  0  0
  3  4  1  0  0  0  0
  2  5  1  0  0  0  0
  5 23  1  0  0  0  0
  5  6  1  0  0  0  0
  6  7  1  0  0  0  0
  7  8  1  0  0  0  0
  8  9  1  0  0  0  0
  9 10  1  0  0  0  0
 10 15  1  0  0  0  0
 10 11  2  0  0  0  0
 11 12  1  0  0  0  0
 12 13  2  0  0  0  0
 13 14  1  0  0  0  0
 13 15  1  0  0  0  0
  8 16  1  0  0  0  0
 16 17  1  0  0  0  0
 17 22  2  0  0  0  0
 17 18  1  0  0  0  0
 18 19  2  0  0  0  0
 19 20  1  0  0  0  0
 20 21  2  0  0  0  0
 21 22  1  0  0  0  0
 16 23  1  0  0  0  0
M  END
$$$$
SAL-INS-1c7-12
  -OEChem-03232022352D

 22 24  0     1  0  0  0  0  0999 V2000
    1.7335   -3.0027    0.0000 O   0  0  0  0  0  0  0  0  0  0  0  0
    0.8675   -2.5027    0.0000 C   0  0  0  0  0  0  0  0  0  0  0  0
    0.0015   -3.0027    0.0000 C   0  0  0  0  0  0  0  0  0  0  0  0
    0.0015   -4.0027    0.0000 Cl  0  0  0  0  0  0  0  0  0  0  0  0
    0.8675   -1.5027    0.0000 N   0  0  0  0  0  0  0  0  0  0  0  0
    0.0000   -1.0052    0.0000 C   0  0  0  0  0  0  0  0  0  0  0  0
    0.0000    0.0000    0.0000 C   0  0  0  0  0  0  0  0  0  0  0  0
    0.8675    0.5077    0.0000 N   0  0  3  0  0  0  0  0  0  0  0  0
    0.8675    1.5077    0.0000 C   0  0  0  0  0  0  0  0  0  0  0  0
    0.0015    2.0077    0.0000 C   0  0  0  0  0  0  0  0  0  0  0  0
   -0.1000    3.0026    0.0000 C   0  0  0  0  0  0  0  0  0  0  0  0
   -1.0795    3.2112    0.0000 C   0  0  0  0  0  0  0  0  0  0  0  0
   -1.5828    2.3452    0.0000 C   0  0  0  0  0  0  0  0  0  0  0  0
   -2.5775    2.2425    0.0000 Br  0  0  0  0  0  0  0  0  0  0  0  0
   -0.9112    1.5980    0.0000 S   0  0  0  0  0  0  0  0  0  0  0  0
    1.7350   -0.0000    0.0000 C   0  0  3  0  0  0  0  0  0  0  0  0
    2.6025    0.4974    0.0000 C   0  0  0  0  0  0  0  0  0  0  0  0
    3.5136    0.0852    0.0000 C   0  0  0  0  0  0  0  0  0  0  0  0
    4.1862    0.8272    0.0000 N   0  0  0  0  0  0  0  0  0  0  0  0
    3.6904    1.6975    0.0000 C   0  0  0  0  0  0  0  0  0  0  0  0
    2.7069    1.4924    0.0000 N   0  0  0  0  0  0  0  0  0  0  0  0
    1.7350   -1.0052    0.0000 C   0  0  0  0  0  0  0  0  0  0  0  0
  1  2  2  0  0  0  0
  2  3  1  0  0  0  0
  3  4  1  0  0  0  0
  2  5  1  0  0  0  0
  5 22  1  0  0  0  0
  5  6  1  0  0  0  0
  6  7  1  0  0  0  0
  7  8  1  0  0  0  0
  8  9  1  0  0  0  0
  9 10  1  0  0  0  0
 10 15  1  0  0  0  0
 10 11  2  0  0  0  0
 11 12  1  0  0  0  0
 12 13  2  0  0  0  0
 13 14  1  0  0  0  0
 13 15  1  0  0  0  0
  8 16  1  0  0  0  0
 16 17  1  0  0  0  0
 17 21  1  0  0  0  0
 17 18  2  0  0  0  0
 18 19  1  0  0  0  0
 19 20  2  0  0  0  0
 20 21  1  0  0  0  0
 16 22  1  0  0  0  0
M  END
$$$$
ANT-LOU-17a-1
  -OEChem-03232022352D

 24 25  0     0  0  0  0  0  0999 V2000
   -0.8734    3.5027    0.0000 O   0  0  0  0  0  0  0  0  0  0  0  0
   -1.7379    3.0001    0.0000 C   0  0  0  0  0  0  0  0  0  0  0  0
   -1.7350    2.0001    0.0000 N   0  0  0  0  0  0  0  0  0  0  0  0
   -0.8675    1.5027    0.0000 C   0  0  0  0  0  0  0  0  0  0  0  0
   -0.8675    0.4975    0.0000 C   0  0  0  0  0  0  0  0  0  0  0  0
    0.0000    0.0000    0.0000 C   0  0  0  0  0  0  0  0  0  0  0  0
    0.0000   -1.0000    0.0000 O   0  0  0  0  0  0  0  0  0  0  0  0
    0.8675    0.4975    0.0000 C   0  0  0  0  0  0  0  0  0  0  0  0
    1.7328   -0.0038    0.0000 O   0  0  0  0  0  0  0  0  0  0  0  0
    0.8675    1.5027    0.0000 C   0  0  0  0  0  0  0  0  0  0  0  0
    1.7350    2.0001    0.0000 O   0  0  0  0  0  0  0  0  0  0  0  0
   -0.0000    2.0104    0.0000 C   0  0  0  0  0  0  0  0  0  0  0  0
   -2.6054    3.4976    0.0000 C   0  0  0  0  0  0  0  0  0  0  0  0
   -3.4700    2.9950    0.0000 O   0  0  0  0  0  0  0  0  0  0  0  0
   -2.6084    4.4976    0.0000 N   0  0  0  0  0  0  0  0  0  0  0  0
   -3.4759    4.9950    0.0000 C   0  0  0  0  0  0  0  0  0  0  0  0
   -3.4759    6.0002    0.0000 C   0  0  0  0  0  0  0  0  0  0  0  0
   -4.3434    6.4977    0.0000 C   0  0  0  0  0  0  0  0  0  0  0  0
   -4.3434    7.4977    0.0000 O   0  0  0  0  0  0  0  0  0  0  0  0
   -5.2109    6.0002    0.0000 C   0  0  0  0  0  0  0  0  0  0  0  0
   -6.0762    6.5015    0.0000 O   0  0  0  0  0  0  0  0  0  0  0  0
   -5.2109    4.9950    0.0000 C   0  0  0  0  0  0  0  0  0  0  0  0
   -6.0784    4.4976    0.0000 O   0  0  0  0  0  0  0  0  0  0  0  0
   -4.3434    4.4873    0.0000 C   0  0  0  0  0  0  0  0  0  0  0  0
  1  2  2  0  0  0  0
  2  3  1  0  0  0  0
  3  4  1  0  0  0  0
  4 12  2  0  0  0  0
  4  5  1  0  0  0  0
  5  6  2  0  0  0  0
  6  7  1  0  0  0  0
  6  8  1  0  0  0  0
  8  9  1  0  0  0  0
  8 10  2  0  0  0  0
 10 11  1  0  0  0  0
 10 12  1  0  0  0  0
  2 13  1  0  0  0  0
 13 14  2  0  0  0  0
 13 15  1  0  0  0  0
 15 16  1  0  0  0  0
 16 24  2  0  0  0  0
 16 17  1  0  0  0  0
 17 18  2  0  0  0  0
 18 19  1  0  0  0  0
 18 20  1  0  0  0  0
 20 21  1  0  0  0  0
 20 22  2  0  0  0  0
 22 23  1  0  0  0  0
 22 24  1  0  0  0  0
M  END
$$$$
ANT-LOU-17a-2
  -OEChem-03232022352D

 30 31  0     0  0  0  0  0  0999 V2000
   -1.7335   -3.0027    0.0000 C   0  0  0  0  0  0  0  0  0  0  0  0
   -0.8675   -2.5027    0.0000 O   0  0  0  0  0  0  0  0  0  0  0  0
   -0.8675   -1.5027    0.0000 C   0  0  0  0  0  0  0  0  0  0  0  0
    0.0000   -1.0052    0.0000 C   0  0  0  0  0  0  0  0  0  0  0  0
    0.0000    0.0000    0.0000 C   0  0  0  0  0  0  0  0  0  0  0  0
    0.8675    0.4974    0.0000 N   0  0  0  0  0  0  0  0  0  0  0  0
    0.8704    1.4974    0.0000 C   0  0  0  0  0  0  0  0  0  0  0  0
    0.0059    2.0000    0.0000 O   0  0  0  0  0  0  0  0  0  0  0  0
    1.7379    1.9949    0.0000 C   0  0  0  0  0  0  0  0  0  0  0  0
    2.6025    1.4923    0.0000 O   0  0  0  0  0  0  0  0  0  0  0  0
    1.7409    2.9949    0.0000 N   0  0  0  0  0  0  0  0  0  0  0  0
    2.6084    3.4923    0.0000 C   0  0  0  0  0  0  0  0  0  0  0  0
    3.4759    2.9846    0.0000 C   0  0  0  0  0  0  0  0  0  0  0  0
    4.3435    3.4820    0.0000 C   0  0  0  0  0  0  0  0  0  0  0  0
    5.2065    2.9769    0.0000 O   0  0  0  0  0  0  0  0  0  0  0  0
    6.0755    3.4718    0.0000 C   0  0  0  0  0  0  0  0  0  0  0  0
    4.3523    4.4820    0.0000 C   0  0  0  0  0  0  0  0  0  0  0  0
    5.2220    4.9756    0.0000 O   0  0  0  0  0  0  0  0  0  0  0  0
    5.2293    5.9756    0.0000 C   0  0  0  0  0  0  0  0  0  0  0  0
    3.4847    4.9897    0.0000 C   0  0  0  0  0  0  0  0  0  0  0  0
    3.4936    5.9897    0.0000 O   0  0  0  0  0  0  0  0  0  0  0  0
    2.6320    6.4973    0.0000 C   0  0  0  0  0  0  0  0  0  0  0  0
    2.6084    4.4975    0.0000 C   0  0  0  0  0  0  0  0  0  0  0  0
   -0.8675    0.5077    0.0000 C   0  0  0  0  0  0  0  0  0  0  0  0
   -1.7350   -0.0000    0.0000 C   0  0  0  0  0  0  0  0  0  0  0  0
   -2.6025    0.4974    0.0000 O   0  0  0  0  0  0  0  0  0  0  0  0
   -3.4670   -0.0051    0.0000 C   0  0  0  0  0  0  0  0  0  0  0  0
   -1.7350   -1.0052    0.0000 C   0  0  0  0  0  0  0  0  0  0  0  0
   -2.6003   -1.5065    0.0000 O   0  0  0  0  0  0  0  0  0  0  0  0
   -2.5988   -2.5065    0.0000 C   0  0  0  0  0  0  0  0  0  0  0  0
  1  2  1  0  0  0  0
  2  3  1  0  0  0  0
  3 28  2  0  0  0  0
  3  4  1  0  0  0  0
  4  5  2  0  0  0  0
  5  6  1  0  0  0  0
  6  7  1  0  0  0  0
  7  8  2  0  0  0  0
  7  9  1  0  0  0  0
  9 10  2  0  0  0  0
  9 11  1  0  0  0  0
 11 12  1  0  0  0  0
 12 23  2  0  0  0  0
 12 13  1  0  0  0  0
 13 14  2  0  0  0  0
 14 15  1  0  0  0  0
 15 16  1  0  0  0  0
 14 17  1  0  0  0  0
 17 18  1  0  0  0  0
 18 19  1  0  0  0  0
 17 20  2  0  0  0  0
 20 21  1  0  0  0  0
 21 22  1  0  0  0  0
 20 23  1  0  0  0  0
  5 24  1  0  0  0  0
 24 25  2  0  0  0  0
 25 26  1  0  0  0  0
 26 27  1  0  0  0  0
 25 28  1  0  0  0  0
 28 29  1  0  0  0  0
 29 30  1  0  0  0  0
M  END
$$$$
ANT-LOU-17a-3
  -OEChem-03232022352D

 20 20  0     0  0  0  0  0  0999 V2000
   -3.4788    5.9950    0.0000 C   0  0  0  0  0  0  0  0  0  0  0  0
   -3.4759    4.9950    0.0000 C   0  0  0  0  0  0  0  0  0  0  0  0
   -2.6084    4.4976    0.0000 O   0  0  0  0  0  0  0  0  0  0  0  0
   -2.6054    3.4976    0.0000 C   0  0  0  0  0  0  0  0  0  0  0  0
   -3.4700    2.9950    0.0000 O   0  0  0  0  0  0  0  0  0  0  0  0
   -1.7379    3.0001    0.0000 C   0  0  0  0  0  0  0  0  0  0  0  0
   -0.8734    3.5027    0.0000 O   0  0  0  0  0  0  0  0  0  0  0  0
   -1.7350    2.0001    0.0000 N   0  0  0  0  0  0  0  0  0  0  0  0
   -0.8675    1.5027    0.0000 C   0  0  0  0  0  0  0  0  0  0  0  0
   -0.8675    0.4975    0.0000 C   0  0  0  0  0  0  0  0  0  0  0  0
    0.0000    0.0000    0.0000 C   0  0  0  0  0  0  0  0  0  0  0  0
    0.0000   -1.0000    0.0000 O   0  0  0  0  0  0  0  0  0  0  0  0
    0.8660   -1.5000    0.0000 C   0  0  0  0  0  0  0  0  0  0  0  0
    0.8675    0.4975    0.0000 C   0  0  0  0  0  0  0  0  0  0  0  0
    1.7328   -0.0038    0.0000 O   0  0  0  0  0  0  0  0  0  0  0  0
    2.5995    0.4950    0.0000 C   0  0  0  0  0  0  0  0  0  0  0  0
    0.8675    1.5027    0.0000 C   0  0  0  0  0  0  0  0  0  0  0  0
    1.7350    2.0001    0.0000 O   0  0  0  0  0  0  0  0  0  0  0  0
    1.7379    3.0001    0.0000 C   0  0  0  0  0  0  0  0  0  0  0  0
   -0.0000    2.0104    0.0000 C   0  0  0  0  0  0  0  0  0  0  0  0
  1  2  1  0  0  0  0
  2  3  1  0  0  0  0
  3  4  1  0  0  0  0
  4  5  2  0  0  0  0
  4  6  1  0  0  0  0
  6  7  2  0  0  0  0
  6  8  1  0  0  0  0
  8  9  1  0  0  0  0
  9 20  2  0  0  0  0
  9 10  1  0  0  0  0
 10 11  2  0  0  0  0
 11 12  1  0  0  0  0
 12 13  1  0  0  0  0
 11 14  1  0  0  0  0
 14 15  1  0  0  0  0
 15 16  1  0  0  0  0
 14 17  2  0  0  0  0
 17 18  1  0  0  0  0
 18 19  1  0  0  0  0
 17 20  1  0  0  0  0
M  END
$$$$
HEI-REL-0c9-1
  -OEChem-03232022352D

 25 27  0     1  0  0  0  0  0999 V2000
    7.8105   -1.5269    0.0000 C   0  0  0  0  0  0  0  0  0  0  0  0
    7.8158   -0.5269    0.0000 C   0  0  0  0  0  0  0  0  0  0  0  0
    8.6845   -0.0316    0.0000 O   0  0  0  0  0  0  0  0  0  0  0  0
    6.9525   -0.0223    0.0000 N   0  0  0  0  0  0  0  0  0  0  0  0
    6.9519    0.9828    0.0000 C   0  0  0  0  0  0  0  0  0  0  0  0
    6.0841    1.4901    0.0000 C   0  0  0  0  0  0  0  0  0  0  0  0
    5.2168    0.9922    0.0000 N   0  0  0  0  0  0  0  0  0  0  0  0
    4.3535    1.4968    0.0000 C   0  0  0  0  0  0  0  0  0  0  0  0
    3.4848    1.0014    0.0000 C   0  0  3  0  0  0  0  0  0  0  0  0
    3.4805   -0.0073    0.0000 C   0  0  0  0  0  0  0  0  0  0  0  0
    2.6039   -0.5053    0.0000 C   0  0  0  0  0  0  0  0  0  0  0  0
    1.7371   -0.0000    0.0000 C   0  0  0  0  0  0  0  0  0  0  0  0
    0.8707   -0.4993    0.0000 C   0  0  0  0  0  0  0  0  0  0  0  0
    0.0000    0.0000    0.0000 C   0  0  0  0  0  0  0  0  0  0  0  0
    0.0000    1.0089    0.0000 C   0  0  0  0  0  0  0  0  0  0  0  0
   -0.8675    1.5063    0.0000 S   0  0  0  0  0  0  0  0  0  0  0  0
   -1.7350    2.0038    0.0000 N   0  0  0  0  0  0  0  0  0  0  0  0
   -1.3649    0.6388    0.0000 O   0  0  0  0  0  0  0  0  0  0  0  0
   -0.3701    2.3738    0.0000 O   0  0  0  0  0  0  0  0  0  0  0  0
    0.8707    1.5185    0.0000 C   0  0  0  0  0  0  0  0  0  0  0  0
    1.7414    1.0089    0.0000 C   0  0  0  0  0  0  0  0  0  0  0  0
    2.6125    1.5125    0.0000 N   0  0  3  0  0  0  0  0  0  0  0  0
    2.6154    2.5125    0.0000 C   0  0  0  0  0  0  0  0  0  0  0  0
    5.2086   -0.0078    0.0000 C   0  0  0  0  0  0  0  0  0  0  0  0
    6.0764   -0.5151    0.0000 C   0  0  0  0  0  0  0  0  0  0  0  0
  1  2  1  0  0  0  0
  2  3  2  0  0  0  0
  2  4  1  0  0  0  0
  4 25  1  0  0  0  0
  4  5  1  0  0  0  0
  5  6  1  0  0  0  0
  6  7  1  0  0  0  0
  7  8  1  0  0  0  0
  8  9  1  0  0  0  0
  9 22  1  0  0  0  0
  9 10  1  0  0  0  0
 10 11  1  0  0  0  0
 11 12  1  0  0  0  0
 12 21  2  0  0  0  0
 12 13  1  0  0  0  0
 13 14  2  0  0  0  0
 14 15  1  0  0  0  0
 15 16  1  0  0  0  0
 16 17  1  0  0  0  0
 16 18  2  0  0  0  0
 16 19  2  0  0  0  0
 15 20  2  0  0  0  0
 20 21  1  0  0  0  0
 21 22  1  0  0  0  0
 22 23  1  0  0  0  0
  7 24  1  0  0  0  0
 24 25  1  0  0  0  0
M  END
$$$$
HEI-REL-0c9-2
  -OEChem-03232022352D

 24 26  0     1  0  0  0  0  0999 V2000
    7.8105   -1.5269    0.0000 C   0  0  0  0  0  0  0  0  0  0  0  0
    7.8158   -0.5269    0.0000 C   0  0  0  0  0  0  0  0  0  0  0  0
    8.6845   -0.0316    0.0000 O   0  0  0  0  0  0  0  0  0  0  0  0
    6.9525   -0.0223    0.0000 N   0  0  0  0  0  0  0  0  0  0  0  0
    6.9519    0.9828    0.0000 C   0  0  0  0  0  0  0  0  0  0  0  0
    6.0841    1.4901    0.0000 C   0  0  0  0  0  0  0  0  0  0  0  0
    5.2168    0.9922    0.0000 N   0  0  0  0  0  0  0  0  0  0  0  0
    4.3535    1.4968    0.0000 C   0  0  0  0  0  0  0  0  0  0  0  0
    3.4848    1.0014    0.0000 C   0  0  3  0  0  0  0  0  0  0  0  0
    3.4805   -0.0073    0.0000 C   0  0  0  0  0  0  0  0  0  0  0  0
    2.6039   -0.5053    0.0000 C   0  0  0  0  0  0  0  0  0  0  0  0
    1.7371   -0.0000    0.0000 C   0  0  0  0  0  0  0  0  0  0  0  0
    0.8707   -0.4993    0.0000 C   0  0  0  0  0  0  0  0  0  0  0  0
    0.0000    0.0000    0.0000 C   0  0  0  0  0  0  0  0  0  0  0  0
    0.0000    1.0089    0.0000 C   0  0  0  0  0  0  0  0  0  0  0  0
   -0.8675    1.5063    0.0000 S   0  0  0  0  0  0  0  0  0  0  0  0
   -1.7350    2.0038    0.0000 N   0  0  0  0  0  0  0  0  0  0  0  0
   -1.3649    0.6388    0.0000 O   0  0  0  0  0  0  0  0  0  0  0  0
   -0.3701    2.3738    0.0000 O   0  0  0  0  0  0  0  0  0  0  0  0
    0.8707    1.5185    0.0000 C   0  0  0  0  0  0  0  0  0  0  0  0
    1.7414    1.0089    0.0000 C   0  0  0  0  0  0  0  0  0  0  0  0
    2.6125    1.5125    0.0000 N   0  0  0  0  0  0  0  0  0  0  0  0
    5.2086   -0.0078    0.0000 C   0  0  0  0  0  0  0  0  0  0  0  0
    6.0764   -0.5151    0.0000 C   0  0  0  0  0  0  0  0  0  0  0  0
  1  2  1  0  0  0  0
  2  3  2  0  0  0  0
  2  4  1  0  0  0  0
  4 24  1  0  0  0  0
  4  5  1  0  0  0  0
  5  6  1  0  0  0  0
  6  7  1  0  0  0  0
  7  8  1  0  0  0  0
  8  9  1  0  0  0  0
  9 22  1  0  0  0  0
  9 10  1  0  0  0  0
 10 11  1  0  0  0  0
 11 12  1  0  0  0  0
 12 21  2  0  0  0  0
 12 13  1  0  0  0  0
 13 14  2  0  0  0  0
 14 15  1  0  0  0  0
 15 16  1  0  0  0  0
 16 17  1  0  0  0  0
 16 18  2  0  0  0  0
 16 19  2  0  0  0  0
 15 20  2  0  0  0  0
 20 21  1  0  0  0  0
 21 22  1  0  0  0  0
  7 23  1  0  0  0  0
 23 24  1  0  0  0  0
M  END
$$$$
HEI-REL-0c9-3
  -OEChem-03232022352D

 25 27  0     0  0  0  0  0  0999 V2000
    7.8105   -1.5269    0.0000 C   0  0  0  0  0  0  0  0  0  0  0  0
    7.8158   -0.5269    0.0000 C   0  0  0  0  0  0  0  0  0  0  0  0
    8.6845   -0.0316    0.0000 O   0  0  0  0  0  0  0  0  0  0  0  0
    6.9525   -0.0223    0.0000 N   0  0  0  0  0  0  0  0  0  0  0  0
    6.9519    0.9828    0.0000 C   0  0  0  0  0  0  0  0  0  0  0  0
    6.0841    1.4901    0.0000 C   0  0  0  0  0  0  0  0  0  0  0  0
    5.2168    0.9922    0.0000 C   0  0  0  0  0  0  0  0  0  0  0  0
    4.3535    1.4968    0.0000 C   0  0  0  0  0  0  0  0  0  0  0  0
    3.4848    1.0014    0.0000 N   0  0  0  0  0  0  0  0  0  0  0  0
    3.4805   -0.0073    0.0000 C   0  0  0  0  0  0  0  0  0  0  0  0
    2.6039   -0.5053    0.0000 C   0  0  0  0  0  0  0  0  0  0  0  0
    1.7371   -0.0000    0.0000 C   0  0  0  0  0  0  0  0  0  0  0  0
    0.8707   -0.4993    0.0000 C   0  0  0  0  0  0  0  0  0  0  0  0
    0.0000    0.0000    0.0000 C   0  0  0  0  0  0  0  0  0  0  0  0
    0.0000    1.0089    0.0000 C   0  0  0  0  0  0  0  0  0  0  0  0
   -0.8675    1.5063    0.0000 S   0  0  0  0  0  0  0  0  0  0  0  0
   -1.7350    2.0038    0.0000 N   0  0  0  0  0  0  0  0  0  0  0  0
   -1.3649    0.6388    0.0000 O   0  0  0  0  0  0  0  0  0  0  0  0
   -0.3701    2.3738    0.0000 O   0  0  0  0  0  0  0  0  0  0  0  0
    0.8707    1.5185    0.0000 C   0  0  0  0  0  0  0  0  0  0  0  0
    1.7414    1.0089    0.0000 C   0  0  0  0  0  0  0  0  0  0  0  0
    2.6125    1.5125    0.0000 C   0  0  0  0  0  0  0  0  0  0  0  0
    2.6154    2.5125    0.0000 O   0  0  0  0  0  0  0  0  0  0  0  0
    5.2086   -0.0078    0.0000 C   0  0  0  0  0  0  0  0  0  0  0  0
    6.0764   -0.5151    0.0000 C   0  0  0  0  0  0  0  0  0  0  0  0
  1  2  1  0  0  0  0
  2  3  2  0  0  0  0
  2  4  1  0  0  0  0
  4 25  1  0  0  0  0
  4  5  1  0  0  0  0
  5  6  1  0  0  0  0
  6  7  1  0  0  0  0
  7  8  1  0  0  0  0
  8  9  1  0  0  0  0
  9 22  1  0  0  0  0
  9 10  1  0  0  0  0
 10 11  1  0  0  0  0
 11 12  1  0  0  0  0
 12 21  2  0  0  0  0
 12 13  1  0  0  0  0
 13 14  2  0  0  0  0
 14 15  1  0  0  0  0
 15 16  1  0  0  0  0
 16 17  1  0  0  0  0
 16 18  2  0  0  0  0
 16 19  2  0  0  0  0
 15 20  2  0  0  0  0
 20 21  1  0  0  0  0
 21 22  1  0  0  0  0
 22 23  2  0  0  0  0
  7 24  1  0  0  0  0
 24 25  1  0  0  0  0
M  END
$$$$
HEI-REL-0c9-4
  -OEChem-03232022352D

 25 27  0     0  0  0  0  0  0999 V2000
    7.8105   -1.5269    0.0000 C   0  0  0  0  0  0  0  0  0  0  0  0
    7.8158   -0.5269    0.0000 C   0  0  0  0  0  0  0  0  0  0  0  0
    8.6845   -0.0316    0.0000 O   0  0  0  0  0  0  0  0  0  0  0  0
    6.9525   -0.0223    0.0000 N   0  0  0  0  0  0  0  0  0  0  0  0
    6.9519    0.9828    0.0000 C   0  0  0  0  0  0  0  0  0  0  0  0
    6.0841    1.4901    0.0000 C   0  0  0  0  0  0  0  0  0  0  0  0
    5.2168    0.9922    0.0000 N   0  0  0  0  0  0  0  0  0  0  0  0
    4.3535    1.4968    0.0000 C   0  0  0  0  0  0  0  0  0  0  0  0
    3.4848    1.0014    0.0000 C   0  0  0  0  0  0  0  0  0  0  0  0
    3.4805   -0.0073    0.0000 C   0  0  0  0  0  0  0  0  0  0  0  0
    2.6039   -0.5053    0.0000 C   0  0  0  0  0  0  0  0  0  0  0  0
    2.5983   -1.5053    0.0000 Cl  0  0  0  0  0  0  0  0  0  0  0  0
    1.7371   -0.0000    0.0000 C   0  0  0  0  0  0  0  0  0  0  0  0
    0.8707   -0.4993    0.0000 C   0  0  0  0  0  0  0  0  0  0  0  0
    0.0000    0.0000    0.0000 C   0  0  0  0  0  0  0  0  0  0  0  0
    0.0000    1.0089    0.0000 C   0  0  0  0  0  0  0  0  0  0  0  0
   -0.8675    1.5063    0.0000 S   0  0  0  0  0  0  0  0  0  0  0  0
   -1.7350    2.0038    0.0000 N   0  0  0  0  0  0  0  0  0  0  0  0
   -1.3649    0.6388    0.0000 O   0  0  0  0  0  0  0  0  0  0  0  0
   -0.3701    2.3738    0.0000 O   0  0  0  0  0  0  0  0  0  0  0  0
    0.8707    1.5185    0.0000 C   0  0  0  0  0  0  0  0  0  0  0  0
    1.7414    1.0089    0.0000 C   0  0  0  0  0  0  0  0  0  0  0  0
    2.6125    1.5125    0.0000 N   0  0  0  0  0  0  0  0  0  0  0  0
    5.2086   -0.0078    0.0000 C   0  0  0  0  0  0  0  0  0  0  0  0
    6.0764   -0.5151    0.0000 C   0  0  0  0  0  0  0  0  0  0  0  0
  1  2  1  0  0  0  0
  2  3  2  0  0  0  0
  2  4  1  0  0  0  0
  4 25  1  0  0  0  0
  4  5  1  0  0  0  0
  5  6  1  0  0  0  0
  6  7  1  0  0  0  0
  7  8  1  0  0  0  0
  8  9  1  0  0  0  0
  9 23  2  0  0  0  0
  9 10  1  0  0  0  0
 10 11  2  0  0  0  0
 11 12  1  0  0  0  0
 11 13  1  0  0  0  0
 13 22  2  0  0  0  0
 13 14  1  0  0  0  0
 14 15  2  0  0  0  0
 15 16  1  0  0  0  0
 16 17  1  0  0  0  0
 17 18  1  0  0  0  0
 17 19  2  0  0  0  0
 17 20  2  0  0  0  0
 16 21  2  0  0  0  0
 21 22  1  0  0  0  0
 22 23  1  0  0  0  0
  7 24  1  0  0  0  0
 24 25  1  0  0  0  0
M  END
$$$$
HEI-REL-0c9-5
  -OEChem-03232022352D

 25 27  0     1  0  0  0  0  0999 V2000
    1.7335    3.0129    0.0000 C   0  0  0  0  0  0  0  0  0  0  0  0
    0.8675    2.5129    0.0000 C   0  0  0  0  0  0  0  0  0  0  0  0
    0.0015    3.0129    0.0000 O   0  0  0  0  0  0  0  0  0  0  0  0
    0.8675    1.5129    0.0000 N   0  0  0  0  0  0  0  0  0  0  0  0
    0.0000    1.0052    0.0000 C   0  0  0  0  0  0  0  0  0  0  0  0
    0.0000    0.0000    0.0000 C   0  0  0  0  0  0  0  0  0  0  0  0
    0.8675   -0.4975    0.0000 N   0  0  0  0  0  0  0  0  0  0  0  0
    0.8675   -1.4975    0.0000 C   0  0  0  0  0  0  0  0  0  0  0  0
    1.7335   -1.9975    0.0000 C   0  0  0  0  0  0  0  0  0  0  0  0
    2.6040   -1.4938    0.0000 C   0  0  0  0  0  0  0  0  0  0  0  0
    3.4733   -1.9978    0.0000 C   0  0  0  0  0  0  0  0  0  0  0  0
    4.3395   -1.4981    0.0000 Cl  0  0  0  0  0  0  0  0  0  0  0  0
    3.4743   -2.9978    0.0000 C   0  0  0  0  0  0  0  0  0  0  0  0
    2.6039   -3.5015    0.0000 C   0  0  0  0  0  0  0  0  0  0  0  0
    1.7325   -3.0052    0.0000 C   0  0  0  0  0  0  0  0  0  0  0  0
    2.5978   -4.5070    0.0000 C   0  0  0  0  0  0  0  0  0  0  0  0
    3.4714   -5.0050    0.0000 C   0  0  3  0  0  0  0  0  0  0  0  0
    3.4740   -6.0050    0.0000 S   0  0  0  0  0  0  0  0  0  0  0  0
    3.4766   -7.0050    0.0000 N   0  0  0  0  0  0  0  0  0  0  0  0
    4.4740   -6.0024    0.0000 O   0  0  0  0  0  0  0  0  0  0  0  0
    2.4740   -6.0076    0.0000 O   0  0  0  0  0  0  0  0  0  0  0  0
    4.3425   -4.5024    0.0000 C   0  0  0  0  0  0  0  0  0  0  0  0
    4.3399   -3.5019    0.0000 C   0  0  0  0  0  0  0  0  0  0  0  0
    1.7350    0.0000    0.0000 C   0  0  0  0  0  0  0  0  0  0  0  0
    1.7350    1.0052    0.0000 C   0  0  0  0  0  0  0  0  0  0  0  0
  1  2  1  0  0  0  0
  2  3  2  0  0  0  0
  2  4  1  0  0  0  0
  4 25  1  0  0  0  0
  4  5  1  0  0  0  0
  5  6  1  0  0  0  0
  6  7  1  0  0  0  0
  7  8  1  0  0  0  0
  8  9  1  0  0  0  0
  9 15  2  0  0  0  0
  9 10  1  0  0  0  0
 10 11  2  0  0  0  0
 11 12  1  0  0  0  0
 11 13  1  0  0  0  0
 13 23  1  0  0  0  0
 13 14  2  0  0  0  0
 14 15  1  0  0  0  0
 14 16  1  0  0  0  0
 16 17  1  0  0  0  0
 17 18  1  0  0  0  0
 18 19  1  0  0  0  0
 18 20  2  0  0  0  0
 18 21  2  0  0  0  0
 17 22  1  0  0  0  0
 22 23  1  0  0  0  0
  7 24  1  0  0  0  0
 24 25  1  0  0  0  0
M  END
$$$$
HEI-REL-0c9-6
  -OEChem-03232022352D

 28 31  0     1  0  0  0  0  0999 V2000
    5.2168    0.9922    0.0000 C   0  0  0  0  0  0  0  0  0  0  0  0
    4.3535    1.4968    0.0000 C   0  0  0  0  0  0  0  0  0  0  0  0
    4.3588    2.4968    0.0000 O   0  0  0  0  0  0  0  0  0  0  0  0
    3.4848    1.0014    0.0000 N   0  0  0  0  0  0  0  0  0  0  0  0
    2.6125    1.5125    0.0000 C   0  0  0  0  0  0  0  0  0  0  0  0
    1.7414    1.0089    0.0000 C   0  0  0  0  0  0  0  0  0  0  0  0
    0.8707    1.5185    0.0000 C   0  0  0  0  0  0  0  0  0  0  0  0
    0.0000    1.0089    0.0000 C   0  0  0  0  0  0  0  0  0  0  0  0
    0.0000    0.0000    0.0000 C   0  0  0  0  0  0  0  0  0  0  0  0
    0.8707   -0.4993    0.0000 C   0  0  0  0  0  0  0  0  0  0  0  0
    1.7371    0.0000    0.0000 C   0  0  0  0  0  0  0  0  0  0  0  0
    2.6039   -0.5053    0.0000 C   0  0  3  0  0  0  0  0  0  0  0  0
    2.5983   -1.5053    0.0000 C   0  0  3  0  0  0  0  0  0  0  0  0
    3.4696   -2.0136    0.0000 C   0  0  0  0  0  0  0  0  0  0  0  0
    3.4623   -3.0217    0.0000 C   0  0  0  0  0  0  0  0  0  0  0  0
    2.5912   -3.5195    0.0000 C   0  0  0  0  0  0  0  0  0  0  0  0
    2.5902   -4.5195    0.0000 C   0  0  0  0  0  0  0  0  0  0  0  0
    1.7223   -5.0237    0.0000 C   0  0  0  0  0  0  0  0  0  0  0  0
    0.8487   -4.5190    0.0000 C   0  0  0  0  0  0  0  0  0  0  0  0
   -0.0160   -5.0214    0.0000 S   0  0  0  0  0  0  0  0  0  0  0  0
   -0.8806   -5.5237    0.0000 N   0  0  0  0  0  0  0  0  0  0  0  0
    0.4864   -5.8861    0.0000 O   0  0  0  0  0  0  0  0  0  0  0  0
   -0.5183   -4.1567    0.0000 O   0  0  0  0  0  0  0  0  0  0  0  0
    0.8430   -3.5102    0.0000 C   0  0  0  0  0  0  0  0  0  0  0  0
    1.7198   -3.0112    0.0000 C   0  0  0  0  0  0  0  0  0  0  0  0
    1.7194   -2.0050    0.0000 N   0  0  3  0  0  0  0  0  0  0  0  0
    0.8550   -1.5022    0.0000 C   0  0  0  0  0  0  0  0  0  0  0  0
    3.4805   -0.0073    0.0000 C   0  0  0  0  0  0  0  0  0  0  0  0
  1  2  1  0  0  0  0
  2  3  2  0  0  0  0
  2  4  1  0  0  0  0
  4 28  1  0  0  0  0
  4  5  1  0  0  0  0
  5  6  1  0  0  0  0
  6 11  2  0  0  0  0
  6  7  1  0  0  0  0
  7  8  2  0  0  0  0
  8  9  1  0  0  0  0
  9 10  2  0  0  0  0
 10 11  1  0  0  0  0
 11 12  1  0  0  0  0
 12 13  1  0  0  0  0
 13 26  1  0  0  0  0
 13 14  1  0  0  0  0
 14 15  1  0  0  0  0
 15 16  1  0  0  0  0
 16 25  2  0  0  0  0
 16 17  1  0  0  0  0
 17 18  2  0  0  0  0
 18 19  1  0  0  0  0
 19 20  1  0  0  0  0
 20 21  1  0  0  0  0
 20 22  2  0  0  0  0
 20 23  2  0  0  0  0
 19 24  2  0  0  0  0
 24 25  1  0  0  0  0
 25 26  1  0  0  0  0
 26 27  1  0  0  0  0
 12 28  1  0  0  0  0
M  END
$$$$
AGN-NEW-051-1
  -OEChem-03232022352D

 33 35  0     0  0  0  0  0  0999 V2000
    1.7379    3.0001    0.0000 C   0  0  0  0  0  0  0  0  0  0  0  0
    1.7350    2.0001    0.0000 C   0  0  0  0  0  0  0  0  0  0  0  0
    0.8675    1.5027    0.0000 C   0  0  0  0  0  0  0  0  0  0  0  0
   -0.0000    2.0104    0.0000 N   0  0  0  0  0  0  0  0  0  0  0  0
   -0.8675    1.5027    0.0000 C   0  0  0  0  0  0  0  0  0  0  0  0
   -0.8675    0.4975    0.0000 C   0  0  0  0  0  0  0  0  0  0  0  0
   -1.7328   -0.0038    0.0000 C   0  0  0  0  0  0  0  0  0  0  0  0
    0.0000    0.0000    0.0000 C   0  0  0  0  0  0  0  0  0  0  0  0
    0.0000   -1.0000    0.0000 C   0  0  0  0  0  0  0  0  0  0  0  0
    0.8660   -1.5000    0.0000 C   0  0  0  0  0  0  0  0  0  0  0  0
    0.8660   -2.5000    0.0000 N   0  0  0  0  0  0  0  0  0  0  0  0
    1.7321   -3.0000    0.0000 C   0  0  0  0  0  0  0  0  0  0  0  0
    2.5981   -2.5000    0.0000 O   0  0  0  0  0  0  0  0  0  0  0  0
    1.7321   -4.0000    0.0000 C   0  0  0  0  0  0  0  0  0  0  0  0
    2.5981   -4.5000    0.0000 N   0  0  0  0  0  0  0  0  0  0  0  0
    2.6040   -5.5051    0.0000 C   0  0  0  0  0  0  0  0  0  0  0  0
    3.4745   -6.0077    0.0000 C   0  0  0  0  0  0  0  0  0  0  0  0
    4.3391   -5.5052    0.0000 N   0  0  0  0  0  0  0  0  0  0  0  0
    4.3420   -4.5052    0.0000 C   0  0  0  0  0  0  0  0  0  0  0  0
    3.4715   -4.0026    0.0000 C   0  0  0  0  0  0  0  0  0  0  0  0
    0.8675    0.4975    0.0000 C   0  0  0  0  0  0  0  0  0  0  0  0
    1.7328   -0.0038    0.0000 N   0  0  0  0  0  0  0  0  0  0  0  0
    2.5995    0.4950    0.0000 C   0  0  0  0  0  0  0  0  0  0  0  0
    2.6010    1.4950    0.0000 O   0  0  0  0  0  0  0  0  0  0  0  0
    3.4648   -0.0063    0.0000 N   0  0  0  0  0  0  0  0  0  0  0  0
    3.4634   -1.0063    0.0000 C   0  0  0  0  0  0  0  0  0  0  0  0
    4.3316    0.4925    0.0000 C   0  0  0  0  0  0  0  0  0  0  0  0
    4.3301    1.4977    0.0000 C   0  0  0  0  0  0  0  0  0  0  0  0
    5.1968    1.9965    0.0000 C   0  0  0  0  0  0  0  0  0  0  0  0
    5.1953    2.9965    0.0000 C   0  0  0  0  0  0  0  0  0  0  0  0
    6.0651    1.5003    0.0000 C   0  0  0  0  0  0  0  0  0  0  0  0
    6.0666    0.4951    0.0000 C   0  0  0  0  0  0  0  0  0  0  0  0
    5.1999   -0.0139    0.0000 N   0  0  0  0  0  0  0  0  0  0  0  0
  1  2  2  0  0  0  0
  2  3  1  0  0  0  0
  3 21  2  0  0  0  0
  3  4  1  0  0  0  0
  4  5  2  0  0  0  0
  5  6  1  0  0  0  0
  6  7  1  0  0  0  0
  6  8  2  0  0  0  0
  8  9  1  0  0  0  0
  9 10  1  0  0  0  0
 10 11  1  0  0  0  0
 11 12  1  0  0  0  0
 12 13  2  0  0  0  0
 12 14  1  0  0  0  0
 14 15  1  0  0  0  0
 15 20  1  0  0  0  0
 15 16  1  0  0  0  0
 16 17  1  0  0  0  0
 17 18  1  0  0  0  0
 18 19  1  0  0  0  0
 19 20  1  0  0  0  0
  8 21  1  0  0  0  0
 21 22  1  0  0  0  0
 22 23  1  0  0  0  0
 23 24  2  0  0  0  0
 23 25  1  0  0  0  0
 25 26  1  0  0  0  0
 25 27  1  0  0  0  0
 27 33  2  0  0  0  0
 27 28  1  0  0  0  0
 28 29  2  0  0  0  0
 29 30  1  0  0  0  0
 29 31  1  0  0  0  0
 31 32  2  0  0  0  0
 32 33  1  0  0  0  0
M  END
$$$$
AGN-NEW-051-2
  -OEChem-03232022352D

 39 42  0     0  0  0  0  0  0999 V2000
    1.7379    3.0001    0.0000 C   0  0  0  0  0  0  0  0  0  0  0  0
    1.7350    2.0001    0.0000 C   0  0  0  0  0  0  0  0  0  0  0  0
    0.8675    1.5027    0.0000 C   0  0  0  0  0  0  0  0  0  0  0  0
   -0.0000    2.0104    0.0000 N   0  0  0  0  0  0  0  0  0  0  0  0
   -0.8675    1.5027    0.0000 C   0  0  0  0  0  0  0  0  0  0  0  0
   -0.8675    0.4975    0.0000 C   0  0  0  0  0  0  0  0  0  0  0  0
   -1.7328   -0.0038    0.0000 C   0  0  0  0  0  0  0  0  0  0  0  0
    0.0000    0.0000    0.0000 C   0  0  0  0  0  0  0  0  0  0  0  0
    0.0000   -1.0000    0.0000 C   0  0  0  0  0  0  0  0  0  0  0  0
   -0.8660   -1.5000    0.0000 C   0  0  0  0  0  0  0  0  0  0  0  0
   -0.8660   -2.5000    0.0000 N   0  0  0  0  0  0  0  0  0  0  0  0
   -1.7321   -3.0000    0.0000 C   0  0  0  0  0  0  0  0  0  0  0  0
   -2.5981   -2.5000    0.0000 O   0  0  0  0  0  0  0  0  0  0  0  0
   -1.7321   -4.0000    0.0000 C   0  0  0  0  0  0  0  0  0  0  0  0
   -2.5981   -4.5000    0.0000 N   0  0  0  0  0  0  0  0  0  0  0  0
   -2.6040   -5.5051    0.0000 C   0  0  0  0  0  0  0  0  0  0  0  0
   -3.4745   -6.0077    0.0000 C   0  0  0  0  0  0  0  0  0  0  0  0
   -4.3391   -5.5052    0.0000 N   0  0  0  0  0  0  0  0  0  0  0  0
   -4.3420   -4.5052    0.0000 C   0  0  0  0  0  0  0  0  0  0  0  0
   -3.4715   -4.0026    0.0000 C   0  0  0  0  0  0  0  0  0  0  0  0
    0.8675    0.4975    0.0000 C   0  0  0  0  0  0  0  0  0  0  0  0
    1.7328   -0.0038    0.0000 N   0  0  0  0  0  0  0  0  0  0  0  0
    2.5995    0.4950    0.0000 C   0  0  0  0  0  0  0  0  0  0  0  0
    2.6010    1.4950    0.0000 O   0  0  0  0  0  0  0  0  0  0  0  0
    3.4648   -0.0063    0.0000 N   0  0  0  0  0  0  0  0  0  0  0  0
    4.3316    0.4925    0.0000 C   0  0  0  0  0  0  0  0  0  0  0  0
    4.3330    1.4925    0.0000 N   0  0  0  0  0  0  0  0  0  0  0  0
    3.4663    1.9912    0.0000 C   0  0  0  0  0  0  0  0  0  0  0  0
    3.4677    2.9964    0.0000 C   0  0  0  0  0  0  0  0  0  0  0  0
    4.3360    3.5029    0.0000 O   0  0  0  0  0  0  0  0  0  0  0  0
    5.2027    2.9939    0.0000 C   0  0  0  0  0  0  0  0  0  0  0  0
    5.2013    1.9887    0.0000 C   0  0  0  0  0  0  0  0  0  0  0  0
    3.4634   -1.0063    0.0000 C   0  0  0  0  0  0  0  0  0  0  0  0
    4.3347   -1.5076    0.0000 C   0  0  0  0  0  0  0  0  0  0  0  0
    4.3333   -2.5076    0.0000 C   0  0  0  0  0  0  0  0  0  0  0  0
    5.2001   -3.0063    0.0000 C   0  0  0  0  0  0  0  0  0  0  0  0
    3.4694   -3.0114    0.0000 C   0  0  0  0  0  0  0  0  0  0  0  0
    2.5982   -2.5101    0.0000 C   0  0  0  0  0  0  0  0  0  0  0  0
    2.5907   -1.5050    0.0000 N   0  0  0  0  0  0  0  0  0  0  0  0
  1  2  2  0  0  0  0
  2  3  1  0  0  0  0
  3 21  2  0  0  0  0
  3  4  1  0  0  0  0
  4  5  2  0  0  0  0
  5  6  1  0  0  0  0
  6  7  1  0  0  0  0
  6  8  2  0  0  0  0
  8  9  1  0  0  0  0
  9 10  1  0  0  0  0
 10 11  1  0  0  0  0
 11 12  1  0  0  0  0
 12 13  2  0  0  0  0
 12 14  1  0  0  0  0
 14 15  1  0  0  0  0
 15 20  1  0  0  0  0
 15 16  1  0  0  0  0
 16 17  1  0  0  0  0
 17 18  1  0  0  0  0
 18 19  1  0  0  0  0
 19 20  1  0  0  0  0
  8 21  1  0  0  0  0
 21 22  1  0  0  0  0
 22 23  1  0  0  0  0
 23 24  2  0  0  0  0
 23 25  1  0  0  0  0
 25 26  1  0  0  0  0
 26 27  1  0  0  0  0
 27 32  1  0  0  0  0
 27 28  1  0  0  0  0
 28 29  1  0  0  0  0
 29 30  1  0  0  0  0
 30 31  1  0  0  0  0
 31 32  1  0  0  0  0
 25 33  1  0  0  0  0
 33 39  2  0  0  0  0
 33 34  1  0  0  0  0
 34 35  2  0  0  0  0
 35 36  1  0  0  0  0
 35 37  1  0  0  0  0
 37 38  2  0  0  0  0
 38 39  1  0  0  0  0
M  END
$$$$
AGN-NEW-051-3
  -OEChem-03232022352D

 33 35  0     0  0  0  0  0  0999 V2000
    2.6025    2.4976    0.0000 C   0  0  0  0  0  0  0  0  0  0  0  0
    1.7350    2.0001    0.0000 C   0  0  0  0  0  0  0  0  0  0  0  0
    0.8675    1.5027    0.0000 C   0  0  0  0  0  0  0  0  0  0  0  0
   -0.0000    2.0104    0.0000 N   0  0  0  0  0  0  0  0  0  0  0  0
   -0.8675    1.5027    0.0000 C   0  0  0  0  0  0  0  0  0  0  0  0
   -0.8675    0.4975    0.0000 C   0  0  0  0  0  0  0  0  0  0  0  0
   -1.7328   -0.0038    0.0000 C   0  0  0  0  0  0  0  0  0  0  0  0
    0.0000    0.0000    0.0000 C   0  0  0  0  0  0  0  0  0  0  0  0
    0.0000   -1.0000    0.0000 C   0  0  0  0  0  0  0  0  0  0  0  0
    0.8660   -1.5000    0.0000 C   0  0  0  0  0  0  0  0  0  0  0  0
    0.8660   -2.5000    0.0000 N   0  0  0  0  0  0  0  0  0  0  0  0
    1.7321   -3.0000    0.0000 C   0  0  0  0  0  0  0  0  0  0  0  0
    2.5981   -2.5000    0.0000 O   0  0  0  0  0  0  0  0  0  0  0  0
    1.7321   -4.0000    0.0000 C   0  0  0  0  0  0  0  0  0  0  0  0
    2.5981   -4.5000    0.0000 N   0  0  0  0  0  0  0  0  0  0  0  0
    2.6040   -5.5051    0.0000 C   0  0  0  0  0  0  0  0  0  0  0  0
    3.4745   -6.0077    0.0000 C   0  0  0  0  0  0  0  0  0  0  0  0
    4.3391   -5.5052    0.0000 N   0  0  0  0  0  0  0  0  0  0  0  0
    4.3420   -4.5052    0.0000 C   0  0  0  0  0  0  0  0  0  0  0  0
    3.4715   -4.0026    0.0000 C   0  0  0  0  0  0  0  0  0  0  0  0
    0.8675    0.4975    0.0000 C   0  0  0  0  0  0  0  0  0  0  0  0
    1.7328   -0.0038    0.0000 N   0  0  0  0  0  0  0  0  0  0  0  0
    2.5995    0.4950    0.0000 C   0  0  0  0  0  0  0  0  0  0  0  0
    2.6010    1.4950    0.0000 O   0  0  0  0  0  0  0  0  0  0  0  0
    3.4648   -0.0063    0.0000 N   0  0  0  0  0  0  0  0  0  0  0  0
    3.4634   -1.0063    0.0000 C   0  0  0  0  0  0  0  0  0  0  0  0
    4.3316    0.4925    0.0000 C   0  0  0  0  0  0  0  0  0  0  0  0
    4.3301    1.4977    0.0000 C   0  0  0  0  0  0  0  0  0  0  0  0
    5.1968    1.9965    0.0000 C   0  0  0  0  0  0  0  0  0  0  0  0
    5.1953    2.9965    0.0000 C   0  0  0  0  0  0  0  0  0  0  0  0
    6.0651    1.5003    0.0000 C   0  0  0  0  0  0  0  0  0  0  0  0
    6.0666    0.4951    0.0000 C   0  0  0  0  0  0  0  0  0  0  0  0
    5.1999   -0.0139    0.0000 N   0  0  0  0  0  0  0  0  0  0  0  0
  1  2  3  0  0  0  0
  2  3  1  0  0  0  0
  3 21  2  0  0  0  0
  3  4  1  0  0  0  0
  4  5  2  0  0  0  0
  5  6  1  0  0  0  0
  6  7  1  0  0  0  0
  6  8  2  0  0  0  0
  8  9  1  0  0  0  0
  9 10  1  0  0  0  0
 10 11  1  0  0  0  0
 11 12  1  0  0  0  0
 12 13  2  0  0  0  0
 12 14  1  0  0  0  0
 14 15  1  0  0  0  0
 15 20  1  0  0  0  0
 15 16  1  0  0  0  0
 16 17  1  0  0  0  0
 17 18  1  0  0  0  0
 18 19  1  0  0  0  0
 19 20  1  0  0  0  0
  8 21  1  0  0  0  0
 21 22  1  0  0  0  0
 22 23  1  0  0  0  0
 23 24  2  0  0  0  0
 23 25  1  0  0  0  0
 25 26  1  0  0  0  0
 25 27  1  0  0  0  0
 27 33  2  0  0  0  0
 27 28  1  0  0  0  0
 28 29  2  0  0  0  0
 29 30  1  0  0  0  0
 29 31  1  0  0  0  0
 31 32  2  0  0  0  0
 32 33  1  0  0  0  0
M  END
$$$$
AGN-NEW-051-4
  -OEChem-03232022352D

 39 42  0     0  0  0  0  0  0999 V2000
    2.6025    2.4976    0.0000 C   0  0  0  0  0  0  0  0  0  0  0  0
    1.7350    2.0001    0.0000 C   0  0  0  0  0  0  0  0  0  0  0  0
    0.8675    1.5027    0.0000 C   0  0  0  0  0  0  0  0  0  0  0  0
   -0.0000    2.0104    0.0000 N   0  0  0  0  0  0  0  0  0  0  0  0
   -0.8675    1.5027    0.0000 C   0  0  0  0  0  0  0  0  0  0  0  0
   -0.8675    0.4975    0.0000 C   0  0  0  0  0  0  0  0  0  0  0  0
   -1.7328   -0.0038    0.0000 C   0  0  0  0  0  0  0  0  0  0  0  0
    0.0000    0.0000    0.0000 C   0  0  0  0  0  0  0  0  0  0  0  0
    0.0000   -1.0000    0.0000 C   0  0  0  0  0  0  0  0  0  0  0  0
   -0.8660   -1.5000    0.0000 C   0  0  0  0  0  0  0  0  0  0  0  0
   -0.8660   -2.5000    0.0000 N   0  0  0  0  0  0  0  0  0  0  0  0
   -1.7321   -3.0000    0.0000 C   0  0  0  0  0  0  0  0  0  0  0  0
   -2.5981   -2.5000    0.0000 O   0  0  0  0  0  0  0  0  0  0  0  0
   -1.7321   -4.0000    0.0000 C   0  0  0  0  0  0  0  0  0  0  0  0
   -2.5981   -4.5000    0.0000 N   0  0  0  0  0  0  0  0  0  0  0  0
   -2.6040   -5.5051    0.0000 C   0  0  0  0  0  0  0  0  0  0  0  0
   -3.4745   -6.0077    0.0000 C   0  0  0  0  0  0  0  0  0  0  0  0
   -4.3391   -5.5052    0.0000 N   0  0  0  0  0  0  0  0  0  0  0  0
   -4.3420   -4.5052    0.0000 C   0  0  0  0  0  0  0  0  0  0  0  0
   -3.4715   -4.0026    0.0000 C   0  0  0  0  0  0  0  0  0  0  0  0
    0.8675    0.4975    0.0000 C   0  0  0  0  0  0  0  0  0  0  0  0
    1.7328   -0.0038    0.0000 N   0  0  0  0  0  0  0  0  0  0  0  0
    2.5995    0.4950    0.0000 C   0  0  0  0  0  0  0  0  0  0  0  0
    2.6010    1.4950    0.0000 O   0  0  0  0  0  0  0  0  0  0  0  0
    3.4648   -0.0063    0.0000 N   0  0  0  0  0  0  0  0  0  0  0  0
    4.3316    0.4925    0.0000 C   0  0  0  0  0  0  0  0  0  0  0  0
    4.3330    1.4925    0.0000 N   0  0  0  0  0  0  0  0  0  0  0  0
    3.4663    1.9912    0.0000 C   0  0  0  0  0  0  0  0  0  0  0  0
    3.4677    2.9964    0.0000 C   0  0  0  0  0  0  0  0  0  0  0  0
    4.3360    3.5029    0.0000 O   0  0  0  0  0  0  0  0  0  0  0  0
    5.2027    2.9939    0.0000 C   0  0  0  0  0  0  0  0  0  0  0  0
    5.2013    1.9887    0.0000 C   0  0  0  0  0  0  0  0  0  0  0  0
    3.4634   -1.0063    0.0000 C   0  0  0  0  0  0  0  0  0  0  0  0
    4.3347   -1.5076    0.0000 C   0  0  0  0  0  0  0  0  0  0  0  0
    4.3333   -2.5076    0.0000 C   0  0  0  0  0  0  0  0  0  0  0  0
    5.2001   -3.0063    0.0000 C   0  0  0  0  0  0  0  0  0  0  0  0
    3.4694   -3.0114    0.0000 C   0  0  0  0  0  0  0  0  0  0  0  0
    2.5982   -2.5101    0.0000 C   0  0  0  0  0  0  0  0  0  0  0  0
    2.5907   -1.5050    0.0000 N   0  0  0  0  0  0  0  0  0  0  0  0
  1  2  3  0  0  0  0
  2  3  1  0  0  0  0
  3 21  2  0  0  0  0
  3  4  1  0  0  0  0
  4  5  2  0  0  0  0
  5  6  1  0  0  0  0
  6  7  1  0  0  0  0
  6  8  2  0  0  0  0
  8  9  1  0  0  0  0
  9 10  1  0  0  0  0
 10 11  1  0  0  0  0
 11 12  1  0  0  0  0
 12 13  2  0  0  0  0
 12 14  1  0  0  0  0
 14 15  1  0  0  0  0
 15 20  1  0  0  0  0
 15 16  1  0  0  0  0
 16 17  1  0  0  0  0
 17 18  1  0  0  0  0
 18 19  1  0  0  0  0
 19 20  1  0  0  0  0
  8 21  1  0  0  0  0
 21 22  1  0  0  0  0
 22 23  1  0  0  0  0
 23 24  2  0  0  0  0
 23 25  1  0  0  0  0
 25 26  1  0  0  0  0
 26 27  1  0  0  0  0
 27 32  1  0  0  0  0
 27 28  1  0  0  0  0
 28 29  1  0  0  0  0
 29 30  1  0  0  0  0
 30 31  1  0  0  0  0
 31 32  1  0  0  0  0
 25 33  1  0  0  0  0
 33 39  2  0  0  0  0
 33 34  1  0  0  0  0
 34 35  2  0  0  0  0
 35 36  1  0  0  0  0
 35 37  1  0  0  0  0
 37 38  2  0  0  0  0
 38 39  1  0  0  0  0
M  END
$$$$
ANT-DIA-045-1
  -OEChem-03232022352D

 16 17  0     1  0  0  0  0  0999 V2000
    1.3208   -3.4846    0.0000 C   0  0  0  0  0  0  0  0  0  0  0  0
    2.1893   -2.9889    0.0000 N   0  0  0  0  0  0  0  0  0  0  0  0
    2.1943   -1.9889    0.0000 C   0  0  0  0  0  0  0  0  0  0  0  0
    3.0628   -1.4933    0.0000 O   0  0  0  0  0  0  0  0  0  0  0  0
    1.3308   -1.4846    0.0000 C   0  0  1  0  0  0  0  0  0  0  0  0
    1.9221   -0.6782    0.0000 H   0  0  0  0  0  0  0  0  0  0  0  0
    0.9182   -2.3973    0.0000 C   0  0  0  0  0  0  0  0  0  0  0  0
   -0.0773   -2.2893    0.0000 C   0  0  0  0  0  0  0  0  0  0  0  0
   -0.2794   -1.3099    0.0000 C   0  0  0  0  0  0  0  0  0  0  0  0
    0.5868   -0.8097    0.0000 C   0  0  1  0  0  0  0  0  0  0  0  0
    1.3316   -0.1424    0.0000 H   0  0  0  0  0  0  0  0  0  0  0  0
    0.0000    0.0000    0.0000 C   0  0  0  0  0  0  0  0  0  0  0  0
   -1.0015    0.0000    0.0000 C   0  0  0  0  0  0  0  0  0  0  0  0
   -1.3080    0.9519    0.0000 C   0  0  0  0  0  0  0  0  0  0  0  0
   -0.5007    1.5428    0.0000 S   0  0  0  0  0  0  0  0  0  0  0  0
    0.3118    0.9519    0.0000 C   0  0  0  0  0  0  0  0  0  0  0  0
  1  2  1  0  0  0  0
  2  3  1  0  0  0  0
  3  4  2  0  0  0  0
  3  5  1  0  0  0  0
  5  6  1  6  0  0  0
  5 10  1  0  0  0  0
  5  7  1  0  0  0  0
  7  8  1  0  0  0  0
  8  9  1  0  0  0  0
  9 10  1  0  0  0  0
 10 11  1  6  0  0  0
 10 12  1  0  0  0  0
 12 16  2  0  0  0  0
 12 13  1  0  0  0  0
 13 14  2  0  0  0  0
 14 15  1  0  0  0  0
 15 16  1  0  0  0  0
M  END
$$$$
ANT-DIA-045-2
  -OEChem-03232022352D

 19 20  0     1  0  0  0  0  0999 V2000
    0.4423   -5.9802    0.0000 C   0  0  0  0  0  0  0  0  0  0  0  0
    0.4473   -4.9802    0.0000 O   0  0  0  0  0  0  0  0  0  0  0  0
    1.3158   -4.4846    0.0000 C   0  0  0  0  0  0  0  0  0  0  0  0
    1.3208   -3.4846    0.0000 C   0  0  0  0  0  0  0  0  0  0  0  0
    2.1893   -2.9889    0.0000 N   0  0  0  0  0  0  0  0  0  0  0  0
    2.1943   -1.9889    0.0000 C   0  0  0  0  0  0  0  0  0  0  0  0
    3.0628   -1.4933    0.0000 O   0  0  0  0  0  0  0  0  0  0  0  0
    1.3308   -1.4846    0.0000 C   0  0  1  0  0  0  0  0  0  0  0  0
    1.9221   -0.6782    0.0000 H   0  0  0  0  0  0  0  0  0  0  0  0
    0.9182   -2.3973    0.0000 C   0  0  0  0  0  0  0  0  0  0  0  0
   -0.0773   -2.2893    0.0000 C   0  0  0  0  0  0  0  0  0  0  0  0
   -0.2794   -1.3099    0.0000 C   0  0  0  0  0  0  0  0  0  0  0  0
    0.5868   -0.8097    0.0000 C   0  0  1  0  0  0  0  0  0  0  0  0
    1.3316   -0.1424    0.0000 H   0  0  0  0  0  0  0  0  0  0  0  0
    0.0000    0.0000    0.0000 C   0  0  0  0  0  0  0  0  0  0  0  0
   -1.0015    0.0000    0.0000 C   0  0  0  0  0  0  0  0  0  0  0  0
   -1.3080    0.9519    0.0000 C   0  0  0  0  0  0  0  0  0  0  0  0
   -0.5007    1.5428    0.0000 S   0  0  0  0  0  0  0  0  0  0  0  0
    0.3118    0.9519    0.0000 C   0  0  0  0  0  0  0  0  0  0  0  0
  1  2  1  0  0  0  0
  2  3  1  0  0  0  0
  3  4  1  0  0  0  0
  4  5  1  0  0  0  0
  5  6  1  0  0  0  0
  6  7  2  0  0  0  0
  6  8  1  0  0  0  0
  8  9  1  6  0  0  0
  8 13  1  0  0  0  0
  8 10  1  0  0  0  0
 10 11  1  0  0  0  0
 11 12  1  0  0  0  0
 12 13  1  0  0  0  0
 13 14  1  6  0  0  0
 13 15  1  0  0  0  0
 15 19  2  0  0  0  0
 15 16  1  0  0  0  0
 16 17  2  0  0  0  0
 17 18  1  0  0  0  0
 18 19  1  0  0  0  0
M  END
$$$$
ANT-DIA-045-3
  -OEChem-03232022352D

 21 23  0     1  0  0  0  0  0999 V2000
   -1.7335    0.9975    0.0000 O   0  0  0  0  0  0  0  0  0  0  0  0
   -1.7320   -0.0025    0.0000 C   0  0  0  0  0  0  0  0  0  0  0  0
   -0.8653   -0.5013    0.0000 N   0  0  0  0  0  0  0  0  0  0  0  0
    0.0000    0.0000    0.0000 C   0  0  0  0  0  0  0  0  0  0  0  0
   -0.0000    1.0052    0.0000 C   0  0  0  0  0  0  0  0  0  0  0  0
    0.8675    1.5129    0.0000 N   0  0  0  0  0  0  0  0  0  0  0  0
    1.7350    1.0052    0.0000 C   0  0  0  0  0  0  0  0  0  0  0  0
    1.7350    0.0000    0.0000 N   0  0  0  0  0  0  0  0  0  0  0  0
    0.8675   -0.4975    0.0000 C   0  0  0  0  0  0  0  0  0  0  0  0
   -2.5973   -0.5038    0.0000 C   0  0  1  0  0  0  0  0  0  0  0  0
   -3.0060    0.4089    0.0000 H   0  0  0  0  0  0  0  0  0  0  0  0
   -2.0079   -1.3136    0.0000 C   0  0  0  0  0  0  0  0  0  0  0  0
   -2.5940   -2.1256    0.0000 C   0  0  0  0  0  0  0  0  0  0  0  0
   -3.5453   -1.8170    0.0000 C   0  0  0  0  0  0  0  0  0  0  0  0
   -3.5518   -0.8168    0.0000 C   0  0  1  0  0  0  0  0  0  0  0  0
   -3.7636    0.1605    0.0000 H   0  0  0  0  0  0  0  0  0  0  0  0
   -4.5457   -0.9265    0.0000 C   0  0  0  0  0  0  0  0  0  0  0  0
   -5.0409   -1.7971    0.0000 C   0  0  0  0  0  0  0  0  0  0  0  0
   -6.0198   -1.5929    0.0000 C   0  0  0  0  0  0  0  0  0  0  0  0
   -6.1343   -0.5990    0.0000 S   0  0  0  0  0  0  0  0  0  0  0  0
   -5.2190   -0.1849    0.0000 C   0  0  0  0  0  0  0  0  0  0  0  0
  1  2  2  0  0  0  0
  2  3  1  0  0  0  0
  3  4  1  0  0  0  0
  4  9  2  0  0  0  0
  4  5  1  0  0  0  0
  5  6  2  0  0  0  0
  6  7  1  0  0  0  0
  7  8  2  0  0  0  0
  8  9  1  0  0  0  0
  2 10  1  0  0  0  0
 10 11  1  6  0  0  0
 10 15  1  0  0  0  0
 10 12  1  0  0  0  0
 12 13  1  0  0  0  0
 13 14  1  0  0  0  0
 14 15  1  0  0  0  0
 15 16  1  6  0  0  0
 15 17  1  0  0  0  0
 17 21  2  0  0  0  0
 17 18  1  0  0  0  0
 18 19  2  0  0  0  0
 19 20  1  0  0  0  0
 20 21  1  0  0  0  0
M  END
$$$$
ANT-DIA-045-4
  -OEChem-03232022352D

 22 24  0     1  0  0  0  0  0999 V2000
    2.6084    4.4976    0.0000 O   0  0  0  0  0  0  0  0  0  0  0  0
    2.6054    3.4976    0.0000 C   0  0  0  0  0  0  0  0  0  0  0  0
    1.7379    3.0001    0.0000 N   0  0  0  0  0  0  0  0  0  0  0  0
    1.7350    2.0001    0.0000 C   0  0  0  0  0  0  0  0  0  0  0  0
    0.8675    1.5027    0.0000 C   0  0  0  0  0  0  0  0  0  0  0  0
    0.8675    0.4975    0.0000 C   0  0  0  0  0  0  0  0  0  0  0  0
    0.0000    0.0000    0.0000 C   0  0  0  0  0  0  0  0  0  0  0  0
   -0.8675    0.4975    0.0000 C   0  0  0  0  0  0  0  0  0  0  0  0
   -0.8675    1.5027    0.0000 C   0  0  0  0  0  0  0  0  0  0  0  0
    0.0000    2.0104    0.0000 N   0  0  0  0  0  0  0  0  0  0  0  0
    3.4700    2.9950    0.0000 C   0  0  1  0  0  0  0  0  0  0  0  0
    3.8800    3.9071    0.0000 H   0  0  0  0  0  0  0  0  0  0  0  0
    2.8794    2.1861    0.0000 C   0  0  0  0  0  0  0  0  0  0  0  0
    3.4643    1.3732    0.0000 C   0  0  0  0  0  0  0  0  0  0  0  0
    4.4159    1.6804    0.0000 C   0  0  0  0  0  0  0  0  0  0  0  0
    4.4240    2.6806    0.0000 C   0  0  1  0  0  0  0  0  0  0  0  0
    4.6372    3.6576    0.0000 H   0  0  0  0  0  0  0  0  0  0  0  0
    5.4178    2.5694    0.0000 C   0  0  0  0  0  0  0  0  0  0  0  0
    5.9116    1.6981    0.0000 C   0  0  0  0  0  0  0  0  0  0  0  0
    6.8909    1.9008    0.0000 C   0  0  0  0  0  0  0  0  0  0  0  0
    7.0068    2.8945    0.0000 S   0  0  0  0  0  0  0  0  0  0  0  0
    6.0921    3.3100    0.0000 C   0  0  0  0  0  0  0  0  0  0  0  0
  1  2  2  0  0  0  0
  2  3  1  0  0  0  0
  3  4  1  0  0  0  0
  4  5  1  0  0  0  0
  5 10  2  0  0  0  0
  5  6  1  0  0  0  0
  6  7  2  0  0  0  0
  7  8  1  0  0  0  0
  8  9  2  0  0  0  0
  9 10  1  0  0  0  0
  2 11  1  0  0  0  0
 11 12  1  1  0  0  0
 11 16  1  0  0  0  0
 11 13  1  0  0  0  0
 13 14  1  0  0  0  0
 14 15  1  0  0  0  0
 15 16  1  0  0  0  0
 16 17  1  1  0  0  0
 16 18  1  0  0  0  0
 18 22  2  0  0  0  0
 18 19  1  0  0  0  0
 19 20  2  0  0  0  0
 20 21  1  0  0  0  0
 21 22  1  0  0  0  0
M  END
$$$$
ANT-DIA-045-5
  -OEChem-03232022352D

 22 24  0     1  0  0  0  0  0999 V2000
    4.3316    0.4925    0.0000 O   0  0  0  0  0  0  0  0  0  0  0  0
    3.4648   -0.0063    0.0000 C   0  0  0  0  0  0  0  0  0  0  0  0
    2.5995    0.4950    0.0000 N   0  0  0  0  0  0  0  0  0  0  0  0
    1.7328   -0.0038    0.0000 C   0  0  0  0  0  0  0  0  0  0  0  0
    0.8675    0.4975    0.0000 C   0  0  0  0  0  0  0  0  0  0  0  0
    0.0000    0.0000    0.0000 C   0  0  0  0  0  0  0  0  0  0  0  0
   -0.8675    0.4975    0.0000 C   0  0  0  0  0  0  0  0  0  0  0  0
   -0.8675    1.5027    0.0000 C   0  0  0  0  0  0  0  0  0  0  0  0
    0.0000    2.0104    0.0000 N   0  0  0  0  0  0  0  0  0  0  0  0
    0.8675    1.5027    0.0000 C   0  0  0  0  0  0  0  0  0  0  0  0
    3.4634   -1.0063    0.0000 C   0  0  1  0  0  0  0  0  0  0  0  0
    4.4581   -0.9038    0.0000 H   0  0  0  0  0  0  0  0  0  0  0  0
    2.4673   -0.9008    0.0000 C   0  0  0  0  0  0  0  0  0  0  0  0
    2.0572   -1.8143    0.0000 C   0  0  0  0  0  0  0  0  0  0  0  0
    2.8001   -2.4838    0.0000 C   0  0  0  0  0  0  0  0  0  0  0  0
    3.6696   -1.9893    0.0000 C   0  0  1  0  0  0  0  0  0  0  0  0
    4.6218   -1.6841    0.0000 H   0  0  0  0  0  0  0  0  0  0  0  0
    4.0715   -2.9050    0.0000 C   0  0  0  0  0  0  0  0  0  0  0  0
    3.5651   -3.7691    0.0000 C   0  0  0  0  0  0  0  0  0  0  0  0
    4.2315   -4.5148    0.0000 C   0  0  0  0  0  0  0  0  0  0  0  0
    5.1494   -4.1170    0.0000 S   0  0  0  0  0  0  0  0  0  0  0  0
    5.0504   -3.1172    0.0000 C   0  0  0  0  0  0  0  0  0  0  0  0
  1  2  2  0  0  0  0
  2  3  1  0  0  0  0
  3  4  1  0  0  0  0
  4  5  1  0  0  0  0
  5 10  2  0  0  0  0
  5  6  1  0  0  0  0
  6  7  2  0  0  0  0
  7  8  1  0  0  0  0
  8  9  2  0  0  0  0
  9 10  1  0  0  0  0
  2 11  1  0  0  0  0
 11 12  1  1  0  0  0
 11 16  1  0  0  0  0
 11 13  1  0  0  0  0
 13 14  1  0  0  0  0
 14 15  1  0  0  0  0
 15 16  1  0  0  0  0
 16 17  1  1  0  0  0
 16 18  1  0  0  0  0
 18 22  2  0  0  0  0
 18 19  1  0  0  0  0
 19 20  2  0  0  0  0
 20 21  1  0  0  0  0
 21 22  1  0  0  0  0
M  END
$$$$
DAR-DIA-033-1
  -OEChem-03232022352D

 28 30  0     0  0  0  0  0  0999 V2000
    2.6010    1.4950    0.0000 O   0  0  0  0  0  0  0  0  0  0  0  0
    2.5995    0.4950    0.0000 C   0  0  0  0  0  0  0  0  0  0  0  0
    3.4648   -0.0063    0.0000 N   0  0  0  0  0  0  0  0  0  0  0  0
    4.3316    0.4925    0.0000 C   0  0  0  0  0  0  0  0  0  0  0  0
    4.3301    1.4977    0.0000 C   0  0  0  0  0  0  0  0  0  0  0  0
    5.1968    1.9965    0.0000 C   0  0  0  0  0  0  0  0  0  0  0  0
    6.0651    1.5003    0.0000 C   0  0  0  0  0  0  0  0  0  0  0  0
    6.0666    0.4951    0.0000 C   0  0  0  0  0  0  0  0  0  0  0  0
    5.1999   -0.0139    0.0000 C   0  0  0  0  0  0  0  0  0  0  0  0
    1.7328   -0.0038    0.0000 N   0  0  0  0  0  0  0  0  0  0  0  0
    0.8675    0.4975    0.0000 C   0  0  0  0  0  0  0  0  0  0  0  0
    0.8675    1.5027    0.0000 C   0  0  0  0  0  0  0  0  0  0  0  0
   -0.0000    2.0104    0.0000 N   0  0  0  0  0  0  0  0  0  0  0  0
   -0.8675    1.5027    0.0000 C   0  0  0  0  0  0  0  0  0  0  0  0
   -0.8675    0.4975    0.0000 C   0  0  0  0  0  0  0  0  0  0  0  0
    0.0000    0.0000    0.0000 C   0  0  0  0  0  0  0  0  0  0  0  0
    0.0000   -1.0000    0.0000 C   0  0  0  0  0  0  0  0  0  0  0  0
    0.8660   -1.5000    0.0000 C   0  0  0  0  0  0  0  0  0  0  0  0
    0.8660   -2.5000    0.0000 N   0  0  0  0  0  0  0  0  0  0  0  0
    1.7321   -3.0000    0.0000 C   0  0  0  0  0  0  0  0  0  0  0  0
    2.5981   -2.5000    0.0000 O   0  0  0  0  0  0  0  0  0  0  0  0
    1.7321   -4.0000    0.0000 N   0  0  0  0  0  0  0  0  0  0  0  0
    2.5981   -4.5000    0.0000 C   0  0  0  0  0  0  0  0  0  0  0  0
    3.4671   -3.9948    0.0000 C   0  0  0  0  0  0  0  0  0  0  0  0
    4.3332   -4.4948    0.0000 C   0  0  0  0  0  0  0  0  0  0  0  0
    4.3390   -5.4948    0.0000 C   0  0  0  0  0  0  0  0  0  0  0  0
    3.4700   -6.0000    0.0000 C   0  0  0  0  0  0  0  0  0  0  0  0
    2.5951   -5.5051    0.0000 C   0  0  0  0  0  0  0  0  0  0  0  0
  1  2  2  0  0  0  0
  2  3  1  0  0  0  0
  3  4  1  0  0  0  0
  4  9  2  0  0  0  0
  4  5  1  0  0  0  0
  5  6  2  0  0  0  0
  6  7  1  0  0  0  0
  7  8  2  0  0  0  0
  8  9  1  0  0  0  0
  2 10  1  0  0  0  0
 10 11  1  0  0  0  0
 11 16  2  0  0  0  0
 11 12  1  0  0  0  0
 12 13  2  0  0  0  0
 13 14  1  0  0  0  0
 14 15  2  0  0  0  0
 15 16  1  0  0  0  0
 16 17  1  0  0  0  0
 17 18  1  0  0  0  0
 18 19  1  0  0  0  0
 19 20  1  0  0  0  0
 20 21  2  0  0  0  0
 20 22  1  0  0  0  0
 22 23  1  0  0  0  0
 23 28  1  0  0  0  0
 23 24  1  0  0  0  0
 24 25  1  0  0  0  0
 25 26  1  0  0  0  0
 26 27  1  0  0  0  0
 27 28  1  0  0  0  0
M  END
$$$$
DAR-DIA-033-2
  -OEChem-03232022352D

 28 30  0     0  0  0  0  0  0999 V2000
    3.4648   -0.0063    0.0000 O   0  0  0  0  0  0  0  0  0  0  0  0
    2.5995    0.4950    0.0000 C   0  0  0  0  0  0  0  0  0  0  0  0
    1.7328   -0.0038    0.0000 C   0  0  0  0  0  0  0  0  0  0  0  0
    0.8675    0.4975    0.0000 C   0  0  0  0  0  0  0  0  0  0  0  0
    0.8675    1.5027    0.0000 C   0  0  0  0  0  0  0  0  0  0  0  0
   -0.0000    2.0104    0.0000 N   0  0  0  0  0  0  0  0  0  0  0  0
   -0.8675    1.5027    0.0000 C   0  0  0  0  0  0  0  0  0  0  0  0
   -0.8675    0.4975    0.0000 C   0  0  0  0  0  0  0  0  0  0  0  0
    0.0000    0.0000    0.0000 C   0  0  0  0  0  0  0  0  0  0  0  0
    0.0000   -1.0000    0.0000 C   0  0  0  0  0  0  0  0  0  0  0  0
    0.8660   -1.5000    0.0000 C   0  0  0  0  0  0  0  0  0  0  0  0
    0.8660   -2.5000    0.0000 N   0  0  0  0  0  0  0  0  0  0  0  0
    1.7321   -3.0000    0.0000 C   0  0  0  0  0  0  0  0  0  0  0  0
    2.5981   -2.5000    0.0000 O   0  0  0  0  0  0  0  0  0  0  0  0
    1.7321   -4.0000    0.0000 N   0  0  0  0  0  0  0  0  0  0  0  0
    2.5981   -4.5000    0.0000 C   0  0  0  0  0  0  0  0  0  0  0  0
    3.4671   -3.9948    0.0000 C   0  0  0  0  0  0  0  0  0  0  0  0
    4.3332   -4.4948    0.0000 C   0  0  0  0  0  0  0  0  0  0  0  0
    4.3390   -5.4948    0.0000 C   0  0  0  0  0  0  0  0  0  0  0  0
    3.4700   -6.0000    0.0000 C   0  0  0  0  0  0  0  0  0  0  0  0
    2.5951   -5.5051    0.0000 C   0  0  0  0  0  0  0  0  0  0  0  0
    2.6010    1.4950    0.0000 N   0  0  0  0  0  0  0  0  0  0  0  0
    3.4677    1.9937    0.0000 C   0  0  0  0  0  0  0  0  0  0  0  0
    3.4662    2.9989    0.0000 C   0  0  0  0  0  0  0  0  0  0  0  0
    4.3330    3.4977    0.0000 C   0  0  0  0  0  0  0  0  0  0  0  0
    5.2012    3.0015    0.0000 C   0  0  0  0  0  0  0  0  0  0  0  0
    5.2027    1.9963    0.0000 C   0  0  0  0  0  0  0  0  0  0  0  0
    4.3360    1.4873    0.0000 C   0  0  0  0  0  0  0  0  0  0  0  0
  1  2  2  0  0  0  0
  2  3  1  0  0  0  0
  3  4  1  0  0  0  0
  4  9  2  0  0  0  0
  4  5  1  0  0  0  0
  5  6  2  0  0  0  0
  6  7  1  0  0  0  0
  7  8  2  0  0  0  0
  8  9  1  0  0  0  0
  9 10  1  0  0  0  0
 10 11  1  0  0  0  0
 11 12  1  0  0  0  0
 12 13  1  0  0  0  0
 13 14  2  0  0  0  0
 13 15  1  0  0  0  0
 15 16  1  0  0  0  0
 16 21  1  0  0  0  0
 16 17  1  0  0  0  0
 17 18  1  0  0  0  0
 18 19  1  0  0  0  0
 19 20  1  0  0  0  0
 20 21  1  0  0  0  0
  2 22  1  0  0  0  0
 22 23  1  0  0  0  0
 23 28  2  0  0  0  0
 23 24  1  0  0  0  0
 24 25  2  0  0  0  0
 25 26  1  0  0  0  0
 26 27  2  0  0  0  0
 27 28  1  0  0  0  0
M  END
$$$$
DAR-DIA-033-3
  -OEChem-03232022352D

 29 31  0     0  0  0  0  0  0999 V2000
    2.6010    1.4950    0.0000 O   0  0  0  0  0  0  0  0  0  0  0  0
    2.5995    0.4950    0.0000 C   0  0  0  0  0  0  0  0  0  0  0  0
    3.4648   -0.0063    0.0000 N   0  0  0  0  0  0  0  0  0  0  0  0
    4.3316    0.4925    0.0000 C   0  0  0  0  0  0  0  0  0  0  0  0
    5.1999   -0.0139    0.0000 C   0  0  0  0  0  0  0  0  0  0  0  0
    6.0667    0.4848    0.0000 C   0  0  0  0  0  0  0  0  0  0  0  0
    6.0740    1.4848    0.0000 C   0  0  0  0  0  0  0  0  0  0  0  0
    5.2057    1.9912    0.0000 C   0  0  0  0  0  0  0  0  0  0  0  0
    5.2131    2.9912    0.0000 Cl  0  0  0  0  0  0  0  0  0  0  0  0
    4.3301    1.4976    0.0000 C   0  0  0  0  0  0  0  0  0  0  0  0
    1.7328   -0.0038    0.0000 N   0  0  0  0  0  0  0  0  0  0  0  0
    0.8675    0.4975    0.0000 C   0  0  0  0  0  0  0  0  0  0  0  0
    0.8675    1.5027    0.0000 C   0  0  0  0  0  0  0  0  0  0  0  0
   -0.0000    2.0104    0.0000 N   0  0  0  0  0  0  0  0  0  0  0  0
   -0.8675    1.5027    0.0000 C   0  0  0  0  0  0  0  0  0  0  0  0
   -0.8675    0.4975    0.0000 C   0  0  0  0  0  0  0  0  0  0  0  0
    0.0000    0.0000    0.0000 C   0  0  0  0  0  0  0  0  0  0  0  0
    0.0000   -1.0000    0.0000 C   0  0  0  0  0  0  0  0  0  0  0  0
    0.8660   -1.5000    0.0000 C   0  0  0  0  0  0  0  0  0  0  0  0
    0.8660   -2.5000    0.0000 N   0  0  0  0  0  0  0  0  0  0  0  0
    1.7321   -3.0000    0.0000 C   0  0  0  0  0  0  0  0  0  0  0  0
    2.5981   -2.5000    0.0000 O   0  0  0  0  0  0  0  0  0  0  0  0
    1.7321   -4.0000    0.0000 N   0  0  0  0  0  0  0  0  0  0  0  0
    2.5981   -4.5000    0.0000 C   0  0  0  0  0  0  0  0  0  0  0  0
    3.4671   -3.9948    0.0000 C   0  0  0  0  0  0  0  0  0  0  0  0
    4.3332   -4.4948    0.0000 C   0  0  0  0  0  0  0  0  0  0  0  0
    4.3390   -5.4948    0.0000 C   0  0  0  0  0  0  0  0  0  0  0  0
    3.4700   -6.0000    0.0000 C   0  0  0  0  0  0  0  0  0  0  0  0
    2.5951   -5.5051    0.0000 C   0  0  0  0  0  0  0  0  0  0  0  0
  1  2  2  0  0  0  0
  2  3  1  0  0  0  0
  3  4  1  0  0  0  0
  4 10  2  0  0  0  0
  4  5  1  0  0  0  0
  5  6  2  0  0  0  0
  6  7  1  0  0  0  0
  7  8  2  0  0  0  0
  8  9  1  0  0  0  0
  8 10  1  0  0  0  0
  2 11  1  0  0  0  0
 11 12  1  0  0  0  0
 12 17  2  0  0  0  0
 12 13  1  0  0  0  0
 13 14  2  0  0  0  0
 14 15  1  0  0  0  0
 15 16  2  0  0  0  0
 16 17  1  0  0  0  0
 17 18  1  0  0  0  0
 18 19  1  0  0  0  0
 19 20  1  0  0  0  0
 20 21  1  0  0  0  0
 21 22  2  0  0  0  0
 21 23  1  0  0  0  0
 23 24  1  0  0  0  0
 24 29  1  0  0  0  0
 24 25  1  0  0  0  0
 25 26  1  0  0  0  0
 26 27  1  0  0  0  0
 27 28  1  0  0  0  0
 28 29  1  0  0  0  0
M  END
$$$$
DAR-DIA-033-4
  -OEChem-03232022352D

 30 32  0     0  0  0  0  0  0999 V2000
    4.3522    2.4924    0.0000 N   0  0  0  0  0  0  0  0  0  0  0  0
    4.3449    1.4924    0.0000 C   0  0  0  0  0  0  0  0  0  0  0  0
    4.3375    0.4925    0.0000 C   0  0  0  0  0  0  0  0  0  0  0  0
    5.2058   -0.0140    0.0000 C   0  0  0  0  0  0  0  0  0  0  0  0
    5.1985   -1.0140    0.0000 C   0  0  0  0  0  0  0  0  0  0  0  0
    4.3317   -1.5127    0.0000 C   0  0  0  0  0  0  0  0  0  0  0  0
    3.4634   -1.0063    0.0000 C   0  0  0  0  0  0  0  0  0  0  0  0
    2.5966   -1.5050    0.0000 N   0  0  0  0  0  0  0  0  0  0  0  0
    1.7313   -1.0038    0.0000 C   0  0  0  0  0  0  0  0  0  0  0  0
    0.8646   -1.5025    0.0000 O   0  0  0  0  0  0  0  0  0  0  0  0
    1.7328   -0.0038    0.0000 N   0  0  0  0  0  0  0  0  0  0  0  0
    0.8675    0.4975    0.0000 C   0  0  0  0  0  0  0  0  0  0  0  0
    0.8675    1.5027    0.0000 C   0  0  0  0  0  0  0  0  0  0  0  0
   -0.0000    2.0104    0.0000 N   0  0  0  0  0  0  0  0  0  0  0  0
   -0.8675    1.5027    0.0000 C   0  0  0  0  0  0  0  0  0  0  0  0
   -0.8675    0.4975    0.0000 C   0  0  0  0  0  0  0  0  0  0  0  0
    0.0000    0.0000    0.0000 C   0  0  0  0  0  0  0  0  0  0  0  0
    0.0000   -1.0000    0.0000 C   0  0  0  0  0  0  0  0  0  0  0  0
   -0.8660   -1.5000    0.0000 C   0  0  0  0  0  0  0  0  0  0  0  0
   -0.8660   -2.5000    0.0000 N   0  0  0  0  0  0  0  0  0  0  0  0
   -1.7321   -3.0000    0.0000 C   0  0  0  0  0  0  0  0  0  0  0  0
   -2.5981   -2.5000    0.0000 O   0  0  0  0  0  0  0  0  0  0  0  0
   -1.7321   -4.0000    0.0000 N   0  0  0  0  0  0  0  0  0  0  0  0
   -2.5981   -4.5000    0.0000 C   0  0  0  0  0  0  0  0  0  0  0  0
   -3.4671   -3.9948    0.0000 C   0  0  0  0  0  0  0  0  0  0  0  0
   -4.3332   -4.4948    0.0000 C   0  0  0  0  0  0  0  0  0  0  0  0
   -4.3390   -5.4948    0.0000 C   0  0  0  0  0  0  0  0  0  0  0  0
   -3.4700   -6.0000    0.0000 C   0  0  0  0  0  0  0  0  0  0  0  0
   -2.5951   -5.5051    0.0000 C   0  0  0  0  0  0  0  0  0  0  0  0
    3.4619   -0.0011    0.0000 C   0  0  0  0  0  0  0  0  0  0  0  0
  1  2  3  0  0  0  0
  2  3  1  0  0  0  0
  3 30  2  0  0  0  0
  3  4  1  0  0  0  0
  4  5  2  0  0  0  0
  5  6  1  0  0  0  0
  6  7  2  0  0  0  0
  7  8  1  0  0  0  0
  8  9  1  0  0  0  0
  9 10  2  0  0  0  0
  9 11  1  0  0  0  0
 11 12  1  0  0  0  0
 12 17  2  0  0  0  0
 12 13  1  0  0  0  0
 13 14  2  0  0  0  0
 14 15  1  0  0  0  0
 15 16  2  0  0  0  0
 16 17  1  0  0  0  0
 17 18  1  0  0  0  0
 18 19  1  0  0  0  0
 19 20  1  0  0  0  0
 20 21  1  0  0  0  0
 21 22  2  0  0  0  0
 21 23  1  0  0  0  0
 23 24  1  0  0  0  0
 24 29  1  0  0  0  0
 24 25  1  0  0  0  0
 25 26  1  0  0  0  0
 26 27  1  0  0  0  0
 27 28  1  0  0  0  0
 28 29  1  0  0  0  0
  7 30  1  0  0  0  0
M  END
$$$$
DAR-DIA-033-5
  -OEChem-03232022352D

 28 30  0     0  0  0  0  0  0999 V2000
    2.6010    1.4950    0.0000 O   0  0  0  0  0  0  0  0  0  0  0  0
    2.5995    0.4950    0.0000 C   0  0  0  0  0  0  0  0  0  0  0  0
    3.4648   -0.0063    0.0000 C   0  0  0  0  0  0  0  0  0  0  0  0
    4.3316    0.4925    0.0000 C   0  0  0  0  0  0  0  0  0  0  0  0
    4.3301    1.4977    0.0000 C   0  0  0  0  0  0  0  0  0  0  0  0
    5.1968    1.9965    0.0000 C   0  0  0  0  0  0  0  0  0  0  0  0
    6.0651    1.5003    0.0000 C   0  0  0  0  0  0  0  0  0  0  0  0
    6.0666    0.4951    0.0000 C   0  0  0  0  0  0  0  0  0  0  0  0
    5.1999   -0.0139    0.0000 C   0  0  0  0  0  0  0  0  0  0  0  0
    1.7328   -0.0038    0.0000 N   0  0  0  0  0  0  0  0  0  0  0  0
    0.8675    0.4975    0.0000 C   0  0  0  0  0  0  0  0  0  0  0  0
    0.8675    1.5027    0.0000 C   0  0  0  0  0  0  0  0  0  0  0  0
   -0.0000    2.0104    0.0000 N   0  0  0  0  0  0  0  0  0  0  0  0
   -0.8675    1.5027    0.0000 C   0  0  0  0  0  0  0  0  0  0  0  0
   -0.8675    0.4975    0.0000 C   0  0  0  0  0  0  0  0  0  0  0  0
    0.0000    0.0000    0.0000 C   0  0  0  0  0  0  0  0  0  0  0  0
    0.0000   -1.0000    0.0000 C   0  0  0  0  0  0  0  0  0  0  0  0
    0.8660   -1.5000    0.0000 C   0  0  0  0  0  0  0  0  0  0  0  0
    0.8660   -2.5000    0.0000 N   0  0  0  0  0  0  0  0  0  0  0  0
    1.7321   -3.0000    0.0000 C   0  0  0  0  0  0  0  0  0  0  0  0
    2.5981   -2.5000    0.0000 O   0  0  0  0  0  0  0  0  0  0  0  0
    1.7321   -4.0000    0.0000 N   0  0  0  0  0  0  0  0  0  0  0  0
    2.5981   -4.5000    0.0000 C   0  0  0  0  0  0  0  0  0  0  0  0
    3.4671   -3.9948    0.0000 C   0  0  0  0  0  0  0  0  0  0  0  0
    4.3332   -4.4948    0.0000 C   0  0  0  0  0  0  0  0  0  0  0  0
    4.3390   -5.4948    0.0000 C   0  0  0  0  0  0  0  0  0  0  0  0
    3.4700   -6.0000    0.0000 C   0  0  0  0  0  0  0  0  0  0  0  0
    2.5951   -5.5051    0.0000 C   0  0  0  0  0  0  0  0  0  0  0  0
  1  2  2  0  0  0  0
  2  3  1  0  0  0  0
  3  4  1  0  0  0  0
  4  9  1  0  0  0  0
  4  5  1  0  0  0  0
  5  6  1  0  0  0  0
  6  7  1  0  0  0  0
  7  8  1  0  0  0  0
  8  9  1  0  0  0  0
  2 10  1  0  0  0  0
 10 11  1  0  0  0  0
 11 16  2  0  0  0  0
 11 12  1  0  0  0  0
 12 13  2  0  0  0  0
 13 14  1  0  0  0  0
 14 15  2  0  0  0  0
 15 16  1  0  0  0  0
 16 17  1  0  0  0  0
 17 18  1  0  0  0  0
 18 19  1  0  0  0  0
 19 20  1  0  0  0  0
 20 21  2  0  0  0  0
 20 22  1  0  0  0  0
 22 23  1  0  0  0  0
 23 28  1  0  0  0  0
 23 24  1  0  0  0  0
 24 25  1  0  0  0  0
 25 26  1  0  0  0  0
 26 27  1  0  0  0  0
 27 28  1  0  0  0  0
M  END
$$$$
DAR-DIA-033-6
  -OEChem-03232022352D

 29 31  0     0  0  0  0  0  0999 V2000
    0.8675    2.5129    0.0000 C   0  0  0  0  0  0  0  0  0  0  0  0
    0.8675    1.5129    0.0000 N   0  0  0  0  0  0  0  0  0  0  0  0
    0.0000    1.0052    0.0000 C   0  0  0  0  0  0  0  0  0  0  0  0
    0.0000    0.0000    0.0000 C   0  0  0  0  0  0  0  0  0  0  0  0
    0.8675   -0.4975    0.0000 N   0  0  0  0  0  0  0  0  0  0  0  0
    0.8675   -1.4975    0.0000 C   0  0  0  0  0  0  0  0  0  0  0  0
    1.7335   -1.9975    0.0000 C   0  0  0  0  0  0  0  0  0  0  0  0
    1.7335   -2.9975    0.0000 O   0  0  0  0  0  0  0  0  0  0  0  0
    2.5996   -1.4975    0.0000 N   0  0  0  0  0  0  0  0  0  0  0  0
    3.4656   -1.9975    0.0000 C   0  0  0  0  0  0  0  0  0  0  0  0
    4.3368   -1.4962    0.0000 C   0  0  0  0  0  0  0  0  0  0  0  0
    5.2095   -1.9949    0.0000 N   0  0  0  0  0  0  0  0  0  0  0  0
    5.2022   -3.0000    0.0000 C   0  0  0  0  0  0  0  0  0  0  0  0
    4.3309   -3.5013    0.0000 C   0  0  0  0  0  0  0  0  0  0  0  0
    3.4670   -2.9975    0.0000 C   0  0  0  0  0  0  0  0  0  0  0  0
    2.6003   -3.4963    0.0000 C   0  0  0  0  0  0  0  0  0  0  0  0
    2.5988   -4.4963    0.0000 C   0  0  0  0  0  0  0  0  0  0  0  0
    1.7321   -4.9950    0.0000 N   0  0  0  0  0  0  0  0  0  0  0  0
    1.7306   -5.9950    0.0000 C   0  0  0  0  0  0  0  0  0  0  0  0
    2.5959   -6.4963    0.0000 O   0  0  0  0  0  0  0  0  0  0  0  0
    0.8639   -6.4938    0.0000 N   0  0  0  0  0  0  0  0  0  0  0  0
    0.8624   -7.4938    0.0000 C   0  0  0  0  0  0  0  0  0  0  0  0
    1.7337   -7.9950    0.0000 C   0  0  0  0  0  0  0  0  0  0  0  0
    1.7323   -8.9951    0.0000 C   0  0  0  0  0  0  0  0  0  0  0  0
    0.8685   -9.4989    0.0000 C   0  0  0  0  0  0  0  0  0  0  0  0
   -0.0028   -8.9976    0.0000 C   0  0  0  0  0  0  0  0  0  0  0  0
   -0.0103   -7.9925    0.0000 C   0  0  0  0  0  0  0  0  0  0  0  0
    1.7350    0.0000    0.0000 C   0  0  0  0  0  0  0  0  0  0  0  0
    1.7350    1.0052    0.0000 C   0  0  0  0  0  0  0  0  0  0  0  0
  1  2  1  0  0  0  0
  2 29  1  0  0  0  0
  2  3  1  0  0  0  0
  3  4  1  0  0  0  0
  4  5  1  0  0  0  0
  5  6  1  0  0  0  0
  6  7  1  0  0  0  0
  7  8  2  0  0  0  0
  7  9  1  0  0  0  0
  9 10  1  0  0  0  0
 10 15  2  0  0  0  0
 10 11  1  0  0  0  0
 11 12  2  0  0  0  0
 12 13  1  0  0  0  0
 13 14  2  0  0  0  0
 14 15  1  0  0  0  0
 15 16  1  0  0  0  0
 16 17  1  0  0  0  0
 17 18  1  0  0  0  0
 18 19  1  0  0  0  0
 19 20  2  0  0  0  0
 19 21  1  0  0  0  0
 21 22  1  0  0  0  0
 22 27  1  0  0  0  0
 22 23  1  0  0  0  0
 23 24  1  0  0  0  0
 24 25  1  0  0  0  0
 25 26  1  0  0  0  0
 26 27  1  0  0  0  0
  5 28  1  0  0  0  0
 28 29  1  0  0  0  0
M  END
$$$$
DAR-DIA-033-7
  -OEChem-03232022352D

 28 30  0     0  0  0  0  0  0999 V2000
    2.6010    1.4950    0.0000 O   0  0  0  0  0  0  0  0  0  0  0  0
    2.5995    0.4950    0.0000 C   0  0  0  0  0  0  0  0  0  0  0  0
    3.4648   -0.0063    0.0000 C   0  0  0  0  0  0  0  0  0  0  0  0
    4.3316    0.4925    0.0000 C   0  0  0  0  0  0  0  0  0  0  0  0
    4.3301    1.4977    0.0000 C   0  0  0  0  0  0  0  0  0  0  0  0
    5.1968    1.9965    0.0000 C   0  0  0  0  0  0  0  0  0  0  0  0
    6.0651    1.5003    0.0000 C   0  0  0  0  0  0  0  0  0  0  0  0
    6.0666    0.4951    0.0000 C   0  0  0  0  0  0  0  0  0  0  0  0
    5.1999   -0.0139    0.0000 C   0  0  0  0  0  0  0  0  0  0  0  0
    1.7328   -0.0038    0.0000 N   0  0  0  0  0  0  0  0  0  0  0  0
    0.8675    0.4975    0.0000 C   0  0  0  0  0  0  0  0  0  0  0  0
    0.8675    1.5027    0.0000 C   0  0  0  0  0  0  0  0  0  0  0  0
   -0.0000    2.0104    0.0000 N   0  0  0  0  0  0  0  0  0  0  0  0
   -0.8675    1.5027    0.0000 C   0  0  0  0  0  0  0  0  0  0  0  0
   -0.8675    0.4975    0.0000 C   0  0  0  0  0  0  0  0  0  0  0  0
    0.0000    0.0000    0.0000 C   0  0  0  0  0  0  0  0  0  0  0  0
    0.0000   -1.0000    0.0000 C   0  0  0  0  0  0  0  0  0  0  0  0
    0.8660   -1.5000    0.0000 C   0  0  0  0  0  0  0  0  0  0  0  0
    0.8660   -2.5000    0.0000 N   0  0  0  0  0  0  0  0  0  0  0  0
    1.7321   -3.0000    0.0000 C   0  0  0  0  0  0  0  0  0  0  0  0
    2.5981   -2.5000    0.0000 O   0  0  0  0  0  0  0  0  0  0  0  0
    1.7321   -4.0000    0.0000 N   0  0  0  0  0  0  0  0  0  0  0  0
    2.5981   -4.5000    0.0000 C   0  0  0  0  0  0  0  0  0  0  0  0
    3.4671   -3.9948    0.0000 C   0  0  0  0  0  0  0  0  0  0  0  0
    4.3332   -4.4948    0.0000 C   0  0  0  0  0  0  0  0  0  0  0  0
    4.3390   -5.4948    0.0000 C   0  0  0  0  0  0  0  0  0  0  0  0
    3.4700   -6.0000    0.0000 C   0  0  0  0  0  0  0  0  0  0  0  0
    2.5951   -5.5051    0.0000 C   0  0  0  0  0  0  0  0  0  0  0  0
  1  2  2  0  0  0  0
  2  3  1  0  0  0  0
  3  4  1  0  0  0  0
  4  9  2  0  0  0  0
  4  5  1  0  0  0  0
  5  6  2  0  0  0  0
  6  7  1  0  0  0  0
  7  8  2  0  0  0  0
  8  9  1  0  0  0  0
  2 10  1  0  0  0  0
 10 11  1  0  0  0  0
 11 16  2  0  0  0  0
 11 12  1  0  0  0  0
 12 13  2  0  0  0  0
 13 14  1  0  0  0  0
 14 15  2  0  0  0  0
 15 16  1  0  0  0  0
 16 17  1  0  0  0  0
 17 18  1  0  0  0  0
 18 19  1  0  0  0  0
 19 20  1  0  0  0  0
 20 21  2  0  0  0  0
 20 22  1  0  0  0  0
 22 23  1  0  0  0  0
 23 28  1  0  0  0  0
 23 24  1  0  0  0  0
 24 25  1  0  0  0  0
 25 26  1  0  0  0  0
 26 27  1  0  0  0  0
 27 28  1  0  0  0  0
M  END
$$$$
DAR-DIA-033-8
  -OEChem-03232022352D

 28 30  0     0  0  0  0  0  0999 V2000
    0.8675    2.5129    0.0000 C   0  0  0  0  0  0  0  0  0  0  0  0
    0.8675    1.5129    0.0000 N   0  0  0  0  0  0  0  0  0  0  0  0
    0.0000    1.0052    0.0000 C   0  0  0  0  0  0  0  0  0  0  0  0
    0.0000    0.0000    0.0000 C   0  0  0  0  0  0  0  0  0  0  0  0
    0.8675   -0.4975    0.0000 N   0  0  0  0  0  0  0  0  0  0  0  0
    0.8675   -1.4975    0.0000 C   0  0  0  0  0  0  0  0  0  0  0  0
    0.0015   -1.9975    0.0000 O   0  0  0  0  0  0  0  0  0  0  0  0
    1.7335   -1.9975    0.0000 N   0  0  0  0  0  0  0  0  0  0  0  0
    1.7335   -2.9975    0.0000 C   0  0  0  0  0  0  0  0  0  0  0  0
    2.5996   -3.4975    0.0000 C   0  0  0  0  0  0  0  0  0  0  0  0
    2.5996   -4.4975    0.0000 C   0  0  0  0  0  0  0  0  0  0  0  0
    3.4671   -4.9950    0.0000 C   0  0  0  0  0  0  0  0  0  0  0  0
    3.4671   -6.0002    0.0000 C   0  0  0  0  0  0  0  0  0  0  0  0
    2.5996   -6.5079    0.0000 N   0  0  0  0  0  0  0  0  0  0  0  0
    1.7321   -6.0002    0.0000 C   0  0  0  0  0  0  0  0  0  0  0  0
    1.7321   -4.9950    0.0000 C   0  0  0  0  0  0  0  0  0  0  0  0
    0.8668   -4.4937    0.0000 N   0  0  0  0  0  0  0  0  0  0  0  0
    0.0000   -4.9925    0.0000 C   0  0  0  0  0  0  0  0  0  0  0  0
   -0.0014   -5.9925    0.0000 O   0  0  0  0  0  0  0  0  0  0  0  0
   -0.8653   -4.4912    0.0000 C   0  0  0  0  0  0  0  0  0  0  0  0
   -1.7320   -4.9900    0.0000 C   0  0  0  0  0  0  0  0  0  0  0  0
   -1.7305   -5.9952    0.0000 C   0  0  0  0  0  0  0  0  0  0  0  0
   -2.5973   -6.4940    0.0000 C   0  0  0  0  0  0  0  0  0  0  0  0
   -3.4655   -5.9978    0.0000 C   0  0  0  0  0  0  0  0  0  0  0  0
   -3.4670   -4.9926    0.0000 C   0  0  0  0  0  0  0  0  0  0  0  0
   -2.6003   -4.4836    0.0000 C   0  0  0  0  0  0  0  0  0  0  0  0
    1.7350    0.0000    0.0000 C   0  0  0  0  0  0  0  0  0  0  0  0
    1.7350    1.0052    0.0000 C   0  0  0  0  0  0  0  0  0  0  0  0
  1  2  1  0  0  0  0
  2 28  1  0  0  0  0
  2  3  1  0  0  0  0
  3  4  1  0  0  0  0
  4  5  1  0  0  0  0
  5  6  1  0  0  0  0
  6  7  2  0  0  0  0
  6  8  1  0  0  0  0
  8  9  1  0  0  0  0
  9 10  1  0  0  0  0
 10 11  1  0  0  0  0
 11 16  2  0  0  0  0
 11 12  1  0  0  0  0
 12 13  2  0  0  0  0
 13 14  1  0  0  0  0
 14 15  2  0  0  0  0
 15 16  1  0  0  0  0
 16 17  1  0  0  0  0
 17 18  1  0  0  0  0
 18 19  2  0  0  0  0
 18 20  1  0  0  0  0
 20 21  1  0  0  0  0
 21 26  2  0  0  0  0
 21 22  1  0  0  0  0
 22 23  2  0  0  0  0
 23 24  1  0  0  0  0
 24 25  2  0  0  0  0
 25 26  1  0  0  0  0
  5 27  1  0  0  0  0
 27 28  1  0  0  0  0
M  END
$$$$
DAR-DIA-033-9
  -OEChem-03232022352D

 27 29  0     0  0  0  0  0  0999 V2000
    2.6010    1.4950    0.0000 O   0  0  0  0  0  0  0  0  0  0  0  0
    2.5995    0.4950    0.0000 C   0  0  0  0  0  0  0  0  0  0  0  0
    3.4648   -0.0063    0.0000 C   0  0  0  0  0  0  0  0  0  0  0  0
    4.3316    0.4925    0.0000 C   0  0  0  0  0  0  0  0  0  0  0  0
    4.3301    1.4977    0.0000 C   0  0  0  0  0  0  0  0  0  0  0  0
    5.1968    1.9965    0.0000 C   0  0  0  0  0  0  0  0  0  0  0  0
    6.0651    1.5003    0.0000 C   0  0  0  0  0  0  0  0  0  0  0  0
    6.0666    0.4951    0.0000 C   0  0  0  0  0  0  0  0  0  0  0  0
    5.1999   -0.0139    0.0000 C   0  0  0  0  0  0  0  0  0  0  0  0
    1.7328   -0.0038    0.0000 N   0  0  0  0  0  0  0  0  0  0  0  0
    0.8675    0.4975    0.0000 C   0  0  0  0  0  0  0  0  0  0  0  0
    0.8675    1.5027    0.0000 C   0  0  0  0  0  0  0  0  0  0  0  0
   -0.0000    2.0104    0.0000 N   0  0  0  0  0  0  0  0  0  0  0  0
   -0.8675    1.5027    0.0000 C   0  0  0  0  0  0  0  0  0  0  0  0
   -0.8675    0.4975    0.0000 C   0  0  0  0  0  0  0  0  0  0  0  0
    0.0000    0.0000    0.0000 C   0  0  0  0  0  0  0  0  0  0  0  0
    0.0000   -1.0000    0.0000 C   0  0  0  0  0  0  0  0  0  0  0  0
    0.8660   -1.5000    0.0000 C   0  0  0  0  0  0  0  0  0  0  0  0
    0.8660   -2.5000    0.0000 N   0  0  0  0  0  0  0  0  0  0  0  0
    1.7321   -3.0000    0.0000 C   0  0  0  0  0  0  0  0  0  0  0  0
    2.5981   -2.5000    0.0000 O   0  0  0  0  0  0  0  0  0  0  0  0
    1.7321   -4.0000    0.0000 N   0  0  0  0  0  0  0  0  0  0  0  0
    0.8646   -4.5077    0.0000 C   0  0  0  0  0  0  0  0  0  0  0  0
    0.8646   -5.5129    0.0000 C   0  0  0  0  0  0  0  0  0  0  0  0
    1.7321   -6.0104    0.0000 C   0  0  0  0  0  0  0  0  0  0  0  0
    2.5996   -5.5129    0.0000 C   0  0  0  0  0  0  0  0  0  0  0  0
    2.5996   -4.5077    0.0000 C   0  0  0  0  0  0  0  0  0  0  0  0
  1  2  2  0  0  0  0
  2  3  1  0  0  0  0
  3  4  1  0  0  0  0
  4  9  2  0  0  0  0
  4  5  1  0  0  0  0
  5  6  2  0  0  0  0
  6  7  1  0  0  0  0
  7  8  2  0  0  0  0
  8  9  1  0  0  0  0
  2 10  1  0  0  0  0
 10 11  1  0  0  0  0
 11 16  2  0  0  0  0
 11 12  1  0  0  0  0
 12 13  2  0  0  0  0
 13 14  1  0  0  0  0
 14 15  2  0  0  0  0
 15 16  1  0  0  0  0
 16 17  1  0  0  0  0
 17 18  1  0  0  0  0
 18 19  1  0  0  0  0
 19 20  1  0  0  0  0
 20 21  2  0  0  0  0
 20 22  1  0  0  0  0
 22 27  1  0  0  0  0
 22 23  1  0  0  0  0
 23 24  1  0  0  0  0
 24 25  1  0  0  0  0
 25 26  1  0  0  0  0
 26 27  1  0  0  0  0
M  END
$$$$
DAR-DIA-033-10
  -OEChem-03232022352D

 27 29  0     0  0  0  0  0  0999 V2000
    2.6010    1.4950    0.0000 O   0  0  0  0  0  0  0  0  0  0  0  0
    2.5995    0.4950    0.0000 C   0  0  0  0  0  0  0  0  0  0  0  0
    3.4648   -0.0063    0.0000 C   0  0  0  0  0  0  0  0  0  0  0  0
    4.3316    0.4925    0.0000 C   0  0  0  0  0  0  0  0  0  0  0  0
    4.3301    1.4977    0.0000 C   0  0  0  0  0  0  0  0  0  0  0  0
    5.1968    1.9965    0.0000 C   0  0  0  0  0  0  0  0  0  0  0  0
    6.0651    1.5003    0.0000 C   0  0  0  0  0  0  0  0  0  0  0  0
    6.0666    0.4951    0.0000 C   0  0  0  0  0  0  0  0  0  0  0  0
    5.1999   -0.0139    0.0000 C   0  0  0  0  0  0  0  0  0  0  0  0
    1.7328   -0.0038    0.0000 N   0  0  0  0  0  0  0  0  0  0  0  0
    0.8675    0.4975    0.0000 C   0  0  0  0  0  0  0  0  0  0  0  0
    0.8675    1.5027    0.0000 C   0  0  0  0  0  0  0  0  0  0  0  0
   -0.0000    2.0104    0.0000 N   0  0  0  0  0  0  0  0  0  0  0  0
   -0.8675    1.5027    0.0000 C   0  0  0  0  0  0  0  0  0  0  0  0
   -0.8675    0.4975    0.0000 C   0  0  0  0  0  0  0  0  0  0  0  0
    0.0000    0.0000    0.0000 C   0  0  0  0  0  0  0  0  0  0  0  0
    0.0000   -1.0000    0.0000 C   0  0  0  0  0  0  0  0  0  0  0  0
    0.8660   -1.5000    0.0000 C   0  0  0  0  0  0  0  0  0  0  0  0
    0.8660   -2.5000    0.0000 N   0  0  0  0  0  0  0  0  0  0  0  0
    1.7321   -3.0000    0.0000 C   0  0  0  0  0  0  0  0  0  0  0  0
    2.5981   -2.5000    0.0000 O   0  0  0  0  0  0  0  0  0  0  0  0
    1.7321   -4.0000    0.0000 N   0  0  0  0  0  0  0  0  0  0  0  0
    2.5996   -4.4975    0.0000 C   0  0  0  0  0  0  0  0  0  0  0  0
    2.5996   -5.5027    0.0000 C   0  0  0  0  0  0  0  0  0  0  0  0
    1.7321   -6.0104    0.0000 O   0  0  0  0  0  0  0  0  0  0  0  0
    0.8646   -5.5027    0.0000 C   0  0  0  0  0  0  0  0  0  0  0  0
    0.8646   -4.4975    0.0000 C   0  0  0  0  0  0  0  0  0  0  0  0
  1  2  2  0  0  0  0
  2  3  1  0  0  0  0
  3  4  1  0  0  0  0
  4  9  2  0  0  0  0
  4  5  1  0  0  0  0
  5  6  2  0  0  0  0
  6  7  1  0  0  0  0
  7  8  2  0  0  0  0
  8  9  1  0  0  0  0
  2 10  1  0  0  0  0
 10 11  1  0  0  0  0
 11 16  2  0  0  0  0
 11 12  1  0  0  0  0
 12 13  2  0  0  0  0
 13 14  1  0  0  0  0
 14 15  2  0  0  0  0
 15 16  1  0  0  0  0
 16 17  1  0  0  0  0
 17 18  1  0  0  0  0
 18 19  1  0  0  0  0
 19 20  1  0  0  0  0
 20 21  2  0  0  0  0
 20 22  1  0  0  0  0
 22 27  1  0  0  0  0
 22 23  1  0  0  0  0
 23 24  1  0  0  0  0
 24 25  1  0  0  0  0
 25 26  1  0  0  0  0
 26 27  1  0  0  0  0
M  END
$$$$
DAR-DIA-033-11
  -OEChem-03232022352D

 27 29  0     0  0  0  0  0  0999 V2000
    2.6010    1.4950    0.0000 O   0  0  0  0  0  0  0  0  0  0  0  0
    2.5995    0.4950    0.0000 C   0  0  0  0  0  0  0  0  0  0  0  0
    3.4648   -0.0063    0.0000 N   0  0  0  0  0  0  0  0  0  0  0  0
    4.3316    0.4925    0.0000 C   0  0  0  0  0  0  0  0  0  0  0  0
    4.3301    1.4977    0.0000 C   0  0  0  0  0  0  0  0  0  0  0  0
    5.1968    1.9965    0.0000 C   0  0  0  0  0  0  0  0  0  0  0  0
    6.0651    1.5003    0.0000 C   0  0  0  0  0  0  0  0  0  0  0  0
    6.0666    0.4951    0.0000 C   0  0  0  0  0  0  0  0  0  0  0  0
    5.1999   -0.0139    0.0000 C   0  0  0  0  0  0  0  0  0  0  0  0
    1.7328   -0.0038    0.0000 N   0  0  0  0  0  0  0  0  0  0  0  0
    0.8675    0.4975    0.0000 C   0  0  0  0  0  0  0  0  0  0  0  0
    0.8675    1.5027    0.0000 C   0  0  0  0  0  0  0  0  0  0  0  0
   -0.0000    2.0104    0.0000 N   0  0  0  0  0  0  0  0  0  0  0  0
   -0.8675    1.5027    0.0000 C   0  0  0  0  0  0  0  0  0  0  0  0
   -0.8675    0.4975    0.0000 C   0  0  0  0  0  0  0  0  0  0  0  0
    0.0000    0.0000    0.0000 C   0  0  0  0  0  0  0  0  0  0  0  0
    0.0000   -1.0000    0.0000 C   0  0  0  0  0  0  0  0  0  0  0  0
    0.8660   -1.5000    0.0000 C   0  0  0  0  0  0  0  0  0  0  0  0
    0.8660   -2.5000    0.0000 N   0  0  0  0  0  0  0  0  0  0  0  0
    1.7321   -3.0000    0.0000 C   0  0  0  0  0  0  0  0  0  0  0  0
    2.5981   -2.5000    0.0000 O   0  0  0  0  0  0  0  0  0  0  0  0
    1.7321   -4.0000    0.0000 N   0  0  0  0  0  0  0  0  0  0  0  0
    0.8646   -4.5077    0.0000 C   0  0  0  0  0  0  0  0  0  0  0  0
    0.8646   -5.5129    0.0000 C   0  0  0  0  0  0  0  0  0  0  0  0
    1.7321   -6.0104    0.0000 C   0  0  0  0  0  0  0  0  0  0  0  0
    2.5996   -5.5129    0.0000 C   0  0  0  0  0  0  0  0  0  0  0  0
    2.5996   -4.5077    0.0000 C   0  0  0  0  0  0  0  0  0  0  0  0
  1  2  2  0  0  0  0
  2  3  1  0  0  0  0
  3  4  1  0  0  0  0
  4  9  2  0  0  0  0
  4  5  1  0  0  0  0
  5  6  2  0  0  0  0
  6  7  1  0  0  0  0
  7  8  2  0  0  0  0
  8  9  1  0  0  0  0
  2 10  1  0  0  0  0
 10 11  1  0  0  0  0
 11 16  2  0  0  0  0
 11 12  1  0  0  0  0
 12 13  2  0  0  0  0
 13 14  1  0  0  0  0
 14 15  2  0  0  0  0
 15 16  1  0  0  0  0
 16 17  1  0  0  0  0
 17 18  1  0  0  0  0
 18 19  1  0  0  0  0
 19 20  1  0  0  0  0
 20 21  2  0  0  0  0
 20 22  1  0  0  0  0
 22 27  1  0  0  0  0
 22 23  1  0  0  0  0
 23 24  1  0  0  0  0
 24 25  1  0  0  0  0
 25 26  1  0  0  0  0
 26 27  1  0  0  0  0
M  END
$$$$
DAR-DIA-033-12
  -OEChem-03232022352D

 29 32  0     0  0  0  0  0  0999 V2000
    6.6547    1.5431    0.0000 C   0  0  0  0  0  0  0  0  0  0  0  0
    5.9896    0.7963    0.0000 N   0  0  0  0  0  0  0  0  0  0  0  0
    6.2998   -0.1598    0.0000 C   0  0  0  0  0  0  0  0  0  0  0  0
    5.6312   -0.9104    0.0000 C   0  0  0  0  0  0  0  0  0  0  0  0
    4.6525   -0.7049    0.0000 N   0  0  0  0  0  0  0  0  0  0  0  0
    3.9874   -1.4517    0.0000 C   0  0  0  0  0  0  0  0  0  0  0  0
    4.3016   -2.4011    0.0000 O   0  0  0  0  0  0  0  0  0  0  0  0
    3.0082   -1.2491    0.0000 C   0  0  0  0  0  0  0  0  0  0  0  0
    2.6940   -0.2997    0.0000 C   0  0  0  0  0  0  0  0  0  0  0  0
    3.2780    0.5133    0.0000 C   0  0  0  0  0  0  0  0  0  0  0  0
    2.6851    1.3196    0.0000 N   0  0  0  0  0  0  0  0  0  0  0  0
    1.7350    1.0052    0.0000 C   0  0  0  0  0  0  0  0  0  0  0  0
    0.8675    1.5129    0.0000 N   0  0  0  0  0  0  0  0  0  0  0  0
    0.0000    1.0052    0.0000 C   0  0  0  0  0  0  0  0  0  0  0  0
    0.0000    0.0000    0.0000 C   0  0  0  0  0  0  0  0  0  0  0  0
    0.8675   -0.4975    0.0000 C   0  0  0  0  0  0  0  0  0  0  0  0
    0.8680   -1.4975    0.0000 N   0  0  0  0  0  0  0  0  0  0  0  0
    0.0023   -1.9980    0.0000 C   0  0  0  0  0  0  0  0  0  0  0  0
   -0.8640   -1.4984    0.0000 O   0  0  0  0  0  0  0  0  0  0  0  0
    0.0028   -2.9980    0.0000 N   0  0  0  0  0  0  0  0  0  0  0  0
   -0.8629   -3.4984    0.0000 C   0  0  0  0  0  0  0  0  0  0  0  0
   -1.7323   -2.9937    0.0000 C   0  0  0  0  0  0  0  0  0  0  0  0
   -2.5981   -3.4942    0.0000 C   0  0  0  0  0  0  0  0  0  0  0  0
   -2.6034   -4.4942    0.0000 C   0  0  0  0  0  0  0  0  0  0  0  0
   -1.7341   -4.9989    0.0000 C   0  0  0  0  0  0  0  0  0  0  0  0
   -0.8594   -4.5036    0.0000 C   0  0  0  0  0  0  0  0  0  0  0  0
    1.7405    0.0044    0.0000 C   0  0  0  0  0  0  0  0  0  0  0  0
    4.3356    0.2436    0.0000 C   0  0  0  0  0  0  0  0  0  0  0  0
    5.0042    0.9942    0.0000 C   0  0  0  0  0  0  0  0  0  0  0  0
  1  2  1  0  0  0  0
  2 29  1  0  0  0  0
  2  3  1  0  0  0  0
  3  4  1  0  0  0  0
  4  5  1  0  0  0  0
  5  6  1  0  0  0  0
  6  7  2  0  0  0  0
  6  8  1  0  0  0  0
  8  9  1  0  0  0  0
  9 27  1  0  0  0  0
  9 10  2  0  0  0  0
 10 11  1  0  0  0  0
 11 12  1  0  0  0  0
 12 27  2  0  0  0  0
 12 13  1  0  0  0  0
 13 14  2  0  0  0  0
 14 15  1  0  0  0  0
 15 16  2  0  0  0  0
 16 17  1  0  0  0  0
 17 18  1  0  0  0  0
 18 19  2  0  0  0  0
 18 20  1  0  0  0  0
 20 21  1  0  0  0  0
 21 26  1  0  0  0  0
 21 22  1  0  0  0  0
 22 23  1  0  0  0  0
 23 24  1  0  0  0  0
 24 25  1  0  0  0  0
 25 26  1  0  0  0  0
 16 27  1  0  0  0  0
  5 28  1  0  0  0  0
 28 29  1  0  0  0  0
M  END
$$$$
DAR-DIA-033-13
  -OEChem-03232022352D

 29 32  0     0  0  0  0  0  0999 V2000
    4.6525   -0.7049    0.0000 O   0  0  0  0  0  0  0  0  0  0  0  0
    3.9874   -1.4517    0.0000 C   0  0  0  0  0  0  0  0  0  0  0  0
    4.3016   -2.4011    0.0000 C   0  0  0  0  0  0  0  0  0  0  0  0
    5.2808   -2.6037    0.0000 C   0  0  0  0  0  0  0  0  0  0  0  0
    5.9472   -1.8511    0.0000 C   0  0  0  0  0  0  0  0  0  0  0  0
    6.9265   -2.0536    0.0000 C   0  0  0  0  0  0  0  0  0  0  0  0
    7.2462   -3.0012    0.0000 C   0  0  0  0  0  0  0  0  0  0  0  0
    6.5799   -3.7538    0.0000 C   0  0  0  0  0  0  0  0  0  0  0  0
    5.5938   -3.5589    0.0000 C   0  0  0  0  0  0  0  0  0  0  0  0
    3.0082   -1.2491    0.0000 N   0  0  0  0  0  0  0  0  0  0  0  0
    2.6940   -0.2997    0.0000 C   0  0  0  0  0  0  0  0  0  0  0  0
    3.2780    0.5133    0.0000 C   0  0  0  0  0  0  0  0  0  0  0  0
    2.6851    1.3196    0.0000 N   0  0  0  0  0  0  0  0  0  0  0  0
    1.7350    1.0052    0.0000 C   0  0  0  0  0  0  0  0  0  0  0  0
    0.8675    1.5129    0.0000 N   0  0  0  0  0  0  0  0  0  0  0  0
    0.0000    1.0052    0.0000 C   0  0  0  0  0  0  0  0  0  0  0  0
    0.0000    0.0000    0.0000 C   0  0  0  0  0  0  0  0  0  0  0  0
    0.8675   -0.4975    0.0000 C   0  0  0  0  0  0  0  0  0  0  0  0
    0.8680   -1.4975    0.0000 N   0  0  0  0  0  0  0  0  0  0  0  0
    0.0023   -1.9980    0.0000 C   0  0  0  0  0  0  0  0  0  0  0  0
   -0.8640   -1.4984    0.0000 O   0  0  0  0  0  0  0  0  0  0  0  0
    0.0028   -2.9980    0.0000 N   0  0  0  0  0  0  0  0  0  0  0  0
   -0.8629   -3.4984    0.0000 C   0  0  0  0  0  0  0  0  0  0  0  0
   -1.7323   -2.9937    0.0000 C   0  0  0  0  0  0  0  0  0  0  0  0
   -2.5981   -3.4942    0.0000 C   0  0  0  0  0  0  0  0  0  0  0  0
   -2.6034   -4.4942    0.0000 C   0  0  0  0  0  0  0  0  0  0  0  0
   -1.7341   -4.9989    0.0000 C   0  0  0  0  0  0  0  0  0  0  0  0
   -0.8594   -4.5036    0.0000 C   0  0  0  0  0  0  0  0  0  0  0  0
    1.7405    0.0044    0.0000 C   0  0  0  0  0  0  0  0  0  0  0  0
  1  2  2  0  0  0  0
  2  3  1  0  0  0  0
  3  4  1  0  0  0  0
  4  9  2  0  0  0  0
  4  5  1  0  0  0  0
  5  6  2  0  0  0  0
  6  7  1  0  0  0  0
  7  8  2  0  0  0  0
  8  9  1  0  0  0  0
  2 10  1  0  0  0  0
 10 11  1  0  0  0  0
 11 29  1  0  0  0  0
 11 12  2  0  0  0  0
 12 13  1  0  0  0  0
 13 14  1  0  0  0  0
 14 29  2  0  0  0  0
 14 15  1  0  0  0  0
 15 16  2  0  0  0  0
 16 17  1  0  0  0  0
 17 18  2  0  0  0  0
 18 19  1  0  0  0  0
 19 20  1  0  0  0  0
 20 21  2  0  0  0  0
 20 22  1  0  0  0  0
 22 23  1  0  0  0  0
 23 28  1  0  0  0  0
 23 24  1  0  0  0  0
 24 25  1  0  0  0  0
 25 26  1  0  0  0  0
 26 27  1  0  0  0  0
 27 28  1  0  0  0  0
 18 29  1  0  0  0  0
M  END
$$$$
DAR-DIA-033-14
  -OEChem-03232022352D

 28 31  0     0  0  0  0  0  0999 V2000
    4.6525   -0.7049    0.0000 O   0  0  0  0  0  0  0  0  0  0  0  0
    3.9874   -1.4517    0.0000 C   0  0  0  0  0  0  0  0  0  0  0  0
    4.3016   -2.4011    0.0000 C   0  0  0  0  0  0  0  0  0  0  0  0
    5.2808   -2.6037    0.0000 C   0  0  0  0  0  0  0  0  0  0  0  0
    5.9472   -1.8511    0.0000 C   0  0  0  0  0  0  0  0  0  0  0  0
    6.9265   -2.0536    0.0000 C   0  0  0  0  0  0  0  0  0  0  0  0
    7.2462   -3.0012    0.0000 C   0  0  0  0  0  0  0  0  0  0  0  0
    6.5799   -3.7538    0.0000 C   0  0  0  0  0  0  0  0  0  0  0  0
    5.5938   -3.5589    0.0000 C   0  0  0  0  0  0  0  0  0  0  0  0
    3.0082   -1.2491    0.0000 N   0  0  0  0  0  0  0  0  0  0  0  0
    2.6940   -0.2997    0.0000 C   0  0  0  0  0  0  0  0  0  0  0  0
    3.2780    0.5133    0.0000 C   0  0  0  0  0  0  0  0  0  0  0  0
    2.6851    1.3196    0.0000 N   0  0  0  0  0  0  0  0  0  0  0  0
    1.7350    1.0052    0.0000 C   0  0  0  0  0  0  0  0  0  0  0  0
    0.8675    1.5129    0.0000 N   0  0  0  0  0  0  0  0  0  0  0  0
    0.0000    1.0052    0.0000 C   0  0  0  0  0  0  0  0  0  0  0  0
    0.0000    0.0000    0.0000 C   0  0  0  0  0  0  0  0  0  0  0  0
    0.8675   -0.4975    0.0000 C   0  0  0  0  0  0  0  0  0  0  0  0
    0.8680   -1.4975    0.0000 N   0  0  0  0  0  0  0  0  0  0  0  0
    0.0023   -1.9980    0.0000 C   0  0  0  0  0  0  0  0  0  0  0  0
   -0.8640   -1.4984    0.0000 O   0  0  0  0  0  0  0  0  0  0  0  0
    0.0028   -2.9980    0.0000 C   0  0  0  0  0  0  0  0  0  0  0  0
   -0.8689   -3.4985    0.0000 C   0  0  0  0  0  0  0  0  0  0  0  0
   -0.8684   -4.4985    0.0000 C   0  0  0  0  0  0  0  0  0  0  0  0
   -0.0051   -5.0031    0.0000 C   0  0  0  0  0  0  0  0  0  0  0  0
    0.8667   -4.5026    0.0000 C   0  0  0  0  0  0  0  0  0  0  0  0
    0.8750   -3.4975    0.0000 C   0  0  0  0  0  0  0  0  0  0  0  0
    1.7405    0.0044    0.0000 C   0  0  0  0  0  0  0  0  0  0  0  0
  1  2  2  0  0  0  0
  2  3  1  0  0  0  0
  3  4  1  0  0  0  0
  4  9  2  0  0  0  0
  4  5  1  0  0  0  0
  5  6  2  0  0  0  0
  6  7  1  0  0  0  0
  7  8  2  0  0  0  0
  8  9  1  0  0  0  0
  2 10  1  0  0  0  0
 10 11  1  0  0  0  0
 11 28  1  0  0  0  0
 11 12  2  0  0  0  0
 12 13  1  0  0  0  0
 13 14  1  0  0  0  0
 14 28  2  0  0  0  0
 14 15  1  0  0  0  0
 15 16  2  0  0  0  0
 16 17  1  0  0  0  0
 17 18  2  0  0  0  0
 18 19  1  0  0  0  0
 19 20  1  0  0  0  0
 20 21  2  0  0  0  0
 20 22  1  0  0  0  0
 22 27  1  0  0  0  0
 22 23  1  0  0  0  0
 23 24  1  0  0  0  0
 24 25  1  0  0  0  0
 25 26  1  0  0  0  0
 26 27  1  0  0  0  0
 18 28  1  0  0  0  0
M  END
$$$$
DAR-DIA-033-15
  -OEChem-03232022352D

 19 20  0     0  0  0  0  0  0999 V2000
    0.8660   -2.5000    0.0000 N   0  0  0  0  0  0  0  0  0  0  0  0
    0.8660   -1.5000    0.0000 C   0  0  0  0  0  0  0  0  0  0  0  0
   -0.0000   -1.0000    0.0000 C   0  0  0  0  0  0  0  0  0  0  0  0
    0.0000    0.0000    0.0000 C   0  0  0  0  0  0  0  0  0  0  0  0
   -0.8675    0.4975    0.0000 C   0  0  0  0  0  0  0  0  0  0  0  0
   -0.8675    1.5027    0.0000 C   0  0  0  0  0  0  0  0  0  0  0  0
    0.0000    2.0104    0.0000 N   0  0  0  0  0  0  0  0  0  0  0  0
    0.8675    1.5027    0.0000 C   0  0  0  0  0  0  0  0  0  0  0  0
    0.8675    0.4975    0.0000 C   0  0  0  0  0  0  0  0  0  0  0  0
    1.7328   -0.0038    0.0000 C   0  0  0  0  0  0  0  0  0  0  0  0
    2.5995    0.4950    0.0000 C   0  0  0  0  0  0  0  0  0  0  0  0
    2.6010    1.4950    0.0000 O   0  0  0  0  0  0  0  0  0  0  0  0
    3.4648   -0.0063    0.0000 N   0  0  0  0  0  0  0  0  0  0  0  0
    4.3316    0.4925    0.0000 C   0  0  0  0  0  0  0  0  0  0  0  0
    4.3301    1.4977    0.0000 C   0  0  0  0  0  0  0  0  0  0  0  0
    5.1968    1.9965    0.0000 C   0  0  0  0  0  0  0  0  0  0  0  0
    6.0651    1.5003    0.0000 C   0  0  0  0  0  0  0  0  0  0  0  0
    6.0666    0.4951    0.0000 C   0  0  0  0  0  0  0  0  0  0  0  0
    5.1999   -0.0139    0.0000 C   0  0  0  0  0  0  0  0  0  0  0  0
  1  2  1  0  0  0  0
  2  3  1  0  0  0  0
  3  4  1  0  0  0  0
  4  9  2  0  0  0  0
  4  5  1  0  0  0  0
  5  6  2  0  0  0  0
  6  7  1  0  0  0  0
  7  8  2  0  0  0  0
  8  9  1  0  0  0  0
  9 10  1  0  0  0  0
 10 11  1  0  0  0  0
 11 12  2  0  0  0  0
 11 13  1  0  0  0  0
 13 14  1  0  0  0  0
 14 19  2  0  0  0  0
 14 15  1  0  0  0  0
 15 16  2  0  0  0  0
 16 17  1  0  0  0  0
 17 18  2  0  0  0  0
 18 19  1  0  0  0  0
M  END
$$$$
