s_22____9156166____58844
  -OEChem-03222016482D

 16 17  0     0  0  0  0  0  0999 V2000
   -0.8675    1.5032    0.0000 C   0  0  0  0  0  0  0  0  0  0  0  0
    0.0000    1.0058    0.0000 C   0  0  0  0  0  0  0  0  0  0  0  0
    0.0000    0.0000    0.0000 C   0  0  0  0  0  0  0  0  0  0  0  0
    0.8680   -0.4978    0.0000 C   0  0  0  0  0  0  0  0  0  0  0  0
    1.7360   -0.0012    0.0000 C   0  0  0  0  0  0  0  0  0  0  0  0
    1.7360    1.0058    0.0000 C   0  0  0  0  0  0  0  0  0  0  0  0
    0.8680    1.5138    0.0000 C   0  0  0  0  0  0  0  0  0  0  0  0
    2.6938    1.3169    0.0000 N   0  0  0  0  0  0  0  0  0  0  0  0
    3.2858    0.5023    0.0000 C   0  0  0  0  0  0  0  0  0  0  0  0
    2.6938   -0.3125    0.0000 C   0  0  0  0  0  0  0  0  0  0  0  0
    3.0028   -1.2636    0.0000 C   0  0  0  0  0  0  0  0  0  0  0  0
    3.9809   -1.4715    0.0000 C   0  0  0  0  0  0  0  0  0  0  0  0
    4.2899   -2.4226    0.0000 N   0  0  0  0  0  0  0  0  0  0  0  0
    5.2680   -2.6306    0.0000 C   0  0  0  0  0  0  0  0  0  0  0  0
    5.9372   -1.8874    0.0000 O   0  0  0  0  0  0  0  0  0  0  0  0
    5.5770   -3.5816    0.0000 C   0  0  0  0  0  0  0  0  0  0  0  0
  1  2  1  0  0  0  0
  2  7  2  0  0  0  0
  2  3  1  0  0  0  0
  3  4  2  0  0  0  0
  4  5  1  0  0  0  0
  5 10  1  0  0  0  0
  5  6  2  0  0  0  0
  6  7  1  0  0  0  0
  6  8  1  0  0  0  0
  8  9  1  0  0  0  0
  9 10  2  0  0  0  0
 10 11  1  0  0  0  0
 11 12  1  0  0  0  0
 12 13  1  0  0  0  0
 13 14  1  0  0  0  0
 14 15  2  0  0  0  0
 14 16  1  0  0  0  0
M  END
$$$$
s_22____9226532____8794444
  -OEChem-03222016482D

 20 21  0     0  0  0  0  0  0999 V2000
    1.7327   -2.9983    0.0000 C   0  0  0  0  0  0  0  0  0  0  0  0
    1.7332   -1.9983    0.0000 C   0  0  0  0  0  0  0  0  0  0  0  0
    0.8675   -1.4978    0.0000 O   0  0  0  0  0  0  0  0  0  0  0  0
    0.8680   -0.4978    0.0000 C   0  0  0  0  0  0  0  0  0  0  0  0
    0.0000    0.0000    0.0000 C   0  0  0  0  0  0  0  0  0  0  0  0
   -0.0000    1.0058    0.0000 C   0  0  0  0  0  0  0  0  0  0  0  0
    0.8680    1.5138    0.0000 C   0  0  0  0  0  0  0  0  0  0  0  0
    1.7360    1.0058    0.0000 C   0  0  0  0  0  0  0  0  0  0  0  0
    1.7360   -0.0012    0.0000 C   0  0  0  0  0  0  0  0  0  0  0  0
    2.6938   -0.3125    0.0000 C   0  0  0  0  0  0  0  0  0  0  0  0
    3.2858    0.5023    0.0000 C   0  0  0  0  0  0  0  0  0  0  0  0
    2.6938    1.3169    0.0000 N   0  0  0  0  0  0  0  0  0  0  0  0
    3.0028   -1.2636    0.0000 C   0  0  0  0  0  0  0  0  0  0  0  0
    3.9809   -1.4715    0.0000 C   0  0  0  0  0  0  0  0  0  0  0  0
    4.2899   -2.4226    0.0000 N   0  0  0  0  0  0  0  0  0  0  0  0
    5.2680   -2.6306    0.0000 C   0  0  0  0  0  0  0  0  0  0  0  0
    5.9372   -1.8874    0.0000 O   0  0  0  0  0  0  0  0  0  0  0  0
    5.5770   -3.5816    0.0000 C   0  0  0  0  0  0  0  0  0  0  0  0
    6.5551   -3.7896    0.0000 C   0  0  0  0  0  0  0  0  0  0  0  0
    7.5333   -3.9976    0.0000 N   0  0  0  0  0  0  0  0  0  0  0  0
  1  2  1  0  0  0  0
  2  3  1  0  0  0  0
  3  4  1  0  0  0  0
  4  9  2  0  0  0  0
  4  5  1  0  0  0  0
  5  6  2  0  0  0  0
  6  7  1  0  0  0  0
  7  8  2  0  0  0  0
  8 12  1  0  0  0  0
  8  9  1  0  0  0  0
  9 10  1  0  0  0  0
 10 11  2  0  0  0  0
 11 12  1  0  0  0  0
 10 13  1  0  0  0  0
 13 14  1  0  0  0  0
 14 15  1  0  0  0  0
 15 16  1  0  0  0  0
 16 17  2  0  0  0  0
 16 18  1  0  0  0  0
 18 19  1  0  0  0  0
 19 20  3  0  0  0  0
M  END
$$$$
s_22____13978824____13040272
  -OEChem-03222016482D

 21 22  0     0  0  0  0  0  0999 V2000
   -0.8705    2.5032    0.0000 C   0  0  0  0  0  0  0  0  0  0  0  0
   -0.8675    1.5032    0.0000 O   0  0  0  0  0  0  0  0  0  0  0  0
    0.0000    1.0058    0.0000 C   0  0  0  0  0  0  0  0  0  0  0  0
    0.0000    0.0000    0.0000 C   0  0  0  0  0  0  0  0  0  0  0  0
    0.8680   -0.4978    0.0000 C   0  0  0  0  0  0  0  0  0  0  0  0
    1.7360   -0.0012    0.0000 C   0  0  0  0  0  0  0  0  0  0  0  0
    1.7360    1.0058    0.0000 C   0  0  0  0  0  0  0  0  0  0  0  0
    0.8680    1.5138    0.0000 C   0  0  0  0  0  0  0  0  0  0  0  0
    2.6938    1.3169    0.0000 N   0  0  0  0  0  0  0  0  0  0  0  0
    3.2858    0.5023    0.0000 C   0  0  0  0  0  0  0  0  0  0  0  0
    2.6938   -0.3125    0.0000 C   0  0  0  0  0  0  0  0  0  0  0  0
    3.0028   -1.2636    0.0000 C   0  0  0  0  0  0  0  0  0  0  0  0
    3.9809   -1.4715    0.0000 C   0  0  0  0  0  0  0  0  0  0  0  0
    4.2899   -2.4226    0.0000 N   0  0  0  0  0  0  0  0  0  0  0  0
    5.2680   -2.6306    0.0000 C   0  0  0  0  0  0  0  0  0  0  0  0
    5.9372   -1.8874    0.0000 O   0  0  0  0  0  0  0  0  0  0  0  0
    5.5770   -3.5816    0.0000 C   0  0  0  0  0  0  0  0  0  0  0  0
    6.5551   -3.7896    0.0000 S   0  0  0  0  0  0  0  0  0  0  0  0
    6.8641   -4.7407    0.0000 C   0  0  0  0  0  0  0  0  0  0  0  0
    7.8422   -4.9486    0.0000 C   0  0  0  0  0  0  0  0  0  0  0  0
    8.8204   -5.1566    0.0000 C   0  0  0  0  0  0  0  0  0  0  0  0
  1  2  1  0  0  0  0
  2  3  1  0  0  0  0
  3  8  2  0  0  0  0
  3  4  1  0  0  0  0
  4  5  2  0  0  0  0
  5  6  1  0  0  0  0
  6 11  1  0  0  0  0
  6  7  2  0  0  0  0
  7  8  1  0  0  0  0
  7  9  1  0  0  0  0
  9 10  1  0  0  0  0
 10 11  2  0  0  0  0
 11 12  1  0  0  0  0
 12 13  1  0  0  0  0
 13 14  1  0  0  0  0
 14 15  1  0  0  0  0
 15 16  2  0  0  0  0
 15 17  1  0  0  0  0
 17 18  1  0  0  0  0
 18 19  1  0  0  0  0
 19 20  1  0  0  0  0
 20 21  3  0  0  0  0
M  END
$$$$
s_22____13909752____8794444
  -OEChem-03222016482D

 18 19  0     0  0  0  0  0  0999 V2000
   -0.0000    1.0058    0.0000 C   0  0  0  0  0  0  0  0  0  0  0  0
    0.8680    1.5138    0.0000 C   0  0  0  0  0  0  0  0  0  0  0  0
    1.7360    1.0058    0.0000 C   0  0  0  0  0  0  0  0  0  0  0  0
    1.7360   -0.0012    0.0000 C   0  0  0  0  0  0  0  0  0  0  0  0
    0.8680   -0.4978    0.0000 C   0  0  0  0  0  0  0  0  0  0  0  0
    0.0000    0.0000    0.0000 C   0  0  0  0  0  0  0  0  0  0  0  0
   -0.8653   -0.5013    0.0000 O   0  0  0  0  0  0  0  0  0  0  0  0
    2.6938   -0.3125    0.0000 C   0  0  0  0  0  0  0  0  0  0  0  0
    3.2858    0.5023    0.0000 C   0  0  0  0  0  0  0  0  0  0  0  0
    2.6938    1.3169    0.0000 N   0  0  0  0  0  0  0  0  0  0  0  0
    3.0028   -1.2636    0.0000 C   0  0  0  0  0  0  0  0  0  0  0  0
    3.9809   -1.4715    0.0000 C   0  0  0  0  0  0  0  0  0  0  0  0
    4.2899   -2.4226    0.0000 N   0  0  0  0  0  0  0  0  0  0  0  0
    5.2680   -2.6306    0.0000 C   0  0  0  0  0  0  0  0  0  0  0  0
    5.9372   -1.8874    0.0000 O   0  0  0  0  0  0  0  0  0  0  0  0
    5.5770   -3.5816    0.0000 C   0  0  0  0  0  0  0  0  0  0  0  0
    6.5551   -3.7896    0.0000 C   0  0  0  0  0  0  0  0  0  0  0  0
    7.5333   -3.9976    0.0000 N   0  0  0  0  0  0  0  0  0  0  0  0
  1  6  2  0  0  0  0
  1  2  1  0  0  0  0
  2  3  2  0  0  0  0
  3 10  1  0  0  0  0
  3  4  1  0  0  0  0
  4  5  2  0  0  0  0
  5  6  1  0  0  0  0
  6  7  1  0  0  0  0
  4  8  1  0  0  0  0
  8  9  2  0  0  0  0
  9 10  1  0  0  0  0
  8 11  1  0  0  0  0
 11 12  1  0  0  0  0
 12 13  1  0  0  0  0
 13 14  1  0  0  0  0
 14 15  2  0  0  0  0
 14 16  1  0  0  0  0
 16 17  1  0  0  0  0
 17 18  3  0  0  0  0
M  END
$$$$
s_22____2366540____8794444
  -OEChem-03222016482D

 18 19  0     0  0  0  0  0  0999 V2000
    0.0000    0.0000    0.0000 C   0  0  0  0  0  0  0  0  0  0  0  0
    0.8680   -0.4978    0.0000 C   0  0  0  0  0  0  0  0  0  0  0  0
    1.7360   -0.0012    0.0000 C   0  0  0  0  0  0  0  0  0  0  0  0
    1.7360    1.0058    0.0000 C   0  0  0  0  0  0  0  0  0  0  0  0
    0.8680    1.5138    0.0000 C   0  0  0  0  0  0  0  0  0  0  0  0
    0.0000    1.0058    0.0000 C   0  0  0  0  0  0  0  0  0  0  0  0
   -0.8675    1.5032    0.0000 F   0  0  0  0  0  0  0  0  0  0  0  0
    2.6938    1.3169    0.0000 N   0  0  0  0  0  0  0  0  0  0  0  0
    3.2858    0.5023    0.0000 C   0  0  0  0  0  0  0  0  0  0  0  0
    2.6938   -0.3125    0.0000 C   0  0  0  0  0  0  0  0  0  0  0  0
    3.0028   -1.2636    0.0000 C   0  0  0  0  0  0  0  0  0  0  0  0
    3.9809   -1.4715    0.0000 C   0  0  0  0  0  0  0  0  0  0  0  0
    4.2899   -2.4226    0.0000 N   0  0  0  0  0  0  0  0  0  0  0  0
    5.2680   -2.6306    0.0000 C   0  0  0  0  0  0  0  0  0  0  0  0
    5.9372   -1.8874    0.0000 O   0  0  0  0  0  0  0  0  0  0  0  0
    5.5770   -3.5816    0.0000 C   0  0  0  0  0  0  0  0  0  0  0  0
    6.5551   -3.7896    0.0000 C   0  0  0  0  0  0  0  0  0  0  0  0
    7.5333   -3.9976    0.0000 N   0  0  0  0  0  0  0  0  0  0  0  0
  1  6  2  0  0  0  0
  1  2  1  0  0  0  0
  2  3  2  0  0  0  0
  3 10  1  0  0  0  0
  3  4  1  0  0  0  0
  4  5  2  0  0  0  0
  5  6  1  0  0  0  0
  6  7  1  0  0  0  0
  4  8  1  0  0  0  0
  8  9  1  0  0  0  0
  9 10  2  0  0  0  0
 10 11  1  0  0  0  0
 11 12  1  0  0  0  0
 12 13  1  0  0  0  0
 13 14  1  0  0  0  0
 14 15  2  0  0  0  0
 14 16  1  0  0  0  0
 16 17  1  0  0  0  0
 17 18  3  0  0  0  0
M  END
$$$$
s_270062____15506652____12187078
  -OEChem-03222016482D

 21 22  0     0  0  0  0  0  0999 V2000
    6.5281   -3.2727    0.0000 C   0  0  0  0  0  0  0  0  0  0  0  0
    5.5770   -3.5816    0.0000 C   0  0  0  0  0  0  0  0  0  0  0  0
    4.6259   -3.8906    0.0000 C   0  0  0  0  0  0  0  0  0  0  0  0
    5.8860   -4.5327    0.0000 C   0  0  0  0  0  0  0  0  0  0  0  0
    6.8641   -4.7407    0.0000 Cl  0  0  0  0  0  0  0  0  0  0  0  0
    5.2680   -2.6306    0.0000 C   0  0  0  0  0  0  0  0  0  0  0  0
    5.9372   -1.8874    0.0000 O   0  0  0  0  0  0  0  0  0  0  0  0
    4.2899   -2.4226    0.0000 N   0  0  0  0  0  0  0  0  0  0  0  0
    3.9809   -1.4715    0.0000 C   0  0  0  0  0  0  0  0  0  0  0  0
    3.0028   -1.2636    0.0000 C   0  0  0  0  0  0  0  0  0  0  0  0
    2.6938   -0.3125    0.0000 C   0  0  0  0  0  0  0  0  0  0  0  0
    3.2858    0.5023    0.0000 C   0  0  0  0  0  0  0  0  0  0  0  0
    2.6938    1.3169    0.0000 N   0  0  0  0  0  0  0  0  0  0  0  0
    1.7360    1.0058    0.0000 C   0  0  0  0  0  0  0  0  0  0  0  0
    1.7360   -0.0012    0.0000 C   0  0  0  0  0  0  0  0  0  0  0  0
    0.8680   -0.4978    0.0000 C   0  0  0  0  0  0  0  0  0  0  0  0
    0.0000    0.0000    0.0000 C   0  0  0  0  0  0  0  0  0  0  0  0
   -0.0000    1.0058    0.0000 C   0  0  0  0  0  0  0  0  0  0  0  0
    0.8680    1.5138    0.0000 C   0  0  0  0  0  0  0  0  0  0  0  0
    0.8680    2.5138    0.0000 O   0  0  0  0  0  0  0  0  0  0  0  0
    0.0020    3.0138    0.0000 C   0  0  0  0  0  0  0  0  0  0  0  0
  1  2  1  0  0  0  0
  2  3  1  0  0  0  0
  2  4  1  0  0  0  0
  4  5  1  0  0  0  0
  2  6  1  0  0  0  0
  6  7  2  0  0  0  0
  6  8  1  0  0  0  0
  8  9  1  0  0  0  0
  9 10  1  0  0  0  0
 10 11  1  0  0  0  0
 11 15  1  0  0  0  0
 11 12  2  0  0  0  0
 12 13  1  0  0  0  0
 13 14  1  0  0  0  0
 14 19  2  0  0  0  0
 14 15  1  0  0  0  0
 15 16  2  0  0  0  0
 16 17  1  0  0  0  0
 17 18  2  0  0  0  0
 18 19  1  0  0  0  0
 19 20  1  0  0  0  0
 20 21  1  0  0  0  0
M  END
$$$$
s_207____3310404____9293594
  -OEChem-03222016482D

 18 19  0     0  0  0  0  0  0999 V2000
    7.7856    3.1006    0.0000 C   0  0  0  0  0  0  0  0  0  0  0  0
    7.2857    2.2346    0.0000 N   0  0  0  0  0  0  0  0  0  0  0  0
    7.7857    1.3686    0.0000 C   0  0  0  0  0  0  0  0  0  0  0  0
    6.2857    2.2345    0.0000 C   0  0  0  0  0  0  0  0  0  0  0  0
    5.7856    3.1005    0.0000 O   0  0  0  0  0  0  0  0  0  0  0  0
    5.7857    1.3685    0.0000 C   0  0  0  0  0  0  0  0  0  0  0  0
    4.7857    1.3684    0.0000 N   0  3  0  0  0  0  0  0  0  0  0  0
    4.2858    0.5024    0.0000 C   0  0  0  0  0  0  0  0  0  0  0  0
    3.2858    0.5023    0.0000 C   0  0  0  0  0  0  0  0  0  0  0  0
    2.6938   -0.3125    0.0000 C   0  0  0  0  0  0  0  0  0  0  0  0
    1.7360   -0.0012    0.0000 C   0  0  0  0  0  0  0  0  0  0  0  0
    0.8680   -0.4978    0.0000 C   0  0  0  0  0  0  0  0  0  0  0  0
    0.0000    0.0000    0.0000 C   0  0  0  0  0  0  0  0  0  0  0  0
    0.0000    1.0058    0.0000 C   0  0  0  0  0  0  0  0  0  0  0  0
    0.8680    1.5138    0.0000 C   0  0  0  0  0  0  0  0  0  0  0  0
    1.7360    1.0058    0.0000 C   0  0  0  0  0  0  0  0  0  0  0  0
    2.6938    1.3169    0.0000 N   0  0  0  0  0  0  0  0  0  0  0  0
   -0.8675    1.5032    0.0000 F   0  0  0  0  0  0  0  0  0  0  0  0
  1  2  1  0  0  0  0
  2  3  1  0  0  0  0
  2  4  1  0  0  0  0
  4  5  2  0  0  0  0
  4  6  1  0  0  0  0
  6  7  1  0  0  0  0
  7  8  1  0  0  0  0
  8  9  1  0  0  0  0
  9 17  1  0  0  0  0
  9 10  2  0  0  0  0
 10 11  1  0  0  0  0
 11 16  2  0  0  0  0
 11 12  1  0  0  0  0
 12 13  2  0  0  0  0
 13 14  1  0  0  0  0
 14 15  2  0  0  0  0
 15 16  1  0  0  0  0
 16 17  1  0  0  0  0
 14 18  1  0  0  0  0
M  CHG  1   7   1
M  END
$$$$
s_11a____14724372____55112
  -OEChem-03222016482D

 23 24  0     1  0  0  0  0  0999 V2000
   -1.7320   -0.0025    0.0000 C   0  0  0  0  0  0  0  0  0  0  0  0
   -0.8653   -0.5013    0.0000 O   0  0  0  0  0  0  0  0  0  0  0  0
    0.0000    0.0000    0.0000 C   0  0  0  0  0  0  0  0  0  0  0  0
   -0.0000    1.0058    0.0000 C   0  0  0  0  0  0  0  0  0  0  0  0
    0.8680    1.5138    0.0000 C   0  0  0  0  0  0  0  0  0  0  0  0
    1.7360    1.0058    0.0000 C   0  0  0  0  0  0  0  0  0  0  0  0
    1.7360   -0.0012    0.0000 C   0  0  0  0  0  0  0  0  0  0  0  0
    0.8680   -0.4978    0.0000 C   0  0  0  0  0  0  0  0  0  0  0  0
    2.6938   -0.3125    0.0000 C   0  0  0  0  0  0  0  0  0  0  0  0
    3.2858    0.5023    0.0000 C   0  0  0  0  0  0  0  0  0  0  0  0
    2.6938    1.3169    0.0000 N   0  0  0  0  0  0  0  0  0  0  0  0
    3.0028   -1.2636    0.0000 C   0  0  0  0  0  0  0  0  0  0  0  0
    3.9809   -1.4715    0.0000 C   0  0  3  0  0  0  0  0  0  0  0  0
    4.6501   -0.7284    0.0000 C   0  0  0  0  0  0  0  0  0  0  0  0
    5.6282   -0.9364    0.0000 O   0  0  0  0  0  0  0  0  0  0  0  0
    4.3411    0.2227    0.0000 O   0  0  0  0  0  0  0  0  0  0  0  0
    5.0103    0.9658    0.0000 C   0  0  0  0  0  0  0  0  0  0  0  0
    4.2899   -2.4226    0.0000 N   0  0  0  0  0  0  0  0  0  0  0  0
    5.2680   -2.6306    0.0000 C   0  0  0  0  0  0  0  0  0  0  0  0
    5.9372   -1.8874    0.0000 O   0  0  0  0  0  0  0  0  0  0  0  0
    5.5770   -3.5816    0.0000 C   0  0  0  0  0  0  0  0  0  0  0  0
    6.5551   -3.7896    0.0000 S   0  0  0  0  0  0  0  0  0  0  0  0
    6.8641   -4.7407    0.0000 C   0  0  0  0  0  0  0  0  0  0  0  0
  1  2  1  0  0  0  0
  2  3  1  0  0  0  0
  3  8  2  0  0  0  0
  3  4  1  0  0  0  0
  4  5  2  0  0  0  0
  5  6  1  0  0  0  0
  6 11  1  0  0  0  0
  6  7  2  0  0  0  0
  7  8  1  0  0  0  0
  7  9  1  0  0  0  0
  9 10  2  0  0  0  0
 10 11  1  0  0  0  0
  9 12  1  0  0  0  0
 12 13  1  0  0  0  0
 13 14  1  0  0  0  0
 14 15  2  0  0  0  0
 14 16  1  0  0  0  0
 16 17  1  0  0  0  0
 13 18  1  0  0  0  0
 18 19  1  0  0  0  0
 19 20  2  0  0  0  0
 19 21  1  0  0  0  0
 21 22  1  0  0  0  0
 22 23  1  0  0  0  0
M  END
$$$$
s_22____13978824____10118400
  -OEChem-03222016482D

 21 22  0     0  0  0  0  0  0999 V2000
   -0.8705    2.5032    0.0000 C   0  0  0  0  0  0  0  0  0  0  0  0
   -0.8675    1.5032    0.0000 O   0  0  0  0  0  0  0  0  0  0  0  0
    0.0000    1.0058    0.0000 C   0  0  0  0  0  0  0  0  0  0  0  0
    0.0000    0.0000    0.0000 C   0  0  0  0  0  0  0  0  0  0  0  0
    0.8680   -0.4978    0.0000 C   0  0  0  0  0  0  0  0  0  0  0  0
    1.7360   -0.0012    0.0000 C   0  0  0  0  0  0  0  0  0  0  0  0
    1.7360    1.0058    0.0000 C   0  0  0  0  0  0  0  0  0  0  0  0
    0.8680    1.5138    0.0000 C   0  0  0  0  0  0  0  0  0  0  0  0
    2.6938    1.3169    0.0000 N   0  0  0  0  0  0  0  0  0  0  0  0
    3.2858    0.5023    0.0000 C   0  0  0  0  0  0  0  0  0  0  0  0
    2.6938   -0.3125    0.0000 C   0  0  0  0  0  0  0  0  0  0  0  0
    3.0028   -1.2636    0.0000 C   0  0  0  0  0  0  0  0  0  0  0  0
    3.9809   -1.4715    0.0000 C   0  0  0  0  0  0  0  0  0  0  0  0
    4.2899   -2.4226    0.0000 N   0  0  0  0  0  0  0  0  0  0  0  0
    5.2680   -2.6306    0.0000 C   0  0  0  0  0  0  0  0  0  0  0  0
    5.9372   -1.8874    0.0000 O   0  0  0  0  0  0  0  0  0  0  0  0
    5.5770   -3.5816    0.0000 C   0  0  0  0  0  0  0  0  0  0  0  0
    6.5551   -3.7896    0.0000 O   0  0  0  0  0  0  0  0  0  0  0  0
    6.8641   -4.7407    0.0000 C   0  0  0  0  0  0  0  0  0  0  0  0
    7.8422   -4.9486    0.0000 F   0  0  0  0  0  0  0  0  0  0  0  0
    6.1949   -5.4838    0.0000 F   0  0  0  0  0  0  0  0  0  0  0  0
  1  2  1  0  0  0  0
  2  3  1  0  0  0  0
  3  8  2  0  0  0  0
  3  4  1  0  0  0  0
  4  5  2  0  0  0  0
  5  6  1  0  0  0  0
  6 11  1  0  0  0  0
  6  7  2  0  0  0  0
  7  8  1  0  0  0  0
  7  9  1  0  0  0  0
  9 10  1  0  0  0  0
 10 11  2  0  0  0  0
 11 12  1  0  0  0  0
 12 13  1  0  0  0  0
 13 14  1  0  0  0  0
 14 15  1  0  0  0  0
 15 16  2  0  0  0  0
 15 17  1  0  0  0  0
 17 18  1  0  0  0  0
 18 19  1  0  0  0  0
 19 20  1  0  0  0  0
 19 21  1  0  0  0  0
M  END
$$$$
s_240690b____17036622____3025692
  -OEChem-03222016482D

 18 19  0     1  0  0  0  0  0999 V2000
    4.0430   -3.8297    0.0000 C   0  0  0  0  0  0  0  0  0  0  0  0
    4.7129   -3.0873    0.0000 C   0  0  3  0  0  0  0  0  0  0  0  0
    4.4050   -2.1359    0.0000 C   0  0  0  0  0  0  0  0  0  0  0  0
    5.0749   -1.3935    0.0000 O   0  0  0  0  0  0  0  0  0  0  0  0
    3.4271   -1.9269    0.0000 N   0  0  0  0  0  0  0  0  0  0  0  0
    3.1191   -0.9755    0.0000 C   0  0  0  0  0  0  0  0  0  0  0  0
    2.1412   -0.7665    0.0000 C   0  0  0  0  0  0  0  0  0  0  0  0
    1.8332    0.1849    0.0000 C   0  0  0  0  0  0  0  0  0  0  0  0
    2.4247    0.9971    0.0000 C   0  0  0  0  0  0  0  0  0  0  0  0
    1.8349    1.8105    0.0000 N   0  0  0  0  0  0  0  0  0  0  0  0
    0.8791    1.5011    0.0000 C   0  0  0  0  0  0  0  0  0  0  0  0
    0.8780    0.4964    0.0000 C   0  0  0  0  0  0  0  0  0  0  0  0
    0.0000    0.0000    0.0000 C   0  0  0  0  0  0  0  0  0  0  0  0
   -0.8635    0.5043    0.0000 C   0  0  0  0  0  0  0  0  0  0  0  0
   -0.8584    1.5098    0.0000 N   0  0  0  0  0  0  0  0  0  0  0  0
    0.0101    2.0110    0.0000 C   0  0  0  0  0  0  0  0  0  0  0  0
   -1.7320    0.0087    0.0000 Cl  0  0  0  0  0  0  0  0  0  0  0  0
    5.6909   -3.2963    0.0000 N   0  3  0  0  0  0  0  0  0  0  0  0
  1  2  1  0  0  0  0
  2  3  1  0  0  0  0
  3  4  2  0  0  0  0
  3  5  1  0  0  0  0
  5  6  1  0  0  0  0
  6  7  1  0  0  0  0
  7  8  1  0  0  0  0
  8 12  1  0  0  0  0
  8  9  2  0  0  0  0
  9 10  1  0  0  0  0
 10 11  1  0  0  0  0
 11 16  2  0  0  0  0
 11 12  1  0  0  0  0
 12 13  2  0  0  0  0
 13 14  1  0  0  0  0
 14 15  2  0  0  0  0
 15 16  1  0  0  0  0
 14 17  1  0  0  0  0
  2 18  1  0  0  0  0
M  CHG  1  18   1
M  END
$$$$
s_22____13978824____1290374
  -OEChem-03222016482D

 21 22  0     0  0  0  0  0  0999 V2000
   -0.8705    2.5032    0.0000 C   0  0  0  0  0  0  0  0  0  0  0  0
   -0.8675    1.5032    0.0000 O   0  0  0  0  0  0  0  0  0  0  0  0
    0.0000    1.0058    0.0000 C   0  0  0  0  0  0  0  0  0  0  0  0
    0.0000    0.0000    0.0000 C   0  0  0  0  0  0  0  0  0  0  0  0
    0.8680   -0.4978    0.0000 C   0  0  0  0  0  0  0  0  0  0  0  0
    1.7360   -0.0012    0.0000 C   0  0  0  0  0  0  0  0  0  0  0  0
    1.7360    1.0058    0.0000 C   0  0  0  0  0  0  0  0  0  0  0  0
    0.8680    1.5138    0.0000 C   0  0  0  0  0  0  0  0  0  0  0  0
    2.6938    1.3169    0.0000 N   0  0  0  0  0  0  0  0  0  0  0  0
    3.2858    0.5023    0.0000 C   0  0  0  0  0  0  0  0  0  0  0  0
    2.6938   -0.3125    0.0000 C   0  0  0  0  0  0  0  0  0  0  0  0
    3.0028   -1.2636    0.0000 C   0  0  0  0  0  0  0  0  0  0  0  0
    3.9809   -1.4715    0.0000 C   0  0  0  0  0  0  0  0  0  0  0  0
    4.2899   -2.4226    0.0000 N   0  0  0  0  0  0  0  0  0  0  0  0
    5.2680   -2.6306    0.0000 C   0  0  0  0  0  0  0  0  0  0  0  0
    5.9372   -1.8874    0.0000 O   0  0  0  0  0  0  0  0  0  0  0  0
    5.5770   -3.5816    0.0000 C   0  0  0  0  0  0  0  0  0  0  0  0
    6.5551   -3.7896    0.0000 S   0  0  0  0  0  0  0  0  0  0  0  0
    6.7631   -2.8115    0.0000 O   0  0  0  0  0  0  0  0  0  0  0  0
    6.3472   -4.7677    0.0000 O   0  0  0  0  0  0  0  0  0  0  0  0
    7.5333   -3.9976    0.0000 C   0  0  0  0  0  0  0  0  0  0  0  0
  1  2  1  0  0  0  0
  2  3  1  0  0  0  0
  3  8  2  0  0  0  0
  3  4  1  0  0  0  0
  4  5  2  0  0  0  0
  5  6  1  0  0  0  0
  6 11  1  0  0  0  0
  6  7  2  0  0  0  0
  7  8  1  0  0  0  0
  7  9  1  0  0  0  0
  9 10  1  0  0  0  0
 10 11  2  0  0  0  0
 11 12  1  0  0  0  0
 12 13  1  0  0  0  0
 13 14  1  0  0  0  0
 14 15  1  0  0  0  0
 15 16  2  0  0  0  0
 15 17  1  0  0  0  0
 17 18  1  0  0  0  0
 18 19  2  0  0  0  0
 18 20  2  0  0  0  0
 18 21  1  0  0  0  0
M  END
$$$$
s_527a____153889____157834
  -OEChem-03222016482D

 17 18  0     0  0  0  0  0  0999 V2000
    6.8641   -4.7407    0.0000 C   0  0  0  0  0  0  0  0  0  0  0  0
    6.5551   -3.7896    0.0000 O   0  0  0  0  0  0  0  0  0  0  0  0
    5.5770   -3.5816    0.0000 C   0  0  0  0  0  0  0  0  0  0  0  0
    5.2680   -2.6306    0.0000 C   0  0  0  0  0  0  0  0  0  0  0  0
    5.9372   -1.8874    0.0000 O   0  0  0  0  0  0  0  0  0  0  0  0
    4.2899   -2.4226    0.0000 N   0  0  0  0  0  0  0  0  0  0  0  0
    3.9809   -1.4715    0.0000 C   0  0  0  0  0  0  0  0  0  0  0  0
    3.0028   -1.2636    0.0000 C   0  0  0  0  0  0  0  0  0  0  0  0
    2.6938   -0.3125    0.0000 C   0  0  0  0  0  0  0  0  0  0  0  0
    3.2858    0.5023    0.0000 C   0  0  0  0  0  0  0  0  0  0  0  0
    2.6938    1.3169    0.0000 N   0  0  0  0  0  0  0  0  0  0  0  0
    1.7360    1.0058    0.0000 C   0  0  0  0  0  0  0  0  0  0  0  0
    1.7360   -0.0012    0.0000 C   0  0  0  0  0  0  0  0  0  0  0  0
    0.8680   -0.4978    0.0000 C   0  0  0  0  0  0  0  0  0  0  0  0
    0.0000    0.0000    0.0000 C   0  0  0  0  0  0  0  0  0  0  0  0
   -0.0000    1.0058    0.0000 C   0  0  0  0  0  0  0  0  0  0  0  0
    0.8680    1.5138    0.0000 C   0  0  0  0  0  0  0  0  0  0  0  0
  1  2  1  0  0  0  0
  2  3  1  0  0  0  0
  3  4  1  0  0  0  0
  4  5  2  0  0  0  0
  4  6  1  0  0  0  0
  6  7  1  0  0  0  0
  7  8  1  0  0  0  0
  8  9  1  0  0  0  0
  9 13  1  0  0  0  0
  9 10  2  0  0  0  0
 10 11  1  0  0  0  0
 11 12  1  0  0  0  0
 12 17  2  0  0  0  0
 12 13  1  0  0  0  0
 13 14  2  0  0  0  0
 14 15  1  0  0  0  0
 15 16  2  0  0  0  0
 16 17  1  0  0  0  0
M  END
$$$$
s_22____15506616____3489590
  -OEChem-03222016482D

 21 22  0     0  0  0  0  0  0999 V2000
    1.7340    3.0138    0.0000 C   0  0  0  0  0  0  0  0  0  0  0  0
    0.8680    2.5138    0.0000 O   0  0  0  0  0  0  0  0  0  0  0  0
    0.8680    1.5138    0.0000 C   0  0  0  0  0  0  0  0  0  0  0  0
    0.0000    1.0058    0.0000 C   0  0  0  0  0  0  0  0  0  0  0  0
    0.0000    0.0000    0.0000 C   0  0  0  0  0  0  0  0  0  0  0  0
    0.8680   -0.4978    0.0000 C   0  0  0  0  0  0  0  0  0  0  0  0
    1.7360   -0.0012    0.0000 C   0  0  0  0  0  0  0  0  0  0  0  0
    1.7360    1.0058    0.0000 C   0  0  0  0  0  0  0  0  0  0  0  0
    2.6938    1.3169    0.0000 N   0  0  0  0  0  0  0  0  0  0  0  0
    3.2858    0.5023    0.0000 C   0  0  0  0  0  0  0  0  0  0  0  0
    2.6938   -0.3125    0.0000 C   0  0  0  0  0  0  0  0  0  0  0  0
    3.0028   -1.2636    0.0000 C   0  0  0  0  0  0  0  0  0  0  0  0
    3.9809   -1.4715    0.0000 C   0  0  0  0  0  0  0  0  0  0  0  0
    4.2899   -2.4226    0.0000 N   0  0  0  0  0  0  0  0  0  0  0  0
    5.2680   -2.6306    0.0000 C   0  0  0  0  0  0  0  0  0  0  0  0
    5.9372   -1.8874    0.0000 O   0  0  0  0  0  0  0  0  0  0  0  0
    5.5770   -3.5816    0.0000 C   0  0  0  0  0  0  0  0  0  0  0  0
    6.5551   -3.7896    0.0000 O   0  0  0  0  0  0  0  0  0  0  0  0
    6.8641   -4.7407    0.0000 C   0  0  0  0  0  0  0  0  0  0  0  0
    7.8422   -4.9486    0.0000 C   0  0  0  0  0  0  0  0  0  0  0  0
    8.1512   -5.8997    0.0000 C   0  0  0  0  0  0  0  0  0  0  0  0
  1  2  1  0  0  0  0
  2  3  1  0  0  0  0
  3  8  2  0  0  0  0
  3  4  1  0  0  0  0
  4  5  2  0  0  0  0
  5  6  1  0  0  0  0
  6  7  2  0  0  0  0
  7 11  1  0  0  0  0
  7  8  1  0  0  0  0
  8  9  1  0  0  0  0
  9 10  1  0  0  0  0
 10 11  2  0  0  0  0
 11 12  1  0  0  0  0
 12 13  1  0  0  0  0
 13 14  1  0  0  0  0
 14 15  1  0  0  0  0
 15 16  2  0  0  0  0
 15 17  1  0  0  0  0
 17 18  1  0  0  0  0
 18 19  1  0  0  0  0
 19 20  1  0  0  0  0
 20 21  2  0  0  0  0
M  END
$$$$
s_8____9226528____83696
  -OEChem-03222016482D

 20 21  0     0  0  0  0  0  0999 V2000
    6.8641   -4.7407    0.0000 C   0  0  0  0  0  0  0  0  0  0  0  0
    6.5551   -3.7896    0.0000 C   0  0  0  0  0  0  0  0  0  0  0  0
    5.5770   -3.5816    0.0000 N   0  0  0  0  0  0  0  0  0  0  0  0
    5.2680   -2.6306    0.0000 C   0  0  0  0  0  0  0  0  0  0  0  0
    5.9372   -1.8874    0.0000 S   0  0  0  0  0  0  0  0  0  0  0  0
    4.2899   -2.4226    0.0000 N   0  0  0  0  0  0  0  0  0  0  0  0
    3.9809   -1.4715    0.0000 C   0  0  0  0  0  0  0  0  0  0  0  0
    3.0028   -1.2636    0.0000 C   0  0  0  0  0  0  0  0  0  0  0  0
    2.6938   -0.3125    0.0000 C   0  0  0  0  0  0  0  0  0  0  0  0
    3.2858    0.5023    0.0000 C   0  0  0  0  0  0  0  0  0  0  0  0
    2.6938    1.3169    0.0000 N   0  0  0  0  0  0  0  0  0  0  0  0
    1.7360    1.0058    0.0000 C   0  0  0  0  0  0  0  0  0  0  0  0
    1.7360   -0.0012    0.0000 C   0  0  0  0  0  0  0  0  0  0  0  0
    0.8680   -0.4978    0.0000 C   0  0  0  0  0  0  0  0  0  0  0  0
    0.0000    0.0000    0.0000 C   0  0  0  0  0  0  0  0  0  0  0  0
   -0.0000    1.0058    0.0000 C   0  0  0  0  0  0  0  0  0  0  0  0
    0.8680    1.5138    0.0000 C   0  0  0  0  0  0  0  0  0  0  0  0
    0.8675   -1.4978    0.0000 O   0  0  0  0  0  0  0  0  0  0  0  0
    1.7332   -1.9983    0.0000 C   0  0  0  0  0  0  0  0  0  0  0  0
    1.7327   -2.9983    0.0000 C   0  0  0  0  0  0  0  0  0  0  0  0
  1  2  1  0  0  0  0
  2  3  1  0  0  0  0
  3  4  1  0  0  0  0
  4  5  2  0  0  0  0
  4  6  1  0  0  0  0
  6  7  1  0  0  0  0
  7  8  1  0  0  0  0
  8  9  1  0  0  0  0
  9 13  1  0  0  0  0
  9 10  2  0  0  0  0
 10 11  1  0  0  0  0
 11 12  1  0  0  0  0
 12 17  2  0  0  0  0
 12 13  1  0  0  0  0
 13 14  2  0  0  0  0
 14 15  1  0  0  0  0
 15 16  2  0  0  0  0
 16 17  1  0  0  0  0
 14 18  1  0  0  0  0
 18 19  1  0  0  0  0
 19 20  1  0  0  0  0
M  END
$$$$
s_240690b____15506692____10126850
  -OEChem-03222016482D

 20 21  0     0  0  0  0  0  0999 V2000
    1.2530   -7.0892    0.0000 C   0  0  0  0  0  0  0  0  0  0  0  0
    1.9222   -6.3461    0.0000 N   0  3  0  0  0  0  0  0  0  0  0  0
    1.6132   -5.3951    0.0000 C   0  0  0  0  0  0  0  0  0  0  0  0
    2.2824   -4.6519    0.0000 C   0  0  0  0  0  0  0  0  0  0  0  0
    1.9734   -3.7009    0.0000 C   0  0  0  0  0  0  0  0  0  0  0  0
    0.9953   -3.4929    0.0000 O   0  0  0  0  0  0  0  0  0  0  0  0
    2.6426   -2.9578    0.0000 N   0  0  0  0  0  0  0  0  0  0  0  0
    2.3336   -2.0067    0.0000 C   0  0  0  0  0  0  0  0  0  0  0  0
    3.0028   -1.2636    0.0000 C   0  0  0  0  0  0  0  0  0  0  0  0
    2.6938   -0.3125    0.0000 C   0  0  0  0  0  0  0  0  0  0  0  0
    3.2858    0.5023    0.0000 C   0  0  0  0  0  0  0  0  0  0  0  0
    2.6938    1.3169    0.0000 N   0  0  0  0  0  0  0  0  0  0  0  0
    1.7360    1.0058    0.0000 C   0  0  0  0  0  0  0  0  0  0  0  0
    1.7360   -0.0012    0.0000 C   0  0  0  0  0  0  0  0  0  0  0  0
    0.8680   -0.4978    0.0000 C   0  0  0  0  0  0  0  0  0  0  0  0
    0.0000    0.0000    0.0000 C   0  0  0  0  0  0  0  0  0  0  0  0
   -0.0000    1.0058    0.0000 C   0  0  0  0  0  0  0  0  0  0  0  0
    0.8680    1.5138    0.0000 C   0  0  0  0  0  0  0  0  0  0  0  0
    0.8680    2.5138    0.0000 O   0  0  0  0  0  0  0  0  0  0  0  0
    0.0020    3.0138    0.0000 C   0  0  0  0  0  0  0  0  0  0  0  0
  1  2  1  0  0  0  0
  2  3  1  0  0  0  0
  3  4  1  0  0  0  0
  4  5  1  0  0  0  0
  5  6  2  0  0  0  0
  5  7  1  0  0  0  0
  7  8  1  0  0  0  0
  8  9  1  0  0  0  0
  9 10  1  0  0  0  0
 10 14  1  0  0  0  0
 10 11  2  0  0  0  0
 11 12  1  0  0  0  0
 12 13  1  0  0  0  0
 13 18  2  0  0  0  0
 13 14  1  0  0  0  0
 14 15  2  0  0  0  0
 15 16  1  0  0  0  0
 16 17  2  0  0  0  0
 17 18  1  0  0  0  0
 18 19  1  0  0  0  0
 19 20  1  0  0  0  0
M  CHG  1   2   1
M  END
$$$$
s_22____13978824____59017
  -OEChem-03222016482D

 21 22  0     0  0  0  0  0  0999 V2000
    1.2530   -7.0892    0.0000 C   0  0  0  0  0  0  0  0  0  0  0  0
    1.9222   -6.3461    0.0000 C   0  0  0  0  0  0  0  0  0  0  0  0
    2.9003   -6.5541    0.0000 O   0  0  0  0  0  0  0  0  0  0  0  0
    1.6132   -5.3951    0.0000 C   0  0  0  0  0  0  0  0  0  0  0  0
    2.2824   -4.6519    0.0000 C   0  0  0  0  0  0  0  0  0  0  0  0
    1.9734   -3.7009    0.0000 C   0  0  0  0  0  0  0  0  0  0  0  0
    0.9953   -3.4929    0.0000 O   0  0  0  0  0  0  0  0  0  0  0  0
    2.6426   -2.9578    0.0000 N   0  0  0  0  0  0  0  0  0  0  0  0
    2.3336   -2.0067    0.0000 C   0  0  0  0  0  0  0  0  0  0  0  0
    3.0028   -1.2636    0.0000 C   0  0  0  0  0  0  0  0  0  0  0  0
    2.6938   -0.3125    0.0000 C   0  0  0  0  0  0  0  0  0  0  0  0
    3.2858    0.5023    0.0000 C   0  0  0  0  0  0  0  0  0  0  0  0
    2.6938    1.3169    0.0000 N   0  0  0  0  0  0  0  0  0  0  0  0
    1.7360    1.0058    0.0000 C   0  0  0  0  0  0  0  0  0  0  0  0
    1.7360   -0.0012    0.0000 C   0  0  0  0  0  0  0  0  0  0  0  0
    0.8680   -0.4978    0.0000 C   0  0  0  0  0  0  0  0  0  0  0  0
    0.0000    0.0000    0.0000 C   0  0  0  0  0  0  0  0  0  0  0  0
   -0.0000    1.0058    0.0000 C   0  0  0  0  0  0  0  0  0  0  0  0
    0.8680    1.5138    0.0000 C   0  0  0  0  0  0  0  0  0  0  0  0
   -0.8675    1.5032    0.0000 O   0  0  0  0  0  0  0  0  0  0  0  0
   -1.7320    1.0007    0.0000 C   0  0  0  0  0  0  0  0  0  0  0  0
  1  2  1  0  0  0  0
  2  3  2  0  0  0  0
  2  4  1  0  0  0  0
  4  5  1  0  0  0  0
  5  6  1  0  0  0  0
  6  7  2  0  0  0  0
  6  8  1  0  0  0  0
  8  9  1  0  0  0  0
  9 10  1  0  0  0  0
 10 11  1  0  0  0  0
 11 15  1  0  0  0  0
 11 12  2  0  0  0  0
 12 13  1  0  0  0  0
 13 14  1  0  0  0  0
 14 19  2  0  0  0  0
 14 15  1  0  0  0  0
 15 16  2  0  0  0  0
 16 17  1  0  0  0  0
 17 18  2  0  0  0  0
 18 19  1  0  0  0  0
 18 20  1  0  0  0  0
 20 21  1  0  0  0  0
M  END
$$$$
s_22____15754586____60364
  -OEChem-03222016482D

 20 21  0     1  0  0  0  0  0999 V2000
    3.9809   -1.4715    0.0000 C   0  0  0  0  0  0  0  0  0  0  0  0
    3.0028   -1.2636    0.0000 C   0  0  3  0  0  0  0  0  0  0  0  0
    2.3336   -2.0067    0.0000 C   0  0  0  0  0  0  0  0  0  0  0  0
    2.6426   -2.9578    0.0000 N   0  0  0  0  0  0  0  0  0  0  0  0
    1.9734   -3.7009    0.0000 C   0  0  0  0  0  0  0  0  0  0  0  0
    0.9953   -3.4929    0.0000 O   0  0  0  0  0  0  0  0  0  0  0  0
    2.2824   -4.6519    0.0000 C   0  0  0  0  0  0  0  0  0  0  0  0
    1.6132   -5.3951    0.0000 S   0  0  0  0  0  0  0  0  0  0  0  0
    1.9222   -6.3461    0.0000 C   0  0  0  0  0  0  0  0  0  0  0  0
    2.6938   -0.3125    0.0000 C   0  0  0  0  0  0  0  0  0  0  0  0
    3.2858    0.5023    0.0000 C   0  0  0  0  0  0  0  0  0  0  0  0
    2.6938    1.3169    0.0000 N   0  0  0  0  0  0  0  0  0  0  0  0
    1.7360    1.0058    0.0000 C   0  0  0  0  0  0  0  0  0  0  0  0
    1.7360   -0.0012    0.0000 C   0  0  0  0  0  0  0  0  0  0  0  0
    0.8680   -0.4978    0.0000 C   0  0  0  0  0  0  0  0  0  0  0  0
    0.0000    0.0000    0.0000 C   0  0  0  0  0  0  0  0  0  0  0  0
   -0.0000    1.0058    0.0000 C   0  0  0  0  0  0  0  0  0  0  0  0
    0.8680    1.5138    0.0000 C   0  0  0  0  0  0  0  0  0  0  0  0
   -0.8653   -0.5013    0.0000 O   0  0  0  0  0  0  0  0  0  0  0  0
   -0.8639   -1.5013    0.0000 C   0  0  0  0  0  0  0  0  0  0  0  0
  1  2  1  0  0  0  0
  2  3  1  0  0  0  0
  3  4  1  0  0  0  0
  4  5  1  0  0  0  0
  5  6  2  0  0  0  0
  5  7  1  0  0  0  0
  7  8  1  0  0  0  0
  8  9  1  0  0  0  0
  2 10  1  0  0  0  0
 10 14  1  0  0  0  0
 10 11  2  0  0  0  0
 11 12  1  0  0  0  0
 12 13  1  0  0  0  0
 13 18  2  0  0  0  0
 13 14  1  0  0  0  0
 14 15  2  0  0  0  0
 15 16  1  0  0  0  0
 16 17  2  0  0  0  0
 17 18  1  0  0  0  0
 16 19  1  0  0  0  0
 19 20  1  0  0  0  0
M  END
$$$$
s_22____9276248____9296322
  -OEChem-03222016482D

 17 18  0     0  0  0  0  0  0999 V2000
    7.7857    1.3686    0.0000 C   0  0  0  0  0  0  0  0  0  0  0  0
    6.7857    1.3685    0.0000 C   0  0  0  0  0  0  0  0  0  0  0  0
    5.7857    1.3685    0.0000 C   0  0  0  0  0  0  0  0  0  0  0  0
    4.7857    1.3684    0.0000 C   0  0  0  0  0  0  0  0  0  0  0  0
    4.2857    2.2344    0.0000 O   0  0  0  0  0  0  0  0  0  0  0  0
    4.2858    0.5024    0.0000 N   0  0  0  0  0  0  0  0  0  0  0  0
    3.2858    0.5023    0.0000 C   0  0  0  0  0  0  0  0  0  0  0  0
    2.6938   -0.3125    0.0000 C   0  0  0  0  0  0  0  0  0  0  0  0
    1.7360   -0.0012    0.0000 C   0  0  0  0  0  0  0  0  0  0  0  0
    0.8680   -0.4978    0.0000 C   0  0  0  0  0  0  0  0  0  0  0  0
    0.0000    0.0000    0.0000 C   0  0  0  0  0  0  0  0  0  0  0  0
    0.0000    1.0058    0.0000 C   0  0  0  0  0  0  0  0  0  0  0  0
    0.8680    1.5138    0.0000 C   0  0  0  0  0  0  0  0  0  0  0  0
    1.7360    1.0058    0.0000 C   0  0  0  0  0  0  0  0  0  0  0  0
    2.6938    1.3169    0.0000 N   0  0  0  0  0  0  0  0  0  0  0  0
   -0.8653   -0.5013    0.0000 O   0  0  0  0  0  0  0  0  0  0  0  0
   -0.8639   -1.5013    0.0000 C   0  0  0  0  0  0  0  0  0  0  0  0
  1  2  1  0  0  0  0
  2  3  3  0  0  0  0
  3  4  1  0  0  0  0
  4  5  2  0  0  0  0
  4  6  1  0  0  0  0
  6  7  1  0  0  0  0
  7 15  1  0  0  0  0
  7  8  2  0  0  0  0
  8  9  1  0  0  0  0
  9 14  2  0  0  0  0
  9 10  1  0  0  0  0
 10 11  2  0  0  0  0
 11 12  1  0  0  0  0
 12 13  2  0  0  0  0
 13 14  1  0  0  0  0
 14 15  1  0  0  0  0
 11 16  1  0  0  0  0
 16 17  1  0  0  0  0
M  END
$$$$
s_22____4839448____1720042
  -OEChem-03222016482D

 21 22  0     0  0  0  0  0  0999 V2000
   -1.7320   -0.0025    0.0000 C   0  0  0  0  0  0  0  0  0  0  0  0
   -0.8653   -0.5013    0.0000 O   0  0  0  0  0  0  0  0  0  0  0  0
    0.0000    0.0000    0.0000 C   0  0  0  0  0  0  0  0  0  0  0  0
   -0.0000    1.0058    0.0000 C   0  0  0  0  0  0  0  0  0  0  0  0
    0.8680    1.5138    0.0000 C   0  0  0  0  0  0  0  0  0  0  0  0
    1.7360    1.0058    0.0000 C   0  0  0  0  0  0  0  0  0  0  0  0
    1.7360   -0.0012    0.0000 C   0  0  0  0  0  0  0  0  0  0  0  0
    0.8680   -0.4978    0.0000 C   0  0  0  0  0  0  0  0  0  0  0  0
    2.6938   -0.3125    0.0000 C   0  0  0  0  0  0  0  0  0  0  0  0
    3.2858    0.5023    0.0000 C   0  0  0  0  0  0  0  0  0  0  0  0
    2.6938    1.3169    0.0000 N   0  0  0  0  0  0  0  0  0  0  0  0
    3.0028   -1.2636    0.0000 C   0  0  0  0  0  0  0  0  0  0  0  0
    3.9809   -1.4715    0.0000 C   0  0  0  0  0  0  0  0  0  0  0  0
    4.2899   -2.4226    0.0000 N   0  0  0  0  0  0  0  0  0  0  0  0
    5.2680   -2.6306    0.0000 C   0  0  0  0  0  0  0  0  0  0  0  0
    5.9372   -1.8874    0.0000 O   0  0  0  0  0  0  0  0  0  0  0  0
    5.5770   -3.5816    0.0000 C   0  0  0  0  0  0  0  0  0  0  0  0
    6.5551   -3.7896    0.0000 C   0  0  0  0  0  0  0  0  0  0  0  0
    6.7631   -2.8115    0.0000 F   0  0  0  0  0  0  0  0  0  0  0  0
    6.3472   -4.7677    0.0000 F   0  0  0  0  0  0  0  0  0  0  0  0
    7.5333   -3.9976    0.0000 F   0  0  0  0  0  0  0  0  0  0  0  0
  1  2  1  0  0  0  0
  2  3  1  0  0  0  0
  3  8  2  0  0  0  0
  3  4  1  0  0  0  0
  4  5  2  0  0  0  0
  5  6  1  0  0  0  0
  6 11  1  0  0  0  0
  6  7  2  0  0  0  0
  7  8  1  0  0  0  0
  7  9  1  0  0  0  0
  9 10  2  0  0  0  0
 10 11  1  0  0  0  0
  9 12  1  0  0  0  0
 12 13  1  0  0  0  0
 13 14  1  0  0  0  0
 14 15  1  0  0  0  0
 15 16  2  0  0  0  0
 15 17  1  0  0  0  0
 17 18  1  0  0  0  0
 18 19  1  0  0  0  0
 18 20  1  0  0  0  0
 18 21  1  0  0  0  0
M  END
$$$$
s_22____13612008____7941096
  -OEChem-03222016482D

 18 19  0     1  0  0  0  0  0999 V2000
   -0.8653   -0.5013    0.0000 C   0  0  0  0  0  0  0  0  0  0  0  0
    0.0000    0.0000    0.0000 C   0  0  0  0  0  0  0  0  0  0  0  0
   -0.0000    1.0058    0.0000 C   0  0  0  0  0  0  0  0  0  0  0  0
    0.8680    1.5138    0.0000 C   0  0  0  0  0  0  0  0  0  0  0  0
    1.7360    1.0058    0.0000 C   0  0  0  0  0  0  0  0  0  0  0  0
    1.7360   -0.0012    0.0000 C   0  0  0  0  0  0  0  0  0  0  0  0
    0.8680   -0.4978    0.0000 C   0  0  0  0  0  0  0  0  0  0  0  0
    2.6938   -0.3125    0.0000 C   0  0  0  0  0  0  0  0  0  0  0  0
    3.2858    0.5023    0.0000 C   0  0  0  0  0  0  0  0  0  0  0  0
    2.6938    1.3169    0.0000 N   0  0  0  0  0  0  0  0  0  0  0  0
    3.0028   -1.2636    0.0000 C   0  0  0  0  0  0  0  0  0  0  0  0
    3.9809   -1.4715    0.0000 C   0  0  0  0  0  0  0  0  0  0  0  0
    4.2899   -2.4226    0.0000 N   0  0  0  0  0  0  0  0  0  0  0  0
    5.2680   -2.6306    0.0000 C   0  0  0  0  0  0  0  0  0  0  0  0
    5.9372   -1.8874    0.0000 O   0  0  0  0  0  0  0  0  0  0  0  0
    5.5770   -3.5816    0.0000 C   0  0  3  0  0  0  0  0  0  0  0  0
    6.5551   -3.7896    0.0000 C   0  0  0  0  0  0  0  0  0  0  0  0
    4.9078   -4.3247    0.0000 O   0  0  0  0  0  0  0  0  0  0  0  0
  1  2  1  0  0  0  0
  2  7  2  0  0  0  0
  2  3  1  0  0  0  0
  3  4  2  0  0  0  0
  4  5  1  0  0  0  0
  5 10  1  0  0  0  0
  5  6  2  0  0  0  0
  6  7  1  0  0  0  0
  6  8  1  0  0  0  0
  8  9  2  0  0  0  0
  9 10  1  0  0  0  0
  8 11  1  0  0  0  0
 11 12  1  0  0  0  0
 12 13  1  0  0  0  0
 13 14  1  0  0  0  0
 14 15  2  0  0  0  0
 14 16  1  0  0  0  0
 16 17  1  0  0  0  0
 16 18  1  0  0  0  0
M  END
$$$$
s_22____10303762____9296322
  -OEChem-03222016482D

 18 19  0     0  0  0  0  0  0999 V2000
    6.1949   -5.4838    0.0000 C   0  0  0  0  0  0  0  0  0  0  0  0
    5.8860   -4.5327    0.0000 C   0  0  0  0  0  0  0  0  0  0  0  0
    5.5770   -3.5816    0.0000 C   0  0  0  0  0  0  0  0  0  0  0  0
    5.2680   -2.6306    0.0000 C   0  0  0  0  0  0  0  0  0  0  0  0
    5.9372   -1.8874    0.0000 O   0  0  0  0  0  0  0  0  0  0  0  0
    4.2899   -2.4226    0.0000 N   0  0  0  0  0  0  0  0  0  0  0  0
    3.9809   -1.4715    0.0000 C   0  0  0  0  0  0  0  0  0  0  0  0
    3.0028   -1.2636    0.0000 C   0  0  0  0  0  0  0  0  0  0  0  0
    2.6938   -0.3125    0.0000 C   0  0  0  0  0  0  0  0  0  0  0  0
    3.2858    0.5023    0.0000 C   0  0  0  0  0  0  0  0  0  0  0  0
    2.6938    1.3169    0.0000 N   0  0  0  0  0  0  0  0  0  0  0  0
    1.7360    1.0058    0.0000 C   0  0  0  0  0  0  0  0  0  0  0  0
    1.7360   -0.0012    0.0000 C   0  0  0  0  0  0  0  0  0  0  0  0
    0.8680   -0.4978    0.0000 C   0  0  0  0  0  0  0  0  0  0  0  0
    0.0000    0.0000    0.0000 C   0  0  0  0  0  0  0  0  0  0  0  0
   -0.0000    1.0058    0.0000 C   0  0  0  0  0  0  0  0  0  0  0  0
    0.8680    1.5138    0.0000 C   0  0  0  0  0  0  0  0  0  0  0  0
    0.8675   -1.4978    0.0000 Br  0  0  0  0  0  0  0  0  0  0  0  0
  1  2  1  0  0  0  0
  2  3  3  0  0  0  0
  3  4  1  0  0  0  0
  4  5  2  0  0  0  0
  4  6  1  0  0  0  0
  6  7  1  0  0  0  0
  7  8  1  0  0  0  0
  8  9  1  0  0  0  0
  9 13  1  0  0  0  0
  9 10  2  0  0  0  0
 10 11  1  0  0  0  0
 11 12  1  0  0  0  0
 12 17  2  0  0  0  0
 12 13  1  0  0  0  0
 13 14  2  0  0  0  0
 14 15  1  0  0  0  0
 15 16  2  0  0  0  0
 16 17  1  0  0  0  0
 14 18  1  0  0  0  0
M  END
$$$$
EN300-1692548
  -OEChem-03222016482D

 12 13  0     0  0  0  0  0  0999 V2000
    3.0028   -1.2636    0.0000 C   0  0  0  0  0  0  0  0  0  0  0  0
    2.6938   -0.3125    0.0000 C   0  0  0  0  0  0  0  0  0  0  0  0
    3.2858    0.5023    0.0000 C   0  0  0  0  0  0  0  0  0  0  0  0
    2.6938    1.3169    0.0000 N   0  0  0  0  0  0  0  0  0  0  0  0
    1.7360    1.0058    0.0000 C   0  0  0  0  0  0  0  0  0  0  0  0
    1.7360   -0.0012    0.0000 C   0  0  0  0  0  0  0  0  0  0  0  0
    0.8680   -0.4978    0.0000 C   0  0  0  0  0  0  0  0  0  0  0  0
    0.0000    0.0000    0.0000 C   0  0  0  0  0  0  0  0  0  0  0  0
   -0.0000    1.0058    0.0000 C   0  0  0  0  0  0  0  0  0  0  0  0
    0.8680    1.5138    0.0000 C   0  0  0  0  0  0  0  0  0  0  0  0
   -0.8675    1.5032    0.0000 O   0  0  0  0  0  0  0  0  0  0  0  0
   -1.7320    1.0007    0.0000 C   0  0  0  0  0  0  0  0  0  0  0  0
  1  2  1  0  0  0  0
  2  6  1  0  0  0  0
  2  3  2  0  0  0  0
  3  4  1  0  0  0  0
  4  5  1  0  0  0  0
  5 10  2  0  0  0  0
  5  6  1  0  0  0  0
  6  7  2  0  0  0  0
  7  8  1  0  0  0  0
  8  9  2  0  0  0  0
  9 10  1  0  0  0  0
  9 11  1  0  0  0  0
 11 12  1  0  0  0  0
M  END
$$$$
s_8____15754582____83693
  -OEChem-03222016482D

 19 20  0     1  0  0  0  0  0999 V2000
    3.9809   -1.4715    0.0000 C   0  0  0  0  0  0  0  0  0  0  0  0
    3.0028   -1.2636    0.0000 C   0  0  3  0  0  0  0  0  0  0  0  0
    2.3336   -2.0067    0.0000 C   0  0  0  0  0  0  0  0  0  0  0  0
    2.6426   -2.9578    0.0000 N   0  0  0  0  0  0  0  0  0  0  0  0
    1.9734   -3.7009    0.0000 C   0  0  0  0  0  0  0  0  0  0  0  0
    0.9953   -3.4929    0.0000 S   0  0  0  0  0  0  0  0  0  0  0  0
    2.2824   -4.6519    0.0000 N   0  0  0  0  0  0  0  0  0  0  0  0
    1.6132   -5.3951    0.0000 C   0  0  0  0  0  0  0  0  0  0  0  0
    2.6938   -0.3125    0.0000 C   0  0  0  0  0  0  0  0  0  0  0  0
    3.2858    0.5023    0.0000 C   0  0  0  0  0  0  0  0  0  0  0  0
    2.6938    1.3169    0.0000 N   0  0  0  0  0  0  0  0  0  0  0  0
    1.7360    1.0058    0.0000 C   0  0  0  0  0  0  0  0  0  0  0  0
    1.7360   -0.0012    0.0000 C   0  0  0  0  0  0  0  0  0  0  0  0
    0.8680   -0.4978    0.0000 C   0  0  0  0  0  0  0  0  0  0  0  0
    0.0000    0.0000    0.0000 C   0  0  0  0  0  0  0  0  0  0  0  0
   -0.0000    1.0058    0.0000 C   0  0  0  0  0  0  0  0  0  0  0  0
    0.8680    1.5138    0.0000 C   0  0  0  0  0  0  0  0  0  0  0  0
   -0.8653   -0.5013    0.0000 O   0  0  0  0  0  0  0  0  0  0  0  0
   -0.8639   -1.5013    0.0000 C   0  0  0  0  0  0  0  0  0  0  0  0
  1  2  1  0  0  0  0
  2  3  1  0  0  0  0
  3  4  1  0  0  0  0
  4  5  1  0  0  0  0
  5  6  2  0  0  0  0
  5  7  1  0  0  0  0
  7  8  1  0  0  0  0
  2  9  1  0  0  0  0
  9 13  1  0  0  0  0
  9 10  2  0  0  0  0
 10 11  1  0  0  0  0
 11 12  1  0  0  0  0
 12 17  2  0  0  0  0
 12 13  1  0  0  0  0
 13 14  2  0  0  0  0
 14 15  1  0  0  0  0
 15 16  2  0  0  0  0
 16 17  1  0  0  0  0
 15 18  1  0  0  0  0
 18 19  1  0  0  0  0
M  END
$$$$
EN300-124986
  -OEChem-03222016482D

 13 14  0     0  0  0  0  0  0999 V2000
    2.3336   -2.0067    0.0000 C   0  0  0  0  0  0  0  0  0  0  0  0
    3.0028   -1.2636    0.0000 C   0  0  0  0  0  0  0  0  0  0  0  0
    2.6938   -0.3125    0.0000 C   0  0  0  0  0  0  0  0  0  0  0  0
    3.2858    0.5023    0.0000 C   0  0  0  0  0  0  0  0  0  0  0  0
    2.6938    1.3169    0.0000 N   0  0  0  0  0  0  0  0  0  0  0  0
    1.7360    1.0058    0.0000 C   0  0  0  0  0  0  0  0  0  0  0  0
    1.7360   -0.0012    0.0000 C   0  0  0  0  0  0  0  0  0  0  0  0
    0.8680   -0.4978    0.0000 C   0  0  0  0  0  0  0  0  0  0  0  0
    0.0000    0.0000    0.0000 C   0  0  0  0  0  0  0  0  0  0  0  0
   -0.0000    1.0058    0.0000 C   0  0  0  0  0  0  0  0  0  0  0  0
    0.8680    1.5138    0.0000 C   0  0  0  0  0  0  0  0  0  0  0  0
   -0.8653   -0.5013    0.0000 O   0  0  0  0  0  0  0  0  0  0  0  0
   -0.8639   -1.5013    0.0000 C   0  0  0  0  0  0  0  0  0  0  0  0
  1  2  1  0  0  0  0
  2  3  1  0  0  0  0
  3  7  1  0  0  0  0
  3  4  2  0  0  0  0
  4  5  1  0  0  0  0
  5  6  1  0  0  0  0
  6 11  2  0  0  0  0
  6  7  1  0  0  0  0
  7  8  2  0  0  0  0
  8  9  1  0  0  0  0
  9 10  2  0  0  0  0
 10 11  1  0  0  0  0
  9 12  1  0  0  0  0
 12 13  1  0  0  0  0
M  END
$$$$
s_207____13905812____15269818
  -OEChem-03222016482D

 18 19  0     1  0  0  0  0  0999 V2000
    0.0012   -1.9973    0.0000 C   0  0  0  0  0  0  0  0  0  0  0  0
    0.8675   -1.4978    0.0000 O   0  0  0  0  0  0  0  0  0  0  0  0
    0.8680   -0.4978    0.0000 C   0  0  0  0  0  0  0  0  0  0  0  0
    0.0000    0.0000    0.0000 C   0  0  0  0  0  0  0  0  0  0  0  0
   -0.0000    1.0058    0.0000 C   0  0  0  0  0  0  0  0  0  0  0  0
    0.8680    1.5138    0.0000 C   0  0  0  0  0  0  0  0  0  0  0  0
    1.7360    1.0058    0.0000 C   0  0  0  0  0  0  0  0  0  0  0  0
    1.7360   -0.0012    0.0000 C   0  0  0  0  0  0  0  0  0  0  0  0
    2.6938   -0.3125    0.0000 C   0  0  0  0  0  0  0  0  0  0  0  0
    3.2858    0.5023    0.0000 C   0  0  0  0  0  0  0  0  0  0  0  0
    2.6938    1.3169    0.0000 N   0  0  0  0  0  0  0  0  0  0  0  0
    4.2858    0.5024    0.0000 C   0  0  0  0  0  0  0  0  0  0  0  0
    4.7857    1.3684    0.0000 N   0  3  0  0  0  0  0  0  0  0  0  0
    5.7857    1.3685    0.0000 C   0  0  0  0  0  0  0  0  0  0  0  0
    6.2857    2.2345    0.0000 C   0  0  3  0  0  0  0  0  0  0  0  0
    7.2857    2.2346    0.0000 C   0  0  0  0  0  0  0  0  0  0  0  0
    7.7856    3.1006    0.0000 F   0  0  0  0  0  0  0  0  0  0  0  0
    5.7856    3.1005    0.0000 O   0  0  0  0  0  0  0  0  0  0  0  0
  1  2  1  0  0  0  0
  2  3  1  0  0  0  0
  3  8  2  0  0  0  0
  3  4  1  0  0  0  0
  4  5  2  0  0  0  0
  5  6  1  0  0  0  0
  6  7  2  0  0  0  0
  7 11  1  0  0  0  0
  7  8  1  0  0  0  0
  8  9  1  0  0  0  0
  9 10  2  0  0  0  0
 10 11  1  0  0  0  0
 10 12  1  0  0  0  0
 12 13  1  0  0  0  0
 13 14  1  0  0  0  0
 14 15  1  0  0  0  0
 15 16  1  0  0  0  0
 16 17  1  0  0  0  0
 15 18  1  0  0  0  0
M  CHG  1  13   1
M  END
$$$$
s_240690b____16900534____3025680
  -OEChem-03222016482D

 18 19  0     0  0  0  0  0  0999 V2000
   -0.0000    1.0058    0.0000 C   0  0  0  0  0  0  0  0  0  0  0  0
    0.8680    1.5138    0.0000 C   0  0  0  0  0  0  0  0  0  0  0  0
    1.7360    1.0058    0.0000 C   0  0  0  0  0  0  0  0  0  0  0  0
    1.7360   -0.0012    0.0000 C   0  0  0  0  0  0  0  0  0  0  0  0
    0.8680   -0.4978    0.0000 C   0  0  0  0  0  0  0  0  0  0  0  0
    0.0000    0.0000    0.0000 C   0  0  0  0  0  0  0  0  0  0  0  0
    0.8675   -1.4978    0.0000 F   0  0  0  0  0  0  0  0  0  0  0  0
    2.6938   -0.3125    0.0000 C   0  0  0  0  0  0  0  0  0  0  0  0
    3.2858    0.5023    0.0000 C   0  0  0  0  0  0  0  0  0  0  0  0
    2.6938    1.3169    0.0000 N   0  0  0  0  0  0  0  0  0  0  0  0
    3.0028   -1.2636    0.0000 C   0  0  0  0  0  0  0  0  0  0  0  0
    3.9809   -1.4715    0.0000 C   0  0  0  0  0  0  0  0  0  0  0  0
    4.2899   -2.4226    0.0000 N   0  0  0  0  0  0  0  0  0  0  0  0
    5.2680   -2.6306    0.0000 C   0  0  0  0  0  0  0  0  0  0  0  0
    5.9372   -1.8874    0.0000 O   0  0  0  0  0  0  0  0  0  0  0  0
    5.5770   -3.5816    0.0000 C   0  0  0  0  0  0  0  0  0  0  0  0
    6.5551   -3.7896    0.0000 C   0  0  0  0  0  0  0  0  0  0  0  0
    6.8641   -4.7407    0.0000 N   0  3  0  0  0  0  0  0  0  0  0  0
  1  6  2  0  0  0  0
  1  2  1  0  0  0  0
  2  3  2  0  0  0  0
  3 10  1  0  0  0  0
  3  4  1  0  0  0  0
  4  5  2  0  0  0  0
  5  6  1  0  0  0  0
  5  7  1  0  0  0  0
  4  8  1  0  0  0  0
  8  9  2  0  0  0  0
  9 10  1  0  0  0  0
  8 11  1  0  0  0  0
 11 12  1  0  0  0  0
 12 13  1  0  0  0  0
 13 14  1  0  0  0  0
 14 15  2  0  0  0  0
 14 16  1  0  0  0  0
 16 17  1  0  0  0  0
 17 18  1  0  0  0  0
M  CHG  1  18   1
M  END
$$$$
s_22____13978824____9296322
  -OEChem-03222016482D

 19 20  0     0  0  0  0  0  0999 V2000
    6.1949   -5.4838    0.0000 C   0  0  0  0  0  0  0  0  0  0  0  0
    5.8860   -4.5327    0.0000 C   0  0  0  0  0  0  0  0  0  0  0  0
    5.5770   -3.5816    0.0000 C   0  0  0  0  0  0  0  0  0  0  0  0
    5.2680   -2.6306    0.0000 C   0  0  0  0  0  0  0  0  0  0  0  0
    5.9372   -1.8874    0.0000 O   0  0  0  0  0  0  0  0  0  0  0  0
    4.2899   -2.4226    0.0000 N   0  0  0  0  0  0  0  0  0  0  0  0
    3.9809   -1.4715    0.0000 C   0  0  0  0  0  0  0  0  0  0  0  0
    3.0028   -1.2636    0.0000 C   0  0  0  0  0  0  0  0  0  0  0  0
    2.6938   -0.3125    0.0000 C   0  0  0  0  0  0  0  0  0  0  0  0
    3.2858    0.5023    0.0000 C   0  0  0  0  0  0  0  0  0  0  0  0
    2.6938    1.3169    0.0000 N   0  0  0  0  0  0  0  0  0  0  0  0
    1.7360    1.0058    0.0000 C   0  0  0  0  0  0  0  0  0  0  0  0
    1.7360   -0.0012    0.0000 C   0  0  0  0  0  0  0  0  0  0  0  0
    0.8680   -0.4978    0.0000 C   0  0  0  0  0  0  0  0  0  0  0  0
    0.0000    0.0000    0.0000 C   0  0  0  0  0  0  0  0  0  0  0  0
   -0.0000    1.0058    0.0000 C   0  0  0  0  0  0  0  0  0  0  0  0
    0.8680    1.5138    0.0000 C   0  0  0  0  0  0  0  0  0  0  0  0
   -0.8675    1.5032    0.0000 O   0  0  0  0  0  0  0  0  0  0  0  0
   -1.7320    1.0007    0.0000 C   0  0  0  0  0  0  0  0  0  0  0  0
  1  2  1  0  0  0  0
  2  3  3  0  0  0  0
  3  4  1  0  0  0  0
  4  5  2  0  0  0  0
  4  6  1  0  0  0  0
  6  7  1  0  0  0  0
  7  8  1  0  0  0  0
  8  9  1  0  0  0  0
  9 13  1  0  0  0  0
  9 10  2  0  0  0  0
 10 11  1  0  0  0  0
 11 12  1  0  0  0  0
 12 17  2  0  0  0  0
 12 13  1  0  0  0  0
 13 14  2  0  0  0  0
 14 15  1  0  0  0  0
 15 16  2  0  0  0  0
 16 17  1  0  0  0  0
 16 18  1  0  0  0  0
 18 19  1  0  0  0  0
M  END
$$$$
s_22____9192330____58887
  -OEChem-03222016482D

 19 20  0     0  0  0  0  0  0999 V2000
    5.5770   -3.5816    0.0000 C   0  0  0  0  0  0  0  0  0  0  0  0
    5.2680   -2.6306    0.0000 C   0  0  0  0  0  0  0  0  0  0  0  0
    4.2899   -2.4226    0.0000 C   0  0  0  0  0  0  0  0  0  0  0  0
    3.6207   -3.1657    0.0000 O   0  0  0  0  0  0  0  0  0  0  0  0
    3.9809   -1.4715    0.0000 N   0  0  0  0  0  0  0  0  0  0  0  0
    3.0028   -1.2636    0.0000 C   0  0  0  0  0  0  0  0  0  0  0  0
    2.6938   -0.3125    0.0000 C   0  0  0  0  0  0  0  0  0  0  0  0
    3.2858    0.5023    0.0000 C   0  0  0  0  0  0  0  0  0  0  0  0
    2.6938    1.3169    0.0000 N   0  0  0  0  0  0  0  0  0  0  0  0
    1.7360    1.0058    0.0000 C   0  0  0  0  0  0  0  0  0  0  0  0
    1.7360   -0.0012    0.0000 C   0  0  0  0  0  0  0  0  0  0  0  0
    0.8680   -0.4978    0.0000 C   0  0  0  0  0  0  0  0  0  0  0  0
    0.0000    0.0000    0.0000 C   0  0  0  0  0  0  0  0  0  0  0  0
   -0.0000    1.0058    0.0000 C   0  0  0  0  0  0  0  0  0  0  0  0
    0.8680    1.5138    0.0000 C   0  0  0  0  0  0  0  0  0  0  0  0
   -0.8653   -0.5013    0.0000 O   0  0  0  0  0  0  0  0  0  0  0  0
   -0.8639   -1.5013    0.0000 C   0  0  0  0  0  0  0  0  0  0  0  0
    0.0029   -2.0000    0.0000 C   0  0  0  0  0  0  0  0  0  0  0  0
   -1.7292   -2.0025    0.0000 C   0  0  0  0  0  0  0  0  0  0  0  0
  1  2  1  0  0  0  0
  2  3  1  0  0  0  0
  3  4  2  0  0  0  0
  3  5  1  0  0  0  0
  5  6  1  0  0  0  0
  6  7  1  0  0  0  0
  7 11  1  0  0  0  0
  7  8  2  0  0  0  0
  8  9  1  0  0  0  0
  9 10  1  0  0  0  0
 10 15  2  0  0  0  0
 10 11  1  0  0  0  0
 11 12  2  0  0  0  0
 12 13  1  0  0  0  0
 13 14  2  0  0  0  0
 14 15  1  0  0  0  0
 13 16  1  0  0  0  0
 16 17  1  0  0  0  0
 17 18  1  0  0  0  0
 17 19  1  0  0  0  0
M  END
$$$$
s_22____9631354____58866
  -OEChem-03222016482D

 18 19  0     0  0  0  0  0  0999 V2000
    6.8641   -4.7407    0.0000 C   0  0  0  0  0  0  0  0  0  0  0  0
    6.5551   -3.7896    0.0000 C   0  0  0  0  0  0  0  0  0  0  0  0
    5.5770   -3.5816    0.0000 C   0  0  0  0  0  0  0  0  0  0  0  0
    5.2680   -2.6306    0.0000 C   0  0  0  0  0  0  0  0  0  0  0  0
    5.9372   -1.8874    0.0000 O   0  0  0  0  0  0  0  0  0  0  0  0
    4.2899   -2.4226    0.0000 N   0  0  0  0  0  0  0  0  0  0  0  0
    3.9809   -1.4715    0.0000 C   0  0  0  0  0  0  0  0  0  0  0  0
    3.0028   -1.2636    0.0000 C   0  0  0  0  0  0  0  0  0  0  0  0
    2.6938   -0.3125    0.0000 C   0  0  0  0  0  0  0  0  0  0  0  0
    3.2858    0.5023    0.0000 C   0  0  0  0  0  0  0  0  0  0  0  0
    2.6938    1.3169    0.0000 N   0  0  0  0  0  0  0  0  0  0  0  0
    1.7360    1.0058    0.0000 C   0  0  0  0  0  0  0  0  0  0  0  0
    1.7360   -0.0012    0.0000 C   0  0  0  0  0  0  0  0  0  0  0  0
    0.8680   -0.4978    0.0000 C   0  0  0  0  0  0  0  0  0  0  0  0
    0.0000    0.0000    0.0000 C   0  0  0  0  0  0  0  0  0  0  0  0
   -0.0000    1.0058    0.0000 C   0  0  0  0  0  0  0  0  0  0  0  0
    0.8680    1.5138    0.0000 C   0  0  0  0  0  0  0  0  0  0  0  0
   -0.8653   -0.5013    0.0000 F   0  0  0  0  0  0  0  0  0  0  0  0
  1  2  1  0  0  0  0
  2  3  1  0  0  0  0
  3  4  1  0  0  0  0
  4  5  2  0  0  0  0
  4  6  1  0  0  0  0
  6  7  1  0  0  0  0
  7  8  1  0  0  0  0
  8  9  1  0  0  0  0
  9 13  1  0  0  0  0
  9 10  2  0  0  0  0
 10 11  1  0  0  0  0
 11 12  1  0  0  0  0
 12 17  2  0  0  0  0
 12 13  1  0  0  0  0
 13 14  2  0  0  0  0
 14 15  1  0  0  0  0
 15 16  2  0  0  0  0
 16 17  1  0  0  0  0
 15 18  1  0  0  0  0
M  END
$$$$
s_240690b____12346500____3025680
  -OEChem-03222016482D

 18 19  0     0  0  0  0  0  0999 V2000
    0.0000    0.0000    0.0000 C   0  0  0  0  0  0  0  0  0  0  0  0
    0.8680   -0.4978    0.0000 C   0  0  0  0  0  0  0  0  0  0  0  0
    1.7360   -0.0012    0.0000 C   0  0  0  0  0  0  0  0  0  0  0  0
    2.6938   -0.3125    0.0000 C   0  0  0  0  0  0  0  0  0  0  0  0
    3.2858    0.5023    0.0000 C   0  0  0  0  0  0  0  0  0  0  0  0
    2.6938    1.3169    0.0000 N   0  0  0  0  0  0  0  0  0  0  0  0
    1.7360    1.0058    0.0000 C   0  0  0  0  0  0  0  0  0  0  0  0
    0.8680    1.5138    0.0000 C   0  0  0  0  0  0  0  0  0  0  0  0
    0.0000    1.0058    0.0000 C   0  0  0  0  0  0  0  0  0  0  0  0
    0.8680    2.5138    0.0000 Cl  0  0  0  0  0  0  0  0  0  0  0  0
    3.0028   -1.2636    0.0000 C   0  0  0  0  0  0  0  0  0  0  0  0
    3.9809   -1.4715    0.0000 C   0  0  0  0  0  0  0  0  0  0  0  0
    4.2899   -2.4226    0.0000 N   0  0  0  0  0  0  0  0  0  0  0  0
    5.2680   -2.6306    0.0000 C   0  0  0  0  0  0  0  0  0  0  0  0
    5.9372   -1.8874    0.0000 O   0  0  0  0  0  0  0  0  0  0  0  0
    5.5770   -3.5816    0.0000 C   0  0  0  0  0  0  0  0  0  0  0  0
    6.5551   -3.7896    0.0000 C   0  0  0  0  0  0  0  0  0  0  0  0
    6.8641   -4.7407    0.0000 N   0  3  0  0  0  0  0  0  0  0  0  0
  1  9  2  0  0  0  0
  1  2  1  0  0  0  0
  2  3  2  0  0  0  0
  3  7  1  0  0  0  0
  3  4  1  0  0  0  0
  4  5  2  0  0  0  0
  5  6  1  0  0  0  0
  6  7  1  0  0  0  0
  7  8  2  0  0  0  0
  8  9  1  0  0  0  0
  8 10  1  0  0  0  0
  4 11  1  0  0  0  0
 11 12  1  0  0  0  0
 12 13  1  0  0  0  0
 13 14  1  0  0  0  0
 14 15  2  0  0  0  0
 14 16  1  0  0  0  0
 16 17  1  0  0  0  0
 17 18  1  0  0  0  0
M  CHG  1  18   1
M  END
$$$$
s_22____5635330____59039
  -OEChem-03222016482D

 18 19  0     0  0  0  0  0  0999 V2000
    0.8680    2.5138    0.0000 C   0  0  0  0  0  0  0  0  0  0  0  0
    0.8680    1.5138    0.0000 C   0  0  0  0  0  0  0  0  0  0  0  0
    0.0000    1.0058    0.0000 C   0  0  0  0  0  0  0  0  0  0  0  0
    0.0000    0.0000    0.0000 C   0  0  0  0  0  0  0  0  0  0  0  0
    0.8680   -0.4978    0.0000 C   0  0  0  0  0  0  0  0  0  0  0  0
    1.7360   -0.0012    0.0000 C   0  0  0  0  0  0  0  0  0  0  0  0
    1.7360    1.0058    0.0000 C   0  0  0  0  0  0  0  0  0  0  0  0
    2.6938    1.3169    0.0000 N   0  0  0  0  0  0  0  0  0  0  0  0
    3.2858    0.5023    0.0000 C   0  0  0  0  0  0  0  0  0  0  0  0
    2.6938   -0.3125    0.0000 C   0  0  0  0  0  0  0  0  0  0  0  0
    3.0028   -1.2636    0.0000 C   0  0  0  0  0  0  0  0  0  0  0  0
    3.9809   -1.4715    0.0000 C   0  0  0  0  0  0  0  0  0  0  0  0
    4.2899   -2.4226    0.0000 N   0  0  0  0  0  0  0  0  0  0  0  0
    5.2680   -2.6306    0.0000 C   0  0  0  0  0  0  0  0  0  0  0  0
    5.9372   -1.8874    0.0000 O   0  0  0  0  0  0  0  0  0  0  0  0
    5.5770   -3.5816    0.0000 C   0  0  0  0  0  0  0  0  0  0  0  0
    6.5551   -3.7896    0.0000 O   0  0  0  0  0  0  0  0  0  0  0  0
    6.8641   -4.7407    0.0000 C   0  0  0  0  0  0  0  0  0  0  0  0
  1  2  1  0  0  0  0
  2  7  2  0  0  0  0
  2  3  1  0  0  0  0
  3  4  2  0  0  0  0
  4  5  1  0  0  0  0
  5  6  2  0  0  0  0
  6 10  1  0  0  0  0
  6  7  1  0  0  0  0
  7  8  1  0  0  0  0
  8  9  1  0  0  0  0
  9 10  2  0  0  0  0
 10 11  1  0  0  0  0
 11 12  1  0  0  0  0
 12 13  1  0  0  0  0
 13 14  1  0  0  0  0
 14 15  2  0  0  0  0
 14 16  1  0  0  0  0
 16 17  1  0  0  0  0
 17 18  1  0  0  0  0
M  END
$$$$
s_240690b____17029356____13151248
  -OEChem-03222016482D

 18 19  0     0  0  0  0  0  0999 V2000
   -0.0000    1.0058    0.0000 C   0  0  0  0  0  0  0  0  0  0  0  0
    0.8680    1.5138    0.0000 C   0  0  0  0  0  0  0  0  0  0  0  0
    1.7360    1.0058    0.0000 C   0  0  0  0  0  0  0  0  0  0  0  0
    1.7360   -0.0012    0.0000 C   0  0  0  0  0  0  0  0  0  0  0  0
    0.8680   -0.4978    0.0000 C   0  0  0  0  0  0  0  0  0  0  0  0
    0.0000    0.0000    0.0000 C   0  0  0  0  0  0  0  0  0  0  0  0
   -0.8653   -0.5013    0.0000 F   0  0  0  0  0  0  0  0  0  0  0  0
    2.6938   -0.3125    0.0000 C   0  0  0  0  0  0  0  0  0  0  0  0
    3.2858    0.5023    0.0000 C   0  0  0  0  0  0  0  0  0  0  0  0
    2.6938    1.3169    0.0000 N   0  0  0  0  0  0  0  0  0  0  0  0
    3.0028   -1.2636    0.0000 C   0  0  0  0  0  0  0  0  0  0  0  0
    3.9809   -1.4715    0.0000 C   0  0  0  0  0  0  0  0  0  0  0  0
    4.2899   -2.4226    0.0000 N   0  0  0  0  0  0  0  0  0  0  0  0
    5.2680   -2.6306    0.0000 C   0  0  0  0  0  0  0  0  0  0  0  0
    5.9372   -1.8874    0.0000 O   0  0  0  0  0  0  0  0  0  0  0  0
    5.5770   -3.5816    0.0000 C   0  0  0  0  0  0  0  0  0  0  0  0
    6.5551   -3.7896    0.0000 O   0  0  0  0  0  0  0  0  0  0  0  0
    6.8641   -4.7407    0.0000 N   0  0  0  0  0  0  0  0  0  0  0  0
  1  6  2  0  0  0  0
  1  2  1  0  0  0  0
  2  3  2  0  0  0  0
  3 10  1  0  0  0  0
  3  4  1  0  0  0  0
  4  5  2  0  0  0  0
  5  6  1  0  0  0  0
  6  7  1  0  0  0  0
  4  8  1  0  0  0  0
  8  9  2  0  0  0  0
  9 10  1  0  0  0  0
  8 11  1  0  0  0  0
 11 12  1  0  0  0  0
 12 13  1  0  0  0  0
 13 14  1  0  0  0  0
 14 15  2  0  0  0  0
 14 16  1  0  0  0  0
 16 17  1  0  0  0  0
 17 18  1  0  0  0  0
M  END
$$$$
s_22____4839448____16783912
  -OEChem-03222016482D

 20 21  0     0  0  0  0  0  0999 V2000
   -1.7320   -0.0025    0.0000 C   0  0  0  0  0  0  0  0  0  0  0  0
   -0.8653   -0.5013    0.0000 O   0  0  0  0  0  0  0  0  0  0  0  0
    0.0000    0.0000    0.0000 C   0  0  0  0  0  0  0  0  0  0  0  0
   -0.0000    1.0058    0.0000 C   0  0  0  0  0  0  0  0  0  0  0  0
    0.8680    1.5138    0.0000 C   0  0  0  0  0  0  0  0  0  0  0  0
    1.7360    1.0058    0.0000 C   0  0  0  0  0  0  0  0  0  0  0  0
    1.7360   -0.0012    0.0000 C   0  0  0  0  0  0  0  0  0  0  0  0
    0.8680   -0.4978    0.0000 C   0  0  0  0  0  0  0  0  0  0  0  0
    2.6938   -0.3125    0.0000 C   0  0  0  0  0  0  0  0  0  0  0  0
    3.2858    0.5023    0.0000 C   0  0  0  0  0  0  0  0  0  0  0  0
    2.6938    1.3169    0.0000 N   0  0  0  0  0  0  0  0  0  0  0  0
    3.0028   -1.2636    0.0000 C   0  0  0  0  0  0  0  0  0  0  0  0
    3.9809   -1.4715    0.0000 C   0  0  0  0  0  0  0  0  0  0  0  0
    4.2899   -2.4226    0.0000 N   0  0  0  0  0  0  0  0  0  0  0  0
    5.2680   -2.6306    0.0000 C   0  0  0  0  0  0  0  0  0  0  0  0
    5.9372   -1.8874    0.0000 O   0  0  0  0  0  0  0  0  0  0  0  0
    5.5770   -3.5816    0.0000 C   0  0  0  0  0  0  0  0  0  0  0  0
    6.5551   -3.7896    0.0000 C   0  0  0  0  0  0  0  0  0  0  0  0
    6.8641   -4.7407    0.0000 C   0  0  0  0  0  0  0  0  0  0  0  0
    7.8422   -4.9486    0.0000 O   0  0  0  0  0  0  0  0  0  0  0  0
  1  2  1  0  0  0  0
  2  3  1  0  0  0  0
  3  8  2  0  0  0  0
  3  4  1  0  0  0  0
  4  5  2  0  0  0  0
  5  6  1  0  0  0  0
  6 11  1  0  0  0  0
  6  7  2  0  0  0  0
  7  8  1  0  0  0  0
  7  9  1  0  0  0  0
  9 10  2  0  0  0  0
 10 11  1  0  0  0  0
  9 12  1  0  0  0  0
 12 13  1  0  0  0  0
 13 14  1  0  0  0  0
 14 15  1  0  0  0  0
 15 16  2  0  0  0  0
 15 17  1  0  0  0  0
 17 18  1  0  0  0  0
 18 19  1  0  0  0  0
 19 20  1  0  0  0  0
M  END
$$$$
s_22____15506616____16890190
  -OEChem-03222016482D

 20 21  0     1  0  0  0  0  0999 V2000
    0.6351   -5.1871    0.0000 C   0  0  0  0  0  0  0  0  0  0  0  0
    1.6132   -5.3951    0.0000 C   0  0  3  0  0  0  0  0  0  0  0  0
    2.2824   -4.6519    0.0000 C   0  0  0  0  0  0  0  0  0  0  0  0
    1.9734   -3.7009    0.0000 C   0  0  0  0  0  0  0  0  0  0  0  0
    0.9953   -3.4929    0.0000 O   0  0  0  0  0  0  0  0  0  0  0  0
    2.6426   -2.9578    0.0000 N   0  0  0  0  0  0  0  0  0  0  0  0
    2.3336   -2.0067    0.0000 C   0  0  0  0  0  0  0  0  0  0  0  0
    3.0028   -1.2636    0.0000 C   0  0  0  0  0  0  0  0  0  0  0  0
    2.6938   -0.3125    0.0000 C   0  0  0  0  0  0  0  0  0  0  0  0
    3.2858    0.5023    0.0000 C   0  0  0  0  0  0  0  0  0  0  0  0
    2.6938    1.3169    0.0000 N   0  0  0  0  0  0  0  0  0  0  0  0
    1.7360    1.0058    0.0000 C   0  0  0  0  0  0  0  0  0  0  0  0
    1.7360   -0.0012    0.0000 C   0  0  0  0  0  0  0  0  0  0  0  0
    0.8680   -0.4978    0.0000 C   0  0  0  0  0  0  0  0  0  0  0  0
    0.0000    0.0000    0.0000 C   0  0  0  0  0  0  0  0  0  0  0  0
   -0.0000    1.0058    0.0000 C   0  0  0  0  0  0  0  0  0  0  0  0
    0.8680    1.5138    0.0000 C   0  0  0  0  0  0  0  0  0  0  0  0
    0.8680    2.5138    0.0000 O   0  0  0  0  0  0  0  0  0  0  0  0
    0.0020    3.0138    0.0000 C   0  0  0  0  0  0  0  0  0  0  0  0
    1.9222   -6.3461    0.0000 F   0  0  0  0  0  0  0  0  0  0  0  0
  1  2  1  0  0  0  0
  2  3  1  0  0  0  0
  3  4  1  0  0  0  0
  4  5  2  0  0  0  0
  4  6  1  0  0  0  0
  6  7  1  0  0  0  0
  7  8  1  0  0  0  0
  8  9  1  0  0  0  0
  9 13  1  0  0  0  0
  9 10  2  0  0  0  0
 10 11  1  0  0  0  0
 11 12  1  0  0  0  0
 12 17  2  0  0  0  0
 12 13  1  0  0  0  0
 13 14  2  0  0  0  0
 14 15  1  0  0  0  0
 15 16  2  0  0  0  0
 16 17  1  0  0  0  0
 17 18  1  0  0  0  0
 18 19  1  0  0  0  0
  2 20  1  0  0  0  0
M  END
$$$$
s_512____158561____13025528
  -OEChem-03222016482D

 21 22  0     0  0  0  0  0  0999 V2000
    7.8422   -4.9486    0.0000 C   0  0  0  0  0  0  0  0  0  0  0  0
    6.8641   -4.7407    0.0000 C   0  0  0  0  0  0  0  0  0  0  0  0
    6.1949   -5.4838    0.0000 C   0  0  0  0  0  0  0  0  0  0  0  0
    6.5551   -3.7896    0.0000 C   0  0  0  0  0  0  0  0  0  0  0  0
    5.5770   -3.5816    0.0000 N   0  0  0  0  0  0  0  0  0  0  0  0
    5.2680   -2.6306    0.0000 C   0  0  0  0  0  0  0  0  0  0  0  0
    5.9372   -1.8874    0.0000 O   0  0  0  0  0  0  0  0  0  0  0  0
    4.2899   -2.4226    0.0000 N   0  0  0  0  0  0  0  0  0  0  0  0
    3.9809   -1.4715    0.0000 C   0  0  0  0  0  0  0  0  0  0  0  0
    3.0028   -1.2636    0.0000 C   0  0  0  0  0  0  0  0  0  0  0  0
    2.6938   -0.3125    0.0000 C   0  0  0  0  0  0  0  0  0  0  0  0
    3.2858    0.5023    0.0000 C   0  0  0  0  0  0  0  0  0  0  0  0
    2.6938    1.3169    0.0000 N   0  0  0  0  0  0  0  0  0  0  0  0
    1.7360    1.0058    0.0000 C   0  0  0  0  0  0  0  0  0  0  0  0
    1.7360   -0.0012    0.0000 C   0  0  0  0  0  0  0  0  0  0  0  0
    0.8680   -0.4978    0.0000 C   0  0  0  0  0  0  0  0  0  0  0  0
    0.0000    0.0000    0.0000 C   0  0  0  0  0  0  0  0  0  0  0  0
   -0.0000    1.0058    0.0000 C   0  0  0  0  0  0  0  0  0  0  0  0
    0.8680    1.5138    0.0000 C   0  0  0  0  0  0  0  0  0  0  0  0
    0.8675   -1.4978    0.0000 O   0  0  0  0  0  0  0  0  0  0  0  0
    1.7332   -1.9983    0.0000 C   0  0  0  0  0  0  0  0  0  0  0  0
  1  2  1  0  0  0  0
  2  3  1  0  0  0  0
  2  4  1  0  0  0  0
  4  5  1  0  0  0  0
  5  6  1  0  0  0  0
  6  7  2  0  0  0  0
  6  8  1  0  0  0  0
  8  9  1  0  0  0  0
  9 10  1  0  0  0  0
 10 11  1  0  0  0  0
 11 15  1  0  0  0  0
 11 12  2  0  0  0  0
 12 13  1  0  0  0  0
 13 14  1  0  0  0  0
 14 19  2  0  0  0  0
 14 15  1  0  0  0  0
 15 16  2  0  0  0  0
 16 17  1  0  0  0  0
 17 18  2  0  0  0  0
 18 19  1  0  0  0  0
 16 20  1  0  0  0  0
 20 21  1  0  0  0  0
M  END
$$$$
s_272164____14971852____9387680
  -OEChem-03222016482D

 22 23  0     0  0  0  0  0  0999 V2000
    1.7327   -2.9983    0.0000 C   0  0  0  0  0  0  0  0  0  0  0  0
    1.7332   -1.9983    0.0000 C   0  0  0  0  0  0  0  0  0  0  0  0
    0.8675   -1.4978    0.0000 O   0  0  0  0  0  0  0  0  0  0  0  0
    0.8680   -0.4978    0.0000 C   0  0  0  0  0  0  0  0  0  0  0  0
    0.0000    0.0000    0.0000 C   0  0  0  0  0  0  0  0  0  0  0  0
   -0.0000    1.0058    0.0000 C   0  0  0  0  0  0  0  0  0  0  0  0
    0.8680    1.5138    0.0000 C   0  0  0  0  0  0  0  0  0  0  0  0
    1.7360    1.0058    0.0000 C   0  0  0  0  0  0  0  0  0  0  0  0
    1.7360   -0.0012    0.0000 C   0  0  0  0  0  0  0  0  0  0  0  0
    2.6938   -0.3125    0.0000 C   0  0  0  0  0  0  0  0  0  0  0  0
    3.2858    0.5023    0.0000 C   0  0  0  0  0  0  0  0  0  0  0  0
    2.6938    1.3169    0.0000 N   0  0  0  0  0  0  0  0  0  0  0  0
    3.0028   -1.2636    0.0000 C   0  0  0  0  0  0  0  0  0  0  0  0
    3.9809   -1.4715    0.0000 C   0  0  0  0  0  0  0  0  0  0  0  0
    4.2899   -2.4226    0.0000 N   0  0  0  0  0  0  0  0  0  0  0  0
    5.2680   -2.6306    0.0000 C   0  0  0  0  0  0  0  0  0  0  0  0
    5.9372   -1.8874    0.0000 O   0  0  0  0  0  0  0  0  0  0  0  0
    5.5770   -3.5816    0.0000 N   0  0  0  0  0  0  0  0  0  0  0  0
    4.9078   -4.3247    0.0000 C   0  0  0  0  0  0  0  0  0  0  0  0
    6.5551   -3.7896    0.0000 C   0  0  0  0  0  0  0  0  0  0  0  0
    6.8641   -4.7407    0.0000 C   0  0  0  0  0  0  0  0  0  0  0  0
    7.8422   -4.9486    0.0000 F   0  0  0  0  0  0  0  0  0  0  0  0
  1  2  1  0  0  0  0
  2  3  1  0  0  0  0
  3  4  1  0  0  0  0
  4  9  2  0  0  0  0
  4  5  1  0  0  0  0
  5  6  2  0  0  0  0
  6  7  1  0  0  0  0
  7  8  2  0  0  0  0
  8 12  1  0  0  0  0
  8  9  1  0  0  0  0
  9 10  1  0  0  0  0
 10 11  2  0  0  0  0
 11 12  1  0  0  0  0
 10 13  1  0  0  0  0
 13 14  1  0  0  0  0
 14 15  1  0  0  0  0
 15 16  1  0  0  0  0
 16 17  2  0  0  0  0
 16 18  1  0  0  0  0
 18 19  1  0  0  0  0
 18 20  1  0  0  0  0
 20 21  1  0  0  0  0
 21 22  1  0  0  0  0
M  END
$$$$
s_270062____12346470____8147258
  -OEChem-03222016482D

 17 18  0     0  0  0  0  0  0999 V2000
    0.0000    0.0000    0.0000 C   0  0  0  0  0  0  0  0  0  0  0  0
    0.8680   -0.4978    0.0000 C   0  0  0  0  0  0  0  0  0  0  0  0
    1.7360   -0.0012    0.0000 C   0  0  0  0  0  0  0  0  0  0  0  0
    2.6938   -0.3125    0.0000 C   0  0  0  0  0  0  0  0  0  0  0  0
    3.2858    0.5023    0.0000 C   0  0  0  0  0  0  0  0  0  0  0  0
    2.6938    1.3169    0.0000 N   0  0  0  0  0  0  0  0  0  0  0  0
    1.7360    1.0058    0.0000 C   0  0  0  0  0  0  0  0  0  0  0  0
    0.8680    1.5138    0.0000 C   0  0  0  0  0  0  0  0  0  0  0  0
    0.0000    1.0058    0.0000 C   0  0  0  0  0  0  0  0  0  0  0  0
    0.8680    2.5138    0.0000 Cl  0  0  0  0  0  0  0  0  0  0  0  0
    3.0028   -1.2636    0.0000 C   0  0  0  0  0  0  0  0  0  0  0  0
    3.9809   -1.4715    0.0000 C   0  0  0  0  0  0  0  0  0  0  0  0
    4.2899   -2.4226    0.0000 N   0  0  0  0  0  0  0  0  0  0  0  0
    5.2680   -2.6306    0.0000 C   0  0  0  0  0  0  0  0  0  0  0  0
    5.9372   -1.8874    0.0000 O   0  0  0  0  0  0  0  0  0  0  0  0
    5.5770   -3.5816    0.0000 C   0  0  0  0  0  0  0  0  0  0  0  0
    6.5551   -3.7896    0.0000 Cl  0  0  0  0  0  0  0  0  0  0  0  0
  1  9  2  0  0  0  0
  1  2  1  0  0  0  0
  2  3  2  0  0  0  0
  3  7  1  0  0  0  0
  3  4  1  0  0  0  0
  4  5  2  0  0  0  0
  5  6  1  0  0  0  0
  6  7  1  0  0  0  0
  7  8  2  0  0  0  0
  8  9  1  0  0  0  0
  8 10  1  0  0  0  0
  4 11  1  0  0  0  0
 11 12  1  0  0  0  0
 12 13  1  0  0  0  0
 13 14  1  0  0  0  0
 14 15  2  0  0  0  0
 14 16  1  0  0  0  0
 16 17  1  0  0  0  0
M  END
$$$$
s_270062____13025552____12187078
  -OEChem-03222016482D

 21 22  0     0  0  0  0  0  0999 V2000
    6.5281   -3.2727    0.0000 C   0  0  0  0  0  0  0  0  0  0  0  0
    5.5770   -3.5816    0.0000 C   0  0  0  0  0  0  0  0  0  0  0  0
    4.6259   -3.8906    0.0000 C   0  0  0  0  0  0  0  0  0  0  0  0
    5.8860   -4.5327    0.0000 C   0  0  0  0  0  0  0  0  0  0  0  0
    6.8641   -4.7407    0.0000 Cl  0  0  0  0  0  0  0  0  0  0  0  0
    5.2680   -2.6306    0.0000 C   0  0  0  0  0  0  0  0  0  0  0  0
    5.9372   -1.8874    0.0000 O   0  0  0  0  0  0  0  0  0  0  0  0
    4.2899   -2.4226    0.0000 N   0  0  0  0  0  0  0  0  0  0  0  0
    3.9809   -1.4715    0.0000 C   0  0  0  0  0  0  0  0  0  0  0  0
    3.0028   -1.2636    0.0000 C   0  0  0  0  0  0  0  0  0  0  0  0
    2.6938   -0.3125    0.0000 C   0  0  0  0  0  0  0  0  0  0  0  0
    3.2858    0.5023    0.0000 C   0  0  0  0  0  0  0  0  0  0  0  0
    2.6938    1.3169    0.0000 N   0  0  0  0  0  0  0  0  0  0  0  0
    1.7360    1.0058    0.0000 C   0  0  0  0  0  0  0  0  0  0  0  0
    1.7360   -0.0012    0.0000 C   0  0  0  0  0  0  0  0  0  0  0  0
    0.8680   -0.4978    0.0000 C   0  0  0  0  0  0  0  0  0  0  0  0
    0.0000    0.0000    0.0000 C   0  0  0  0  0  0  0  0  0  0  0  0
   -0.0000    1.0058    0.0000 C   0  0  0  0  0  0  0  0  0  0  0  0
    0.8680    1.5138    0.0000 C   0  0  0  0  0  0  0  0  0  0  0  0
    0.8675   -1.4978    0.0000 O   0  0  0  0  0  0  0  0  0  0  0  0
    1.7332   -1.9983    0.0000 C   0  0  0  0  0  0  0  0  0  0  0  0
  1  2  1  0  0  0  0
  2  3  1  0  0  0  0
  2  4  1  0  0  0  0
  4  5  1  0  0  0  0
  2  6  1  0  0  0  0
  6  7  2  0  0  0  0
  6  8  1  0  0  0  0
  8  9  1  0  0  0  0
  9 10  1  0  0  0  0
 10 11  1  0  0  0  0
 11 15  1  0  0  0  0
 11 12  2  0  0  0  0
 12 13  1  0  0  0  0
 13 14  1  0  0  0  0
 14 19  2  0  0  0  0
 14 15  1  0  0  0  0
 15 16  2  0  0  0  0
 16 17  1  0  0  0  0
 17 18  2  0  0  0  0
 18 19  1  0  0  0  0
 16 20  1  0  0  0  0
 20 21  1  0  0  0  0
M  END
$$$$
s_527a____12637914____156031
  -OEChem-03222016482D

 18 19  0     0  0  0  0  0  0999 V2000
    2.2824   -4.6519    0.0000 C   0  0  0  0  0  0  0  0  0  0  0  0
    2.9515   -3.9088    0.0000 C   0  0  0  0  0  0  0  0  0  0  0  0
    3.9297   -4.1168    0.0000 O   0  0  0  0  0  0  0  0  0  0  0  0
    2.6426   -2.9578    0.0000 N   0  0  0  0  0  0  0  0  0  0  0  0
    3.3117   -2.2146    0.0000 C   0  0  0  0  0  0  0  0  0  0  0  0
    3.0028   -1.2636    0.0000 C   0  0  0  0  0  0  0  0  0  0  0  0
    2.0517   -1.5725    0.0000 C   0  0  0  0  0  0  0  0  0  0  0  0
    3.9538   -0.9546    0.0000 C   0  0  0  0  0  0  0  0  0  0  0  0
    2.6938   -0.3125    0.0000 C   0  0  0  0  0  0  0  0  0  0  0  0
    3.2858    0.5023    0.0000 C   0  0  0  0  0  0  0  0  0  0  0  0
    2.6938    1.3169    0.0000 N   0  0  0  0  0  0  0  0  0  0  0  0
    1.7360    1.0058    0.0000 C   0  0  0  0  0  0  0  0  0  0  0  0
    1.7360   -0.0012    0.0000 C   0  0  0  0  0  0  0  0  0  0  0  0
    0.8680   -0.4978    0.0000 C   0  0  0  0  0  0  0  0  0  0  0  0
    0.0000    0.0000    0.0000 C   0  0  0  0  0  0  0  0  0  0  0  0
   -0.0000    1.0058    0.0000 C   0  0  0  0  0  0  0  0  0  0  0  0
    0.8680    1.5138    0.0000 C   0  0  0  0  0  0  0  0  0  0  0  0
   -0.8675    1.5032    0.0000 F   0  0  0  0  0  0  0  0  0  0  0  0
  1  2  1  0  0  0  0
  2  3  2  0  0  0  0
  2  4  1  0  0  0  0
  4  5  1  0  0  0  0
  5  6  1  0  0  0  0
  6  7  1  0  0  0  0
  6  8  1  0  0  0  0
  6  9  1  0  0  0  0
  9 13  1  0  0  0  0
  9 10  2  0  0  0  0
 10 11  1  0  0  0  0
 11 12  1  0  0  0  0
 12 17  2  0  0  0  0
 12 13  1  0  0  0  0
 13 14  2  0  0  0  0
 14 15  1  0  0  0  0
 15 16  2  0  0  0  0
 16 17  1  0  0  0  0
 16 18  1  0  0  0  0
M  END
$$$$
s_240690b____17027970____7368582
  -OEChem-03222016482D

 20 21  0     0  0  0  0  0  0999 V2000
    1.7327   -2.9983    0.0000 C   0  0  0  0  0  0  0  0  0  0  0  0
    1.7332   -1.9983    0.0000 C   0  0  0  0  0  0  0  0  0  0  0  0
    0.8675   -1.4978    0.0000 O   0  0  0  0  0  0  0  0  0  0  0  0
    0.8680   -0.4978    0.0000 C   0  0  0  0  0  0  0  0  0  0  0  0
    0.0000    0.0000    0.0000 C   0  0  0  0  0  0  0  0  0  0  0  0
   -0.0000    1.0058    0.0000 C   0  0  0  0  0  0  0  0  0  0  0  0
    0.8680    1.5138    0.0000 C   0  0  0  0  0  0  0  0  0  0  0  0
    1.7360    1.0058    0.0000 C   0  0  0  0  0  0  0  0  0  0  0  0
    1.7360   -0.0012    0.0000 C   0  0  0  0  0  0  0  0  0  0  0  0
    2.6938   -0.3125    0.0000 C   0  0  0  0  0  0  0  0  0  0  0  0
    3.2858    0.5023    0.0000 C   0  0  0  0  0  0  0  0  0  0  0  0
    2.6938    1.3169    0.0000 N   0  0  0  0  0  0  0  0  0  0  0  0
    3.0028   -1.2636    0.0000 C   0  0  0  0  0  0  0  0  0  0  0  0
    3.9809   -1.4715    0.0000 C   0  0  0  0  0  0  0  0  0  0  0  0
    4.2899   -2.4226    0.0000 N   0  0  0  0  0  0  0  0  0  0  0  0
    5.2680   -2.6306    0.0000 C   0  0  0  0  0  0  0  0  0  0  0  0
    5.9372   -1.8874    0.0000 O   0  0  0  0  0  0  0  0  0  0  0  0
    5.5770   -3.5816    0.0000 C   0  0  0  0  0  0  0  0  0  0  0  0
    6.5551   -3.7896    0.0000 N   0  3  0  0  0  0  0  0  0  0  0  0
    6.8641   -4.7407    0.0000 C   0  0  0  0  0  0  0  0  0  0  0  0
  1  2  1  0  0  0  0
  2  3  1  0  0  0  0
  3  4  1  0  0  0  0
  4  9  2  0  0  0  0
  4  5  1  0  0  0  0
  5  6  2  0  0  0  0
  6  7  1  0  0  0  0
  7  8  2  0  0  0  0
  8 12  1  0  0  0  0
  8  9  1  0  0  0  0
  9 10  1  0  0  0  0
 10 11  2  0  0  0  0
 11 12  1  0  0  0  0
 10 13  1  0  0  0  0
 13 14  1  0  0  0  0
 14 15  1  0  0  0  0
 15 16  1  0  0  0  0
 16 17  2  0  0  0  0
 16 18  1  0  0  0  0
 18 19  1  0  0  0  0
 19 20  1  0  0  0  0
M  CHG  1  19   1
M  END
$$$$
s_22____2366540____7941800
  -OEChem-03222016482D

 17 18  0     0  0  0  0  0  0999 V2000
    0.0000    0.0000    0.0000 C   0  0  0  0  0  0  0  0  0  0  0  0
    0.8680   -0.4978    0.0000 C   0  0  0  0  0  0  0  0  0  0  0  0
    1.7360   -0.0012    0.0000 C   0  0  0  0  0  0  0  0  0  0  0  0
    1.7360    1.0058    0.0000 C   0  0  0  0  0  0  0  0  0  0  0  0
    0.8680    1.5138    0.0000 C   0  0  0  0  0  0  0  0  0  0  0  0
    0.0000    1.0058    0.0000 C   0  0  0  0  0  0  0  0  0  0  0  0
   -0.8675    1.5032    0.0000 F   0  0  0  0  0  0  0  0  0  0  0  0
    2.6938    1.3169    0.0000 N   0  0  0  0  0  0  0  0  0  0  0  0
    3.2858    0.5023    0.0000 C   0  0  0  0  0  0  0  0  0  0  0  0
    2.6938   -0.3125    0.0000 C   0  0  0  0  0  0  0  0  0  0  0  0
    3.0028   -1.2636    0.0000 C   0  0  0  0  0  0  0  0  0  0  0  0
    3.9809   -1.4715    0.0000 C   0  0  0  0  0  0  0  0  0  0  0  0
    4.2899   -2.4226    0.0000 N   0  0  0  0  0  0  0  0  0  0  0  0
    5.2680   -2.6306    0.0000 C   0  0  0  0  0  0  0  0  0  0  0  0
    5.9372   -1.8874    0.0000 O   0  0  0  0  0  0  0  0  0  0  0  0
    5.5770   -3.5816    0.0000 C   0  0  0  0  0  0  0  0  0  0  0  0
    6.5551   -3.7896    0.0000 O   0  0  0  0  0  0  0  0  0  0  0  0
  1  6  2  0  0  0  0
  1  2  1  0  0  0  0
  2  3  2  0  0  0  0
  3 10  1  0  0  0  0
  3  4  1  0  0  0  0
  4  5  2  0  0  0  0
  5  6  1  0  0  0  0
  6  7  1  0  0  0  0
  4  8  1  0  0  0  0
  8  9  1  0  0  0  0
  9 10  2  0  0  0  0
 10 11  1  0  0  0  0
 11 12  1  0  0  0  0
 12 13  1  0  0  0  0
 13 14  1  0  0  0  0
 14 15  2  0  0  0  0
 14 16  1  0  0  0  0
 16 17  1  0  0  0  0
M  END
$$$$
s_240690b____15144160____3025698
  -OEChem-03222016482D

 18 19  0     0  0  0  0  0  0999 V2000
    0.8680    1.5138    0.0000 C   0  0  0  0  0  0  0  0  0  0  0  0
    0.0000    1.0058    0.0000 C   0  0  0  0  0  0  0  0  0  0  0  0
    0.0000    0.0000    0.0000 C   0  0  0  0  0  0  0  0  0  0  0  0
    0.8680   -0.4978    0.0000 C   0  0  0  0  0  0  0  0  0  0  0  0
    1.7360   -0.0012    0.0000 C   0  0  0  0  0  0  0  0  0  0  0  0
    1.7360    1.0058    0.0000 C   0  0  0  0  0  0  0  0  0  0  0  0
    2.6938    1.3169    0.0000 N   0  0  0  0  0  0  0  0  0  0  0  0
    3.2858    0.5023    0.0000 C   0  0  0  0  0  0  0  0  0  0  0  0
    2.6938   -0.3125    0.0000 C   0  0  0  0  0  0  0  0  0  0  0  0
    3.0028   -1.2636    0.0000 C   0  0  0  0  0  0  0  0  0  0  0  0
    3.9809   -1.4715    0.0000 C   0  0  0  0  0  0  0  0  0  0  0  0
    4.2899   -2.4226    0.0000 N   0  0  0  0  0  0  0  0  0  0  0  0
    5.2680   -2.6306    0.0000 C   0  0  0  0  0  0  0  0  0  0  0  0
    5.9372   -1.8874    0.0000 O   0  0  0  0  0  0  0  0  0  0  0  0
    5.5770   -3.5816    0.0000 C   0  0  0  0  0  0  0  0  0  0  0  0
    6.5551   -3.7896    0.0000 N   0  3  0  0  0  0  0  0  0  0  0  0
    0.8675   -1.4978    0.0000 F   0  0  0  0  0  0  0  0  0  0  0  0
   -0.8675    1.5032    0.0000 F   0  0  0  0  0  0  0  0  0  0  0  0
  1  6  2  0  0  0  0
  1  2  1  0  0  0  0
  2  3  2  0  0  0  0
  3  4  1  0  0  0  0
  4  5  2  0  0  0  0
  5  9  1  0  0  0  0
  5  6  1  0  0  0  0
  6  7  1  0  0  0  0
  7  8  1  0  0  0  0
  8  9  2  0  0  0  0
  9 10  1  0  0  0  0
 10 11  1  0  0  0  0
 11 12  1  0  0  0  0
 12 13  1  0  0  0  0
 13 14  2  0  0  0  0
 13 15  1  0  0  0  0
 15 16  1  0  0  0  0
  4 17  1  0  0  0  0
  2 18  1  0  0  0  0
M  CHG  1  16   1
M  END
$$$$
s_22____13771018____7941096
  -OEChem-03222016482D

 21 22  0     1  0  0  0  0  0999 V2000
   -3.4641   -0.0050    0.0000 C   0  0  0  0  0  0  0  0  0  0  0  0
   -2.5974   -0.5038    0.0000 C   0  0  0  0  0  0  0  0  0  0  0  0
   -1.7320   -0.0025    0.0000 C   0  0  0  0  0  0  0  0  0  0  0  0
   -0.8653   -0.5013    0.0000 O   0  0  0  0  0  0  0  0  0  0  0  0
    0.0000    0.0000    0.0000 C   0  0  0  0  0  0  0  0  0  0  0  0
   -0.0000    1.0058    0.0000 C   0  0  0  0  0  0  0  0  0  0  0  0
    0.8680    1.5138    0.0000 C   0  0  0  0  0  0  0  0  0  0  0  0
    1.7360    1.0058    0.0000 C   0  0  0  0  0  0  0  0  0  0  0  0
    1.7360   -0.0012    0.0000 C   0  0  0  0  0  0  0  0  0  0  0  0
    0.8680   -0.4978    0.0000 C   0  0  0  0  0  0  0  0  0  0  0  0
    2.6938   -0.3125    0.0000 C   0  0  0  0  0  0  0  0  0  0  0  0
    3.2858    0.5023    0.0000 C   0  0  0  0  0  0  0  0  0  0  0  0
    2.6938    1.3169    0.0000 N   0  0  0  0  0  0  0  0  0  0  0  0
    3.0028   -1.2636    0.0000 C   0  0  0  0  0  0  0  0  0  0  0  0
    3.9809   -1.4715    0.0000 C   0  0  0  0  0  0  0  0  0  0  0  0
    4.2899   -2.4226    0.0000 N   0  0  0  0  0  0  0  0  0  0  0  0
    5.2680   -2.6306    0.0000 C   0  0  0  0  0  0  0  0  0  0  0  0
    5.9372   -1.8874    0.0000 O   0  0  0  0  0  0  0  0  0  0  0  0
    5.5770   -3.5816    0.0000 C   0  0  3  0  0  0  0  0  0  0  0  0
    6.5551   -3.7896    0.0000 C   0  0  0  0  0  0  0  0  0  0  0  0
    4.9078   -4.3247    0.0000 O   0  0  0  0  0  0  0  0  0  0  0  0
  1  2  1  0  0  0  0
  2  3  1  0  0  0  0
  3  4  1  0  0  0  0
  4  5  1  0  0  0  0
  5 10  2  0  0  0  0
  5  6  1  0  0  0  0
  6  7  2  0  0  0  0
  7  8  1  0  0  0  0
  8 13  1  0  0  0  0
  8  9  2  0  0  0  0
  9 10  1  0  0  0  0
  9 11  1  0  0  0  0
 11 12  2  0  0  0  0
 12 13  1  0  0  0  0
 11 14  1  0  0  0  0
 14 15  1  0  0  0  0
 15 16  1  0  0  0  0
 16 17  1  0  0  0  0
 17 18  2  0  0  0  0
 17 19  1  0  0  0  0
 19 20  1  0  0  0  0
 19 21  1  0  0  0  0
M  END
$$$$
s_22____15506616____60364
  -OEChem-03222016482D

 19 20  0     0  0  0  0  0  0999 V2000
    1.7340    3.0138    0.0000 C   0  0  0  0  0  0  0  0  0  0  0  0
    0.8680    2.5138    0.0000 O   0  0  0  0  0  0  0  0  0  0  0  0
    0.8680    1.5138    0.0000 C   0  0  0  0  0  0  0  0  0  0  0  0
    0.0000    1.0058    0.0000 C   0  0  0  0  0  0  0  0  0  0  0  0
    0.0000    0.0000    0.0000 C   0  0  0  0  0  0  0  0  0  0  0  0
    0.8680   -0.4978    0.0000 C   0  0  0  0  0  0  0  0  0  0  0  0
    1.7360   -0.0012    0.0000 C   0  0  0  0  0  0  0  0  0  0  0  0
    1.7360    1.0058    0.0000 C   0  0  0  0  0  0  0  0  0  0  0  0
    2.6938    1.3169    0.0000 N   0  0  0  0  0  0  0  0  0  0  0  0
    3.2858    0.5023    0.0000 C   0  0  0  0  0  0  0  0  0  0  0  0
    2.6938   -0.3125    0.0000 C   0  0  0  0  0  0  0  0  0  0  0  0
    3.0028   -1.2636    0.0000 C   0  0  0  0  0  0  0  0  0  0  0  0
    3.9809   -1.4715    0.0000 C   0  0  0  0  0  0  0  0  0  0  0  0
    4.2899   -2.4226    0.0000 N   0  0  0  0  0  0  0  0  0  0  0  0
    5.2680   -2.6306    0.0000 C   0  0  0  0  0  0  0  0  0  0  0  0
    5.9372   -1.8874    0.0000 O   0  0  0  0  0  0  0  0  0  0  0  0
    5.5770   -3.5816    0.0000 C   0  0  0  0  0  0  0  0  0  0  0  0
    6.5551   -3.7896    0.0000 S   0  0  0  0  0  0  0  0  0  0  0  0
    6.8641   -4.7407    0.0000 C   0  0  0  0  0  0  0  0  0  0  0  0
  1  2  1  0  0  0  0
  2  3  1  0  0  0  0
  3  8  2  0  0  0  0
  3  4  1  0  0  0  0
  4  5  2  0  0  0  0
  5  6  1  0  0  0  0
  6  7  2  0  0  0  0
  7 11  1  0  0  0  0
  7  8  1  0  0  0  0
  8  9  1  0  0  0  0
  9 10  1  0  0  0  0
 10 11  2  0  0  0  0
 11 12  1  0  0  0  0
 12 13  1  0  0  0  0
 13 14  1  0  0  0  0
 14 15  1  0  0  0  0
 15 16  2  0  0  0  0
 15 17  1  0  0  0  0
 17 18  1  0  0  0  0
 18 19  1  0  0  0  0
M  END
$$$$
s_22____15144084____60364
  -OEChem-03222016482D

 19 20  0     0  0  0  0  0  0999 V2000
    6.8641   -4.7407    0.0000 C   0  0  0  0  0  0  0  0  0  0  0  0
    6.5551   -3.7896    0.0000 S   0  0  0  0  0  0  0  0  0  0  0  0
    5.5770   -3.5816    0.0000 C   0  0  0  0  0  0  0  0  0  0  0  0
    5.2680   -2.6306    0.0000 C   0  0  0  0  0  0  0  0  0  0  0  0
    5.9372   -1.8874    0.0000 O   0  0  0  0  0  0  0  0  0  0  0  0
    4.2899   -2.4226    0.0000 N   0  0  0  0  0  0  0  0  0  0  0  0
    3.9809   -1.4715    0.0000 C   0  0  0  0  0  0  0  0  0  0  0  0
    3.0028   -1.2636    0.0000 C   0  0  0  0  0  0  0  0  0  0  0  0
    2.6938   -0.3125    0.0000 C   0  0  0  0  0  0  0  0  0  0  0  0
    3.2858    0.5023    0.0000 C   0  0  0  0  0  0  0  0  0  0  0  0
    2.6938    1.3169    0.0000 N   0  0  0  0  0  0  0  0  0  0  0  0
    1.7360    1.0058    0.0000 C   0  0  0  0  0  0  0  0  0  0  0  0
    1.7360   -0.0012    0.0000 C   0  0  0  0  0  0  0  0  0  0  0  0
    0.8680   -0.4978    0.0000 C   0  0  0  0  0  0  0  0  0  0  0  0
    0.0000    0.0000    0.0000 C   0  0  0  0  0  0  0  0  0  0  0  0
   -0.0000    1.0058    0.0000 C   0  0  0  0  0  0  0  0  0  0  0  0
    0.8680    1.5138    0.0000 C   0  0  0  0  0  0  0  0  0  0  0  0
   -0.8675    1.5032    0.0000 F   0  0  0  0  0  0  0  0  0  0  0  0
    0.8675   -1.4978    0.0000 F   0  0  0  0  0  0  0  0  0  0  0  0
  1  2  1  0  0  0  0
  2  3  1  0  0  0  0
  3  4  1  0  0  0  0
  4  5  2  0  0  0  0
  4  6  1  0  0  0  0
  6  7  1  0  0  0  0
  7  8  1  0  0  0  0
  8  9  1  0  0  0  0
  9 13  1  0  0  0  0
  9 10  2  0  0  0  0
 10 11  1  0  0  0  0
 11 12  1  0  0  0  0
 12 17  2  0  0  0  0
 12 13  1  0  0  0  0
 13 14  2  0  0  0  0
 14 15  1  0  0  0  0
 15 16  2  0  0  0  0
 16 17  1  0  0  0  0
 16 18  1  0  0  0  0
 14 19  1  0  0  0  0
M  END
$$$$
s_240690b____17027210____3025698
  -OEChem-03222016482D

 18 19  0     1  0  0  0  0  0999 V2000
    4.7859   -0.3637    0.0000 C   0  0  0  0  0  0  0  0  0  0  0  0
    4.2858    0.5023    0.0000 C   0  0  3  0  0  0  0  0  0  0  0  0
    3.2858    0.5022    0.0000 C   0  0  0  0  0  0  0  0  0  0  0  0
    2.6938   -0.3126    0.0000 N   0  0  0  0  0  0  0  0  0  0  0  0
    1.7360   -0.0013    0.0000 C   0  0  0  0  0  0  0  0  0  0  0  0
    0.8680   -0.4979    0.0000 C   0  0  0  0  0  0  0  0  0  0  0  0
    0.0000    0.0000    0.0000 C   0  0  0  0  0  0  0  0  0  0  0  0
    0.0000    1.0058    0.0000 C   0  0  0  0  0  0  0  0  0  0  0  0
    0.8680    1.5137    0.0000 C   0  0  0  0  0  0  0  0  0  0  0  0
    1.7360    1.0058    0.0000 C   0  0  0  0  0  0  0  0  0  0  0  0
    2.6938    1.3168    0.0000 N   0  0  0  0  0  0  0  0  0  0  0  0
   -0.8675    1.5033    0.0000 O   0  0  0  0  0  0  0  0  0  0  0  0
   -1.7320    1.0008    0.0000 C   0  0  0  0  0  0  0  0  0  0  0  0
    4.7857    1.3683    0.0000 N   0  0  0  0  0  0  0  0  0  0  0  0
    5.7857    1.3684    0.0000 C   0  0  0  0  0  0  0  0  0  0  0  0
    6.2858    0.5024    0.0000 O   0  0  0  0  0  0  0  0  0  0  0  0
    6.2857    2.2344    0.0000 C   0  0  0  0  0  0  0  0  0  0  0  0
    7.2857    2.2345    0.0000 N   0  3  0  0  0  0  0  0  0  0  0  0
  1  2  1  0  0  0  0
  2  3  1  0  0  0  0
  3 11  2  0  0  0  0
  3  4  1  0  0  0  0
  4  5  1  0  0  0  0
  5 10  2  0  0  0  0
  5  6  1  0  0  0  0
  6  7  2  0  0  0  0
  7  8  1  0  0  0  0
  8  9  2  0  0  0  0
  9 10  1  0  0  0  0
 10 11  1  0  0  0  0
  8 12  1  0  0  0  0
 12 13  1  0  0  0  0
  2 14  1  0  0  0  0
 14 15  1  0  0  0  0
 15 16  2  0  0  0  0
 15 17  1  0  0  0  0
 17 18  1  0  0  0  0
M  CHG  1  18   1
M  END
$$$$
s_22____13978824____12103014
  -OEChem-03222016482D

 19 20  0     0  0  0  0  0  0999 V2000
    6.8641   -4.7407    0.0000 C   0  0  0  0  0  0  0  0  0  0  0  0
    6.5551   -3.7896    0.0000 C   0  0  0  0  0  0  0  0  0  0  0  0
    5.5770   -3.5816    0.0000 C   0  0  0  0  0  0  0  0  0  0  0  0
    5.2680   -2.6306    0.0000 C   0  0  0  0  0  0  0  0  0  0  0  0
    5.9372   -1.8874    0.0000 O   0  0  0  0  0  0  0  0  0  0  0  0
    4.2899   -2.4226    0.0000 N   0  0  0  0  0  0  0  0  0  0  0  0
    3.9809   -1.4715    0.0000 C   0  0  0  0  0  0  0  0  0  0  0  0
    3.0028   -1.2636    0.0000 C   0  0  0  0  0  0  0  0  0  0  0  0
    2.6938   -0.3125    0.0000 C   0  0  0  0  0  0  0  0  0  0  0  0
    3.2858    0.5023    0.0000 C   0  0  0  0  0  0  0  0  0  0  0  0
    2.6938    1.3169    0.0000 N   0  0  0  0  0  0  0  0  0  0  0  0
    1.7360    1.0058    0.0000 C   0  0  0  0  0  0  0  0  0  0  0  0
    1.7360   -0.0012    0.0000 C   0  0  0  0  0  0  0  0  0  0  0  0
    0.8680   -0.4978    0.0000 C   0  0  0  0  0  0  0  0  0  0  0  0
    0.0000    0.0000    0.0000 C   0  0  0  0  0  0  0  0  0  0  0  0
   -0.0000    1.0058    0.0000 C   0  0  0  0  0  0  0  0  0  0  0  0
    0.8680    1.5138    0.0000 C   0  0  0  0  0  0  0  0  0  0  0  0
   -0.8675    1.5032    0.0000 O   0  0  0  0  0  0  0  0  0  0  0  0
   -1.7320    1.0007    0.0000 C   0  0  0  0  0  0  0  0  0  0  0  0
  1  2  1  0  0  0  0
  2  3  2  3  0  0  0
  3  4  1  0  0  0  0
  4  5  2  0  0  0  0
  4  6  1  0  0  0  0
  6  7  1  0  0  0  0
  7  8  1  0  0  0  0
  8  9  1  0  0  0  0
  9 13  1  0  0  0  0
  9 10  2  0  0  0  0
 10 11  1  0  0  0  0
 11 12  1  0  0  0  0
 12 17  2  0  0  0  0
 12 13  1  0  0  0  0
 13 14  2  0  0  0  0
 14 15  1  0  0  0  0
 15 16  2  0  0  0  0
 16 17  1  0  0  0  0
 16 18  1  0  0  0  0
 18 19  1  0  0  0  0
M  END
$$$$
s_273270____16380474____10884640
  -OEChem-03222016482D

 20 21  0     0  0  0  0  0  0999 V2000
    1.5905   -1.3375    0.0000 C   0  0  0  0  0  0  0  0  0  0  0  0
    2.3336   -2.0067    0.0000 C   0  0  0  0  0  0  0  0  0  0  0  0
    3.0767   -2.6759    0.0000 C   0  0  0  0  0  0  0  0  0  0  0  0
    3.0028   -1.2636    0.0000 C   0  0  0  0  0  0  0  0  0  0  0  0
    2.6938   -0.3125    0.0000 C   0  0  0  0  0  0  0  0  0  0  0  0
    3.2858    0.5023    0.0000 C   0  0  0  0  0  0  0  0  0  0  0  0
    2.6938    1.3169    0.0000 N   0  0  0  0  0  0  0  0  0  0  0  0
    1.7360    1.0058    0.0000 C   0  0  0  0  0  0  0  0  0  0  0  0
    1.7360   -0.0012    0.0000 C   0  0  0  0  0  0  0  0  0  0  0  0
    0.8680   -0.4978    0.0000 C   0  0  0  0  0  0  0  0  0  0  0  0
    0.0000    0.0000    0.0000 C   0  0  0  0  0  0  0  0  0  0  0  0
   -0.0000    1.0058    0.0000 C   0  0  0  0  0  0  0  0  0  0  0  0
    0.8680    1.5138    0.0000 C   0  0  0  0  0  0  0  0  0  0  0  0
   -0.8675    1.5032    0.0000 O   0  0  0  0  0  0  0  0  0  0  0  0
   -1.7320    1.0007    0.0000 C   0  0  0  0  0  0  0  0  0  0  0  0
    1.6644   -2.7498    0.0000 N   0  0  0  0  0  0  0  0  0  0  0  0
    1.9734   -3.7009    0.0000 C   0  0  0  0  0  0  0  0  0  0  0  0
    2.9515   -3.9088    0.0000 O   0  0  0  0  0  0  0  0  0  0  0  0
    1.3042   -4.4440    0.0000 C   0  0  0  0  0  0  0  0  0  0  0  0
    1.6132   -5.3951    0.0000 C   0  0  0  0  0  0  0  0  0  0  0  0
  1  2  1  0  0  0  0
  2  3  1  0  0  0  0
  2  4  1  0  0  0  0
  4  5  1  0  0  0  0
  5  9  1  0  0  0  0
  5  6  2  0  0  0  0
  6  7  1  0  0  0  0
  7  8  1  0  0  0  0
  8 13  2  0  0  0  0
  8  9  1  0  0  0  0
  9 10  2  0  0  0  0
 10 11  1  0  0  0  0
 11 12  2  0  0  0  0
 12 13  1  0  0  0  0
 12 14  1  0  0  0  0
 14 15  1  0  0  0  0
  2 16  1  0  0  0  0
 16 17  1  0  0  0  0
 17 18  2  0  0  0  0
 17 19  1  0  0  0  0
 19 20  2  0  0  0  0
M  END
$$$$
s_270004____10345658____16621896
  -OEChem-03222016482D

 19 20  0     1  0  0  0  0  0999 V2000
    4.7860   -2.0957    0.0000 C   0  0  0  0  0  0  0  0  0  0  0  0
    5.7860   -2.0956    0.0000 C   0  0  0  0  0  0  0  0  0  0  0  0
    6.2859   -1.2296    0.0000 C   0  0  3  0  0  0  0  0  0  0  0  0
    5.7859   -0.3636    0.0000 C   0  0  0  0  0  0  0  0  0  0  0  0
    4.7859   -0.3636    0.0000 N   0  3  0  0  0  0  0  0  0  0  0  0
    4.2858    0.5024    0.0000 C   0  0  0  0  0  0  0  0  0  0  0  0
    3.2858    0.5023    0.0000 C   0  0  0  0  0  0  0  0  0  0  0  0
    2.6938   -0.3125    0.0000 C   0  0  0  0  0  0  0  0  0  0  0  0
    1.7360   -0.0012    0.0000 C   0  0  0  0  0  0  0  0  0  0  0  0
    0.8680   -0.4978    0.0000 C   0  0  0  0  0  0  0  0  0  0  0  0
    0.0000    0.0000    0.0000 C   0  0  0  0  0  0  0  0  0  0  0  0
    0.0000    1.0058    0.0000 C   0  0  0  0  0  0  0  0  0  0  0  0
    0.8680    1.5138    0.0000 C   0  0  0  0  0  0  0  0  0  0  0  0
    1.7360    1.0058    0.0000 C   0  0  0  0  0  0  0  0  0  0  0  0
    2.6938    1.3169    0.0000 N   0  0  0  0  0  0  0  0  0  0  0  0
   -0.8653   -0.5013    0.0000 O   0  0  0  0  0  0  0  0  0  0  0  0
   -0.8639   -1.5013    0.0000 C   0  0  0  0  0  0  0  0  0  0  0  0
    7.2859   -1.2295    0.0000 O   0  0  0  0  0  0  0  0  0  0  0  0
    7.7859   -0.3635    0.0000 C   0  0  0  0  0  0  0  0  0  0  0  0
  1  2  1  0  0  0  0
  2  3  1  0  0  0  0
  3  4  1  0  0  0  0
  4  5  1  0  0  0  0
  5  6  1  0  0  0  0
  6  7  1  0  0  0  0
  7 15  1  0  0  0  0
  7  8  2  0  0  0  0
  8  9  1  0  0  0  0
  9 14  2  0  0  0  0
  9 10  1  0  0  0  0
 10 11  2  0  0  0  0
 11 12  1  0  0  0  0
 12 13  2  0  0  0  0
 13 14  1  0  0  0  0
 14 15  1  0  0  0  0
 11 16  1  0  0  0  0
 16 17  1  0  0  0  0
  3 18  1  0  0  0  0
 18 19  1  0  0  0  0
M  CHG  1   5   1
M  END
$$$$
s_512____2055224____4839458
  -OEChem-03222016482D

 21 22  0     0  0  0  0  0  0999 V2000
   -1.7320   -0.0025    0.0000 C   0  0  0  0  0  0  0  0  0  0  0  0
   -0.8653   -0.5013    0.0000 O   0  0  0  0  0  0  0  0  0  0  0  0
    0.0000    0.0000    0.0000 C   0  0  0  0  0  0  0  0  0  0  0  0
   -0.0000    1.0058    0.0000 C   0  0  0  0  0  0  0  0  0  0  0  0
    0.8680    1.5138    0.0000 C   0  0  0  0  0  0  0  0  0  0  0  0
    1.7360    1.0058    0.0000 C   0  0  0  0  0  0  0  0  0  0  0  0
    1.7360   -0.0012    0.0000 C   0  0  0  0  0  0  0  0  0  0  0  0
    0.8680   -0.4978    0.0000 C   0  0  0  0  0  0  0  0  0  0  0  0
    2.6938   -0.3125    0.0000 C   0  0  0  0  0  0  0  0  0  0  0  0
    3.2858    0.5023    0.0000 C   0  0  0  0  0  0  0  0  0  0  0  0
    2.6938    1.3169    0.0000 N   0  0  0  0  0  0  0  0  0  0  0  0
    3.0028   -1.2636    0.0000 C   0  0  0  0  0  0  0  0  0  0  0  0
    3.9809   -1.4715    0.0000 C   0  0  0  0  0  0  0  0  0  0  0  0
    4.2899   -2.4226    0.0000 N   0  0  0  0  0  0  0  0  0  0  0  0
    5.2680   -2.6306    0.0000 C   0  0  0  0  0  0  0  0  0  0  0  0
    5.9372   -1.8874    0.0000 O   0  0  0  0  0  0  0  0  0  0  0  0
    5.5770   -3.5816    0.0000 N   0  0  0  0  0  0  0  0  0  0  0  0
    6.5551   -3.7896    0.0000 C   0  0  0  0  0  0  0  0  0  0  0  0
    6.8641   -4.7407    0.0000 C   0  0  0  0  0  0  0  0  0  0  0  0
    6.1949   -5.4838    0.0000 C   0  0  0  0  0  0  0  0  0  0  0  0
    7.8422   -4.9486    0.0000 Br  0  0  0  0  0  0  0  0  0  0  0  0
  1  2  1  0  0  0  0
  2  3  1  0  0  0  0
  3  8  2  0  0  0  0
  3  4  1  0  0  0  0
  4  5  2  0  0  0  0
  5  6  1  0  0  0  0
  6 11  1  0  0  0  0
  6  7  2  0  0  0  0
  7  8  1  0  0  0  0
  7  9  1  0  0  0  0
  9 10  2  0  0  0  0
 10 11  1  0  0  0  0
  9 12  1  0  0  0  0
 12 13  1  0  0  0  0
 13 14  1  0  0  0  0
 14 15  1  0  0  0  0
 15 16  2  0  0  0  0
 15 17  1  0  0  0  0
 17 18  1  0  0  0  0
 18 19  1  0  0  0  0
 19 20  2  0  0  0  0
 19 21  1  0  0  0  0
M  END
$$$$
s_22____9226532____58844
  -OEChem-03222016482D

 18 19  0     0  0  0  0  0  0999 V2000
    1.7327   -2.9983    0.0000 C   0  0  0  0  0  0  0  0  0  0  0  0
    1.7332   -1.9983    0.0000 C   0  0  0  0  0  0  0  0  0  0  0  0
    0.8675   -1.4978    0.0000 O   0  0  0  0  0  0  0  0  0  0  0  0
    0.8680   -0.4978    0.0000 C   0  0  0  0  0  0  0  0  0  0  0  0
    0.0000    0.0000    0.0000 C   0  0  0  0  0  0  0  0  0  0  0  0
   -0.0000    1.0058    0.0000 C   0  0  0  0  0  0  0  0  0  0  0  0
    0.8680    1.5138    0.0000 C   0  0  0  0  0  0  0  0  0  0  0  0
    1.7360    1.0058    0.0000 C   0  0  0  0  0  0  0  0  0  0  0  0
    1.7360   -0.0012    0.0000 C   0  0  0  0  0  0  0  0  0  0  0  0
    2.6938   -0.3125    0.0000 C   0  0  0  0  0  0  0  0  0  0  0  0
    3.2858    0.5023    0.0000 C   0  0  0  0  0  0  0  0  0  0  0  0
    2.6938    1.3169    0.0000 N   0  0  0  0  0  0  0  0  0  0  0  0
    3.0028   -1.2636    0.0000 C   0  0  0  0  0  0  0  0  0  0  0  0
    3.9809   -1.4715    0.0000 C   0  0  0  0  0  0  0  0  0  0  0  0
    4.2899   -2.4226    0.0000 N   0  0  0  0  0  0  0  0  0  0  0  0
    5.2680   -2.6306    0.0000 C   0  0  0  0  0  0  0  0  0  0  0  0
    5.9372   -1.8874    0.0000 O   0  0  0  0  0  0  0  0  0  0  0  0
    5.5770   -3.5816    0.0000 C   0  0  0  0  0  0  0  0  0  0  0  0
  1  2  1  0  0  0  0
  2  3  1  0  0  0  0
  3  4  1  0  0  0  0
  4  9  2  0  0  0  0
  4  5  1  0  0  0  0
  5  6  2  0  0  0  0
  6  7  1  0  0  0  0
  7  8  2  0  0  0  0
  8 12  1  0  0  0  0
  8  9  1  0  0  0  0
  9 10  1  0  0  0  0
 10 11  2  0  0  0  0
 11 12  1  0  0  0  0
 10 13  1  0  0  0  0
 13 14  1  0  0  0  0
 14 15  1  0  0  0  0
 15 16  1  0  0  0  0
 16 17  2  0  0  0  0
 16 18  1  0  0  0  0
M  END
$$$$
s_2708____4839472____8739002
  -OEChem-03222016482D

 20 21  0     0  0  0  0  0  0999 V2000
    4.9078   -4.3247    0.0000 C   0  0  0  0  0  0  0  0  0  0  0  0
    5.5770   -3.5816    0.0000 N   0  0  0  0  0  0  0  0  0  0  0  0
    5.2680   -2.6306    0.0000 C   0  0  0  0  0  0  0  0  0  0  0  0
    5.9372   -1.8874    0.0000 O   0  0  0  0  0  0  0  0  0  0  0  0
    4.2899   -2.4226    0.0000 N   0  0  0  0  0  0  0  0  0  0  0  0
    3.9809   -1.4715    0.0000 C   0  0  0  0  0  0  0  0  0  0  0  0
    3.0028   -1.2636    0.0000 C   0  0  0  0  0  0  0  0  0  0  0  0
    2.6938   -0.3125    0.0000 C   0  0  0  0  0  0  0  0  0  0  0  0
    3.2858    0.5023    0.0000 C   0  0  0  0  0  0  0  0  0  0  0  0
    2.6938    1.3169    0.0000 N   0  0  0  0  0  0  0  0  0  0  0  0
    1.7360    1.0058    0.0000 C   0  0  0  0  0  0  0  0  0  0  0  0
    1.7360   -0.0012    0.0000 C   0  0  0  0  0  0  0  0  0  0  0  0
    0.8680   -0.4978    0.0000 C   0  0  0  0  0  0  0  0  0  0  0  0
    0.0000    0.0000    0.0000 C   0  0  0  0  0  0  0  0  0  0  0  0
   -0.0000    1.0058    0.0000 C   0  0  0  0  0  0  0  0  0  0  0  0
    0.8680    1.5138    0.0000 C   0  0  0  0  0  0  0  0  0  0  0  0
   -0.8653   -0.5013    0.0000 O   0  0  0  0  0  0  0  0  0  0  0  0
   -0.8639   -1.5013    0.0000 C   0  0  0  0  0  0  0  0  0  0  0  0
    6.5551   -3.7896    0.0000 O   0  0  0  0  0  0  0  0  0  0  0  0
    6.8641   -4.7407    0.0000 C   0  0  0  0  0  0  0  0  0  0  0  0
  1  2  1  0  0  0  0
  2  3  1  0  0  0  0
  3  4  2  0  0  0  0
  3  5  1  0  0  0  0
  5  6  1  0  0  0  0
  6  7  1  0  0  0  0
  7  8  1  0  0  0  0
  8 12  1  0  0  0  0
  8  9  2  0  0  0  0
  9 10  1  0  0  0  0
 10 11  1  0  0  0  0
 11 16  2  0  0  0  0
 11 12  1  0  0  0  0
 12 13  2  0  0  0  0
 13 14  1  0  0  0  0
 14 15  2  0  0  0  0
 15 16  1  0  0  0  0
 14 17  1  0  0  0  0
 17 18  1  0  0  0  0
  2 19  1  0  0  0  0
 19 20  1  0  0  0  0
M  END
$$$$
s_272164____14971800____17341378
  -OEChem-03222016482D

 23 24  0     0  0  0  0  0  0999 V2000
   -3.4641   -0.0050    0.0000 C   0  0  0  0  0  0  0  0  0  0  0  0
   -2.5974   -0.5038    0.0000 C   0  0  0  0  0  0  0  0  0  0  0  0
   -1.7320   -0.0025    0.0000 C   0  0  0  0  0  0  0  0  0  0  0  0
   -0.8653   -0.5013    0.0000 O   0  0  0  0  0  0  0  0  0  0  0  0
    0.0000    0.0000    0.0000 C   0  0  0  0  0  0  0  0  0  0  0  0
   -0.0000    1.0058    0.0000 C   0  0  0  0  0  0  0  0  0  0  0  0
    0.8680    1.5138    0.0000 C   0  0  0  0  0  0  0  0  0  0  0  0
    1.7360    1.0058    0.0000 C   0  0  0  0  0  0  0  0  0  0  0  0
    1.7360   -0.0012    0.0000 C   0  0  0  0  0  0  0  0  0  0  0  0
    0.8680   -0.4978    0.0000 C   0  0  0  0  0  0  0  0  0  0  0  0
    2.6938   -0.3125    0.0000 C   0  0  0  0  0  0  0  0  0  0  0  0
    3.2858    0.5023    0.0000 C   0  0  0  0  0  0  0  0  0  0  0  0
    2.6938    1.3169    0.0000 N   0  0  0  0  0  0  0  0  0  0  0  0
    3.0028   -1.2636    0.0000 C   0  0  0  0  0  0  0  0  0  0  0  0
    3.9809   -1.4715    0.0000 C   0  0  0  0  0  0  0  0  0  0  0  0
    4.2899   -2.4226    0.0000 N   0  0  0  0  0  0  0  0  0  0  0  0
    5.2680   -2.6306    0.0000 C   0  0  0  0  0  0  0  0  0  0  0  0
    5.9372   -1.8874    0.0000 O   0  0  0  0  0  0  0  0  0  0  0  0
    5.5770   -3.5816    0.0000 N   0  0  0  0  0  0  0  0  0  0  0  0
    4.9078   -4.3247    0.0000 C   0  0  0  0  0  0  0  0  0  0  0  0
    6.5551   -3.7896    0.0000 C   0  0  0  0  0  0  0  0  0  0  0  0
    6.8641   -4.7407    0.0000 C   0  0  0  0  0  0  0  0  0  0  0  0
    7.1731   -5.6917    0.0000 N   0  0  0  0  0  0  0  0  0  0  0  0
  1  2  1  0  0  0  0
  2  3  1  0  0  0  0
  3  4  1  0  0  0  0
  4  5  1  0  0  0  0
  5 10  2  0  0  0  0
  5  6  1  0  0  0  0
  6  7  2  0  0  0  0
  7  8  1  0  0  0  0
  8 13  1  0  0  0  0
  8  9  2  0  0  0  0
  9 10  1  0  0  0  0
  9 11  1  0  0  0  0
 11 12  2  0  0  0  0
 12 13  1  0  0  0  0
 11 14  1  0  0  0  0
 14 15  1  0  0  0  0
 15 16  1  0  0  0  0
 16 17  1  0  0  0  0
 17 18  2  0  0  0  0
 17 19  1  0  0  0  0
 19 20  1  0  0  0  0
 19 21  1  0  0  0  0
 21 22  1  0  0  0  0
 22 23  3  0  0  0  0
M  END
$$$$
s_270004____8288600____15269820
  -OEChem-03222016482D

 17 18  0     0  0  0  0  0  0999 V2000
    7.7860   -2.0955    0.0000 C   0  0  0  0  0  0  0  0  0  0  0  0
    7.2859   -1.2295    0.0000 O   0  0  0  0  0  0  0  0  0  0  0  0
    6.2859   -1.2296    0.0000 C   0  0  0  0  0  0  0  0  0  0  0  0
    5.7859   -0.3636    0.0000 C   0  0  0  0  0  0  0  0  0  0  0  0
    4.7859   -0.3636    0.0000 N   0  3  0  0  0  0  0  0  0  0  0  0
    4.2858    0.5024    0.0000 C   0  0  0  0  0  0  0  0  0  0  0  0
    3.2858    0.5023    0.0000 C   0  0  0  0  0  0  0  0  0  0  0  0
    2.6938   -0.3125    0.0000 C   0  0  0  0  0  0  0  0  0  0  0  0
    1.7360   -0.0012    0.0000 C   0  0  0  0  0  0  0  0  0  0  0  0
    1.7360    1.0058    0.0000 C   0  0  0  0  0  0  0  0  0  0  0  0
    2.6938    1.3169    0.0000 N   0  0  0  0  0  0  0  0  0  0  0  0
    0.8680    1.5138    0.0000 C   0  0  0  0  0  0  0  0  0  0  0  0
    0.0000    1.0058    0.0000 C   0  0  0  0  0  0  0  0  0  0  0  0
    0.0000    0.0000    0.0000 C   0  0  0  0  0  0  0  0  0  0  0  0
    0.8680   -0.4978    0.0000 C   0  0  0  0  0  0  0  0  0  0  0  0
    0.8675   -1.4978    0.0000 O   0  0  0  0  0  0  0  0  0  0  0  0
    1.7332   -1.9983    0.0000 C   0  0  0  0  0  0  0  0  0  0  0  0
  1  2  1  0  0  0  0
  2  3  1  0  0  0  0
  3  4  1  0  0  0  0
  4  5  1  0  0  0  0
  5  6  1  0  0  0  0
  6  7  1  0  0  0  0
  7 11  1  0  0  0  0
  7  8  2  0  0  0  0
  8  9  1  0  0  0  0
  9 15  2  0  0  0  0
  9 10  1  0  0  0  0
 10 11  1  0  0  0  0
 10 12  2  0  0  0  0
 12 13  1  0  0  0  0
 13 14  2  0  0  0  0
 14 15  1  0  0  0  0
 15 16  1  0  0  0  0
 16 17  1  0  0  0  0
M  CHG  1   5   1
M  END
$$$$
s_22____3219394____337030
  -OEChem-03222016482D

 18 19  0     0  0  0  0  0  0999 V2000
    0.8675   -1.4978    0.0000 C   0  0  0  0  0  0  0  0  0  0  0  0
    0.8680   -0.4978    0.0000 C   0  0  0  0  0  0  0  0  0  0  0  0
    0.0000    0.0000    0.0000 C   0  0  0  0  0  0  0  0  0  0  0  0
   -0.0000    1.0058    0.0000 C   0  0  0  0  0  0  0  0  0  0  0  0
    0.8680    1.5138    0.0000 C   0  0  0  0  0  0  0  0  0  0  0  0
    1.7360    1.0058    0.0000 C   0  0  0  0  0  0  0  0  0  0  0  0
    1.7360   -0.0012    0.0000 C   0  0  0  0  0  0  0  0  0  0  0  0
    2.6938   -0.3125    0.0000 C   0  0  0  0  0  0  0  0  0  0  0  0
    3.2858    0.5023    0.0000 C   0  0  0  0  0  0  0  0  0  0  0  0
    2.6938    1.3169    0.0000 N   0  0  0  0  0  0  0  0  0  0  0  0
    3.0028   -1.2636    0.0000 C   0  0  0  0  0  0  0  0  0  0  0  0
    3.9809   -1.4715    0.0000 C   0  0  0  0  0  0  0  0  0  0  0  0
    4.2899   -2.4226    0.0000 N   0  0  0  0  0  0  0  0  0  0  0  0
    5.2680   -2.6306    0.0000 C   0  0  0  0  0  0  0  0  0  0  0  0
    5.9372   -1.8874    0.0000 O   0  0  0  0  0  0  0  0  0  0  0  0
    5.5770   -3.5816    0.0000 C   0  0  0  0  0  0  0  0  0  0  0  0
    6.5551   -3.7896    0.0000 C   0  0  0  0  0  0  0  0  0  0  0  0
    4.9078   -4.3247    0.0000 C   0  0  0  0  0  0  0  0  0  0  0  0
  1  2  1  0  0  0  0
  2  7  2  0  0  0  0
  2  3  1  0  0  0  0
  3  4  2  0  0  0  0
  4  5  1  0  0  0  0
  5  6  2  0  0  0  0
  6 10  1  0  0  0  0
  6  7  1  0  0  0  0
  7  8  1  0  0  0  0
  8  9  2  0  0  0  0
  9 10  1  0  0  0  0
  8 11  1  0  0  0  0
 11 12  1  0  0  0  0
 12 13  1  0  0  0  0
 13 14  1  0  0  0  0
 14 15  2  0  0  0  0
 14 16  1  0  0  0  0
 16 17  1  0  0  0  0
 16 18  1  0  0  0  0
M  END
$$$$
s_22____9156166____58866
  -OEChem-03222016482D

 18 19  0     0  0  0  0  0  0999 V2000
    6.8641   -4.7407    0.0000 C   0  0  0  0  0  0  0  0  0  0  0  0
    6.5551   -3.7896    0.0000 C   0  0  0  0  0  0  0  0  0  0  0  0
    5.5770   -3.5816    0.0000 C   0  0  0  0  0  0  0  0  0  0  0  0
    5.2680   -2.6306    0.0000 C   0  0  0  0  0  0  0  0  0  0  0  0
    5.9372   -1.8874    0.0000 O   0  0  0  0  0  0  0  0  0  0  0  0
    4.2899   -2.4226    0.0000 N   0  0  0  0  0  0  0  0  0  0  0  0
    3.9809   -1.4715    0.0000 C   0  0  0  0  0  0  0  0  0  0  0  0
    3.0028   -1.2636    0.0000 C   0  0  0  0  0  0  0  0  0  0  0  0
    2.6938   -0.3125    0.0000 C   0  0  0  0  0  0  0  0  0  0  0  0
    3.2858    0.5023    0.0000 C   0  0  0  0  0  0  0  0  0  0  0  0
    2.6938    1.3169    0.0000 N   0  0  0  0  0  0  0  0  0  0  0  0
    1.7360    1.0058    0.0000 C   0  0  0  0  0  0  0  0  0  0  0  0
    1.7360   -0.0012    0.0000 C   0  0  0  0  0  0  0  0  0  0  0  0
    0.8680   -0.4978    0.0000 C   0  0  0  0  0  0  0  0  0  0  0  0
    0.0000    0.0000    0.0000 C   0  0  0  0  0  0  0  0  0  0  0  0
   -0.0000    1.0058    0.0000 C   0  0  0  0  0  0  0  0  0  0  0  0
    0.8680    1.5138    0.0000 C   0  0  0  0  0  0  0  0  0  0  0  0
   -0.8675    1.5032    0.0000 C   0  0  0  0  0  0  0  0  0  0  0  0
  1  2  1  0  0  0  0
  2  3  1  0  0  0  0
  3  4  1  0  0  0  0
  4  5  2  0  0  0  0
  4  6  1  0  0  0  0
  6  7  1  0  0  0  0
  7  8  1  0  0  0  0
  8  9  1  0  0  0  0
  9 13  1  0  0  0  0
  9 10  2  0  0  0  0
 10 11  1  0  0  0  0
 11 12  1  0  0  0  0
 12 17  2  0  0  0  0
 12 13  1  0  0  0  0
 13 14  2  0  0  0  0
 14 15  1  0  0  0  0
 15 16  2  0  0  0  0
 16 17  1  0  0  0  0
 16 18  1  0  0  0  0
M  END
$$$$
s_8____13025512____83693
  -OEChem-03222016482D

 18 19  0     0  0  0  0  0  0999 V2000
    6.5551   -3.7896    0.0000 C   0  0  0  0  0  0  0  0  0  0  0  0
    5.5770   -3.5816    0.0000 N   0  0  0  0  0  0  0  0  0  0  0  0
    5.2680   -2.6306    0.0000 C   0  0  0  0  0  0  0  0  0  0  0  0
    5.9372   -1.8874    0.0000 S   0  0  0  0  0  0  0  0  0  0  0  0
    4.2899   -2.4226    0.0000 N   0  0  0  0  0  0  0  0  0  0  0  0
    3.9809   -1.4715    0.0000 C   0  0  0  0  0  0  0  0  0  0  0  0
    3.0028   -1.2636    0.0000 C   0  0  0  0  0  0  0  0  0  0  0  0
    2.6938   -0.3125    0.0000 C   0  0  0  0  0  0  0  0  0  0  0  0
    3.2858    0.5023    0.0000 C   0  0  0  0  0  0  0  0  0  0  0  0
    2.6938    1.3169    0.0000 N   0  0  0  0  0  0  0  0  0  0  0  0
    1.7360    1.0058    0.0000 C   0  0  0  0  0  0  0  0  0  0  0  0
    1.7360   -0.0012    0.0000 C   0  0  0  0  0  0  0  0  0  0  0  0
    0.8680   -0.4978    0.0000 C   0  0  0  0  0  0  0  0  0  0  0  0
    0.0000    0.0000    0.0000 C   0  0  0  0  0  0  0  0  0  0  0  0
   -0.0000    1.0058    0.0000 C   0  0  0  0  0  0  0  0  0  0  0  0
    0.8680    1.5138    0.0000 C   0  0  0  0  0  0  0  0  0  0  0  0
    0.8675   -1.4978    0.0000 O   0  0  0  0  0  0  0  0  0  0  0  0
    1.7332   -1.9983    0.0000 C   0  0  0  0  0  0  0  0  0  0  0  0
  1  2  1  0  0  0  0
  2  3  1  0  0  0  0
  3  4  2  0  0  0  0
  3  5  1  0  0  0  0
  5  6  1  0  0  0  0
  6  7  1  0  0  0  0
  7  8  1  0  0  0  0
  8 12  1  0  0  0  0
  8  9  2  0  0  0  0
  9 10  1  0  0  0  0
 10 11  1  0  0  0  0
 11 16  2  0  0  0  0
 11 12  1  0  0  0  0
 12 13  2  0  0  0  0
 13 14  1  0  0  0  0
 14 15  2  0  0  0  0
 15 16  1  0  0  0  0
 13 17  1  0  0  0  0
 17 18  1  0  0  0  0
M  END
$$$$
s_240690b____7354388____7368602
  -OEChem-03222016482D

 20 21  0     1  0  0  0  0  0999 V2000
    0.6351   -5.1871    0.0000 C   0  0  0  0  0  0  0  0  0  0  0  0
    1.6132   -5.3951    0.0000 C   0  0  3  0  0  0  0  0  0  0  0  0
    2.2824   -4.6519    0.0000 C   0  0  0  0  0  0  0  0  0  0  0  0
    1.9734   -3.7009    0.0000 C   0  0  0  0  0  0  0  0  0  0  0  0
    0.9953   -3.4929    0.0000 O   0  0  0  0  0  0  0  0  0  0  0  0
    2.6426   -2.9578    0.0000 N   0  0  0  0  0  0  0  0  0  0  0  0
    2.3336   -2.0067    0.0000 C   0  0  0  0  0  0  0  0  0  0  0  0
    3.0028   -1.2636    0.0000 C   0  0  0  0  0  0  0  0  0  0  0  0
    2.6938   -0.3125    0.0000 C   0  0  0  0  0  0  0  0  0  0  0  0
    3.2858    0.5023    0.0000 C   0  0  0  0  0  0  0  0  0  0  0  0
    2.6938    1.3169    0.0000 N   0  0  0  0  0  0  0  0  0  0  0  0
    1.7360    1.0058    0.0000 C   0  0  0  0  0  0  0  0  0  0  0  0
    1.7360   -0.0012    0.0000 C   0  0  0  0  0  0  0  0  0  0  0  0
    0.8680   -0.4978    0.0000 C   0  0  0  0  0  0  0  0  0  0  0  0
    0.0000    0.0000    0.0000 C   0  0  0  0  0  0  0  0  0  0  0  0
   -0.0000    1.0058    0.0000 C   0  0  0  0  0  0  0  0  0  0  0  0
    0.8680    1.5138    0.0000 C   0  0  0  0  0  0  0  0  0  0  0  0
   -0.8653   -0.5013    0.0000 O   0  0  0  0  0  0  0  0  0  0  0  0
   -0.8639   -1.5013    0.0000 C   0  0  0  0  0  0  0  0  0  0  0  0
    1.9222   -6.3461    0.0000 N   0  3  0  0  0  0  0  0  0  0  0  0
  1  2  1  0  0  0  0
  2  3  1  0  0  0  0
  3  4  1  0  0  0  0
  4  5  2  0  0  0  0
  4  6  1  0  0  0  0
  6  7  1  0  0  0  0
  7  8  1  0  0  0  0
  8  9  1  0  0  0  0
  9 13  1  0  0  0  0
  9 10  2  0  0  0  0
 10 11  1  0  0  0  0
 11 12  1  0  0  0  0
 12 17  2  0  0  0  0
 12 13  1  0  0  0  0
 13 14  2  0  0  0  0
 14 15  1  0  0  0  0
 15 16  2  0  0  0  0
 16 17  1  0  0  0  0
 15 18  1  0  0  0  0
 18 19  1  0  0  0  0
  2 20  1  0  0  0  0
M  CHG  1  20   1
M  END
$$$$
s_22____15754586____8794444
  -OEChem-03222016482D

 20 21  0     1  0  0  0  0  0999 V2000
    3.9809   -1.4715    0.0000 C   0  0  0  0  0  0  0  0  0  0  0  0
    3.0028   -1.2636    0.0000 C   0  0  3  0  0  0  0  0  0  0  0  0
    2.3336   -2.0067    0.0000 C   0  0  0  0  0  0  0  0  0  0  0  0
    2.6426   -2.9578    0.0000 N   0  0  0  0  0  0  0  0  0  0  0  0
    1.9734   -3.7009    0.0000 C   0  0  0  0  0  0  0  0  0  0  0  0
    0.9953   -3.4929    0.0000 O   0  0  0  0  0  0  0  0  0  0  0  0
    2.2824   -4.6519    0.0000 C   0  0  0  0  0  0  0  0  0  0  0  0
    1.6132   -5.3951    0.0000 C   0  0  0  0  0  0  0  0  0  0  0  0
    0.9440   -6.1382    0.0000 N   0  0  0  0  0  0  0  0  0  0  0  0
    2.6938   -0.3125    0.0000 C   0  0  0  0  0  0  0  0  0  0  0  0
    3.2858    0.5023    0.0000 C   0  0  0  0  0  0  0  0  0  0  0  0
    2.6938    1.3169    0.0000 N   0  0  0  0  0  0  0  0  0  0  0  0
    1.7360    1.0058    0.0000 C   0  0  0  0  0  0  0  0  0  0  0  0
    1.7360   -0.0012    0.0000 C   0  0  0  0  0  0  0  0  0  0  0  0
    0.8680   -0.4978    0.0000 C   0  0  0  0  0  0  0  0  0  0  0  0
    0.0000    0.0000    0.0000 C   0  0  0  0  0  0  0  0  0  0  0  0
   -0.0000    1.0058    0.0000 C   0  0  0  0  0  0  0  0  0  0  0  0
    0.8680    1.5138    0.0000 C   0  0  0  0  0  0  0  0  0  0  0  0
   -0.8653   -0.5013    0.0000 O   0  0  0  0  0  0  0  0  0  0  0  0
   -0.8639   -1.5013    0.0000 C   0  0  0  0  0  0  0  0  0  0  0  0
  1  2  1  0  0  0  0
  2  3  1  0  0  0  0
  3  4  1  0  0  0  0
  4  5  1  0  0  0  0
  5  6  2  0  0  0  0
  5  7  1  0  0  0  0
  7  8  1  0  0  0  0
  8  9  3  0  0  0  0
  2 10  1  0  0  0  0
 10 14  1  0  0  0  0
 10 11  2  0  0  0  0
 11 12  1  0  0  0  0
 12 13  1  0  0  0  0
 13 18  2  0  0  0  0
 13 14  1  0  0  0  0
 14 15  2  0  0  0  0
 15 16  1  0  0  0  0
 16 17  2  0  0  0  0
 17 18  1  0  0  0  0
 16 19  1  0  0  0  0
 19 20  1  0  0  0  0
M  END
$$$$
s_22____10303762____337030
  -OEChem-03222016482D

 18 19  0     0  0  0  0  0  0999 V2000
    6.5551   -3.7896    0.0000 C   0  0  0  0  0  0  0  0  0  0  0  0
    5.5770   -3.5816    0.0000 C   0  0  0  0  0  0  0  0  0  0  0  0
    4.9078   -4.3247    0.0000 C   0  0  0  0  0  0  0  0  0  0  0  0
    5.2680   -2.6306    0.0000 C   0  0  0  0  0  0  0  0  0  0  0  0
    5.9372   -1.8874    0.0000 O   0  0  0  0  0  0  0  0  0  0  0  0
    4.2899   -2.4226    0.0000 N   0  0  0  0  0  0  0  0  0  0  0  0
    3.9809   -1.4715    0.0000 C   0  0  0  0  0  0  0  0  0  0  0  0
    3.0028   -1.2636    0.0000 C   0  0  0  0  0  0  0  0  0  0  0  0
    2.6938   -0.3125    0.0000 C   0  0  0  0  0  0  0  0  0  0  0  0
    3.2858    0.5023    0.0000 C   0  0  0  0  0  0  0  0  0  0  0  0
    2.6938    1.3169    0.0000 N   0  0  0  0  0  0  0  0  0  0  0  0
    1.7360    1.0058    0.0000 C   0  0  0  0  0  0  0  0  0  0  0  0
    1.7360   -0.0012    0.0000 C   0  0  0  0  0  0  0  0  0  0  0  0
    0.8680   -0.4978    0.0000 C   0  0  0  0  0  0  0  0  0  0  0  0
    0.0000    0.0000    0.0000 C   0  0  0  0  0  0  0  0  0  0  0  0
   -0.0000    1.0058    0.0000 C   0  0  0  0  0  0  0  0  0  0  0  0
    0.8680    1.5138    0.0000 C   0  0  0  0  0  0  0  0  0  0  0  0
    0.8675   -1.4978    0.0000 Br  0  0  0  0  0  0  0  0  0  0  0  0
  1  2  1  0  0  0  0
  2  3  1  0  0  0  0
  2  4  1  0  0  0  0
  4  5  2  0  0  0  0
  4  6  1  0  0  0  0
  6  7  1  0  0  0  0
  7  8  1  0  0  0  0
  8  9  1  0  0  0  0
  9 13  1  0  0  0  0
  9 10  2  0  0  0  0
 10 11  1  0  0  0  0
 11 12  1  0  0  0  0
 12 17  2  0  0  0  0
 12 13  1  0  0  0  0
 13 14  2  0  0  0  0
 14 15  1  0  0  0  0
 15 16  2  0  0  0  0
 16 17  1  0  0  0  0
 14 18  1  0  0  0  0
M  END
$$$$
s_22____15162148____58844
  -OEChem-03222016482D

 14 15  0     0  0  0  0  0  0999 V2000
    6.2859   -2.2355    0.0000 C   0  0  0  0  0  0  0  0  0  0  0  0
    5.7859   -1.3695    0.0000 C   0  0  0  0  0  0  0  0  0  0  0  0
    6.2858   -0.5034    0.0000 O   0  0  0  0  0  0  0  0  0  0  0  0
    4.7859   -1.3695    0.0000 N   0  0  0  0  0  0  0  0  0  0  0  0
    4.2858   -0.5035    0.0000 C   0  0  0  0  0  0  0  0  0  0  0  0
    3.2858   -0.5036    0.0000 C   0  0  0  0  0  0  0  0  0  0  0  0
    2.6938   -1.3184    0.0000 C   0  0  0  0  0  0  0  0  0  0  0  0
    1.7360   -1.0071    0.0000 C   0  0  0  0  0  0  0  0  0  0  0  0
    1.7360   -0.0000    0.0000 C   0  0  0  0  0  0  0  0  0  0  0  0
    2.6938    0.3110    0.0000 N   0  0  0  0  0  0  0  0  0  0  0  0
    0.8680    0.5079    0.0000 C   0  0  0  0  0  0  0  0  0  0  0  0
    0.0000    0.0000    0.0000 C   0  0  0  0  0  0  0  0  0  0  0  0
    0.0000   -1.0058    0.0000 C   0  0  0  0  0  0  0  0  0  0  0  0
    0.8680   -1.5037    0.0000 N   0  0  0  0  0  0  0  0  0  0  0  0
  1  2  1  0  0  0  0
  2  3  2  0  0  0  0
  2  4  1  0  0  0  0
  4  5  1  0  0  0  0
  5  6  1  0  0  0  0
  6 10  1  0  0  0  0
  6  7  2  0  0  0  0
  7  8  1  0  0  0  0
  8 14  2  0  0  0  0
  8  9  1  0  0  0  0
  9 10  1  0  0  0  0
  9 11  2  0  0  0  0
 11 12  1  0  0  0  0
 12 13  2  0  0  0  0
 13 14  1  0  0  0  0
M  END
$$$$
s_22____4839448____9156240
  -OEChem-03222016482D

 21 22  0     1  0  0  0  0  0999 V2000
    1.9222   -6.3461    0.0000 C   0  0  0  0  0  0  0  0  0  0  0  0
    1.6132   -5.3951    0.0000 C   0  0  0  0  0  0  0  0  0  0  0  0
    0.6351   -5.1871    0.0000 C   0  0  0  0  0  0  0  0  0  0  0  0
    2.2824   -4.6519    0.0000 C   0  0  3  0  0  0  0  0  0  0  0  0
    1.9734   -3.7009    0.0000 C   0  0  0  0  0  0  0  0  0  0  0  0
    0.9953   -3.4929    0.0000 O   0  0  0  0  0  0  0  0  0  0  0  0
    2.6426   -2.9578    0.0000 N   0  0  0  0  0  0  0  0  0  0  0  0
    2.3336   -2.0067    0.0000 C   0  0  0  0  0  0  0  0  0  0  0  0
    3.0028   -1.2636    0.0000 C   0  0  0  0  0  0  0  0  0  0  0  0
    2.6938   -0.3125    0.0000 C   0  0  0  0  0  0  0  0  0  0  0  0
    3.2858    0.5023    0.0000 C   0  0  0  0  0  0  0  0  0  0  0  0
    2.6938    1.3169    0.0000 N   0  0  0  0  0  0  0  0  0  0  0  0
    1.7360    1.0058    0.0000 C   0  0  0  0  0  0  0  0  0  0  0  0
    1.7360   -0.0012    0.0000 C   0  0  0  0  0  0  0  0  0  0  0  0
    0.8680   -0.4978    0.0000 C   0  0  0  0  0  0  0  0  0  0  0  0
    0.0000    0.0000    0.0000 C   0  0  0  0  0  0  0  0  0  0  0  0
   -0.0000    1.0058    0.0000 C   0  0  0  0  0  0  0  0  0  0  0  0
    0.8680    1.5138    0.0000 C   0  0  0  0  0  0  0  0  0  0  0  0
   -0.8653   -0.5013    0.0000 O   0  0  0  0  0  0  0  0  0  0  0  0
   -0.8639   -1.5013    0.0000 C   0  0  0  0  0  0  0  0  0  0  0  0
    3.2605   -4.8599    0.0000 F   0  0  0  0  0  0  0  0  0  0  0  0
  1  2  1  0  0  0  0
  2  3  1  0  0  0  0
  2  4  1  0  0  0  0
  4  5  1  0  0  0  0
  5  6  2  0  0  0  0
  5  7  1  0  0  0  0
  7  8  1  0  0  0  0
  8  9  1  0  0  0  0
  9 10  1  0  0  0  0
 10 14  1  0  0  0  0
 10 11  2  0  0  0  0
 11 12  1  0  0  0  0
 12 13  1  0  0  0  0
 13 18  2  0  0  0  0
 13 14  1  0  0  0  0
 14 15  2  0  0  0  0
 15 16  1  0  0  0  0
 16 17  2  0  0  0  0
 17 18  1  0  0  0  0
 16 19  1  0  0  0  0
 19 20  1  0  0  0  0
  4 21  1  0  0  0  0
M  END
$$$$
s_22____4839448____16520644
  -OEChem-03222016482D

 21 22  0     1  0  0  0  0  0999 V2000
    0.6351   -5.1871    0.0000 C   0  0  0  0  0  0  0  0  0  0  0  0
    1.6132   -5.3951    0.0000 C   0  0  3  0  0  0  0  0  0  0  0  0
    2.2824   -4.6519    0.0000 C   0  0  0  0  0  0  0  0  0  0  0  0
    1.9734   -3.7009    0.0000 C   0  0  0  0  0  0  0  0  0  0  0  0
    0.9953   -3.4929    0.0000 O   0  0  0  0  0  0  0  0  0  0  0  0
    2.6426   -2.9578    0.0000 N   0  0  0  0  0  0  0  0  0  0  0  0
    2.3336   -2.0067    0.0000 C   0  0  0  0  0  0  0  0  0  0  0  0
    3.0028   -1.2636    0.0000 C   0  0  0  0  0  0  0  0  0  0  0  0
    2.6938   -0.3125    0.0000 C   0  0  0  0  0  0  0  0  0  0  0  0
    3.2858    0.5023    0.0000 C   0  0  0  0  0  0  0  0  0  0  0  0
    2.6938    1.3169    0.0000 N   0  0  0  0  0  0  0  0  0  0  0  0
    1.7360    1.0058    0.0000 C   0  0  0  0  0  0  0  0  0  0  0  0
    1.7360   -0.0012    0.0000 C   0  0  0  0  0  0  0  0  0  0  0  0
    0.8680   -0.4978    0.0000 C   0  0  0  0  0  0  0  0  0  0  0  0
    0.0000    0.0000    0.0000 C   0  0  0  0  0  0  0  0  0  0  0  0
   -0.0000    1.0058    0.0000 C   0  0  0  0  0  0  0  0  0  0  0  0
    0.8680    1.5138    0.0000 C   0  0  0  0  0  0  0  0  0  0  0  0
   -0.8653   -0.5013    0.0000 O   0  0  0  0  0  0  0  0  0  0  0  0
   -0.8639   -1.5013    0.0000 C   0  0  0  0  0  0  0  0  0  0  0  0
    1.9222   -6.3461    0.0000 C   0  0  0  0  0  0  0  0  0  0  0  0
    1.2530   -7.0892    0.0000 C   0  0  0  0  0  0  0  0  0  0  0  0
  1  2  1  0  0  0  0
  2  3  1  0  0  0  0
  3  4  1  0  0  0  0
  4  5  2  0  0  0  0
  4  6  1  0  0  0  0
  6  7  1  0  0  0  0
  7  8  1  0  0  0  0
  8  9  1  0  0  0  0
  9 13  1  0  0  0  0
  9 10  2  0  0  0  0
 10 11  1  0  0  0  0
 11 12  1  0  0  0  0
 12 17  2  0  0  0  0
 12 13  1  0  0  0  0
 13 14  2  0  0  0  0
 14 15  1  0  0  0  0
 15 16  2  0  0  0  0
 16 17  1  0  0  0  0
 15 18  1  0  0  0  0
 18 19  1  0  0  0  0
  2 20  1  0  0  0  0
 20 21  2  0  0  0  0
M  END
$$$$
s_270004____14519440____16621896
  -OEChem-03222016482D

 21 23  0     1  0  0  0  0  0999 V2000
    5.4199   -1.7296    0.0000 C   0  0  0  0  0  0  0  0  0  0  0  0
    6.2859   -1.2296    0.0000 C   0  0  3  0  0  0  0  0  0  0  0  0
    7.1518   -0.7296    0.0000 C   0  0  0  0  0  0  0  0  0  0  0  0
    7.6518   -1.5955    0.0000 N   0  0  0  0  0  0  0  0  0  0  0  0
    6.7859   -2.0955    0.0000 C   0  0  0  0  0  0  0  0  0  0  0  0
    6.5271   -3.0614    0.0000 O   0  0  0  0  0  0  0  0  0  0  0  0
    8.6178   -1.8543    0.0000 C   0  0  0  0  0  0  0  0  0  0  0  0
    5.7859   -0.3636    0.0000 C   0  0  0  0  0  0  0  0  0  0  0  0
    4.7859   -0.3636    0.0000 N   0  3  0  0  0  0  0  0  0  0  0  0
    4.2858    0.5024    0.0000 C   0  0  0  0  0  0  0  0  0  0  0  0
    3.2858    0.5023    0.0000 C   0  0  0  0  0  0  0  0  0  0  0  0
    2.6938   -0.3125    0.0000 C   0  0  0  0  0  0  0  0  0  0  0  0
    1.7360   -0.0012    0.0000 C   0  0  0  0  0  0  0  0  0  0  0  0
    0.8680   -0.4978    0.0000 C   0  0  0  0  0  0  0  0  0  0  0  0
    0.0000    0.0000    0.0000 C   0  0  0  0  0  0  0  0  0  0  0  0
    0.0000    1.0058    0.0000 C   0  0  0  0  0  0  0  0  0  0  0  0
    0.8680    1.5138    0.0000 C   0  0  0  0  0  0  0  0  0  0  0  0
    1.7360    1.0058    0.0000 C   0  0  0  0  0  0  0  0  0  0  0  0
    2.6938    1.3169    0.0000 N   0  0  0  0  0  0  0  0  0  0  0  0
   -0.8653   -0.5013    0.0000 O   0  0  0  0  0  0  0  0  0  0  0  0
   -0.8639   -1.5013    0.0000 C   0  0  0  0  0  0  0  0  0  0  0  0
  1  2  1  0  0  0  0
  2  5  1  0  0  0  0
  2  3  1  0  0  0  0
  3  4  1  0  0  0  0
  4  5  1  0  0  0  0
  5  6  2  0  0  0  0
  4  7  1  0  0  0  0
  2  8  1  0  0  0  0
  8  9  1  0  0  0  0
  9 10  1  0  0  0  0
 10 11  1  0  0  0  0
 11 19  1  0  0  0  0
 11 12  2  0  0  0  0
 12 13  1  0  0  0  0
 13 18  2  0  0  0  0
 13 14  1  0  0  0  0
 14 15  2  0  0  0  0
 15 16  1  0  0  0  0
 16 17  2  0  0  0  0
 17 18  1  0  0  0  0
 18 19  1  0  0  0  0
 15 20  1  0  0  0  0
 20 21  1  0  0  0  0
M  CHG  1   9   1
M  END
$$$$
s_22____9192330____7941800
  -OEChem-03222016482D

 19 20  0     0  0  0  0  0  0999 V2000
   -2.5974   -0.5038    0.0000 C   0  0  0  0  0  0  0  0  0  0  0  0
   -1.7320   -0.0025    0.0000 C   0  0  0  0  0  0  0  0  0  0  0  0
   -1.7335    0.9975    0.0000 C   0  0  0  0  0  0  0  0  0  0  0  0
   -0.8653   -0.5013    0.0000 O   0  0  0  0  0  0  0  0  0  0  0  0
    0.0000    0.0000    0.0000 C   0  0  0  0  0  0  0  0  0  0  0  0
   -0.0000    1.0058    0.0000 C   0  0  0  0  0  0  0  0  0  0  0  0
    0.8680    1.5138    0.0000 C   0  0  0  0  0  0  0  0  0  0  0  0
    1.7360    1.0058    0.0000 C   0  0  0  0  0  0  0  0  0  0  0  0
    1.7360   -0.0012    0.0000 C   0  0  0  0  0  0  0  0  0  0  0  0
    0.8680   -0.4978    0.0000 C   0  0  0  0  0  0  0  0  0  0  0  0
    2.6938   -0.3125    0.0000 C   0  0  0  0  0  0  0  0  0  0  0  0
    3.2858    0.5023    0.0000 C   0  0  0  0  0  0  0  0  0  0  0  0
    2.6938    1.3169    0.0000 N   0  0  0  0  0  0  0  0  0  0  0  0
    3.0028   -1.2636    0.0000 C   0  0  0  0  0  0  0  0  0  0  0  0
    3.9809   -1.4715    0.0000 N   0  0  0  0  0  0  0  0  0  0  0  0
    4.2899   -2.4226    0.0000 C   0  0  0  0  0  0  0  0  0  0  0  0
    3.6207   -3.1657    0.0000 O   0  0  0  0  0  0  0  0  0  0  0  0
    5.2680   -2.6306    0.0000 C   0  0  0  0  0  0  0  0  0  0  0  0
    5.5770   -3.5816    0.0000 O   0  0  0  0  0  0  0  0  0  0  0  0
  1  2  1  0  0  0  0
  2  3  1  0  0  0  0
  2  4  1  0  0  0  0
  4  5  1  0  0  0  0
  5 10  2  0  0  0  0
  5  6  1  0  0  0  0
  6  7  2  0  0  0  0
  7  8  1  0  0  0  0
  8 13  1  0  0  0  0
  8  9  2  0  0  0  0
  9 10  1  0  0  0  0
  9 11  1  0  0  0  0
 11 12  2  0  0  0  0
 12 13  1  0  0  0  0
 11 14  1  0  0  0  0
 14 15  1  0  0  0  0
 15 16  1  0  0  0  0
 16 17  2  0  0  0  0
 16 18  1  0  0  0  0
 18 19  1  0  0  0  0
M  END
$$$$
s_22____9156166____7941800
  -OEChem-03222016482D

 17 18  0     0  0  0  0  0  0999 V2000
   -0.8675    1.5032    0.0000 C   0  0  0  0  0  0  0  0  0  0  0  0
    0.0000    1.0058    0.0000 C   0  0  0  0  0  0  0  0  0  0  0  0
    0.0000    0.0000    0.0000 C   0  0  0  0  0  0  0  0  0  0  0  0
    0.8680   -0.4978    0.0000 C   0  0  0  0  0  0  0  0  0  0  0  0
    1.7360   -0.0012    0.0000 C   0  0  0  0  0  0  0  0  0  0  0  0
    1.7360    1.0058    0.0000 C   0  0  0  0  0  0  0  0  0  0  0  0
    0.8680    1.5138    0.0000 C   0  0  0  0  0  0  0  0  0  0  0  0
    2.6938    1.3169    0.0000 N   0  0  0  0  0  0  0  0  0  0  0  0
    3.2858    0.5023    0.0000 C   0  0  0  0  0  0  0  0  0  0  0  0
    2.6938   -0.3125    0.0000 C   0  0  0  0  0  0  0  0  0  0  0  0
    3.0028   -1.2636    0.0000 C   0  0  0  0  0  0  0  0  0  0  0  0
    3.9809   -1.4715    0.0000 C   0  0  0  0  0  0  0  0  0  0  0  0
    4.2899   -2.4226    0.0000 N   0  0  0  0  0  0  0  0  0  0  0  0
    5.2680   -2.6306    0.0000 C   0  0  0  0  0  0  0  0  0  0  0  0
    5.9372   -1.8874    0.0000 O   0  0  0  0  0  0  0  0  0  0  0  0
    5.5770   -3.5816    0.0000 C   0  0  0  0  0  0  0  0  0  0  0  0
    6.5551   -3.7896    0.0000 O   0  0  0  0  0  0  0  0  0  0  0  0
  1  2  1  0  0  0  0
  2  7  2  0  0  0  0
  2  3  1  0  0  0  0
  3  4  2  0  0  0  0
  4  5  1  0  0  0  0
  5 10  1  0  0  0  0
  5  6  2  0  0  0  0
  6  7  1  0  0  0  0
  6  8  1  0  0  0  0
  8  9  1  0  0  0  0
  9 10  2  0  0  0  0
 10 11  1  0  0  0  0
 11 12  1  0  0  0  0
 12 13  1  0  0  0  0
 13 14  1  0  0  0  0
 14 15  2  0  0  0  0
 14 16  1  0  0  0  0
 16 17  1  0  0  0  0
M  END
$$$$
s_22____13612008____59039
  -OEChem-03222016482D

 18 19  0     0  0  0  0  0  0999 V2000
   -0.8653   -0.5013    0.0000 C   0  0  0  0  0  0  0  0  0  0  0  0
    0.0000    0.0000    0.0000 C   0  0  0  0  0  0  0  0  0  0  0  0
   -0.0000    1.0058    0.0000 C   0  0  0  0  0  0  0  0  0  0  0  0
    0.8680    1.5138    0.0000 C   0  0  0  0  0  0  0  0  0  0  0  0
    1.7360    1.0058    0.0000 C   0  0  0  0  0  0  0  0  0  0  0  0
    1.7360   -0.0012    0.0000 C   0  0  0  0  0  0  0  0  0  0  0  0
    0.8680   -0.4978    0.0000 C   0  0  0  0  0  0  0  0  0  0  0  0
    2.6938   -0.3125    0.0000 C   0  0  0  0  0  0  0  0  0  0  0  0
    3.2858    0.5023    0.0000 C   0  0  0  0  0  0  0  0  0  0  0  0
    2.6938    1.3169    0.0000 N   0  0  0  0  0  0  0  0  0  0  0  0
    3.0028   -1.2636    0.0000 C   0  0  0  0  0  0  0  0  0  0  0  0
    3.9809   -1.4715    0.0000 C   0  0  0  0  0  0  0  0  0  0  0  0
    4.2899   -2.4226    0.0000 N   0  0  0  0  0  0  0  0  0  0  0  0
    5.2680   -2.6306    0.0000 C   0  0  0  0  0  0  0  0  0  0  0  0
    5.9372   -1.8874    0.0000 O   0  0  0  0  0  0  0  0  0  0  0  0
    5.5770   -3.5816    0.0000 C   0  0  0  0  0  0  0  0  0  0  0  0
    6.5551   -3.7896    0.0000 O   0  0  0  0  0  0  0  0  0  0  0  0
    6.8641   -4.7407    0.0000 C   0  0  0  0  0  0  0  0  0  0  0  0
  1  2  1  0  0  0  0
  2  7  2  0  0  0  0
  2  3  1  0  0  0  0
  3  4  2  0  0  0  0
  4  5  1  0  0  0  0
  5 10  1  0  0  0  0
  5  6  2  0  0  0  0
  6  7  1  0  0  0  0
  6  8  1  0  0  0  0
  8  9  2  0  0  0  0
  9 10  1  0  0  0  0
  8 11  1  0  0  0  0
 11 12  1  0  0  0  0
 12 13  1  0  0  0  0
 13 14  1  0  0  0  0
 14 15  2  0  0  0  0
 14 16  1  0  0  0  0
 16 17  1  0  0  0  0
 17 18  1  0  0  0  0
M  END
$$$$
s_22____5635330____7941096
  -OEChem-03222016482D

 18 19  0     1  0  0  0  0  0999 V2000
    0.8680    2.5138    0.0000 C   0  0  0  0  0  0  0  0  0  0  0  0
    0.8680    1.5138    0.0000 C   0  0  0  0  0  0  0  0  0  0  0  0
    0.0000    1.0058    0.0000 C   0  0  0  0  0  0  0  0  0  0  0  0
    0.0000    0.0000    0.0000 C   0  0  0  0  0  0  0  0  0  0  0  0
    0.8680   -0.4978    0.0000 C   0  0  0  0  0  0  0  0  0  0  0  0
    1.7360   -0.0012    0.0000 C   0  0  0  0  0  0  0  0  0  0  0  0
    1.7360    1.0058    0.0000 C   0  0  0  0  0  0  0  0  0  0  0  0
    2.6938    1.3169    0.0000 N   0  0  0  0  0  0  0  0  0  0  0  0
    3.2858    0.5023    0.0000 C   0  0  0  0  0  0  0  0  0  0  0  0
    2.6938   -0.3125    0.0000 C   0  0  0  0  0  0  0  0  0  0  0  0
    3.0028   -1.2636    0.0000 C   0  0  0  0  0  0  0  0  0  0  0  0
    3.9809   -1.4715    0.0000 C   0  0  0  0  0  0  0  0  0  0  0  0
    4.2899   -2.4226    0.0000 N   0  0  0  0  0  0  0  0  0  0  0  0
    5.2680   -2.6306    0.0000 C   0  0  0  0  0  0  0  0  0  0  0  0
    5.9372   -1.8874    0.0000 O   0  0  0  0  0  0  0  0  0  0  0  0
    5.5770   -3.5816    0.0000 C   0  0  3  0  0  0  0  0  0  0  0  0
    6.5551   -3.7896    0.0000 C   0  0  0  0  0  0  0  0  0  0  0  0
    4.9078   -4.3247    0.0000 O   0  0  0  0  0  0  0  0  0  0  0  0
  1  2  1  0  0  0  0
  2  7  2  0  0  0  0
  2  3  1  0  0  0  0
  3  4  2  0  0  0  0
  4  5  1  0  0  0  0
  5  6  2  0  0  0  0
  6 10  1  0  0  0  0
  6  7  1  0  0  0  0
  7  8  1  0  0  0  0
  8  9  1  0  0  0  0
  9 10  2  0  0  0  0
 10 11  1  0  0  0  0
 11 12  1  0  0  0  0
 12 13  1  0  0  0  0
 13 14  1  0  0  0  0
 14 15  2  0  0  0  0
 14 16  1  0  0  0  0
 16 17  1  0  0  0  0
 16 18  1  0  0  0  0
M  END
$$$$
s_512____15075154____4839458
  -OEChem-03222016482D

 21 22  0     0  0  0  0  0  0999 V2000
   -1.7320   -0.0025    0.0000 C   0  0  0  0  0  0  0  0  0  0  0  0
   -0.8653   -0.5013    0.0000 O   0  0  0  0  0  0  0  0  0  0  0  0
    0.0000    0.0000    0.0000 C   0  0  0  0  0  0  0  0  0  0  0  0
   -0.0000    1.0058    0.0000 C   0  0  0  0  0  0  0  0  0  0  0  0
    0.8680    1.5138    0.0000 C   0  0  0  0  0  0  0  0  0  0  0  0
    1.7360    1.0058    0.0000 C   0  0  0  0  0  0  0  0  0  0  0  0
    1.7360   -0.0012    0.0000 C   0  0  0  0  0  0  0  0  0  0  0  0
    0.8680   -0.4978    0.0000 C   0  0  0  0  0  0  0  0  0  0  0  0
    2.6938   -0.3125    0.0000 C   0  0  0  0  0  0  0  0  0  0  0  0
    3.2858    0.5023    0.0000 C   0  0  0  0  0  0  0  0  0  0  0  0
    2.6938    1.3169    0.0000 N   0  0  0  0  0  0  0  0  0  0  0  0
    3.0028   -1.2636    0.0000 C   0  0  0  0  0  0  0  0  0  0  0  0
    3.9809   -1.4715    0.0000 C   0  0  0  0  0  0  0  0  0  0  0  0
    4.2899   -2.4226    0.0000 N   0  0  0  0  0  0  0  0  0  0  0  0
    5.2680   -2.6306    0.0000 C   0  0  0  0  0  0  0  0  0  0  0  0
    5.9372   -1.8874    0.0000 O   0  0  0  0  0  0  0  0  0  0  0  0
    5.5770   -3.5816    0.0000 N   0  0  0  0  0  0  0  0  0  0  0  0
    6.5551   -3.7896    0.0000 C   0  0  0  0  0  0  0  0  0  0  0  0
    6.8641   -4.7407    0.0000 C   0  0  0  0  0  0  0  0  0  0  0  0
    7.8422   -4.9486    0.0000 C   0  0  0  0  0  0  0  0  0  0  0  0
    8.1512   -5.8997    0.0000 Br  0  0  0  0  0  0  0  0  0  0  0  0
  1  2  1  0  0  0  0
  2  3  1  0  0  0  0
  3  8  2  0  0  0  0
  3  4  1  0  0  0  0
  4  5  2  0  0  0  0
  5  6  1  0  0  0  0
  6 11  1  0  0  0  0
  6  7  2  0  0  0  0
  7  8  1  0  0  0  0
  7  9  1  0  0  0  0
  9 10  2  0  0  0  0
 10 11  1  0  0  0  0
  9 12  1  0  0  0  0
 12 13  1  0  0  0  0
 13 14  1  0  0  0  0
 14 15  1  0  0  0  0
 15 16  2  0  0  0  0
 15 17  1  0  0  0  0
 17 18  1  0  0  0  0
 18 19  1  0  0  0  0
 19 20  2  3  0  0  0
 20 21  1  0  0  0  0
M  END
$$$$
s_512____158537____15506628
  -OEChem-03222016482D

 20 21  0     0  0  0  0  0  0999 V2000
    1.9222   -6.3461    0.0000 C   0  0  0  0  0  0  0  0  0  0  0  0
    1.6132   -5.3951    0.0000 C   0  0  0  0  0  0  0  0  0  0  0  0
    0.6351   -5.1871    0.0000 C   0  0  0  0  0  0  0  0  0  0  0  0
    2.2824   -4.6519    0.0000 N   0  0  0  0  0  0  0  0  0  0  0  0
    1.9734   -3.7009    0.0000 C   0  0  0  0  0  0  0  0  0  0  0  0
    0.9953   -3.4929    0.0000 O   0  0  0  0  0  0  0  0  0  0  0  0
    2.6426   -2.9578    0.0000 N   0  0  0  0  0  0  0  0  0  0  0  0
    2.3336   -2.0067    0.0000 C   0  0  0  0  0  0  0  0  0  0  0  0
    3.0028   -1.2636    0.0000 C   0  0  0  0  0  0  0  0  0  0  0  0
    2.6938   -0.3125    0.0000 C   0  0  0  0  0  0  0  0  0  0  0  0
    3.2858    0.5023    0.0000 C   0  0  0  0  0  0  0  0  0  0  0  0
    2.6938    1.3169    0.0000 N   0  0  0  0  0  0  0  0  0  0  0  0
    1.7360    1.0058    0.0000 C   0  0  0  0  0  0  0  0  0  0  0  0
    1.7360   -0.0012    0.0000 C   0  0  0  0  0  0  0  0  0  0  0  0
    0.8680   -0.4978    0.0000 C   0  0  0  0  0  0  0  0  0  0  0  0
    0.0000    0.0000    0.0000 C   0  0  0  0  0  0  0  0  0  0  0  0
   -0.0000    1.0058    0.0000 C   0  0  0  0  0  0  0  0  0  0  0  0
    0.8680    1.5138    0.0000 C   0  0  0  0  0  0  0  0  0  0  0  0
    0.8680    2.5138    0.0000 O   0  0  0  0  0  0  0  0  0  0  0  0
    0.0020    3.0138    0.0000 C   0  0  0  0  0  0  0  0  0  0  0  0
  1  2  1  0  0  0  0
  2  3  1  0  0  0  0
  2  4  1  0  0  0  0
  4  5  1  0  0  0  0
  5  6  2  0  0  0  0
  5  7  1  0  0  0  0
  7  8  1  0  0  0  0
  8  9  1  0  0  0  0
  9 10  1  0  0  0  0
 10 14  1  0  0  0  0
 10 11  2  0  0  0  0
 11 12  1  0  0  0  0
 12 13  1  0  0  0  0
 13 18  2  0  0  0  0
 13 14  1  0  0  0  0
 14 15  2  0  0  0  0
 15 16  1  0  0  0  0
 16 17  2  0  0  0  0
 17 18  1  0  0  0  0
 18 19  1  0  0  0  0
 19 20  1  0  0  0  0
M  END
$$$$
s_2554____4839470____951600
  -OEChem-03222016482D

 19 20  0     0  0  0  0  0  0999 V2000
    6.8641   -4.7407    0.0000 C   0  0  0  0  0  0  0  0  0  0  0  0
    6.5551   -3.7896    0.0000 C   0  0  0  0  0  0  0  0  0  0  0  0
    5.5770   -3.5816    0.0000 N   0  0  0  0  0  0  0  0  0  0  0  0
    5.2680   -2.6306    0.0000 C   0  0  0  0  0  0  0  0  0  0  0  0
    5.9372   -1.8874    0.0000 O   0  0  0  0  0  0  0  0  0  0  0  0
    4.2899   -2.4226    0.0000 N   0  0  0  0  0  0  0  0  0  0  0  0
    3.9809   -1.4715    0.0000 C   0  0  0  0  0  0  0  0  0  0  0  0
    3.0028   -1.2636    0.0000 C   0  0  0  0  0  0  0  0  0  0  0  0
    2.6938   -0.3125    0.0000 C   0  0  0  0  0  0  0  0  0  0  0  0
    3.2858    0.5023    0.0000 C   0  0  0  0  0  0  0  0  0  0  0  0
    2.6938    1.3169    0.0000 N   0  0  0  0  0  0  0  0  0  0  0  0
    1.7360    1.0058    0.0000 C   0  0  0  0  0  0  0  0  0  0  0  0
    1.7360   -0.0012    0.0000 C   0  0  0  0  0  0  0  0  0  0  0  0
    0.8680   -0.4978    0.0000 C   0  0  0  0  0  0  0  0  0  0  0  0
    0.0000    0.0000    0.0000 C   0  0  0  0  0  0  0  0  0  0  0  0
   -0.0000    1.0058    0.0000 C   0  0  0  0  0  0  0  0  0  0  0  0
    0.8680    1.5138    0.0000 C   0  0  0  0  0  0  0  0  0  0  0  0
   -0.8653   -0.5013    0.0000 O   0  0  0  0  0  0  0  0  0  0  0  0
   -0.8639   -1.5013    0.0000 C   0  0  0  0  0  0  0  0  0  0  0  0
  1  2  1  0  0  0  0
  2  3  1  0  0  0  0
  3  4  1  0  0  0  0
  4  5  2  0  0  0  0
  4  6  1  0  0  0  0
  6  7  1  0  0  0  0
  7  8  1  0  0  0  0
  8  9  1  0  0  0  0
  9 13  1  0  0  0  0
  9 10  2  0  0  0  0
 10 11  1  0  0  0  0
 11 12  1  0  0  0  0
 12 17  2  0  0  0  0
 12 13  1  0  0  0  0
 13 14  2  0  0  0  0
 14 15  1  0  0  0  0
 15 16  2  0  0  0  0
 16 17  1  0  0  0  0
 15 18  1  0  0  0  0
 18 19  1  0  0  0  0
M  END
$$$$
s_22____13909752____58844
  -OEChem-03222016482D

 16 17  0     0  0  0  0  0  0999 V2000
    5.5770   -3.5816    0.0000 C   0  0  0  0  0  0  0  0  0  0  0  0
    5.2680   -2.6306    0.0000 C   0  0  0  0  0  0  0  0  0  0  0  0
    5.9372   -1.8874    0.0000 O   0  0  0  0  0  0  0  0  0  0  0  0
    4.2899   -2.4226    0.0000 N   0  0  0  0  0  0  0  0  0  0  0  0
    3.9809   -1.4715    0.0000 C   0  0  0  0  0  0  0  0  0  0  0  0
    3.0028   -1.2636    0.0000 C   0  0  0  0  0  0  0  0  0  0  0  0
    2.6938   -0.3125    0.0000 C   0  0  0  0  0  0  0  0  0  0  0  0
    3.2858    0.5023    0.0000 C   0  0  0  0  0  0  0  0  0  0  0  0
    2.6938    1.3169    0.0000 N   0  0  0  0  0  0  0  0  0  0  0  0
    1.7360    1.0058    0.0000 C   0  0  0  0  0  0  0  0  0  0  0  0
    1.7360   -0.0012    0.0000 C   0  0  0  0  0  0  0  0  0  0  0  0
    0.8680   -0.4978    0.0000 C   0  0  0  0  0  0  0  0  0  0  0  0
    0.0000    0.0000    0.0000 C   0  0  0  0  0  0  0  0  0  0  0  0
   -0.0000    1.0058    0.0000 C   0  0  0  0  0  0  0  0  0  0  0  0
    0.8680    1.5138    0.0000 C   0  0  0  0  0  0  0  0  0  0  0  0
   -0.8653   -0.5013    0.0000 O   0  0  0  0  0  0  0  0  0  0  0  0
  1  2  1  0  0  0  0
  2  3  2  0  0  0  0
  2  4  1  0  0  0  0
  4  5  1  0  0  0  0
  5  6  1  0  0  0  0
  6  7  1  0  0  0  0
  7 11  1  0  0  0  0
  7  8  2  0  0  0  0
  8  9  1  0  0  0  0
  9 10  1  0  0  0  0
 10 15  2  0  0  0  0
 10 11  1  0  0  0  0
 11 12  2  0  0  0  0
 12 13  1  0  0  0  0
 13 14  2  0  0  0  0
 14 15  1  0  0  0  0
 13 16  1  0  0  0  0
M  END
$$$$
s_22____4839448____15498218
  -OEChem-03222016482D

 21 22  0     0  0  0  0  0  0999 V2000
   -1.7320   -0.0025    0.0000 C   0  0  0  0  0  0  0  0  0  0  0  0
   -0.8653   -0.5013    0.0000 O   0  0  0  0  0  0  0  0  0  0  0  0
    0.0000    0.0000    0.0000 C   0  0  0  0  0  0  0  0  0  0  0  0
   -0.0000    1.0058    0.0000 C   0  0  0  0  0  0  0  0  0  0  0  0
    0.8680    1.5138    0.0000 C   0  0  0  0  0  0  0  0  0  0  0  0
    1.7360    1.0058    0.0000 C   0  0  0  0  0  0  0  0  0  0  0  0
    1.7360   -0.0012    0.0000 C   0  0  0  0  0  0  0  0  0  0  0  0
    0.8680   -0.4978    0.0000 C   0  0  0  0  0  0  0  0  0  0  0  0
    2.6938   -0.3125    0.0000 C   0  0  0  0  0  0  0  0  0  0  0  0
    3.2858    0.5023    0.0000 C   0  0  0  0  0  0  0  0  0  0  0  0
    2.6938    1.3169    0.0000 N   0  0  0  0  0  0  0  0  0  0  0  0
    3.0028   -1.2636    0.0000 C   0  0  0  0  0  0  0  0  0  0  0  0
    3.9809   -1.4715    0.0000 C   0  0  0  0  0  0  0  0  0  0  0  0
    4.2899   -2.4226    0.0000 N   0  0  0  0  0  0  0  0  0  0  0  0
    5.2680   -2.6306    0.0000 C   0  0  0  0  0  0  0  0  0  0  0  0
    5.9372   -1.8874    0.0000 O   0  0  0  0  0  0  0  0  0  0  0  0
    5.5770   -3.5816    0.0000 C   0  0  0  0  0  0  0  0  0  0  0  0
    6.5551   -3.7896    0.0000 O   0  0  0  0  0  0  0  0  0  0  0  0
    6.8641   -4.7407    0.0000 C   0  0  0  0  0  0  0  0  0  0  0  0
    7.8422   -4.9486    0.0000 C   0  0  0  0  0  0  0  0  0  0  0  0
    8.8204   -5.1566    0.0000 C   0  0  0  0  0  0  0  0  0  0  0  0
  1  2  1  0  0  0  0
  2  3  1  0  0  0  0
  3  8  2  0  0  0  0
  3  4  1  0  0  0  0
  4  5  2  0  0  0  0
  5  6  1  0  0  0  0
  6 11  1  0  0  0  0
  6  7  2  0  0  0  0
  7  8  1  0  0  0  0
  7  9  1  0  0  0  0
  9 10  2  0  0  0  0
 10 11  1  0  0  0  0
  9 12  1  0  0  0  0
 12 13  1  0  0  0  0
 13 14  1  0  0  0  0
 14 15  1  0  0  0  0
 15 16  2  0  0  0  0
 15 17  1  0  0  0  0
 17 18  1  0  0  0  0
 18 19  1  0  0  0  0
 19 20  1  0  0  0  0
 20 21  3  0  0  0  0
M  END
$$$$
s_240690b____15144160____13151248
  -OEChem-03222016482D

 19 20  0     0  0  0  0  0  0999 V2000
    0.8680    1.5138    0.0000 C   0  0  0  0  0  0  0  0  0  0  0  0
    0.0000    1.0058    0.0000 C   0  0  0  0  0  0  0  0  0  0  0  0
    0.0000    0.0000    0.0000 C   0  0  0  0  0  0  0  0  0  0  0  0
    0.8680   -0.4978    0.0000 C   0  0  0  0  0  0  0  0  0  0  0  0
    1.7360   -0.0012    0.0000 C   0  0  0  0  0  0  0  0  0  0  0  0
    1.7360    1.0058    0.0000 C   0  0  0  0  0  0  0  0  0  0  0  0
    2.6938    1.3169    0.0000 N   0  0  0  0  0  0  0  0  0  0  0  0
    3.2858    0.5023    0.0000 C   0  0  0  0  0  0  0  0  0  0  0  0
    2.6938   -0.3125    0.0000 C   0  0  0  0  0  0  0  0  0  0  0  0
    3.0028   -1.2636    0.0000 C   0  0  0  0  0  0  0  0  0  0  0  0
    3.9809   -1.4715    0.0000 C   0  0  0  0  0  0  0  0  0  0  0  0
    4.2899   -2.4226    0.0000 N   0  0  0  0  0  0  0  0  0  0  0  0
    5.2680   -2.6306    0.0000 C   0  0  0  0  0  0  0  0  0  0  0  0
    5.9372   -1.8874    0.0000 O   0  0  0  0  0  0  0  0  0  0  0  0
    5.5770   -3.5816    0.0000 C   0  0  0  0  0  0  0  0  0  0  0  0
    6.5551   -3.7896    0.0000 O   0  0  0  0  0  0  0  0  0  0  0  0
    6.8641   -4.7407    0.0000 N   0  0  0  0  0  0  0  0  0  0  0  0
    0.8675   -1.4978    0.0000 F   0  0  0  0  0  0  0  0  0  0  0  0
   -0.8675    1.5032    0.0000 F   0  0  0  0  0  0  0  0  0  0  0  0
  1  6  2  0  0  0  0
  1  2  1  0  0  0  0
  2  3  2  0  0  0  0
  3  4  1  0  0  0  0
  4  5  2  0  0  0  0
  5  9  1  0  0  0  0
  5  6  1  0  0  0  0
  6  7  1  0  0  0  0
  7  8  1  0  0  0  0
  8  9  2  0  0  0  0
  9 10  1  0  0  0  0
 10 11  1  0  0  0  0
 11 12  1  0  0  0  0
 12 13  1  0  0  0  0
 13 14  2  0  0  0  0
 13 15  1  0  0  0  0
 15 16  1  0  0  0  0
 16 17  1  0  0  0  0
  4 18  1  0  0  0  0
  2 19  1  0  0  0  0
M  END
$$$$
s_22____10565622____9296322
  -OEChem-03222016482D

 19 20  0     0  0  0  0  0  0999 V2000
    6.1949   -5.4838    0.0000 C   0  0  0  0  0  0  0  0  0  0  0  0
    5.8860   -4.5327    0.0000 C   0  0  0  0  0  0  0  0  0  0  0  0
    5.5770   -3.5816    0.0000 C   0  0  0  0  0  0  0  0  0  0  0  0
    5.2680   -2.6306    0.0000 C   0  0  0  0  0  0  0  0  0  0  0  0
    5.9372   -1.8874    0.0000 O   0  0  0  0  0  0  0  0  0  0  0  0
    4.2899   -2.4226    0.0000 N   0  0  0  0  0  0  0  0  0  0  0  0
    3.9809   -1.4715    0.0000 C   0  0  0  0  0  0  0  0  0  0  0  0
    3.0028   -1.2636    0.0000 C   0  0  0  0  0  0  0  0  0  0  0  0
    2.6938   -0.3125    0.0000 C   0  0  0  0  0  0  0  0  0  0  0  0
    3.2858    0.5023    0.0000 C   0  0  0  0  0  0  0  0  0  0  0  0
    2.6938    1.3169    0.0000 N   0  0  0  0  0  0  0  0  0  0  0  0
    1.7360    1.0058    0.0000 C   0  0  0  0  0  0  0  0  0  0  0  0
    1.7360   -0.0012    0.0000 C   0  0  0  0  0  0  0  0  0  0  0  0
    0.8680   -0.4978    0.0000 C   0  0  0  0  0  0  0  0  0  0  0  0
    0.0000    0.0000    0.0000 C   0  0  0  0  0  0  0  0  0  0  0  0
   -0.0000    1.0058    0.0000 C   0  0  0  0  0  0  0  0  0  0  0  0
    0.8680    1.5138    0.0000 C   0  0  0  0  0  0  0  0  0  0  0  0
    0.8680    2.5138    0.0000 Cl  0  0  0  0  0  0  0  0  0  0  0  0
   -0.8653   -0.5013    0.0000 Cl  0  0  0  0  0  0  0  0  0  0  0  0
  1  2  1  0  0  0  0
  2  3  3  0  0  0  0
  3  4  1  0  0  0  0
  4  5  2  0  0  0  0
  4  6  1  0  0  0  0
  6  7  1  0  0  0  0
  7  8  1  0  0  0  0
  8  9  1  0  0  0  0
  9 13  1  0  0  0  0
  9 10  2  0  0  0  0
 10 11  1  0  0  0  0
 11 12  1  0  0  0  0
 12 17  2  0  0  0  0
 12 13  1  0  0  0  0
 13 14  2  0  0  0  0
 14 15  1  0  0  0  0
 15 16  2  0  0  0  0
 16 17  1  0  0  0  0
 17 18  1  0  0  0  0
 15 19  1  0  0  0  0
M  END
$$$$
s_22____13978824____58887
  -OEChem-03222016482D

 18 19  0     0  0  0  0  0  0999 V2000
    1.6132   -5.3951    0.0000 C   0  0  0  0  0  0  0  0  0  0  0  0
    2.2824   -4.6519    0.0000 C   0  0  0  0  0  0  0  0  0  0  0  0
    1.9734   -3.7009    0.0000 C   0  0  0  0  0  0  0  0  0  0  0  0
    0.9953   -3.4929    0.0000 O   0  0  0  0  0  0  0  0  0  0  0  0
    2.6426   -2.9578    0.0000 N   0  0  0  0  0  0  0  0  0  0  0  0
    2.3336   -2.0067    0.0000 C   0  0  0  0  0  0  0  0  0  0  0  0
    3.0028   -1.2636    0.0000 C   0  0  0  0  0  0  0  0  0  0  0  0
    2.6938   -0.3125    0.0000 C   0  0  0  0  0  0  0  0  0  0  0  0
    3.2858    0.5023    0.0000 C   0  0  0  0  0  0  0  0  0  0  0  0
    2.6938    1.3169    0.0000 N   0  0  0  0  0  0  0  0  0  0  0  0
    1.7360    1.0058    0.0000 C   0  0  0  0  0  0  0  0  0  0  0  0
    1.7360   -0.0012    0.0000 C   0  0  0  0  0  0  0  0  0  0  0  0
    0.8680   -0.4978    0.0000 C   0  0  0  0  0  0  0  0  0  0  0  0
    0.0000    0.0000    0.0000 C   0  0  0  0  0  0  0  0  0  0  0  0
   -0.0000    1.0058    0.0000 C   0  0  0  0  0  0  0  0  0  0  0  0
    0.8680    1.5138    0.0000 C   0  0  0  0  0  0  0  0  0  0  0  0
   -0.8675    1.5032    0.0000 O   0  0  0  0  0  0  0  0  0  0  0  0
   -1.7320    1.0007    0.0000 C   0  0  0  0  0  0  0  0  0  0  0  0
  1  2  1  0  0  0  0
  2  3  1  0  0  0  0
  3  4  2  0  0  0  0
  3  5  1  0  0  0  0
  5  6  1  0  0  0  0
  6  7  1  0  0  0  0
  7  8  1  0  0  0  0
  8 12  1  0  0  0  0
  8  9  2  0  0  0  0
  9 10  1  0  0  0  0
 10 11  1  0  0  0  0
 11 16  2  0  0  0  0
 11 12  1  0  0  0  0
 12 13  2  0  0  0  0
 13 14  1  0  0  0  0
 14 15  2  0  0  0  0
 15 16  1  0  0  0  0
 15 17  1  0  0  0  0
 17 18  1  0  0  0  0
M  END
$$$$
s_240690b____7354134____3025698
  -OEChem-03222016482D

 17 18  0     0  0  0  0  0  0999 V2000
   -0.0000    1.0058    0.0000 C   0  0  0  0  0  0  0  0  0  0  0  0
    0.8680    1.5138    0.0000 C   0  0  0  0  0  0  0  0  0  0  0  0
    1.7360    1.0058    0.0000 C   0  0  0  0  0  0  0  0  0  0  0  0
    1.7360   -0.0012    0.0000 C   0  0  0  0  0  0  0  0  0  0  0  0
    0.8680   -0.4978    0.0000 C   0  0  0  0  0  0  0  0  0  0  0  0
    0.0000    0.0000    0.0000 C   0  0  0  0  0  0  0  0  0  0  0  0
   -0.8653   -0.5013    0.0000 Cl  0  0  0  0  0  0  0  0  0  0  0  0
    2.6938   -0.3125    0.0000 C   0  0  0  0  0  0  0  0  0  0  0  0
    3.2858    0.5023    0.0000 C   0  0  0  0  0  0  0  0  0  0  0  0
    2.6938    1.3169    0.0000 N   0  0  0  0  0  0  0  0  0  0  0  0
    3.0028   -1.2636    0.0000 C   0  0  0  0  0  0  0  0  0  0  0  0
    3.9809   -1.4715    0.0000 C   0  0  0  0  0  0  0  0  0  0  0  0
    4.2899   -2.4226    0.0000 N   0  0  0  0  0  0  0  0  0  0  0  0
    5.2680   -2.6306    0.0000 C   0  0  0  0  0  0  0  0  0  0  0  0
    5.9372   -1.8874    0.0000 O   0  0  0  0  0  0  0  0  0  0  0  0
    5.5770   -3.5816    0.0000 C   0  0  0  0  0  0  0  0  0  0  0  0
    6.5551   -3.7896    0.0000 N   0  3  0  0  0  0  0  0  0  0  0  0
  1  6  2  0  0  0  0
  1  2  1  0  0  0  0
  2  3  2  0  0  0  0
  3 10  1  0  0  0  0
  3  4  1  0  0  0  0
  4  5  2  0  0  0  0
  5  6  1  0  0  0  0
  6  7  1  0  0  0  0
  4  8  1  0  0  0  0
  8  9  2  0  0  0  0
  9 10  1  0  0  0  0
  8 11  1  0  0  0  0
 11 12  1  0  0  0  0
 12 13  1  0  0  0  0
 13 14  1  0  0  0  0
 14 15  2  0  0  0  0
 14 16  1  0  0  0  0
 16 17  1  0  0  0  0
M  CHG  1  17   1
M  END
$$$$
s_22____13978824____10475936
  -OEChem-03222016482D

 20 21  0     1  0  0  0  0  0999 V2000
   -0.8705    2.5032    0.0000 C   0  0  0  0  0  0  0  0  0  0  0  0
   -0.8675    1.5032    0.0000 O   0  0  0  0  0  0  0  0  0  0  0  0
    0.0000    1.0058    0.0000 C   0  0  0  0  0  0  0  0  0  0  0  0
    0.0000    0.0000    0.0000 C   0  0  0  0  0  0  0  0  0  0  0  0
    0.8680   -0.4978    0.0000 C   0  0  0  0  0  0  0  0  0  0  0  0
    1.7360   -0.0012    0.0000 C   0  0  0  0  0  0  0  0  0  0  0  0
    1.7360    1.0058    0.0000 C   0  0  0  0  0  0  0  0  0  0  0  0
    0.8680    1.5138    0.0000 C   0  0  0  0  0  0  0  0  0  0  0  0
    2.6938    1.3169    0.0000 N   0  0  0  0  0  0  0  0  0  0  0  0
    3.2858    0.5023    0.0000 C   0  0  0  0  0  0  0  0  0  0  0  0
    2.6938   -0.3125    0.0000 C   0  0  0  0  0  0  0  0  0  0  0  0
    3.0028   -1.2636    0.0000 C   0  0  0  0  0  0  0  0  0  0  0  0
    3.9809   -1.4715    0.0000 C   0  0  0  0  0  0  0  0  0  0  0  0
    4.2899   -2.4226    0.0000 N   0  0  0  0  0  0  0  0  0  0  0  0
    5.2680   -2.6306    0.0000 C   0  0  0  0  0  0  0  0  0  0  0  0
    5.9372   -1.8874    0.0000 O   0  0  0  0  0  0  0  0  0  0  0  0
    5.5770   -3.5816    0.0000 C   0  0  3  0  0  0  0  0  0  0  0  0
    6.5551   -3.7896    0.0000 C   0  0  0  0  0  0  0  0  0  0  0  0
    6.8641   -4.7407    0.0000 C   0  0  0  0  0  0  0  0  0  0  0  0
    4.9078   -4.3247    0.0000 O   0  0  0  0  0  0  0  0  0  0  0  0
  1  2  1  0  0  0  0
  2  3  1  0  0  0  0
  3  8  2  0  0  0  0
  3  4  1  0  0  0  0
  4  5  2  0  0  0  0
  5  6  1  0  0  0  0
  6 11  1  0  0  0  0
  6  7  2  0  0  0  0
  7  8  1  0  0  0  0
  7  9  1  0  0  0  0
  9 10  1  0  0  0  0
 10 11  2  0  0  0  0
 11 12  1  0  0  0  0
 12 13  1  0  0  0  0
 13 14  1  0  0  0  0
 14 15  1  0  0  0  0
 15 16  2  0  0  0  0
 15 17  1  0  0  0  0
 17 18  1  0  0  0  0
 18 19  2  0  0  0  0
 17 20  1  0  0  0  0
M  END
$$$$
s_240690b____12637968____13151248
  -OEChem-03222016482D

 20 21  0     0  0  0  0  0  0999 V2000
    3.9538   -0.9546    0.0000 C   0  0  0  0  0  0  0  0  0  0  0  0
    3.0028   -1.2636    0.0000 C   0  0  0  0  0  0  0  0  0  0  0  0
    2.0517   -1.5725    0.0000 C   0  0  0  0  0  0  0  0  0  0  0  0
    3.3117   -2.2146    0.0000 C   0  0  0  0  0  0  0  0  0  0  0  0
    4.2899   -2.4226    0.0000 N   0  0  0  0  0  0  0  0  0  0  0  0
    4.5989   -3.3737    0.0000 C   0  0  0  0  0  0  0  0  0  0  0  0
    3.9297   -4.1168    0.0000 O   0  0  0  0  0  0  0  0  0  0  0  0
    5.5770   -3.5816    0.0000 C   0  0  0  0  0  0  0  0  0  0  0  0
    5.8860   -4.5327    0.0000 O   0  0  0  0  0  0  0  0  0  0  0  0
    6.8641   -4.7407    0.0000 N   0  0  0  0  0  0  0  0  0  0  0  0
    2.6938   -0.3125    0.0000 C   0  0  0  0  0  0  0  0  0  0  0  0
    3.2858    0.5023    0.0000 C   0  0  0  0  0  0  0  0  0  0  0  0
    2.6938    1.3169    0.0000 N   0  0  0  0  0  0  0  0  0  0  0  0
    1.7360    1.0058    0.0000 C   0  0  0  0  0  0  0  0  0  0  0  0
    1.7360   -0.0012    0.0000 C   0  0  0  0  0  0  0  0  0  0  0  0
    0.8680   -0.4978    0.0000 C   0  0  0  0  0  0  0  0  0  0  0  0
    0.0000    0.0000    0.0000 C   0  0  0  0  0  0  0  0  0  0  0  0
   -0.0000    1.0058    0.0000 C   0  0  0  0  0  0  0  0  0  0  0  0
    0.8680    1.5138    0.0000 C   0  0  0  0  0  0  0  0  0  0  0  0
   -0.8675    1.5032    0.0000 F   0  0  0  0  0  0  0  0  0  0  0  0
  1  2  1  0  0  0  0
  2  3  1  0  0  0  0
  2  4  1  0  0  0  0
  4  5  1  0  0  0  0
  5  6  1  0  0  0  0
  6  7  2  0  0  0  0
  6  8  1  0  0  0  0
  8  9  1  0  0  0  0
  9 10  1  0  0  0  0
  2 11  1  0  0  0  0
 11 15  1  0  0  0  0
 11 12  2  0  0  0  0
 12 13  1  0  0  0  0
 13 14  1  0  0  0  0
 14 19  2  0  0  0  0
 14 15  1  0  0  0  0
 15 16  2  0  0  0  0
 16 17  1  0  0  0  0
 17 18  2  0  0  0  0
 18 19  1  0  0  0  0
 18 20  1  0  0  0  0
M  END
$$$$
s_270004____9315696____16621896
  -OEChem-03222016482D

 19 20  0     1  0  0  0  0  0999 V2000
    6.2858    0.5025    0.0000 C   0  0  0  0  0  0  0  0  0  0  0  0
    5.7859   -0.3636    0.0000 C   0  0  3  0  0  0  0  0  0  0  0  0
    6.2859   -1.2296    0.0000 C   0  0  0  0  0  0  0  0  0  0  0  0
    5.7860   -2.0956    0.0000 O   0  0  0  0  0  0  0  0  0  0  0  0
    7.2859   -1.2295    0.0000 O   0  0  0  0  0  0  0  0  0  0  0  0
    7.7860   -2.0955    0.0000 C   0  0  0  0  0  0  0  0  0  0  0  0
    4.7859   -0.3636    0.0000 N   0  3  0  0  0  0  0  0  0  0  0  0
    4.2858    0.5024    0.0000 C   0  0  0  0  0  0  0  0  0  0  0  0
    3.2858    0.5023    0.0000 C   0  0  0  0  0  0  0  0  0  0  0  0
    2.6938   -0.3125    0.0000 C   0  0  0  0  0  0  0  0  0  0  0  0
    1.7360   -0.0012    0.0000 C   0  0  0  0  0  0  0  0  0  0  0  0
    0.8680   -0.4978    0.0000 C   0  0  0  0  0  0  0  0  0  0  0  0
    0.0000    0.0000    0.0000 C   0  0  0  0  0  0  0  0  0  0  0  0
    0.0000    1.0058    0.0000 C   0  0  0  0  0  0  0  0  0  0  0  0
    0.8680    1.5138    0.0000 C   0  0  0  0  0  0  0  0  0  0  0  0
    1.7360    1.0058    0.0000 C   0  0  0  0  0  0  0  0  0  0  0  0
    2.6938    1.3169    0.0000 N   0  0  0  0  0  0  0  0  0  0  0  0
   -0.8653   -0.5013    0.0000 O   0  0  0  0  0  0  0  0  0  0  0  0
   -0.8639   -1.5013    0.0000 C   0  0  0  0  0  0  0  0  0  0  0  0
  1  2  1  0  0  0  0
  2  3  1  0  0  0  0
  3  4  2  0  0  0  0
  3  5  1  0  0  0  0
  5  6  1  0  0  0  0
  2  7  1  0  0  0  0
  7  8  1  0  0  0  0
  8  9  1  0  0  0  0
  9 17  1  0  0  0  0
  9 10  2  0  0  0  0
 10 11  1  0  0  0  0
 11 16  2  0  0  0  0
 11 12  1  0  0  0  0
 12 13  2  0  0  0  0
 13 14  1  0  0  0  0
 14 15  2  0  0  0  0
 15 16  1  0  0  0  0
 16 17  1  0  0  0  0
 13 18  1  0  0  0  0
 18 19  1  0  0  0  0
M  CHG  1   7   1
M  END
$$$$
s_22____4839448____59039
  -OEChem-03222016482D

 19 20  0     0  0  0  0  0  0999 V2000
    6.8641   -4.7407    0.0000 C   0  0  0  0  0  0  0  0  0  0  0  0
    6.5551   -3.7896    0.0000 O   0  0  0  0  0  0  0  0  0  0  0  0
    5.5770   -3.5816    0.0000 C   0  0  0  0  0  0  0  0  0  0  0  0
    5.2680   -2.6306    0.0000 C   0  0  0  0  0  0  0  0  0  0  0  0
    5.9372   -1.8874    0.0000 O   0  0  0  0  0  0  0  0  0  0  0  0
    4.2899   -2.4226    0.0000 N   0  0  0  0  0  0  0  0  0  0  0  0
    3.9809   -1.4715    0.0000 C   0  0  0  0  0  0  0  0  0  0  0  0
    3.0028   -1.2636    0.0000 C   0  0  0  0  0  0  0  0  0  0  0  0
    2.6938   -0.3125    0.0000 C   0  0  0  0  0  0  0  0  0  0  0  0
    3.2858    0.5023    0.0000 C   0  0  0  0  0  0  0  0  0  0  0  0
    2.6938    1.3169    0.0000 N   0  0  0  0  0  0  0  0  0  0  0  0
    1.7360    1.0058    0.0000 C   0  0  0  0  0  0  0  0  0  0  0  0
    1.7360   -0.0012    0.0000 C   0  0  0  0  0  0  0  0  0  0  0  0
    0.8680   -0.4978    0.0000 C   0  0  0  0  0  0  0  0  0  0  0  0
    0.0000    0.0000    0.0000 C   0  0  0  0  0  0  0  0  0  0  0  0
   -0.0000    1.0058    0.0000 C   0  0  0  0  0  0  0  0  0  0  0  0
    0.8680    1.5138    0.0000 C   0  0  0  0  0  0  0  0  0  0  0  0
   -0.8653   -0.5013    0.0000 O   0  0  0  0  0  0  0  0  0  0  0  0
   -0.8639   -1.5013    0.0000 C   0  0  0  0  0  0  0  0  0  0  0  0
  1  2  1  0  0  0  0
  2  3  1  0  0  0  0
  3  4  1  0  0  0  0
  4  5  2  0  0  0  0
  4  6  1  0  0  0  0
  6  7  1  0  0  0  0
  7  8  1  0  0  0  0
  8  9  1  0  0  0  0
  9 13  1  0  0  0  0
  9 10  2  0  0  0  0
 10 11  1  0  0  0  0
 11 12  1  0  0  0  0
 12 17  2  0  0  0  0
 12 13  1  0  0  0  0
 13 14  2  0  0  0  0
 14 15  1  0  0  0  0
 15 16  2  0  0  0  0
 16 17  1  0  0  0  0
 15 18  1  0  0  0  0
 18 19  1  0  0  0  0
M  END
$$$$
s_22____13025516____9296322
  -OEChem-03222016482D

 19 20  0     0  0  0  0  0  0999 V2000
    6.1949   -5.4838    0.0000 C   0  0  0  0  0  0  0  0  0  0  0  0
    5.8860   -4.5327    0.0000 C   0  0  0  0  0  0  0  0  0  0  0  0
    5.5770   -3.5816    0.0000 C   0  0  0  0  0  0  0  0  0  0  0  0
    5.2680   -2.6306    0.0000 C   0  0  0  0  0  0  0  0  0  0  0  0
    5.9372   -1.8874    0.0000 O   0  0  0  0  0  0  0  0  0  0  0  0
    4.2899   -2.4226    0.0000 N   0  0  0  0  0  0  0  0  0  0  0  0
    3.9809   -1.4715    0.0000 C   0  0  0  0  0  0  0  0  0  0  0  0
    3.0028   -1.2636    0.0000 C   0  0  0  0  0  0  0  0  0  0  0  0
    2.6938   -0.3125    0.0000 C   0  0  0  0  0  0  0  0  0  0  0  0
    3.2858    0.5023    0.0000 C   0  0  0  0  0  0  0  0  0  0  0  0
    2.6938    1.3169    0.0000 N   0  0  0  0  0  0  0  0  0  0  0  0
    1.7360    1.0058    0.0000 C   0  0  0  0  0  0  0  0  0  0  0  0
    1.7360   -0.0012    0.0000 C   0  0  0  0  0  0  0  0  0  0  0  0
    0.8680   -0.4978    0.0000 C   0  0  0  0  0  0  0  0  0  0  0  0
    0.0000    0.0000    0.0000 C   0  0  0  0  0  0  0  0  0  0  0  0
   -0.0000    1.0058    0.0000 C   0  0  0  0  0  0  0  0  0  0  0  0
    0.8680    1.5138    0.0000 C   0  0  0  0  0  0  0  0  0  0  0  0
    0.8675   -1.4978    0.0000 O   0  0  0  0  0  0  0  0  0  0  0  0
    1.7332   -1.9983    0.0000 C   0  0  0  0  0  0  0  0  0  0  0  0
  1  2  1  0  0  0  0
  2  3  3  0  0  0  0
  3  4  1  0  0  0  0
  4  5  2  0  0  0  0
  4  6  1  0  0  0  0
  6  7  1  0  0  0  0
  7  8  1  0  0  0  0
  8  9  1  0  0  0  0
  9 13  1  0  0  0  0
  9 10  2  0  0  0  0
 10 11  1  0  0  0  0
 11 12  1  0  0  0  0
 12 17  2  0  0  0  0
 12 13  1  0  0  0  0
 13 14  2  0  0  0  0
 14 15  1  0  0  0  0
 15 16  2  0  0  0  0
 16 17  1  0  0  0  0
 14 18  1  0  0  0  0
 18 19  1  0  0  0  0
M  END
$$$$
s_273464b____11205440____11234894
  -OEChem-03222016482D

 19 20  0     0  0  0  0  0  0999 V2000
    1.7327   -2.9983    0.0000 C   0  0  0  0  0  0  0  0  0  0  0  0
    1.7332   -1.9983    0.0000 C   0  0  0  0  0  0  0  0  0  0  0  0
    0.8675   -1.4978    0.0000 O   0  0  0  0  0  0  0  0  0  0  0  0
    0.8680   -0.4978    0.0000 C   0  0  0  0  0  0  0  0  0  0  0  0
    0.0000    0.0000    0.0000 C   0  0  0  0  0  0  0  0  0  0  0  0
   -0.0000    1.0058    0.0000 C   0  0  0  0  0  0  0  0  0  0  0  0
    0.8680    1.5138    0.0000 C   0  0  0  0  0  0  0  0  0  0  0  0
    1.7360    1.0058    0.0000 C   0  0  0  0  0  0  0  0  0  0  0  0
    1.7360   -0.0012    0.0000 C   0  0  0  0  0  0  0  0  0  0  0  0
    2.6938   -0.3125    0.0000 C   0  0  0  0  0  0  0  0  0  0  0  0
    3.2858    0.5023    0.0000 C   0  0  0  0  0  0  0  0  0  0  0  0
    2.6938    1.3169    0.0000 N   0  0  0  0  0  0  0  0  0  0  0  0
    3.0028   -1.2636    0.0000 C   0  0  0  0  0  0  0  0  0  0  0  0
    3.9809   -1.4715    0.0000 C   0  0  0  0  0  0  0  0  0  0  0  0
    4.2899   -2.4226    0.0000 N   0  0  0  0  0  0  0  0  0  0  0  0
    5.2680   -2.6306    0.0000 C   0  0  0  0  0  0  0  0  0  0  0  0
    5.9372   -1.8874    0.0000 O   0  0  0  0  0  0  0  0  0  0  0  0
    5.5770   -3.5816    0.0000 N   0  0  0  0  0  0  0  0  0  0  0  0
    6.5551   -3.7896    0.0000 N   0  0  0  0  0  0  0  0  0  0  0  0
  1  2  1  0  0  0  0
  2  3  1  0  0  0  0
  3  4  1  0  0  0  0
  4  9  2  0  0  0  0
  4  5  1  0  0  0  0
  5  6  2  0  0  0  0
  6  7  1  0  0  0  0
  7  8  2  0  0  0  0
  8 12  1  0  0  0  0
  8  9  1  0  0  0  0
  9 10  1  0  0  0  0
 10 11  2  0  0  0  0
 11 12  1  0  0  0  0
 10 13  1  0  0  0  0
 13 14  1  0  0  0  0
 14 15  1  0  0  0  0
 15 16  1  0  0  0  0
 16 17  2  0  0  0  0
 16 18  1  0  0  0  0
 18 19  1  0  0  0  0
M  END
$$$$
s_22____13978824____2989428
  -OEChem-03222016482D

 20 21  0     0  0  0  0  0  0999 V2000
    1.9222   -6.3461    0.0000 C   0  0  0  0  0  0  0  0  0  0  0  0
    1.6132   -5.3951    0.0000 N   0  3  0  0  0  0  0  0  0  0  0  0
    0.6351   -5.1871    0.0000 C   0  0  0  0  0  0  0  0  0  0  0  0
    2.2824   -4.6519    0.0000 C   0  0  0  0  0  0  0  0  0  0  0  0
    1.9734   -3.7009    0.0000 C   0  0  0  0  0  0  0  0  0  0  0  0
    0.9953   -3.4929    0.0000 O   0  0  0  0  0  0  0  0  0  0  0  0
    2.6426   -2.9578    0.0000 N   0  0  0  0  0  0  0  0  0  0  0  0
    2.3336   -2.0067    0.0000 C   0  0  0  0  0  0  0  0  0  0  0  0
    3.0028   -1.2636    0.0000 C   0  0  0  0  0  0  0  0  0  0  0  0
    2.6938   -0.3125    0.0000 C   0  0  0  0  0  0  0  0  0  0  0  0
    3.2858    0.5023    0.0000 C   0  0  0  0  0  0  0  0  0  0  0  0
    2.6938    1.3169    0.0000 N   0  0  0  0  0  0  0  0  0  0  0  0
    1.7360    1.0058    0.0000 C   0  0  0  0  0  0  0  0  0  0  0  0
    1.7360   -0.0012    0.0000 C   0  0  0  0  0  0  0  0  0  0  0  0
    0.8680   -0.4978    0.0000 C   0  0  0  0  0  0  0  0  0  0  0  0
    0.0000    0.0000    0.0000 C   0  0  0  0  0  0  0  0  0  0  0  0
   -0.0000    1.0058    0.0000 C   0  0  0  0  0  0  0  0  0  0  0  0
    0.8680    1.5138    0.0000 C   0  0  0  0  0  0  0  0  0  0  0  0
   -0.8675    1.5032    0.0000 O   0  0  0  0  0  0  0  0  0  0  0  0
   -1.7320    1.0007    0.0000 C   0  0  0  0  0  0  0  0  0  0  0  0
  1  2  1  0  0  0  0
  2  3  1  0  0  0  0
  2  4  1  0  0  0  0
  4  5  1  0  0  0  0
  5  6  2  0  0  0  0
  5  7  1  0  0  0  0
  7  8  1  0  0  0  0
  8  9  1  0  0  0  0
  9 10  1  0  0  0  0
 10 14  1  0  0  0  0
 10 11  2  0  0  0  0
 11 12  1  0  0  0  0
 12 13  1  0  0  0  0
 13 18  2  0  0  0  0
 13 14  1  0  0  0  0
 14 15  2  0  0  0  0
 15 16  1  0  0  0  0
 16 17  2  0  0  0  0
 17 18  1  0  0  0  0
 17 19  1  0  0  0  0
 19 20  1  0  0  0  0
M  CHG  1   2   1
M  END
$$$$
s_2708____15506640____8988634
  -OEChem-03222016482D

 19 20  0     0  0  0  0  0  0999 V2000
    1.7340    3.0138    0.0000 C   0  0  0  0  0  0  0  0  0  0  0  0
    0.8680    2.5138    0.0000 O   0  0  0  0  0  0  0  0  0  0  0  0
    0.8680    1.5138    0.0000 C   0  0  0  0  0  0  0  0  0  0  0  0
    0.0000    1.0058    0.0000 C   0  0  0  0  0  0  0  0  0  0  0  0
    0.0000    0.0000    0.0000 C   0  0  0  0  0  0  0  0  0  0  0  0
    0.8680   -0.4978    0.0000 C   0  0  0  0  0  0  0  0  0  0  0  0
    1.7360   -0.0012    0.0000 C   0  0  0  0  0  0  0  0  0  0  0  0
    1.7360    1.0058    0.0000 C   0  0  0  0  0  0  0  0  0  0  0  0
    2.6938    1.3169    0.0000 N   0  0  0  0  0  0  0  0  0  0  0  0
    3.2858    0.5023    0.0000 C   0  0  0  0  0  0  0  0  0  0  0  0
    2.6938   -0.3125    0.0000 C   0  0  0  0  0  0  0  0  0  0  0  0
    3.0028   -1.2636    0.0000 C   0  0  0  0  0  0  0  0  0  0  0  0
    3.9809   -1.4715    0.0000 C   0  0  0  0  0  0  0  0  0  0  0  0
    4.2899   -2.4226    0.0000 N   0  0  0  0  0  0  0  0  0  0  0  0
    5.2680   -2.6306    0.0000 C   0  0  0  0  0  0  0  0  0  0  0  0
    5.9372   -1.8874    0.0000 O   0  0  0  0  0  0  0  0  0  0  0  0
    5.5770   -3.5816    0.0000 N   0  0  0  0  0  0  0  0  0  0  0  0
    6.5551   -3.7896    0.0000 O   0  0  0  0  0  0  0  0  0  0  0  0
    6.8641   -4.7407    0.0000 C   0  0  0  0  0  0  0  0  0  0  0  0
  1  2  1  0  0  0  0
  2  3  1  0  0  0  0
  3  8  2  0  0  0  0
  3  4  1  0  0  0  0
  4  5  2  0  0  0  0
  5  6  1  0  0  0  0
  6  7  2  0  0  0  0
  7 11  1  0  0  0  0
  7  8  1  0  0  0  0
  8  9  1  0  0  0  0
  9 10  1  0  0  0  0
 10 11  2  0  0  0  0
 11 12  1  0  0  0  0
 12 13  1  0  0  0  0
 13 14  1  0  0  0  0
 14 15  1  0  0  0  0
 15 16  2  0  0  0  0
 15 17  1  0  0  0  0
 17 18  1  0  0  0  0
 18 19  1  0  0  0  0
M  END
$$$$
s_22____13771018____58887
  -OEChem-03222016482D

 20 21  0     0  0  0  0  0  0999 V2000
   -3.4641   -0.0050    0.0000 C   0  0  0  0  0  0  0  0  0  0  0  0
   -2.5974   -0.5038    0.0000 C   0  0  0  0  0  0  0  0  0  0  0  0
   -1.7320   -0.0025    0.0000 C   0  0  0  0  0  0  0  0  0  0  0  0
   -0.8653   -0.5013    0.0000 O   0  0  0  0  0  0  0  0  0  0  0  0
    0.0000    0.0000    0.0000 C   0  0  0  0  0  0  0  0  0  0  0  0
   -0.0000    1.0058    0.0000 C   0  0  0  0  0  0  0  0  0  0  0  0
    0.8680    1.5138    0.0000 C   0  0  0  0  0  0  0  0  0  0  0  0
    1.7360    1.0058    0.0000 C   0  0  0  0  0  0  0  0  0  0  0  0
    1.7360   -0.0012    0.0000 C   0  0  0  0  0  0  0  0  0  0  0  0
    0.8680   -0.4978    0.0000 C   0  0  0  0  0  0  0  0  0  0  0  0
    2.6938   -0.3125    0.0000 C   0  0  0  0  0  0  0  0  0  0  0  0
    3.2858    0.5023    0.0000 C   0  0  0  0  0  0  0  0  0  0  0  0
    2.6938    1.3169    0.0000 N   0  0  0  0  0  0  0  0  0  0  0  0
    3.0028   -1.2636    0.0000 C   0  0  0  0  0  0  0  0  0  0  0  0
    3.9809   -1.4715    0.0000 C   0  0  0  0  0  0  0  0  0  0  0  0
    4.2899   -2.4226    0.0000 N   0  0  0  0  0  0  0  0  0  0  0  0
    5.2680   -2.6306    0.0000 C   0  0  0  0  0  0  0  0  0  0  0  0
    5.9372   -1.8874    0.0000 O   0  0  0  0  0  0  0  0  0  0  0  0
    5.5770   -3.5816    0.0000 C   0  0  0  0  0  0  0  0  0  0  0  0
    6.5551   -3.7896    0.0000 C   0  0  0  0  0  0  0  0  0  0  0  0
  1  2  1  0  0  0  0
  2  3  1  0  0  0  0
  3  4  1  0  0  0  0
  4  5  1  0  0  0  0
  5 10  2  0  0  0  0
  5  6  1  0  0  0  0
  6  7  2  0  0  0  0
  7  8  1  0  0  0  0
  8 13  1  0  0  0  0
  8  9  2  0  0  0  0
  9 10  1  0  0  0  0
  9 11  1  0  0  0  0
 11 12  2  0  0  0  0
 12 13  1  0  0  0  0
 11 14  1  0  0  0  0
 14 15  1  0  0  0  0
 15 16  1  0  0  0  0
 16 17  1  0  0  0  0
 17 18  2  0  0  0  0
 17 19  1  0  0  0  0
 19 20  1  0  0  0  0
M  END
$$$$
s_240690b____7354100____3025680
  -OEChem-03222016482D

 18 19  0     0  0  0  0  0  0999 V2000
    0.0000    0.0000    0.0000 C   0  0  0  0  0  0  0  0  0  0  0  0
    0.8680   -0.4978    0.0000 C   0  0  0  0  0  0  0  0  0  0  0  0
    1.7360   -0.0012    0.0000 C   0  0  0  0  0  0  0  0  0  0  0  0
    1.7360    1.0058    0.0000 C   0  0  0  0  0  0  0  0  0  0  0  0
    0.8680    1.5138    0.0000 C   0  0  0  0  0  0  0  0  0  0  0  0
    0.0000    1.0058    0.0000 C   0  0  0  0  0  0  0  0  0  0  0  0
   -0.8675    1.5032    0.0000 F   0  0  0  0  0  0  0  0  0  0  0  0
    2.6938    1.3169    0.0000 N   0  0  0  0  0  0  0  0  0  0  0  0
    3.2858    0.5023    0.0000 C   0  0  0  0  0  0  0  0  0  0  0  0
    2.6938   -0.3125    0.0000 C   0  0  0  0  0  0  0  0  0  0  0  0
    3.0028   -1.2636    0.0000 C   0  0  0  0  0  0  0  0  0  0  0  0
    3.9809   -1.4715    0.0000 C   0  0  0  0  0  0  0  0  0  0  0  0
    4.2899   -2.4226    0.0000 N   0  0  0  0  0  0  0  0  0  0  0  0
    5.2680   -2.6306    0.0000 C   0  0  0  0  0  0  0  0  0  0  0  0
    5.9372   -1.8874    0.0000 O   0  0  0  0  0  0  0  0  0  0  0  0
    5.5770   -3.5816    0.0000 C   0  0  0  0  0  0  0  0  0  0  0  0
    6.5551   -3.7896    0.0000 C   0  0  0  0  0  0  0  0  0  0  0  0
    6.8641   -4.7407    0.0000 N   0  3  0  0  0  0  0  0  0  0  0  0
  1  6  2  0  0  0  0
  1  2  1  0  0  0  0
  2  3  2  0  0  0  0
  3 10  1  0  0  0  0
  3  4  1  0  0  0  0
  4  5  2  0  0  0  0
  5  6  1  0  0  0  0
  6  7  1  0  0  0  0
  4  8  1  0  0  0  0
  8  9  1  0  0  0  0
  9 10  2  0  0  0  0
 10 11  1  0  0  0  0
 11 12  1  0  0  0  0
 12 13  1  0  0  0  0
 13 14  1  0  0  0  0
 14 15  2  0  0  0  0
 14 16  1  0  0  0  0
 16 17  1  0  0  0  0
 17 18  1  0  0  0  0
M  CHG  1  18   1
M  END
$$$$
s_22____10303762____60364
  -OEChem-03222016482D

 18 19  0     0  0  0  0  0  0999 V2000
    6.8641   -4.7407    0.0000 C   0  0  0  0  0  0  0  0  0  0  0  0
    6.5551   -3.7896    0.0000 S   0  0  0  0  0  0  0  0  0  0  0  0
    5.5770   -3.5816    0.0000 C   0  0  0  0  0  0  0  0  0  0  0  0
    5.2680   -2.6306    0.0000 C   0  0  0  0  0  0  0  0  0  0  0  0
    5.9372   -1.8874    0.0000 O   0  0  0  0  0  0  0  0  0  0  0  0
    4.2899   -2.4226    0.0000 N   0  0  0  0  0  0  0  0  0  0  0  0
    3.9809   -1.4715    0.0000 C   0  0  0  0  0  0  0  0  0  0  0  0
    3.0028   -1.2636    0.0000 C   0  0  0  0  0  0  0  0  0  0  0  0
    2.6938   -0.3125    0.0000 C   0  0  0  0  0  0  0  0  0  0  0  0
    3.2858    0.5023    0.0000 C   0  0  0  0  0  0  0  0  0  0  0  0
    2.6938    1.3169    0.0000 N   0  0  0  0  0  0  0  0  0  0  0  0
    1.7360    1.0058    0.0000 C   0  0  0  0  0  0  0  0  0  0  0  0
    1.7360   -0.0012    0.0000 C   0  0  0  0  0  0  0  0  0  0  0  0
    0.8680   -0.4978    0.0000 C   0  0  0  0  0  0  0  0  0  0  0  0
    0.0000    0.0000    0.0000 C   0  0  0  0  0  0  0  0  0  0  0  0
   -0.0000    1.0058    0.0000 C   0  0  0  0  0  0  0  0  0  0  0  0
    0.8680    1.5138    0.0000 C   0  0  0  0  0  0  0  0  0  0  0  0
    0.8675   -1.4978    0.0000 Br  0  0  0  0  0  0  0  0  0  0  0  0
  1  2  1  0  0  0  0
  2  3  1  0  0  0  0
  3  4  1  0  0  0  0
  4  5  2  0  0  0  0
  4  6  1  0  0  0  0
  6  7  1  0  0  0  0
  7  8  1  0  0  0  0
  8  9  1  0  0  0  0
  9 13  1  0  0  0  0
  9 10  2  0  0  0  0
 10 11  1  0  0  0  0
 11 12  1  0  0  0  0
 12 17  2  0  0  0  0
 12 13  1  0  0  0  0
 13 14  2  0  0  0  0
 14 15  1  0  0  0  0
 15 16  2  0  0  0  0
 16 17  1  0  0  0  0
 14 18  1  0  0  0  0
M  END
$$$$
s_207____13973878____15501800
  -OEChem-03222016482D

 21 22  0     0  0  0  0  0  0999 V2000
    7.7858    1.3686    0.0000 C   0  0  0  0  0  0  0  0  0  0  0  0
    7.2857    2.2346    0.0000 N   0  0  0  0  0  0  0  0  0  0  0  0
    6.2857    2.2345    0.0000 C   0  0  0  0  0  0  0  0  0  0  0  0
    5.7856    3.1005    0.0000 O   0  0  0  0  0  0  0  0  0  0  0  0
    5.7858    1.3685    0.0000 C   0  0  0  0  0  0  0  0  0  0  0  0
    4.7858    1.3684    0.0000 N   0  3  0  0  0  0  0  0  0  0  0  0
    4.2858    0.5024    0.0000 C   0  0  0  0  0  0  0  0  0  0  0  0
    3.2858    0.5023    0.0000 C   0  0  0  0  0  0  0  0  0  0  0  0
    2.6938   -0.3125    0.0000 C   0  0  0  0  0  0  0  0  0  0  0  0
    1.7360   -0.0012    0.0000 C   0  0  0  0  0  0  0  0  0  0  0  0
    1.7360    1.0058    0.0000 C   0  0  0  0  0  0  0  0  0  0  0  0
    2.6938    1.3169    0.0000 N   0  0  0  0  0  0  0  0  0  0  0  0
    0.8680    1.5138    0.0000 C   0  0  0  0  0  0  0  0  0  0  0  0
    0.0000    1.0058    0.0000 C   0  0  0  0  0  0  0  0  0  0  0  0
    0.0000    0.0000    0.0000 C   0  0  0  0  0  0  0  0  0  0  0  0
    0.8680   -0.4978    0.0000 C   0  0  0  0  0  0  0  0  0  0  0  0
    0.8675   -1.4978    0.0000 O   0  0  0  0  0  0  0  0  0  0  0  0
    1.7332   -1.9983    0.0000 C   0  0  0  0  0  0  0  0  0  0  0  0
   -0.8675    1.5032    0.0000 O   0  0  0  0  0  0  0  0  0  0  0  0
   -1.7320    1.0007    0.0000 C   0  0  0  0  0  0  0  0  0  0  0  0
    7.7856    3.1006    0.0000 O   0  0  0  0  0  0  0  0  0  0  0  0
  1  2  1  0  0  0  0
  2  3  1  0  0  0  0
  3  4  2  0  0  0  0
  3  5  1  0  0  0  0
  5  6  1  0  0  0  0
  6  7  1  0  0  0  0
  7  8  1  0  0  0  0
  8 12  1  0  0  0  0
  8  9  2  0  0  0  0
  9 10  1  0  0  0  0
 10 16  2  0  0  0  0
 10 11  1  0  0  0  0
 11 12  1  0  0  0  0
 11 13  2  0  0  0  0
 13 14  1  0  0  0  0
 14 15  2  0  0  0  0
 15 16  1  0  0  0  0
 16 17  1  0  0  0  0
 17 18  1  0  0  0  0
 14 19  1  0  0  0  0
 19 20  1  0  0  0  0
  2 21  1  0  0  0  0
M  CHG  1   6   1
M  END
$$$$
s_270062____15561760____15585492
  -OEChem-03222016482D

 19 20  0     0  0  0  0  0  0999 V2000
    1.3042   -4.4440    0.0000 C   0  0  0  0  0  0  0  0  0  0  0  0
    1.9734   -3.7009    0.0000 C   0  0  0  0  0  0  0  0  0  0  0  0
    2.9515   -3.9088    0.0000 O   0  0  0  0  0  0  0  0  0  0  0  0
    1.6644   -2.7498    0.0000 N   0  0  0  0  0  0  0  0  0  0  0  0
    2.3336   -2.0067    0.0000 C   0  0  0  0  0  0  0  0  0  0  0  0
    1.5905   -1.3375    0.0000 C   0  0  0  0  0  0  0  0  0  0  0  0
    3.0767   -2.6759    0.0000 C   0  0  0  0  0  0  0  0  0  0  0  0
    3.0028   -1.2636    0.0000 C   0  0  0  0  0  0  0  0  0  0  0  0
    2.6938   -0.3125    0.0000 C   0  0  0  0  0  0  0  0  0  0  0  0
    3.2858    0.5023    0.0000 C   0  0  0  0  0  0  0  0  0  0  0  0
    2.6938    1.3169    0.0000 N   0  0  0  0  0  0  0  0  0  0  0  0
    1.7360    1.0058    0.0000 C   0  0  0  0  0  0  0  0  0  0  0  0
    1.7360   -0.0012    0.0000 C   0  0  0  0  0  0  0  0  0  0  0  0
    0.8680   -0.4978    0.0000 C   0  0  0  0  0  0  0  0  0  0  0  0
    0.0000    0.0000    0.0000 C   0  0  0  0  0  0  0  0  0  0  0  0
   -0.0000    1.0058    0.0000 C   0  0  0  0  0  0  0  0  0  0  0  0
    0.8680    1.5138    0.0000 C   0  0  0  0  0  0  0  0  0  0  0  0
   -0.8675    1.5032    0.0000 O   0  0  0  0  0  0  0  0  0  0  0  0
   -1.7320    1.0007    0.0000 C   0  0  0  0  0  0  0  0  0  0  0  0
  1  2  1  0  0  0  0
  2  3  2  0  0  0  0
  2  4  1  0  0  0  0
  4  5  1  0  0  0  0
  5  6  1  0  0  0  0
  5  7  1  0  0  0  0
  5  8  1  0  0  0  0
  8  9  1  0  0  0  0
  9 13  1  0  0  0  0
  9 10  2  0  0  0  0
 10 11  1  0  0  0  0
 11 12  1  0  0  0  0
 12 17  2  0  0  0  0
 12 13  1  0  0  0  0
 13 14  2  0  0  0  0
 14 15  1  0  0  0  0
 15 16  2  0  0  0  0
 16 17  1  0  0  0  0
 16 18  1  0  0  0  0
 18 19  1  0  0  0  0
M  END
$$$$
s_22____4839448____10389864
  -OEChem-03222016482D

 21 22  0     0  0  0  0  0  0999 V2000
   -1.7320   -0.0025    0.0000 C   0  0  0  0  0  0  0  0  0  0  0  0
   -0.8653   -0.5013    0.0000 O   0  0  0  0  0  0  0  0  0  0  0  0
    0.0000    0.0000    0.0000 C   0  0  0  0  0  0  0  0  0  0  0  0
   -0.0000    1.0058    0.0000 C   0  0  0  0  0  0  0  0  0  0  0  0
    0.8680    1.5138    0.0000 C   0  0  0  0  0  0  0  0  0  0  0  0
    1.7360    1.0058    0.0000 C   0  0  0  0  0  0  0  0  0  0  0  0
    1.7360   -0.0012    0.0000 C   0  0  0  0  0  0  0  0  0  0  0  0
    0.8680   -0.4978    0.0000 C   0  0  0  0  0  0  0  0  0  0  0  0
    2.6938   -0.3125    0.0000 C   0  0  0  0  0  0  0  0  0  0  0  0
    3.2858    0.5023    0.0000 C   0  0  0  0  0  0  0  0  0  0  0  0
    2.6938    1.3169    0.0000 N   0  0  0  0  0  0  0  0  0  0  0  0
    3.0028   -1.2636    0.0000 C   0  0  0  0  0  0  0  0  0  0  0  0
    3.9809   -1.4715    0.0000 C   0  0  0  0  0  0  0  0  0  0  0  0
    4.2899   -2.4226    0.0000 N   0  0  0  0  0  0  0  0  0  0  0  0
    5.2680   -2.6306    0.0000 C   0  0  0  0  0  0  0  0  0  0  0  0
    5.9372   -1.8874    0.0000 O   0  0  0  0  0  0  0  0  0  0  0  0
    5.5770   -3.5816    0.0000 C   0  0  0  0  0  0  0  0  0  0  0  0
    6.5551   -3.7896    0.0000 C   0  0  0  0  0  0  0  0  0  0  0  0
    6.8641   -4.7407    0.0000 C   0  0  0  0  0  0  0  0  0  0  0  0
    7.8422   -4.9486    0.0000 C   0  0  0  0  0  0  0  0  0  0  0  0
    8.8204   -5.1566    0.0000 N   0  0  0  0  0  0  0  0  0  0  0  0
  1  2  1  0  0  0  0
  2  3  1  0  0  0  0
  3  8  2  0  0  0  0
  3  4  1  0  0  0  0
  4  5  2  0  0  0  0
  5  6  1  0  0  0  0
  6 11  1  0  0  0  0
  6  7  2  0  0  0  0
  7  8  1  0  0  0  0
  7  9  1  0  0  0  0
  9 10  2  0  0  0  0
 10 11  1  0  0  0  0
  9 12  1  0  0  0  0
 12 13  1  0  0  0  0
 13 14  1  0  0  0  0
 14 15  1  0  0  0  0
 15 16  2  0  0  0  0
 15 17  1  0  0  0  0
 17 18  1  0  0  0  0
 18 19  1  0  0  0  0
 19 20  1  0  0  0  0
 20 21  3  0  0  0  0
M  END
$$$$
s_22____13612008____60364
  -OEChem-03222016482D

 18 19  0     0  0  0  0  0  0999 V2000
   -0.8653   -0.5013    0.0000 C   0  0  0  0  0  0  0  0  0  0  0  0
    0.0000    0.0000    0.0000 C   0  0  0  0  0  0  0  0  0  0  0  0
   -0.0000    1.0058    0.0000 C   0  0  0  0  0  0  0  0  0  0  0  0
    0.8680    1.5138    0.0000 C   0  0  0  0  0  0  0  0  0  0  0  0
    1.7360    1.0058    0.0000 C   0  0  0  0  0  0  0  0  0  0  0  0
    1.7360   -0.0012    0.0000 C   0  0  0  0  0  0  0  0  0  0  0  0
    0.8680   -0.4978    0.0000 C   0  0  0  0  0  0  0  0  0  0  0  0
    2.6938   -0.3125    0.0000 C   0  0  0  0  0  0  0  0  0  0  0  0
    3.2858    0.5023    0.0000 C   0  0  0  0  0  0  0  0  0  0  0  0
    2.6938    1.3169    0.0000 N   0  0  0  0  0  0  0  0  0  0  0  0
    3.0028   -1.2636    0.0000 C   0  0  0  0  0  0  0  0  0  0  0  0
    3.9809   -1.4715    0.0000 C   0  0  0  0  0  0  0  0  0  0  0  0
    4.2899   -2.4226    0.0000 N   0  0  0  0  0  0  0  0  0  0  0  0
    5.2680   -2.6306    0.0000 C   0  0  0  0  0  0  0  0  0  0  0  0
    5.9372   -1.8874    0.0000 O   0  0  0  0  0  0  0  0  0  0  0  0
    5.5770   -3.5816    0.0000 C   0  0  0  0  0  0  0  0  0  0  0  0
    6.5551   -3.7896    0.0000 S   0  0  0  0  0  0  0  0  0  0  0  0
    6.8641   -4.7407    0.0000 C   0  0  0  0  0  0  0  0  0  0  0  0
  1  2  1  0  0  0  0
  2  7  2  0  0  0  0
  2  3  1  0  0  0  0
  3  4  2  0  0  0  0
  4  5  1  0  0  0  0
  5 10  1  0  0  0  0
  5  6  2  0  0  0  0
  6  7  1  0  0  0  0
  6  8  1  0  0  0  0
  8  9  2  0  0  0  0
  9 10  1  0  0  0  0
  8 11  1  0  0  0  0
 11 12  1  0  0  0  0
 12 13  1  0  0  0  0
 13 14  1  0  0  0  0
 14 15  2  0  0  0  0
 14 16  1  0  0  0  0
 16 17  1  0  0  0  0
 17 18  1  0  0  0  0
M  END
$$$$
s_22____2366540____58887
  -OEChem-03222016482D

 17 18  0     0  0  0  0  0  0999 V2000
    1.6132   -5.3951    0.0000 C   0  0  0  0  0  0  0  0  0  0  0  0
    2.2824   -4.6519    0.0000 C   0  0  0  0  0  0  0  0  0  0  0  0
    1.9734   -3.7009    0.0000 C   0  0  0  0  0  0  0  0  0  0  0  0
    0.9953   -3.4929    0.0000 O   0  0  0  0  0  0  0  0  0  0  0  0
    2.6426   -2.9578    0.0000 N   0  0  0  0  0  0  0  0  0  0  0  0
    2.3336   -2.0067    0.0000 C   0  0  0  0  0  0  0  0  0  0  0  0
    3.0028   -1.2636    0.0000 C   0  0  0  0  0  0  0  0  0  0  0  0
    2.6938   -0.3125    0.0000 C   0  0  0  0  0  0  0  0  0  0  0  0
    3.2858    0.5023    0.0000 C   0  0  0  0  0  0  0  0  0  0  0  0
    2.6938    1.3169    0.0000 N   0  0  0  0  0  0  0  0  0  0  0  0
    1.7360    1.0058    0.0000 C   0  0  0  0  0  0  0  0  0  0  0  0
    1.7360   -0.0012    0.0000 C   0  0  0  0  0  0  0  0  0  0  0  0
    0.8680   -0.4978    0.0000 C   0  0  0  0  0  0  0  0  0  0  0  0
    0.0000    0.0000    0.0000 C   0  0  0  0  0  0  0  0  0  0  0  0
   -0.0000    1.0058    0.0000 C   0  0  0  0  0  0  0  0  0  0  0  0
    0.8680    1.5138    0.0000 C   0  0  0  0  0  0  0  0  0  0  0  0
   -0.8675    1.5032    0.0000 F   0  0  0  0  0  0  0  0  0  0  0  0
  1  2  1  0  0  0  0
  2  3  1  0  0  0  0
  3  4  2  0  0  0  0
  3  5  1  0  0  0  0
  5  6  1  0  0  0  0
  6  7  1  0  0  0  0
  7  8  1  0  0  0  0
  8 12  1  0  0  0  0
  8  9  2  0  0  0  0
  9 10  1  0  0  0  0
 10 11  1  0  0  0  0
 11 16  2  0  0  0  0
 11 12  1  0  0  0  0
 12 13  2  0  0  0  0
 13 14  1  0  0  0  0
 14 15  2  0  0  0  0
 15 16  1  0  0  0  0
 15 17  1  0  0  0  0
M  END
$$$$
s_240690b____13771088____13151248
  -OEChem-03222016482D

 21 22  0     0  0  0  0  0  0999 V2000
   -3.4641   -0.0050    0.0000 C   0  0  0  0  0  0  0  0  0  0  0  0
   -2.5974   -0.5038    0.0000 C   0  0  0  0  0  0  0  0  0  0  0  0
   -1.7320   -0.0025    0.0000 C   0  0  0  0  0  0  0  0  0  0  0  0
   -0.8653   -0.5013    0.0000 O   0  0  0  0  0  0  0  0  0  0  0  0
    0.0000    0.0000    0.0000 C   0  0  0  0  0  0  0  0  0  0  0  0
   -0.0000    1.0058    0.0000 C   0  0  0  0  0  0  0  0  0  0  0  0
    0.8680    1.5138    0.0000 C   0  0  0  0  0  0  0  0  0  0  0  0
    1.7360    1.0058    0.0000 C   0  0  0  0  0  0  0  0  0  0  0  0
    1.7360   -0.0012    0.0000 C   0  0  0  0  0  0  0  0  0  0  0  0
    0.8680   -0.4978    0.0000 C   0  0  0  0  0  0  0  0  0  0  0  0
    2.6938   -0.3125    0.0000 C   0  0  0  0  0  0  0  0  0  0  0  0
    3.2858    0.5023    0.0000 C   0  0  0  0  0  0  0  0  0  0  0  0
    2.6938    1.3169    0.0000 N   0  0  0  0  0  0  0  0  0  0  0  0
    3.0028   -1.2636    0.0000 C   0  0  0  0  0  0  0  0  0  0  0  0
    3.9809   -1.4715    0.0000 C   0  0  0  0  0  0  0  0  0  0  0  0
    4.2899   -2.4226    0.0000 N   0  0  0  0  0  0  0  0  0  0  0  0
    5.2680   -2.6306    0.0000 C   0  0  0  0  0  0  0  0  0  0  0  0
    5.9372   -1.8874    0.0000 O   0  0  0  0  0  0  0  0  0  0  0  0
    5.5770   -3.5816    0.0000 C   0  0  0  0  0  0  0  0  0  0  0  0
    6.5551   -3.7896    0.0000 O   0  0  0  0  0  0  0  0  0  0  0  0
    6.8641   -4.7407    0.0000 N   0  0  0  0  0  0  0  0  0  0  0  0
  1  2  1  0  0  0  0
  2  3  1  0  0  0  0
  3  4  1  0  0  0  0
  4  5  1  0  0  0  0
  5 10  2  0  0  0  0
  5  6  1  0  0  0  0
  6  7  2  0  0  0  0
  7  8  1  0  0  0  0
  8 13  1  0  0  0  0
  8  9  2  0  0  0  0
  9 10  1  0  0  0  0
  9 11  1  0  0  0  0
 11 12  2  0  0  0  0
 12 13  1  0  0  0  0
 11 14  1  0  0  0  0
 14 15  1  0  0  0  0
 15 16  1  0  0  0  0
 16 17  1  0  0  0  0
 17 18  2  0  0  0  0
 17 19  1  0  0  0  0
 19 20  1  0  0  0  0
 20 21  1  0  0  0  0
M  END
$$$$
s_240690b____16720624____3025692
  -OEChem-03222016482D

 18 19  0     1  0  0  0  0  0999 V2000
    4.9078   -4.3247    0.0000 C   0  0  0  0  0  0  0  0  0  0  0  0
    5.5770   -3.5816    0.0000 C   0  0  3  0  0  0  0  0  0  0  0  0
    5.2680   -2.6306    0.0000 C   0  0  0  0  0  0  0  0  0  0  0  0
    5.9372   -1.8874    0.0000 O   0  0  0  0  0  0  0  0  0  0  0  0
    4.2899   -2.4226    0.0000 N   0  0  0  0  0  0  0  0  0  0  0  0
    3.9809   -1.4715    0.0000 C   0  0  0  0  0  0  0  0  0  0  0  0
    3.0028   -1.2636    0.0000 C   0  0  0  0  0  0  0  0  0  0  0  0
    2.6938   -0.3125    0.0000 C   0  0  0  0  0  0  0  0  0  0  0  0
    3.2858    0.5023    0.0000 C   0  0  0  0  0  0  0  0  0  0  0  0
    2.6938    1.3169    0.0000 N   0  0  0  0  0  0  0  0  0  0  0  0
    1.7360    1.0058    0.0000 C   0  0  0  0  0  0  0  0  0  0  0  0
    1.7360   -0.0012    0.0000 C   0  0  0  0  0  0  0  0  0  0  0  0
    0.8680   -0.4978    0.0000 C   0  0  0  0  0  0  0  0  0  0  0  0
    0.0000    0.0000    0.0000 C   0  0  0  0  0  0  0  0  0  0  0  0
   -0.0000    1.0058    0.0000 C   0  0  0  0  0  0  0  0  0  0  0  0
    0.8680    1.5138    0.0000 C   0  0  0  0  0  0  0  0  0  0  0  0
    0.8680    2.5138    0.0000 Br  0  0  0  0  0  0  0  0  0  0  0  0
    6.5551   -3.7896    0.0000 N   0  3  0  0  0  0  0  0  0  0  0  0
  1  2  1  0  0  0  0
  2  3  1  0  0  0  0
  3  4  2  0  0  0  0
  3  5  1  0  0  0  0
  5  6  1  0  0  0  0
  6  7  1  0  0  0  0
  7  8  1  0  0  0  0
  8 12  1  0  0  0  0
  8  9  2  0  0  0  0
  9 10  1  0  0  0  0
 10 11  1  0  0  0  0
 11 16  2  0  0  0  0
 11 12  1  0  0  0  0
 12 13  2  0  0  0  0
 13 14  1  0  0  0  0
 14 15  2  0  0  0  0
 15 16  1  0  0  0  0
 16 17  1  0  0  0  0
  2 18  1  0  0  0  0
M  CHG  1  18   1
M  END
$$$$
s_22____4839448____337030
  -OEChem-03222016482D

 19 20  0     0  0  0  0  0  0999 V2000
    6.5551   -3.7896    0.0000 C   0  0  0  0  0  0  0  0  0  0  0  0
    5.5770   -3.5816    0.0000 C   0  0  0  0  0  0  0  0  0  0  0  0
    4.9078   -4.3247    0.0000 C   0  0  0  0  0  0  0  0  0  0  0  0
    5.2680   -2.6306    0.0000 C   0  0  0  0  0  0  0  0  0  0  0  0
    5.9372   -1.8874    0.0000 O   0  0  0  0  0  0  0  0  0  0  0  0
    4.2899   -2.4226    0.0000 N   0  0  0  0  0  0  0  0  0  0  0  0
    3.9809   -1.4715    0.0000 C   0  0  0  0  0  0  0  0  0  0  0  0
    3.0028   -1.2636    0.0000 C   0  0  0  0  0  0  0  0  0  0  0  0
    2.6938   -0.3125    0.0000 C   0  0  0  0  0  0  0  0  0  0  0  0
    3.2858    0.5023    0.0000 C   0  0  0  0  0  0  0  0  0  0  0  0
    2.6938    1.3169    0.0000 N   0  0  0  0  0  0  0  0  0  0  0  0
    1.7360    1.0058    0.0000 C   0  0  0  0  0  0  0  0  0  0  0  0
    1.7360   -0.0012    0.0000 C   0  0  0  0  0  0  0  0  0  0  0  0
    0.8680   -0.4978    0.0000 C   0  0  0  0  0  0  0  0  0  0  0  0
    0.0000    0.0000    0.0000 C   0  0  0  0  0  0  0  0  0  0  0  0
   -0.0000    1.0058    0.0000 C   0  0  0  0  0  0  0  0  0  0  0  0
    0.8680    1.5138    0.0000 C   0  0  0  0  0  0  0  0  0  0  0  0
   -0.8653   -0.5013    0.0000 O   0  0  0  0  0  0  0  0  0  0  0  0
   -0.8639   -1.5013    0.0000 C   0  0  0  0  0  0  0  0  0  0  0  0
  1  2  1  0  0  0  0
  2  3  1  0  0  0  0
  2  4  1  0  0  0  0
  4  5  2  0  0  0  0
  4  6  1  0  0  0  0
  6  7  1  0  0  0  0
  7  8  1  0  0  0  0
  8  9  1  0  0  0  0
  9 13  1  0  0  0  0
  9 10  2  0  0  0  0
 10 11  1  0  0  0  0
 11 12  1  0  0  0  0
 12 17  2  0  0  0  0
 12 13  1  0  0  0  0
 13 14  2  0  0  0  0
 14 15  1  0  0  0  0
 15 16  2  0  0  0  0
 16 17  1  0  0  0  0
 15 18  1  0  0  0  0
 18 19  1  0  0  0  0
M  END
$$$$
s_272164____14971800____9387680
  -OEChem-03222016482D

 22 23  0     0  0  0  0  0  0999 V2000
    1.7327   -2.9983    0.0000 C   0  0  0  0  0  0  0  0  0  0  0  0
    1.7332   -1.9983    0.0000 C   0  0  0  0  0  0  0  0  0  0  0  0
    0.8675   -1.4978    0.0000 O   0  0  0  0  0  0  0  0  0  0  0  0
    0.8680   -0.4978    0.0000 C   0  0  0  0  0  0  0  0  0  0  0  0
    0.0000    0.0000    0.0000 C   0  0  0  0  0  0  0  0  0  0  0  0
   -0.0000    1.0058    0.0000 C   0  0  0  0  0  0  0  0  0  0  0  0
    0.8680    1.5138    0.0000 C   0  0  0  0  0  0  0  0  0  0  0  0
    1.7360    1.0058    0.0000 C   0  0  0  0  0  0  0  0  0  0  0  0
    1.7360   -0.0012    0.0000 C   0  0  0  0  0  0  0  0  0  0  0  0
    2.6938   -0.3125    0.0000 C   0  0  0  0  0  0  0  0  0  0  0  0
    3.2858    0.5023    0.0000 C   0  0  0  0  0  0  0  0  0  0  0  0
    2.6938    1.3169    0.0000 N   0  0  0  0  0  0  0  0  0  0  0  0
    3.0028   -1.2636    0.0000 C   0  0  0  0  0  0  0  0  0  0  0  0
    3.9809   -1.4715    0.0000 C   0  0  0  0  0  0  0  0  0  0  0  0
    4.2899   -2.4226    0.0000 N   0  0  0  0  0  0  0  0  0  0  0  0
    5.2680   -2.6306    0.0000 C   0  0  0  0  0  0  0  0  0  0  0  0
    5.9372   -1.8874    0.0000 O   0  0  0  0  0  0  0  0  0  0  0  0
    5.5770   -3.5816    0.0000 N   0  0  0  0  0  0  0  0  0  0  0  0
    4.9078   -4.3247    0.0000 C   0  0  0  0  0  0  0  0  0  0  0  0
    6.5551   -3.7896    0.0000 C   0  0  0  0  0  0  0  0  0  0  0  0
    6.8641   -4.7407    0.0000 C   0  0  0  0  0  0  0  0  0  0  0  0
    7.1731   -5.6917    0.0000 N   0  0  0  0  0  0  0  0  0  0  0  0
  1  2  1  0  0  0  0
  2  3  1  0  0  0  0
  3  4  1  0  0  0  0
  4  9  2  0  0  0  0
  4  5  1  0  0  0  0
  5  6  2  0  0  0  0
  6  7  1  0  0  0  0
  7  8  2  0  0  0  0
  8 12  1  0  0  0  0
  8  9  1  0  0  0  0
  9 10  1  0  0  0  0
 10 11  2  0  0  0  0
 11 12  1  0  0  0  0
 10 13  1  0  0  0  0
 13 14  1  0  0  0  0
 14 15  1  0  0  0  0
 15 16  1  0  0  0  0
 16 17  2  0  0  0  0
 16 18  1  0  0  0  0
 18 19  1  0  0  0  0
 18 20  1  0  0  0  0
 20 21  1  0  0  0  0
 21 22  3  0  0  0  0
M  END
$$$$
s_22____6079110____58887
  -OEChem-03222016482D

 17 18  0     0  0  0  0  0  0999 V2000
    1.6132   -5.3951    0.0000 C   0  0  0  0  0  0  0  0  0  0  0  0
    2.2824   -4.6519    0.0000 C   0  0  0  0  0  0  0  0  0  0  0  0
    1.9734   -3.7009    0.0000 C   0  0  0  0  0  0  0  0  0  0  0  0
    0.9953   -3.4929    0.0000 O   0  0  0  0  0  0  0  0  0  0  0  0
    2.6426   -2.9578    0.0000 N   0  0  0  0  0  0  0  0  0  0  0  0
    2.3336   -2.0067    0.0000 C   0  0  0  0  0  0  0  0  0  0  0  0
    3.0028   -1.2636    0.0000 C   0  0  0  0  0  0  0  0  0  0  0  0
    2.6938   -0.3125    0.0000 C   0  0  0  0  0  0  0  0  0  0  0  0
    3.2858    0.5023    0.0000 C   0  0  0  0  0  0  0  0  0  0  0  0
    2.6938    1.3169    0.0000 N   0  0  0  0  0  0  0  0  0  0  0  0
    1.7360    1.0058    0.0000 C   0  0  0  0  0  0  0  0  0  0  0  0
    1.7360   -0.0012    0.0000 C   0  0  0  0  0  0  0  0  0  0  0  0
    0.8680   -0.4978    0.0000 C   0  0  0  0  0  0  0  0  0  0  0  0
    0.0000    0.0000    0.0000 C   0  0  0  0  0  0  0  0  0  0  0  0
   -0.0000    1.0058    0.0000 C   0  0  0  0  0  0  0  0  0  0  0  0
    0.8680    1.5138    0.0000 C   0  0  0  0  0  0  0  0  0  0  0  0
   -0.8653   -0.5013    0.0000 Cl  0  0  0  0  0  0  0  0  0  0  0  0
  1  2  1  0  0  0  0
  2  3  1  0  0  0  0
  3  4  2  0  0  0  0
  3  5  1  0  0  0  0
  5  6  1  0  0  0  0
  6  7  1  0  0  0  0
  7  8  1  0  0  0  0
  8 12  1  0  0  0  0
  8  9  2  0  0  0  0
  9 10  1  0  0  0  0
 10 11  1  0  0  0  0
 11 16  2  0  0  0  0
 11 12  1  0  0  0  0
 12 13  2  0  0  0  0
 13 14  1  0  0  0  0
 14 15  2  0  0  0  0
 15 16  1  0  0  0  0
 14 17  1  0  0  0  0
M  END
$$$$
s_240690b____17029356____3025692
  -OEChem-03222016482D

 18 19  0     1  0  0  0  0  0999 V2000
    4.9078   -4.3247    0.0000 C   0  0  0  0  0  0  0  0  0  0  0  0
    5.5770   -3.5816    0.0000 C   0  0  3  0  0  0  0  0  0  0  0  0
    5.2680   -2.6306    0.0000 C   0  0  0  0  0  0  0  0  0  0  0  0
    5.9372   -1.8874    0.0000 O   0  0  0  0  0  0  0  0  0  0  0  0
    4.2899   -2.4226    0.0000 N   0  0  0  0  0  0  0  0  0  0  0  0
    3.9809   -1.4715    0.0000 C   0  0  0  0  0  0  0  0  0  0  0  0
    3.0028   -1.2636    0.0000 C   0  0  0  0  0  0  0  0  0  0  0  0
    2.6938   -0.3125    0.0000 C   0  0  0  0  0  0  0  0  0  0  0  0
    3.2858    0.5023    0.0000 C   0  0  0  0  0  0  0  0  0  0  0  0
    2.6938    1.3169    0.0000 N   0  0  0  0  0  0  0  0  0  0  0  0
    1.7360    1.0058    0.0000 C   0  0  0  0  0  0  0  0  0  0  0  0
    1.7360   -0.0012    0.0000 C   0  0  0  0  0  0  0  0  0  0  0  0
    0.8680   -0.4978    0.0000 C   0  0  0  0  0  0  0  0  0  0  0  0
    0.0000    0.0000    0.0000 C   0  0  0  0  0  0  0  0  0  0  0  0
   -0.0000    1.0058    0.0000 C   0  0  0  0  0  0  0  0  0  0  0  0
    0.8680    1.5138    0.0000 C   0  0  0  0  0  0  0  0  0  0  0  0
   -0.8653   -0.5013    0.0000 F   0  0  0  0  0  0  0  0  0  0  0  0
    6.5551   -3.7896    0.0000 N   0  3  0  0  0  0  0  0  0  0  0  0
  1  2  1  0  0  0  0
  2  3  1  0  0  0  0
  3  4  2  0  0  0  0
  3  5  1  0  0  0  0
  5  6  1  0  0  0  0
  6  7  1  0  0  0  0
  7  8  1  0  0  0  0
  8 12  1  0  0  0  0
  8  9  2  0  0  0  0
  9 10  1  0  0  0  0
 10 11  1  0  0  0  0
 11 16  2  0  0  0  0
 11 12  1  0  0  0  0
 12 13  2  0  0  0  0
 13 14  1  0  0  0  0
 14 15  2  0  0  0  0
 15 16  1  0  0  0  0
 14 17  1  0  0  0  0
  2 18  1  0  0  0  0
M  CHG  1  18   1
M  END
$$$$
s_207____3310404____9105504
  -OEChem-03222016482D

 18 19  0     0  0  0  0  0  0999 V2000
    7.7856    3.1006    0.0000 C   0  0  0  0  0  0  0  0  0  0  0  0
    7.2857    2.2346    0.0000 N   0  0  0  0  0  0  0  0  0  0  0  0
    7.7858    1.3686    0.0000 C   0  0  0  0  0  0  0  0  0  0  0  0
    6.2857    2.2345    0.0000 C   0  0  0  0  0  0  0  0  0  0  0  0
    5.7856    3.1005    0.0000 O   0  0  0  0  0  0  0  0  0  0  0  0
    5.7858    1.3685    0.0000 C   0  0  0  0  0  0  0  0  0  0  0  0
    4.7858    1.3684    0.0000 N   0  3  0  0  0  0  0  0  0  0  0  0
    4.2858    0.5024    0.0000 C   0  0  0  0  0  0  0  0  0  0  0  0
    3.2858    0.5023    0.0000 C   0  0  0  0  0  0  0  0  0  0  0  0
    2.6938   -0.3125    0.0000 C   0  0  0  0  0  0  0  0  0  0  0  0
    1.7360   -0.0012    0.0000 C   0  0  0  0  0  0  0  0  0  0  0  0
    1.7360    1.0058    0.0000 C   0  0  0  0  0  0  0  0  0  0  0  0
    2.6938    1.3169    0.0000 N   0  0  0  0  0  0  0  0  0  0  0  0
    0.8680    1.5138    0.0000 C   0  0  0  0  0  0  0  0  0  0  0  0
    0.0000    1.0058    0.0000 C   0  0  0  0  0  0  0  0  0  0  0  0
    0.0000    0.0000    0.0000 C   0  0  0  0  0  0  0  0  0  0  0  0
    0.8680   -0.4978    0.0000 C   0  0  0  0  0  0  0  0  0  0  0  0
    0.8675   -1.4978    0.0000 F   0  0  0  0  0  0  0  0  0  0  0  0
  1  2  1  0  0  0  0
  2  3  1  0  0  0  0
  2  4  1  0  0  0  0
  4  5  2  0  0  0  0
  4  6  1  0  0  0  0
  6  7  1  0  0  0  0
  7  8  1  0  0  0  0
  8  9  1  0  0  0  0
  9 13  1  0  0  0  0
  9 10  2  0  0  0  0
 10 11  1  0  0  0  0
 11 17  2  0  0  0  0
 11 12  1  0  0  0  0
 12 13  1  0  0  0  0
 12 14  2  0  0  0  0
 14 15  1  0  0  0  0
 15 16  2  0  0  0  0
 16 17  1  0  0  0  0
 17 18  1  0  0  0  0
M  CHG  1   7   1
M  END
$$$$
s_22____13978824____3489590
  -OEChem-03222016482D

 21 22  0     0  0  0  0  0  0999 V2000
   -0.8705    2.5032    0.0000 C   0  0  0  0  0  0  0  0  0  0  0  0
   -0.8675    1.5032    0.0000 O   0  0  0  0  0  0  0  0  0  0  0  0
    0.0000    1.0058    0.0000 C   0  0  0  0  0  0  0  0  0  0  0  0
    0.0000    0.0000    0.0000 C   0  0  0  0  0  0  0  0  0  0  0  0
    0.8680   -0.4978    0.0000 C   0  0  0  0  0  0  0  0  0  0  0  0
    1.7360   -0.0012    0.0000 C   0  0  0  0  0  0  0  0  0  0  0  0
    1.7360    1.0058    0.0000 C   0  0  0  0  0  0  0  0  0  0  0  0
    0.8680    1.5138    0.0000 C   0  0  0  0  0  0  0  0  0  0  0  0
    2.6938    1.3169    0.0000 N   0  0  0  0  0  0  0  0  0  0  0  0
    3.2858    0.5023    0.0000 C   0  0  0  0  0  0  0  0  0  0  0  0
    2.6938   -0.3125    0.0000 C   0  0  0  0  0  0  0  0  0  0  0  0
    3.0028   -1.2636    0.0000 C   0  0  0  0  0  0  0  0  0  0  0  0
    3.9809   -1.4715    0.0000 C   0  0  0  0  0  0  0  0  0  0  0  0
    4.2899   -2.4226    0.0000 N   0  0  0  0  0  0  0  0  0  0  0  0
    5.2680   -2.6306    0.0000 C   0  0  0  0  0  0  0  0  0  0  0  0
    5.9372   -1.8874    0.0000 O   0  0  0  0  0  0  0  0  0  0  0  0
    5.5770   -3.5816    0.0000 C   0  0  0  0  0  0  0  0  0  0  0  0
    6.5551   -3.7896    0.0000 O   0  0  0  0  0  0  0  0  0  0  0  0
    6.8641   -4.7407    0.0000 C   0  0  0  0  0  0  0  0  0  0  0  0
    7.8422   -4.9486    0.0000 C   0  0  0  0  0  0  0  0  0  0  0  0
    8.1512   -5.8997    0.0000 C   0  0  0  0  0  0  0  0  0  0  0  0
  1  2  1  0  0  0  0
  2  3  1  0  0  0  0
  3  8  2  0  0  0  0
  3  4  1  0  0  0  0
  4  5  2  0  0  0  0
  5  6  1  0  0  0  0
  6 11  1  0  0  0  0
  6  7  2  0  0  0  0
  7  8  1  0  0  0  0
  7  9  1  0  0  0  0
  9 10  1  0  0  0  0
 10 11  2  0  0  0  0
 11 12  1  0  0  0  0
 12 13  1  0  0  0  0
 13 14  1  0  0  0  0
 14 15  1  0  0  0  0
 15 16  2  0  0  0  0
 15 17  1  0  0  0  0
 17 18  1  0  0  0  0
 18 19  1  0  0  0  0
 19 20  1  0  0  0  0
 20 21  2  0  0  0  0
M  END
$$$$
s_22____9226532____7941096
  -OEChem-03222016482D

 20 21  0     1  0  0  0  0  0999 V2000
    1.7327   -2.9983    0.0000 C   0  0  0  0  0  0  0  0  0  0  0  0
    1.7332   -1.9983    0.0000 C   0  0  0  0  0  0  0  0  0  0  0  0
    0.8675   -1.4978    0.0000 O   0  0  0  0  0  0  0  0  0  0  0  0
    0.8680   -0.4978    0.0000 C   0  0  0  0  0  0  0  0  0  0  0  0
    0.0000    0.0000    0.0000 C   0  0  0  0  0  0  0  0  0  0  0  0
   -0.0000    1.0058    0.0000 C   0  0  0  0  0  0  0  0  0  0  0  0
    0.8680    1.5138    0.0000 C   0  0  0  0  0  0  0  0  0  0  0  0
    1.7360    1.0058    0.0000 C   0  0  0  0  0  0  0  0  0  0  0  0
    1.7360   -0.0012    0.0000 C   0  0  0  0  0  0  0  0  0  0  0  0
    2.6938   -0.3125    0.0000 C   0  0  0  0  0  0  0  0  0  0  0  0
    3.2858    0.5023    0.0000 C   0  0  0  0  0  0  0  0  0  0  0  0
    2.6938    1.3169    0.0000 N   0  0  0  0  0  0  0  0  0  0  0  0
    3.0028   -1.2636    0.0000 C   0  0  0  0  0  0  0  0  0  0  0  0
    3.9809   -1.4715    0.0000 C   0  0  0  0  0  0  0  0  0  0  0  0
    4.2899   -2.4226    0.0000 N   0  0  0  0  0  0  0  0  0  0  0  0
    5.2680   -2.6306    0.0000 C   0  0  0  0  0  0  0  0  0  0  0  0
    5.9372   -1.8874    0.0000 O   0  0  0  0  0  0  0  0  0  0  0  0
    5.5770   -3.5816    0.0000 C   0  0  3  0  0  0  0  0  0  0  0  0
    6.5551   -3.7896    0.0000 C   0  0  0  0  0  0  0  0  0  0  0  0
    4.9078   -4.3247    0.0000 O   0  0  0  0  0  0  0  0  0  0  0  0
  1  2  1  0  0  0  0
  2  3  1  0  0  0  0
  3  4  1  0  0  0  0
  4  9  2  0  0  0  0
  4  5  1  0  0  0  0
  5  6  2  0  0  0  0
  6  7  1  0  0  0  0
  7  8  2  0  0  0  0
  8 12  1  0  0  0  0
  8  9  1  0  0  0  0
  9 10  1  0  0  0  0
 10 11  2  0  0  0  0
 11 12  1  0  0  0  0
 10 13  1  0  0  0  0
 13 14  1  0  0  0  0
 14 15  1  0  0  0  0
 15 16  1  0  0  0  0
 16 17  2  0  0  0  0
 16 18  1  0  0  0  0
 18 19  1  0  0  0  0
 18 20  1  0  0  0  0
M  END
$$$$
s_22____4839448____16890190
  -OEChem-03222016482D

 20 21  0     1  0  0  0  0  0999 V2000
    0.6351   -5.1871    0.0000 C   0  0  0  0  0  0  0  0  0  0  0  0
    1.6132   -5.3951    0.0000 C   0  0  3  0  0  0  0  0  0  0  0  0
    2.2824   -4.6519    0.0000 C   0  0  0  0  0  0  0  0  0  0  0  0
    1.9734   -3.7009    0.0000 C   0  0  0  0  0  0  0  0  0  0  0  0
    0.9953   -3.4929    0.0000 O   0  0  0  0  0  0  0  0  0  0  0  0
    2.6426   -2.9578    0.0000 N   0  0  0  0  0  0  0  0  0  0  0  0
    2.3336   -2.0067    0.0000 C   0  0  0  0  0  0  0  0  0  0  0  0
    3.0028   -1.2636    0.0000 C   0  0  0  0  0  0  0  0  0  0  0  0
    2.6938   -0.3125    0.0000 C   0  0  0  0  0  0  0  0  0  0  0  0
    3.2858    0.5023    0.0000 C   0  0  0  0  0  0  0  0  0  0  0  0
    2.6938    1.3169    0.0000 N   0  0  0  0  0  0  0  0  0  0  0  0
    1.7360    1.0058    0.0000 C   0  0  0  0  0  0  0  0  0  0  0  0
    1.7360   -0.0012    0.0000 C   0  0  0  0  0  0  0  0  0  0  0  0
    0.8680   -0.4978    0.0000 C   0  0  0  0  0  0  0  0  0  0  0  0
    0.0000    0.0000    0.0000 C   0  0  0  0  0  0  0  0  0  0  0  0
   -0.0000    1.0058    0.0000 C   0  0  0  0  0  0  0  0  0  0  0  0
    0.8680    1.5138    0.0000 C   0  0  0  0  0  0  0  0  0  0  0  0
   -0.8653   -0.5013    0.0000 O   0  0  0  0  0  0  0  0  0  0  0  0
   -0.8639   -1.5013    0.0000 C   0  0  0  0  0  0  0  0  0  0  0  0
    1.9222   -6.3461    0.0000 F   0  0  0  0  0  0  0  0  0  0  0  0
  1  2  1  0  0  0  0
  2  3  1  0  0  0  0
  3  4  1  0  0  0  0
  4  5  2  0  0  0  0
  4  6  1  0  0  0  0
  6  7  1  0  0  0  0
  7  8  1  0  0  0  0
  8  9  1  0  0  0  0
  9 13  1  0  0  0  0
  9 10  2  0  0  0  0
 10 11  1  0  0  0  0
 11 12  1  0  0  0  0
 12 17  2  0  0  0  0
 12 13  1  0  0  0  0
 13 14  2  0  0  0  0
 14 15  1  0  0  0  0
 15 16  2  0  0  0  0
 16 17  1  0  0  0  0
 15 18  1  0  0  0  0
 18 19  1  0  0  0  0
  2 20  1  0  0  0  0
M  END
$$$$
s_22____4839448____13040272
  -OEChem-03222016482D

 21 22  0     0  0  0  0  0  0999 V2000
   -1.7320   -0.0025    0.0000 C   0  0  0  0  0  0  0  0  0  0  0  0
   -0.8653   -0.5013    0.0000 O   0  0  0  0  0  0  0  0  0  0  0  0
    0.0000    0.0000    0.0000 C   0  0  0  0  0  0  0  0  0  0  0  0
   -0.0000    1.0058    0.0000 C   0  0  0  0  0  0  0  0  0  0  0  0
    0.8680    1.5138    0.0000 C   0  0  0  0  0  0  0  0  0  0  0  0
    1.7360    1.0058    0.0000 C   0  0  0  0  0  0  0  0  0  0  0  0
    1.7360   -0.0012    0.0000 C   0  0  0  0  0  0  0  0  0  0  0  0
    0.8680   -0.4978    0.0000 C   0  0  0  0  0  0  0  0  0  0  0  0
    2.6938   -0.3125    0.0000 C   0  0  0  0  0  0  0  0  0  0  0  0
    3.2858    0.5023    0.0000 C   0  0  0  0  0  0  0  0  0  0  0  0
    2.6938    1.3169    0.0000 N   0  0  0  0  0  0  0  0  0  0  0  0
    3.0028   -1.2636    0.0000 C   0  0  0  0  0  0  0  0  0  0  0  0
    3.9809   -1.4715    0.0000 C   0  0  0  0  0  0  0  0  0  0  0  0
    4.2899   -2.4226    0.0000 N   0  0  0  0  0  0  0  0  0  0  0  0
    5.2680   -2.6306    0.0000 C   0  0  0  0  0  0  0  0  0  0  0  0
    5.9372   -1.8874    0.0000 O   0  0  0  0  0  0  0  0  0  0  0  0
    5.5770   -3.5816    0.0000 C   0  0  0  0  0  0  0  0  0  0  0  0
    6.5551   -3.7896    0.0000 S   0  0  0  0  0  0  0  0  0  0  0  0
    6.8641   -4.7407    0.0000 C   0  0  0  0  0  0  0  0  0  0  0  0
    7.8422   -4.9486    0.0000 C   0  0  0  0  0  0  0  0  0  0  0  0
    8.8204   -5.1566    0.0000 C   0  0  0  0  0  0  0  0  0  0  0  0
  1  2  1  0  0  0  0
  2  3  1  0  0  0  0
  3  8  2  0  0  0  0
  3  4  1  0  0  0  0
  4  5  2  0  0  0  0
  5  6  1  0  0  0  0
  6 11  1  0  0  0  0
  6  7  2  0  0  0  0
  7  8  1  0  0  0  0
  7  9  1  0  0  0  0
  9 10  2  0  0  0  0
 10 11  1  0  0  0  0
  9 12  1  0  0  0  0
 12 13  1  0  0  0  0
 13 14  1  0  0  0  0
 14 15  1  0  0  0  0
 15 16  2  0  0  0  0
 15 17  1  0  0  0  0
 17 18  1  0  0  0  0
 18 19  1  0  0  0  0
 19 20  1  0  0  0  0
 20 21  3  0  0  0  0
M  END
$$$$
s_240690b____7360096____3025692
  -OEChem-03222016482D

 18 19  0     1  0  0  0  0  0999 V2000
    4.9078   -4.3247    0.0000 C   0  0  0  0  0  0  0  0  0  0  0  0
    5.5770   -3.5816    0.0000 C   0  0  3  0  0  0  0  0  0  0  0  0
    5.2680   -2.6306    0.0000 C   0  0  0  0  0  0  0  0  0  0  0  0
    5.9372   -1.8874    0.0000 O   0  0  0  0  0  0  0  0  0  0  0  0
    4.2899   -2.4226    0.0000 N   0  0  0  0  0  0  0  0  0  0  0  0
    3.9809   -1.4715    0.0000 C   0  0  0  0  0  0  0  0  0  0  0  0
    3.0028   -1.2636    0.0000 C   0  0  0  0  0  0  0  0  0  0  0  0
    2.6938   -0.3125    0.0000 C   0  0  0  0  0  0  0  0  0  0  0  0
    3.2858    0.5023    0.0000 C   0  0  0  0  0  0  0  0  0  0  0  0
    2.6938    1.3169    0.0000 N   0  0  0  0  0  0  0  0  0  0  0  0
    1.7360    1.0058    0.0000 C   0  0  0  0  0  0  0  0  0  0  0  0
    1.7360   -0.0012    0.0000 C   0  0  0  0  0  0  0  0  0  0  0  0
    0.8680   -0.4978    0.0000 C   0  0  0  0  0  0  0  0  0  0  0  0
    0.0000    0.0000    0.0000 C   0  0  0  0  0  0  0  0  0  0  0  0
   -0.0000    1.0058    0.0000 C   0  0  0  0  0  0  0  0  0  0  0  0
    0.8680    1.5138    0.0000 C   0  0  0  0  0  0  0  0  0  0  0  0
   -0.8675    1.5032    0.0000 Cl  0  0  0  0  0  0  0  0  0  0  0  0
    6.5551   -3.7896    0.0000 N   0  3  0  0  0  0  0  0  0  0  0  0
  1  2  1  0  0  0  0
  2  3  1  0  0  0  0
  3  4  2  0  0  0  0
  3  5  1  0  0  0  0
  5  6  1  0  0  0  0
  6  7  1  0  0  0  0
  7  8  1  0  0  0  0
  8 12  1  0  0  0  0
  8  9  2  0  0  0  0
  9 10  1  0  0  0  0
 10 11  1  0  0  0  0
 11 16  2  0  0  0  0
 11 12  1  0  0  0  0
 12 13  2  0  0  0  0
 13 14  1  0  0  0  0
 14 15  2  0  0  0  0
 15 16  1  0  0  0  0
 15 17  1  0  0  0  0
  2 18  1  0  0  0  0
M  CHG  1  18   1
M  END
$$$$
s_270062____16430922____8147258
  -OEChem-03222016482D

 17 18  0     0  0  0  0  0  0999 V2000
   -0.0000    1.0058    0.0000 C   0  0  0  0  0  0  0  0  0  0  0  0
    0.8680    1.5138    0.0000 C   0  0  0  0  0  0  0  0  0  0  0  0
    1.7360    1.0058    0.0000 C   0  0  0  0  0  0  0  0  0  0  0  0
    1.7360   -0.0012    0.0000 C   0  0  0  0  0  0  0  0  0  0  0  0
    0.8680   -0.4978    0.0000 C   0  0  0  0  0  0  0  0  0  0  0  0
    0.0000    0.0000    0.0000 C   0  0  0  0  0  0  0  0  0  0  0  0
    0.8675   -1.4978    0.0000 Br  0  0  0  0  0  0  0  0  0  0  0  0
    2.6938   -0.3125    0.0000 C   0  0  0  0  0  0  0  0  0  0  0  0
    3.2858    0.5023    0.0000 C   0  0  0  0  0  0  0  0  0  0  0  0
    2.6938    1.3169    0.0000 N   0  0  0  0  0  0  0  0  0  0  0  0
    3.0028   -1.2636    0.0000 C   0  0  0  0  0  0  0  0  0  0  0  0
    3.9809   -1.4715    0.0000 C   0  0  0  0  0  0  0  0  0  0  0  0
    4.2899   -2.4226    0.0000 N   0  0  0  0  0  0  0  0  0  0  0  0
    5.2680   -2.6306    0.0000 C   0  0  0  0  0  0  0  0  0  0  0  0
    5.9372   -1.8874    0.0000 O   0  0  0  0  0  0  0  0  0  0  0  0
    5.5770   -3.5816    0.0000 C   0  0  0  0  0  0  0  0  0  0  0  0
    6.5551   -3.7896    0.0000 Cl  0  0  0  0  0  0  0  0  0  0  0  0
  1  6  2  0  0  0  0
  1  2  1  0  0  0  0
  2  3  2  0  0  0  0
  3 10  1  0  0  0  0
  3  4  1  0  0  0  0
  4  5  2  0  0  0  0
  5  6  1  0  0  0  0
  5  7  1  0  0  0  0
  4  8  1  0  0  0  0
  8  9  2  0  0  0  0
  9 10  1  0  0  0  0
  8 11  1  0  0  0  0
 11 12  1  0  0  0  0
 12 13  1  0  0  0  0
 13 14  1  0  0  0  0
 14 15  2  0  0  0  0
 14 16  1  0  0  0  0
 16 17  1  0  0  0  0
M  END
$$$$
s_22____5635330____9296322
  -OEChem-03222016482D

 18 19  0     0  0  0  0  0  0999 V2000
    6.1949   -5.4838    0.0000 C   0  0  0  0  0  0  0  0  0  0  0  0
    5.8860   -4.5327    0.0000 C   0  0  0  0  0  0  0  0  0  0  0  0
    5.5770   -3.5816    0.0000 C   0  0  0  0  0  0  0  0  0  0  0  0
    5.2680   -2.6306    0.0000 C   0  0  0  0  0  0  0  0  0  0  0  0
    5.9372   -1.8874    0.0000 O   0  0  0  0  0  0  0  0  0  0  0  0
    4.2899   -2.4226    0.0000 N   0  0  0  0  0  0  0  0  0  0  0  0
    3.9809   -1.4715    0.0000 C   0  0  0  0  0  0  0  0  0  0  0  0
    3.0028   -1.2636    0.0000 C   0  0  0  0  0  0  0  0  0  0  0  0
    2.6938   -0.3125    0.0000 C   0  0  0  0  0  0  0  0  0  0  0  0
    3.2858    0.5023    0.0000 C   0  0  0  0  0  0  0  0  0  0  0  0
    2.6938    1.3169    0.0000 N   0  0  0  0  0  0  0  0  0  0  0  0
    1.7360    1.0058    0.0000 C   0  0  0  0  0  0  0  0  0  0  0  0
    1.7360   -0.0012    0.0000 C   0  0  0  0  0  0  0  0  0  0  0  0
    0.8680   -0.4978    0.0000 C   0  0  0  0  0  0  0  0  0  0  0  0
    0.0000    0.0000    0.0000 C   0  0  0  0  0  0  0  0  0  0  0  0
   -0.0000    1.0058    0.0000 C   0  0  0  0  0  0  0  0  0  0  0  0
    0.8680    1.5138    0.0000 C   0  0  0  0  0  0  0  0  0  0  0  0
    0.8680    2.5138    0.0000 C   0  0  0  0  0  0  0  0  0  0  0  0
  1  2  1  0  0  0  0
  2  3  3  0  0  0  0
  3  4  1  0  0  0  0
  4  5  2  0  0  0  0
  4  6  1  0  0  0  0
  6  7  1  0  0  0  0
  7  8  1  0  0  0  0
  8  9  1  0  0  0  0
  9 13  1  0  0  0  0
  9 10  2  0  0  0  0
 10 11  1  0  0  0  0
 11 12  1  0  0  0  0
 12 17  2  0  0  0  0
 12 13  1  0  0  0  0
 13 14  2  0  0  0  0
 14 15  1  0  0  0  0
 15 16  2  0  0  0  0
 16 17  1  0  0  0  0
 17 18  1  0  0  0  0
M  END
$$$$
s_22____13978824____13206548
  -OEChem-03222016482D

 20 21  0     0  0  0  0  0  0999 V2000
    6.8641   -4.7407    0.0000 C   0  0  0  0  0  0  0  0  0  0  0  0
    6.5551   -3.7896    0.0000 C   0  0  0  0  0  0  0  0  0  0  0  0
    5.5770   -3.5816    0.0000 C   0  0  0  0  0  0  0  0  0  0  0  0
    4.9078   -4.3247    0.0000 C   0  0  0  0  0  0  0  0  0  0  0  0
    5.2680   -2.6306    0.0000 C   0  0  0  0  0  0  0  0  0  0  0  0
    5.9372   -1.8874    0.0000 O   0  0  0  0  0  0  0  0  0  0  0  0
    4.2899   -2.4226    0.0000 N   0  0  0  0  0  0  0  0  0  0  0  0
    3.9809   -1.4715    0.0000 C   0  0  0  0  0  0  0  0  0  0  0  0
    3.0028   -1.2636    0.0000 C   0  0  0  0  0  0  0  0  0  0  0  0
    2.6938   -0.3125    0.0000 C   0  0  0  0  0  0  0  0  0  0  0  0
    3.2858    0.5023    0.0000 C   0  0  0  0  0  0  0  0  0  0  0  0
    2.6938    1.3169    0.0000 N   0  0  0  0  0  0  0  0  0  0  0  0
    1.7360    1.0058    0.0000 C   0  0  0  0  0  0  0  0  0  0  0  0
    1.7360   -0.0012    0.0000 C   0  0  0  0  0  0  0  0  0  0  0  0
    0.8680   -0.4978    0.0000 C   0  0  0  0  0  0  0  0  0  0  0  0
    0.0000    0.0000    0.0000 C   0  0  0  0  0  0  0  0  0  0  0  0
   -0.0000    1.0058    0.0000 C   0  0  0  0  0  0  0  0  0  0  0  0
    0.8680    1.5138    0.0000 C   0  0  0  0  0  0  0  0  0  0  0  0
   -0.8675    1.5032    0.0000 O   0  0  0  0  0  0  0  0  0  0  0  0
   -1.7320    1.0007    0.0000 C   0  0  0  0  0  0  0  0  0  0  0  0
  1  2  1  0  0  0  0
  2  3  1  0  0  0  0
  3  4  2  0  0  0  0
  3  5  1  0  0  0  0
  5  6  2  0  0  0  0
  5  7  1  0  0  0  0
  7  8  1  0  0  0  0
  8  9  1  0  0  0  0
  9 10  1  0  0  0  0
 10 14  1  0  0  0  0
 10 11  2  0  0  0  0
 11 12  1  0  0  0  0
 12 13  1  0  0  0  0
 13 18  2  0  0  0  0
 13 14  1  0  0  0  0
 14 15  2  0  0  0  0
 15 16  1  0  0  0  0
 16 17  2  0  0  0  0
 17 18  1  0  0  0  0
 17 19  1  0  0  0  0
 19 20  1  0  0  0  0
M  END
$$$$
s_2554____16900474____951600
  -OEChem-03222016482D

 18 19  0     0  0  0  0  0  0999 V2000
    6.8641   -4.7407    0.0000 C   0  0  0  0  0  0  0  0  0  0  0  0
    6.5551   -3.7896    0.0000 C   0  0  0  0  0  0  0  0  0  0  0  0
    5.5770   -3.5816    0.0000 N   0  0  0  0  0  0  0  0  0  0  0  0
    5.2680   -2.6306    0.0000 C   0  0  0  0  0  0  0  0  0  0  0  0
    5.9372   -1.8874    0.0000 O   0  0  0  0  0  0  0  0  0  0  0  0
    4.2899   -2.4226    0.0000 N   0  0  0  0  0  0  0  0  0  0  0  0
    3.9809   -1.4715    0.0000 C   0  0  0  0  0  0  0  0  0  0  0  0
    3.0028   -1.2636    0.0000 C   0  0  0  0  0  0  0  0  0  0  0  0
    2.6938   -0.3125    0.0000 C   0  0  0  0  0  0  0  0  0  0  0  0
    3.2858    0.5023    0.0000 C   0  0  0  0  0  0  0  0  0  0  0  0
    2.6938    1.3169    0.0000 N   0  0  0  0  0  0  0  0  0  0  0  0
    1.7360    1.0058    0.0000 C   0  0  0  0  0  0  0  0  0  0  0  0
    1.7360   -0.0012    0.0000 C   0  0  0  0  0  0  0  0  0  0  0  0
    0.8680   -0.4978    0.0000 C   0  0  0  0  0  0  0  0  0  0  0  0
    0.0000    0.0000    0.0000 C   0  0  0  0  0  0  0  0  0  0  0  0
   -0.0000    1.0058    0.0000 C   0  0  0  0  0  0  0  0  0  0  0  0
    0.8680    1.5138    0.0000 C   0  0  0  0  0  0  0  0  0  0  0  0
    0.8675   -1.4978    0.0000 F   0  0  0  0  0  0  0  0  0  0  0  0
  1  2  1  0  0  0  0
  2  3  1  0  0  0  0
  3  4  1  0  0  0  0
  4  5  2  0  0  0  0
  4  6  1  0  0  0  0
  6  7  1  0  0  0  0
  7  8  1  0  0  0  0
  8  9  1  0  0  0  0
  9 13  1  0  0  0  0
  9 10  2  0  0  0  0
 10 11  1  0  0  0  0
 11 12  1  0  0  0  0
 12 17  2  0  0  0  0
 12 13  1  0  0  0  0
 13 14  2  0  0  0  0
 14 15  1  0  0  0  0
 15 16  2  0  0  0  0
 16 17  1  0  0  0  0
 14 18  1  0  0  0  0
M  END
$$$$
EN300-367098
  -OEChem-03222016482D

 14 15  0     0  0  0  0  0  0999 V2000
    0.0012   -1.9973    0.0000 C   0  0  0  0  0  0  0  0  0  0  0  0
    0.8675   -1.4978    0.0000 O   0  0  0  0  0  0  0  0  0  0  0  0
    0.8680   -0.4978    0.0000 C   0  0  0  0  0  0  0  0  0  0  0  0
    0.0000    0.0000    0.0000 C   0  0  0  0  0  0  0  0  0  0  0  0
   -0.0000    1.0058    0.0000 C   0  0  0  0  0  0  0  0  0  0  0  0
    0.8680    1.5138    0.0000 C   0  0  0  0  0  0  0  0  0  0  0  0
    1.7360    1.0058    0.0000 C   0  0  0  0  0  0  0  0  0  0  0  0
    1.7360   -0.0012    0.0000 C   0  0  0  0  0  0  0  0  0  0  0  0
    2.6938   -0.3125    0.0000 C   0  0  0  0  0  0  0  0  0  0  0  0
    3.2858    0.5023    0.0000 C   0  0  0  0  0  0  0  0  0  0  0  0
    2.6938    1.3169    0.0000 N   0  0  0  0  0  0  0  0  0  0  0  0
    3.0028   -1.2636    0.0000 C   0  0  0  0  0  0  0  0  0  0  0  0
    3.9809   -1.4715    0.0000 C   0  0  0  0  0  0  0  0  0  0  0  0
    4.2899   -2.4226    0.0000 N   0  3  0  0  0  0  0  0  0  0  0  0
  1  2  1  0  0  0  0
  2  3  1  0  0  0  0
  3  8  2  0  0  0  0
  3  4  1  0  0  0  0
  4  5  2  0  0  0  0
  5  6  1  0  0  0  0
  6  7  2  0  0  0  0
  7 11  1  0  0  0  0
  7  8  1  0  0  0  0
  8  9  1  0  0  0  0
  9 10  2  0  0  0  0
 10 11  1  0  0  0  0
  9 12  1  0  0  0  0
 12 13  1  0  0  0  0
 13 14  1  0  0  0  0
M  CHG  1  14   1
M  END
$$$$
s_22____7533902____337030
  -OEChem-03222016482D

 17 18  0     0  0  0  0  0  0999 V2000
    7.7856    3.1006    0.0000 C   0  0  0  0  0  0  0  0  0  0  0  0
    7.2857    2.2346    0.0000 C   0  0  0  0  0  0  0  0  0  0  0  0
    7.7857    1.3686    0.0000 C   0  0  0  0  0  0  0  0  0  0  0  0
    6.2857    2.2345    0.0000 C   0  0  0  0  0  0  0  0  0  0  0  0
    5.7856    3.1005    0.0000 O   0  0  0  0  0  0  0  0  0  0  0  0
    5.7857    1.3685    0.0000 N   0  0  0  0  0  0  0  0  0  0  0  0
    4.7857    1.3684    0.0000 C   0  0  0  0  0  0  0  0  0  0  0  0
    4.2858    0.5024    0.0000 C   0  0  0  0  0  0  0  0  0  0  0  0
    3.2858    0.5023    0.0000 C   0  0  0  0  0  0  0  0  0  0  0  0
    2.6938   -0.3125    0.0000 C   0  0  0  0  0  0  0  0  0  0  0  0
    1.7360   -0.0012    0.0000 C   0  0  0  0  0  0  0  0  0  0  0  0
    0.8680   -0.4978    0.0000 C   0  0  0  0  0  0  0  0  0  0  0  0
    0.0000    0.0000    0.0000 C   0  0  0  0  0  0  0  0  0  0  0  0
    0.0000    1.0058    0.0000 C   0  0  0  0  0  0  0  0  0  0  0  0
    0.8680    1.5138    0.0000 C   0  0  0  0  0  0  0  0  0  0  0  0
    1.7360    1.0058    0.0000 C   0  0  0  0  0  0  0  0  0  0  0  0
    2.6938    1.3169    0.0000 N   0  0  0  0  0  0  0  0  0  0  0  0
  1  2  1  0  0  0  0
  2  3  1  0  0  0  0
  2  4  1  0  0  0  0
  4  5  2  0  0  0  0
  4  6  1  0  0  0  0
  6  7  1  0  0  0  0
  7  8  1  0  0  0  0
  8  9  1  0  0  0  0
  9 17  1  0  0  0  0
  9 10  2  0  0  0  0
 10 11  1  0  0  0  0
 11 16  2  0  0  0  0
 11 12  1  0  0  0  0
 12 13  2  0  0  0  0
 13 14  1  0  0  0  0
 14 15  2  0  0  0  0
 15 16  1  0  0  0  0
 16 17  1  0  0  0  0
M  END
$$$$
s_512____7344786____4839458
  -OEChem-03222016482D

 21 22  0     0  0  0  0  0  0999 V2000
   -1.7320   -0.0025    0.0000 C   0  0  0  0  0  0  0  0  0  0  0  0
   -0.8653   -0.5013    0.0000 O   0  0  0  0  0  0  0  0  0  0  0  0
    0.0000    0.0000    0.0000 C   0  0  0  0  0  0  0  0  0  0  0  0
   -0.0000    1.0058    0.0000 C   0  0  0  0  0  0  0  0  0  0  0  0
    0.8680    1.5138    0.0000 C   0  0  0  0  0  0  0  0  0  0  0  0
    1.7360    1.0058    0.0000 C   0  0  0  0  0  0  0  0  0  0  0  0
    1.7360   -0.0012    0.0000 C   0  0  0  0  0  0  0  0  0  0  0  0
    0.8680   -0.4978    0.0000 C   0  0  0  0  0  0  0  0  0  0  0  0
    2.6938   -0.3125    0.0000 C   0  0  0  0  0  0  0  0  0  0  0  0
    3.2858    0.5023    0.0000 C   0  0  0  0  0  0  0  0  0  0  0  0
    2.6938    1.3169    0.0000 N   0  0  0  0  0  0  0  0  0  0  0  0
    3.0028   -1.2636    0.0000 C   0  0  0  0  0  0  0  0  0  0  0  0
    3.9809   -1.4715    0.0000 C   0  0  0  0  0  0  0  0  0  0  0  0
    4.2899   -2.4226    0.0000 N   0  0  0  0  0  0  0  0  0  0  0  0
    5.2680   -2.6306    0.0000 C   0  0  0  0  0  0  0  0  0  0  0  0
    5.9372   -1.8874    0.0000 O   0  0  0  0  0  0  0  0  0  0  0  0
    5.5770   -3.5816    0.0000 N   0  0  0  0  0  0  0  0  0  0  0  0
    6.5551   -3.7896    0.0000 C   0  0  0  0  0  0  0  0  0  0  0  0
    6.8641   -4.7407    0.0000 C   0  0  0  0  0  0  0  0  0  0  0  0
    7.8422   -4.9486    0.0000 C   0  0  0  0  0  0  0  0  0  0  0  0
    8.1512   -5.8997    0.0000 F   0  0  0  0  0  0  0  0  0  0  0  0
  1  2  1  0  0  0  0
  2  3  1  0  0  0  0
  3  8  2  0  0  0  0
  3  4  1  0  0  0  0
  4  5  2  0  0  0  0
  5  6  1  0  0  0  0
  6 11  1  0  0  0  0
  6  7  2  0  0  0  0
  7  8  1  0  0  0  0
  7  9  1  0  0  0  0
  9 10  2  0  0  0  0
 10 11  1  0  0  0  0
  9 12  1  0  0  0  0
 12 13  1  0  0  0  0
 13 14  1  0  0  0  0
 14 15  1  0  0  0  0
 15 16  2  0  0  0  0
 15 17  1  0  0  0  0
 17 18  1  0  0  0  0
 18 19  1  0  0  0  0
 19 20  1  0  0  0  0
 20 21  1  0  0  0  0
M  END
$$$$
s_270062____7623638____15585492
  -OEChem-03222016482D

 20 21  0     0  0  0  0  0  0999 V2000
    7.7860   -2.0955    0.0000 C   0  0  0  0  0  0  0  0  0  0  0  0
    7.2859   -1.2295    0.0000 C   0  0  0  0  0  0  0  0  0  0  0  0
    7.7859   -0.3635    0.0000 O   0  0  0  0  0  0  0  0  0  0  0  0
    6.2859   -1.2296    0.0000 N   0  0  0  0  0  0  0  0  0  0  0  0
    5.7859   -0.3636    0.0000 C   0  0  0  0  0  0  0  0  0  0  0  0
    4.7859   -0.3636    0.0000 C   0  0  0  0  0  0  0  0  0  0  0  0
    4.2858    0.5024    0.0000 C   0  0  0  0  0  0  0  0  0  0  0  0
    3.2858    0.5023    0.0000 C   0  0  0  0  0  0  0  0  0  0  0  0
    2.6938   -0.3125    0.0000 C   0  0  0  0  0  0  0  0  0  0  0  0
    1.7360   -0.0012    0.0000 C   0  0  0  0  0  0  0  0  0  0  0  0
    1.7360    1.0058    0.0000 C   0  0  0  0  0  0  0  0  0  0  0  0
    2.6938    1.3169    0.0000 N   0  0  0  0  0  0  0  0  0  0  0  0
    0.8680    1.5138    0.0000 C   0  0  0  0  0  0  0  0  0  0  0  0
    0.0000    1.0058    0.0000 C   0  0  0  0  0  0  0  0  0  0  0  0
    0.0000    0.0000    0.0000 C   0  0  0  0  0  0  0  0  0  0  0  0
    0.8680   -0.4978    0.0000 C   0  0  0  0  0  0  0  0  0  0  0  0
    0.8675   -1.4978    0.0000 O   0  0  0  0  0  0  0  0  0  0  0  0
    1.7332   -1.9983    0.0000 C   0  0  0  0  0  0  0  0  0  0  0  0
   -0.8675    1.5032    0.0000 O   0  0  0  0  0  0  0  0  0  0  0  0
   -1.7320    1.0007    0.0000 C   0  0  0  0  0  0  0  0  0  0  0  0
  1  2  1  0  0  0  0
  2  3  2  0  0  0  0
  2  4  1  0  0  0  0
  4  5  1  0  0  0  0
  5  6  1  0  0  0  0
  6  7  1  0  0  0  0
  7  8  1  0  0  0  0
  8 12  1  0  0  0  0
  8  9  2  0  0  0  0
  9 10  1  0  0  0  0
 10 16  2  0  0  0  0
 10 11  1  0  0  0  0
 11 12  1  0  0  0  0
 11 13  2  0  0  0  0
 13 14  1  0  0  0  0
 14 15  2  0  0  0  0
 15 16  1  0  0  0  0
 16 17  1  0  0  0  0
 17 18  1  0  0  0  0
 14 19  1  0  0  0  0
 19 20  1  0  0  0  0
M  END
$$$$
s_22____9631354____7941096
  -OEChem-03222016482D

 18 19  0     1  0  0  0  0  0999 V2000
    4.9078   -4.3247    0.0000 C   0  0  0  0  0  0  0  0  0  0  0  0
    5.5770   -3.5816    0.0000 C   0  0  3  0  0  0  0  0  0  0  0  0
    5.2680   -2.6306    0.0000 C   0  0  0  0  0  0  0  0  0  0  0  0
    5.9372   -1.8874    0.0000 O   0  0  0  0  0  0  0  0  0  0  0  0
    4.2899   -2.4226    0.0000 N   0  0  0  0  0  0  0  0  0  0  0  0
    3.9809   -1.4715    0.0000 C   0  0  0  0  0  0  0  0  0  0  0  0
    3.0028   -1.2636    0.0000 C   0  0  0  0  0  0  0  0  0  0  0  0
    2.6938   -0.3125    0.0000 C   0  0  0  0  0  0  0  0  0  0  0  0
    3.2858    0.5023    0.0000 C   0  0  0  0  0  0  0  0  0  0  0  0
    2.6938    1.3169    0.0000 N   0  0  0  0  0  0  0  0  0  0  0  0
    1.7360    1.0058    0.0000 C   0  0  0  0  0  0  0  0  0  0  0  0
    1.7360   -0.0012    0.0000 C   0  0  0  0  0  0  0  0  0  0  0  0
    0.8680   -0.4978    0.0000 C   0  0  0  0  0  0  0  0  0  0  0  0
    0.0000    0.0000    0.0000 C   0  0  0  0  0  0  0  0  0  0  0  0
   -0.0000    1.0058    0.0000 C   0  0  0  0  0  0  0  0  0  0  0  0
    0.8680    1.5138    0.0000 C   0  0  0  0  0  0  0  0  0  0  0  0
   -0.8653   -0.5013    0.0000 F   0  0  0  0  0  0  0  0  0  0  0  0
    6.5551   -3.7896    0.0000 O   0  0  0  0  0  0  0  0  0  0  0  0
  1  2  1  0  0  0  0
  2  3  1  0  0  0  0
  3  4  2  0  0  0  0
  3  5  1  0  0  0  0
  5  6  1  0  0  0  0
  6  7  1  0  0  0  0
  7  8  1  0  0  0  0
  8 12  1  0  0  0  0
  8  9  2  0  0  0  0
  9 10  1  0  0  0  0
 10 11  1  0  0  0  0
 11 16  2  0  0  0  0
 11 12  1  0  0  0  0
 12 13  2  0  0  0  0
 13 14  1  0  0  0  0
 14 15  2  0  0  0  0
 15 16  1  0  0  0  0
 14 17  1  0  0  0  0
  2 18  1  0  0  0  0
M  END
$$$$
s_270004____11573550____16621896
  -OEChem-03222016482D

 21 22  0     0  0  0  0  0  0999 V2000
    7.2858    0.5025    0.0000 C   0  0  0  0  0  0  0  0  0  0  0  0
    7.7857    1.3686    0.0000 C   0  0  0  0  0  0  0  0  0  0  0  0
    7.2857    2.2346    0.0000 N   0  0  0  0  0  0  0  0  0  0  0  0
    6.2857    2.2345    0.0000 C   0  0  0  0  0  0  0  0  0  0  0  0
    5.7856    3.1005    0.0000 O   0  0  0  0  0  0  0  0  0  0  0  0
    5.7857    1.3685    0.0000 C   0  0  0  0  0  0  0  0  0  0  0  0
    4.7857    1.3684    0.0000 N   0  3  0  0  0  0  0  0  0  0  0  0
    4.2858    0.5024    0.0000 C   0  0  0  0  0  0  0  0  0  0  0  0
    3.2858    0.5023    0.0000 C   0  0  0  0  0  0  0  0  0  0  0  0
    2.6938   -0.3125    0.0000 C   0  0  0  0  0  0  0  0  0  0  0  0
    1.7360   -0.0012    0.0000 C   0  0  0  0  0  0  0  0  0  0  0  0
    0.8680   -0.4978    0.0000 C   0  0  0  0  0  0  0  0  0  0  0  0
    0.0000    0.0000    0.0000 C   0  0  0  0  0  0  0  0  0  0  0  0
    0.0000    1.0058    0.0000 C   0  0  0  0  0  0  0  0  0  0  0  0
    0.8680    1.5138    0.0000 C   0  0  0  0  0  0  0  0  0  0  0  0
    1.7360    1.0058    0.0000 C   0  0  0  0  0  0  0  0  0  0  0  0
    2.6938    1.3169    0.0000 N   0  0  0  0  0  0  0  0  0  0  0  0
   -0.8653   -0.5013    0.0000 O   0  0  0  0  0  0  0  0  0  0  0  0
   -0.8639   -1.5013    0.0000 C   0  0  0  0  0  0  0  0  0  0  0  0
    7.7856    3.1006    0.0000 O   0  0  0  0  0  0  0  0  0  0  0  0
    7.2856    3.9666    0.0000 C   0  0  0  0  0  0  0  0  0  0  0  0
  1  2  1  0  0  0  0
  2  3  1  0  0  0  0
  3  4  1  0  0  0  0
  4  5  2  0  0  0  0
  4  6  1  0  0  0  0
  6  7  1  0  0  0  0
  7  8  1  0  0  0  0
  8  9  1  0  0  0  0
  9 17  1  0  0  0  0
  9 10  2  0  0  0  0
 10 11  1  0  0  0  0
 11 16  2  0  0  0  0
 11 12  1  0  0  0  0
 12 13  2  0  0  0  0
 13 14  1  0  0  0  0
 14 15  2  0  0  0  0
 15 16  1  0  0  0  0
 16 17  1  0  0  0  0
 13 18  1  0  0  0  0
 18 19  1  0  0  0  0
  3 20  1  0  0  0  0
 20 21  1  0  0  0  0
M  CHG  1   7   1
M  END
$$$$
s_22____13025516____3124140
  -OEChem-03222016482D

 21 22  0     0  0  0  0  0  0999 V2000
    8.1512   -5.8997    0.0000 C   0  0  0  0  0  0  0  0  0  0  0  0
    7.8422   -4.9486    0.0000 C   0  0  0  0  0  0  0  0  0  0  0  0
    6.8641   -4.7407    0.0000 O   0  0  0  0  0  0  0  0  0  0  0  0
    6.5551   -3.7896    0.0000 C   0  0  0  0  0  0  0  0  0  0  0  0
    5.5770   -3.5816    0.0000 C   0  0  0  0  0  0  0  0  0  0  0  0
    5.2680   -2.6306    0.0000 C   0  0  0  0  0  0  0  0  0  0  0  0
    5.9372   -1.8874    0.0000 O   0  0  0  0  0  0  0  0  0  0  0  0
    4.2899   -2.4226    0.0000 N   0  0  0  0  0  0  0  0  0  0  0  0
    3.9809   -1.4715    0.0000 C   0  0  0  0  0  0  0  0  0  0  0  0
    3.0028   -1.2636    0.0000 C   0  0  0  0  0  0  0  0  0  0  0  0
    2.6938   -0.3125    0.0000 C   0  0  0  0  0  0  0  0  0  0  0  0
    3.2858    0.5023    0.0000 C   0  0  0  0  0  0  0  0  0  0  0  0
    2.6938    1.3169    0.0000 N   0  0  0  0  0  0  0  0  0  0  0  0
    1.7360    1.0058    0.0000 C   0  0  0  0  0  0  0  0  0  0  0  0
    1.7360   -0.0012    0.0000 C   0  0  0  0  0  0  0  0  0  0  0  0
    0.8680   -0.4978    0.0000 C   0  0  0  0  0  0  0  0  0  0  0  0
    0.0000    0.0000    0.0000 C   0  0  0  0  0  0  0  0  0  0  0  0
   -0.0000    1.0058    0.0000 C   0  0  0  0  0  0  0  0  0  0  0  0
    0.8680    1.5138    0.0000 C   0  0  0  0  0  0  0  0  0  0  0  0
    0.8675   -1.4978    0.0000 O   0  0  0  0  0  0  0  0  0  0  0  0
    1.7332   -1.9983    0.0000 C   0  0  0  0  0  0  0  0  0  0  0  0
  1  2  1  0  0  0  0
  2  3  1  0  0  0  0
  3  4  1  0  0  0  0
  4  5  1  0  0  0  0
  5  6  1  0  0  0  0
  6  7  2  0  0  0  0
  6  8  1  0  0  0  0
  8  9  1  0  0  0  0
  9 10  1  0  0  0  0
 10 11  1  0  0  0  0
 11 15  1  0  0  0  0
 11 12  2  0  0  0  0
 12 13  1  0  0  0  0
 13 14  1  0  0  0  0
 14 19  2  0  0  0  0
 14 15  1  0  0  0  0
 15 16  2  0  0  0  0
 16 17  1  0  0  0  0
 17 18  2  0  0  0  0
 18 19  1  0  0  0  0
 16 20  1  0  0  0  0
 20 21  1  0  0  0  0
M  END
$$$$
s_272164____14971800____17348112
  -OEChem-03222016482D

 22 23  0     1  0  0  0  0  0999 V2000
    3.9809   -1.4715    0.0000 C   0  0  0  0  0  0  0  0  0  0  0  0
    3.0028   -1.2636    0.0000 C   0  0  3  0  0  0  0  0  0  0  0  0
    2.3336   -2.0067    0.0000 C   0  0  0  0  0  0  0  0  0  0  0  0
    2.6426   -2.9578    0.0000 N   0  0  0  0  0  0  0  0  0  0  0  0
    1.9734   -3.7009    0.0000 C   0  0  0  0  0  0  0  0  0  0  0  0
    0.9953   -3.4929    0.0000 O   0  0  0  0  0  0  0  0  0  0  0  0
    2.2824   -4.6519    0.0000 N   0  0  0  0  0  0  0  0  0  0  0  0
    3.2605   -4.8599    0.0000 C   0  0  0  0  0  0  0  0  0  0  0  0
    1.6132   -5.3951    0.0000 C   0  0  0  0  0  0  0  0  0  0  0  0
    1.9222   -6.3461    0.0000 C   0  0  0  0  0  0  0  0  0  0  0  0
    2.2312   -7.2972    0.0000 N   0  0  0  0  0  0  0  0  0  0  0  0
    2.6938   -0.3125    0.0000 C   0  0  0  0  0  0  0  0  0  0  0  0
    3.2858    0.5023    0.0000 C   0  0  0  0  0  0  0  0  0  0  0  0
    2.6938    1.3169    0.0000 N   0  0  0  0  0  0  0  0  0  0  0  0
    1.7360    1.0058    0.0000 C   0  0  0  0  0  0  0  0  0  0  0  0
    1.7360   -0.0012    0.0000 C   0  0  0  0  0  0  0  0  0  0  0  0
    0.8680   -0.4978    0.0000 C   0  0  0  0  0  0  0  0  0  0  0  0
    0.0000    0.0000    0.0000 C   0  0  0  0  0  0  0  0  0  0  0  0
   -0.0000    1.0058    0.0000 C   0  0  0  0  0  0  0  0  0  0  0  0
    0.8680    1.5138    0.0000 C   0  0  0  0  0  0  0  0  0  0  0  0
   -0.8653   -0.5013    0.0000 O   0  0  0  0  0  0  0  0  0  0  0  0
   -0.8639   -1.5013    0.0000 C   0  0  0  0  0  0  0  0  0  0  0  0
  1  2  1  0  0  0  0
  2  3  1  0  0  0  0
  3  4  1  0  0  0  0
  4  5  1  0  0  0  0
  5  6  2  0  0  0  0
  5  7  1  0  0  0  0
  7  8  1  0  0  0  0
  7  9  1  0  0  0  0
  9 10  1  0  0  0  0
 10 11  3  0  0  0  0
  2 12  1  0  0  0  0
 12 16  1  0  0  0  0
 12 13  2  0  0  0  0
 13 14  1  0  0  0  0
 14 15  1  0  0  0  0
 15 20  2  0  0  0  0
 15 16  1  0  0  0  0
 16 17  2  0  0  0  0
 17 18  1  0  0  0  0
 18 19  2  0  0  0  0
 19 20  1  0  0  0  0
 18 21  1  0  0  0  0
 21 22  1  0  0  0  0
M  END
$$$$
s_270062____7619916____8147258
  -OEChem-03222016482D

 17 18  0     0  0  0  0  0  0999 V2000
    0.8680    2.5138    0.0000 C   0  0  0  0  0  0  0  0  0  0  0  0
    0.8680    1.5138    0.0000 C   0  0  0  0  0  0  0  0  0  0  0  0
    0.0000    1.0058    0.0000 C   0  0  0  0  0  0  0  0  0  0  0  0
    0.0000    0.0000    0.0000 C   0  0  0  0  0  0  0  0  0  0  0  0
    0.8680   -0.4978    0.0000 C   0  0  0  0  0  0  0  0  0  0  0  0
    1.7360   -0.0012    0.0000 C   0  0  0  0  0  0  0  0  0  0  0  0
    1.7360    1.0058    0.0000 C   0  0  0  0  0  0  0  0  0  0  0  0
    2.6938    1.3169    0.0000 N   0  0  0  0  0  0  0  0  0  0  0  0
    3.2858    0.5023    0.0000 C   0  0  0  0  0  0  0  0  0  0  0  0
    2.6938   -0.3125    0.0000 C   0  0  0  0  0  0  0  0  0  0  0  0
    3.0028   -1.2636    0.0000 C   0  0  0  0  0  0  0  0  0  0  0  0
    3.9809   -1.4715    0.0000 C   0  0  0  0  0  0  0  0  0  0  0  0
    4.2899   -2.4226    0.0000 N   0  0  0  0  0  0  0  0  0  0  0  0
    5.2680   -2.6306    0.0000 C   0  0  0  0  0  0  0  0  0  0  0  0
    5.9372   -1.8874    0.0000 O   0  0  0  0  0  0  0  0  0  0  0  0
    5.5770   -3.5816    0.0000 C   0  0  0  0  0  0  0  0  0  0  0  0
    6.5551   -3.7896    0.0000 Cl  0  0  0  0  0  0  0  0  0  0  0  0
  1  2  1  0  0  0  0
  2  7  2  0  0  0  0
  2  3  1  0  0  0  0
  3  4  2  0  0  0  0
  4  5  1  0  0  0  0
  5  6  2  0  0  0  0
  6 10  1  0  0  0  0
  6  7  1  0  0  0  0
  7  8  1  0  0  0  0
  8  9  1  0  0  0  0
  9 10  2  0  0  0  0
 10 11  1  0  0  0  0
 11 12  1  0  0  0  0
 12 13  1  0  0  0  0
 13 14  1  0  0  0  0
 14 15  2  0  0  0  0
 14 16  1  0  0  0  0
 16 17  1  0  0  0  0
M  END
$$$$
s_512____158537____4839458
  -OEChem-03222016482D

 20 21  0     0  0  0  0  0  0999 V2000
    1.9222   -6.3461    0.0000 C   0  0  0  0  0  0  0  0  0  0  0  0
    1.6132   -5.3951    0.0000 C   0  0  0  0  0  0  0  0  0  0  0  0
    0.6351   -5.1871    0.0000 C   0  0  0  0  0  0  0  0  0  0  0  0
    2.2824   -4.6519    0.0000 N   0  0  0  0  0  0  0  0  0  0  0  0
    1.9734   -3.7009    0.0000 C   0  0  0  0  0  0  0  0  0  0  0  0
    0.9953   -3.4929    0.0000 O   0  0  0  0  0  0  0  0  0  0  0  0
    2.6426   -2.9578    0.0000 N   0  0  0  0  0  0  0  0  0  0  0  0
    2.3336   -2.0067    0.0000 C   0  0  0  0  0  0  0  0  0  0  0  0
    3.0028   -1.2636    0.0000 C   0  0  0  0  0  0  0  0  0  0  0  0
    2.6938   -0.3125    0.0000 C   0  0  0  0  0  0  0  0  0  0  0  0
    3.2858    0.5023    0.0000 C   0  0  0  0  0  0  0  0  0  0  0  0
    2.6938    1.3169    0.0000 N   0  0  0  0  0  0  0  0  0  0  0  0
    1.7360    1.0058    0.0000 C   0  0  0  0  0  0  0  0  0  0  0  0
    1.7360   -0.0012    0.0000 C   0  0  0  0  0  0  0  0  0  0  0  0
    0.8680   -0.4978    0.0000 C   0  0  0  0  0  0  0  0  0  0  0  0
    0.0000    0.0000    0.0000 C   0  0  0  0  0  0  0  0  0  0  0  0
   -0.0000    1.0058    0.0000 C   0  0  0  0  0  0  0  0  0  0  0  0
    0.8680    1.5138    0.0000 C   0  0  0  0  0  0  0  0  0  0  0  0
   -0.8653   -0.5013    0.0000 O   0  0  0  0  0  0  0  0  0  0  0  0
   -0.8639   -1.5013    0.0000 C   0  0  0  0  0  0  0  0  0  0  0  0
  1  2  1  0  0  0  0
  2  3  1  0  0  0  0
  2  4  1  0  0  0  0
  4  5  1  0  0  0  0
  5  6  2  0  0  0  0
  5  7  1  0  0  0  0
  7  8  1  0  0  0  0
  8  9  1  0  0  0  0
  9 10  1  0  0  0  0
 10 14  1  0  0  0  0
 10 11  2  0  0  0  0
 11 12  1  0  0  0  0
 12 13  1  0  0  0  0
 13 18  2  0  0  0  0
 13 14  1  0  0  0  0
 14 15  2  0  0  0  0
 15 16  1  0  0  0  0
 16 17  2  0  0  0  0
 17 18  1  0  0  0  0
 16 19  1  0  0  0  0
 19 20  1  0  0  0  0
M  END
$$$$
s_22____13025516____58878
  -OEChem-03222016482D

 21 22  0     0  0  0  0  0  0999 V2000
    7.8422   -4.9486    0.0000 C   0  0  0  0  0  0  0  0  0  0  0  0
    6.8641   -4.7407    0.0000 C   0  0  0  0  0  0  0  0  0  0  0  0
    6.1949   -5.4838    0.0000 O   0  0  0  0  0  0  0  0  0  0  0  0
    6.5551   -3.7896    0.0000 N   0  0  0  0  0  0  0  0  0  0  0  0
    5.5770   -3.5816    0.0000 C   0  0  0  0  0  0  0  0  0  0  0  0
    5.2680   -2.6306    0.0000 C   0  0  0  0  0  0  0  0  0  0  0  0
    5.9372   -1.8874    0.0000 O   0  0  0  0  0  0  0  0  0  0  0  0
    4.2899   -2.4226    0.0000 N   0  0  0  0  0  0  0  0  0  0  0  0
    3.9809   -1.4715    0.0000 C   0  0  0  0  0  0  0  0  0  0  0  0
    3.0028   -1.2636    0.0000 C   0  0  0  0  0  0  0  0  0  0  0  0
    2.6938   -0.3125    0.0000 C   0  0  0  0  0  0  0  0  0  0  0  0
    3.2858    0.5023    0.0000 C   0  0  0  0  0  0  0  0  0  0  0  0
    2.6938    1.3169    0.0000 N   0  0  0  0  0  0  0  0  0  0  0  0
    1.7360    1.0058    0.0000 C   0  0  0  0  0  0  0  0  0  0  0  0
    1.7360   -0.0012    0.0000 C   0  0  0  0  0  0  0  0  0  0  0  0
    0.8680   -0.4978    0.0000 C   0  0  0  0  0  0  0  0  0  0  0  0
    0.0000    0.0000    0.0000 C   0  0  0  0  0  0  0  0  0  0  0  0
   -0.0000    1.0058    0.0000 C   0  0  0  0  0  0  0  0  0  0  0  0
    0.8680    1.5138    0.0000 C   0  0  0  0  0  0  0  0  0  0  0  0
    0.8675   -1.4978    0.0000 O   0  0  0  0  0  0  0  0  0  0  0  0
    1.7332   -1.9983    0.0000 C   0  0  0  0  0  0  0  0  0  0  0  0
  1  2  1  0  0  0  0
  2  3  2  0  0  0  0
  2  4  1  0  0  0  0
  4  5  1  0  0  0  0
  5  6  1  0  0  0  0
  6  7  2  0  0  0  0
  6  8  1  0  0  0  0
  8  9  1  0  0  0  0
  9 10  1  0  0  0  0
 10 11  1  0  0  0  0
 11 15  1  0  0  0  0
 11 12  2  0  0  0  0
 12 13  1  0  0  0  0
 13 14  1  0  0  0  0
 14 19  2  0  0  0  0
 14 15  1  0  0  0  0
 15 16  2  0  0  0  0
 16 17  1  0  0  0  0
 17 18  2  0  0  0  0
 18 19  1  0  0  0  0
 16 20  1  0  0  0  0
 20 21  1  0  0  0  0
M  END
$$$$
s_240690b____7354388____7368582
  -OEChem-03222016482D

 19 20  0     0  0  0  0  0  0999 V2000
    6.8641   -4.7407    0.0000 C   0  0  0  0  0  0  0  0  0  0  0  0
    6.5551   -3.7896    0.0000 N   0  3  0  0  0  0  0  0  0  0  0  0
    5.5770   -3.5816    0.0000 C   0  0  0  0  0  0  0  0  0  0  0  0
    5.2680   -2.6306    0.0000 C   0  0  0  0  0  0  0  0  0  0  0  0
    5.9372   -1.8874    0.0000 O   0  0  0  0  0  0  0  0  0  0  0  0
    4.2899   -2.4226    0.0000 N   0  0  0  0  0  0  0  0  0  0  0  0
    3.9809   -1.4715    0.0000 C   0  0  0  0  0  0  0  0  0  0  0  0
    3.0028   -1.2636    0.0000 C   0  0  0  0  0  0  0  0  0  0  0  0
    2.6938   -0.3125    0.0000 C   0  0  0  0  0  0  0  0  0  0  0  0
    3.2858    0.5023    0.0000 C   0  0  0  0  0  0  0  0  0  0  0  0
    2.6938    1.3169    0.0000 N   0  0  0  0  0  0  0  0  0  0  0  0
    1.7360    1.0058    0.0000 C   0  0  0  0  0  0  0  0  0  0  0  0
    1.7360   -0.0012    0.0000 C   0  0  0  0  0  0  0  0  0  0  0  0
    0.8680   -0.4978    0.0000 C   0  0  0  0  0  0  0  0  0  0  0  0
    0.0000    0.0000    0.0000 C   0  0  0  0  0  0  0  0  0  0  0  0
   -0.0000    1.0058    0.0000 C   0  0  0  0  0  0  0  0  0  0  0  0
    0.8680    1.5138    0.0000 C   0  0  0  0  0  0  0  0  0  0  0  0
   -0.8653   -0.5013    0.0000 O   0  0  0  0  0  0  0  0  0  0  0  0
   -0.8639   -1.5013    0.0000 C   0  0  0  0  0  0  0  0  0  0  0  0
  1  2  1  0  0  0  0
  2  3  1  0  0  0  0
  3  4  1  0  0  0  0
  4  5  2  0  0  0  0
  4  6  1  0  0  0  0
  6  7  1  0  0  0  0
  7  8  1  0  0  0  0
  8  9  1  0  0  0  0
  9 13  1  0  0  0  0
  9 10  2  0  0  0  0
 10 11  1  0  0  0  0
 11 12  1  0  0  0  0
 12 17  2  0  0  0  0
 12 13  1  0  0  0  0
 13 14  2  0  0  0  0
 14 15  1  0  0  0  0
 15 16  2  0  0  0  0
 16 17  1  0  0  0  0
 15 18  1  0  0  0  0
 18 19  1  0  0  0  0
M  CHG  1   2   1
M  END
$$$$
s_240690b____17029356____3025698
  -OEChem-03222016482D

 17 18  0     0  0  0  0  0  0999 V2000
   -0.0000    1.0058    0.0000 C   0  0  0  0  0  0  0  0  0  0  0  0
    0.8680    1.5138    0.0000 C   0  0  0  0  0  0  0  0  0  0  0  0
    1.7360    1.0058    0.0000 C   0  0  0  0  0  0  0  0  0  0  0  0
    1.7360   -0.0012    0.0000 C   0  0  0  0  0  0  0  0  0  0  0  0
    0.8680   -0.4978    0.0000 C   0  0  0  0  0  0  0  0  0  0  0  0
    0.0000    0.0000    0.0000 C   0  0  0  0  0  0  0  0  0  0  0  0
   -0.8653   -0.5013    0.0000 F   0  0  0  0  0  0  0  0  0  0  0  0
    2.6938   -0.3125    0.0000 C   0  0  0  0  0  0  0  0  0  0  0  0
    3.2858    0.5023    0.0000 C   0  0  0  0  0  0  0  0  0  0  0  0
    2.6938    1.3169    0.0000 N   0  0  0  0  0  0  0  0  0  0  0  0
    3.0028   -1.2636    0.0000 C   0  0  0  0  0  0  0  0  0  0  0  0
    3.9809   -1.4715    0.0000 C   0  0  0  0  0  0  0  0  0  0  0  0
    4.2899   -2.4226    0.0000 N   0  0  0  0  0  0  0  0  0  0  0  0
    5.2680   -2.6306    0.0000 C   0  0  0  0  0  0  0  0  0  0  0  0
    5.9372   -1.8874    0.0000 O   0  0  0  0  0  0  0  0  0  0  0  0
    5.5770   -3.5816    0.0000 C   0  0  0  0  0  0  0  0  0  0  0  0
    6.5551   -3.7896    0.0000 N   0  3  0  0  0  0  0  0  0  0  0  0
  1  6  2  0  0  0  0
  1  2  1  0  0  0  0
  2  3  2  0  0  0  0
  3 10  1  0  0  0  0
  3  4  1  0  0  0  0
  4  5  2  0  0  0  0
  5  6  1  0  0  0  0
  6  7  1  0  0  0  0
  4  8  1  0  0  0  0
  8  9  2  0  0  0  0
  9 10  1  0  0  0  0
  8 11  1  0  0  0  0
 11 12  1  0  0  0  0
 12 13  1  0  0  0  0
 13 14  1  0  0  0  0
 14 15  2  0  0  0  0
 14 16  1  0  0  0  0
 16 17  1  0  0  0  0
M  CHG  1  17   1
M  END
$$$$
s_22____15506616____13206548
  -OEChem-03222016482D

 20 21  0     0  0  0  0  0  0999 V2000
    6.8641   -4.7407    0.0000 C   0  0  0  0  0  0  0  0  0  0  0  0
    6.5551   -3.7896    0.0000 C   0  0  0  0  0  0  0  0  0  0  0  0
    5.5770   -3.5816    0.0000 C   0  0  0  0  0  0  0  0  0  0  0  0
    4.9078   -4.3247    0.0000 C   0  0  0  0  0  0  0  0  0  0  0  0
    5.2680   -2.6306    0.0000 C   0  0  0  0  0  0  0  0  0  0  0  0
    5.9372   -1.8874    0.0000 O   0  0  0  0  0  0  0  0  0  0  0  0
    4.2899   -2.4226    0.0000 N   0  0  0  0  0  0  0  0  0  0  0  0
    3.9809   -1.4715    0.0000 C   0  0  0  0  0  0  0  0  0  0  0  0
    3.0028   -1.2636    0.0000 C   0  0  0  0  0  0  0  0  0  0  0  0
    2.6938   -0.3125    0.0000 C   0  0  0  0  0  0  0  0  0  0  0  0
    3.2858    0.5023    0.0000 C   0  0  0  0  0  0  0  0  0  0  0  0
    2.6938    1.3169    0.0000 N   0  0  0  0  0  0  0  0  0  0  0  0
    1.7360    1.0058    0.0000 C   0  0  0  0  0  0  0  0  0  0  0  0
    1.7360   -0.0012    0.0000 C   0  0  0  0  0  0  0  0  0  0  0  0
    0.8680   -0.4978    0.0000 C   0  0  0  0  0  0  0  0  0  0  0  0
    0.0000    0.0000    0.0000 C   0  0  0  0  0  0  0  0  0  0  0  0
   -0.0000    1.0058    0.0000 C   0  0  0  0  0  0  0  0  0  0  0  0
    0.8680    1.5138    0.0000 C   0  0  0  0  0  0  0  0  0  0  0  0
    0.8680    2.5138    0.0000 O   0  0  0  0  0  0  0  0  0  0  0  0
    0.0020    3.0138    0.0000 C   0  0  0  0  0  0  0  0  0  0  0  0
  1  2  1  0  0  0  0
  2  3  1  0  0  0  0
  3  4  2  0  0  0  0
  3  5  1  0  0  0  0
  5  6  2  0  0  0  0
  5  7  1  0  0  0  0
  7  8  1  0  0  0  0
  8  9  1  0  0  0  0
  9 10  1  0  0  0  0
 10 14  1  0  0  0  0
 10 11  2  0  0  0  0
 11 12  1  0  0  0  0
 12 13  1  0  0  0  0
 13 18  2  0  0  0  0
 13 14  1  0  0  0  0
 14 15  2  0  0  0  0
 15 16  1  0  0  0  0
 16 17  2  0  0  0  0
 17 18  1  0  0  0  0
 18 19  1  0  0  0  0
 19 20  1  0  0  0  0
M  END
$$$$
s_22____2366540____337030
  -OEChem-03222016482D

 18 19  0     0  0  0  0  0  0999 V2000
    6.5551   -3.7896    0.0000 C   0  0  0  0  0  0  0  0  0  0  0  0
    5.5770   -3.5816    0.0000 C   0  0  0  0  0  0  0  0  0  0  0  0
    4.9078   -4.3247    0.0000 C   0  0  0  0  0  0  0  0  0  0  0  0
    5.2680   -2.6306    0.0000 C   0  0  0  0  0  0  0  0  0  0  0  0
    5.9372   -1.8874    0.0000 O   0  0  0  0  0  0  0  0  0  0  0  0
    4.2899   -2.4226    0.0000 N   0  0  0  0  0  0  0  0  0  0  0  0
    3.9809   -1.4715    0.0000 C   0  0  0  0  0  0  0  0  0  0  0  0
    3.0028   -1.2636    0.0000 C   0  0  0  0  0  0  0  0  0  0  0  0
    2.6938   -0.3125    0.0000 C   0  0  0  0  0  0  0  0  0  0  0  0
    3.2858    0.5023    0.0000 C   0  0  0  0  0  0  0  0  0  0  0  0
    2.6938    1.3169    0.0000 N   0  0  0  0  0  0  0  0  0  0  0  0
    1.7360    1.0058    0.0000 C   0  0  0  0  0  0  0  0  0  0  0  0
    1.7360   -0.0012    0.0000 C   0  0  0  0  0  0  0  0  0  0  0  0
    0.8680   -0.4978    0.0000 C   0  0  0  0  0  0  0  0  0  0  0  0
    0.0000    0.0000    0.0000 C   0  0  0  0  0  0  0  0  0  0  0  0
   -0.0000    1.0058    0.0000 C   0  0  0  0  0  0  0  0  0  0  0  0
    0.8680    1.5138    0.0000 C   0  0  0  0  0  0  0  0  0  0  0  0
   -0.8675    1.5032    0.0000 F   0  0  0  0  0  0  0  0  0  0  0  0
  1  2  1  0  0  0  0
  2  3  1  0  0  0  0
  2  4  1  0  0  0  0
  4  5  2  0  0  0  0
  4  6  1  0  0  0  0
  6  7  1  0  0  0  0
  7  8  1  0  0  0  0
  8  9  1  0  0  0  0
  9 13  1  0  0  0  0
  9 10  2  0  0  0  0
 10 11  1  0  0  0  0
 11 12  1  0  0  0  0
 12 17  2  0  0  0  0
 12 13  1  0  0  0  0
 13 14  2  0  0  0  0
 14 15  1  0  0  0  0
 15 16  2  0  0  0  0
 16 17  1  0  0  0  0
 16 18  1  0  0  0  0
M  END
$$$$
s_22____13913040____59039
  -OEChem-03222016482D

 19 20  0     1  0  0  0  0  0999 V2000
    1.3555   -1.7987    0.0000 C   0  0  0  0  0  0  0  0  0  0  0  0
    2.3336   -2.0067    0.0000 C   0  0  3  0  0  0  0  0  0  0  0  0
    3.0028   -1.2636    0.0000 C   0  0  0  0  0  0  0  0  0  0  0  0
    2.6938   -0.3125    0.0000 C   0  0  0  0  0  0  0  0  0  0  0  0
    3.2858    0.5023    0.0000 C   0  0  0  0  0  0  0  0  0  0  0  0
    2.6938    1.3169    0.0000 N   0  0  0  0  0  0  0  0  0  0  0  0
    1.7360    1.0058    0.0000 C   0  0  0  0  0  0  0  0  0  0  0  0
    1.7360   -0.0012    0.0000 C   0  0  0  0  0  0  0  0  0  0  0  0
    0.8680   -0.4978    0.0000 C   0  0  0  0  0  0  0  0  0  0  0  0
    0.0000    0.0000    0.0000 C   0  0  0  0  0  0  0  0  0  0  0  0
   -0.0000    1.0058    0.0000 C   0  0  0  0  0  0  0  0  0  0  0  0
    0.8680    1.5138    0.0000 C   0  0  0  0  0  0  0  0  0  0  0  0
   -0.8653   -0.5013    0.0000 F   0  0  0  0  0  0  0  0  0  0  0  0
    2.6426   -2.9578    0.0000 N   0  0  0  0  0  0  0  0  0  0  0  0
    1.9734   -3.7009    0.0000 C   0  0  0  0  0  0  0  0  0  0  0  0
    0.9953   -3.4929    0.0000 O   0  0  0  0  0  0  0  0  0  0  0  0
    2.2824   -4.6519    0.0000 C   0  0  0  0  0  0  0  0  0  0  0  0
    1.6132   -5.3951    0.0000 O   0  0  0  0  0  0  0  0  0  0  0  0
    1.9222   -6.3461    0.0000 C   0  0  0  0  0  0  0  0  0  0  0  0
  1  2  1  0  0  0  0
  2  3  1  0  0  0  0
  3  4  1  0  0  0  0
  4  8  1  0  0  0  0
  4  5  2  0  0  0  0
  5  6  1  0  0  0  0
  6  7  1  0  0  0  0
  7 12  2  0  0  0  0
  7  8  1  0  0  0  0
  8  9  2  0  0  0  0
  9 10  1  0  0  0  0
 10 11  2  0  0  0  0
 11 12  1  0  0  0  0
 10 13  1  0  0  0  0
  2 14  1  0  0  0  0
 14 15  1  0  0  0  0
 15 16  2  0  0  0  0
 15 17  1  0  0  0  0
 17 18  1  0  0  0  0
 18 19  1  0  0  0  0
M  END
$$$$
s_22____8859024____58844
  -OEChem-03222016482D

 15 16  0     0  0  0  0  0  0999 V2000
    6.2859   -1.2296    0.0000 C   0  0  0  0  0  0  0  0  0  0  0  0
    5.7859   -0.3636    0.0000 C   0  0  0  0  0  0  0  0  0  0  0  0
    6.2858    0.5025    0.0000 O   0  0  0  0  0  0  0  0  0  0  0  0
    4.7859   -0.3636    0.0000 N   0  0  0  0  0  0  0  0  0  0  0  0
    4.2858    0.5024    0.0000 C   0  0  0  0  0  0  0  0  0  0  0  0
    3.2858    0.5023    0.0000 C   0  0  0  0  0  0  0  0  0  0  0  0
    2.6938   -0.3125    0.0000 C   0  0  0  0  0  0  0  0  0  0  0  0
    1.7360   -0.0012    0.0000 C   0  0  0  0  0  0  0  0  0  0  0  0
    0.8680   -0.4978    0.0000 C   0  0  0  0  0  0  0  0  0  0  0  0
    0.0000    0.0000    0.0000 C   0  0  0  0  0  0  0  0  0  0  0  0
    0.0000    1.0058    0.0000 C   0  0  0  0  0  0  0  0  0  0  0  0
    0.8680    1.5138    0.0000 C   0  0  0  0  0  0  0  0  0  0  0  0
    1.7360    1.0058    0.0000 C   0  0  0  0  0  0  0  0  0  0  0  0
    2.6938    1.3169    0.0000 N   0  0  0  0  0  0  0  0  0  0  0  0
   -0.8653   -0.5013    0.0000 Br  0  0  0  0  0  0  0  0  0  0  0  0
  1  2  1  0  0  0  0
  2  3  2  0  0  0  0
  2  4  1  0  0  0  0
  4  5  1  0  0  0  0
  5  6  1  0  0  0  0
  6 14  1  0  0  0  0
  6  7  2  0  0  0  0
  7  8  1  0  0  0  0
  8 13  2  0  0  0  0
  8  9  1  0  0  0  0
  9 10  2  0  0  0  0
 10 11  1  0  0  0  0
 11 12  2  0  0  0  0
 12 13  1  0  0  0  0
 13 14  1  0  0  0  0
 10 15  1  0  0  0  0
M  END
$$$$
s_22____5635330____8794444
  -OEChem-03222016482D

 18 19  0     0  0  0  0  0  0999 V2000
    0.8680    2.5138    0.0000 C   0  0  0  0  0  0  0  0  0  0  0  0
    0.8680    1.5138    0.0000 C   0  0  0  0  0  0  0  0  0  0  0  0
    0.0000    1.0058    0.0000 C   0  0  0  0  0  0  0  0  0  0  0  0
    0.0000    0.0000    0.0000 C   0  0  0  0  0  0  0  0  0  0  0  0
    0.8680   -0.4978    0.0000 C   0  0  0  0  0  0  0  0  0  0  0  0
    1.7360   -0.0012    0.0000 C   0  0  0  0  0  0  0  0  0  0  0  0
    1.7360    1.0058    0.0000 C   0  0  0  0  0  0  0  0  0  0  0  0
    2.6938    1.3169    0.0000 N   0  0  0  0  0  0  0  0  0  0  0  0
    3.2858    0.5023    0.0000 C   0  0  0  0  0  0  0  0  0  0  0  0
    2.6938   -0.3125    0.0000 C   0  0  0  0  0  0  0  0  0  0  0  0
    3.0028   -1.2636    0.0000 C   0  0  0  0  0  0  0  0  0  0  0  0
    3.9809   -1.4715    0.0000 C   0  0  0  0  0  0  0  0  0  0  0  0
    4.2899   -2.4226    0.0000 N   0  0  0  0  0  0  0  0  0  0  0  0
    5.2680   -2.6306    0.0000 C   0  0  0  0  0  0  0  0  0  0  0  0
    5.9372   -1.8874    0.0000 O   0  0  0  0  0  0  0  0  0  0  0  0
    5.5770   -3.5816    0.0000 C   0  0  0  0  0  0  0  0  0  0  0  0
    6.5551   -3.7896    0.0000 C   0  0  0  0  0  0  0  0  0  0  0  0
    7.5333   -3.9976    0.0000 N   0  0  0  0  0  0  0  0  0  0  0  0
  1  2  1  0  0  0  0
  2  7  2  0  0  0  0
  2  3  1  0  0  0  0
  3  4  2  0  0  0  0
  4  5  1  0  0  0  0
  5  6  2  0  0  0  0
  6 10  1  0  0  0  0
  6  7  1  0  0  0  0
  7  8  1  0  0  0  0
  8  9  1  0  0  0  0
  9 10  2  0  0  0  0
 10 11  1  0  0  0  0
 11 12  1  0  0  0  0
 12 13  1  0  0  0  0
 13 14  1  0  0  0  0
 14 15  2  0  0  0  0
 14 16  1  0  0  0  0
 16 17  1  0  0  0  0
 17 18  3  0  0  0  0
M  END
$$$$
s_22____2228922____7941800
  -OEChem-03222016482D

 17 18  0     0  0  0  0  0  0999 V2000
    0.0000    0.0000    0.0000 C   0  0  0  0  0  0  0  0  0  0  0  0
    0.8680   -0.4978    0.0000 C   0  0  0  0  0  0  0  0  0  0  0  0
    1.7360   -0.0012    0.0000 C   0  0  0  0  0  0  0  0  0  0  0  0
    1.7360    1.0058    0.0000 C   0  0  0  0  0  0  0  0  0  0  0  0
    0.8680    1.5138    0.0000 C   0  0  0  0  0  0  0  0  0  0  0  0
    0.0000    1.0058    0.0000 C   0  0  0  0  0  0  0  0  0  0  0  0
   -0.8675    1.5032    0.0000 Cl  0  0  0  0  0  0  0  0  0  0  0  0
    2.6938    1.3169    0.0000 N   0  0  0  0  0  0  0  0  0  0  0  0
    3.2858    0.5023    0.0000 C   0  0  0  0  0  0  0  0  0  0  0  0
    2.6938   -0.3125    0.0000 C   0  0  0  0  0  0  0  0  0  0  0  0
    3.0028   -1.2636    0.0000 C   0  0  0  0  0  0  0  0  0  0  0  0
    3.9809   -1.4715    0.0000 C   0  0  0  0  0  0  0  0  0  0  0  0
    4.2899   -2.4226    0.0000 N   0  0  0  0  0  0  0  0  0  0  0  0
    5.2680   -2.6306    0.0000 C   0  0  0  0  0  0  0  0  0  0  0  0
    5.9372   -1.8874    0.0000 O   0  0  0  0  0  0  0  0  0  0  0  0
    5.5770   -3.5816    0.0000 C   0  0  0  0  0  0  0  0  0  0  0  0
    6.5551   -3.7896    0.0000 O   0  0  0  0  0  0  0  0  0  0  0  0
  1  6  2  0  0  0  0
  1  2  1  0  0  0  0
  2  3  2  0  0  0  0
  3 10  1  0  0  0  0
  3  4  1  0  0  0  0
  4  5  2  0  0  0  0
  5  6  1  0  0  0  0
  6  7  1  0  0  0  0
  4  8  1  0  0  0  0
  8  9  1  0  0  0  0
  9 10  2  0  0  0  0
 10 11  1  0  0  0  0
 11 12  1  0  0  0  0
 12 13  1  0  0  0  0
 13 14  1  0  0  0  0
 14 15  2  0  0  0  0
 14 16  1  0  0  0  0
 16 17  1  0  0  0  0
M  END
$$$$
s_8____13771014____83693
  -OEChem-03222016482D

 20 21  0     0  0  0  0  0  0999 V2000
   -3.4641   -0.0050    0.0000 C   0  0  0  0  0  0  0  0  0  0  0  0
   -2.5974   -0.5038    0.0000 C   0  0  0  0  0  0  0  0  0  0  0  0
   -1.7320   -0.0025    0.0000 C   0  0  0  0  0  0  0  0  0  0  0  0
   -0.8653   -0.5013    0.0000 O   0  0  0  0  0  0  0  0  0  0  0  0
    0.0000    0.0000    0.0000 C   0  0  0  0  0  0  0  0  0  0  0  0
   -0.0000    1.0058    0.0000 C   0  0  0  0  0  0  0  0  0  0  0  0
    0.8680    1.5138    0.0000 C   0  0  0  0  0  0  0  0  0  0  0  0
    1.7360    1.0058    0.0000 C   0  0  0  0  0  0  0  0  0  0  0  0
    1.7360   -0.0012    0.0000 C   0  0  0  0  0  0  0  0  0  0  0  0
    0.8680   -0.4978    0.0000 C   0  0  0  0  0  0  0  0  0  0  0  0
    2.6938   -0.3125    0.0000 C   0  0  0  0  0  0  0  0  0  0  0  0
    3.2858    0.5023    0.0000 C   0  0  0  0  0  0  0  0  0  0  0  0
    2.6938    1.3169    0.0000 N   0  0  0  0  0  0  0  0  0  0  0  0
    3.0028   -1.2636    0.0000 C   0  0  0  0  0  0  0  0  0  0  0  0
    3.9809   -1.4715    0.0000 C   0  0  0  0  0  0  0  0  0  0  0  0
    4.2899   -2.4226    0.0000 N   0  0  0  0  0  0  0  0  0  0  0  0
    5.2680   -2.6306    0.0000 C   0  0  0  0  0  0  0  0  0  0  0  0
    5.9372   -1.8874    0.0000 S   0  0  0  0  0  0  0  0  0  0  0  0
    5.5770   -3.5816    0.0000 N   0  0  0  0  0  0  0  0  0  0  0  0
    6.5551   -3.7896    0.0000 C   0  0  0  0  0  0  0  0  0  0  0  0
  1  2  1  0  0  0  0
  2  3  1  0  0  0  0
  3  4  1  0  0  0  0
  4  5  1  0  0  0  0
  5 10  2  0  0  0  0
  5  6  1  0  0  0  0
  6  7  2  0  0  0  0
  7  8  1  0  0  0  0
  8 13  1  0  0  0  0
  8  9  2  0  0  0  0
  9 10  1  0  0  0  0
  9 11  1  0  0  0  0
 11 12  2  0  0  0  0
 12 13  1  0  0  0  0
 11 14  1  0  0  0  0
 14 15  1  0  0  0  0
 15 16  1  0  0  0  0
 16 17  1  0  0  0  0
 17 18  2  0  0  0  0
 17 19  1  0  0  0  0
 19 20  1  0  0  0  0
M  END
$$$$
s_270062____12854088____8147258
  -OEChem-03222016482D

 17 18  0     0  0  0  0  0  0999 V2000
   -0.0000    1.0058    0.0000 C   0  0  0  0  0  0  0  0  0  0  0  0
    0.8680    1.5138    0.0000 C   0  0  0  0  0  0  0  0  0  0  0  0
    1.7360    1.0058    0.0000 C   0  0  0  0  0  0  0  0  0  0  0  0
    1.7360   -0.0012    0.0000 C   0  0  0  0  0  0  0  0  0  0  0  0
    0.8680   -0.4978    0.0000 C   0  0  0  0  0  0  0  0  0  0  0  0
    0.0000    0.0000    0.0000 C   0  0  0  0  0  0  0  0  0  0  0  0
   -0.8653   -0.5013    0.0000 Br  0  0  0  0  0  0  0  0  0  0  0  0
    2.6938   -0.3125    0.0000 C   0  0  0  0  0  0  0  0  0  0  0  0
    3.2858    0.5023    0.0000 C   0  0  0  0  0  0  0  0  0  0  0  0
    2.6938    1.3169    0.0000 N   0  0  0  0  0  0  0  0  0  0  0  0
    3.0028   -1.2636    0.0000 C   0  0  0  0  0  0  0  0  0  0  0  0
    3.9809   -1.4715    0.0000 C   0  0  0  0  0  0  0  0  0  0  0  0
    4.2899   -2.4226    0.0000 N   0  0  0  0  0  0  0  0  0  0  0  0
    5.2680   -2.6306    0.0000 C   0  0  0  0  0  0  0  0  0  0  0  0
    5.9372   -1.8874    0.0000 O   0  0  0  0  0  0  0  0  0  0  0  0
    5.5770   -3.5816    0.0000 C   0  0  0  0  0  0  0  0  0  0  0  0
    6.5551   -3.7896    0.0000 Cl  0  0  0  0  0  0  0  0  0  0  0  0
  1  6  2  0  0  0  0
  1  2  1  0  0  0  0
  2  3  2  0  0  0  0
  3 10  1  0  0  0  0
  3  4  1  0  0  0  0
  4  5  2  0  0  0  0
  5  6  1  0  0  0  0
  6  7  1  0  0  0  0
  4  8  1  0  0  0  0
  8  9  2  0  0  0  0
  9 10  1  0  0  0  0
  8 11  1  0  0  0  0
 11 12  1  0  0  0  0
 12 13  1  0  0  0  0
 13 14  1  0  0  0  0
 14 15  2  0  0  0  0
 14 16  1  0  0  0  0
 16 17  1  0  0  0  0
M  END
$$$$
s_270062____7617122____12187078
  -OEChem-03222016482D

 21 22  0     0  0  0  0  0  0999 V2000
    6.5281   -3.2727    0.0000 C   0  0  0  0  0  0  0  0  0  0  0  0
    5.5770   -3.5816    0.0000 C   0  0  0  0  0  0  0  0  0  0  0  0
    4.6259   -3.8906    0.0000 C   0  0  0  0  0  0  0  0  0  0  0  0
    5.8860   -4.5327    0.0000 C   0  0  0  0  0  0  0  0  0  0  0  0
    6.8641   -4.7407    0.0000 Cl  0  0  0  0  0  0  0  0  0  0  0  0
    5.2680   -2.6306    0.0000 C   0  0  0  0  0  0  0  0  0  0  0  0
    5.9372   -1.8874    0.0000 O   0  0  0  0  0  0  0  0  0  0  0  0
    4.2899   -2.4226    0.0000 N   0  0  0  0  0  0  0  0  0  0  0  0
    3.9809   -1.4715    0.0000 C   0  0  0  0  0  0  0  0  0  0  0  0
    3.0028   -1.2636    0.0000 C   0  0  0  0  0  0  0  0  0  0  0  0
    2.6938   -0.3125    0.0000 C   0  0  0  0  0  0  0  0  0  0  0  0
    3.2858    0.5023    0.0000 C   0  0  0  0  0  0  0  0  0  0  0  0
    2.6938    1.3169    0.0000 N   0  0  0  0  0  0  0  0  0  0  0  0
    1.7360    1.0058    0.0000 C   0  0  0  0  0  0  0  0  0  0  0  0
    1.7360   -0.0012    0.0000 C   0  0  0  0  0  0  0  0  0  0  0  0
    0.8680   -0.4978    0.0000 C   0  0  0  0  0  0  0  0  0  0  0  0
    0.0000    0.0000    0.0000 C   0  0  0  0  0  0  0  0  0  0  0  0
   -0.0000    1.0058    0.0000 C   0  0  0  0  0  0  0  0  0  0  0  0
    0.8680    1.5138    0.0000 C   0  0  0  0  0  0  0  0  0  0  0  0
   -0.8653   -0.5013    0.0000 O   0  0  0  0  0  0  0  0  0  0  0  0
   -0.8639   -1.5013    0.0000 C   0  0  0  0  0  0  0  0  0  0  0  0
  1  2  1  0  0  0  0
  2  3  1  0  0  0  0
  2  4  1  0  0  0  0
  4  5  1  0  0  0  0
  2  6  1  0  0  0  0
  6  7  2  0  0  0  0
  6  8  1  0  0  0  0
  8  9  1  0  0  0  0
  9 10  1  0  0  0  0
 10 11  1  0  0  0  0
 11 15  1  0  0  0  0
 11 12  2  0  0  0  0
 12 13  1  0  0  0  0
 13 14  1  0  0  0  0
 14 19  2  0  0  0  0
 14 15  1  0  0  0  0
 15 16  2  0  0  0  0
 16 17  1  0  0  0  0
 17 18  2  0  0  0  0
 18 19  1  0  0  0  0
 17 20  1  0  0  0  0
 20 21  1  0  0  0  0
M  END
$$$$
s_2708____15506640____8739002
  -OEChem-03222016482D

 20 21  0     0  0  0  0  0  0999 V2000
    4.9078   -4.3247    0.0000 C   0  0  0  0  0  0  0  0  0  0  0  0
    5.5770   -3.5816    0.0000 N   0  0  0  0  0  0  0  0  0  0  0  0
    5.2680   -2.6306    0.0000 C   0  0  0  0  0  0  0  0  0  0  0  0
    5.9372   -1.8874    0.0000 O   0  0  0  0  0  0  0  0  0  0  0  0
    4.2899   -2.4226    0.0000 N   0  0  0  0  0  0  0  0  0  0  0  0
    3.9809   -1.4715    0.0000 C   0  0  0  0  0  0  0  0  0  0  0  0
    3.0028   -1.2636    0.0000 C   0  0  0  0  0  0  0  0  0  0  0  0
    2.6938   -0.3125    0.0000 C   0  0  0  0  0  0  0  0  0  0  0  0
    3.2858    0.5023    0.0000 C   0  0  0  0  0  0  0  0  0  0  0  0
    2.6938    1.3169    0.0000 N   0  0  0  0  0  0  0  0  0  0  0  0
    1.7360    1.0058    0.0000 C   0  0  0  0  0  0  0  0  0  0  0  0
    1.7360   -0.0012    0.0000 C   0  0  0  0  0  0  0  0  0  0  0  0
    0.8680   -0.4978    0.0000 C   0  0  0  0  0  0  0  0  0  0  0  0
    0.0000    0.0000    0.0000 C   0  0  0  0  0  0  0  0  0  0  0  0
   -0.0000    1.0058    0.0000 C   0  0  0  0  0  0  0  0  0  0  0  0
    0.8680    1.5138    0.0000 C   0  0  0  0  0  0  0  0  0  0  0  0
    0.8680    2.5138    0.0000 O   0  0  0  0  0  0  0  0  0  0  0  0
    0.0020    3.0138    0.0000 C   0  0  0  0  0  0  0  0  0  0  0  0
    6.5551   -3.7896    0.0000 O   0  0  0  0  0  0  0  0  0  0  0  0
    6.8641   -4.7407    0.0000 C   0  0  0  0  0  0  0  0  0  0  0  0
  1  2  1  0  0  0  0
  2  3  1  0  0  0  0
  3  4  2  0  0  0  0
  3  5  1  0  0  0  0
  5  6  1  0  0  0  0
  6  7  1  0  0  0  0
  7  8  1  0  0  0  0
  8 12  1  0  0  0  0
  8  9  2  0  0  0  0
  9 10  1  0  0  0  0
 10 11  1  0  0  0  0
 11 16  2  0  0  0  0
 11 12  1  0  0  0  0
 12 13  2  0  0  0  0
 13 14  1  0  0  0  0
 14 15  2  0  0  0  0
 15 16  1  0  0  0  0
 16 17  1  0  0  0  0
 17 18  1  0  0  0  0
  2 19  1  0  0  0  0
 19 20  1  0  0  0  0
M  END
$$$$
s_240690b____13771088____7368582
  -OEChem-03222016482D

 21 22  0     0  0  0  0  0  0999 V2000
   -3.4641   -0.0050    0.0000 C   0  0  0  0  0  0  0  0  0  0  0  0
   -2.5974   -0.5038    0.0000 C   0  0  0  0  0  0  0  0  0  0  0  0
   -1.7320   -0.0025    0.0000 C   0  0  0  0  0  0  0  0  0  0  0  0
   -0.8653   -0.5013    0.0000 O   0  0  0  0  0  0  0  0  0  0  0  0
    0.0000    0.0000    0.0000 C   0  0  0  0  0  0  0  0  0  0  0  0
   -0.0000    1.0058    0.0000 C   0  0  0  0  0  0  0  0  0  0  0  0
    0.8680    1.5138    0.0000 C   0  0  0  0  0  0  0  0  0  0  0  0
    1.7360    1.0058    0.0000 C   0  0  0  0  0  0  0  0  0  0  0  0
    1.7360   -0.0012    0.0000 C   0  0  0  0  0  0  0  0  0  0  0  0
    0.8680   -0.4978    0.0000 C   0  0  0  0  0  0  0  0  0  0  0  0
    2.6938   -0.3125    0.0000 C   0  0  0  0  0  0  0  0  0  0  0  0
    3.2858    0.5023    0.0000 C   0  0  0  0  0  0  0  0  0  0  0  0
    2.6938    1.3169    0.0000 N   0  0  0  0  0  0  0  0  0  0  0  0
    3.0028   -1.2636    0.0000 C   0  0  0  0  0  0  0  0  0  0  0  0
    3.9809   -1.4715    0.0000 C   0  0  0  0  0  0  0  0  0  0  0  0
    4.2899   -2.4226    0.0000 N   0  0  0  0  0  0  0  0  0  0  0  0
    5.2680   -2.6306    0.0000 C   0  0  0  0  0  0  0  0  0  0  0  0
    5.9372   -1.8874    0.0000 O   0  0  0  0  0  0  0  0  0  0  0  0
    5.5770   -3.5816    0.0000 C   0  0  0  0  0  0  0  0  0  0  0  0
    6.5551   -3.7896    0.0000 N   0  3  0  0  0  0  0  0  0  0  0  0
    6.8641   -4.7407    0.0000 C   0  0  0  0  0  0  0  0  0  0  0  0
  1  2  1  0  0  0  0
  2  3  1  0  0  0  0
  3  4  1  0  0  0  0
  4  5  1  0  0  0  0
  5 10  2  0  0  0  0
  5  6  1  0  0  0  0
  6  7  2  0  0  0  0
  7  8  1  0  0  0  0
  8 13  1  0  0  0  0
  8  9  2  0  0  0  0
  9 10  1  0  0  0  0
  9 11  1  0  0  0  0
 11 12  2  0  0  0  0
 12 13  1  0  0  0  0
 11 14  1  0  0  0  0
 14 15  1  0  0  0  0
 15 16  1  0  0  0  0
 16 17  1  0  0  0  0
 17 18  2  0  0  0  0
 17 19  1  0  0  0  0
 19 20  1  0  0  0  0
 20 21  1  0  0  0  0
M  CHG  1  20   1
M  END
$$$$
s_2554____9226558____951600
  -OEChem-03222016482D

 20 21  0     0  0  0  0  0  0999 V2000
    6.8641   -4.7407    0.0000 C   0  0  0  0  0  0  0  0  0  0  0  0
    6.5551   -3.7896    0.0000 C   0  0  0  0  0  0  0  0  0  0  0  0
    5.5770   -3.5816    0.0000 N   0  0  0  0  0  0  0  0  0  0  0  0
    5.2680   -2.6306    0.0000 C   0  0  0  0  0  0  0  0  0  0  0  0
    5.9372   -1.8874    0.0000 O   0  0  0  0  0  0  0  0  0  0  0  0
    4.2899   -2.4226    0.0000 N   0  0  0  0  0  0  0  0  0  0  0  0
    3.9809   -1.4715    0.0000 C   0  0  0  0  0  0  0  0  0  0  0  0
    3.0028   -1.2636    0.0000 C   0  0  0  0  0  0  0  0  0  0  0  0
    2.6938   -0.3125    0.0000 C   0  0  0  0  0  0  0  0  0  0  0  0
    3.2858    0.5023    0.0000 C   0  0  0  0  0  0  0  0  0  0  0  0
    2.6938    1.3169    0.0000 N   0  0  0  0  0  0  0  0  0  0  0  0
    1.7360    1.0058    0.0000 C   0  0  0  0  0  0  0  0  0  0  0  0
    1.7360   -0.0012    0.0000 C   0  0  0  0  0  0  0  0  0  0  0  0
    0.8680   -0.4978    0.0000 C   0  0  0  0  0  0  0  0  0  0  0  0
    0.0000    0.0000    0.0000 C   0  0  0  0  0  0  0  0  0  0  0  0
   -0.0000    1.0058    0.0000 C   0  0  0  0  0  0  0  0  0  0  0  0
    0.8680    1.5138    0.0000 C   0  0  0  0  0  0  0  0  0  0  0  0
    0.8675   -1.4978    0.0000 O   0  0  0  0  0  0  0  0  0  0  0  0
    1.7332   -1.9983    0.0000 C   0  0  0  0  0  0  0  0  0  0  0  0
    1.7327   -2.9983    0.0000 C   0  0  0  0  0  0  0  0  0  0  0  0
  1  2  1  0  0  0  0
  2  3  1  0  0  0  0
  3  4  1  0  0  0  0
  4  5  2  0  0  0  0
  4  6  1  0  0  0  0
  6  7  1  0  0  0  0
  7  8  1  0  0  0  0
  8  9  1  0  0  0  0
  9 13  1  0  0  0  0
  9 10  2  0  0  0  0
 10 11  1  0  0  0  0
 11 12  1  0  0  0  0
 12 17  2  0  0  0  0
 12 13  1  0  0  0  0
 13 14  2  0  0  0  0
 14 15  1  0  0  0  0
 15 16  2  0  0  0  0
 16 17  1  0  0  0  0
 14 18  1  0  0  0  0
 18 19  1  0  0  0  0
 19 20  1  0  0  0  0
M  END
$$$$
s_240690b____13978894____7368602
  -OEChem-03222016482D

 20 21  0     1  0  0  0  0  0999 V2000
    0.6351   -5.1871    0.0000 C   0  0  0  0  0  0  0  0  0  0  0  0
    1.6132   -5.3951    0.0000 C   0  0  3  0  0  0  0  0  0  0  0  0
    2.2824   -4.6519    0.0000 C   0  0  0  0  0  0  0  0  0  0  0  0
    1.9734   -3.7009    0.0000 C   0  0  0  0  0  0  0  0  0  0  0  0
    0.9953   -3.4929    0.0000 O   0  0  0  0  0  0  0  0  0  0  0  0
    2.6426   -2.9578    0.0000 N   0  0  0  0  0  0  0  0  0  0  0  0
    2.3336   -2.0067    0.0000 C   0  0  0  0  0  0  0  0  0  0  0  0
    3.0028   -1.2636    0.0000 C   0  0  0  0  0  0  0  0  0  0  0  0
    2.6938   -0.3125    0.0000 C   0  0  0  0  0  0  0  0  0  0  0  0
    3.2858    0.5023    0.0000 C   0  0  0  0  0  0  0  0  0  0  0  0
    2.6938    1.3169    0.0000 N   0  0  0  0  0  0  0  0  0  0  0  0
    1.7360    1.0058    0.0000 C   0  0  0  0  0  0  0  0  0  0  0  0
    1.7360   -0.0012    0.0000 C   0  0  0  0  0  0  0  0  0  0  0  0
    0.8680   -0.4978    0.0000 C   0  0  0  0  0  0  0  0  0  0  0  0
    0.0000    0.0000    0.0000 C   0  0  0  0  0  0  0  0  0  0  0  0
   -0.0000    1.0058    0.0000 C   0  0  0  0  0  0  0  0  0  0  0  0
    0.8680    1.5138    0.0000 C   0  0  0  0  0  0  0  0  0  0  0  0
   -0.8675    1.5032    0.0000 O   0  0  0  0  0  0  0  0  0  0  0  0
   -1.7320    1.0007    0.0000 C   0  0  0  0  0  0  0  0  0  0  0  0
    1.9222   -6.3461    0.0000 N   0  3  0  0  0  0  0  0  0  0  0  0
  1  2  1  0  0  0  0
  2  3  1  0  0  0  0
  3  4  1  0  0  0  0
  4  5  2  0  0  0  0
  4  6  1  0  0  0  0
  6  7  1  0  0  0  0
  7  8  1  0  0  0  0
  8  9  1  0  0  0  0
  9 13  1  0  0  0  0
  9 10  2  0  0  0  0
 10 11  1  0  0  0  0
 11 12  1  0  0  0  0
 12 17  2  0  0  0  0
 12 13  1  0  0  0  0
 13 14  2  0  0  0  0
 14 15  1  0  0  0  0
 15 16  2  0  0  0  0
 16 17  1  0  0  0  0
 16 18  1  0  0  0  0
 18 19  1  0  0  0  0
  2 20  1  0  0  0  0
M  CHG  1  20   1
M  END
$$$$
s_270006b____8394006____11615982
  -OEChem-03222016482D

 21 22  0     0  0  0  0  0  0999 V2000
   -1.7320   -0.0025    0.0000 C   0  0  0  0  0  0  0  0  0  0  0  0
   -0.8653   -0.5013    0.0000 O   0  0  0  0  0  0  0  0  0  0  0  0
    0.0000    0.0000    0.0000 C   0  0  0  0  0  0  0  0  0  0  0  0
   -0.0000    1.0058    0.0000 C   0  0  0  0  0  0  0  0  0  0  0  0
    0.8680    1.5138    0.0000 C   0  0  0  0  0  0  0  0  0  0  0  0
    1.7360    1.0058    0.0000 C   0  0  0  0  0  0  0  0  0  0  0  0
    1.7360   -0.0012    0.0000 C   0  0  0  0  0  0  0  0  0  0  0  0
    0.8680   -0.4978    0.0000 C   0  0  0  0  0  0  0  0  0  0  0  0
    2.6938   -0.3125    0.0000 C   0  0  0  0  0  0  0  0  0  0  0  0
    3.2858    0.5023    0.0000 C   0  0  0  0  0  0  0  0  0  0  0  0
    2.6938    1.3169    0.0000 N   0  0  0  0  0  0  0  0  0  0  0  0
    3.0028   -1.2636    0.0000 C   0  0  0  0  0  0  0  0  0  0  0  0
    3.9809   -1.4715    0.0000 C   0  0  0  0  0  0  0  0  0  0  0  0
    4.2899   -2.4226    0.0000 N   0  0  0  0  0  0  0  0  0  0  0  0
    5.2680   -2.6306    0.0000 C   0  0  0  0  0  0  0  0  0  0  0  0
    5.9372   -1.8874    0.0000 O   0  0  0  0  0  0  0  0  0  0  0  0
    5.5770   -3.5816    0.0000 C   0  0  0  0  0  0  0  0  0  0  0  0
    6.5551   -3.7896    0.0000 C   0  0  0  0  0  0  0  0  0  0  0  0
    6.8641   -4.7407    0.0000 C   0  0  0  0  0  0  0  0  0  0  0  0
    7.8422   -4.9486    0.0000 C   0  0  0  0  0  0  0  0  0  0  0  0
    8.1512   -5.8997    0.0000 N   0  3  0  0  0  0  0  0  0  0  0  0
  1  2  1  0  0  0  0
  2  3  1  0  0  0  0
  3  8  2  0  0  0  0
  3  4  1  0  0  0  0
  4  5  2  0  0  0  0
  5  6  1  0  0  0  0
  6 11  1  0  0  0  0
  6  7  2  0  0  0  0
  7  8  1  0  0  0  0
  7  9  1  0  0  0  0
  9 10  2  0  0  0  0
 10 11  1  0  0  0  0
  9 12  1  0  0  0  0
 12 13  1  0  0  0  0
 13 14  1  0  0  0  0
 14 15  1  0  0  0  0
 15 16  2  0  0  0  0
 15 17  1  0  0  0  0
 17 18  1  0  0  0  0
 18 19  1  0  0  0  0
 19 20  1  0  0  0  0
 20 21  1  0  0  0  0
M  CHG  1  21   1
M  END
$$$$
s_22____15506616____7941800
  -OEChem-03222016482D

 18 19  0     0  0  0  0  0  0999 V2000
    1.7340    3.0138    0.0000 C   0  0  0  0  0  0  0  0  0  0  0  0
    0.8680    2.5138    0.0000 O   0  0  0  0  0  0  0  0  0  0  0  0
    0.8680    1.5138    0.0000 C   0  0  0  0  0  0  0  0  0  0  0  0
    0.0000    1.0058    0.0000 C   0  0  0  0  0  0  0  0  0  0  0  0
    0.0000    0.0000    0.0000 C   0  0  0  0  0  0  0  0  0  0  0  0
    0.8680   -0.4978    0.0000 C   0  0  0  0  0  0  0  0  0  0  0  0
    1.7360   -0.0012    0.0000 C   0  0  0  0  0  0  0  0  0  0  0  0
    1.7360    1.0058    0.0000 C   0  0  0  0  0  0  0  0  0  0  0  0
    2.6938    1.3169    0.0000 N   0  0  0  0  0  0  0  0  0  0  0  0
    3.2858    0.5023    0.0000 C   0  0  0  0  0  0  0  0  0  0  0  0
    2.6938   -0.3125    0.0000 C   0  0  0  0  0  0  0  0  0  0  0  0
    3.0028   -1.2636    0.0000 C   0  0  0  0  0  0  0  0  0  0  0  0
    3.9809   -1.4715    0.0000 C   0  0  0  0  0  0  0  0  0  0  0  0
    4.2899   -2.4226    0.0000 N   0  0  0  0  0  0  0  0  0  0  0  0
    5.2680   -2.6306    0.0000 C   0  0  0  0  0  0  0  0  0  0  0  0
    5.9372   -1.8874    0.0000 O   0  0  0  0  0  0  0  0  0  0  0  0
    5.5770   -3.5816    0.0000 C   0  0  0  0  0  0  0  0  0  0  0  0
    6.5551   -3.7896    0.0000 O   0  0  0  0  0  0  0  0  0  0  0  0
  1  2  1  0  0  0  0
  2  3  1  0  0  0  0
  3  8  2  0  0  0  0
  3  4  1  0  0  0  0
  4  5  2  0  0  0  0
  5  6  1  0  0  0  0
  6  7  2  0  0  0  0
  7 11  1  0  0  0  0
  7  8  1  0  0  0  0
  8  9  1  0  0  0  0
  9 10  1  0  0  0  0
 10 11  2  0  0  0  0
 11 12  1  0  0  0  0
 12 13  1  0  0  0  0
 13 14  1  0  0  0  0
 14 15  1  0  0  0  0
 15 16  2  0  0  0  0
 15 17  1  0  0  0  0
 17 18  1  0  0  0  0
M  END
$$$$
s_270062____16418028____8147258
  -OEChem-03222016482D

 17 18  0     0  0  0  0  0  0999 V2000
   -0.8675    1.5032    0.0000 C   0  0  0  0  0  0  0  0  0  0  0  0
    0.0000    1.0058    0.0000 C   0  0  0  0  0  0  0  0  0  0  0  0
    0.0000    0.0000    0.0000 C   0  0  0  0  0  0  0  0  0  0  0  0
    0.8680   -0.4978    0.0000 C   0  0  0  0  0  0  0  0  0  0  0  0
    1.7360   -0.0012    0.0000 C   0  0  0  0  0  0  0  0  0  0  0  0
    1.7360    1.0058    0.0000 C   0  0  0  0  0  0  0  0  0  0  0  0
    0.8680    1.5138    0.0000 C   0  0  0  0  0  0  0  0  0  0  0  0
    2.6938    1.3169    0.0000 N   0  0  0  0  0  0  0  0  0  0  0  0
    3.2858    0.5023    0.0000 C   0  0  0  0  0  0  0  0  0  0  0  0
    2.6938   -0.3125    0.0000 C   0  0  0  0  0  0  0  0  0  0  0  0
    3.0028   -1.2636    0.0000 C   0  0  0  0  0  0  0  0  0  0  0  0
    3.9809   -1.4715    0.0000 C   0  0  0  0  0  0  0  0  0  0  0  0
    4.2899   -2.4226    0.0000 N   0  0  0  0  0  0  0  0  0  0  0  0
    5.2680   -2.6306    0.0000 C   0  0  0  0  0  0  0  0  0  0  0  0
    5.9372   -1.8874    0.0000 O   0  0  0  0  0  0  0  0  0  0  0  0
    5.5770   -3.5816    0.0000 C   0  0  0  0  0  0  0  0  0  0  0  0
    6.5551   -3.7896    0.0000 Cl  0  0  0  0  0  0  0  0  0  0  0  0
  1  2  1  0  0  0  0
  2  7  2  0  0  0  0
  2  3  1  0  0  0  0
  3  4  2  0  0  0  0
  4  5  1  0  0  0  0
  5 10  1  0  0  0  0
  5  6  2  0  0  0  0
  6  7  1  0  0  0  0
  6  8  1  0  0  0  0
  8  9  1  0  0  0  0
  9 10  2  0  0  0  0
 10 11  1  0  0  0  0
 11 12  1  0  0  0  0
 12 13  1  0  0  0  0
 13 14  1  0  0  0  0
 14 15  2  0  0  0  0
 14 16  1  0  0  0  0
 16 17  1  0  0  0  0
M  END
$$$$
s_22____16720536____59039
  -OEChem-03222016482D

 18 19  0     0  0  0  0  0  0999 V2000
    6.8641   -4.7407    0.0000 C   0  0  0  0  0  0  0  0  0  0  0  0
    6.5551   -3.7896    0.0000 O   0  0  0  0  0  0  0  0  0  0  0  0
    5.5770   -3.5816    0.0000 C   0  0  0  0  0  0  0  0  0  0  0  0
    5.2680   -2.6306    0.0000 C   0  0  0  0  0  0  0  0  0  0  0  0
    5.9372   -1.8874    0.0000 O   0  0  0  0  0  0  0  0  0  0  0  0
    4.2899   -2.4226    0.0000 N   0  0  0  0  0  0  0  0  0  0  0  0
    3.9809   -1.4715    0.0000 C   0  0  0  0  0  0  0  0  0  0  0  0
    3.0028   -1.2636    0.0000 C   0  0  0  0  0  0  0  0  0  0  0  0
    2.6938   -0.3125    0.0000 C   0  0  0  0  0  0  0  0  0  0  0  0
    3.2858    0.5023    0.0000 C   0  0  0  0  0  0  0  0  0  0  0  0
    2.6938    1.3169    0.0000 N   0  0  0  0  0  0  0  0  0  0  0  0
    1.7360    1.0058    0.0000 C   0  0  0  0  0  0  0  0  0  0  0  0
    1.7360   -0.0012    0.0000 C   0  0  0  0  0  0  0  0  0  0  0  0
    0.8680   -0.4978    0.0000 C   0  0  0  0  0  0  0  0  0  0  0  0
    0.0000    0.0000    0.0000 C   0  0  0  0  0  0  0  0  0  0  0  0
   -0.0000    1.0058    0.0000 C   0  0  0  0  0  0  0  0  0  0  0  0
    0.8680    1.5138    0.0000 C   0  0  0  0  0  0  0  0  0  0  0  0
    0.8680    2.5138    0.0000 Br  0  0  0  0  0  0  0  0  0  0  0  0
  1  2  1  0  0  0  0
  2  3  1  0  0  0  0
  3  4  1  0  0  0  0
  4  5  2  0  0  0  0
  4  6  1  0  0  0  0
  6  7  1  0  0  0  0
  7  8  1  0  0  0  0
  8  9  1  0  0  0  0
  9 13  1  0  0  0  0
  9 10  2  0  0  0  0
 10 11  1  0  0  0  0
 11 12  1  0  0  0  0
 12 17  2  0  0  0  0
 12 13  1  0  0  0  0
 13 14  2  0  0  0  0
 14 15  1  0  0  0  0
 15 16  2  0  0  0  0
 16 17  1  0  0  0  0
 17 18  1  0  0  0  0
M  END
$$$$
s_270004____8299360____16621896
  -OEChem-03222016482D

 21 22  0     0  0  0  0  0  0999 V2000
    5.4199   -1.7296    0.0000 C   0  0  0  0  0  0  0  0  0  0  0  0
    6.2859   -1.2296    0.0000 C   0  0  0  0  0  0  0  0  0  0  0  0
    7.1519   -0.7295    0.0000 C   0  0  0  0  0  0  0  0  0  0  0  0
    5.7859   -0.3636    0.0000 C   0  0  0  0  0  0  0  0  0  0  0  0
    4.7859   -0.3636    0.0000 N   0  3  0  0  0  0  0  0  0  0  0  0
    4.2858    0.5024    0.0000 C   0  0  0  0  0  0  0  0  0  0  0  0
    3.2858    0.5023    0.0000 C   0  0  0  0  0  0  0  0  0  0  0  0
    2.6938   -0.3125    0.0000 C   0  0  0  0  0  0  0  0  0  0  0  0
    1.7360   -0.0012    0.0000 C   0  0  0  0  0  0  0  0  0  0  0  0
    0.8680   -0.4978    0.0000 C   0  0  0  0  0  0  0  0  0  0  0  0
    0.0000    0.0000    0.0000 C   0  0  0  0  0  0  0  0  0  0  0  0
    0.0000    1.0058    0.0000 C   0  0  0  0  0  0  0  0  0  0  0  0
    0.8680    1.5138    0.0000 C   0  0  0  0  0  0  0  0  0  0  0  0
    1.7360    1.0058    0.0000 C   0  0  0  0  0  0  0  0  0  0  0  0
    2.6938    1.3169    0.0000 N   0  0  0  0  0  0  0  0  0  0  0  0
   -0.8653   -0.5013    0.0000 O   0  0  0  0  0  0  0  0  0  0  0  0
   -0.8639   -1.5013    0.0000 C   0  0  0  0  0  0  0  0  0  0  0  0
    6.7860   -2.0956    0.0000 C   0  0  0  0  0  0  0  0  0  0  0  0
    6.2860   -2.9616    0.0000 O   0  0  0  0  0  0  0  0  0  0  0  0
    7.7860   -2.0955    0.0000 N   0  0  0  0  0  0  0  0  0  0  0  0
    8.2860   -2.9615    0.0000 C   0  0  0  0  0  0  0  0  0  0  0  0
  1  2  1  0  0  0  0
  2  3  1  0  0  0  0
  2  4  1  0  0  0  0
  4  5  1  0  0  0  0
  5  6  1  0  0  0  0
  6  7  1  0  0  0  0
  7 15  1  0  0  0  0
  7  8  2  0  0  0  0
  8  9  1  0  0  0  0
  9 14  2  0  0  0  0
  9 10  1  0  0  0  0
 10 11  2  0  0  0  0
 11 12  1  0  0  0  0
 12 13  2  0  0  0  0
 13 14  1  0  0  0  0
 14 15  1  0  0  0  0
 11 16  1  0  0  0  0
 16 17  1  0  0  0  0
  2 18  1  0  0  0  0
 18 19  2  0  0  0  0
 18 20  1  0  0  0  0
 20 21  1  0  0  0  0
M  CHG  1   5   1
M  END
$$$$
s_240690b____16720624____3025698
  -OEChem-03222016482D

 17 18  0     0  0  0  0  0  0999 V2000
    0.0000    0.0000    0.0000 C   0  0  0  0  0  0  0  0  0  0  0  0
    0.8680   -0.4978    0.0000 C   0  0  0  0  0  0  0  0  0  0  0  0
    1.7360   -0.0012    0.0000 C   0  0  0  0  0  0  0  0  0  0  0  0
    2.6938   -0.3125    0.0000 C   0  0  0  0  0  0  0  0  0  0  0  0
    3.2858    0.5023    0.0000 C   0  0  0  0  0  0  0  0  0  0  0  0
    2.6938    1.3169    0.0000 N   0  0  0  0  0  0  0  0  0  0  0  0
    1.7360    1.0058    0.0000 C   0  0  0  0  0  0  0  0  0  0  0  0
    0.8680    1.5138    0.0000 C   0  0  0  0  0  0  0  0  0  0  0  0
    0.0000    1.0058    0.0000 C   0  0  0  0  0  0  0  0  0  0  0  0
    0.8680    2.5138    0.0000 Br  0  0  0  0  0  0  0  0  0  0  0  0
    3.0028   -1.2636    0.0000 C   0  0  0  0  0  0  0  0  0  0  0  0
    3.9809   -1.4715    0.0000 C   0  0  0  0  0  0  0  0  0  0  0  0
    4.2899   -2.4226    0.0000 N   0  0  0  0  0  0  0  0  0  0  0  0
    5.2680   -2.6306    0.0000 C   0  0  0  0  0  0  0  0  0  0  0  0
    5.9372   -1.8874    0.0000 O   0  0  0  0  0  0  0  0  0  0  0  0
    5.5770   -3.5816    0.0000 C   0  0  0  0  0  0  0  0  0  0  0  0
    6.5551   -3.7896    0.0000 N   0  3  0  0  0  0  0  0  0  0  0  0
  1  9  2  0  0  0  0
  1  2  1  0  0  0  0
  2  3  2  0  0  0  0
  3  7  1  0  0  0  0
  3  4  1  0  0  0  0
  4  5  2  0  0  0  0
  5  6  1  0  0  0  0
  6  7  1  0  0  0  0
  7  8  2  0  0  0  0
  8  9  1  0  0  0  0
  8 10  1  0  0  0  0
  4 11  1  0  0  0  0
 11 12  1  0  0  0  0
 12 13  1  0  0  0  0
 13 14  1  0  0  0  0
 14 15  2  0  0  0  0
 14 16  1  0  0  0  0
 16 17  1  0  0  0  0
M  CHG  1  17   1
M  END
$$$$
s_270004____13952054____15269820
  -OEChem-03222016482D

 19 20  0     1  0  0  0  0  0999 V2000
    0.0012   -1.9973    0.0000 C   0  0  0  0  0  0  0  0  0  0  0  0
    0.8675   -1.4978    0.0000 O   0  0  0  0  0  0  0  0  0  0  0  0
    0.8680   -0.4978    0.0000 C   0  0  0  0  0  0  0  0  0  0  0  0
    0.0000    0.0000    0.0000 C   0  0  0  0  0  0  0  0  0  0  0  0
   -0.0000    1.0058    0.0000 C   0  0  0  0  0  0  0  0  0  0  0  0
    0.8680    1.5138    0.0000 C   0  0  0  0  0  0  0  0  0  0  0  0
    1.7360    1.0058    0.0000 C   0  0  0  0  0  0  0  0  0  0  0  0
    1.7360   -0.0012    0.0000 C   0  0  0  0  0  0  0  0  0  0  0  0
    2.6938   -0.3125    0.0000 C   0  0  0  0  0  0  0  0  0  0  0  0
    3.2858    0.5023    0.0000 C   0  0  0  0  0  0  0  0  0  0  0  0
    2.6938    1.3169    0.0000 N   0  0  0  0  0  0  0  0  0  0  0  0
    4.2858    0.5024    0.0000 C   0  0  0  0  0  0  0  0  0  0  0  0
    4.7857    1.3684    0.0000 N   0  3  0  0  0  0  0  0  0  0  0  0
    5.7857    1.3685    0.0000 C   0  0  0  0  0  0  0  0  0  0  0  0
    6.2857    2.2345    0.0000 C   0  0  3  0  0  0  0  0  0  0  0  0
    5.7856    3.1005    0.0000 C   0  0  0  0  0  0  0  0  0  0  0  0
    4.7856    3.1005    0.0000 O   0  0  0  0  0  0  0  0  0  0  0  0
    7.2857    2.2346    0.0000 O   0  0  0  0  0  0  0  0  0  0  0  0
    7.7856    3.1006    0.0000 C   0  0  0  0  0  0  0  0  0  0  0  0
  1  2  1  0  0  0  0
  2  3  1  0  0  0  0
  3  8  2  0  0  0  0
  3  4  1  0  0  0  0
  4  5  2  0  0  0  0
  5  6  1  0  0  0  0
  6  7  2  0  0  0  0
  7 11  1  0  0  0  0
  7  8  1  0  0  0  0
  8  9  1  0  0  0  0
  9 10  2  0  0  0  0
 10 11  1  0  0  0  0
 10 12  1  0  0  0  0
 12 13  1  0  0  0  0
 13 14  1  0  0  0  0
 14 15  1  0  0  0  0
 15 16  1  0  0  0  0
 16 17  1  0  0  0  0
 15 18  1  0  0  0  0
 18 19  1  0  0  0  0
M  CHG  1  13   1
M  END
$$$$
s_22____4839448____58916
  -OEChem-03222016482D

 20 21  0     0  0  0  0  0  0999 V2000
    1.9222   -6.3461    0.0000 C   0  0  0  0  0  0  0  0  0  0  0  0
    1.6132   -5.3951    0.0000 C   0  0  0  0  0  0  0  0  0  0  0  0
    0.6351   -5.1871    0.0000 C   0  0  0  0  0  0  0  0  0  0  0  0
    2.2824   -4.6519    0.0000 C   0  0  0  0  0  0  0  0  0  0  0  0
    1.9734   -3.7009    0.0000 C   0  0  0  0  0  0  0  0  0  0  0  0
    0.9953   -3.4929    0.0000 O   0  0  0  0  0  0  0  0  0  0  0  0
    2.6426   -2.9578    0.0000 N   0  0  0  0  0  0  0  0  0  0  0  0
    2.3336   -2.0067    0.0000 C   0  0  0  0  0  0  0  0  0  0  0  0
    3.0028   -1.2636    0.0000 C   0  0  0  0  0  0  0  0  0  0  0  0
    2.6938   -0.3125    0.0000 C   0  0  0  0  0  0  0  0  0  0  0  0
    3.2858    0.5023    0.0000 C   0  0  0  0  0  0  0  0  0  0  0  0
    2.6938    1.3169    0.0000 N   0  0  0  0  0  0  0  0  0  0  0  0
    1.7360    1.0058    0.0000 C   0  0  0  0  0  0  0  0  0  0  0  0
    1.7360   -0.0012    0.0000 C   0  0  0  0  0  0  0  0  0  0  0  0
    0.8680   -0.4978    0.0000 C   0  0  0  0  0  0  0  0  0  0  0  0
    0.0000    0.0000    0.0000 C   0  0  0  0  0  0  0  0  0  0  0  0
   -0.0000    1.0058    0.0000 C   0  0  0  0  0  0  0  0  0  0  0  0
    0.8680    1.5138    0.0000 C   0  0  0  0  0  0  0  0  0  0  0  0
   -0.8653   -0.5013    0.0000 O   0  0  0  0  0  0  0  0  0  0  0  0
   -0.8639   -1.5013    0.0000 C   0  0  0  0  0  0  0  0  0  0  0  0
  1  2  1  0  0  0  0
  2  3  1  0  0  0  0
  2  4  1  0  0  0  0
  4  5  1  0  0  0  0
  5  6  2  0  0  0  0
  5  7  1  0  0  0  0
  7  8  1  0  0  0  0
  8  9  1  0  0  0  0
  9 10  1  0  0  0  0
 10 14  1  0  0  0  0
 10 11  2  0  0  0  0
 11 12  1  0  0  0  0
 12 13  1  0  0  0  0
 13 18  2  0  0  0  0
 13 14  1  0  0  0  0
 14 15  2  0  0  0  0
 15 16  1  0  0  0  0
 16 17  2  0  0  0  0
 17 18  1  0  0  0  0
 16 19  1  0  0  0  0
 19 20  1  0  0  0  0
M  END
$$$$
s_22____2228922____58887
  -OEChem-03222016482D

 17 18  0     0  0  0  0  0  0999 V2000
    1.6132   -5.3951    0.0000 C   0  0  0  0  0  0  0  0  0  0  0  0
    2.2824   -4.6519    0.0000 C   0  0  0  0  0  0  0  0  0  0  0  0
    1.9734   -3.7009    0.0000 C   0  0  0  0  0  0  0  0  0  0  0  0
    0.9953   -3.4929    0.0000 O   0  0  0  0  0  0  0  0  0  0  0  0
    2.6426   -2.9578    0.0000 N   0  0  0  0  0  0  0  0  0  0  0  0
    2.3336   -2.0067    0.0000 C   0  0  0  0  0  0  0  0  0  0  0  0
    3.0028   -1.2636    0.0000 C   0  0  0  0  0  0  0  0  0  0  0  0
    2.6938   -0.3125    0.0000 C   0  0  0  0  0  0  0  0  0  0  0  0
    3.2858    0.5023    0.0000 C   0  0  0  0  0  0  0  0  0  0  0  0
    2.6938    1.3169    0.0000 N   0  0  0  0  0  0  0  0  0  0  0  0
    1.7360    1.0058    0.0000 C   0  0  0  0  0  0  0  0  0  0  0  0
    1.7360   -0.0012    0.0000 C   0  0  0  0  0  0  0  0  0  0  0  0
    0.8680   -0.4978    0.0000 C   0  0  0  0  0  0  0  0  0  0  0  0
    0.0000    0.0000    0.0000 C   0  0  0  0  0  0  0  0  0  0  0  0
   -0.0000    1.0058    0.0000 C   0  0  0  0  0  0  0  0  0  0  0  0
    0.8680    1.5138    0.0000 C   0  0  0  0  0  0  0  0  0  0  0  0
   -0.8675    1.5032    0.0000 Cl  0  0  0  0  0  0  0  0  0  0  0  0
  1  2  1  0  0  0  0
  2  3  1  0  0  0  0
  3  4  2  0  0  0  0
  3  5  1  0  0  0  0
  5  6  1  0  0  0  0
  6  7  1  0  0  0  0
  7  8  1  0  0  0  0
  8 12  1  0  0  0  0
  8  9  2  0  0  0  0
  9 10  1  0  0  0  0
 10 11  1  0  0  0  0
 11 16  2  0  0  0  0
 11 12  1  0  0  0  0
 12 13  2  0  0  0  0
 13 14  1  0  0  0  0
 14 15  2  0  0  0  0
 15 16  1  0  0  0  0
 15 17  1  0  0  0  0
M  END
$$$$
s_512____7932012____13978836
  -OEChem-03222016482D

 21 22  0     0  0  0  0  0  0999 V2000
    7.4820   -6.6428    0.0000 C   0  0  0  0  0  0  0  0  0  0  0  0
    7.1731   -5.6917    0.0000 C   0  0  0  0  0  0  0  0  0  0  0  0
    6.8641   -4.7407    0.0000 C   0  0  0  0  0  0  0  0  0  0  0  0
    6.5551   -3.7896    0.0000 C   0  0  0  0  0  0  0  0  0  0  0  0
    5.5770   -3.5816    0.0000 N   0  0  0  0  0  0  0  0  0  0  0  0
    5.2680   -2.6306    0.0000 C   0  0  0  0  0  0  0  0  0  0  0  0
    5.9372   -1.8874    0.0000 O   0  0  0  0  0  0  0  0  0  0  0  0
    4.2899   -2.4226    0.0000 N   0  0  0  0  0  0  0  0  0  0  0  0
    3.9809   -1.4715    0.0000 C   0  0  0  0  0  0  0  0  0  0  0  0
    3.0028   -1.2636    0.0000 C   0  0  0  0  0  0  0  0  0  0  0  0
    2.6938   -0.3125    0.0000 C   0  0  0  0  0  0  0  0  0  0  0  0
    3.2858    0.5023    0.0000 C   0  0  0  0  0  0  0  0  0  0  0  0
    2.6938    1.3169    0.0000 N   0  0  0  0  0  0  0  0  0  0  0  0
    1.7360    1.0058    0.0000 C   0  0  0  0  0  0  0  0  0  0  0  0
    1.7360   -0.0012    0.0000 C   0  0  0  0  0  0  0  0  0  0  0  0
    0.8680   -0.4978    0.0000 C   0  0  0  0  0  0  0  0  0  0  0  0
    0.0000    0.0000    0.0000 C   0  0  0  0  0  0  0  0  0  0  0  0
   -0.0000    1.0058    0.0000 C   0  0  0  0  0  0  0  0  0  0  0  0
    0.8680    1.5138    0.0000 C   0  0  0  0  0  0  0  0  0  0  0  0
   -0.8675    1.5032    0.0000 O   0  0  0  0  0  0  0  0  0  0  0  0
   -1.7320    1.0007    0.0000 C   0  0  0  0  0  0  0  0  0  0  0  0
  1  2  1  0  0  0  0
  2  3  3  0  0  0  0
  3  4  1  0  0  0  0
  4  5  1  0  0  0  0
  5  6  1  0  0  0  0
  6  7  2  0  0  0  0
  6  8  1  0  0  0  0
  8  9  1  0  0  0  0
  9 10  1  0  0  0  0
 10 11  1  0  0  0  0
 11 15  1  0  0  0  0
 11 12  2  0  0  0  0
 12 13  1  0  0  0  0
 13 14  1  0  0  0  0
 14 19  2  0  0  0  0
 14 15  1  0  0  0  0
 15 16  2  0  0  0  0
 16 17  1  0  0  0  0
 17 18  2  0  0  0  0
 18 19  1  0  0  0  0
 18 20  1  0  0  0  0
 20 21  1  0  0  0  0
M  END
$$$$
s_240690b____13040954____3025680
  -OEChem-03222016482D

 19 20  0     0  0  0  0  0  0999 V2000
    0.8680   -0.4978    0.0000 C   0  0  0  0  0  0  0  0  0  0  0  0
    1.7360   -0.0012    0.0000 C   0  0  0  0  0  0  0  0  0  0  0  0
    1.7360    1.0058    0.0000 C   0  0  0  0  0  0  0  0  0  0  0  0
    0.8680    1.5138    0.0000 C   0  0  0  0  0  0  0  0  0  0  0  0
    0.0000    1.0058    0.0000 C   0  0  0  0  0  0  0  0  0  0  0  0
    0.0000    0.0000    0.0000 C   0  0  0  0  0  0  0  0  0  0  0  0
   -0.8653   -0.5013    0.0000 F   0  0  0  0  0  0  0  0  0  0  0  0
   -0.8675    1.5032    0.0000 F   0  0  0  0  0  0  0  0  0  0  0  0
    2.6938    1.3169    0.0000 N   0  0  0  0  0  0  0  0  0  0  0  0
    3.2858    0.5023    0.0000 C   0  0  0  0  0  0  0  0  0  0  0  0
    2.6938   -0.3125    0.0000 C   0  0  0  0  0  0  0  0  0  0  0  0
    3.0028   -1.2636    0.0000 C   0  0  0  0  0  0  0  0  0  0  0  0
    3.9809   -1.4715    0.0000 C   0  0  0  0  0  0  0  0  0  0  0  0
    4.2899   -2.4226    0.0000 N   0  0  0  0  0  0  0  0  0  0  0  0
    5.2680   -2.6306    0.0000 C   0  0  0  0  0  0  0  0  0  0  0  0
    5.9372   -1.8874    0.0000 O   0  0  0  0  0  0  0  0  0  0  0  0
    5.5770   -3.5816    0.0000 C   0  0  0  0  0  0  0  0  0  0  0  0
    6.5551   -3.7896    0.0000 C   0  0  0  0  0  0  0  0  0  0  0  0
    6.8641   -4.7407    0.0000 N   0  3  0  0  0  0  0  0  0  0  0  0
  1  6  2  0  0  0  0
  1  2  1  0  0  0  0
  2 11  1  0  0  0  0
  2  3  2  0  0  0  0
  3  4  1  0  0  0  0
  4  5  2  0  0  0  0
  5  6  1  0  0  0  0
  6  7  1  0  0  0  0
  5  8  1  0  0  0  0
  3  9  1  0  0  0  0
  9 10  1  0  0  0  0
 10 11  2  0  0  0  0
 11 12  1  0  0  0  0
 12 13  1  0  0  0  0
 13 14  1  0  0  0  0
 14 15  1  0  0  0  0
 15 16  2  0  0  0  0
 15 17  1  0  0  0  0
 17 18  1  0  0  0  0
 18 19  1  0  0  0  0
M  CHG  1  19   1
M  END
$$$$
s_274078a____12246866____12873778
  -OEChem-03222016482D

 19 20  0     1  0  0  0  0  0999 V2000
   -0.2918   -2.3339    0.0000 C   0  0  0  0  0  0  0  0  0  0  0  0
    0.6863   -2.5418    0.0000 C   0  0  0  0  0  0  0  0  0  0  0  0
    0.9953   -3.4929    0.0000 O   0  0  0  0  0  0  0  0  0  0  0  0
    1.3555   -1.7987    0.0000 N   0  0  0  0  0  0  0  0  0  0  0  0
    2.3336   -2.0067    0.0000 C   0  0  3  0  0  0  0  0  0  0  0  0
    3.0028   -1.2636    0.0000 C   0  0  0  0  0  0  0  0  0  0  0  0
    2.6938   -0.3125    0.0000 C   0  0  0  0  0  0  0  0  0  0  0  0
    3.2858    0.5023    0.0000 C   0  0  0  0  0  0  0  0  0  0  0  0
    2.6938    1.3169    0.0000 N   0  0  0  0  0  0  0  0  0  0  0  0
    1.7360    1.0058    0.0000 C   0  0  0  0  0  0  0  0  0  0  0  0
    1.7360   -0.0012    0.0000 C   0  0  0  0  0  0  0  0  0  0  0  0
    0.8680   -0.4978    0.0000 C   0  0  0  0  0  0  0  0  0  0  0  0
    0.0000    0.0000    0.0000 C   0  0  0  0  0  0  0  0  0  0  0  0
   -0.0000    1.0058    0.0000 C   0  0  0  0  0  0  0  0  0  0  0  0
    0.8680    1.5138    0.0000 C   0  0  0  0  0  0  0  0  0  0  0  0
   -0.8675    1.5032    0.0000 F   0  0  0  0  0  0  0  0  0  0  0  0
    2.6426   -2.9578    0.0000 C   0  0  0  0  0  0  0  0  0  0  0  0
    1.9734   -3.7009    0.0000 O   0  0  0  0  0  0  0  0  0  0  0  0
    3.6207   -3.1657    0.0000 O   0  5  0  0  0  0  0  0  0  0  0  0
  1  2  1  0  0  0  0
  2  3  2  0  0  0  0
  2  4  1  0  0  0  0
  4  5  1  0  0  0  0
  5  6  1  0  0  0  0
  6  7  1  0  0  0  0
  7 11  1  0  0  0  0
  7  8  2  0  0  0  0
  8  9  1  0  0  0  0
  9 10  1  0  0  0  0
 10 15  2  0  0  0  0
 10 11  1  0  0  0  0
 11 12  2  0  0  0  0
 12 13  1  0  0  0  0
 13 14  2  0  0  0  0
 14 15  1  0  0  0  0
 14 16  1  0  0  0  0
  5 17  1  0  0  0  0
 17 18  2  0  0  0  0
 17 19  1  0  0  0  0
M  CHG  1  19  -1
M  END
$$$$
s_22____9226532____58887
  -OEChem-03222016482D

 19 20  0     0  0  0  0  0  0999 V2000
    3.2605   -4.8599    0.0000 C   0  0  0  0  0  0  0  0  0  0  0  0
    3.9297   -4.1168    0.0000 C   0  0  0  0  0  0  0  0  0  0  0  0
    3.6207   -3.1657    0.0000 C   0  0  0  0  0  0  0  0  0  0  0  0
    2.6426   -2.9578    0.0000 O   0  0  0  0  0  0  0  0  0  0  0  0
    4.2899   -2.4226    0.0000 N   0  0  0  0  0  0  0  0  0  0  0  0
    3.9809   -1.4715    0.0000 C   0  0  0  0  0  0  0  0  0  0  0  0
    3.0028   -1.2636    0.0000 C   0  0  0  0  0  0  0  0  0  0  0  0
    2.6938   -0.3125    0.0000 C   0  0  0  0  0  0  0  0  0  0  0  0
    3.2858    0.5023    0.0000 C   0  0  0  0  0  0  0  0  0  0  0  0
    2.6938    1.3169    0.0000 N   0  0  0  0  0  0  0  0  0  0  0  0
    1.7360    1.0058    0.0000 C   0  0  0  0  0  0  0  0  0  0  0  0
    1.7360   -0.0012    0.0000 C   0  0  0  0  0  0  0  0  0  0  0  0
    0.8680   -0.4978    0.0000 C   0  0  0  0  0  0  0  0  0  0  0  0
    0.0000    0.0000    0.0000 C   0  0  0  0  0  0  0  0  0  0  0  0
   -0.0000    1.0058    0.0000 C   0  0  0  0  0  0  0  0  0  0  0  0
    0.8680    1.5138    0.0000 C   0  0  0  0  0  0  0  0  0  0  0  0
    0.8675   -1.4978    0.0000 O   0  0  0  0  0  0  0  0  0  0  0  0
    0.0012   -1.9973    0.0000 C   0  0  0  0  0  0  0  0  0  0  0  0
    0.0007   -2.9973    0.0000 C   0  0  0  0  0  0  0  0  0  0  0  0
  1  2  1  0  0  0  0
  2  3  1  0  0  0  0
  3  4  2  0  0  0  0
  3  5  1  0  0  0  0
  5  6  1  0  0  0  0
  6  7  1  0  0  0  0
  7  8  1  0  0  0  0
  8 12  1  0  0  0  0
  8  9  2  0  0  0  0
  9 10  1  0  0  0  0
 10 11  1  0  0  0  0
 11 16  2  0  0  0  0
 11 12  1  0  0  0  0
 12 13  2  0  0  0  0
 13 14  1  0  0  0  0
 14 15  2  0  0  0  0
 15 16  1  0  0  0  0
 13 17  1  0  0  0  0
 17 18  1  0  0  0  0
 18 19  1  0  0  0  0
M  END
$$$$
s_270004____8284638____15269820
  -OEChem-03222016482D

 21 22  0     0  0  0  0  0  0999 V2000
    5.4199   -1.7296    0.0000 C   0  0  0  0  0  0  0  0  0  0  0  0
    6.2859   -1.2296    0.0000 C   0  0  0  0  0  0  0  0  0  0  0  0
    7.1519   -0.7295    0.0000 C   0  0  0  0  0  0  0  0  0  0  0  0
    5.7859   -0.3636    0.0000 C   0  0  0  0  0  0  0  0  0  0  0  0
    4.7859   -0.3636    0.0000 N   0  3  0  0  0  0  0  0  0  0  0  0
    4.2858    0.5024    0.0000 C   0  0  0  0  0  0  0  0  0  0  0  0
    3.2858    0.5023    0.0000 C   0  0  0  0  0  0  0  0  0  0  0  0
    2.6938   -0.3125    0.0000 C   0  0  0  0  0  0  0  0  0  0  0  0
    1.7360   -0.0012    0.0000 C   0  0  0  0  0  0  0  0  0  0  0  0
    1.7360    1.0058    0.0000 C   0  0  0  0  0  0  0  0  0  0  0  0
    2.6938    1.3169    0.0000 N   0  0  0  0  0  0  0  0  0  0  0  0
    0.8680    1.5138    0.0000 C   0  0  0  0  0  0  0  0  0  0  0  0
    0.0000    1.0058    0.0000 C   0  0  0  0  0  0  0  0  0  0  0  0
    0.0000    0.0000    0.0000 C   0  0  0  0  0  0  0  0  0  0  0  0
    0.8680   -0.4978    0.0000 C   0  0  0  0  0  0  0  0  0  0  0  0
    0.8675   -1.4978    0.0000 O   0  0  0  0  0  0  0  0  0  0  0  0
    1.7332   -1.9983    0.0000 C   0  0  0  0  0  0  0  0  0  0  0  0
    6.7860   -2.0956    0.0000 C   0  0  0  0  0  0  0  0  0  0  0  0
    6.2860   -2.9616    0.0000 O   0  0  0  0  0  0  0  0  0  0  0  0
    7.7860   -2.0955    0.0000 O   0  0  0  0  0  0  0  0  0  0  0  0
    8.2860   -2.9615    0.0000 C   0  0  0  0  0  0  0  0  0  0  0  0
  1  2  1  0  0  0  0
  2  3  1  0  0  0  0
  2  4  1  0  0  0  0
  4  5  1  0  0  0  0
  5  6  1  0  0  0  0
  6  7  1  0  0  0  0
  7 11  1  0  0  0  0
  7  8  2  0  0  0  0
  8  9  1  0  0  0  0
  9 15  2  0  0  0  0
  9 10  1  0  0  0  0
 10 11  1  0  0  0  0
 10 12  2  0  0  0  0
 12 13  1  0  0  0  0
 13 14  2  0  0  0  0
 14 15  1  0  0  0  0
 15 16  1  0  0  0  0
 16 17  1  0  0  0  0
  2 18  1  0  0  0  0
 18 19  2  0  0  0  0
 18 20  1  0  0  0  0
 20 21  1  0  0  0  0
M  CHG  1   5   1
M  END
$$$$
s_22____9156166____7941096
  -OEChem-03222016482D

 18 19  0     1  0  0  0  0  0999 V2000
   -0.8675    1.5032    0.0000 C   0  0  0  0  0  0  0  0  0  0  0  0
    0.0000    1.0058    0.0000 C   0  0  0  0  0  0  0  0  0  0  0  0
    0.0000    0.0000    0.0000 C   0  0  0  0  0  0  0  0  0  0  0  0
    0.8680   -0.4978    0.0000 C   0  0  0  0  0  0  0  0  0  0  0  0
    1.7360   -0.0012    0.0000 C   0  0  0  0  0  0  0  0  0  0  0  0
    1.7360    1.0058    0.0000 C   0  0  0  0  0  0  0  0  0  0  0  0
    0.8680    1.5138    0.0000 C   0  0  0  0  0  0  0  0  0  0  0  0
    2.6938    1.3169    0.0000 N   0  0  0  0  0  0  0  0  0  0  0  0
    3.2858    0.5023    0.0000 C   0  0  0  0  0  0  0  0  0  0  0  0
    2.6938   -0.3125    0.0000 C   0  0  0  0  0  0  0  0  0  0  0  0
    3.0028   -1.2636    0.0000 C   0  0  0  0  0  0  0  0  0  0  0  0
    3.9809   -1.4715    0.0000 C   0  0  0  0  0  0  0  0  0  0  0  0
    4.2899   -2.4226    0.0000 N   0  0  0  0  0  0  0  0  0  0  0  0
    5.2680   -2.6306    0.0000 C   0  0  0  0  0  0  0  0  0  0  0  0
    5.9372   -1.8874    0.0000 O   0  0  0  0  0  0  0  0  0  0  0  0
    5.5770   -3.5816    0.0000 C   0  0  3  0  0  0  0  0  0  0  0  0
    6.5551   -3.7896    0.0000 C   0  0  0  0  0  0  0  0  0  0  0  0
    4.9078   -4.3247    0.0000 O   0  0  0  0  0  0  0  0  0  0  0  0
  1  2  1  0  0  0  0
  2  7  2  0  0  0  0
  2  3  1  0  0  0  0
  3  4  2  0  0  0  0
  4  5  1  0  0  0  0
  5 10  1  0  0  0  0
  5  6  2  0  0  0  0
  6  7  1  0  0  0  0
  6  8  1  0  0  0  0
  8  9  1  0  0  0  0
  9 10  2  0  0  0  0
 10 11  1  0  0  0  0
 11 12  1  0  0  0  0
 12 13  1  0  0  0  0
 13 14  1  0  0  0  0
 14 15  2  0  0  0  0
 14 16  1  0  0  0  0
 16 17  1  0  0  0  0
 16 18  1  0  0  0  0
M  END
$$$$
s_207____9284526____16621894
  -OEChem-03222016482D

 20 21  0     1  0  0  0  0  0999 V2000
    6.2858    0.5025    0.0000 C   0  0  0  0  0  0  0  0  0  0  0  0
    5.7859   -0.3636    0.0000 C   0  0  3  0  0  0  0  0  0  0  0  0
    6.2859   -1.2296    0.0000 C   0  0  0  0  0  0  0  0  0  0  0  0
    5.7860   -2.0956    0.0000 O   0  0  0  0  0  0  0  0  0  0  0  0
    7.2859   -1.2295    0.0000 N   0  0  0  0  0  0  0  0  0  0  0  0
    7.7859   -0.3635    0.0000 C   0  0  0  0  0  0  0  0  0  0  0  0
    7.7860   -2.0955    0.0000 C   0  0  0  0  0  0  0  0  0  0  0  0
    4.7859   -0.3636    0.0000 N   0  3  0  0  0  0  0  0  0  0  0  0
    4.2858    0.5024    0.0000 C   0  0  0  0  0  0  0  0  0  0  0  0
    3.2858    0.5023    0.0000 C   0  0  0  0  0  0  0  0  0  0  0  0
    2.6938   -0.3125    0.0000 C   0  0  0  0  0  0  0  0  0  0  0  0
    1.7360   -0.0012    0.0000 C   0  0  0  0  0  0  0  0  0  0  0  0
    0.8680   -0.4978    0.0000 C   0  0  0  0  0  0  0  0  0  0  0  0
    0.0000    0.0000    0.0000 C   0  0  0  0  0  0  0  0  0  0  0  0
    0.0000    1.0058    0.0000 C   0  0  0  0  0  0  0  0  0  0  0  0
    0.8680    1.5138    0.0000 C   0  0  0  0  0  0  0  0  0  0  0  0
    1.7360    1.0058    0.0000 C   0  0  0  0  0  0  0  0  0  0  0  0
    2.6938    1.3169    0.0000 N   0  0  0  0  0  0  0  0  0  0  0  0
   -0.8653   -0.5013    0.0000 O   0  0  0  0  0  0  0  0  0  0  0  0
   -0.8639   -1.5013    0.0000 C   0  0  0  0  0  0  0  0  0  0  0  0
  1  2  1  0  0  0  0
  2  3  1  0  0  0  0
  3  4  2  0  0  0  0
  3  5  1  0  0  0  0
  5  6  1  0  0  0  0
  5  7  1  0  0  0  0
  2  8  1  0  0  0  0
  8  9  1  0  0  0  0
  9 10  1  0  0  0  0
 10 18  1  0  0  0  0
 10 11  2  0  0  0  0
 11 12  1  0  0  0  0
 12 17  2  0  0  0  0
 12 13  1  0  0  0  0
 13 14  2  0  0  0  0
 14 15  1  0  0  0  0
 15 16  2  0  0  0  0
 16 17  1  0  0  0  0
 17 18  1  0  0  0  0
 14 19  1  0  0  0  0
 19 20  1  0  0  0  0
M  CHG  1   8   1
M  END
$$$$
s_240690b____15506692____3025682
  -OEChem-03222016482D

 20 21  0     0  0  0  0  0  0999 V2000
    1.7340    3.0138    0.0000 C   0  0  0  0  0  0  0  0  0  0  0  0
    0.8680    2.5138    0.0000 O   0  0  0  0  0  0  0  0  0  0  0  0
    0.8680    1.5138    0.0000 C   0  0  0  0  0  0  0  0  0  0  0  0
    0.0000    1.0058    0.0000 C   0  0  0  0  0  0  0  0  0  0  0  0
    0.0000    0.0000    0.0000 C   0  0  0  0  0  0  0  0  0  0  0  0
    0.8680   -0.4978    0.0000 C   0  0  0  0  0  0  0  0  0  0  0  0
    1.7360   -0.0012    0.0000 C   0  0  0  0  0  0  0  0  0  0  0  0
    1.7360    1.0058    0.0000 C   0  0  0  0  0  0  0  0  0  0  0  0
    2.6938    1.3169    0.0000 N   0  0  0  0  0  0  0  0  0  0  0  0
    3.2858    0.5023    0.0000 C   0  0  0  0  0  0  0  0  0  0  0  0
    2.6938   -0.3125    0.0000 C   0  0  0  0  0  0  0  0  0  0  0  0
    3.0028   -1.2636    0.0000 C   0  0  0  0  0  0  0  0  0  0  0  0
    3.9809   -1.4715    0.0000 C   0  0  0  0  0  0  0  0  0  0  0  0
    4.2899   -2.4226    0.0000 N   0  0  0  0  0  0  0  0  0  0  0  0
    5.2680   -2.6306    0.0000 C   0  0  0  0  0  0  0  0  0  0  0  0
    5.9372   -1.8874    0.0000 O   0  0  0  0  0  0  0  0  0  0  0  0
    5.5770   -3.5816    0.0000 C   0  0  0  0  0  0  0  0  0  0  0  0
    6.5551   -3.7896    0.0000 C   0  0  0  0  0  0  0  0  0  0  0  0
    6.8641   -4.7407    0.0000 C   0  0  0  0  0  0  0  0  0  0  0  0
    7.8422   -4.9486    0.0000 N   0  3  0  0  0  0  0  0  0  0  0  0
  1  2  1  0  0  0  0
  2  3  1  0  0  0  0
  3  8  2  0  0  0  0
  3  4  1  0  0  0  0
  4  5  2  0  0  0  0
  5  6  1  0  0  0  0
  6  7  2  0  0  0  0
  7 11  1  0  0  0  0
  7  8  1  0  0  0  0
  8  9  1  0  0  0  0
  9 10  1  0  0  0  0
 10 11  2  0  0  0  0
 11 12  1  0  0  0  0
 12 13  1  0  0  0  0
 13 14  1  0  0  0  0
 14 15  1  0  0  0  0
 15 16  2  0  0  0  0
 15 17  1  0  0  0  0
 17 18  1  0  0  0  0
 18 19  1  0  0  0  0
 19 20  1  0  0  0  0
M  CHG  1  20   1
M  END
$$$$
s_270004____11687778____15269820
  -OEChem-03222016482D

 21 22  0     0  0  0  0  0  0999 V2000
    9.2860   -2.9615    0.0000 C   0  0  0  0  0  0  0  0  0  0  0  0
    8.7860   -2.0955    0.0000 C   0  0  0  0  0  0  0  0  0  0  0  0
    7.7860   -2.0955    0.0000 O   0  0  0  0  0  0  0  0  0  0  0  0
    7.2859   -1.2295    0.0000 N   0  0  0  0  0  0  0  0  0  0  0  0
    7.7859   -0.3635    0.0000 C   0  0  0  0  0  0  0  0  0  0  0  0
    6.2859   -1.2296    0.0000 C   0  0  0  0  0  0  0  0  0  0  0  0
    5.7860   -2.0956    0.0000 O   0  0  0  0  0  0  0  0  0  0  0  0
    5.7859   -0.3636    0.0000 C   0  0  0  0  0  0  0  0  0  0  0  0
    4.7859   -0.3636    0.0000 N   0  3  0  0  0  0  0  0  0  0  0  0
    4.2858    0.5024    0.0000 C   0  0  0  0  0  0  0  0  0  0  0  0
    3.2858    0.5023    0.0000 C   0  0  0  0  0  0  0  0  0  0  0  0
    2.6938   -0.3125    0.0000 C   0  0  0  0  0  0  0  0  0  0  0  0
    1.7360   -0.0012    0.0000 C   0  0  0  0  0  0  0  0  0  0  0  0
    1.7360    1.0058    0.0000 C   0  0  0  0  0  0  0  0  0  0  0  0
    2.6938    1.3169    0.0000 N   0  0  0  0  0  0  0  0  0  0  0  0
    0.8680    1.5138    0.0000 C   0  0  0  0  0  0  0  0  0  0  0  0
    0.0000    1.0058    0.0000 C   0  0  0  0  0  0  0  0  0  0  0  0
    0.0000    0.0000    0.0000 C   0  0  0  0  0  0  0  0  0  0  0  0
    0.8680   -0.4978    0.0000 C   0  0  0  0  0  0  0  0  0  0  0  0
    0.8675   -1.4978    0.0000 O   0  0  0  0  0  0  0  0  0  0  0  0
    1.7332   -1.9983    0.0000 C   0  0  0  0  0  0  0  0  0  0  0  0
  1  2  1  0  0  0  0
  2  3  1  0  0  0  0
  3  4  1  0  0  0  0
  4  5  1  0  0  0  0
  4  6  1  0  0  0  0
  6  7  2  0  0  0  0
  6  8  1  0  0  0  0
  8  9  1  0  0  0  0
  9 10  1  0  0  0  0
 10 11  1  0  0  0  0
 11 15  1  0  0  0  0
 11 12  2  0  0  0  0
 12 13  1  0  0  0  0
 13 19  2  0  0  0  0
 13 14  1  0  0  0  0
 14 15  1  0  0  0  0
 14 16  2  0  0  0  0
 16 17  1  0  0  0  0
 17 18  2  0  0  0  0
 18 19  1  0  0  0  0
 19 20  1  0  0  0  0
 20 21  1  0  0  0  0
M  CHG  1   9   1
M  END
$$$$
s_270062____13909784____8147258
  -OEChem-03222016482D

 17 18  0     0  0  0  0  0  0999 V2000
   -0.0000    1.0058    0.0000 C   0  0  0  0  0  0  0  0  0  0  0  0
    0.8680    1.5138    0.0000 C   0  0  0  0  0  0  0  0  0  0  0  0
    1.7360    1.0058    0.0000 C   0  0  0  0  0  0  0  0  0  0  0  0
    1.7360   -0.0012    0.0000 C   0  0  0  0  0  0  0  0  0  0  0  0
    0.8680   -0.4978    0.0000 C   0  0  0  0  0  0  0  0  0  0  0  0
    0.0000    0.0000    0.0000 C   0  0  0  0  0  0  0  0  0  0  0  0
   -0.8653   -0.5013    0.0000 O   0  0  0  0  0  0  0  0  0  0  0  0
    2.6938   -0.3125    0.0000 C   0  0  0  0  0  0  0  0  0  0  0  0
    3.2858    0.5023    0.0000 C   0  0  0  0  0  0  0  0  0  0  0  0
    2.6938    1.3169    0.0000 N   0  0  0  0  0  0  0  0  0  0  0  0
    3.0028   -1.2636    0.0000 C   0  0  0  0  0  0  0  0  0  0  0  0
    3.9809   -1.4715    0.0000 C   0  0  0  0  0  0  0  0  0  0  0  0
    4.2899   -2.4226    0.0000 N   0  0  0  0  0  0  0  0  0  0  0  0
    5.2680   -2.6306    0.0000 C   0  0  0  0  0  0  0  0  0  0  0  0
    5.9372   -1.8874    0.0000 O   0  0  0  0  0  0  0  0  0  0  0  0
    5.5770   -3.5816    0.0000 C   0  0  0  0  0  0  0  0  0  0  0  0
    6.5551   -3.7896    0.0000 Cl  0  0  0  0  0  0  0  0  0  0  0  0
  1  6  2  0  0  0  0
  1  2  1  0  0  0  0
  2  3  2  0  0  0  0
  3 10  1  0  0  0  0
  3  4  1  0  0  0  0
  4  5  2  0  0  0  0
  5  6  1  0  0  0  0
  6  7  1  0  0  0  0
  4  8  1  0  0  0  0
  8  9  2  0  0  0  0
  9 10  1  0  0  0  0
  8 11  1  0  0  0  0
 11 12  1  0  0  0  0
 12 13  1  0  0  0  0
 13 14  1  0  0  0  0
 14 15  2  0  0  0  0
 14 16  1  0  0  0  0
 16 17  1  0  0  0  0
M  END
$$$$
s_22____4839448____12105272
  -OEChem-03222016482D

 20 21  0     0  0  0  0  0  0999 V2000
   -1.7320   -0.0025    0.0000 C   0  0  0  0  0  0  0  0  0  0  0  0
   -0.8653   -0.5013    0.0000 O   0  0  0  0  0  0  0  0  0  0  0  0
    0.0000    0.0000    0.0000 C   0  0  0  0  0  0  0  0  0  0  0  0
   -0.0000    1.0058    0.0000 C   0  0  0  0  0  0  0  0  0  0  0  0
    0.8680    1.5138    0.0000 C   0  0  0  0  0  0  0  0  0  0  0  0
    1.7360    1.0058    0.0000 C   0  0  0  0  0  0  0  0  0  0  0  0
    1.7360   -0.0012    0.0000 C   0  0  0  0  0  0  0  0  0  0  0  0
    0.8680   -0.4978    0.0000 C   0  0  0  0  0  0  0  0  0  0  0  0
    2.6938   -0.3125    0.0000 C   0  0  0  0  0  0  0  0  0  0  0  0
    3.2858    0.5023    0.0000 C   0  0  0  0  0  0  0  0  0  0  0  0
    2.6938    1.3169    0.0000 N   0  0  0  0  0  0  0  0  0  0  0  0
    3.0028   -1.2636    0.0000 C   0  0  0  0  0  0  0  0  0  0  0  0
    3.9809   -1.4715    0.0000 C   0  0  0  0  0  0  0  0  0  0  0  0
    4.2899   -2.4226    0.0000 N   0  0  0  0  0  0  0  0  0  0  0  0
    5.2680   -2.6306    0.0000 C   0  0  0  0  0  0  0  0  0  0  0  0
    5.9372   -1.8874    0.0000 O   0  0  0  0  0  0  0  0  0  0  0  0
    5.5770   -3.5816    0.0000 C   0  0  0  0  0  0  0  0  0  0  0  0
    6.5551   -3.7896    0.0000 C   0  0  0  0  0  0  0  0  0  0  0  0
    6.8641   -4.7407    0.0000 C   0  0  0  0  0  0  0  0  0  0  0  0
    7.8422   -4.9486    0.0000 F   0  0  0  0  0  0  0  0  0  0  0  0
  1  2  1  0  0  0  0
  2  3  1  0  0  0  0
  3  8  2  0  0  0  0
  3  4  1  0  0  0  0
  4  5  2  0  0  0  0
  5  6  1  0  0  0  0
  6 11  1  0  0  0  0
  6  7  2  0  0  0  0
  7  8  1  0  0  0  0
  7  9  1  0  0  0  0
  9 10  2  0  0  0  0
 10 11  1  0  0  0  0
  9 12  1  0  0  0  0
 12 13  1  0  0  0  0
 13 14  1  0  0  0  0
 14 15  1  0  0  0  0
 15 16  2  0  0  0  0
 15 17  1  0  0  0  0
 17 18  1  0  0  0  0
 18 19  1  0  0  0  0
 19 20  1  0  0  0  0
M  END
$$$$
s_270004____12216126____16621896
  -OEChem-03222016482D

 22 23  0     0  0  0  0  0  0999 V2000
    7.2858    0.5025    0.0000 C   0  0  0  0  0  0  0  0  0  0  0  0
    7.7857    1.3686    0.0000 C   0  0  0  0  0  0  0  0  0  0  0  0
    7.2857    2.2346    0.0000 N   0  0  0  0  0  0  0  0  0  0  0  0
    6.2857    2.2345    0.0000 C   0  0  0  0  0  0  0  0  0  0  0  0
    5.7856    3.1005    0.0000 O   0  0  0  0  0  0  0  0  0  0  0  0
    5.7857    1.3685    0.0000 C   0  0  0  0  0  0  0  0  0  0  0  0
    4.7857    1.3684    0.0000 N   0  3  0  0  0  0  0  0  0  0  0  0
    4.2858    0.5024    0.0000 C   0  0  0  0  0  0  0  0  0  0  0  0
    3.2858    0.5023    0.0000 C   0  0  0  0  0  0  0  0  0  0  0  0
    2.6938   -0.3125    0.0000 C   0  0  0  0  0  0  0  0  0  0  0  0
    1.7360   -0.0012    0.0000 C   0  0  0  0  0  0  0  0  0  0  0  0
    0.8680   -0.4978    0.0000 C   0  0  0  0  0  0  0  0  0  0  0  0
    0.0000    0.0000    0.0000 C   0  0  0  0  0  0  0  0  0  0  0  0
    0.0000    1.0058    0.0000 C   0  0  0  0  0  0  0  0  0  0  0  0
    0.8680    1.5138    0.0000 C   0  0  0  0  0  0  0  0  0  0  0  0
    1.7360    1.0058    0.0000 C   0  0  0  0  0  0  0  0  0  0  0  0
    2.6938    1.3169    0.0000 N   0  0  0  0  0  0  0  0  0  0  0  0
   -0.8653   -0.5013    0.0000 O   0  0  0  0  0  0  0  0  0  0  0  0
   -0.8639   -1.5013    0.0000 C   0  0  0  0  0  0  0  0  0  0  0  0
    7.7856    3.1006    0.0000 O   0  0  0  0  0  0  0  0  0  0  0  0
    7.2856    3.9666    0.0000 C   0  0  0  0  0  0  0  0  0  0  0  0
    7.7855    4.8327    0.0000 C   0  0  0  0  0  0  0  0  0  0  0  0
  1  2  1  0  0  0  0
  2  3  1  0  0  0  0
  3  4  1  0  0  0  0
  4  5  2  0  0  0  0
  4  6  1  0  0  0  0
  6  7  1  0  0  0  0
  7  8  1  0  0  0  0
  8  9  1  0  0  0  0
  9 17  1  0  0  0  0
  9 10  2  0  0  0  0
 10 11  1  0  0  0  0
 11 16  2  0  0  0  0
 11 12  1  0  0  0  0
 12 13  2  0  0  0  0
 13 14  1  0  0  0  0
 14 15  2  0  0  0  0
 15 16  1  0  0  0  0
 16 17  1  0  0  0  0
 13 18  1  0  0  0  0
 18 19  1  0  0  0  0
  3 20  1  0  0  0  0
 20 21  1  0  0  0  0
 21 22  1  0  0  0  0
M  CHG  1   7   1
M  END
$$$$
s_22____13025516____2909590
  -OEChem-03222016482D

 20 21  0     0  0  0  0  0  0999 V2000
    7.8422   -4.9486    0.0000 C   0  0  0  0  0  0  0  0  0  0  0  0
    6.8641   -4.7407    0.0000 O   0  0  0  0  0  0  0  0  0  0  0  0
    6.5551   -3.7896    0.0000 C   0  0  0  0  0  0  0  0  0  0  0  0
    5.5770   -3.5816    0.0000 C   0  0  0  0  0  0  0  0  0  0  0  0
    5.2680   -2.6306    0.0000 C   0  0  0  0  0  0  0  0  0  0  0  0
    5.9372   -1.8874    0.0000 O   0  0  0  0  0  0  0  0  0  0  0  0
    4.2899   -2.4226    0.0000 N   0  0  0  0  0  0  0  0  0  0  0  0
    3.9809   -1.4715    0.0000 C   0  0  0  0  0  0  0  0  0  0  0  0
    3.0028   -1.2636    0.0000 C   0  0  0  0  0  0  0  0  0  0  0  0
    2.6938   -0.3125    0.0000 C   0  0  0  0  0  0  0  0  0  0  0  0
    3.2858    0.5023    0.0000 C   0  0  0  0  0  0  0  0  0  0  0  0
    2.6938    1.3169    0.0000 N   0  0  0  0  0  0  0  0  0  0  0  0
    1.7360    1.0058    0.0000 C   0  0  0  0  0  0  0  0  0  0  0  0
    1.7360   -0.0012    0.0000 C   0  0  0  0  0  0  0  0  0  0  0  0
    0.8680   -0.4978    0.0000 C   0  0  0  0  0  0  0  0  0  0  0  0
    0.0000    0.0000    0.0000 C   0  0  0  0  0  0  0  0  0  0  0  0
   -0.0000    1.0058    0.0000 C   0  0  0  0  0  0  0  0  0  0  0  0
    0.8680    1.5138    0.0000 C   0  0  0  0  0  0  0  0  0  0  0  0
    0.8675   -1.4978    0.0000 O   0  0  0  0  0  0  0  0  0  0  0  0
    1.7332   -1.9983    0.0000 C   0  0  0  0  0  0  0  0  0  0  0  0
  1  2  1  0  0  0  0
  2  3  1  0  0  0  0
  3  4  1  0  0  0  0
  4  5  1  0  0  0  0
  5  6  2  0  0  0  0
  5  7  1  0  0  0  0
  7  8  1  0  0  0  0
  8  9  1  0  0  0  0
  9 10  1  0  0  0  0
 10 14  1  0  0  0  0
 10 11  2  0  0  0  0
 11 12  1  0  0  0  0
 12 13  1  0  0  0  0
 13 18  2  0  0  0  0
 13 14  1  0  0  0  0
 14 15  2  0  0  0  0
 15 16  1  0  0  0  0
 16 17  2  0  0  0  0
 17 18  1  0  0  0  0
 15 19  1  0  0  0  0
 19 20  1  0  0  0  0
M  END
$$$$
s_270004____10345658____15269820
  -OEChem-03222016482D

 19 20  0     1  0  0  0  0  0999 V2000
    4.7860   -2.0957    0.0000 C   0  0  0  0  0  0  0  0  0  0  0  0
    5.7860   -2.0956    0.0000 C   0  0  0  0  0  0  0  0  0  0  0  0
    6.2859   -1.2296    0.0000 C   0  0  3  0  0  0  0  0  0  0  0  0
    5.7859   -0.3636    0.0000 C   0  0  0  0  0  0  0  0  0  0  0  0
    4.7859   -0.3636    0.0000 N   0  3  0  0  0  0  0  0  0  0  0  0
    4.2858    0.5024    0.0000 C   0  0  0  0  0  0  0  0  0  0  0  0
    3.2858    0.5023    0.0000 C   0  0  0  0  0  0  0  0  0  0  0  0
    2.6938   -0.3125    0.0000 C   0  0  0  0  0  0  0  0  0  0  0  0
    1.7360   -0.0012    0.0000 C   0  0  0  0  0  0  0  0  0  0  0  0
    1.7360    1.0058    0.0000 C   0  0  0  0  0  0  0  0  0  0  0  0
    2.6938    1.3169    0.0000 N   0  0  0  0  0  0  0  0  0  0  0  0
    0.8680    1.5138    0.0000 C   0  0  0  0  0  0  0  0  0  0  0  0
    0.0000    1.0058    0.0000 C   0  0  0  0  0  0  0  0  0  0  0  0
    0.0000    0.0000    0.0000 C   0  0  0  0  0  0  0  0  0  0  0  0
    0.8680   -0.4978    0.0000 C   0  0  0  0  0  0  0  0  0  0  0  0
    0.8675   -1.4978    0.0000 O   0  0  0  0  0  0  0  0  0  0  0  0
    1.7332   -1.9983    0.0000 C   0  0  0  0  0  0  0  0  0  0  0  0
    7.2859   -1.2295    0.0000 O   0  0  0  0  0  0  0  0  0  0  0  0
    7.7859   -0.3635    0.0000 C   0  0  0  0  0  0  0  0  0  0  0  0
  1  2  1  0  0  0  0
  2  3  1  0  0  0  0
  3  4  1  0  0  0  0
  4  5  1  0  0  0  0
  5  6  1  0  0  0  0
  6  7  1  0  0  0  0
  7 11  1  0  0  0  0
  7  8  2  0  0  0  0
  8  9  1  0  0  0  0
  9 15  2  0  0  0  0
  9 10  1  0  0  0  0
 10 11  1  0  0  0  0
 10 12  2  0  0  0  0
 12 13  1  0  0  0  0
 13 14  2  0  0  0  0
 14 15  1  0  0  0  0
 15 16  1  0  0  0  0
 16 17  1  0  0  0  0
  3 18  1  0  0  0  0
 18 19  1  0  0  0  0
M  CHG  1   5   1
M  END
$$$$
s_22____13978824____1720042
  -OEChem-03222016482D

 21 22  0     0  0  0  0  0  0999 V2000
   -0.8705    2.5032    0.0000 C   0  0  0  0  0  0  0  0  0  0  0  0
   -0.8675    1.5032    0.0000 O   0  0  0  0  0  0  0  0  0  0  0  0
    0.0000    1.0058    0.0000 C   0  0  0  0  0  0  0  0  0  0  0  0
    0.0000    0.0000    0.0000 C   0  0  0  0  0  0  0  0  0  0  0  0
    0.8680   -0.4978    0.0000 C   0  0  0  0  0  0  0  0  0  0  0  0
    1.7360   -0.0012    0.0000 C   0  0  0  0  0  0  0  0  0  0  0  0
    1.7360    1.0058    0.0000 C   0  0  0  0  0  0  0  0  0  0  0  0
    0.8680    1.5138    0.0000 C   0  0  0  0  0  0  0  0  0  0  0  0
    2.6938    1.3169    0.0000 N   0  0  0  0  0  0  0  0  0  0  0  0
    3.2858    0.5023    0.0000 C   0  0  0  0  0  0  0  0  0  0  0  0
    2.6938   -0.3125    0.0000 C   0  0  0  0  0  0  0  0  0  0  0  0
    3.0028   -1.2636    0.0000 C   0  0  0  0  0  0  0  0  0  0  0  0
    3.9809   -1.4715    0.0000 C   0  0  0  0  0  0  0  0  0  0  0  0
    4.2899   -2.4226    0.0000 N   0  0  0  0  0  0  0  0  0  0  0  0
    5.2680   -2.6306    0.0000 C   0  0  0  0  0  0  0  0  0  0  0  0
    5.9372   -1.8874    0.0000 O   0  0  0  0  0  0  0  0  0  0  0  0
    5.5770   -3.5816    0.0000 C   0  0  0  0  0  0  0  0  0  0  0  0
    6.5551   -3.7896    0.0000 C   0  0  0  0  0  0  0  0  0  0  0  0
    6.7631   -2.8115    0.0000 F   0  0  0  0  0  0  0  0  0  0  0  0
    6.3472   -4.7677    0.0000 F   0  0  0  0  0  0  0  0  0  0  0  0
    7.5333   -3.9976    0.0000 F   0  0  0  0  0  0  0  0  0  0  0  0
  1  2  1  0  0  0  0
  2  3  1  0  0  0  0
  3  8  2  0  0  0  0
  3  4  1  0  0  0  0
  4  5  2  0  0  0  0
  5  6  1  0  0  0  0
  6 11  1  0  0  0  0
  6  7  2  0  0  0  0
  7  8  1  0  0  0  0
  7  9  1  0  0  0  0
  9 10  1  0  0  0  0
 10 11  2  0  0  0  0
 11 12  1  0  0  0  0
 12 13  1  0  0  0  0
 13 14  1  0  0  0  0
 14 15  1  0  0  0  0
 15 16  2  0  0  0  0
 15 17  1  0  0  0  0
 17 18  1  0  0  0  0
 18 19  1  0  0  0  0
 18 20  1  0  0  0  0
 18 21  1  0  0  0  0
M  END
$$$$
s_22____2366540____9296322
  -OEChem-03222016482D

 18 19  0     0  0  0  0  0  0999 V2000
    6.1949   -5.4838    0.0000 C   0  0  0  0  0  0  0  0  0  0  0  0
    5.8860   -4.5327    0.0000 C   0  0  0  0  0  0  0  0  0  0  0  0
    5.5770   -3.5816    0.0000 C   0  0  0  0  0  0  0  0  0  0  0  0
    5.2680   -2.6306    0.0000 C   0  0  0  0  0  0  0  0  0  0  0  0
    5.9372   -1.8874    0.0000 O   0  0  0  0  0  0  0  0  0  0  0  0
    4.2899   -2.4226    0.0000 N   0  0  0  0  0  0  0  0  0  0  0  0
    3.9809   -1.4715    0.0000 C   0  0  0  0  0  0  0  0  0  0  0  0
    3.0028   -1.2636    0.0000 C   0  0  0  0  0  0  0  0  0  0  0  0
    2.6938   -0.3125    0.0000 C   0  0  0  0  0  0  0  0  0  0  0  0
    3.2858    0.5023    0.0000 C   0  0  0  0  0  0  0  0  0  0  0  0
    2.6938    1.3169    0.0000 N   0  0  0  0  0  0  0  0  0  0  0  0
    1.7360    1.0058    0.0000 C   0  0  0  0  0  0  0  0  0  0  0  0
    1.7360   -0.0012    0.0000 C   0  0  0  0  0  0  0  0  0  0  0  0
    0.8680   -0.4978    0.0000 C   0  0  0  0  0  0  0  0  0  0  0  0
    0.0000    0.0000    0.0000 C   0  0  0  0  0  0  0  0  0  0  0  0
   -0.0000    1.0058    0.0000 C   0  0  0  0  0  0  0  0  0  0  0  0
    0.8680    1.5138    0.0000 C   0  0  0  0  0  0  0  0  0  0  0  0
   -0.8675    1.5032    0.0000 F   0  0  0  0  0  0  0  0  0  0  0  0
  1  2  1  0  0  0  0
  2  3  3  0  0  0  0
  3  4  1  0  0  0  0
  4  5  2  0  0  0  0
  4  6  1  0  0  0  0
  6  7  1  0  0  0  0
  7  8  1  0  0  0  0
  8  9  1  0  0  0  0
  9 13  1  0  0  0  0
  9 10  2  0  0  0  0
 10 11  1  0  0  0  0
 11 12  1  0  0  0  0
 12 17  2  0  0  0  0
 12 13  1  0  0  0  0
 13 14  2  0  0  0  0
 14 15  1  0  0  0  0
 15 16  2  0  0  0  0
 16 17  1  0  0  0  0
 16 18  1  0  0  0  0
M  END
$$$$
s_22____8929618____58887
  -OEChem-03222016482D

 18 19  0     1  0  0  0  0  0999 V2000
    7.2857    2.2345    0.0000 C   0  0  0  0  0  0  0  0  0  0  0  0
    6.2857    2.2344    0.0000 C   0  0  0  0  0  0  0  0  0  0  0  0
    5.7857    1.3684    0.0000 C   0  0  0  0  0  0  0  0  0  0  0  0
    6.2858    0.5024    0.0000 O   0  0  0  0  0  0  0  0  0  0  0  0
    4.7857    1.3683    0.0000 N   0  0  0  0  0  0  0  0  0  0  0  0
    4.2858    0.5023    0.0000 C   0  0  3  0  0  0  0  0  0  0  0  0
    4.7859   -0.3637    0.0000 C   0  0  0  0  0  0  0  0  0  0  0  0
    3.2858    0.5022    0.0000 C   0  0  0  0  0  0  0  0  0  0  0  0
    2.6938   -0.3126    0.0000 N   0  0  0  0  0  0  0  0  0  0  0  0
    1.7360   -0.0013    0.0000 C   0  0  0  0  0  0  0  0  0  0  0  0
    0.8680   -0.4979    0.0000 C   0  0  0  0  0  0  0  0  0  0  0  0
    0.0000    0.0000    0.0000 C   0  0  0  0  0  0  0  0  0  0  0  0
    0.0000    1.0058    0.0000 C   0  0  0  0  0  0  0  0  0  0  0  0
    0.8680    1.5137    0.0000 C   0  0  0  0  0  0  0  0  0  0  0  0
    1.7360    1.0058    0.0000 C   0  0  0  0  0  0  0  0  0  0  0  0
    2.6938    1.3168    0.0000 N   0  0  0  0  0  0  0  0  0  0  0  0
   -0.8675    1.5033    0.0000 O   0  0  0  0  0  0  0  0  0  0  0  0
   -1.7320    1.0008    0.0000 C   0  0  0  0  0  0  0  0  0  0  0  0
  1  2  1  0  0  0  0
  2  3  1  0  0  0  0
  3  4  2  0  0  0  0
  3  5  1  0  0  0  0
  5  6  1  0  0  0  0
  6  7  1  0  0  0  0
  6  8  1  0  0  0  0
  8 16  2  0  0  0  0
  8  9  1  0  0  0  0
  9 10  1  0  0  0  0
 10 15  2  0  0  0  0
 10 11  1  0  0  0  0
 11 12  2  0  0  0  0
 12 13  1  0  0  0  0
 13 14  2  0  0  0  0
 14 15  1  0  0  0  0
 15 16  1  0  0  0  0
 13 17  1  0  0  0  0
 17 18  1  0  0  0  0
M  END
$$$$
s_270062____15775434____8147258
  -OEChem-03222016482D

 24 26  0     0  0  0  0  0  0999 V2000
   -0.0070    6.0189    0.0000 C   0  0  0  0  0  0  0  0  0  0  0  0
   -0.8701    5.5139    0.0000 C   0  0  0  0  0  0  0  0  0  0  0  0
   -0.8700    4.5138    0.0000 C   0  0  0  0  0  0  0  0  0  0  0  0
    0.0020    4.0138    0.0000 C   0  0  0  0  0  0  0  0  0  0  0  0
    0.8739    4.5138    0.0000 C   0  0  0  0  0  0  0  0  0  0  0  0
    0.8650    5.5189    0.0000 C   0  0  0  0  0  0  0  0  0  0  0  0
    0.0020    3.0138    0.0000 C   0  0  0  0  0  0  0  0  0  0  0  0
    0.8680    2.5138    0.0000 O   0  0  0  0  0  0  0  0  0  0  0  0
    0.8680    1.5138    0.0000 C   0  0  0  0  0  0  0  0  0  0  0  0
    0.0000    1.0058    0.0000 C   0  0  0  0  0  0  0  0  0  0  0  0
    0.0000    0.0000    0.0000 C   0  0  0  0  0  0  0  0  0  0  0  0
    0.8680   -0.4978    0.0000 C   0  0  0  0  0  0  0  0  0  0  0  0
    1.7360   -0.0012    0.0000 C   0  0  0  0  0  0  0  0  0  0  0  0
    1.7360    1.0058    0.0000 C   0  0  0  0  0  0  0  0  0  0  0  0
    2.6938    1.3169    0.0000 N   0  0  0  0  0  0  0  0  0  0  0  0
    3.2858    0.5023    0.0000 C   0  0  0  0  0  0  0  0  0  0  0  0
    2.6938   -0.3125    0.0000 C   0  0  0  0  0  0  0  0  0  0  0  0
    3.0028   -1.2636    0.0000 C   0  0  0  0  0  0  0  0  0  0  0  0
    3.9809   -1.4715    0.0000 C   0  0  0  0  0  0  0  0  0  0  0  0
    4.2899   -2.4226    0.0000 N   0  0  0  0  0  0  0  0  0  0  0  0
    5.2680   -2.6306    0.0000 C   0  0  0  0  0  0  0  0  0  0  0  0
    5.9372   -1.8874    0.0000 O   0  0  0  0  0  0  0  0  0  0  0  0
    5.5770   -3.5816    0.0000 C   0  0  0  0  0  0  0  0  0  0  0  0
    6.5551   -3.7896    0.0000 Cl  0  0  0  0  0  0  0  0  0  0  0  0
  1  6  2  0  0  0  0
  1  2  1  0  0  0  0
  2  3  2  0  0  0  0
  3  4  1  0  0  0  0
  4  5  2  0  0  0  0
  5  6  1  0  0  0  0
  4  7  1  0  0  0  0
  7  8  1  0  0  0  0
  8  9  1  0  0  0  0
  9 14  2  0  0  0  0
  9 10  1  0  0  0  0
 10 11  2  0  0  0  0
 11 12  1  0  0  0  0
 12 13  2  0  0  0  0
 13 17  1  0  0  0  0
 13 14  1  0  0  0  0
 14 15  1  0  0  0  0
 15 16  1  0  0  0  0
 16 17  2  0  0  0  0
 17 18  1  0  0  0  0
 18 19  1  0  0  0  0
 19 20  1  0  0  0  0
 20 21  1  0  0  0  0
 21 22  2  0  0  0  0
 21 23  1  0  0  0  0
 23 24  1  0  0  0  0
M  END
$$$$
s_22____13596594____8794444
  -OEChem-03222016482D

 17 18  0     0  0  0  0  0  0999 V2000
    0.0000    0.0000    0.0000 C   0  0  0  0  0  0  0  0  0  0  0  0
    0.8675   -0.4975    0.0000 C   0  0  0  0  0  0  0  0  0  0  0  0
    1.7405    0.0044    0.0000 C   0  0  0  0  0  0  0  0  0  0  0  0
    2.6940   -0.2997    0.0000 C   0  0  0  0  0  0  0  0  0  0  0  0
    3.2780    0.5133    0.0000 C   0  0  0  0  0  0  0  0  0  0  0  0
    2.6851    1.3196    0.0000 N   0  0  0  0  0  0  0  0  0  0  0  0
    1.7350    1.0052    0.0000 C   0  0  0  0  0  0  0  0  0  0  0  0
    0.8675    1.5129    0.0000 N   0  0  0  0  0  0  0  0  0  0  0  0
    0.0000    1.0052    0.0000 C   0  0  0  0  0  0  0  0  0  0  0  0
    3.0082   -1.2491    0.0000 C   0  0  0  0  0  0  0  0  0  0  0  0
    3.9874   -1.4517    0.0000 C   0  0  0  0  0  0  0  0  0  0  0  0
    4.3016   -2.4011    0.0000 N   0  0  0  0  0  0  0  0  0  0  0  0
    5.2808   -2.6037    0.0000 C   0  0  0  0  0  0  0  0  0  0  0  0
    5.9459   -1.8569    0.0000 O   0  0  0  0  0  0  0  0  0  0  0  0
    5.5950   -3.5530    0.0000 C   0  0  0  0  0  0  0  0  0  0  0  0
    6.5743   -3.7557    0.0000 C   0  0  0  0  0  0  0  0  0  0  0  0
    7.5535   -3.9583    0.0000 N   0  0  0  0  0  0  0  0  0  0  0  0
  1  9  2  0  0  0  0
  1  2  1  0  0  0  0
  2  3  2  0  0  0  0
  3  7  1  0  0  0  0
  3  4  1  0  0  0  0
  4  5  2  0  0  0  0
  5  6  1  0  0  0  0
  6  7  1  0  0  0  0
  7  8  2  0  0  0  0
  8  9  1  0  0  0  0
  4 10  1  0  0  0  0
 10 11  1  0  0  0  0
 11 12  1  0  0  0  0
 12 13  1  0  0  0  0
 13 14  2  0  0  0  0
 13 15  1  0  0  0  0
 15 16  1  0  0  0  0
 16 17  3  0  0  0  0
M  END
$$$$
s_22____2228922____58866
  -OEChem-03222016482D

 18 19  0     0  0  0  0  0  0999 V2000
    6.8641   -4.7407    0.0000 C   0  0  0  0  0  0  0  0  0  0  0  0
    6.5551   -3.7896    0.0000 C   0  0  0  0  0  0  0  0  0  0  0  0
    5.5770   -3.5816    0.0000 C   0  0  0  0  0  0  0  0  0  0  0  0
    5.2680   -2.6306    0.0000 C   0  0  0  0  0  0  0  0  0  0  0  0
    5.9372   -1.8874    0.0000 O   0  0  0  0  0  0  0  0  0  0  0  0
    4.2899   -2.4226    0.0000 N   0  0  0  0  0  0  0  0  0  0  0  0
    3.9809   -1.4715    0.0000 C   0  0  0  0  0  0  0  0  0  0  0  0
    3.0028   -1.2636    0.0000 C   0  0  0  0  0  0  0  0  0  0  0  0
    2.6938   -0.3125    0.0000 C   0  0  0  0  0  0  0  0  0  0  0  0
    3.2858    0.5023    0.0000 C   0  0  0  0  0  0  0  0  0  0  0  0
    2.6938    1.3169    0.0000 N   0  0  0  0  0  0  0  0  0  0  0  0
    1.7360    1.0058    0.0000 C   0  0  0  0  0  0  0  0  0  0  0  0
    1.7360   -0.0012    0.0000 C   0  0  0  0  0  0  0  0  0  0  0  0
    0.8680   -0.4978    0.0000 C   0  0  0  0  0  0  0  0  0  0  0  0
    0.0000    0.0000    0.0000 C   0  0  0  0  0  0  0  0  0  0  0  0
   -0.0000    1.0058    0.0000 C   0  0  0  0  0  0  0  0  0  0  0  0
    0.8680    1.5138    0.0000 C   0  0  0  0  0  0  0  0  0  0  0  0
   -0.8675    1.5032    0.0000 Cl  0  0  0  0  0  0  0  0  0  0  0  0
  1  2  1  0  0  0  0
  2  3  1  0  0  0  0
  3  4  1  0  0  0  0
  4  5  2  0  0  0  0
  4  6  1  0  0  0  0
  6  7  1  0  0  0  0
  7  8  1  0  0  0  0
  8  9  1  0  0  0  0
  9 13  1  0  0  0  0
  9 10  2  0  0  0  0
 10 11  1  0  0  0  0
 11 12  1  0  0  0  0
 12 17  2  0  0  0  0
 12 13  1  0  0  0  0
 13 14  2  0  0  0  0
 14 15  1  0  0  0  0
 15 16  2  0  0  0  0
 16 17  1  0  0  0  0
 16 18  1  0  0  0  0
M  END
$$$$
s_22____7533902____59039
  -OEChem-03222016482D

 17 18  0     0  0  0  0  0  0999 V2000
    8.7856    3.1007    0.0000 C   0  0  0  0  0  0  0  0  0  0  0  0
    7.7856    3.1006    0.0000 O   0  0  0  0  0  0  0  0  0  0  0  0
    7.2857    2.2346    0.0000 C   0  0  0  0  0  0  0  0  0  0  0  0
    6.2857    2.2345    0.0000 C   0  0  0  0  0  0  0  0  0  0  0  0
    5.7856    3.1005    0.0000 O   0  0  0  0  0  0  0  0  0  0  0  0
    5.7857    1.3685    0.0000 N   0  0  0  0  0  0  0  0  0  0  0  0
    4.7857    1.3684    0.0000 C   0  0  0  0  0  0  0  0  0  0  0  0
    4.2858    0.5024    0.0000 C   0  0  0  0  0  0  0  0  0  0  0  0
    3.2858    0.5023    0.0000 C   0  0  0  0  0  0  0  0  0  0  0  0
    2.6938   -0.3125    0.0000 C   0  0  0  0  0  0  0  0  0  0  0  0
    1.7360   -0.0012    0.0000 C   0  0  0  0  0  0  0  0  0  0  0  0
    0.8680   -0.4978    0.0000 C   0  0  0  0  0  0  0  0  0  0  0  0
    0.0000    0.0000    0.0000 C   0  0  0  0  0  0  0  0  0  0  0  0
    0.0000    1.0058    0.0000 C   0  0  0  0  0  0  0  0  0  0  0  0
    0.8680    1.5138    0.0000 C   0  0  0  0  0  0  0  0  0  0  0  0
    1.7360    1.0058    0.0000 C   0  0  0  0  0  0  0  0  0  0  0  0
    2.6938    1.3169    0.0000 N   0  0  0  0  0  0  0  0  0  0  0  0
  1  2  1  0  0  0  0
  2  3  1  0  0  0  0
  3  4  1  0  0  0  0
  4  5  2  0  0  0  0
  4  6  1  0  0  0  0
  6  7  1  0  0  0  0
  7  8  1  0  0  0  0
  8  9  1  0  0  0  0
  9 17  1  0  0  0  0
  9 10  2  0  0  0  0
 10 11  1  0  0  0  0
 11 16  2  0  0  0  0
 11 12  1  0  0  0  0
 12 13  2  0  0  0  0
 13 14  1  0  0  0  0
 14 15  2  0  0  0  0
 15 16  1  0  0  0  0
 16 17  1  0  0  0  0
M  END
$$$$
s_22____3219394____58866
  -OEChem-03222016482D

 18 19  0     0  0  0  0  0  0999 V2000
    6.8641   -4.7407    0.0000 C   0  0  0  0  0  0  0  0  0  0  0  0
    6.5551   -3.7896    0.0000 C   0  0  0  0  0  0  0  0  0  0  0  0
    5.5770   -3.5816    0.0000 C   0  0  0  0  0  0  0  0  0  0  0  0
    5.2680   -2.6306    0.0000 C   0  0  0  0  0  0  0  0  0  0  0  0
    5.9372   -1.8874    0.0000 O   0  0  0  0  0  0  0  0  0  0  0  0
    4.2899   -2.4226    0.0000 N   0  0  0  0  0  0  0  0  0  0  0  0
    3.9809   -1.4715    0.0000 C   0  0  0  0  0  0  0  0  0  0  0  0
    3.0028   -1.2636    0.0000 C   0  0  0  0  0  0  0  0  0  0  0  0
    2.6938   -0.3125    0.0000 C   0  0  0  0  0  0  0  0  0  0  0  0
    3.2858    0.5023    0.0000 C   0  0  0  0  0  0  0  0  0  0  0  0
    2.6938    1.3169    0.0000 N   0  0  0  0  0  0  0  0  0  0  0  0
    1.7360    1.0058    0.0000 C   0  0  0  0  0  0  0  0  0  0  0  0
    1.7360   -0.0012    0.0000 C   0  0  0  0  0  0  0  0  0  0  0  0
    0.8680   -0.4978    0.0000 C   0  0  0  0  0  0  0  0  0  0  0  0
    0.0000    0.0000    0.0000 C   0  0  0  0  0  0  0  0  0  0  0  0
   -0.0000    1.0058    0.0000 C   0  0  0  0  0  0  0  0  0  0  0  0
    0.8680    1.5138    0.0000 C   0  0  0  0  0  0  0  0  0  0  0  0
    0.8675   -1.4978    0.0000 C   0  0  0  0  0  0  0  0  0  0  0  0
  1  2  1  0  0  0  0
  2  3  1  0  0  0  0
  3  4  1  0  0  0  0
  4  5  2  0  0  0  0
  4  6  1  0  0  0  0
  6  7  1  0  0  0  0
  7  8  1  0  0  0  0
  8  9  1  0  0  0  0
  9 13  1  0  0  0  0
  9 10  2  0  0  0  0
 10 11  1  0  0  0  0
 11 12  1  0  0  0  0
 12 17  2  0  0  0  0
 12 13  1  0  0  0  0
 13 14  2  0  0  0  0
 14 15  1  0  0  0  0
 15 16  2  0  0  0  0
 16 17  1  0  0  0  0
 14 18  1  0  0  0  0
M  END
$$$$
s_270062____13978860____8147258
  -OEChem-03222016482D

 18 19  0     0  0  0  0  0  0999 V2000
   -0.8705    2.5032    0.0000 C   0  0  0  0  0  0  0  0  0  0  0  0
   -0.8675    1.5032    0.0000 O   0  0  0  0  0  0  0  0  0  0  0  0
    0.0000    1.0058    0.0000 C   0  0  0  0  0  0  0  0  0  0  0  0
    0.0000    0.0000    0.0000 C   0  0  0  0  0  0  0  0  0  0  0  0
    0.8680   -0.4978    0.0000 C   0  0  0  0  0  0  0  0  0  0  0  0
    1.7360   -0.0012    0.0000 C   0  0  0  0  0  0  0  0  0  0  0  0
    1.7360    1.0058    0.0000 C   0  0  0  0  0  0  0  0  0  0  0  0
    0.8680    1.5138    0.0000 C   0  0  0  0  0  0  0  0  0  0  0  0
    2.6938    1.3169    0.0000 N   0  0  0  0  0  0  0  0  0  0  0  0
    3.2858    0.5023    0.0000 C   0  0  0  0  0  0  0  0  0  0  0  0
    2.6938   -0.3125    0.0000 C   0  0  0  0  0  0  0  0  0  0  0  0
    3.0028   -1.2636    0.0000 C   0  0  0  0  0  0  0  0  0  0  0  0
    3.9809   -1.4715    0.0000 C   0  0  0  0  0  0  0  0  0  0  0  0
    4.2899   -2.4226    0.0000 N   0  0  0  0  0  0  0  0  0  0  0  0
    5.2680   -2.6306    0.0000 C   0  0  0  0  0  0  0  0  0  0  0  0
    5.9372   -1.8874    0.0000 O   0  0  0  0  0  0  0  0  0  0  0  0
    5.5770   -3.5816    0.0000 C   0  0  0  0  0  0  0  0  0  0  0  0
    6.5551   -3.7896    0.0000 Cl  0  0  0  0  0  0  0  0  0  0  0  0
  1  2  1  0  0  0  0
  2  3  1  0  0  0  0
  3  8  2  0  0  0  0
  3  4  1  0  0  0  0
  4  5  2  0  0  0  0
  5  6  1  0  0  0  0
  6 11  1  0  0  0  0
  6  7  2  0  0  0  0
  7  8  1  0  0  0  0
  7  9  1  0  0  0  0
  9 10  1  0  0  0  0
 10 11  2  0  0  0  0
 11 12  1  0  0  0  0
 12 13  1  0  0  0  0
 13 14  1  0  0  0  0
 14 15  1  0  0  0  0
 15 16  2  0  0  0  0
 15 17  1  0  0  0  0
 17 18  1  0  0  0  0
M  END
$$$$
s_11a____14724372____53455
  -OEChem-03222016482D

 21 22  0     1  0  0  0  0  0999 V2000
   -0.2918   -2.3339    0.0000 C   0  0  0  0  0  0  0  0  0  0  0  0
    0.6863   -2.5418    0.0000 C   0  0  0  0  0  0  0  0  0  0  0  0
    0.9953   -3.4929    0.0000 O   0  0  0  0  0  0  0  0  0  0  0  0
    1.3555   -1.7987    0.0000 N   0  0  0  0  0  0  0  0  0  0  0  0
    2.3336   -2.0067    0.0000 C   0  0  3  0  0  0  0  0  0  0  0  0
    3.0028   -1.2636    0.0000 C   0  0  0  0  0  0  0  0  0  0  0  0
    2.6938   -0.3125    0.0000 C   0  0  0  0  0  0  0  0  0  0  0  0
    3.2858    0.5023    0.0000 C   0  0  0  0  0  0  0  0  0  0  0  0
    2.6938    1.3169    0.0000 N   0  0  0  0  0  0  0  0  0  0  0  0
    1.7360    1.0058    0.0000 C   0  0  0  0  0  0  0  0  0  0  0  0
    1.7360   -0.0012    0.0000 C   0  0  0  0  0  0  0  0  0  0  0  0
    0.8680   -0.4978    0.0000 C   0  0  0  0  0  0  0  0  0  0  0  0
    0.0000    0.0000    0.0000 C   0  0  0  0  0  0  0  0  0  0  0  0
   -0.0000    1.0058    0.0000 C   0  0  0  0  0  0  0  0  0  0  0  0
    0.8680    1.5138    0.0000 C   0  0  0  0  0  0  0  0  0  0  0  0
   -0.8653   -0.5013    0.0000 O   0  0  0  0  0  0  0  0  0  0  0  0
   -0.8639   -1.5013    0.0000 C   0  0  0  0  0  0  0  0  0  0  0  0
    2.6426   -2.9578    0.0000 C   0  0  0  0  0  0  0  0  0  0  0  0
    1.9734   -3.7009    0.0000 O   0  0  0  0  0  0  0  0  0  0  0  0
    3.6207   -3.1657    0.0000 O   0  0  0  0  0  0  0  0  0  0  0  0
    3.9297   -4.1168    0.0000 C   0  0  0  0  0  0  0  0  0  0  0  0
  1  2  1  0  0  0  0
  2  3  2  0  0  0  0
  2  4  1  0  0  0  0
  4  5  1  0  0  0  0
  5  6  1  0  0  0  0
  6  7  1  0  0  0  0
  7 11  1  0  0  0  0
  7  8  2  0  0  0  0
  8  9  1  0  0  0  0
  9 10  1  0  0  0  0
 10 15  2  0  0  0  0
 10 11  1  0  0  0  0
 11 12  2  0  0  0  0
 12 13  1  0  0  0  0
 13 14  2  0  0  0  0
 14 15  1  0  0  0  0
 13 16  1  0  0  0  0
 16 17  1  0  0  0  0
  5 18  1  0  0  0  0
 18 19  2  0  0  0  0
 18 20  1  0  0  0  0
 20 21  1  0  0  0  0
M  END
$$$$
s_22____4839448____3489590
  -OEChem-03222016482D

 21 22  0     0  0  0  0  0  0999 V2000
   -1.7320   -0.0025    0.0000 C   0  0  0  0  0  0  0  0  0  0  0  0
   -0.8653   -0.5013    0.0000 O   0  0  0  0  0  0  0  0  0  0  0  0
    0.0000    0.0000    0.0000 C   0  0  0  0  0  0  0  0  0  0  0  0
   -0.0000    1.0058    0.0000 C   0  0  0  0  0  0  0  0  0  0  0  0
    0.8680    1.5138    0.0000 C   0  0  0  0  0  0  0  0  0  0  0  0
    1.7360    1.0058    0.0000 C   0  0  0  0  0  0  0  0  0  0  0  0
    1.7360   -0.0012    0.0000 C   0  0  0  0  0  0  0  0  0  0  0  0
    0.8680   -0.4978    0.0000 C   0  0  0  0  0  0  0  0  0  0  0  0
    2.6938   -0.3125    0.0000 C   0  0  0  0  0  0  0  0  0  0  0  0
    3.2858    0.5023    0.0000 C   0  0  0  0  0  0  0  0  0  0  0  0
    2.6938    1.3169    0.0000 N   0  0  0  0  0  0  0  0  0  0  0  0
    3.0028   -1.2636    0.0000 C   0  0  0  0  0  0  0  0  0  0  0  0
    3.9809   -1.4715    0.0000 C   0  0  0  0  0  0  0  0  0  0  0  0
    4.2899   -2.4226    0.0000 N   0  0  0  0  0  0  0  0  0  0  0  0
    5.2680   -2.6306    0.0000 C   0  0  0  0  0  0  0  0  0  0  0  0
    5.9372   -1.8874    0.0000 O   0  0  0  0  0  0  0  0  0  0  0  0
    5.5770   -3.5816    0.0000 C   0  0  0  0  0  0  0  0  0  0  0  0
    6.5551   -3.7896    0.0000 O   0  0  0  0  0  0  0  0  0  0  0  0
    6.8641   -4.7407    0.0000 C   0  0  0  0  0  0  0  0  0  0  0  0
    7.8422   -4.9486    0.0000 C   0  0  0  0  0  0  0  0  0  0  0  0
    8.1512   -5.8997    0.0000 C   0  0  0  0  0  0  0  0  0  0  0  0
  1  2  1  0  0  0  0
  2  3  1  0  0  0  0
  3  8  2  0  0  0  0
  3  4  1  0  0  0  0
  4  5  2  0  0  0  0
  5  6  1  0  0  0  0
  6 11  1  0  0  0  0
  6  7  2  0  0  0  0
  7  8  1  0  0  0  0
  7  9  1  0  0  0  0
  9 10  2  0  0  0  0
 10 11  1  0  0  0  0
  9 12  1  0  0  0  0
 12 13  1  0  0  0  0
 13 14  1  0  0  0  0
 14 15  1  0  0  0  0
 15 16  2  0  0  0  0
 15 17  1  0  0  0  0
 17 18  1  0  0  0  0
 18 19  1  0  0  0  0
 19 20  1  0  0  0  0
 20 21  2  0  0  0  0
M  END
$$$$
s_22____4839448____3124140
  -OEChem-03222016482D

 21 22  0     0  0  0  0  0  0999 V2000
    8.1512   -5.8997    0.0000 C   0  0  0  0  0  0  0  0  0  0  0  0
    7.8422   -4.9486    0.0000 C   0  0  0  0  0  0  0  0  0  0  0  0
    6.8641   -4.7407    0.0000 O   0  0  0  0  0  0  0  0  0  0  0  0
    6.5551   -3.7896    0.0000 C   0  0  0  0  0  0  0  0  0  0  0  0
    5.5770   -3.5816    0.0000 C   0  0  0  0  0  0  0  0  0  0  0  0
    5.2680   -2.6306    0.0000 C   0  0  0  0  0  0  0  0  0  0  0  0
    5.9372   -1.8874    0.0000 O   0  0  0  0  0  0  0  0  0  0  0  0
    4.2899   -2.4226    0.0000 N   0  0  0  0  0  0  0  0  0  0  0  0
    3.9809   -1.4715    0.0000 C   0  0  0  0  0  0  0  0  0  0  0  0
    3.0028   -1.2636    0.0000 C   0  0  0  0  0  0  0  0  0  0  0  0
    2.6938   -0.3125    0.0000 C   0  0  0  0  0  0  0  0  0  0  0  0
    3.2858    0.5023    0.0000 C   0  0  0  0  0  0  0  0  0  0  0  0
    2.6938    1.3169    0.0000 N   0  0  0  0  0  0  0  0  0  0  0  0
    1.7360    1.0058    0.0000 C   0  0  0  0  0  0  0  0  0  0  0  0
    1.7360   -0.0012    0.0000 C   0  0  0  0  0  0  0  0  0  0  0  0
    0.8680   -0.4978    0.0000 C   0  0  0  0  0  0  0  0  0  0  0  0
    0.0000    0.0000    0.0000 C   0  0  0  0  0  0  0  0  0  0  0  0
   -0.0000    1.0058    0.0000 C   0  0  0  0  0  0  0  0  0  0  0  0
    0.8680    1.5138    0.0000 C   0  0  0  0  0  0  0  0  0  0  0  0
   -0.8653   -0.5013    0.0000 O   0  0  0  0  0  0  0  0  0  0  0  0
   -0.8639   -1.5013    0.0000 C   0  0  0  0  0  0  0  0  0  0  0  0
  1  2  1  0  0  0  0
  2  3  1  0  0  0  0
  3  4  1  0  0  0  0
  4  5  1  0  0  0  0
  5  6  1  0  0  0  0
  6  7  2  0  0  0  0
  6  8  1  0  0  0  0
  8  9  1  0  0  0  0
  9 10  1  0  0  0  0
 10 11  1  0  0  0  0
 11 15  1  0  0  0  0
 11 12  2  0  0  0  0
 12 13  1  0  0  0  0
 13 14  1  0  0  0  0
 14 19  2  0  0  0  0
 14 15  1  0  0  0  0
 15 16  2  0  0  0  0
 16 17  1  0  0  0  0
 17 18  2  0  0  0  0
 18 19  1  0  0  0  0
 17 20  1  0  0  0  0
 20 21  1  0  0  0  0
M  END
$$$$
s_240690b____11689238____3025698
  -OEChem-03222016482D

 17 18  0     0  0  0  0  0  0999 V2000
   -0.8675    1.5032    0.0000 C   0  0  0  0  0  0  0  0  0  0  0  0
    0.0000    1.0058    0.0000 C   0  0  0  0  0  0  0  0  0  0  0  0
    0.0000    0.0000    0.0000 C   0  0  0  0  0  0  0  0  0  0  0  0
    0.8680   -0.4978    0.0000 C   0  0  0  0  0  0  0  0  0  0  0  0
    1.7360   -0.0012    0.0000 C   0  0  0  0  0  0  0  0  0  0  0  0
    1.7360    1.0058    0.0000 C   0  0  0  0  0  0  0  0  0  0  0  0
    0.8680    1.5138    0.0000 C   0  0  0  0  0  0  0  0  0  0  0  0
    2.6938    1.3169    0.0000 N   0  0  0  0  0  0  0  0  0  0  0  0
    3.2858    0.5023    0.0000 C   0  0  0  0  0  0  0  0  0  0  0  0
    2.6938   -0.3125    0.0000 C   0  0  0  0  0  0  0  0  0  0  0  0
    3.0028   -1.2636    0.0000 C   0  0  0  0  0  0  0  0  0  0  0  0
    3.9809   -1.4715    0.0000 C   0  0  0  0  0  0  0  0  0  0  0  0
    4.2899   -2.4226    0.0000 N   0  0  0  0  0  0  0  0  0  0  0  0
    5.2680   -2.6306    0.0000 C   0  0  0  0  0  0  0  0  0  0  0  0
    5.9372   -1.8874    0.0000 O   0  0  0  0  0  0  0  0  0  0  0  0
    5.5770   -3.5816    0.0000 C   0  0  0  0  0  0  0  0  0  0  0  0
    6.5551   -3.7896    0.0000 N   0  3  0  0  0  0  0  0  0  0  0  0
  1  2  1  0  0  0  0
  2  7  2  0  0  0  0
  2  3  1  0  0  0  0
  3  4  2  0  0  0  0
  4  5  1  0  0  0  0
  5 10  1  0  0  0  0
  5  6  2  0  0  0  0
  6  7  1  0  0  0  0
  6  8  1  0  0  0  0
  8  9  1  0  0  0  0
  9 10  2  0  0  0  0
 10 11  1  0  0  0  0
 11 12  1  0  0  0  0
 12 13  1  0  0  0  0
 13 14  1  0  0  0  0
 14 15  2  0  0  0  0
 14 16  1  0  0  0  0
 16 17  1  0  0  0  0
M  CHG  1  17   1
M  END
$$$$
s_270062____16412660____8147258
  -OEChem-03222016482D

 18 19  0     1  0  0  0  0  0999 V2000
    0.0000    0.0000    0.0000 C   0  0  0  0  0  0  0  0  0  0  0  0
   -0.0000    1.0058    0.0000 C   0  0  0  0  0  0  0  0  0  0  0  0
    0.8680    1.5138    0.0000 C   0  0  0  0  0  0  0  0  0  0  0  0
    1.7360    1.0058    0.0000 C   0  0  0  0  0  0  0  0  0  0  0  0
    1.7360   -0.0012    0.0000 C   0  0  0  0  0  0  0  0  0  0  0  0
    0.8680   -0.4978    0.0000 C   0  0  0  0  0  0  0  0  0  0  0  0
    2.6938   -0.3125    0.0000 C   0  0  0  0  0  0  0  0  0  0  0  0
    3.2858    0.5023    0.0000 C   0  0  0  0  0  0  0  0  0  0  0  0
    2.6938    1.3169    0.0000 N   0  0  0  0  0  0  0  0  0  0  0  0
    3.0028   -1.2636    0.0000 C   0  0  0  0  0  0  0  0  0  0  0  0
    3.9809   -1.4715    0.0000 C   0  0  3  0  0  0  0  0  0  0  0  0
    4.6501   -0.7284    0.0000 C   0  0  0  0  0  0  0  0  0  0  0  0
    4.3411    0.2227    0.0000 O   0  0  0  0  0  0  0  0  0  0  0  0
    4.2899   -2.4226    0.0000 N   0  0  0  0  0  0  0  0  0  0  0  0
    5.2680   -2.6306    0.0000 C   0  0  0  0  0  0  0  0  0  0  0  0
    5.9372   -1.8874    0.0000 O   0  0  0  0  0  0  0  0  0  0  0  0
    5.5770   -3.5816    0.0000 C   0  0  0  0  0  0  0  0  0  0  0  0
    6.5551   -3.7896    0.0000 Cl  0  0  0  0  0  0  0  0  0  0  0  0
  1  6  2  0  0  0  0
  1  2  1  0  0  0  0
  2  3  2  0  0  0  0
  3  4  1  0  0  0  0
  4  9  1  0  0  0  0
  4  5  2  0  0  0  0
  5  6  1  0  0  0  0
  5  7  1  0  0  0  0
  7  8  2  0  0  0  0
  8  9  1  0  0  0  0
  7 10  1  0  0  0  0
 10 11  1  0  0  0  0
 11 12  1  0  0  0  0
 12 13  1  0  0  0  0
 11 14  1  0  0  0  0
 14 15  1  0  0  0  0
 15 16  2  0  0  0  0
 15 17  1  0  0  0  0
 17 18  1  0  0  0  0
M  END
$$$$
s_2554____15754608____951600
  -OEChem-03222016482D

 20 21  0     1  0  0  0  0  0999 V2000
    6.8641   -4.7407    0.0000 C   0  0  0  0  0  0  0  0  0  0  0  0
    6.5551   -3.7896    0.0000 C   0  0  0  0  0  0  0  0  0  0  0  0
    5.5770   -3.5816    0.0000 N   0  0  0  0  0  0  0  0  0  0  0  0
    5.2680   -2.6306    0.0000 C   0  0  0  0  0  0  0  0  0  0  0  0
    5.9372   -1.8874    0.0000 O   0  0  0  0  0  0  0  0  0  0  0  0
    4.2899   -2.4226    0.0000 N   0  0  0  0  0  0  0  0  0  0  0  0
    3.9809   -1.4715    0.0000 C   0  0  0  0  0  0  0  0  0  0  0  0
    3.0028   -1.2636    0.0000 C   0  0  3  0  0  0  0  0  0  0  0  0
    2.3336   -2.0067    0.0000 C   0  0  0  0  0  0  0  0  0  0  0  0
    2.6938   -0.3125    0.0000 C   0  0  0  0  0  0  0  0  0  0  0  0
    3.2858    0.5023    0.0000 C   0  0  0  0  0  0  0  0  0  0  0  0
    2.6938    1.3169    0.0000 N   0  0  0  0  0  0  0  0  0  0  0  0
    1.7360    1.0058    0.0000 C   0  0  0  0  0  0  0  0  0  0  0  0
    1.7360   -0.0012    0.0000 C   0  0  0  0  0  0  0  0  0  0  0  0
    0.8680   -0.4978    0.0000 C   0  0  0  0  0  0  0  0  0  0  0  0
    0.0000    0.0000    0.0000 C   0  0  0  0  0  0  0  0  0  0  0  0
   -0.0000    1.0058    0.0000 C   0  0  0  0  0  0  0  0  0  0  0  0
    0.8680    1.5138    0.0000 C   0  0  0  0  0  0  0  0  0  0  0  0
   -0.8653   -0.5013    0.0000 O   0  0  0  0  0  0  0  0  0  0  0  0
   -0.8639   -1.5013    0.0000 C   0  0  0  0  0  0  0  0  0  0  0  0
  1  2  1  0  0  0  0
  2  3  1  0  0  0  0
  3  4  1  0  0  0  0
  4  5  2  0  0  0  0
  4  6  1  0  0  0  0
  6  7  1  0  0  0  0
  7  8  1  0  0  0  0
  8  9  1  0  0  0  0
  8 10  1  0  0  0  0
 10 14  1  0  0  0  0
 10 11  2  0  0  0  0
 11 12  1  0  0  0  0
 12 13  1  0  0  0  0
 13 18  2  0  0  0  0
 13 14  1  0  0  0  0
 14 15  2  0  0  0  0
 15 16  1  0  0  0  0
 16 17  2  0  0  0  0
 17 18  1  0  0  0  0
 16 19  1  0  0  0  0
 19 20  1  0  0  0  0
M  END
$$$$
s_22____6079110____7941800
  -OEChem-03222016482D

 17 18  0     0  0  0  0  0  0999 V2000
   -0.0000    1.0058    0.0000 C   0  0  0  0  0  0  0  0  0  0  0  0
    0.8680    1.5138    0.0000 C   0  0  0  0  0  0  0  0  0  0  0  0
    1.7360    1.0058    0.0000 C   0  0  0  0  0  0  0  0  0  0  0  0
    1.7360   -0.0012    0.0000 C   0  0  0  0  0  0  0  0  0  0  0  0
    0.8680   -0.4978    0.0000 C   0  0  0  0  0  0  0  0  0  0  0  0
    0.0000    0.0000    0.0000 C   0  0  0  0  0  0  0  0  0  0  0  0
   -0.8653   -0.5013    0.0000 Cl  0  0  0  0  0  0  0  0  0  0  0  0
    2.6938   -0.3125    0.0000 C   0  0  0  0  0  0  0  0  0  0  0  0
    3.2858    0.5023    0.0000 C   0  0  0  0  0  0  0  0  0  0  0  0
    2.6938    1.3169    0.0000 N   0  0  0  0  0  0  0  0  0  0  0  0
    3.0028   -1.2636    0.0000 C   0  0  0  0  0  0  0  0  0  0  0  0
    3.9809   -1.4715    0.0000 C   0  0  0  0  0  0  0  0  0  0  0  0
    4.2899   -2.4226    0.0000 N   0  0  0  0  0  0  0  0  0  0  0  0
    5.2680   -2.6306    0.0000 C   0  0  0  0  0  0  0  0  0  0  0  0
    5.9372   -1.8874    0.0000 O   0  0  0  0  0  0  0  0  0  0  0  0
    5.5770   -3.5816    0.0000 C   0  0  0  0  0  0  0  0  0  0  0  0
    6.5551   -3.7896    0.0000 O   0  0  0  0  0  0  0  0  0  0  0  0
  1  6  2  0  0  0  0
  1  2  1  0  0  0  0
  2  3  2  0  0  0  0
  3 10  1  0  0  0  0
  3  4  1  0  0  0  0
  4  5  2  0  0  0  0
  5  6  1  0  0  0  0
  6  7  1  0  0  0  0
  4  8  1  0  0  0  0
  8  9  2  0  0  0  0
  9 10  1  0  0  0  0
  8 11  1  0  0  0  0
 11 12  1  0  0  0  0
 12 13  1  0  0  0  0
 13 14  1  0  0  0  0
 14 15  2  0  0  0  0
 14 16  1  0  0  0  0
 16 17  1  0  0  0  0
M  END
$$$$
s_22____9226532____337030
  -OEChem-03222016482D

 20 21  0     0  0  0  0  0  0999 V2000
    1.7327   -2.9983    0.0000 C   0  0  0  0  0  0  0  0  0  0  0  0
    1.7332   -1.9983    0.0000 C   0  0  0  0  0  0  0  0  0  0  0  0
    0.8675   -1.4978    0.0000 O   0  0  0  0  0  0  0  0  0  0  0  0
    0.8680   -0.4978    0.0000 C   0  0  0  0  0  0  0  0  0  0  0  0
    0.0000    0.0000    0.0000 C   0  0  0  0  0  0  0  0  0  0  0  0
   -0.0000    1.0058    0.0000 C   0  0  0  0  0  0  0  0  0  0  0  0
    0.8680    1.5138    0.0000 C   0  0  0  0  0  0  0  0  0  0  0  0
    1.7360    1.0058    0.0000 C   0  0  0  0  0  0  0  0  0  0  0  0
    1.7360   -0.0012    0.0000 C   0  0  0  0  0  0  0  0  0  0  0  0
    2.6938   -0.3125    0.0000 C   0  0  0  0  0  0  0  0  0  0  0  0
    3.2858    0.5023    0.0000 C   0  0  0  0  0  0  0  0  0  0  0  0
    2.6938    1.3169    0.0000 N   0  0  0  0  0  0  0  0  0  0  0  0
    3.0028   -1.2636    0.0000 C   0  0  0  0  0  0  0  0  0  0  0  0
    3.9809   -1.4715    0.0000 C   0  0  0  0  0  0  0  0  0  0  0  0
    4.2899   -2.4226    0.0000 N   0  0  0  0  0  0  0  0  0  0  0  0
    5.2680   -2.6306    0.0000 C   0  0  0  0  0  0  0  0  0  0  0  0
    5.9372   -1.8874    0.0000 O   0  0  0  0  0  0  0  0  0  0  0  0
    5.5770   -3.5816    0.0000 C   0  0  0  0  0  0  0  0  0  0  0  0
    6.5551   -3.7896    0.0000 C   0  0  0  0  0  0  0  0  0  0  0  0
    4.9078   -4.3247    0.0000 C   0  0  0  0  0  0  0  0  0  0  0  0
  1  2  1  0  0  0  0
  2  3  1  0  0  0  0
  3  4  1  0  0  0  0
  4  9  2  0  0  0  0
  4  5  1  0  0  0  0
  5  6  2  0  0  0  0
  6  7  1  0  0  0  0
  7  8  2  0  0  0  0
  8 12  1  0  0  0  0
  8  9  1  0  0  0  0
  9 10  1  0  0  0  0
 10 11  2  0  0  0  0
 11 12  1  0  0  0  0
 10 13  1  0  0  0  0
 13 14  1  0  0  0  0
 14 15  1  0  0  0  0
 15 16  1  0  0  0  0
 16 17  2  0  0  0  0
 16 18  1  0  0  0  0
 18 19  1  0  0  0  0
 18 20  1  0  0  0  0
M  END
$$$$
s_512____7932012____13025528
  -OEChem-03222016482D

 21 22  0     0  0  0  0  0  0999 V2000
    7.4820   -6.6428    0.0000 C   0  0  0  0  0  0  0  0  0  0  0  0
    7.1731   -5.6917    0.0000 C   0  0  0  0  0  0  0  0  0  0  0  0
    6.8641   -4.7407    0.0000 C   0  0  0  0  0  0  0  0  0  0  0  0
    6.5551   -3.7896    0.0000 C   0  0  0  0  0  0  0  0  0  0  0  0
    5.5770   -3.5816    0.0000 N   0  0  0  0  0  0  0  0  0  0  0  0
    5.2680   -2.6306    0.0000 C   0  0  0  0  0  0  0  0  0  0  0  0
    5.9372   -1.8874    0.0000 O   0  0  0  0  0  0  0  0  0  0  0  0
    4.2899   -2.4226    0.0000 N   0  0  0  0  0  0  0  0  0  0  0  0
    3.9809   -1.4715    0.0000 C   0  0  0  0  0  0  0  0  0  0  0  0
    3.0028   -1.2636    0.0000 C   0  0  0  0  0  0  0  0  0  0  0  0
    2.6938   -0.3125    0.0000 C   0  0  0  0  0  0  0  0  0  0  0  0
    3.2858    0.5023    0.0000 C   0  0  0  0  0  0  0  0  0  0  0  0
    2.6938    1.3169    0.0000 N   0  0  0  0  0  0  0  0  0  0  0  0
    1.7360    1.0058    0.0000 C   0  0  0  0  0  0  0  0  0  0  0  0
    1.7360   -0.0012    0.0000 C   0  0  0  0  0  0  0  0  0  0  0  0
    0.8680   -0.4978    0.0000 C   0  0  0  0  0  0  0  0  0  0  0  0
    0.0000    0.0000    0.0000 C   0  0  0  0  0  0  0  0  0  0  0  0
   -0.0000    1.0058    0.0000 C   0  0  0  0  0  0  0  0  0  0  0  0
    0.8680    1.5138    0.0000 C   0  0  0  0  0  0  0  0  0  0  0  0
    0.8675   -1.4978    0.0000 O   0  0  0  0  0  0  0  0  0  0  0  0
    1.7332   -1.9983    0.0000 C   0  0  0  0  0  0  0  0  0  0  0  0
  1  2  1  0  0  0  0
  2  3  3  0  0  0  0
  3  4  1  0  0  0  0
  4  5  1  0  0  0  0
  5  6  1  0  0  0  0
  6  7  2  0  0  0  0
  6  8  1  0  0  0  0
  8  9  1  0  0  0  0
  9 10  1  0  0  0  0
 10 11  1  0  0  0  0
 11 15  1  0  0  0  0
 11 12  2  0  0  0  0
 12 13  1  0  0  0  0
 13 14  1  0  0  0  0
 14 19  2  0  0  0  0
 14 15  1  0  0  0  0
 15 16  2  0  0  0  0
 16 17  1  0  0  0  0
 17 18  2  0  0  0  0
 18 19  1  0  0  0  0
 16 20  1  0  0  0  0
 20 21  1  0  0  0  0
M  END
$$$$
s_22____9226532____294126
  -OEChem-03222016482D

 22 23  0     0  0  0  0  0  0999 V2000
    1.7327   -2.9983    0.0000 C   0  0  0  0  0  0  0  0  0  0  0  0
    1.7332   -1.9983    0.0000 C   0  0  0  0  0  0  0  0  0  0  0  0
    0.8675   -1.4978    0.0000 O   0  0  0  0  0  0  0  0  0  0  0  0
    0.8680   -0.4978    0.0000 C   0  0  0  0  0  0  0  0  0  0  0  0
    0.0000    0.0000    0.0000 C   0  0  0  0  0  0  0  0  0  0  0  0
   -0.0000    1.0058    0.0000 C   0  0  0  0  0  0  0  0  0  0  0  0
    0.8680    1.5138    0.0000 C   0  0  0  0  0  0  0  0  0  0  0  0
    1.7360    1.0058    0.0000 C   0  0  0  0  0  0  0  0  0  0  0  0
    1.7360   -0.0012    0.0000 C   0  0  0  0  0  0  0  0  0  0  0  0
    2.6938   -0.3125    0.0000 C   0  0  0  0  0  0  0  0  0  0  0  0
    3.2858    0.5023    0.0000 C   0  0  0  0  0  0  0  0  0  0  0  0
    2.6938    1.3169    0.0000 N   0  0  0  0  0  0  0  0  0  0  0  0
    3.0028   -1.2636    0.0000 C   0  0  0  0  0  0  0  0  0  0  0  0
    3.9809   -1.4715    0.0000 C   0  0  0  0  0  0  0  0  0  0  0  0
    4.2899   -2.4226    0.0000 N   0  0  0  0  0  0  0  0  0  0  0  0
    5.2680   -2.6306    0.0000 C   0  0  0  0  0  0  0  0  0  0  0  0
    5.9372   -1.8874    0.0000 O   0  0  0  0  0  0  0  0  0  0  0  0
    5.5770   -3.5816    0.0000 C   0  0  0  0  0  0  0  0  0  0  0  0
    6.5551   -3.7896    0.0000 C   0  0  0  0  0  0  0  0  0  0  0  0
    6.7631   -2.8115    0.0000 C   0  0  0  0  0  0  0  0  0  0  0  0
    6.3472   -4.7677    0.0000 C   0  0  0  0  0  0  0  0  0  0  0  0
    7.5333   -3.9976    0.0000 C   0  0  0  0  0  0  0  0  0  0  0  0
  1  2  1  0  0  0  0
  2  3  1  0  0  0  0
  3  4  1  0  0  0  0
  4  9  2  0  0  0  0
  4  5  1  0  0  0  0
  5  6  2  0  0  0  0
  6  7  1  0  0  0  0
  7  8  2  0  0  0  0
  8 12  1  0  0  0  0
  8  9  1  0  0  0  0
  9 10  1  0  0  0  0
 10 11  2  0  0  0  0
 11 12  1  0  0  0  0
 10 13  1  0  0  0  0
 13 14  1  0  0  0  0
 14 15  1  0  0  0  0
 15 16  1  0  0  0  0
 16 17  2  0  0  0  0
 16 18  1  0  0  0  0
 18 19  1  0  0  0  0
 19 20  1  0  0  0  0
 19 21  1  0  0  0  0
 19 22  1  0  0  0  0
M  END
$$$$
s_22____15754586____59039
  -OEChem-03222016482D

 20 21  0     1  0  0  0  0  0999 V2000
    3.9809   -1.4715    0.0000 C   0  0  0  0  0  0  0  0  0  0  0  0
    3.0028   -1.2636    0.0000 C   0  0  3  0  0  0  0  0  0  0  0  0
    2.3336   -2.0067    0.0000 C   0  0  0  0  0  0  0  0  0  0  0  0
    2.6426   -2.9578    0.0000 N   0  0  0  0  0  0  0  0  0  0  0  0
    1.9734   -3.7009    0.0000 C   0  0  0  0  0  0  0  0  0  0  0  0
    0.9953   -3.4929    0.0000 O   0  0  0  0  0  0  0  0  0  0  0  0
    2.2824   -4.6519    0.0000 C   0  0  0  0  0  0  0  0  0  0  0  0
    1.6132   -5.3951    0.0000 O   0  0  0  0  0  0  0  0  0  0  0  0
    1.9222   -6.3461    0.0000 C   0  0  0  0  0  0  0  0  0  0  0  0
    2.6938   -0.3125    0.0000 C   0  0  0  0  0  0  0  0  0  0  0  0
    3.2858    0.5023    0.0000 C   0  0  0  0  0  0  0  0  0  0  0  0
    2.6938    1.3169    0.0000 N   0  0  0  0  0  0  0  0  0  0  0  0
    1.7360    1.0058    0.0000 C   0  0  0  0  0  0  0  0  0  0  0  0
    1.7360   -0.0012    0.0000 C   0  0  0  0  0  0  0  0  0  0  0  0
    0.8680   -0.4978    0.0000 C   0  0  0  0  0  0  0  0  0  0  0  0
    0.0000    0.0000    0.0000 C   0  0  0  0  0  0  0  0  0  0  0  0
   -0.0000    1.0058    0.0000 C   0  0  0  0  0  0  0  0  0  0  0  0
    0.8680    1.5138    0.0000 C   0  0  0  0  0  0  0  0  0  0  0  0
   -0.8653   -0.5013    0.0000 O   0  0  0  0  0  0  0  0  0  0  0  0
   -0.8639   -1.5013    0.0000 C   0  0  0  0  0  0  0  0  0  0  0  0
  1  2  1  0  0  0  0
  2  3  1  0  0  0  0
  3  4  1  0  0  0  0
  4  5  1  0  0  0  0
  5  6  2  0  0  0  0
  5  7  1  0  0  0  0
  7  8  1  0  0  0  0
  8  9  1  0  0  0  0
  2 10  1  0  0  0  0
 10 14  1  0  0  0  0
 10 11  2  0  0  0  0
 11 12  1  0  0  0  0
 12 13  1  0  0  0  0
 13 18  2  0  0  0  0
 13 14  1  0  0  0  0
 14 15  2  0  0  0  0
 15 16  1  0  0  0  0
 16 17  2  0  0  0  0
 17 18  1  0  0  0  0
 16 19  1  0  0  0  0
 19 20  1  0  0  0  0
M  END
$$$$
s_240690b____7354134____13151248
  -OEChem-03222016482D

 18 19  0     0  0  0  0  0  0999 V2000
   -0.0000    1.0058    0.0000 C   0  0  0  0  0  0  0  0  0  0  0  0
    0.8680    1.5138    0.0000 C   0  0  0  0  0  0  0  0  0  0  0  0
    1.7360    1.0058    0.0000 C   0  0  0  0  0  0  0  0  0  0  0  0
    1.7360   -0.0012    0.0000 C   0  0  0  0  0  0  0  0  0  0  0  0
    0.8680   -0.4978    0.0000 C   0  0  0  0  0  0  0  0  0  0  0  0
    0.0000    0.0000    0.0000 C   0  0  0  0  0  0  0  0  0  0  0  0
   -0.8653   -0.5013    0.0000 Cl  0  0  0  0  0  0  0  0  0  0  0  0
    2.6938   -0.3125    0.0000 C   0  0  0  0  0  0  0  0  0  0  0  0
    3.2858    0.5023    0.0000 C   0  0  0  0  0  0  0  0  0  0  0  0
    2.6938    1.3169    0.0000 N   0  0  0  0  0  0  0  0  0  0  0  0
    3.0028   -1.2636    0.0000 C   0  0  0  0  0  0  0  0  0  0  0  0
    3.9809   -1.4715    0.0000 C   0  0  0  0  0  0  0  0  0  0  0  0
    4.2899   -2.4226    0.0000 N   0  0  0  0  0  0  0  0  0  0  0  0
    5.2680   -2.6306    0.0000 C   0  0  0  0  0  0  0  0  0  0  0  0
    5.9372   -1.8874    0.0000 O   0  0  0  0  0  0  0  0  0  0  0  0
    5.5770   -3.5816    0.0000 C   0  0  0  0  0  0  0  0  0  0  0  0
    6.5551   -3.7896    0.0000 O   0  0  0  0  0  0  0  0  0  0  0  0
    6.8641   -4.7407    0.0000 N   0  0  0  0  0  0  0  0  0  0  0  0
  1  6  2  0  0  0  0
  1  2  1  0  0  0  0
  2  3  2  0  0  0  0
  3 10  1  0  0  0  0
  3  4  1  0  0  0  0
  4  5  2  0  0  0  0
  5  6  1  0  0  0  0
  6  7  1  0  0  0  0
  4  8  1  0  0  0  0
  8  9  2  0  0  0  0
  9 10  1  0  0  0  0
  8 11  1  0  0  0  0
 11 12  1  0  0  0  0
 12 13  1  0  0  0  0
 13 14  1  0  0  0  0
 14 15  2  0  0  0  0
 14 16  1  0  0  0  0
 16 17  1  0  0  0  0
 17 18  1  0  0  0  0
M  END
$$$$
s_22____13771018____58844
  -OEChem-03222016482D

 19 20  0     0  0  0  0  0  0999 V2000
   -3.4641   -0.0050    0.0000 C   0  0  0  0  0  0  0  0  0  0  0  0
   -2.5974   -0.5038    0.0000 C   0  0  0  0  0  0  0  0  0  0  0  0
   -1.7320   -0.0025    0.0000 C   0  0  0  0  0  0  0  0  0  0  0  0
   -0.8653   -0.5013    0.0000 O   0  0  0  0  0  0  0  0  0  0  0  0
    0.0000    0.0000    0.0000 C   0  0  0  0  0  0  0  0  0  0  0  0
   -0.0000    1.0058    0.0000 C   0  0  0  0  0  0  0  0  0  0  0  0
    0.8680    1.5138    0.0000 C   0  0  0  0  0  0  0  0  0  0  0  0
    1.7360    1.0058    0.0000 C   0  0  0  0  0  0  0  0  0  0  0  0
    1.7360   -0.0012    0.0000 C   0  0  0  0  0  0  0  0  0  0  0  0
    0.8680   -0.4978    0.0000 C   0  0  0  0  0  0  0  0  0  0  0  0
    2.6938   -0.3125    0.0000 C   0  0  0  0  0  0  0  0  0  0  0  0
    3.2858    0.5023    0.0000 C   0  0  0  0  0  0  0  0  0  0  0  0
    2.6938    1.3169    0.0000 N   0  0  0  0  0  0  0  0  0  0  0  0
    3.0028   -1.2636    0.0000 C   0  0  0  0  0  0  0  0  0  0  0  0
    3.9809   -1.4715    0.0000 C   0  0  0  0  0  0  0  0  0  0  0  0
    4.2899   -2.4226    0.0000 N   0  0  0  0  0  0  0  0  0  0  0  0
    5.2680   -2.6306    0.0000 C   0  0  0  0  0  0  0  0  0  0  0  0
    5.9372   -1.8874    0.0000 O   0  0  0  0  0  0  0  0  0  0  0  0
    5.5770   -3.5816    0.0000 C   0  0  0  0  0  0  0  0  0  0  0  0
  1  2  1  0  0  0  0
  2  3  1  0  0  0  0
  3  4  1  0  0  0  0
  4  5  1  0  0  0  0
  5 10  2  0  0  0  0
  5  6  1  0  0  0  0
  6  7  2  0  0  0  0
  7  8  1  0  0  0  0
  8 13  1  0  0  0  0
  8  9  2  0  0  0  0
  9 10  1  0  0  0  0
  9 11  1  0  0  0  0
 11 12  2  0  0  0  0
 12 13  1  0  0  0  0
 11 14  1  0  0  0  0
 14 15  1  0  0  0  0
 15 16  1  0  0  0  0
 16 17  1  0  0  0  0
 17 18  2  0  0  0  0
 17 19  1  0  0  0  0
M  END
$$$$
s_22____13025516____58844
  -OEChem-03222016482D

 17 18  0     0  0  0  0  0  0999 V2000
    5.5770   -3.5816    0.0000 C   0  0  0  0  0  0  0  0  0  0  0  0
    5.2680   -2.6306    0.0000 C   0  0  0  0  0  0  0  0  0  0  0  0
    5.9372   -1.8874    0.0000 O   0  0  0  0  0  0  0  0  0  0  0  0
    4.2899   -2.4226    0.0000 N   0  0  0  0  0  0  0  0  0  0  0  0
    3.9809   -1.4715    0.0000 C   0  0  0  0  0  0  0  0  0  0  0  0
    3.0028   -1.2636    0.0000 C   0  0  0  0  0  0  0  0  0  0  0  0
    2.6938   -0.3125    0.0000 C   0  0  0  0  0  0  0  0  0  0  0  0
    3.2858    0.5023    0.0000 C   0  0  0  0  0  0  0  0  0  0  0  0
    2.6938    1.3169    0.0000 N   0  0  0  0  0  0  0  0  0  0  0  0
    1.7360    1.0058    0.0000 C   0  0  0  0  0  0  0  0  0  0  0  0
    1.7360   -0.0012    0.0000 C   0  0  0  0  0  0  0  0  0  0  0  0
    0.8680   -0.4978    0.0000 C   0  0  0  0  0  0  0  0  0  0  0  0
    0.0000    0.0000    0.0000 C   0  0  0  0  0  0  0  0  0  0  0  0
   -0.0000    1.0058    0.0000 C   0  0  0  0  0  0  0  0  0  0  0  0
    0.8680    1.5138    0.0000 C   0  0  0  0  0  0  0  0  0  0  0  0
    0.8675   -1.4978    0.0000 O   0  0  0  0  0  0  0  0  0  0  0  0
    1.7332   -1.9983    0.0000 C   0  0  0  0  0  0  0  0  0  0  0  0
  1  2  1  0  0  0  0
  2  3  2  0  0  0  0
  2  4  1  0  0  0  0
  4  5  1  0  0  0  0
  5  6  1  0  0  0  0
  6  7  1  0  0  0  0
  7 11  1  0  0  0  0
  7  8  2  0  0  0  0
  8  9  1  0  0  0  0
  9 10  1  0  0  0  0
 10 15  2  0  0  0  0
 10 11  1  0  0  0  0
 11 12  2  0  0  0  0
 12 13  1  0  0  0  0
 13 14  2  0  0  0  0
 14 15  1  0  0  0  0
 12 16  1  0  0  0  0
 16 17  1  0  0  0  0
M  END
$$$$
s_22____15506616____7941096
  -OEChem-03222016482D

 19 20  0     1  0  0  0  0  0999 V2000
    4.9078   -4.3247    0.0000 C   0  0  0  0  0  0  0  0  0  0  0  0
    5.5770   -3.5816    0.0000 C   0  0  3  0  0  0  0  0  0  0  0  0
    5.2680   -2.6306    0.0000 C   0  0  0  0  0  0  0  0  0  0  0  0
    5.9372   -1.8874    0.0000 O   0  0  0  0  0  0  0  0  0  0  0  0
    4.2899   -2.4226    0.0000 N   0  0  0  0  0  0  0  0  0  0  0  0
    3.9809   -1.4715    0.0000 C   0  0  0  0  0  0  0  0  0  0  0  0
    3.0028   -1.2636    0.0000 C   0  0  0  0  0  0  0  0  0  0  0  0
    2.6938   -0.3125    0.0000 C   0  0  0  0  0  0  0  0  0  0  0  0
    3.2858    0.5023    0.0000 C   0  0  0  0  0  0  0  0  0  0  0  0
    2.6938    1.3169    0.0000 N   0  0  0  0  0  0  0  0  0  0  0  0
    1.7360    1.0058    0.0000 C   0  0  0  0  0  0  0  0  0  0  0  0
    1.7360   -0.0012    0.0000 C   0  0  0  0  0  0  0  0  0  0  0  0
    0.8680   -0.4978    0.0000 C   0  0  0  0  0  0  0  0  0  0  0  0
    0.0000    0.0000    0.0000 C   0  0  0  0  0  0  0  0  0  0  0  0
   -0.0000    1.0058    0.0000 C   0  0  0  0  0  0  0  0  0  0  0  0
    0.8680    1.5138    0.0000 C   0  0  0  0  0  0  0  0  0  0  0  0
    0.8680    2.5138    0.0000 O   0  0  0  0  0  0  0  0  0  0  0  0
    0.0020    3.0138    0.0000 C   0  0  0  0  0  0  0  0  0  0  0  0
    6.5551   -3.7896    0.0000 O   0  0  0  0  0  0  0  0  0  0  0  0
  1  2  1  0  0  0  0
  2  3  1  0  0  0  0
  3  4  2  0  0  0  0
  3  5  1  0  0  0  0
  5  6  1  0  0  0  0
  6  7  1  0  0  0  0
  7  8  1  0  0  0  0
  8 12  1  0  0  0  0
  8  9  2  0  0  0  0
  9 10  1  0  0  0  0
 10 11  1  0  0  0  0
 11 16  2  0  0  0  0
 11 12  1  0  0  0  0
 12 13  2  0  0  0  0
 13 14  1  0  0  0  0
 14 15  2  0  0  0  0
 15 16  1  0  0  0  0
 16 17  1  0  0  0  0
 17 18  1  0  0  0  0
  2 19  1  0  0  0  0
M  END
$$$$
s_22____13978824____15498218
  -OEChem-03222016482D

 21 22  0     0  0  0  0  0  0999 V2000
   -0.8705    2.5032    0.0000 C   0  0  0  0  0  0  0  0  0  0  0  0
   -0.8675    1.5032    0.0000 O   0  0  0  0  0  0  0  0  0  0  0  0
    0.0000    1.0058    0.0000 C   0  0  0  0  0  0  0  0  0  0  0  0
    0.0000    0.0000    0.0000 C   0  0  0  0  0  0  0  0  0  0  0  0
    0.8680   -0.4978    0.0000 C   0  0  0  0  0  0  0  0  0  0  0  0
    1.7360   -0.0012    0.0000 C   0  0  0  0  0  0  0  0  0  0  0  0
    1.7360    1.0058    0.0000 C   0  0  0  0  0  0  0  0  0  0  0  0
    0.8680    1.5138    0.0000 C   0  0  0  0  0  0  0  0  0  0  0  0
    2.6938    1.3169    0.0000 N   0  0  0  0  0  0  0  0  0  0  0  0
    3.2858    0.5023    0.0000 C   0  0  0  0  0  0  0  0  0  0  0  0
    2.6938   -0.3125    0.0000 C   0  0  0  0  0  0  0  0  0  0  0  0
    3.0028   -1.2636    0.0000 C   0  0  0  0  0  0  0  0  0  0  0  0
    3.9809   -1.4715    0.0000 C   0  0  0  0  0  0  0  0  0  0  0  0
    4.2899   -2.4226    0.0000 N   0  0  0  0  0  0  0  0  0  0  0  0
    5.2680   -2.6306    0.0000 C   0  0  0  0  0  0  0  0  0  0  0  0
    5.9372   -1.8874    0.0000 O   0  0  0  0  0  0  0  0  0  0  0  0
    5.5770   -3.5816    0.0000 C   0  0  0  0  0  0  0  0  0  0  0  0
    6.5551   -3.7896    0.0000 O   0  0  0  0  0  0  0  0  0  0  0  0
    6.8641   -4.7407    0.0000 C   0  0  0  0  0  0  0  0  0  0  0  0
    7.8422   -4.9486    0.0000 C   0  0  0  0  0  0  0  0  0  0  0  0
    8.8204   -5.1566    0.0000 C   0  0  0  0  0  0  0  0  0  0  0  0
  1  2  1  0  0  0  0
  2  3  1  0  0  0  0
  3  8  2  0  0  0  0
  3  4  1  0  0  0  0
  4  5  2  0  0  0  0
  5  6  1  0  0  0  0
  6 11  1  0  0  0  0
  6  7  2  0  0  0  0
  7  8  1  0  0  0  0
  7  9  1  0  0  0  0
  9 10  1  0  0  0  0
 10 11  2  0  0  0  0
 11 12  1  0  0  0  0
 12 13  1  0  0  0  0
 13 14  1  0  0  0  0
 14 15  1  0  0  0  0
 15 16  2  0  0  0  0
 15 17  1  0  0  0  0
 17 18  1  0  0  0  0
 18 19  1  0  0  0  0
 19 20  1  0  0  0  0
 20 21  3  0  0  0  0
M  END
$$$$
s_22____15506616____12053348
  -OEChem-03222016482D

 19 20  0     0  0  0  0  0  0999 V2000
    1.7340    3.0138    0.0000 C   0  0  0  0  0  0  0  0  0  0  0  0
    0.8680    2.5138    0.0000 O   0  0  0  0  0  0  0  0  0  0  0  0
    0.8680    1.5138    0.0000 C   0  0  0  0  0  0  0  0  0  0  0  0
    0.0000    1.0058    0.0000 C   0  0  0  0  0  0  0  0  0  0  0  0
    0.0000    0.0000    0.0000 C   0  0  0  0  0  0  0  0  0  0  0  0
    0.8680   -0.4978    0.0000 C   0  0  0  0  0  0  0  0  0  0  0  0
    1.7360   -0.0012    0.0000 C   0  0  0  0  0  0  0  0  0  0  0  0
    1.7360    1.0058    0.0000 C   0  0  0  0  0  0  0  0  0  0  0  0
    2.6938    1.3169    0.0000 N   0  0  0  0  0  0  0  0  0  0  0  0
    3.2858    0.5023    0.0000 C   0  0  0  0  0  0  0  0  0  0  0  0
    2.6938   -0.3125    0.0000 C   0  0  0  0  0  0  0  0  0  0  0  0
    3.0028   -1.2636    0.0000 C   0  0  0  0  0  0  0  0  0  0  0  0
    3.9809   -1.4715    0.0000 C   0  0  0  0  0  0  0  0  0  0  0  0
    4.2899   -2.4226    0.0000 N   0  0  0  0  0  0  0  0  0  0  0  0
    5.2680   -2.6306    0.0000 C   0  0  0  0  0  0  0  0  0  0  0  0
    5.9372   -1.8874    0.0000 O   0  0  0  0  0  0  0  0  0  0  0  0
    5.5770   -3.5816    0.0000 C   0  0  0  0  0  0  0  0  0  0  0  0
    4.9078   -4.3247    0.0000 O   0  0  0  0  0  0  0  0  0  0  0  0
    6.5551   -3.7896    0.0000 N   0  0  0  0  0  0  0  0  0  0  0  0
  1  2  1  0  0  0  0
  2  3  1  0  0  0  0
  3  8  2  0  0  0  0
  3  4  1  0  0  0  0
  4  5  2  0  0  0  0
  5  6  1  0  0  0  0
  6  7  2  0  0  0  0
  7 11  1  0  0  0  0
  7  8  1  0  0  0  0
  8  9  1  0  0  0  0
  9 10  1  0  0  0  0
 10 11  2  0  0  0  0
 11 12  1  0  0  0  0
 12 13  1  0  0  0  0
 13 14  1  0  0  0  0
 14 15  1  0  0  0  0
 15 16  2  0  0  0  0
 15 17  1  0  0  0  0
 17 18  2  0  0  0  0
 17 19  1  0  0  0  0
M  END
$$$$
s_22____13978824____7941096
  -OEChem-03222016482D

 19 20  0     1  0  0  0  0  0999 V2000
    4.9078   -4.3247    0.0000 C   0  0  0  0  0  0  0  0  0  0  0  0
    5.5770   -3.5816    0.0000 C   0  0  3  0  0  0  0  0  0  0  0  0
    5.2680   -2.6306    0.0000 C   0  0  0  0  0  0  0  0  0  0  0  0
    5.9372   -1.8874    0.0000 O   0  0  0  0  0  0  0  0  0  0  0  0
    4.2899   -2.4226    0.0000 N   0  0  0  0  0  0  0  0  0  0  0  0
    3.9809   -1.4715    0.0000 C   0  0  0  0  0  0  0  0  0  0  0  0
    3.0028   -1.2636    0.0000 C   0  0  0  0  0  0  0  0  0  0  0  0
    2.6938   -0.3125    0.0000 C   0  0  0  0  0  0  0  0  0  0  0  0
    3.2858    0.5023    0.0000 C   0  0  0  0  0  0  0  0  0  0  0  0
    2.6938    1.3169    0.0000 N   0  0  0  0  0  0  0  0  0  0  0  0
    1.7360    1.0058    0.0000 C   0  0  0  0  0  0  0  0  0  0  0  0
    1.7360   -0.0012    0.0000 C   0  0  0  0  0  0  0  0  0  0  0  0
    0.8680   -0.4978    0.0000 C   0  0  0  0  0  0  0  0  0  0  0  0
    0.0000    0.0000    0.0000 C   0  0  0  0  0  0  0  0  0  0  0  0
   -0.0000    1.0058    0.0000 C   0  0  0  0  0  0  0  0  0  0  0  0
    0.8680    1.5138    0.0000 C   0  0  0  0  0  0  0  0  0  0  0  0
   -0.8675    1.5032    0.0000 O   0  0  0  0  0  0  0  0  0  0  0  0
   -1.7320    1.0007    0.0000 C   0  0  0  0  0  0  0  0  0  0  0  0
    6.5551   -3.7896    0.0000 O   0  0  0  0  0  0  0  0  0  0  0  0
  1  2  1  0  0  0  0
  2  3  1  0  0  0  0
  3  4  2  0  0  0  0
  3  5  1  0  0  0  0
  5  6  1  0  0  0  0
  6  7  1  0  0  0  0
  7  8  1  0  0  0  0
  8 12  1  0  0  0  0
  8  9  2  0  0  0  0
  9 10  1  0  0  0  0
 10 11  1  0  0  0  0
 11 16  2  0  0  0  0
 11 12  1  0  0  0  0
 12 13  2  0  0  0  0
 13 14  1  0  0  0  0
 14 15  2  0  0  0  0
 15 16  1  0  0  0  0
 15 17  1  0  0  0  0
 17 18  1  0  0  0  0
  2 19  1  0  0  0  0
M  END
$$$$
s_22____2228922____7941096
  -OEChem-03222016482D

 18 19  0     1  0  0  0  0  0999 V2000
    4.9078   -4.3247    0.0000 C   0  0  0  0  0  0  0  0  0  0  0  0
    5.5770   -3.5816    0.0000 C   0  0  3  0  0  0  0  0  0  0  0  0
    5.2680   -2.6306    0.0000 C   0  0  0  0  0  0  0  0  0  0  0  0
    5.9372   -1.8874    0.0000 O   0  0  0  0  0  0  0  0  0  0  0  0
    4.2899   -2.4226    0.0000 N   0  0  0  0  0  0  0  0  0  0  0  0
    3.9809   -1.4715    0.0000 C   0  0  0  0  0  0  0  0  0  0  0  0
    3.0028   -1.2636    0.0000 C   0  0  0  0  0  0  0  0  0  0  0  0
    2.6938   -0.3125    0.0000 C   0  0  0  0  0  0  0  0  0  0  0  0
    3.2858    0.5023    0.0000 C   0  0  0  0  0  0  0  0  0  0  0  0
    2.6938    1.3169    0.0000 N   0  0  0  0  0  0  0  0  0  0  0  0
    1.7360    1.0058    0.0000 C   0  0  0  0  0  0  0  0  0  0  0  0
    1.7360   -0.0012    0.0000 C   0  0  0  0  0  0  0  0  0  0  0  0
    0.8680   -0.4978    0.0000 C   0  0  0  0  0  0  0  0  0  0  0  0
    0.0000    0.0000    0.0000 C   0  0  0  0  0  0  0  0  0  0  0  0
   -0.0000    1.0058    0.0000 C   0  0  0  0  0  0  0  0  0  0  0  0
    0.8680    1.5138    0.0000 C   0  0  0  0  0  0  0  0  0  0  0  0
   -0.8675    1.5032    0.0000 Cl  0  0  0  0  0  0  0  0  0  0  0  0
    6.5551   -3.7896    0.0000 O   0  0  0  0  0  0  0  0  0  0  0  0
  1  2  1  0  0  0  0
  2  3  1  0  0  0  0
  3  4  2  0  0  0  0
  3  5  1  0  0  0  0
  5  6  1  0  0  0  0
  6  7  1  0  0  0  0
  7  8  1  0  0  0  0
  8 12  1  0  0  0  0
  8  9  2  0  0  0  0
  9 10  1  0  0  0  0
 10 11  1  0  0  0  0
 11 16  2  0  0  0  0
 11 12  1  0  0  0  0
 12 13  2  0  0  0  0
 13 14  1  0  0  0  0
 14 15  2  0  0  0  0
 15 16  1  0  0  0  0
 15 17  1  0  0  0  0
  2 18  1  0  0  0  0
M  END
$$$$
s_22____13771018____7941800
  -OEChem-03222016482D

 20 21  0     0  0  0  0  0  0999 V2000
   -3.4641   -0.0050    0.0000 C   0  0  0  0  0  0  0  0  0  0  0  0
   -2.5974   -0.5038    0.0000 C   0  0  0  0  0  0  0  0  0  0  0  0
   -1.7320   -0.0025    0.0000 C   0  0  0  0  0  0  0  0  0  0  0  0
   -0.8653   -0.5013    0.0000 O   0  0  0  0  0  0  0  0  0  0  0  0
    0.0000    0.0000    0.0000 C   0  0  0  0  0  0  0  0  0  0  0  0
   -0.0000    1.0058    0.0000 C   0  0  0  0  0  0  0  0  0  0  0  0
    0.8680    1.5138    0.0000 C   0  0  0  0  0  0  0  0  0  0  0  0
    1.7360    1.0058    0.0000 C   0  0  0  0  0  0  0  0  0  0  0  0
    1.7360   -0.0012    0.0000 C   0  0  0  0  0  0  0  0  0  0  0  0
    0.8680   -0.4978    0.0000 C   0  0  0  0  0  0  0  0  0  0  0  0
    2.6938   -0.3125    0.0000 C   0  0  0  0  0  0  0  0  0  0  0  0
    3.2858    0.5023    0.0000 C   0  0  0  0  0  0  0  0  0  0  0  0
    2.6938    1.3169    0.0000 N   0  0  0  0  0  0  0  0  0  0  0  0
    3.0028   -1.2636    0.0000 C   0  0  0  0  0  0  0  0  0  0  0  0
    3.9809   -1.4715    0.0000 C   0  0  0  0  0  0  0  0  0  0  0  0
    4.2899   -2.4226    0.0000 N   0  0  0  0  0  0  0  0  0  0  0  0
    5.2680   -2.6306    0.0000 C   0  0  0  0  0  0  0  0  0  0  0  0
    5.9372   -1.8874    0.0000 O   0  0  0  0  0  0  0  0  0  0  0  0
    5.5770   -3.5816    0.0000 C   0  0  0  0  0  0  0  0  0  0  0  0
    6.5551   -3.7896    0.0000 O   0  0  0  0  0  0  0  0  0  0  0  0
  1  2  1  0  0  0  0
  2  3  1  0  0  0  0
  3  4  1  0  0  0  0
  4  5  1  0  0  0  0
  5 10  2  0  0  0  0
  5  6  1  0  0  0  0
  6  7  2  0  0  0  0
  7  8  1  0  0  0  0
  8 13  1  0  0  0  0
  8  9  2  0  0  0  0
  9 10  1  0  0  0  0
  9 11  1  0  0  0  0
 11 12  2  0  0  0  0
 12 13  1  0  0  0  0
 11 14  1  0  0  0  0
 14 15  1  0  0  0  0
 15 16  1  0  0  0  0
 16 17  1  0  0  0  0
 17 18  2  0  0  0  0
 17 19  1  0  0  0  0
 19 20  1  0  0  0  0
M  END
$$$$
s_240690b____17036658____3025680
  -OEChem-03222016482D

 17 18  0     0  0  0  0  0  0999 V2000
    0.0000    0.0000    0.0000 C   0  0  0  0  0  0  0  0  0  0  0  0
    0.8675   -0.4975    0.0000 C   0  0  0  0  0  0  0  0  0  0  0  0
    1.7405    0.0044    0.0000 C   0  0  0  0  0  0  0  0  0  0  0  0
    2.6940   -0.2997    0.0000 C   0  0  0  0  0  0  0  0  0  0  0  0
    3.2780    0.5133    0.0000 C   0  0  0  0  0  0  0  0  0  0  0  0
    2.6851    1.3196    0.0000 N   0  0  0  0  0  0  0  0  0  0  0  0
    1.7350    1.0052    0.0000 C   0  0  0  0  0  0  0  0  0  0  0  0
    0.8675    1.5129    0.0000 N   0  0  0  0  0  0  0  0  0  0  0  0
    0.0000    1.0052    0.0000 C   0  0  0  0  0  0  0  0  0  0  0  0
    3.0082   -1.2491    0.0000 C   0  0  0  0  0  0  0  0  0  0  0  0
    3.9874   -1.4517    0.0000 C   0  0  0  0  0  0  0  0  0  0  0  0
    4.3016   -2.4011    0.0000 N   0  0  0  0  0  0  0  0  0  0  0  0
    5.2808   -2.6037    0.0000 C   0  0  0  0  0  0  0  0  0  0  0  0
    5.9459   -1.8569    0.0000 O   0  0  0  0  0  0  0  0  0  0  0  0
    5.5950   -3.5530    0.0000 C   0  0  0  0  0  0  0  0  0  0  0  0
    6.5743   -3.7557    0.0000 C   0  0  0  0  0  0  0  0  0  0  0  0
    6.8884   -4.7050    0.0000 N   0  3  0  0  0  0  0  0  0  0  0  0
  1  9  2  0  0  0  0
  1  2  1  0  0  0  0
  2  3  2  0  0  0  0
  3  7  1  0  0  0  0
  3  4  1  0  0  0  0
  4  5  2  0  0  0  0
  5  6  1  0  0  0  0
  6  7  1  0  0  0  0
  7  8  2  0  0  0  0
  8  9  1  0  0  0  0
  4 10  1  0  0  0  0
 10 11  1  0  0  0  0
 11 12  1  0  0  0  0
 12 13  1  0  0  0  0
 13 14  2  0  0  0  0
 13 15  1  0  0  0  0
 15 16  1  0  0  0  0
 16 17  1  0  0  0  0
M  CHG  1  17   1
M  END
$$$$
s_240690b____15506692____13151248
  -OEChem-03222016482D

 19 20  0     0  0  0  0  0  0999 V2000
    1.7340    3.0138    0.0000 C   0  0  0  0  0  0  0  0  0  0  0  0
    0.8680    2.5138    0.0000 O   0  0  0  0  0  0  0  0  0  0  0  0
    0.8680    1.5138    0.0000 C   0  0  0  0  0  0  0  0  0  0  0  0
    0.0000    1.0058    0.0000 C   0  0  0  0  0  0  0  0  0  0  0  0
    0.0000    0.0000    0.0000 C   0  0  0  0  0  0  0  0  0  0  0  0
    0.8680   -0.4978    0.0000 C   0  0  0  0  0  0  0  0  0  0  0  0
    1.7360   -0.0012    0.0000 C   0  0  0  0  0  0  0  0  0  0  0  0
    1.7360    1.0058    0.0000 C   0  0  0  0  0  0  0  0  0  0  0  0
    2.6938    1.3169    0.0000 N   0  0  0  0  0  0  0  0  0  0  0  0
    3.2858    0.5023    0.0000 C   0  0  0  0  0  0  0  0  0  0  0  0
    2.6938   -0.3125    0.0000 C   0  0  0  0  0  0  0  0  0  0  0  0
    3.0028   -1.2636    0.0000 C   0  0  0  0  0  0  0  0  0  0  0  0
    3.9809   -1.4715    0.0000 C   0  0  0  0  0  0  0  0  0  0  0  0
    4.2899   -2.4226    0.0000 N   0  0  0  0  0  0  0  0  0  0  0  0
    5.2680   -2.6306    0.0000 C   0  0  0  0  0  0  0  0  0  0  0  0
    5.9372   -1.8874    0.0000 O   0  0  0  0  0  0  0  0  0  0  0  0
    5.5770   -3.5816    0.0000 C   0  0  0  0  0  0  0  0  0  0  0  0
    6.5551   -3.7896    0.0000 O   0  0  0  0  0  0  0  0  0  0  0  0
    6.8641   -4.7407    0.0000 N   0  0  0  0  0  0  0  0  0  0  0  0
  1  2  1  0  0  0  0
  2  3  1  0  0  0  0
  3  8  2  0  0  0  0
  3  4  1  0  0  0  0
  4  5  2  0  0  0  0
  5  6  1  0  0  0  0
  6  7  2  0  0  0  0
  7 11  1  0  0  0  0
  7  8  1  0  0  0  0
  8  9  1  0  0  0  0
  9 10  1  0  0  0  0
 10 11  2  0  0  0  0
 11 12  1  0  0  0  0
 12 13  1  0  0  0  0
 13 14  1  0  0  0  0
 14 15  1  0  0  0  0
 15 16  2  0  0  0  0
 15 17  1  0  0  0  0
 17 18  1  0  0  0  0
 18 19  1  0  0  0  0
M  END
$$$$
s_273270____16378568____10884640
  -OEChem-03222016482D

 22 23  0     1  0  0  0  0  0999 V2000
   -1.7320   -0.0025    0.0000 C   0  0  0  0  0  0  0  0  0  0  0  0
   -0.8653   -0.5013    0.0000 O   0  0  0  0  0  0  0  0  0  0  0  0
    0.0000    0.0000    0.0000 C   0  0  0  0  0  0  0  0  0  0  0  0
   -0.0000    1.0058    0.0000 C   0  0  0  0  0  0  0  0  0  0  0  0
    0.8680    1.5138    0.0000 C   0  0  0  0  0  0  0  0  0  0  0  0
    1.7360    1.0058    0.0000 C   0  0  0  0  0  0  0  0  0  0  0  0
    1.7360   -0.0012    0.0000 C   0  0  0  0  0  0  0  0  0  0  0  0
    0.8680   -0.4978    0.0000 C   0  0  0  0  0  0  0  0  0  0  0  0
    2.6938   -0.3125    0.0000 C   0  0  0  0  0  0  0  0  0  0  0  0
    3.2858    0.5023    0.0000 C   0  0  0  0  0  0  0  0  0  0  0  0
    2.6938    1.3169    0.0000 N   0  0  0  0  0  0  0  0  0  0  0  0
    3.0028   -1.2636    0.0000 C   0  0  0  0  0  0  0  0  0  0  0  0
    3.9809   -1.4715    0.0000 C   0  0  3  0  0  0  0  0  0  0  0  0
    4.6501   -0.7284    0.0000 C   0  0  0  0  0  0  0  0  0  0  0  0
    5.6282   -0.9364    0.0000 O   0  0  0  0  0  0  0  0  0  0  0  0
    4.3411    0.2227    0.0000 O   0  0  0  0  0  0  0  0  0  0  0  0
    5.0103    0.9658    0.0000 C   0  0  0  0  0  0  0  0  0  0  0  0
    4.2899   -2.4226    0.0000 N   0  0  0  0  0  0  0  0  0  0  0  0
    5.2680   -2.6306    0.0000 C   0  0  0  0  0  0  0  0  0  0  0  0
    5.9372   -1.8874    0.0000 O   0  0  0  0  0  0  0  0  0  0  0  0
    5.5770   -3.5816    0.0000 C   0  0  0  0  0  0  0  0  0  0  0  0
    6.5551   -3.7896    0.0000 C   0  0  0  0  0  0  0  0  0  0  0  0
  1  2  1  0  0  0  0
  2  3  1  0  0  0  0
  3  8  2  0  0  0  0
  3  4  1  0  0  0  0
  4  5  2  0  0  0  0
  5  6  1  0  0  0  0
  6 11  1  0  0  0  0
  6  7  2  0  0  0  0
  7  8  1  0  0  0  0
  7  9  1  0  0  0  0
  9 10  2  0  0  0  0
 10 11  1  0  0  0  0
  9 12  1  0  0  0  0
 12 13  1  0  0  0  0
 13 14  1  0  0  0  0
 14 15  2  0  0  0  0
 14 16  1  0  0  0  0
 16 17  1  0  0  0  0
 13 18  1  0  0  0  0
 18 19  1  0  0  0  0
 19 20  2  0  0  0  0
 19 21  1  0  0  0  0
 21 22  2  0  0  0  0
M  END
$$$$
s_240690b____15506692____3025698
  -OEChem-03222016482D

 18 19  0     0  0  0  0  0  0999 V2000
    1.7340    3.0138    0.0000 C   0  0  0  0  0  0  0  0  0  0  0  0
    0.8680    2.5138    0.0000 O   0  0  0  0  0  0  0  0  0  0  0  0
    0.8680    1.5138    0.0000 C   0  0  0  0  0  0  0  0  0  0  0  0
    0.0000    1.0058    0.0000 C   0  0  0  0  0  0  0  0  0  0  0  0
    0.0000    0.0000    0.0000 C   0  0  0  0  0  0  0  0  0  0  0  0
    0.8680   -0.4978    0.0000 C   0  0  0  0  0  0  0  0  0  0  0  0
    1.7360   -0.0012    0.0000 C   0  0  0  0  0  0  0  0  0  0  0  0
    1.7360    1.0058    0.0000 C   0  0  0  0  0  0  0  0  0  0  0  0
    2.6938    1.3169    0.0000 N   0  0  0  0  0  0  0  0  0  0  0  0
    3.2858    0.5023    0.0000 C   0  0  0  0  0  0  0  0  0  0  0  0
    2.6938   -0.3125    0.0000 C   0  0  0  0  0  0  0  0  0  0  0  0
    3.0028   -1.2636    0.0000 C   0  0  0  0  0  0  0  0  0  0  0  0
    3.9809   -1.4715    0.0000 C   0  0  0  0  0  0  0  0  0  0  0  0
    4.2899   -2.4226    0.0000 N   0  0  0  0  0  0  0  0  0  0  0  0
    5.2680   -2.6306    0.0000 C   0  0  0  0  0  0  0  0  0  0  0  0
    5.9372   -1.8874    0.0000 O   0  0  0  0  0  0  0  0  0  0  0  0
    5.5770   -3.5816    0.0000 C   0  0  0  0  0  0  0  0  0  0  0  0
    6.5551   -3.7896    0.0000 N   0  3  0  0  0  0  0  0  0  0  0  0
  1  2  1  0  0  0  0
  2  3  1  0  0  0  0
  3  8  2  0  0  0  0
  3  4  1  0  0  0  0
  4  5  2  0  0  0  0
  5  6  1  0  0  0  0
  6  7  2  0  0  0  0
  7 11  1  0  0  0  0
  7  8  1  0  0  0  0
  8  9  1  0  0  0  0
  9 10  1  0  0  0  0
 10 11  2  0  0  0  0
 11 12  1  0  0  0  0
 12 13  1  0  0  0  0
 13 14  1  0  0  0  0
 14 15  1  0  0  0  0
 15 16  2  0  0  0  0
 15 17  1  0  0  0  0
 17 18  1  0  0  0  0
M  CHG  1  18   1
M  END
$$$$
s_22____15506616____303718
  -OEChem-03222016482D

 20 21  0     0  0  0  0  0  0999 V2000
    1.2530   -7.0892    0.0000 C   0  0  0  0  0  0  0  0  0  0  0  0
    1.9222   -6.3461    0.0000 C   0  0  0  0  0  0  0  0  0  0  0  0
    1.6132   -5.3951    0.0000 C   0  0  0  0  0  0  0  0  0  0  0  0
    2.2824   -4.6519    0.0000 C   0  0  0  0  0  0  0  0  0  0  0  0
    1.9734   -3.7009    0.0000 C   0  0  0  0  0  0  0  0  0  0  0  0
    0.9953   -3.4929    0.0000 O   0  0  0  0  0  0  0  0  0  0  0  0
    2.6426   -2.9578    0.0000 N   0  0  0  0  0  0  0  0  0  0  0  0
    2.3336   -2.0067    0.0000 C   0  0  0  0  0  0  0  0  0  0  0  0
    3.0028   -1.2636    0.0000 C   0  0  0  0  0  0  0  0  0  0  0  0
    2.6938   -0.3125    0.0000 C   0  0  0  0  0  0  0  0  0  0  0  0
    3.2858    0.5023    0.0000 C   0  0  0  0  0  0  0  0  0  0  0  0
    2.6938    1.3169    0.0000 N   0  0  0  0  0  0  0  0  0  0  0  0
    1.7360    1.0058    0.0000 C   0  0  0  0  0  0  0  0  0  0  0  0
    1.7360   -0.0012    0.0000 C   0  0  0  0  0  0  0  0  0  0  0  0
    0.8680   -0.4978    0.0000 C   0  0  0  0  0  0  0  0  0  0  0  0
    0.0000    0.0000    0.0000 C   0  0  0  0  0  0  0  0  0  0  0  0
   -0.0000    1.0058    0.0000 C   0  0  0  0  0  0  0  0  0  0  0  0
    0.8680    1.5138    0.0000 C   0  0  0  0  0  0  0  0  0  0  0  0
    0.8680    2.5138    0.0000 O   0  0  0  0  0  0  0  0  0  0  0  0
    0.0020    3.0138    0.0000 C   0  0  0  0  0  0  0  0  0  0  0  0
  1  2  1  0  0  0  0
  2  3  1  0  0  0  0
  3  4  1  0  0  0  0
  4  5  1  0  0  0  0
  5  6  2  0  0  0  0
  5  7  1  0  0  0  0
  7  8  1  0  0  0  0
  8  9  1  0  0  0  0
  9 10  1  0  0  0  0
 10 14  1  0  0  0  0
 10 11  2  0  0  0  0
 11 12  1  0  0  0  0
 12 13  1  0  0  0  0
 13 18  2  0  0  0  0
 13 14  1  0  0  0  0
 14 15  2  0  0  0  0
 15 16  1  0  0  0  0
 16 17  2  0  0  0  0
 17 18  1  0  0  0  0
 18 19  1  0  0  0  0
 19 20  1  0  0  0  0
M  END
$$$$
s_240690b____7363756____3025692
  -OEChem-03222016482D

 18 19  0     1  0  0  0  0  0999 V2000
    0.8680    2.5138    0.0000 C   0  0  0  0  0  0  0  0  0  0  0  0
    0.8680    1.5138    0.0000 C   0  0  0  0  0  0  0  0  0  0  0  0
    0.0000    1.0058    0.0000 C   0  0  0  0  0  0  0  0  0  0  0  0
    0.0000    0.0000    0.0000 C   0  0  0  0  0  0  0  0  0  0  0  0
    0.8680   -0.4978    0.0000 C   0  0  0  0  0  0  0  0  0  0  0  0
    1.7360   -0.0012    0.0000 C   0  0  0  0  0  0  0  0  0  0  0  0
    1.7360    1.0058    0.0000 C   0  0  0  0  0  0  0  0  0  0  0  0
    2.6938    1.3169    0.0000 N   0  0  0  0  0  0  0  0  0  0  0  0
    3.2858    0.5023    0.0000 C   0  0  0  0  0  0  0  0  0  0  0  0
    2.6938   -0.3125    0.0000 C   0  0  0  0  0  0  0  0  0  0  0  0
    3.0028   -1.2636    0.0000 C   0  0  0  0  0  0  0  0  0  0  0  0
    3.9809   -1.4715    0.0000 C   0  0  0  0  0  0  0  0  0  0  0  0
    4.2899   -2.4226    0.0000 N   0  0  0  0  0  0  0  0  0  0  0  0
    5.2680   -2.6306    0.0000 C   0  0  0  0  0  0  0  0  0  0  0  0
    5.9372   -1.8874    0.0000 O   0  0  0  0  0  0  0  0  0  0  0  0
    5.5770   -3.5816    0.0000 C   0  0  3  0  0  0  0  0  0  0  0  0
    6.5551   -3.7896    0.0000 C   0  0  0  0  0  0  0  0  0  0  0  0
    4.9078   -4.3247    0.0000 N   0  3  0  0  0  0  0  0  0  0  0  0
  1  2  1  0  0  0  0
  2  7  2  0  0  0  0
  2  3  1  0  0  0  0
  3  4  2  0  0  0  0
  4  5  1  0  0  0  0
  5  6  2  0  0  0  0
  6 10  1  0  0  0  0
  6  7  1  0  0  0  0
  7  8  1  0  0  0  0
  8  9  1  0  0  0  0
  9 10  2  0  0  0  0
 10 11  1  0  0  0  0
 11 12  1  0  0  0  0
 12 13  1  0  0  0  0
 13 14  1  0  0  0  0
 14 15  2  0  0  0  0
 14 16  1  0  0  0  0
 16 17  1  0  0  0  0
 16 18  1  0  0  0  0
M  CHG  1  18   1
M  END
$$$$
s_22____16720536____60364
  -OEChem-03222016482D

 18 19  0     0  0  0  0  0  0999 V2000
    6.8641   -4.7407    0.0000 C   0  0  0  0  0  0  0  0  0  0  0  0
    6.5551   -3.7896    0.0000 S   0  0  0  0  0  0  0  0  0  0  0  0
    5.5770   -3.5816    0.0000 C   0  0  0  0  0  0  0  0  0  0  0  0
    5.2680   -2.6306    0.0000 C   0  0  0  0  0  0  0  0  0  0  0  0
    5.9372   -1.8874    0.0000 O   0  0  0  0  0  0  0  0  0  0  0  0
    4.2899   -2.4226    0.0000 N   0  0  0  0  0  0  0  0  0  0  0  0
    3.9809   -1.4715    0.0000 C   0  0  0  0  0  0  0  0  0  0  0  0
    3.0028   -1.2636    0.0000 C   0  0  0  0  0  0  0  0  0  0  0  0
    2.6938   -0.3125    0.0000 C   0  0  0  0  0  0  0  0  0  0  0  0
    3.2858    0.5023    0.0000 C   0  0  0  0  0  0  0  0  0  0  0  0
    2.6938    1.3169    0.0000 N   0  0  0  0  0  0  0  0  0  0  0  0
    1.7360    1.0058    0.0000 C   0  0  0  0  0  0  0  0  0  0  0  0
    1.7360   -0.0012    0.0000 C   0  0  0  0  0  0  0  0  0  0  0  0
    0.8680   -0.4978    0.0000 C   0  0  0  0  0  0  0  0  0  0  0  0
    0.0000    0.0000    0.0000 C   0  0  0  0  0  0  0  0  0  0  0  0
   -0.0000    1.0058    0.0000 C   0  0  0  0  0  0  0  0  0  0  0  0
    0.8680    1.5138    0.0000 C   0  0  0  0  0  0  0  0  0  0  0  0
    0.8680    2.5138    0.0000 Br  0  0  0  0  0  0  0  0  0  0  0  0
  1  2  1  0  0  0  0
  2  3  1  0  0  0  0
  3  4  1  0  0  0  0
  4  5  2  0  0  0  0
  4  6  1  0  0  0  0
  6  7  1  0  0  0  0
  7  8  1  0  0  0  0
  8  9  1  0  0  0  0
  9 13  1  0  0  0  0
  9 10  2  0  0  0  0
 10 11  1  0  0  0  0
 11 12  1  0  0  0  0
 12 17  2  0  0  0  0
 12 13  1  0  0  0  0
 13 14  2  0  0  0  0
 14 15  1  0  0  0  0
 15 16  2  0  0  0  0
 16 17  1  0  0  0  0
 17 18  1  0  0  0  0
M  END
$$$$
s_22____7533902____7941096
  -OEChem-03222016482D

 17 18  0     1  0  0  0  0  0999 V2000
    7.7857    1.3686    0.0000 C   0  0  0  0  0  0  0  0  0  0  0  0
    7.2857    2.2346    0.0000 C   0  0  3  0  0  0  0  0  0  0  0  0
    6.2857    2.2345    0.0000 C   0  0  0  0  0  0  0  0  0  0  0  0
    5.7856    3.1005    0.0000 O   0  0  0  0  0  0  0  0  0  0  0  0
    5.7857    1.3685    0.0000 N   0  0  0  0  0  0  0  0  0  0  0  0
    4.7857    1.3684    0.0000 C   0  0  0  0  0  0  0  0  0  0  0  0
    4.2858    0.5024    0.0000 C   0  0  0  0  0  0  0  0  0  0  0  0
    3.2858    0.5023    0.0000 C   0  0  0  0  0  0  0  0  0  0  0  0
    2.6938   -0.3125    0.0000 C   0  0  0  0  0  0  0  0  0  0  0  0
    1.7360   -0.0012    0.0000 C   0  0  0  0  0  0  0  0  0  0  0  0
    0.8680   -0.4978    0.0000 C   0  0  0  0  0  0  0  0  0  0  0  0
    0.0000    0.0000    0.0000 C   0  0  0  0  0  0  0  0  0  0  0  0
    0.0000    1.0058    0.0000 C   0  0  0  0  0  0  0  0  0  0  0  0
    0.8680    1.5138    0.0000 C   0  0  0  0  0  0  0  0  0  0  0  0
    1.7360    1.0058    0.0000 C   0  0  0  0  0  0  0  0  0  0  0  0
    2.6938    1.3169    0.0000 N   0  0  0  0  0  0  0  0  0  0  0  0
    7.7856    3.1006    0.0000 O   0  0  0  0  0  0  0  0  0  0  0  0
  1  2  1  0  0  0  0
  2  3  1  0  0  0  0
  3  4  2  0  0  0  0
  3  5  1  0  0  0  0
  5  6  1  0  0  0  0
  6  7  1  0  0  0  0
  7  8  1  0  0  0  0
  8 16  1  0  0  0  0
  8  9  2  0  0  0  0
  9 10  1  0  0  0  0
 10 15  2  0  0  0  0
 10 11  1  0  0  0  0
 11 12  2  0  0  0  0
 12 13  1  0  0  0  0
 13 14  2  0  0  0  0
 14 15  1  0  0  0  0
 15 16  1  0  0  0  0
  2 17  1  0  0  0  0
M  END
$$$$
s_11a____14724372____53479
  -OEChem-03222016482D

 23 24  0     1  0  0  0  0  0999 V2000
   -1.9391   -2.8690    0.0000 C   0  0  0  0  0  0  0  0  0  0  0  0
   -0.9610   -3.0770    0.0000 C   0  0  0  0  0  0  0  0  0  0  0  0
   -0.2918   -2.3339    0.0000 C   0  0  0  0  0  0  0  0  0  0  0  0
    0.6863   -2.5418    0.0000 C   0  0  0  0  0  0  0  0  0  0  0  0
    0.9953   -3.4929    0.0000 O   0  0  0  0  0  0  0  0  0  0  0  0
    1.3555   -1.7987    0.0000 N   0  0  0  0  0  0  0  0  0  0  0  0
    2.3336   -2.0067    0.0000 C   0  0  3  0  0  0  0  0  0  0  0  0
    3.0028   -1.2636    0.0000 C   0  0  0  0  0  0  0  0  0  0  0  0
    2.6938   -0.3125    0.0000 C   0  0  0  0  0  0  0  0  0  0  0  0
    3.2858    0.5023    0.0000 C   0  0  0  0  0  0  0  0  0  0  0  0
    2.6938    1.3169    0.0000 N   0  0  0  0  0  0  0  0  0  0  0  0
    1.7360    1.0058    0.0000 C   0  0  0  0  0  0  0  0  0  0  0  0
    1.7360   -0.0012    0.0000 C   0  0  0  0  0  0  0  0  0  0  0  0
    0.8680   -0.4978    0.0000 C   0  0  0  0  0  0  0  0  0  0  0  0
    0.0000    0.0000    0.0000 C   0  0  0  0  0  0  0  0  0  0  0  0
   -0.0000    1.0058    0.0000 C   0  0  0  0  0  0  0  0  0  0  0  0
    0.8680    1.5138    0.0000 C   0  0  0  0  0  0  0  0  0  0  0  0
   -0.8653   -0.5013    0.0000 O   0  0  0  0  0  0  0  0  0  0  0  0
   -0.8639   -1.5013    0.0000 C   0  0  0  0  0  0  0  0  0  0  0  0
    2.6426   -2.9578    0.0000 C   0  0  0  0  0  0  0  0  0  0  0  0
    1.9734   -3.7009    0.0000 O   0  0  0  0  0  0  0  0  0  0  0  0
    3.6207   -3.1657    0.0000 O   0  0  0  0  0  0  0  0  0  0  0  0
    3.9297   -4.1168    0.0000 C   0  0  0  0  0  0  0  0  0  0  0  0
  1  2  1  0  0  0  0
  2  3  1  0  0  0  0
  3  4  1  0  0  0  0
  4  5  2  0  0  0  0
  4  6  1  0  0  0  0
  6  7  1  0  0  0  0
  7  8  1  0  0  0  0
  8  9  1  0  0  0  0
  9 13  1  0  0  0  0
  9 10  2  0  0  0  0
 10 11  1  0  0  0  0
 11 12  1  0  0  0  0
 12 17  2  0  0  0  0
 12 13  1  0  0  0  0
 13 14  2  0  0  0  0
 14 15  1  0  0  0  0
 15 16  2  0  0  0  0
 16 17  1  0  0  0  0
 15 18  1  0  0  0  0
 18 19  1  0  0  0  0
  7 20  1  0  0  0  0
 20 21  2  0  0  0  0
 20 22  1  0  0  0  0
 22 23  1  0  0  0  0
M  END
$$$$
s_270062____15561760____8147258
  -OEChem-03222016482D

 20 21  0     0  0  0  0  0  0999 V2000
    1.5905   -1.3375    0.0000 C   0  0  0  0  0  0  0  0  0  0  0  0
    2.3336   -2.0067    0.0000 C   0  0  0  0  0  0  0  0  0  0  0  0
    3.0767   -2.6759    0.0000 C   0  0  0  0  0  0  0  0  0  0  0  0
    3.0028   -1.2636    0.0000 C   0  0  0  0  0  0  0  0  0  0  0  0
    2.6938   -0.3125    0.0000 C   0  0  0  0  0  0  0  0  0  0  0  0
    3.2858    0.5023    0.0000 C   0  0  0  0  0  0  0  0  0  0  0  0
    2.6938    1.3169    0.0000 N   0  0  0  0  0  0  0  0  0  0  0  0
    1.7360    1.0058    0.0000 C   0  0  0  0  0  0  0  0  0  0  0  0
    1.7360   -0.0012    0.0000 C   0  0  0  0  0  0  0  0  0  0  0  0
    0.8680   -0.4978    0.0000 C   0  0  0  0  0  0  0  0  0  0  0  0
    0.0000    0.0000    0.0000 C   0  0  0  0  0  0  0  0  0  0  0  0
   -0.0000    1.0058    0.0000 C   0  0  0  0  0  0  0  0  0  0  0  0
    0.8680    1.5138    0.0000 C   0  0  0  0  0  0  0  0  0  0  0  0
   -0.8675    1.5032    0.0000 O   0  0  0  0  0  0  0  0  0  0  0  0
   -1.7320    1.0007    0.0000 C   0  0  0  0  0  0  0  0  0  0  0  0
    1.6644   -2.7498    0.0000 N   0  0  0  0  0  0  0  0  0  0  0  0
    1.9734   -3.7009    0.0000 C   0  0  0  0  0  0  0  0  0  0  0  0
    2.9515   -3.9088    0.0000 O   0  0  0  0  0  0  0  0  0  0  0  0
    1.3042   -4.4440    0.0000 C   0  0  0  0  0  0  0  0  0  0  0  0
    1.6132   -5.3951    0.0000 Cl  0  0  0  0  0  0  0  0  0  0  0  0
  1  2  1  0  0  0  0
  2  3  1  0  0  0  0
  2  4  1  0  0  0  0
  4  5  1  0  0  0  0
  5  9  1  0  0  0  0
  5  6  2  0  0  0  0
  6  7  1  0  0  0  0
  7  8  1  0  0  0  0
  8 13  2  0  0  0  0
  8  9  1  0  0  0  0
  9 10  2  0  0  0  0
 10 11  1  0  0  0  0
 11 12  2  0  0  0  0
 12 13  1  0  0  0  0
 12 14  1  0  0  0  0
 14 15  1  0  0  0  0
  2 16  1  0  0  0  0
 16 17  1  0  0  0  0
 17 18  2  0  0  0  0
 17 19  1  0  0  0  0
 19 20  1  0  0  0  0
M  END
$$$$
s_22____13025516____58902
  -OEChem-03222016482D

 19 21  0     0  0  0  0  0  0999 V2000
    0.0012   -1.9973    0.0000 C   0  0  0  0  0  0  0  0  0  0  0  0
    0.8675   -1.4978    0.0000 O   0  0  0  0  0  0  0  0  0  0  0  0
    0.8680   -0.4978    0.0000 C   0  0  0  0  0  0  0  0  0  0  0  0
    0.0000    0.0000    0.0000 C   0  0  0  0  0  0  0  0  0  0  0  0
   -0.0000    1.0058    0.0000 C   0  0  0  0  0  0  0  0  0  0  0  0
    0.8680    1.5138    0.0000 C   0  0  0  0  0  0  0  0  0  0  0  0
    1.7360    1.0058    0.0000 C   0  0  0  0  0  0  0  0  0  0  0  0
    1.7360   -0.0012    0.0000 C   0  0  0  0  0  0  0  0  0  0  0  0
    2.6938   -0.3125    0.0000 C   0  0  0  0  0  0  0  0  0  0  0  0
    3.2858    0.5023    0.0000 C   0  0  0  0  0  0  0  0  0  0  0  0
    2.6938    1.3169    0.0000 N   0  0  0  0  0  0  0  0  0  0  0  0
    3.0028   -1.2636    0.0000 C   0  0  0  0  0  0  0  0  0  0  0  0
    3.9809   -1.4715    0.0000 C   0  0  0  0  0  0  0  0  0  0  0  0
    4.2899   -2.4226    0.0000 N   0  0  0  0  0  0  0  0  0  0  0  0
    5.2680   -2.6306    0.0000 C   0  0  0  0  0  0  0  0  0  0  0  0
    5.9372   -1.8874    0.0000 O   0  0  0  0  0  0  0  0  0  0  0  0
    5.5770   -3.5816    0.0000 C   0  0  0  0  0  0  0  0  0  0  0  0
    5.3697   -4.5618    0.0000 C   0  0  0  0  0  0  0  0  0  0  0  0
    6.3208   -4.2529    0.0000 C   0  0  0  0  0  0  0  0  0  0  0  0
  1  2  1  0  0  0  0
  2  3  1  0  0  0  0
  3  8  2  0  0  0  0
  3  4  1  0  0  0  0
  4  5  2  0  0  0  0
  5  6  1  0  0  0  0
  6  7  2  0  0  0  0
  7 11  1  0  0  0  0
  7  8  1  0  0  0  0
  8  9  1  0  0  0  0
  9 10  2  0  0  0  0
 10 11  1  0  0  0  0
  9 12  1  0  0  0  0
 12 13  1  0  0  0  0
 13 14  1  0  0  0  0
 14 15  1  0  0  0  0
 15 16  2  0  0  0  0
 15 17  1  0  0  0  0
 17 19  1  0  0  0  0
 17 18  1  0  0  0  0
 18 19  1  0  0  0  0
M  END
$$$$
s_22____13909752____7941096
  -OEChem-03222016482D

 18 19  0     1  0  0  0  0  0999 V2000
    4.9078   -4.3247    0.0000 C   0  0  0  0  0  0  0  0  0  0  0  0
    5.5770   -3.5816    0.0000 C   0  0  3  0  0  0  0  0  0  0  0  0
    5.2680   -2.6306    0.0000 C   0  0  0  0  0  0  0  0  0  0  0  0
    5.9372   -1.8874    0.0000 O   0  0  0  0  0  0  0  0  0  0  0  0
    4.2899   -2.4226    0.0000 N   0  0  0  0  0  0  0  0  0  0  0  0
    3.9809   -1.4715    0.0000 C   0  0  0  0  0  0  0  0  0  0  0  0
    3.0028   -1.2636    0.0000 C   0  0  0  0  0  0  0  0  0  0  0  0
    2.6938   -0.3125    0.0000 C   0  0  0  0  0  0  0  0  0  0  0  0
    3.2858    0.5023    0.0000 C   0  0  0  0  0  0  0  0  0  0  0  0
    2.6938    1.3169    0.0000 N   0  0  0  0  0  0  0  0  0  0  0  0
    1.7360    1.0058    0.0000 C   0  0  0  0  0  0  0  0  0  0  0  0
    1.7360   -0.0012    0.0000 C   0  0  0  0  0  0  0  0  0  0  0  0
    0.8680   -0.4978    0.0000 C   0  0  0  0  0  0  0  0  0  0  0  0
    0.0000    0.0000    0.0000 C   0  0  0  0  0  0  0  0  0  0  0  0
   -0.0000    1.0058    0.0000 C   0  0  0  0  0  0  0  0  0  0  0  0
    0.8680    1.5138    0.0000 C   0  0  0  0  0  0  0  0  0  0  0  0
   -0.8653   -0.5013    0.0000 O   0  0  0  0  0  0  0  0  0  0  0  0
    6.5551   -3.7896    0.0000 O   0  0  0  0  0  0  0  0  0  0  0  0
  1  2  1  0  0  0  0
  2  3  1  0  0  0  0
  3  4  2  0  0  0  0
  3  5  1  0  0  0  0
  5  6  1  0  0  0  0
  6  7  1  0  0  0  0
  7  8  1  0  0  0  0
  8 12  1  0  0  0  0
  8  9  2  0  0  0  0
  9 10  1  0  0  0  0
 10 11  1  0  0  0  0
 11 16  2  0  0  0  0
 11 12  1  0  0  0  0
 12 13  2  0  0  0  0
 13 14  1  0  0  0  0
 14 15  2  0  0  0  0
 15 16  1  0  0  0  0
 14 17  1  0  0  0  0
  2 18  1  0  0  0  0
M  END
$$$$
s_22____13596594____337030
  -OEChem-03222016482D

 17 18  0     0  0  0  0  0  0999 V2000
    6.5743   -3.7557    0.0000 C   0  0  0  0  0  0  0  0  0  0  0  0
    5.5950   -3.5530    0.0000 C   0  0  0  0  0  0  0  0  0  0  0  0
    4.9299   -4.2998    0.0000 C   0  0  0  0  0  0  0  0  0  0  0  0
    5.2808   -2.6037    0.0000 C   0  0  0  0  0  0  0  0  0  0  0  0
    5.9459   -1.8569    0.0000 O   0  0  0  0  0  0  0  0  0  0  0  0
    4.3016   -2.4011    0.0000 N   0  0  0  0  0  0  0  0  0  0  0  0
    3.9874   -1.4517    0.0000 C   0  0  0  0  0  0  0  0  0  0  0  0
    3.0082   -1.2491    0.0000 C   0  0  0  0  0  0  0  0  0  0  0  0
    2.6940   -0.2997    0.0000 C   0  0  0  0  0  0  0  0  0  0  0  0
    3.2780    0.5133    0.0000 C   0  0  0  0  0  0  0  0  0  0  0  0
    2.6851    1.3196    0.0000 N   0  0  0  0  0  0  0  0  0  0  0  0
    1.7350    1.0052    0.0000 C   0  0  0  0  0  0  0  0  0  0  0  0
    1.7405    0.0044    0.0000 C   0  0  0  0  0  0  0  0  0  0  0  0
    0.8675   -0.4975    0.0000 C   0  0  0  0  0  0  0  0  0  0  0  0
    0.0000    0.0000    0.0000 C   0  0  0  0  0  0  0  0  0  0  0  0
   -0.0000    1.0052    0.0000 C   0  0  0  0  0  0  0  0  0  0  0  0
    0.8675    1.5129    0.0000 N   0  0  0  0  0  0  0  0  0  0  0  0
  1  2  1  0  0  0  0
  2  3  1  0  0  0  0
  2  4  1  0  0  0  0
  4  5  2  0  0  0  0
  4  6  1  0  0  0  0
  6  7  1  0  0  0  0
  7  8  1  0  0  0  0
  8  9  1  0  0  0  0
  9 13  1  0  0  0  0
  9 10  2  0  0  0  0
 10 11  1  0  0  0  0
 11 12  1  0  0  0  0
 12 17  2  0  0  0  0
 12 13  1  0  0  0  0
 13 14  2  0  0  0  0
 14 15  1  0  0  0  0
 15 16  2  0  0  0  0
 16 17  1  0  0  0  0
M  END
$$$$
s_272164____14971852____17347350
  -OEChem-03222016482D

 21 22  0     0  0  0  0  0  0999 V2000
    3.2605   -4.8599    0.0000 C   0  0  0  0  0  0  0  0  0  0  0  0
    2.2824   -4.6519    0.0000 N   0  0  0  0  0  0  0  0  0  0  0  0
    1.6132   -5.3951    0.0000 C   0  0  0  0  0  0  0  0  0  0  0  0
    1.9222   -6.3461    0.0000 C   0  0  0  0  0  0  0  0  0  0  0  0
    1.2530   -7.0892    0.0000 F   0  0  0  0  0  0  0  0  0  0  0  0
    1.9734   -3.7009    0.0000 C   0  0  0  0  0  0  0  0  0  0  0  0
    0.9953   -3.4929    0.0000 O   0  0  0  0  0  0  0  0  0  0  0  0
    2.6426   -2.9578    0.0000 N   0  0  0  0  0  0  0  0  0  0  0  0
    2.3336   -2.0067    0.0000 C   0  0  0  0  0  0  0  0  0  0  0  0
    3.0028   -1.2636    0.0000 C   0  0  0  0  0  0  0  0  0  0  0  0
    2.6938   -0.3125    0.0000 C   0  0  0  0  0  0  0  0  0  0  0  0
    3.2858    0.5023    0.0000 C   0  0  0  0  0  0  0  0  0  0  0  0
    2.6938    1.3169    0.0000 N   0  0  0  0  0  0  0  0  0  0  0  0
    1.7360    1.0058    0.0000 C   0  0  0  0  0  0  0  0  0  0  0  0
    1.7360   -0.0012    0.0000 C   0  0  0  0  0  0  0  0  0  0  0  0
    0.8680   -0.4978    0.0000 C   0  0  0  0  0  0  0  0  0  0  0  0
    0.0000    0.0000    0.0000 C   0  0  0  0  0  0  0  0  0  0  0  0
   -0.0000    1.0058    0.0000 C   0  0  0  0  0  0  0  0  0  0  0  0
    0.8680    1.5138    0.0000 C   0  0  0  0  0  0  0  0  0  0  0  0
    0.8680    2.5138    0.0000 O   0  0  0  0  0  0  0  0  0  0  0  0
    0.0020    3.0138    0.0000 C   0  0  0  0  0  0  0  0  0  0  0  0
  1  2  1  0  0  0  0
  2  3  1  0  0  0  0
  3  4  1  0  0  0  0
  4  5  1  0  0  0  0
  2  6  1  0  0  0  0
  6  7  2  0  0  0  0
  6  8  1  0  0  0  0
  8  9  1  0  0  0  0
  9 10  1  0  0  0  0
 10 11  1  0  0  0  0
 11 15  1  0  0  0  0
 11 12  2  0  0  0  0
 12 13  1  0  0  0  0
 13 14  1  0  0  0  0
 14 19  2  0  0  0  0
 14 15  1  0  0  0  0
 15 16  2  0  0  0  0
 16 17  1  0  0  0  0
 17 18  2  0  0  0  0
 18 19  1  0  0  0  0
 19 20  1  0  0  0  0
 20 21  1  0  0  0  0
M  END
$$$$
s_22____13978824____16726278
  -OEChem-03222016482D

 21 22  0     0  0  0  0  0  0999 V2000
    8.1512   -5.8997    0.0000 C   0  0  0  0  0  0  0  0  0  0  0  0
    7.8422   -4.9486    0.0000 C   0  0  0  0  0  0  0  0  0  0  0  0
    6.8641   -4.7407    0.0000 C   0  0  0  0  0  0  0  0  0  0  0  0
    6.5551   -3.7896    0.0000 C   0  0  0  0  0  0  0  0  0  0  0  0
    5.5770   -3.5816    0.0000 C   0  0  0  0  0  0  0  0  0  0  0  0
    5.2680   -2.6306    0.0000 C   0  0  0  0  0  0  0  0  0  0  0  0
    5.9372   -1.8874    0.0000 O   0  0  0  0  0  0  0  0  0  0  0  0
    4.2899   -2.4226    0.0000 N   0  0  0  0  0  0  0  0  0  0  0  0
    3.9809   -1.4715    0.0000 C   0  0  0  0  0  0  0  0  0  0  0  0
    3.0028   -1.2636    0.0000 C   0  0  0  0  0  0  0  0  0  0  0  0
    2.6938   -0.3125    0.0000 C   0  0  0  0  0  0  0  0  0  0  0  0
    3.2858    0.5023    0.0000 C   0  0  0  0  0  0  0  0  0  0  0  0
    2.6938    1.3169    0.0000 N   0  0  0  0  0  0  0  0  0  0  0  0
    1.7360    1.0058    0.0000 C   0  0  0  0  0  0  0  0  0  0  0  0
    1.7360   -0.0012    0.0000 C   0  0  0  0  0  0  0  0  0  0  0  0
    0.8680   -0.4978    0.0000 C   0  0  0  0  0  0  0  0  0  0  0  0
    0.0000    0.0000    0.0000 C   0  0  0  0  0  0  0  0  0  0  0  0
   -0.0000    1.0058    0.0000 C   0  0  0  0  0  0  0  0  0  0  0  0
    0.8680    1.5138    0.0000 C   0  0  0  0  0  0  0  0  0  0  0  0
   -0.8675    1.5032    0.0000 O   0  0  0  0  0  0  0  0  0  0  0  0
   -1.7320    1.0007    0.0000 C   0  0  0  0  0  0  0  0  0  0  0  0
  1  2  1  0  0  0  0
  2  3  2  3  0  0  0
  3  4  1  0  0  0  0
  4  5  1  0  0  0  0
  5  6  1  0  0  0  0
  6  7  2  0  0  0  0
  6  8  1  0  0  0  0
  8  9  1  0  0  0  0
  9 10  1  0  0  0  0
 10 11  1  0  0  0  0
 11 15  1  0  0  0  0
 11 12  2  0  0  0  0
 12 13  1  0  0  0  0
 13 14  1  0  0  0  0
 14 19  2  0  0  0  0
 14 15  1  0  0  0  0
 15 16  2  0  0  0  0
 16 17  1  0  0  0  0
 17 18  2  0  0  0  0
 18 19  1  0  0  0  0
 18 20  1  0  0  0  0
 20 21  1  0  0  0  0
M  END
$$$$
s_207____13973878____15269818
  -OEChem-03222016482D

 19 20  0     0  0  0  0  0  0999 V2000
    7.7858    1.3686    0.0000 C   0  0  0  0  0  0  0  0  0  0  0  0
    7.2857    2.2346    0.0000 N   0  0  0  0  0  0  0  0  0  0  0  0
    6.2857    2.2345    0.0000 C   0  0  0  0  0  0  0  0  0  0  0  0
    5.7856    3.1005    0.0000 O   0  0  0  0  0  0  0  0  0  0  0  0
    5.7858    1.3685    0.0000 C   0  0  0  0  0  0  0  0  0  0  0  0
    4.7858    1.3684    0.0000 N   0  3  0  0  0  0  0  0  0  0  0  0
    4.2858    0.5024    0.0000 C   0  0  0  0  0  0  0  0  0  0  0  0
    3.2858    0.5023    0.0000 C   0  0  0  0  0  0  0  0  0  0  0  0
    2.6938   -0.3125    0.0000 C   0  0  0  0  0  0  0  0  0  0  0  0
    1.7360   -0.0012    0.0000 C   0  0  0  0  0  0  0  0  0  0  0  0
    1.7360    1.0058    0.0000 C   0  0  0  0  0  0  0  0  0  0  0  0
    2.6938    1.3169    0.0000 N   0  0  0  0  0  0  0  0  0  0  0  0
    0.8680    1.5138    0.0000 C   0  0  0  0  0  0  0  0  0  0  0  0
    0.0000    1.0058    0.0000 C   0  0  0  0  0  0  0  0  0  0  0  0
    0.0000    0.0000    0.0000 C   0  0  0  0  0  0  0  0  0  0  0  0
    0.8680   -0.4978    0.0000 C   0  0  0  0  0  0  0  0  0  0  0  0
    0.8675   -1.4978    0.0000 O   0  0  0  0  0  0  0  0  0  0  0  0
    1.7332   -1.9983    0.0000 C   0  0  0  0  0  0  0  0  0  0  0  0
    7.7856    3.1006    0.0000 O   0  0  0  0  0  0  0  0  0  0  0  0
  1  2  1  0  0  0  0
  2  3  1  0  0  0  0
  3  4  2  0  0  0  0
  3  5  1  0  0  0  0
  5  6  1  0  0  0  0
  6  7  1  0  0  0  0
  7  8  1  0  0  0  0
  8 12  1  0  0  0  0
  8  9  2  0  0  0  0
  9 10  1  0  0  0  0
 10 16  2  0  0  0  0
 10 11  1  0  0  0  0
 11 12  1  0  0  0  0
 11 13  2  0  0  0  0
 13 14  1  0  0  0  0
 14 15  2  0  0  0  0
 15 16  1  0  0  0  0
 16 17  1  0  0  0  0
 17 18  1  0  0  0  0
  2 19  1  0  0  0  0
M  CHG  1   6   1
M  END
$$$$
s_22____13025516____303718
  -OEChem-03222016482D

 20 21  0     0  0  0  0  0  0999 V2000
    7.8422   -4.9486    0.0000 C   0  0  0  0  0  0  0  0  0  0  0  0
    6.8641   -4.7407    0.0000 C   0  0  0  0  0  0  0  0  0  0  0  0
    6.5551   -3.7896    0.0000 C   0  0  0  0  0  0  0  0  0  0  0  0
    5.5770   -3.5816    0.0000 C   0  0  0  0  0  0  0  0  0  0  0  0
    5.2680   -2.6306    0.0000 C   0  0  0  0  0  0  0  0  0  0  0  0
    5.9372   -1.8874    0.0000 O   0  0  0  0  0  0  0  0  0  0  0  0
    4.2899   -2.4226    0.0000 N   0  0  0  0  0  0  0  0  0  0  0  0
    3.9809   -1.4715    0.0000 C   0  0  0  0  0  0  0  0  0  0  0  0
    3.0028   -1.2636    0.0000 C   0  0  0  0  0  0  0  0  0  0  0  0
    2.6938   -0.3125    0.0000 C   0  0  0  0  0  0  0  0  0  0  0  0
    3.2858    0.5023    0.0000 C   0  0  0  0  0  0  0  0  0  0  0  0
    2.6938    1.3169    0.0000 N   0  0  0  0  0  0  0  0  0  0  0  0
    1.7360    1.0058    0.0000 C   0  0  0  0  0  0  0  0  0  0  0  0
    1.7360   -0.0012    0.0000 C   0  0  0  0  0  0  0  0  0  0  0  0
    0.8680   -0.4978    0.0000 C   0  0  0  0  0  0  0  0  0  0  0  0
    0.0000    0.0000    0.0000 C   0  0  0  0  0  0  0  0  0  0  0  0
   -0.0000    1.0058    0.0000 C   0  0  0  0  0  0  0  0  0  0  0  0
    0.8680    1.5138    0.0000 C   0  0  0  0  0  0  0  0  0  0  0  0
    0.8675   -1.4978    0.0000 O   0  0  0  0  0  0  0  0  0  0  0  0
    1.7332   -1.9983    0.0000 C   0  0  0  0  0  0  0  0  0  0  0  0
  1  2  1  0  0  0  0
  2  3  1  0  0  0  0
  3  4  1  0  0  0  0
  4  5  1  0  0  0  0
  5  6  2  0  0  0  0
  5  7  1  0  0  0  0
  7  8  1  0  0  0  0
  8  9  1  0  0  0  0
  9 10  1  0  0  0  0
 10 14  1  0  0  0  0
 10 11  2  0  0  0  0
 11 12  1  0  0  0  0
 12 13  1  0  0  0  0
 13 18  2  0  0  0  0
 13 14  1  0  0  0  0
 14 15  2  0  0  0  0
 15 16  1  0  0  0  0
 16 17  2  0  0  0  0
 17 18  1  0  0  0  0
 15 19  1  0  0  0  0
 19 20  1  0  0  0  0
M  END
$$$$
s_22____13978824____14930376
  -OEChem-03222016482D

 20 21  0     0  0  0  0  0  0999 V2000
    1.2530   -7.0892    0.0000 C   0  0  0  0  0  0  0  0  0  0  0  0
    1.9222   -6.3461    0.0000 C   0  0  0  0  0  0  0  0  0  0  0  0
    1.6132   -5.3951    0.0000 S   0  0  0  0  0  0  0  0  0  0  0  0
    2.2824   -4.6519    0.0000 C   0  0  0  0  0  0  0  0  0  0  0  0
    1.9734   -3.7009    0.0000 C   0  0  0  0  0  0  0  0  0  0  0  0
    0.9953   -3.4929    0.0000 O   0  0  0  0  0  0  0  0  0  0  0  0
    2.6426   -2.9578    0.0000 N   0  0  0  0  0  0  0  0  0  0  0  0
    2.3336   -2.0067    0.0000 C   0  0  0  0  0  0  0  0  0  0  0  0
    3.0028   -1.2636    0.0000 C   0  0  0  0  0  0  0  0  0  0  0  0
    2.6938   -0.3125    0.0000 C   0  0  0  0  0  0  0  0  0  0  0  0
    3.2858    0.5023    0.0000 C   0  0  0  0  0  0  0  0  0  0  0  0
    2.6938    1.3169    0.0000 N   0  0  0  0  0  0  0  0  0  0  0  0
    1.7360    1.0058    0.0000 C   0  0  0  0  0  0  0  0  0  0  0  0
    1.7360   -0.0012    0.0000 C   0  0  0  0  0  0  0  0  0  0  0  0
    0.8680   -0.4978    0.0000 C   0  0  0  0  0  0  0  0  0  0  0  0
    0.0000    0.0000    0.0000 C   0  0  0  0  0  0  0  0  0  0  0  0
   -0.0000    1.0058    0.0000 C   0  0  0  0  0  0  0  0  0  0  0  0
    0.8680    1.5138    0.0000 C   0  0  0  0  0  0  0  0  0  0  0  0
   -0.8675    1.5032    0.0000 O   0  0  0  0  0  0  0  0  0  0  0  0
   -1.7320    1.0007    0.0000 C   0  0  0  0  0  0  0  0  0  0  0  0
  1  2  1  0  0  0  0
  2  3  1  0  0  0  0
  3  4  1  0  0  0  0
  4  5  1  0  0  0  0
  5  6  2  0  0  0  0
  5  7  1  0  0  0  0
  7  8  1  0  0  0  0
  8  9  1  0  0  0  0
  9 10  1  0  0  0  0
 10 14  1  0  0  0  0
 10 11  2  0  0  0  0
 11 12  1  0  0  0  0
 12 13  1  0  0  0  0
 13 18  2  0  0  0  0
 13 14  1  0  0  0  0
 14 15  2  0  0  0  0
 15 16  1  0  0  0  0
 16 17  2  0  0  0  0
 17 18  1  0  0  0  0
 17 19  1  0  0  0  0
 19 20  1  0  0  0  0
M  END
$$$$
s_270004____16711614____15269820
  -OEChem-03222016482D

 18 20  0     0  0  0  0  0  0999 V2000
    5.5204   -1.8730    0.0000 C   0  0  0  0  0  0  0  0  0  0  0  0
    6.2859   -1.2296    0.0000 C   0  0  0  0  0  0  0  0  0  0  0  0
    7.0544   -1.8724    0.0000 N   0  0  0  0  0  0  0  0  0  0  0  0
    7.2276   -0.8875    0.0000 N   0  0  0  0  0  0  0  0  0  0  0  0
    5.7859   -0.3636    0.0000 C   0  0  0  0  0  0  0  0  0  0  0  0
    4.7859   -0.3636    0.0000 N   0  3  0  0  0  0  0  0  0  0  0  0
    4.2858    0.5024    0.0000 C   0  0  0  0  0  0  0  0  0  0  0  0
    3.2858    0.5023    0.0000 C   0  0  0  0  0  0  0  0  0  0  0  0
    2.6938   -0.3125    0.0000 C   0  0  0  0  0  0  0  0  0  0  0  0
    1.7360   -0.0012    0.0000 C   0  0  0  0  0  0  0  0  0  0  0  0
    1.7360    1.0058    0.0000 C   0  0  0  0  0  0  0  0  0  0  0  0
    2.6938    1.3169    0.0000 N   0  0  0  0  0  0  0  0  0  0  0  0
    0.8680    1.5138    0.0000 C   0  0  0  0  0  0  0  0  0  0  0  0
    0.0000    1.0058    0.0000 C   0  0  0  0  0  0  0  0  0  0  0  0
    0.0000    0.0000    0.0000 C   0  0  0  0  0  0  0  0  0  0  0  0
    0.8680   -0.4978    0.0000 C   0  0  0  0  0  0  0  0  0  0  0  0
    0.8675   -1.4978    0.0000 O   0  0  0  0  0  0  0  0  0  0  0  0
    1.7332   -1.9983    0.0000 C   0  0  0  0  0  0  0  0  0  0  0  0
  1  2  1  0  0  0  0
  2  4  1  0  0  0  0
  2  3  1  0  0  0  0
  3  4  2  0  0  0  0
  2  5  1  0  0  0  0
  5  6  1  0  0  0  0
  6  7  1  0  0  0  0
  7  8  1  0  0  0  0
  8 12  1  0  0  0  0
  8  9  2  0  0  0  0
  9 10  1  0  0  0  0
 10 16  2  0  0  0  0
 10 11  1  0  0  0  0
 11 12  1  0  0  0  0
 11 13  2  0  0  0  0
 13 14  1  0  0  0  0
 14 15  2  0  0  0  0
 15 16  1  0  0  0  0
 16 17  1  0  0  0  0
 17 18  1  0  0  0  0
M  CHG  1   6   1
M  END
$$$$
s_527a____153889____156120
  -OEChem-03222016482D

 16 17  0     0  0  0  0  0  0999 V2000
    1.6132   -5.3951    0.0000 C   0  0  0  0  0  0  0  0  0  0  0  0
    2.2824   -4.6519    0.0000 C   0  0  0  0  0  0  0  0  0  0  0  0
    1.9734   -3.7009    0.0000 C   0  0  0  0  0  0  0  0  0  0  0  0
    0.9953   -3.4929    0.0000 O   0  0  0  0  0  0  0  0  0  0  0  0
    2.6426   -2.9578    0.0000 N   0  0  0  0  0  0  0  0  0  0  0  0
    2.3336   -2.0067    0.0000 C   0  0  0  0  0  0  0  0  0  0  0  0
    3.0028   -1.2636    0.0000 C   0  0  0  0  0  0  0  0  0  0  0  0
    2.6938   -0.3125    0.0000 C   0  0  0  0  0  0  0  0  0  0  0  0
    3.2858    0.5023    0.0000 C   0  0  0  0  0  0  0  0  0  0  0  0
    2.6938    1.3169    0.0000 N   0  0  0  0  0  0  0  0  0  0  0  0
    1.7360    1.0058    0.0000 C   0  0  0  0  0  0  0  0  0  0  0  0
    1.7360   -0.0012    0.0000 C   0  0  0  0  0  0  0  0  0  0  0  0
    0.8680   -0.4978    0.0000 C   0  0  0  0  0  0  0  0  0  0  0  0
    0.0000    0.0000    0.0000 C   0  0  0  0  0  0  0  0  0  0  0  0
   -0.0000    1.0058    0.0000 C   0  0  0  0  0  0  0  0  0  0  0  0
    0.8680    1.5138    0.0000 C   0  0  0  0  0  0  0  0  0  0  0  0
  1  2  1  0  0  0  0
  2  3  1  0  0  0  0
  3  4  2  0  0  0  0
  3  5  1  0  0  0  0
  5  6  1  0  0  0  0
  6  7  1  0  0  0  0
  7  8  1  0  0  0  0
  8 12  1  0  0  0  0
  8  9  2  0  0  0  0
  9 10  1  0  0  0  0
 10 11  1  0  0  0  0
 11 16  2  0  0  0  0
 11 12  1  0  0  0  0
 12 13  2  0  0  0  0
 13 14  1  0  0  0  0
 14 15  2  0  0  0  0
 15 16  1  0  0  0  0
M  END
$$$$
s_22____13771018____13756276
  -OEChem-03222016482D

 22 23  0     1  0  0  0  0  0999 V2000
   -3.4641   -0.0050    0.0000 C   0  0  0  0  0  0  0  0  0  0  0  0
   -2.5974   -0.5038    0.0000 C   0  0  0  0  0  0  0  0  0  0  0  0
   -1.7320   -0.0025    0.0000 C   0  0  0  0  0  0  0  0  0  0  0  0
   -0.8653   -0.5013    0.0000 O   0  0  0  0  0  0  0  0  0  0  0  0
    0.0000    0.0000    0.0000 C   0  0  0  0  0  0  0  0  0  0  0  0
   -0.0000    1.0058    0.0000 C   0  0  0  0  0  0  0  0  0  0  0  0
    0.8680    1.5138    0.0000 C   0  0  0  0  0  0  0  0  0  0  0  0
    1.7360    1.0058    0.0000 C   0  0  0  0  0  0  0  0  0  0  0  0
    1.7360   -0.0012    0.0000 C   0  0  0  0  0  0  0  0  0  0  0  0
    0.8680   -0.4978    0.0000 C   0  0  0  0  0  0  0  0  0  0  0  0
    2.6938   -0.3125    0.0000 C   0  0  0  0  0  0  0  0  0  0  0  0
    3.2858    0.5023    0.0000 C   0  0  0  0  0  0  0  0  0  0  0  0
    2.6938    1.3169    0.0000 N   0  0  0  0  0  0  0  0  0  0  0  0
    3.0028   -1.2636    0.0000 C   0  0  0  0  0  0  0  0  0  0  0  0
    3.9809   -1.4715    0.0000 C   0  0  0  0  0  0  0  0  0  0  0  0
    4.2899   -2.4226    0.0000 N   0  0  0  0  0  0  0  0  0  0  0  0
    5.2680   -2.6306    0.0000 C   0  0  0  0  0  0  0  0  0  0  0  0
    5.9372   -1.8874    0.0000 O   0  0  0  0  0  0  0  0  0  0  0  0
    5.5770   -3.5816    0.0000 C   0  0  3  0  0  0  0  0  0  0  0  0
    6.5551   -3.7896    0.0000 C   0  0  0  0  0  0  0  0  0  0  0  0
    6.8641   -4.7407    0.0000 C   0  0  0  0  0  0  0  0  0  0  0  0
    4.9078   -4.3247    0.0000 F   0  0  0  0  0  0  0  0  0  0  0  0
  1  2  1  0  0  0  0
  2  3  1  0  0  0  0
  3  4  1  0  0  0  0
  4  5  1  0  0  0  0
  5 10  2  0  0  0  0
  5  6  1  0  0  0  0
  6  7  2  0  0  0  0
  7  8  1  0  0  0  0
  8 13  1  0  0  0  0
  8  9  2  0  0  0  0
  9 10  1  0  0  0  0
  9 11  1  0  0  0  0
 11 12  2  0  0  0  0
 12 13  1  0  0  0  0
 11 14  1  0  0  0  0
 14 15  1  0  0  0  0
 15 16  1  0  0  0  0
 16 17  1  0  0  0  0
 17 18  2  0  0  0  0
 17 19  1  0  0  0  0
 19 20  1  0  0  0  0
 20 21  1  0  0  0  0
 19 22  1  0  0  0  0
M  END
$$$$
s_512____158631____13025528
  -OEChem-03222016482D

 20 21  0     0  0  0  0  0  0999 V2000
    0.0012   -1.9973    0.0000 C   0  0  0  0  0  0  0  0  0  0  0  0
    0.8675   -1.4978    0.0000 O   0  0  0  0  0  0  0  0  0  0  0  0
    0.8680   -0.4978    0.0000 C   0  0  0  0  0  0  0  0  0  0  0  0
    0.0000    0.0000    0.0000 C   0  0  0  0  0  0  0  0  0  0  0  0
   -0.0000    1.0058    0.0000 C   0  0  0  0  0  0  0  0  0  0  0  0
    0.8680    1.5138    0.0000 C   0  0  0  0  0  0  0  0  0  0  0  0
    1.7360    1.0058    0.0000 C   0  0  0  0  0  0  0  0  0  0  0  0
    1.7360   -0.0012    0.0000 C   0  0  0  0  0  0  0  0  0  0  0  0
    2.6938   -0.3125    0.0000 C   0  0  0  0  0  0  0  0  0  0  0  0
    3.2858    0.5023    0.0000 C   0  0  0  0  0  0  0  0  0  0  0  0
    2.6938    1.3169    0.0000 N   0  0  0  0  0  0  0  0  0  0  0  0
    3.0028   -1.2636    0.0000 C   0  0  0  0  0  0  0  0  0  0  0  0
    3.9809   -1.4715    0.0000 C   0  0  0  0  0  0  0  0  0  0  0  0
    4.2899   -2.4226    0.0000 N   0  0  0  0  0  0  0  0  0  0  0  0
    5.2680   -2.6306    0.0000 C   0  0  0  0  0  0  0  0  0  0  0  0
    5.9372   -1.8874    0.0000 O   0  0  0  0  0  0  0  0  0  0  0  0
    5.5770   -3.5816    0.0000 N   0  0  0  0  0  0  0  0  0  0  0  0
    6.5551   -3.7896    0.0000 C   0  0  0  0  0  0  0  0  0  0  0  0
    6.8641   -4.7407    0.0000 C   0  0  0  0  0  0  0  0  0  0  0  0
    7.1731   -5.6917    0.0000 C   0  0  0  0  0  0  0  0  0  0  0  0
  1  2  1  0  0  0  0
  2  3  1  0  0  0  0
  3  8  2  0  0  0  0
  3  4  1  0  0  0  0
  4  5  2  0  0  0  0
  5  6  1  0  0  0  0
  6  7  2  0  0  0  0
  7 11  1  0  0  0  0
  7  8  1  0  0  0  0
  8  9  1  0  0  0  0
  9 10  2  0  0  0  0
 10 11  1  0  0  0  0
  9 12  1  0  0  0  0
 12 13  1  0  0  0  0
 13 14  1  0  0  0  0
 14 15  1  0  0  0  0
 15 16  2  0  0  0  0
 15 17  1  0  0  0  0
 17 18  1  0  0  0  0
 18 19  1  0  0  0  0
 19 20  3  0  0  0  0
M  END
$$$$
s_512____158631____15506628
  -OEChem-03222016482D

 20 21  0     0  0  0  0  0  0999 V2000
    1.7340    3.0138    0.0000 C   0  0  0  0  0  0  0  0  0  0  0  0
    0.8680    2.5138    0.0000 O   0  0  0  0  0  0  0  0  0  0  0  0
    0.8680    1.5138    0.0000 C   0  0  0  0  0  0  0  0  0  0  0  0
    0.0000    1.0058    0.0000 C   0  0  0  0  0  0  0  0  0  0  0  0
    0.0000    0.0000    0.0000 C   0  0  0  0  0  0  0  0  0  0  0  0
    0.8680   -0.4978    0.0000 C   0  0  0  0  0  0  0  0  0  0  0  0
    1.7360   -0.0012    0.0000 C   0  0  0  0  0  0  0  0  0  0  0  0
    1.7360    1.0058    0.0000 C   0  0  0  0  0  0  0  0  0  0  0  0
    2.6938    1.3169    0.0000 N   0  0  0  0  0  0  0  0  0  0  0  0
    3.2858    0.5023    0.0000 C   0  0  0  0  0  0  0  0  0  0  0  0
    2.6938   -0.3125    0.0000 C   0  0  0  0  0  0  0  0  0  0  0  0
    3.0028   -1.2636    0.0000 C   0  0  0  0  0  0  0  0  0  0  0  0
    3.9809   -1.4715    0.0000 C   0  0  0  0  0  0  0  0  0  0  0  0
    4.2899   -2.4226    0.0000 N   0  0  0  0  0  0  0  0  0  0  0  0
    5.2680   -2.6306    0.0000 C   0  0  0  0  0  0  0  0  0  0  0  0
    5.9372   -1.8874    0.0000 O   0  0  0  0  0  0  0  0  0  0  0  0
    5.5770   -3.5816    0.0000 N   0  0  0  0  0  0  0  0  0  0  0  0
    6.5551   -3.7896    0.0000 C   0  0  0  0  0  0  0  0  0  0  0  0
    6.8641   -4.7407    0.0000 C   0  0  0  0  0  0  0  0  0  0  0  0
    7.1731   -5.6917    0.0000 C   0  0  0  0  0  0  0  0  0  0  0  0
  1  2  1  0  0  0  0
  2  3  1  0  0  0  0
  3  8  2  0  0  0  0
  3  4  1  0  0  0  0
  4  5  2  0  0  0  0
  5  6  1  0  0  0  0
  6  7  2  0  0  0  0
  7 11  1  0  0  0  0
  7  8  1  0  0  0  0
  8  9  1  0  0  0  0
  9 10  1  0  0  0  0
 10 11  2  0  0  0  0
 11 12  1  0  0  0  0
 12 13  1  0  0  0  0
 13 14  1  0  0  0  0
 14 15  1  0  0  0  0
 15 16  2  0  0  0  0
 15 17  1  0  0  0  0
 17 18  1  0  0  0  0
 18 19  1  0  0  0  0
 19 20  3  0  0  0  0
M  END
$$$$
s_270006b____8394006____11616078
  -OEChem-03222016482D

 20 21  0     1  0  0  0  0  0999 V2000
    3.2605   -4.8599    0.0000 C   0  0  0  0  0  0  0  0  0  0  0  0
    2.2824   -4.6519    0.0000 C   0  0  3  0  0  0  0  0  0  0  0  0
    1.6132   -5.3951    0.0000 C   0  0  0  0  0  0  0  0  0  0  0  0
    1.9222   -6.3461    0.0000 N   0  3  0  0  0  0  0  0  0  0  0  0
    1.9734   -3.7009    0.0000 C   0  0  0  0  0  0  0  0  0  0  0  0
    0.9953   -3.4929    0.0000 O   0  0  0  0  0  0  0  0  0  0  0  0
    2.6426   -2.9578    0.0000 N   0  0  0  0  0  0  0  0  0  0  0  0
    2.3336   -2.0067    0.0000 C   0  0  0  0  0  0  0  0  0  0  0  0
    3.0028   -1.2636    0.0000 C   0  0  0  0  0  0  0  0  0  0  0  0
    2.6938   -0.3125    0.0000 C   0  0  0  0  0  0  0  0  0  0  0  0
    3.2858    0.5023    0.0000 C   0  0  0  0  0  0  0  0  0  0  0  0
    2.6938    1.3169    0.0000 N   0  0  0  0  0  0  0  0  0  0  0  0
    1.7360    1.0058    0.0000 C   0  0  0  0  0  0  0  0  0  0  0  0
    1.7360   -0.0012    0.0000 C   0  0  0  0  0  0  0  0  0  0  0  0
    0.8680   -0.4978    0.0000 C   0  0  0  0  0  0  0  0  0  0  0  0
    0.0000    0.0000    0.0000 C   0  0  0  0  0  0  0  0  0  0  0  0
   -0.0000    1.0058    0.0000 C   0  0  0  0  0  0  0  0  0  0  0  0
    0.8680    1.5138    0.0000 C   0  0  0  0  0  0  0  0  0  0  0  0
   -0.8653   -0.5013    0.0000 O   0  0  0  0  0  0  0  0  0  0  0  0
   -0.8639   -1.5013    0.0000 C   0  0  0  0  0  0  0  0  0  0  0  0
  1  2  1  0  0  0  0
  2  3  1  0  0  0  0
  3  4  1  0  0  0  0
  2  5  1  0  0  0  0
  5  6  2  0  0  0  0
  5  7  1  0  0  0  0
  7  8  1  0  0  0  0
  8  9  1  0  0  0  0
  9 10  1  0  0  0  0
 10 14  1  0  0  0  0
 10 11  2  0  0  0  0
 11 12  1  0  0  0  0
 12 13  1  0  0  0  0
 13 18  2  0  0  0  0
 13 14  1  0  0  0  0
 14 15  2  0  0  0  0
 15 16  1  0  0  0  0
 16 17  2  0  0  0  0
 17 18  1  0  0  0  0
 16 19  1  0  0  0  0
 19 20  1  0  0  0  0
M  CHG  1   4   1
M  END
$$$$
s_22____9226532____60364
  -OEChem-03222016482D

 20 21  0     0  0  0  0  0  0999 V2000
    1.7327   -2.9983    0.0000 C   0  0  0  0  0  0  0  0  0  0  0  0
    1.7332   -1.9983    0.0000 C   0  0  0  0  0  0  0  0  0  0  0  0
    0.8675   -1.4978    0.0000 O   0  0  0  0  0  0  0  0  0  0  0  0
    0.8680   -0.4978    0.0000 C   0  0  0  0  0  0  0  0  0  0  0  0
    0.0000    0.0000    0.0000 C   0  0  0  0  0  0  0  0  0  0  0  0
   -0.0000    1.0058    0.0000 C   0  0  0  0  0  0  0  0  0  0  0  0
    0.8680    1.5138    0.0000 C   0  0  0  0  0  0  0  0  0  0  0  0
    1.7360    1.0058    0.0000 C   0  0  0  0  0  0  0  0  0  0  0  0
    1.7360   -0.0012    0.0000 C   0  0  0  0  0  0  0  0  0  0  0  0
    2.6938   -0.3125    0.0000 C   0  0  0  0  0  0  0  0  0  0  0  0
    3.2858    0.5023    0.0000 C   0  0  0  0  0  0  0  0  0  0  0  0
    2.6938    1.3169    0.0000 N   0  0  0  0  0  0  0  0  0  0  0  0
    3.0028   -1.2636    0.0000 C   0  0  0  0  0  0  0  0  0  0  0  0
    3.9809   -1.4715    0.0000 C   0  0  0  0  0  0  0  0  0  0  0  0
    4.2899   -2.4226    0.0000 N   0  0  0  0  0  0  0  0  0  0  0  0
    5.2680   -2.6306    0.0000 C   0  0  0  0  0  0  0  0  0  0  0  0
    5.9372   -1.8874    0.0000 O   0  0  0  0  0  0  0  0  0  0  0  0
    5.5770   -3.5816    0.0000 C   0  0  0  0  0  0  0  0  0  0  0  0
    6.5551   -3.7896    0.0000 S   0  0  0  0  0  0  0  0  0  0  0  0
    6.8641   -4.7407    0.0000 C   0  0  0  0  0  0  0  0  0  0  0  0
  1  2  1  0  0  0  0
  2  3  1  0  0  0  0
  3  4  1  0  0  0  0
  4  9  2  0  0  0  0
  4  5  1  0  0  0  0
  5  6  2  0  0  0  0
  6  7  1  0  0  0  0
  7  8  2  0  0  0  0
  8 12  1  0  0  0  0
  8  9  1  0  0  0  0
  9 10  1  0  0  0  0
 10 11  2  0  0  0  0
 11 12  1  0  0  0  0
 10 13  1  0  0  0  0
 13 14  1  0  0  0  0
 14 15  1  0  0  0  0
 15 16  1  0  0  0  0
 16 17  2  0  0  0  0
 16 18  1  0  0  0  0
 18 19  1  0  0  0  0
 19 20  1  0  0  0  0
M  END
$$$$
s_22____13978824____9322364
  -OEChem-03222016482D

 21 22  0     0  0  0  0  0  0999 V2000
   -0.8705    2.5032    0.0000 C   0  0  0  0  0  0  0  0  0  0  0  0
   -0.8675    1.5032    0.0000 O   0  0  0  0  0  0  0  0  0  0  0  0
    0.0000    1.0058    0.0000 C   0  0  0  0  0  0  0  0  0  0  0  0
    0.0000    0.0000    0.0000 C   0  0  0  0  0  0  0  0  0  0  0  0
    0.8680   -0.4978    0.0000 C   0  0  0  0  0  0  0  0  0  0  0  0
    1.7360   -0.0012    0.0000 C   0  0  0  0  0  0  0  0  0  0  0  0
    1.7360    1.0058    0.0000 C   0  0  0  0  0  0  0  0  0  0  0  0
    0.8680    1.5138    0.0000 C   0  0  0  0  0  0  0  0  0  0  0  0
    2.6938    1.3169    0.0000 N   0  0  0  0  0  0  0  0  0  0  0  0
    3.2858    0.5023    0.0000 C   0  0  0  0  0  0  0  0  0  0  0  0
    2.6938   -0.3125    0.0000 C   0  0  0  0  0  0  0  0  0  0  0  0
    3.0028   -1.2636    0.0000 C   0  0  0  0  0  0  0  0  0  0  0  0
    3.9809   -1.4715    0.0000 C   0  0  0  0  0  0  0  0  0  0  0  0
    4.2899   -2.4226    0.0000 N   0  0  0  0  0  0  0  0  0  0  0  0
    5.2680   -2.6306    0.0000 C   0  0  0  0  0  0  0  0  0  0  0  0
    5.9372   -1.8874    0.0000 O   0  0  0  0  0  0  0  0  0  0  0  0
    5.5770   -3.5816    0.0000 C   0  0  0  0  0  0  0  0  0  0  0  0
    6.5551   -3.7896    0.0000 C   0  0  0  0  0  0  0  0  0  0  0  0
    6.8641   -4.7407    0.0000 C   0  0  0  0  0  0  0  0  0  0  0  0
    7.8422   -4.9486    0.0000 C   0  0  0  0  0  0  0  0  0  0  0  0
    8.8204   -5.1566    0.0000 C   0  0  0  0  0  0  0  0  0  0  0  0
  1  2  1  0  0  0  0
  2  3  1  0  0  0  0
  3  8  2  0  0  0  0
  3  4  1  0  0  0  0
  4  5  2  0  0  0  0
  5  6  1  0  0  0  0
  6 11  1  0  0  0  0
  6  7  2  0  0  0  0
  7  8  1  0  0  0  0
  7  9  1  0  0  0  0
  9 10  1  0  0  0  0
 10 11  2  0  0  0  0
 11 12  1  0  0  0  0
 12 13  1  0  0  0  0
 13 14  1  0  0  0  0
 14 15  1  0  0  0  0
 15 16  2  0  0  0  0
 15 17  1  0  0  0  0
 17 18  1  0  0  0  0
 18 19  1  0  0  0  0
 19 20  1  0  0  0  0
 20 21  3  0  0  0  0
M  END
$$$$
s_272164____14971800____17347350
  -OEChem-03222016482D

 21 22  0     0  0  0  0  0  0999 V2000
    3.2605   -4.8599    0.0000 C   0  0  0  0  0  0  0  0  0  0  0  0
    2.2824   -4.6519    0.0000 N   0  0  0  0  0  0  0  0  0  0  0  0
    1.6132   -5.3951    0.0000 C   0  0  0  0  0  0  0  0  0  0  0  0
    1.9222   -6.3461    0.0000 C   0  0  0  0  0  0  0  0  0  0  0  0
    2.2312   -7.2972    0.0000 N   0  0  0  0  0  0  0  0  0  0  0  0
    1.9734   -3.7009    0.0000 C   0  0  0  0  0  0  0  0  0  0  0  0
    0.9953   -3.4929    0.0000 O   0  0  0  0  0  0  0  0  0  0  0  0
    2.6426   -2.9578    0.0000 N   0  0  0  0  0  0  0  0  0  0  0  0
    2.3336   -2.0067    0.0000 C   0  0  0  0  0  0  0  0  0  0  0  0
    3.0028   -1.2636    0.0000 C   0  0  0  0  0  0  0  0  0  0  0  0
    2.6938   -0.3125    0.0000 C   0  0  0  0  0  0  0  0  0  0  0  0
    3.2858    0.5023    0.0000 C   0  0  0  0  0  0  0  0  0  0  0  0
    2.6938    1.3169    0.0000 N   0  0  0  0  0  0  0  0  0  0  0  0
    1.7360    1.0058    0.0000 C   0  0  0  0  0  0  0  0  0  0  0  0
    1.7360   -0.0012    0.0000 C   0  0  0  0  0  0  0  0  0  0  0  0
    0.8680   -0.4978    0.0000 C   0  0  0  0  0  0  0  0  0  0  0  0
    0.0000    0.0000    0.0000 C   0  0  0  0  0  0  0  0  0  0  0  0
   -0.0000    1.0058    0.0000 C   0  0  0  0  0  0  0  0  0  0  0  0
    0.8680    1.5138    0.0000 C   0  0  0  0  0  0  0  0  0  0  0  0
    0.8680    2.5138    0.0000 O   0  0  0  0  0  0  0  0  0  0  0  0
    0.0020    3.0138    0.0000 C   0  0  0  0  0  0  0  0  0  0  0  0
  1  2  1  0  0  0  0
  2  3  1  0  0  0  0
  3  4  1  0  0  0  0
  4  5  3  0  0  0  0
  2  6  1  0  0  0  0
  6  7  2  0  0  0  0
  6  8  1  0  0  0  0
  8  9  1  0  0  0  0
  9 10  1  0  0  0  0
 10 11  1  0  0  0  0
 11 15  1  0  0  0  0
 11 12  2  0  0  0  0
 12 13  1  0  0  0  0
 13 14  1  0  0  0  0
 14 19  2  0  0  0  0
 14 15  1  0  0  0  0
 15 16  2  0  0  0  0
 16 17  1  0  0  0  0
 17 18  2  0  0  0  0
 18 19  1  0  0  0  0
 19 20  1  0  0  0  0
 20 21  1  0  0  0  0
M  END
$$$$
s_22____14190602____58844
  -OEChem-03222016482D

 18 19  0     1  0  0  0  0  0999 V2000
    1.3555   -1.7987    0.0000 C   0  0  0  0  0  0  0  0  0  0  0  0
    2.3336   -2.0067    0.0000 C   0  0  3  0  0  0  0  0  0  0  0  0
    3.0028   -1.2636    0.0000 C   0  0  0  0  0  0  0  0  0  0  0  0
    2.6938   -0.3125    0.0000 C   0  0  0  0  0  0  0  0  0  0  0  0
    3.2858    0.5023    0.0000 C   0  0  0  0  0  0  0  0  0  0  0  0
    2.6938    1.3169    0.0000 N   0  0  0  0  0  0  0  0  0  0  0  0
    1.7360    1.0058    0.0000 C   0  0  0  0  0  0  0  0  0  0  0  0
    1.7360   -0.0012    0.0000 C   0  0  0  0  0  0  0  0  0  0  0  0
    0.8680   -0.4978    0.0000 C   0  0  0  0  0  0  0  0  0  0  0  0
    0.0000    0.0000    0.0000 C   0  0  0  0  0  0  0  0  0  0  0  0
   -0.0000    1.0058    0.0000 C   0  0  0  0  0  0  0  0  0  0  0  0
    0.8680    1.5138    0.0000 C   0  0  0  0  0  0  0  0  0  0  0  0
   -0.8675    1.5032    0.0000 F   0  0  0  0  0  0  0  0  0  0  0  0
   -0.8653   -0.5013    0.0000 F   0  0  0  0  0  0  0  0  0  0  0  0
    2.6426   -2.9578    0.0000 N   0  0  0  0  0  0  0  0  0  0  0  0
    1.9734   -3.7009    0.0000 C   0  0  0  0  0  0  0  0  0  0  0  0
    0.9953   -3.4929    0.0000 O   0  0  0  0  0  0  0  0  0  0  0  0
    2.2824   -4.6519    0.0000 C   0  0  0  0  0  0  0  0  0  0  0  0
  1  2  1  0  0  0  0
  2  3  1  0  0  0  0
  3  4  1  0  0  0  0
  4  8  1  0  0  0  0
  4  5  2  0  0  0  0
  5  6  1  0  0  0  0
  6  7  1  0  0  0  0
  7 12  2  0  0  0  0
  7  8  1  0  0  0  0
  8  9  2  0  0  0  0
  9 10  1  0  0  0  0
 10 11  2  0  0  0  0
 11 12  1  0  0  0  0
 11 13  1  0  0  0  0
 10 14  1  0  0  0  0
  2 15  1  0  0  0  0
 15 16  1  0  0  0  0
 16 17  2  0  0  0  0
 16 18  1  0  0  0  0
M  END
$$$$
s_22____13025516____10748158
  -OEChem-03222016482D

 21 22  0     0  0  0  0  0  0999 V2000
    0.0012   -1.9973    0.0000 C   0  0  0  0  0  0  0  0  0  0  0  0
    0.8675   -1.4978    0.0000 O   0  0  0  0  0  0  0  0  0  0  0  0
    0.8680   -0.4978    0.0000 C   0  0  0  0  0  0  0  0  0  0  0  0
    0.0000    0.0000    0.0000 C   0  0  0  0  0  0  0  0  0  0  0  0
   -0.0000    1.0058    0.0000 C   0  0  0  0  0  0  0  0  0  0  0  0
    0.8680    1.5138    0.0000 C   0  0  0  0  0  0  0  0  0  0  0  0
    1.7360    1.0058    0.0000 C   0  0  0  0  0  0  0  0  0  0  0  0
    1.7360   -0.0012    0.0000 C   0  0  0  0  0  0  0  0  0  0  0  0
    2.6938   -0.3125    0.0000 C   0  0  0  0  0  0  0  0  0  0  0  0
    3.2858    0.5023    0.0000 C   0  0  0  0  0  0  0  0  0  0  0  0
    2.6938    1.3169    0.0000 N   0  0  0  0  0  0  0  0  0  0  0  0
    3.0028   -1.2636    0.0000 C   0  0  0  0  0  0  0  0  0  0  0  0
    3.9809   -1.4715    0.0000 C   0  0  0  0  0  0  0  0  0  0  0  0
    4.2899   -2.4226    0.0000 N   0  0  0  0  0  0  0  0  0  0  0  0
    5.2680   -2.6306    0.0000 C   0  0  0  0  0  0  0  0  0  0  0  0
    5.9372   -1.8874    0.0000 O   0  0  0  0  0  0  0  0  0  0  0  0
    5.5770   -3.5816    0.0000 C   0  0  0  0  0  0  0  0  0  0  0  0
    6.5551   -3.7896    0.0000 S   0  0  0  0  0  0  0  0  0  0  0  0
    6.8641   -4.7407    0.0000 C   0  0  0  0  0  0  0  0  0  0  0  0
    7.8422   -4.9486    0.0000 F   0  0  0  0  0  0  0  0  0  0  0  0
    6.1949   -5.4838    0.0000 F   0  0  0  0  0  0  0  0  0  0  0  0
  1  2  1  0  0  0  0
  2  3  1  0  0  0  0
  3  8  2  0  0  0  0
  3  4  1  0  0  0  0
  4  5  2  0  0  0  0
  5  6  1  0  0  0  0
  6  7  2  0  0  0  0
  7 11  1  0  0  0  0
  7  8  1  0  0  0  0
  8  9  1  0  0  0  0
  9 10  2  0  0  0  0
 10 11  1  0  0  0  0
  9 12  1  0  0  0  0
 12 13  1  0  0  0  0
 13 14  1  0  0  0  0
 14 15  1  0  0  0  0
 15 16  2  0  0  0  0
 15 17  1  0  0  0  0
 17 18  1  0  0  0  0
 18 19  1  0  0  0  0
 19 20  1  0  0  0  0
 19 21  1  0  0  0  0
M  END
$$$$
s_22____13596594____12103014
  -OEChem-03222016482D

 17 18  0     0  0  0  0  0  0999 V2000
    6.8884   -4.7050    0.0000 C   0  0  0  0  0  0  0  0  0  0  0  0
    6.5743   -3.7557    0.0000 C   0  0  0  0  0  0  0  0  0  0  0  0
    5.5950   -3.5530    0.0000 C   0  0  0  0  0  0  0  0  0  0  0  0
    5.2808   -2.6037    0.0000 C   0  0  0  0  0  0  0  0  0  0  0  0
    5.9459   -1.8569    0.0000 O   0  0  0  0  0  0  0  0  0  0  0  0
    4.3016   -2.4011    0.0000 N   0  0  0  0  0  0  0  0  0  0  0  0
    3.9874   -1.4517    0.0000 C   0  0  0  0  0  0  0  0  0  0  0  0
    3.0082   -1.2491    0.0000 C   0  0  0  0  0  0  0  0  0  0  0  0
    2.6940   -0.2997    0.0000 C   0  0  0  0  0  0  0  0  0  0  0  0
    3.2780    0.5133    0.0000 C   0  0  0  0  0  0  0  0  0  0  0  0
    2.6851    1.3196    0.0000 N   0  0  0  0  0  0  0  0  0  0  0  0
    1.7350    1.0052    0.0000 C   0  0  0  0  0  0  0  0  0  0  0  0
    1.7405    0.0044    0.0000 C   0  0  0  0  0  0  0  0  0  0  0  0
    0.8675   -0.4975    0.0000 C   0  0  0  0  0  0  0  0  0  0  0  0
    0.0000    0.0000    0.0000 C   0  0  0  0  0  0  0  0  0  0  0  0
   -0.0000    1.0052    0.0000 C   0  0  0  0  0  0  0  0  0  0  0  0
    0.8675    1.5129    0.0000 N   0  0  0  0  0  0  0  0  0  0  0  0
  1  2  1  0  0  0  0
  2  3  2  3  0  0  0
  3  4  1  0  0  0  0
  4  5  2  0  0  0  0
  4  6  1  0  0  0  0
  6  7  1  0  0  0  0
  7  8  1  0  0  0  0
  8  9  1  0  0  0  0
  9 13  1  0  0  0  0
  9 10  2  0  0  0  0
 10 11  1  0  0  0  0
 11 12  1  0  0  0  0
 12 17  2  0  0  0  0
 12 13  1  0  0  0  0
 13 14  2  0  0  0  0
 14 15  1  0  0  0  0
 15 16  2  0  0  0  0
 16 17  1  0  0  0  0
M  END
$$$$
s_512____2055224____15506628
  -OEChem-03222016482D

 21 22  0     0  0  0  0  0  0999 V2000
    1.7340    3.0138    0.0000 C   0  0  0  0  0  0  0  0  0  0  0  0
    0.8680    2.5138    0.0000 O   0  0  0  0  0  0  0  0  0  0  0  0
    0.8680    1.5138    0.0000 C   0  0  0  0  0  0  0  0  0  0  0  0
    0.0000    1.0058    0.0000 C   0  0  0  0  0  0  0  0  0  0  0  0
    0.0000    0.0000    0.0000 C   0  0  0  0  0  0  0  0  0  0  0  0
    0.8680   -0.4978    0.0000 C   0  0  0  0  0  0  0  0  0  0  0  0
    1.7360   -0.0012    0.0000 C   0  0  0  0  0  0  0  0  0  0  0  0
    1.7360    1.0058    0.0000 C   0  0  0  0  0  0  0  0  0  0  0  0
    2.6938    1.3169    0.0000 N   0  0  0  0  0  0  0  0  0  0  0  0
    3.2858    0.5023    0.0000 C   0  0  0  0  0  0  0  0  0  0  0  0
    2.6938   -0.3125    0.0000 C   0  0  0  0  0  0  0  0  0  0  0  0
    3.0028   -1.2636    0.0000 C   0  0  0  0  0  0  0  0  0  0  0  0
    3.9809   -1.4715    0.0000 C   0  0  0  0  0  0  0  0  0  0  0  0
    4.2899   -2.4226    0.0000 N   0  0  0  0  0  0  0  0  0  0  0  0
    5.2680   -2.6306    0.0000 C   0  0  0  0  0  0  0  0  0  0  0  0
    5.9372   -1.8874    0.0000 O   0  0  0  0  0  0  0  0  0  0  0  0
    5.5770   -3.5816    0.0000 N   0  0  0  0  0  0  0  0  0  0  0  0
    6.5551   -3.7896    0.0000 C   0  0  0  0  0  0  0  0  0  0  0  0
    6.8641   -4.7407    0.0000 C   0  0  0  0  0  0  0  0  0  0  0  0
    6.1949   -5.4838    0.0000 C   0  0  0  0  0  0  0  0  0  0  0  0
    7.8422   -4.9486    0.0000 Br  0  0  0  0  0  0  0  0  0  0  0  0
  1  2  1  0  0  0  0
  2  3  1  0  0  0  0
  3  8  2  0  0  0  0
  3  4  1  0  0  0  0
  4  5  2  0  0  0  0
  5  6  1  0  0  0  0
  6  7  2  0  0  0  0
  7 11  1  0  0  0  0
  7  8  1  0  0  0  0
  8  9  1  0  0  0  0
  9 10  1  0  0  0  0
 10 11  2  0  0  0  0
 11 12  1  0  0  0  0
 12 13  1  0  0  0  0
 13 14  1  0  0  0  0
 14 15  1  0  0  0  0
 15 16  2  0  0  0  0
 15 17  1  0  0  0  0
 17 18  1  0  0  0  0
 18 19  1  0  0  0  0
 19 20  2  0  0  0  0
 19 21  1  0  0  0  0
M  END
$$$$
s_270062____13771054____8147258
  -OEChem-03222016482D

 20 21  0     0  0  0  0  0  0999 V2000
   -3.4641   -0.0050    0.0000 C   0  0  0  0  0  0  0  0  0  0  0  0
   -2.5974   -0.5038    0.0000 C   0  0  0  0  0  0  0  0  0  0  0  0
   -1.7320   -0.0025    0.0000 C   0  0  0  0  0  0  0  0  0  0  0  0
   -0.8653   -0.5013    0.0000 O   0  0  0  0  0  0  0  0  0  0  0  0
    0.0000    0.0000    0.0000 C   0  0  0  0  0  0  0  0  0  0  0  0
   -0.0000    1.0058    0.0000 C   0  0  0  0  0  0  0  0  0  0  0  0
    0.8680    1.5138    0.0000 C   0  0  0  0  0  0  0  0  0  0  0  0
    1.7360    1.0058    0.0000 C   0  0  0  0  0  0  0  0  0  0  0  0
    1.7360   -0.0012    0.0000 C   0  0  0  0  0  0  0  0  0  0  0  0
    0.8680   -0.4978    0.0000 C   0  0  0  0  0  0  0  0  0  0  0  0
    2.6938   -0.3125    0.0000 C   0  0  0  0  0  0  0  0  0  0  0  0
    3.2858    0.5023    0.0000 C   0  0  0  0  0  0  0  0  0  0  0  0
    2.6938    1.3169    0.0000 N   0  0  0  0  0  0  0  0  0  0  0  0
    3.0028   -1.2636    0.0000 C   0  0  0  0  0  0  0  0  0  0  0  0
    3.9809   -1.4715    0.0000 C   0  0  0  0  0  0  0  0  0  0  0  0
    4.2899   -2.4226    0.0000 N   0  0  0  0  0  0  0  0  0  0  0  0
    5.2680   -2.6306    0.0000 C   0  0  0  0  0  0  0  0  0  0  0  0
    5.9372   -1.8874    0.0000 O   0  0  0  0  0  0  0  0  0  0  0  0
    5.5770   -3.5816    0.0000 C   0  0  0  0  0  0  0  0  0  0  0  0
    6.5551   -3.7896    0.0000 Cl  0  0  0  0  0  0  0  0  0  0  0  0
  1  2  1  0  0  0  0
  2  3  1  0  0  0  0
  3  4  1  0  0  0  0
  4  5  1  0  0  0  0
  5 10  2  0  0  0  0
  5  6  1  0  0  0  0
  6  7  2  0  0  0  0
  7  8  1  0  0  0  0
  8 13  1  0  0  0  0
  8  9  2  0  0  0  0
  9 10  1  0  0  0  0
  9 11  1  0  0  0  0
 11 12  2  0  0  0  0
 12 13  1  0  0  0  0
 11 14  1  0  0  0  0
 14 15  1  0  0  0  0
 15 16  1  0  0  0  0
 16 17  1  0  0  0  0
 17 18  2  0  0  0  0
 17 19  1  0  0  0  0
 19 20  1  0  0  0  0
M  END
$$$$
s_22____13025516____12103014
  -OEChem-03222016482D

 19 20  0     0  0  0  0  0  0999 V2000
    6.8641   -4.7407    0.0000 C   0  0  0  0  0  0  0  0  0  0  0  0
    6.5551   -3.7896    0.0000 C   0  0  0  0  0  0  0  0  0  0  0  0
    5.5770   -3.5816    0.0000 C   0  0  0  0  0  0  0  0  0  0  0  0
    5.2680   -2.6306    0.0000 C   0  0  0  0  0  0  0  0  0  0  0  0
    5.9372   -1.8874    0.0000 O   0  0  0  0  0  0  0  0  0  0  0  0
    4.2899   -2.4226    0.0000 N   0  0  0  0  0  0  0  0  0  0  0  0
    3.9809   -1.4715    0.0000 C   0  0  0  0  0  0  0  0  0  0  0  0
    3.0028   -1.2636    0.0000 C   0  0  0  0  0  0  0  0  0  0  0  0
    2.6938   -0.3125    0.0000 C   0  0  0  0  0  0  0  0  0  0  0  0
    3.2858    0.5023    0.0000 C   0  0  0  0  0  0  0  0  0  0  0  0
    2.6938    1.3169    0.0000 N   0  0  0  0  0  0  0  0  0  0  0  0
    1.7360    1.0058    0.0000 C   0  0  0  0  0  0  0  0  0  0  0  0
    1.7360   -0.0012    0.0000 C   0  0  0  0  0  0  0  0  0  0  0  0
    0.8680   -0.4978    0.0000 C   0  0  0  0  0  0  0  0  0  0  0  0
    0.0000    0.0000    0.0000 C   0  0  0  0  0  0  0  0  0  0  0  0
   -0.0000    1.0058    0.0000 C   0  0  0  0  0  0  0  0  0  0  0  0
    0.8680    1.5138    0.0000 C   0  0  0  0  0  0  0  0  0  0  0  0
    0.8675   -1.4978    0.0000 O   0  0  0  0  0  0  0  0  0  0  0  0
    1.7332   -1.9983    0.0000 C   0  0  0  0  0  0  0  0  0  0  0  0
  1  2  1  0  0  0  0
  2  3  2  3  0  0  0
  3  4  1  0  0  0  0
  4  5  2  0  0  0  0
  4  6  1  0  0  0  0
  6  7  1  0  0  0  0
  7  8  1  0  0  0  0
  8  9  1  0  0  0  0
  9 13  1  0  0  0  0
  9 10  2  0  0  0  0
 10 11  1  0  0  0  0
 11 12  1  0  0  0  0
 12 17  2  0  0  0  0
 12 13  1  0  0  0  0
 13 14  2  0  0  0  0
 14 15  1  0  0  0  0
 15 16  2  0  0  0  0
 16 17  1  0  0  0  0
 14 18  1  0  0  0  0
 18 19  1  0  0  0  0
M  END
$$$$
s_270062____16426272____8147258
  -OEChem-03222016482D

 18 19  0     1  0  0  0  0  0999 V2000
    4.7859   -0.3637    0.0000 C   0  0  0  0  0  0  0  0  0  0  0  0
    4.2858    0.5023    0.0000 C   0  0  3  0  0  0  0  0  0  0  0  0
    3.2858    0.5022    0.0000 C   0  0  0  0  0  0  0  0  0  0  0  0
    2.6938   -0.3126    0.0000 N   0  0  0  0  0  0  0  0  0  0  0  0
    1.7360   -0.0013    0.0000 C   0  0  0  0  0  0  0  0  0  0  0  0
    0.8680   -0.4979    0.0000 C   0  0  0  0  0  0  0  0  0  0  0  0
    0.0000    0.0000    0.0000 C   0  0  0  0  0  0  0  0  0  0  0  0
    0.0000    1.0058    0.0000 C   0  0  0  0  0  0  0  0  0  0  0  0
    0.8680    1.5137    0.0000 C   0  0  0  0  0  0  0  0  0  0  0  0
    1.7360    1.0058    0.0000 C   0  0  0  0  0  0  0  0  0  0  0  0
    2.6938    1.3168    0.0000 N   0  0  0  0  0  0  0  0  0  0  0  0
   -0.8675    1.5033    0.0000 O   0  0  0  0  0  0  0  0  0  0  0  0
   -1.7320    1.0008    0.0000 C   0  0  0  0  0  0  0  0  0  0  0  0
    4.7857    1.3683    0.0000 N   0  0  0  0  0  0  0  0  0  0  0  0
    5.7857    1.3684    0.0000 C   0  0  0  0  0  0  0  0  0  0  0  0
    6.2858    0.5024    0.0000 O   0  0  0  0  0  0  0  0  0  0  0  0
    6.2857    2.2344    0.0000 C   0  0  0  0  0  0  0  0  0  0  0  0
    7.2857    2.2345    0.0000 Cl  0  0  0  0  0  0  0  0  0  0  0  0
  1  2  1  0  0  0  0
  2  3  1  0  0  0  0
  3 11  2  0  0  0  0
  3  4  1  0  0  0  0
  4  5  1  0  0  0  0
  5 10  2  0  0  0  0
  5  6  1  0  0  0  0
  6  7  2  0  0  0  0
  7  8  1  0  0  0  0
  8  9  2  0  0  0  0
  9 10  1  0  0  0  0
 10 11  1  0  0  0  0
  8 12  1  0  0  0  0
 12 13  1  0  0  0  0
  2 14  1  0  0  0  0
 14 15  1  0  0  0  0
 15 16  2  0  0  0  0
 15 17  1  0  0  0  0
 17 18  1  0  0  0  0
M  END
$$$$
s_22____9156166____9296322
  -OEChem-03222016482D

 18 19  0     0  0  0  0  0  0999 V2000
    6.1949   -5.4838    0.0000 C   0  0  0  0  0  0  0  0  0  0  0  0
    5.8860   -4.5327    0.0000 C   0  0  0  0  0  0  0  0  0  0  0  0
    5.5770   -3.5816    0.0000 C   0  0  0  0  0  0  0  0  0  0  0  0
    5.2680   -2.6306    0.0000 C   0  0  0  0  0  0  0  0  0  0  0  0
    5.9372   -1.8874    0.0000 O   0  0  0  0  0  0  0  0  0  0  0  0
    4.2899   -2.4226    0.0000 N   0  0  0  0  0  0  0  0  0  0  0  0
    3.9809   -1.4715    0.0000 C   0  0  0  0  0  0  0  0  0  0  0  0
    3.0028   -1.2636    0.0000 C   0  0  0  0  0  0  0  0  0  0  0  0
    2.6938   -0.3125    0.0000 C   0  0  0  0  0  0  0  0  0  0  0  0
    3.2858    0.5023    0.0000 C   0  0  0  0  0  0  0  0  0  0  0  0
    2.6938    1.3169    0.0000 N   0  0  0  0  0  0  0  0  0  0  0  0
    1.7360    1.0058    0.0000 C   0  0  0  0  0  0  0  0  0  0  0  0
    1.7360   -0.0012    0.0000 C   0  0  0  0  0  0  0  0  0  0  0  0
    0.8680   -0.4978    0.0000 C   0  0  0  0  0  0  0  0  0  0  0  0
    0.0000    0.0000    0.0000 C   0  0  0  0  0  0  0  0  0  0  0  0
   -0.0000    1.0058    0.0000 C   0  0  0  0  0  0  0  0  0  0  0  0
    0.8680    1.5138    0.0000 C   0  0  0  0  0  0  0  0  0  0  0  0
   -0.8675    1.5032    0.0000 C   0  0  0  0  0  0  0  0  0  0  0  0
  1  2  1  0  0  0  0
  2  3  3  0  0  0  0
  3  4  1  0  0  0  0
  4  5  2  0  0  0  0
  4  6  1  0  0  0  0
  6  7  1  0  0  0  0
  7  8  1  0  0  0  0
  8  9  1  0  0  0  0
  9 13  1  0  0  0  0
  9 10  2  0  0  0  0
 10 11  1  0  0  0  0
 11 12  1  0  0  0  0
 12 17  2  0  0  0  0
 12 13  1  0  0  0  0
 13 14  2  0  0  0  0
 14 15  1  0  0  0  0
 15 16  2  0  0  0  0
 16 17  1  0  0  0  0
 16 18  1  0  0  0  0
M  END
$$$$
s_22____15144084____9296322
  -OEChem-03222016482D

 19 20  0     0  0  0  0  0  0999 V2000
    6.1949   -5.4838    0.0000 C   0  0  0  0  0  0  0  0  0  0  0  0
    5.8860   -4.5327    0.0000 C   0  0  0  0  0  0  0  0  0  0  0  0
    5.5770   -3.5816    0.0000 C   0  0  0  0  0  0  0  0  0  0  0  0
    5.2680   -2.6306    0.0000 C   0  0  0  0  0  0  0  0  0  0  0  0
    5.9372   -1.8874    0.0000 O   0  0  0  0  0  0  0  0  0  0  0  0
    4.2899   -2.4226    0.0000 N   0  0  0  0  0  0  0  0  0  0  0  0
    3.9809   -1.4715    0.0000 C   0  0  0  0  0  0  0  0  0  0  0  0
    3.0028   -1.2636    0.0000 C   0  0  0  0  0  0  0  0  0  0  0  0
    2.6938   -0.3125    0.0000 C   0  0  0  0  0  0  0  0  0  0  0  0
    3.2858    0.5023    0.0000 C   0  0  0  0  0  0  0  0  0  0  0  0
    2.6938    1.3169    0.0000 N   0  0  0  0  0  0  0  0  0  0  0  0
    1.7360    1.0058    0.0000 C   0  0  0  0  0  0  0  0  0  0  0  0
    1.7360   -0.0012    0.0000 C   0  0  0  0  0  0  0  0  0  0  0  0
    0.8680   -0.4978    0.0000 C   0  0  0  0  0  0  0  0  0  0  0  0
    0.0000    0.0000    0.0000 C   0  0  0  0  0  0  0  0  0  0  0  0
   -0.0000    1.0058    0.0000 C   0  0  0  0  0  0  0  0  0  0  0  0
    0.8680    1.5138    0.0000 C   0  0  0  0  0  0  0  0  0  0  0  0
   -0.8675    1.5032    0.0000 F   0  0  0  0  0  0  0  0  0  0  0  0
    0.8675   -1.4978    0.0000 F   0  0  0  0  0  0  0  0  0  0  0  0
  1  2  1  0  0  0  0
  2  3  3  0  0  0  0
  3  4  1  0  0  0  0
  4  5  2  0  0  0  0
  4  6  1  0  0  0  0
  6  7  1  0  0  0  0
  7  8  1  0  0  0  0
  8  9  1  0  0  0  0
  9 13  1  0  0  0  0
  9 10  2  0  0  0  0
 10 11  1  0  0  0  0
 11 12  1  0  0  0  0
 12 17  2  0  0  0  0
 12 13  1  0  0  0  0
 13 14  2  0  0  0  0
 14 15  1  0  0  0  0
 15 16  2  0  0  0  0
 16 17  1  0  0  0  0
 16 18  1  0  0  0  0
 14 19  1  0  0  0  0
M  END
$$$$
s_11a____14724372____53504
  -OEChem-03222016482D

 22 23  0     1  0  0  0  0  0999 V2000
    5.9884    0.7578    0.0000 C   0  0  0  0  0  0  0  0  0  0  0  0
    6.2974   -0.1933    0.0000 C   0  0  0  0  0  0  0  0  0  0  0  0
    5.6282   -0.9364    0.0000 C   0  0  0  0  0  0  0  0  0  0  0  0
    5.9372   -1.8874    0.0000 O   0  0  0  0  0  0  0  0  0  0  0  0
    4.6501   -0.7284    0.0000 N   0  0  0  0  0  0  0  0  0  0  0  0
    3.9809   -1.4715    0.0000 C   0  0  3  0  0  0  0  0  0  0  0  0
    3.0028   -1.2636    0.0000 C   0  0  0  0  0  0  0  0  0  0  0  0
    2.6938   -0.3125    0.0000 C   0  0  0  0  0  0  0  0  0  0  0  0
    3.2858    0.5023    0.0000 C   0  0  0  0  0  0  0  0  0  0  0  0
    2.6938    1.3169    0.0000 N   0  0  0  0  0  0  0  0  0  0  0  0
    1.7360    1.0058    0.0000 C   0  0  0  0  0  0  0  0  0  0  0  0
    1.7360   -0.0012    0.0000 C   0  0  0  0  0  0  0  0  0  0  0  0
    0.8680   -0.4978    0.0000 C   0  0  0  0  0  0  0  0  0  0  0  0
    0.0000    0.0000    0.0000 C   0  0  0  0  0  0  0  0  0  0  0  0
   -0.0000    1.0058    0.0000 C   0  0  0  0  0  0  0  0  0  0  0  0
    0.8680    1.5138    0.0000 C   0  0  0  0  0  0  0  0  0  0  0  0
   -0.8653   -0.5013    0.0000 O   0  0  0  0  0  0  0  0  0  0  0  0
   -0.8639   -1.5013    0.0000 C   0  0  0  0  0  0  0  0  0  0  0  0
    4.2899   -2.4226    0.0000 C   0  0  0  0  0  0  0  0  0  0  0  0
    5.2680   -2.6306    0.0000 O   0  0  0  0  0  0  0  0  0  0  0  0
    3.6207   -3.1657    0.0000 O   0  0  0  0  0  0  0  0  0  0  0  0
    3.9297   -4.1168    0.0000 C   0  0  0  0  0  0  0  0  0  0  0  0
  1  2  1  0  0  0  0
  2  3  1  0  0  0  0
  3  4  2  0  0  0  0
  3  5  1  0  0  0  0
  5  6  1  0  0  0  0
  6  7  1  0  0  0  0
  7  8  1  0  0  0  0
  8 12  1  0  0  0  0
  8  9  2  0  0  0  0
  9 10  1  0  0  0  0
 10 11  1  0  0  0  0
 11 16  2  0  0  0  0
 11 12  1  0  0  0  0
 12 13  2  0  0  0  0
 13 14  1  0  0  0  0
 14 15  2  0  0  0  0
 15 16  1  0  0  0  0
 14 17  1  0  0  0  0
 17 18  1  0  0  0  0
  6 19  1  0  0  0  0
 19 20  2  0  0  0  0
 19 21  1  0  0  0  0
 21 22  1  0  0  0  0
M  END
$$$$
s_275532____13829896____15269824
  -OEChem-03222016482D

 20 21  0     1  0  0  0  0  0999 V2000
    5.7860   -2.0956    0.0000 C   0  0  0  0  0  0  0  0  0  0  0  0
    6.2859   -1.2296    0.0000 C   0  0  3  0  0  0  0  0  0  0  0  0
    5.7859   -0.3636    0.0000 C   0  0  0  0  0  0  0  0  0  0  0  0
    4.7859   -0.3636    0.0000 N   0  3  3  0  0  0  0  0  0  0  0  0
    4.2859   -1.2297    0.0000 C   0  0  0  0  0  0  0  0  0  0  0  0
    4.2858    0.5024    0.0000 C   0  0  0  0  0  0  0  0  0  0  0  0
    3.2858    0.5023    0.0000 C   0  0  0  0  0  0  0  0  0  0  0  0
    2.6938   -0.3125    0.0000 C   0  0  0  0  0  0  0  0  0  0  0  0
    1.7360   -0.0012    0.0000 C   0  0  0  0  0  0  0  0  0  0  0  0
    1.7360    1.0058    0.0000 C   0  0  0  0  0  0  0  0  0  0  0  0
    2.6938    1.3169    0.0000 N   0  0  0  0  0  0  0  0  0  0  0  0
    0.8680    1.5138    0.0000 C   0  0  0  0  0  0  0  0  0  0  0  0
    0.0000    1.0058    0.0000 C   0  0  0  0  0  0  0  0  0  0  0  0
    0.0000    0.0000    0.0000 C   0  0  0  0  0  0  0  0  0  0  0  0
    0.8680   -0.4978    0.0000 C   0  0  0  0  0  0  0  0  0  0  0  0
    0.8675   -1.4978    0.0000 O   0  0  0  0  0  0  0  0  0  0  0  0
    1.7332   -1.9983    0.0000 C   0  0  0  0  0  0  0  0  0  0  0  0
    7.2859   -1.2295    0.0000 C   0  0  0  0  0  0  0  0  0  0  0  0
    7.7859   -0.3635    0.0000 O   0  0  0  0  0  0  0  0  0  0  0  0
    7.7860   -2.0955    0.0000 O   0  5  0  0  0  0  0  0  0  0  0  0
  1  2  1  0  0  0  0
  2  3  1  0  0  0  0
  3  4  1  0  0  0  0
  4  5  1  0  0  0  0
  4  6  1  0  0  0  0
  6  7  1  0  0  0  0
  7 11  1  0  0  0  0
  7  8  2  0  0  0  0
  8  9  1  0  0  0  0
  9 15  2  0  0  0  0
  9 10  1  0  0  0  0
 10 11  1  0  0  0  0
 10 12  2  0  0  0  0
 12 13  1  0  0  0  0
 13 14  2  0  0  0  0
 14 15  1  0  0  0  0
 15 16  1  0  0  0  0
 16 17  1  0  0  0  0
  2 18  1  0  0  0  0
 18 19  2  0  0  0  0
 18 20  1  0  0  0  0
M  CHG  2   4   1  20  -1
M  END
$$$$
s_272164____14971852____9374306
  -OEChem-03222016482D

 21 22  0     0  0  0  0  0  0999 V2000
    3.2605   -4.8599    0.0000 C   0  0  0  0  0  0  0  0  0  0  0  0
    2.2824   -4.6519    0.0000 N   0  0  0  0  0  0  0  0  0  0  0  0
    1.6132   -5.3951    0.0000 C   0  0  0  0  0  0  0  0  0  0  0  0
    1.9222   -6.3461    0.0000 C   0  0  0  0  0  0  0  0  0  0  0  0
    1.2530   -7.0892    0.0000 F   0  0  0  0  0  0  0  0  0  0  0  0
    1.9734   -3.7009    0.0000 C   0  0  0  0  0  0  0  0  0  0  0  0
    0.9953   -3.4929    0.0000 O   0  0  0  0  0  0  0  0  0  0  0  0
    2.6426   -2.9578    0.0000 N   0  0  0  0  0  0  0  0  0  0  0  0
    2.3336   -2.0067    0.0000 C   0  0  0  0  0  0  0  0  0  0  0  0
    3.0028   -1.2636    0.0000 C   0  0  0  0  0  0  0  0  0  0  0  0
    2.6938   -0.3125    0.0000 C   0  0  0  0  0  0  0  0  0  0  0  0
    3.2858    0.5023    0.0000 C   0  0  0  0  0  0  0  0  0  0  0  0
    2.6938    1.3169    0.0000 N   0  0  0  0  0  0  0  0  0  0  0  0
    1.7360    1.0058    0.0000 C   0  0  0  0  0  0  0  0  0  0  0  0
    1.7360   -0.0012    0.0000 C   0  0  0  0  0  0  0  0  0  0  0  0
    0.8680   -0.4978    0.0000 C   0  0  0  0  0  0  0  0  0  0  0  0
    0.0000    0.0000    0.0000 C   0  0  0  0  0  0  0  0  0  0  0  0
   -0.0000    1.0058    0.0000 C   0  0  0  0  0  0  0  0  0  0  0  0
    0.8680    1.5138    0.0000 C   0  0  0  0  0  0  0  0  0  0  0  0
   -0.8653   -0.5013    0.0000 O   0  0  0  0  0  0  0  0  0  0  0  0
   -0.8639   -1.5013    0.0000 C   0  0  0  0  0  0  0  0  0  0  0  0
  1  2  1  0  0  0  0
  2  3  1  0  0  0  0
  3  4  1  0  0  0  0
  4  5  1  0  0  0  0
  2  6  1  0  0  0  0
  6  7  2  0  0  0  0
  6  8  1  0  0  0  0
  8  9  1  0  0  0  0
  9 10  1  0  0  0  0
 10 11  1  0  0  0  0
 11 15  1  0  0  0  0
 11 12  2  0  0  0  0
 12 13  1  0  0  0  0
 13 14  1  0  0  0  0
 14 19  2  0  0  0  0
 14 15  1  0  0  0  0
 15 16  2  0  0  0  0
 16 17  1  0  0  0  0
 17 18  2  0  0  0  0
 18 19  1  0  0  0  0
 17 20  1  0  0  0  0
 20 21  1  0  0  0  0
M  END
$$$$
s_22____7533902____8794444
  -OEChem-03222016482D

 17 18  0     0  0  0  0  0  0999 V2000
    0.0000    0.0000    0.0000 C   0  0  0  0  0  0  0  0  0  0  0  0
   -0.0000    1.0058    0.0000 C   0  0  0  0  0  0  0  0  0  0  0  0
    0.8680    1.5138    0.0000 C   0  0  0  0  0  0  0  0  0  0  0  0
    1.7360    1.0058    0.0000 C   0  0  0  0  0  0  0  0  0  0  0  0
    1.7360   -0.0012    0.0000 C   0  0  0  0  0  0  0  0  0  0  0  0
    0.8680   -0.4978    0.0000 C   0  0  0  0  0  0  0  0  0  0  0  0
    2.6938   -0.3125    0.0000 C   0  0  0  0  0  0  0  0  0  0  0  0
    3.2858    0.5023    0.0000 C   0  0  0  0  0  0  0  0  0  0  0  0
    2.6938    1.3169    0.0000 N   0  0  0  0  0  0  0  0  0  0  0  0
    4.2858    0.5024    0.0000 C   0  0  0  0  0  0  0  0  0  0  0  0
    4.7857    1.3684    0.0000 C   0  0  0  0  0  0  0  0  0  0  0  0
    5.7857    1.3685    0.0000 N   0  0  0  0  0  0  0  0  0  0  0  0
    6.2857    2.2345    0.0000 C   0  0  0  0  0  0  0  0  0  0  0  0
    5.7856    3.1005    0.0000 O   0  0  0  0  0  0  0  0  0  0  0  0
    7.2857    2.2346    0.0000 C   0  0  0  0  0  0  0  0  0  0  0  0
    7.7856    3.1006    0.0000 C   0  0  0  0  0  0  0  0  0  0  0  0
    8.2856    3.9667    0.0000 N   0  0  0  0  0  0  0  0  0  0  0  0
  1  6  2  0  0  0  0
  1  2  1  0  0  0  0
  2  3  2  0  0  0  0
  3  4  1  0  0  0  0
  4  9  1  0  0  0  0
  4  5  2  0  0  0  0
  5  6  1  0  0  0  0
  5  7  1  0  0  0  0
  7  8  2  0  0  0  0
  8  9  1  0  0  0  0
  8 10  1  0  0  0  0
 10 11  1  0  0  0  0
 11 12  1  0  0  0  0
 12 13  1  0  0  0  0
 13 14  2  0  0  0  0
 13 15  1  0  0  0  0
 15 16  1  0  0  0  0
 16 17  3  0  0  0  0
M  END
$$$$
s_270062____14190640____8147258
  -OEChem-03222016482D

 19 20  0     1  0  0  0  0  0999 V2000
    1.3555   -1.7987    0.0000 C   0  0  0  0  0  0  0  0  0  0  0  0
    2.3336   -2.0067    0.0000 C   0  0  3  0  0  0  0  0  0  0  0  0
    3.0028   -1.2636    0.0000 C   0  0  0  0  0  0  0  0  0  0  0  0
    2.6938   -0.3125    0.0000 C   0  0  0  0  0  0  0  0  0  0  0  0
    3.2858    0.5023    0.0000 C   0  0  0  0  0  0  0  0  0  0  0  0
    2.6938    1.3169    0.0000 N   0  0  0  0  0  0  0  0  0  0  0  0
    1.7360    1.0058    0.0000 C   0  0  0  0  0  0  0  0  0  0  0  0
    1.7360   -0.0012    0.0000 C   0  0  0  0  0  0  0  0  0  0  0  0
    0.8680   -0.4978    0.0000 C   0  0  0  0  0  0  0  0  0  0  0  0
    0.0000    0.0000    0.0000 C   0  0  0  0  0  0  0  0  0  0  0  0
   -0.0000    1.0058    0.0000 C   0  0  0  0  0  0  0  0  0  0  0  0
    0.8680    1.5138    0.0000 C   0  0  0  0  0  0  0  0  0  0  0  0
   -0.8675    1.5032    0.0000 F   0  0  0  0  0  0  0  0  0  0  0  0
   -0.8653   -0.5013    0.0000 F   0  0  0  0  0  0  0  0  0  0  0  0
    2.6426   -2.9578    0.0000 N   0  0  0  0  0  0  0  0  0  0  0  0
    1.9734   -3.7009    0.0000 C   0  0  0  0  0  0  0  0  0  0  0  0
    0.9953   -3.4929    0.0000 O   0  0  0  0  0  0  0  0  0  0  0  0
    2.2824   -4.6519    0.0000 C   0  0  0  0  0  0  0  0  0  0  0  0
    1.6132   -5.3951    0.0000 Cl  0  0  0  0  0  0  0  0  0  0  0  0
  1  2  1  0  0  0  0
  2  3  1  0  0  0  0
  3  4  1  0  0  0  0
  4  8  1  0  0  0  0
  4  5  2  0  0  0  0
  5  6  1  0  0  0  0
  6  7  1  0  0  0  0
  7 12  2  0  0  0  0
  7  8  1  0  0  0  0
  8  9  2  0  0  0  0
  9 10  1  0  0  0  0
 10 11  2  0  0  0  0
 11 12  1  0  0  0  0
 11 13  1  0  0  0  0
 10 14  1  0  0  0  0
  2 15  1  0  0  0  0
 15 16  1  0  0  0  0
 16 17  2  0  0  0  0
 16 18  1  0  0  0  0
 18 19  1  0  0  0  0
M  END
$$$$
s_22____4839448____58887
  -OEChem-03222016482D

 18 19  0     0  0  0  0  0  0999 V2000
    1.6132   -5.3951    0.0000 C   0  0  0  0  0  0  0  0  0  0  0  0
    2.2824   -4.6519    0.0000 C   0  0  0  0  0  0  0  0  0  0  0  0
    1.9734   -3.7009    0.0000 C   0  0  0  0  0  0  0  0  0  0  0  0
    0.9953   -3.4929    0.0000 O   0  0  0  0  0  0  0  0  0  0  0  0
    2.6426   -2.9578    0.0000 N   0  0  0  0  0  0  0  0  0  0  0  0
    2.3336   -2.0067    0.0000 C   0  0  0  0  0  0  0  0  0  0  0  0
    3.0028   -1.2636    0.0000 C   0  0  0  0  0  0  0  0  0  0  0  0
    2.6938   -0.3125    0.0000 C   0  0  0  0  0  0  0  0  0  0  0  0
    3.2858    0.5023    0.0000 C   0  0  0  0  0  0  0  0  0  0  0  0
    2.6938    1.3169    0.0000 N   0  0  0  0  0  0  0  0  0  0  0  0
    1.7360    1.0058    0.0000 C   0  0  0  0  0  0  0  0  0  0  0  0
    1.7360   -0.0012    0.0000 C   0  0  0  0  0  0  0  0  0  0  0  0
    0.8680   -0.4978    0.0000 C   0  0  0  0  0  0  0  0  0  0  0  0
    0.0000    0.0000    0.0000 C   0  0  0  0  0  0  0  0  0  0  0  0
   -0.0000    1.0058    0.0000 C   0  0  0  0  0  0  0  0  0  0  0  0
    0.8680    1.5138    0.0000 C   0  0  0  0  0  0  0  0  0  0  0  0
   -0.8653   -0.5013    0.0000 O   0  0  0  0  0  0  0  0  0  0  0  0
   -0.8639   -1.5013    0.0000 C   0  0  0  0  0  0  0  0  0  0  0  0
  1  2  1  0  0  0  0
  2  3  1  0  0  0  0
  3  4  2  0  0  0  0
  3  5  1  0  0  0  0
  5  6  1  0  0  0  0
  6  7  1  0  0  0  0
  7  8  1  0  0  0  0
  8 12  1  0  0  0  0
  8  9  2  0  0  0  0
  9 10  1  0  0  0  0
 10 11  1  0  0  0  0
 11 16  2  0  0  0  0
 11 12  1  0  0  0  0
 12 13  2  0  0  0  0
 13 14  1  0  0  0  0
 14 15  2  0  0  0  0
 15 16  1  0  0  0  0
 14 17  1  0  0  0  0
 17 18  1  0  0  0  0
M  END
$$$$
s_22____9156166____60364
  -OEChem-03222016482D

 18 19  0     0  0  0  0  0  0999 V2000
   -0.8675    1.5032    0.0000 C   0  0  0  0  0  0  0  0  0  0  0  0
    0.0000    1.0058    0.0000 C   0  0  0  0  0  0  0  0  0  0  0  0
    0.0000    0.0000    0.0000 C   0  0  0  0  0  0  0  0  0  0  0  0
    0.8680   -0.4978    0.0000 C   0  0  0  0  0  0  0  0  0  0  0  0
    1.7360   -0.0012    0.0000 C   0  0  0  0  0  0  0  0  0  0  0  0
    1.7360    1.0058    0.0000 C   0  0  0  0  0  0  0  0  0  0  0  0
    0.8680    1.5138    0.0000 C   0  0  0  0  0  0  0  0  0  0  0  0
    2.6938    1.3169    0.0000 N   0  0  0  0  0  0  0  0  0  0  0  0
    3.2858    0.5023    0.0000 C   0  0  0  0  0  0  0  0  0  0  0  0
    2.6938   -0.3125    0.0000 C   0  0  0  0  0  0  0  0  0  0  0  0
    3.0028   -1.2636    0.0000 C   0  0  0  0  0  0  0  0  0  0  0  0
    3.9809   -1.4715    0.0000 C   0  0  0  0  0  0  0  0  0  0  0  0
    4.2899   -2.4226    0.0000 N   0  0  0  0  0  0  0  0  0  0  0  0
    5.2680   -2.6306    0.0000 C   0  0  0  0  0  0  0  0  0  0  0  0
    5.9372   -1.8874    0.0000 O   0  0  0  0  0  0  0  0  0  0  0  0
    5.5770   -3.5816    0.0000 C   0  0  0  0  0  0  0  0  0  0  0  0
    6.5551   -3.7896    0.0000 S   0  0  0  0  0  0  0  0  0  0  0  0
    6.8641   -4.7407    0.0000 C   0  0  0  0  0  0  0  0  0  0  0  0
  1  2  1  0  0  0  0
  2  7  2  0  0  0  0
  2  3  1  0  0  0  0
  3  4  2  0  0  0  0
  4  5  1  0  0  0  0
  5 10  1  0  0  0  0
  5  6  2  0  0  0  0
  6  7  1  0  0  0  0
  6  8  1  0  0  0  0
  8  9  1  0  0  0  0
  9 10  2  0  0  0  0
 10 11  1  0  0  0  0
 11 12  1  0  0  0  0
 12 13  1  0  0  0  0
 13 14  1  0  0  0  0
 14 15  2  0  0  0  0
 14 16  1  0  0  0  0
 16 17  1  0  0  0  0
 17 18  1  0  0  0  0
M  END
$$$$
s_240690b____12346500____3025698
  -OEChem-03222016482D

 17 18  0     0  0  0  0  0  0999 V2000
    0.0000    0.0000    0.0000 C   0  0  0  0  0  0  0  0  0  0  0  0
    0.8680   -0.4978    0.0000 C   0  0  0  0  0  0  0  0  0  0  0  0
    1.7360   -0.0012    0.0000 C   0  0  0  0  0  0  0  0  0  0  0  0
    2.6938   -0.3125    0.0000 C   0  0  0  0  0  0  0  0  0  0  0  0
    3.2858    0.5023    0.0000 C   0  0  0  0  0  0  0  0  0  0  0  0
    2.6938    1.3169    0.0000 N   0  0  0  0  0  0  0  0  0  0  0  0
    1.7360    1.0058    0.0000 C   0  0  0  0  0  0  0  0  0  0  0  0
    0.8680    1.5138    0.0000 C   0  0  0  0  0  0  0  0  0  0  0  0
    0.0000    1.0058    0.0000 C   0  0  0  0  0  0  0  0  0  0  0  0
    0.8680    2.5138    0.0000 Cl  0  0  0  0  0  0  0  0  0  0  0  0
    3.0028   -1.2636    0.0000 C   0  0  0  0  0  0  0  0  0  0  0  0
    3.9809   -1.4715    0.0000 C   0  0  0  0  0  0  0  0  0  0  0  0
    4.2899   -2.4226    0.0000 N   0  0  0  0  0  0  0  0  0  0  0  0
    5.2680   -2.6306    0.0000 C   0  0  0  0  0  0  0  0  0  0  0  0
    5.9372   -1.8874    0.0000 O   0  0  0  0  0  0  0  0  0  0  0  0
    5.5770   -3.5816    0.0000 C   0  0  0  0  0  0  0  0  0  0  0  0
    6.5551   -3.7896    0.0000 N   0  3  0  0  0  0  0  0  0  0  0  0
  1  9  2  0  0  0  0
  1  2  1  0  0  0  0
  2  3  2  0  0  0  0
  3  7  1  0  0  0  0
  3  4  1  0  0  0  0
  4  5  2  0  0  0  0
  5  6  1  0  0  0  0
  6  7  1  0  0  0  0
  7  8  2  0  0  0  0
  8  9  1  0  0  0  0
  8 10  1  0  0  0  0
  4 11  1  0  0  0  0
 11 12  1  0  0  0  0
 12 13  1  0  0  0  0
 13 14  1  0  0  0  0
 14 15  2  0  0  0  0
 14 16  1  0  0  0  0
 16 17  1  0  0  0  0
M  CHG  1  17   1
M  END
$$$$
s_22____2366540____58866
  -OEChem-03222016482D

 18 19  0     0  0  0  0  0  0999 V2000
    6.8641   -4.7407    0.0000 C   0  0  0  0  0  0  0  0  0  0  0  0
    6.5551   -3.7896    0.0000 C   0  0  0  0  0  0  0  0  0  0  0  0
    5.5770   -3.5816    0.0000 C   0  0  0  0  0  0  0  0  0  0  0  0
    5.2680   -2.6306    0.0000 C   0  0  0  0  0  0  0  0  0  0  0  0
    5.9372   -1.8874    0.0000 O   0  0  0  0  0  0  0  0  0  0  0  0
    4.2899   -2.4226    0.0000 N   0  0  0  0  0  0  0  0  0  0  0  0
    3.9809   -1.4715    0.0000 C   0  0  0  0  0  0  0  0  0  0  0  0
    3.0028   -1.2636    0.0000 C   0  0  0  0  0  0  0  0  0  0  0  0
    2.6938   -0.3125    0.0000 C   0  0  0  0  0  0  0  0  0  0  0  0
    3.2858    0.5023    0.0000 C   0  0  0  0  0  0  0  0  0  0  0  0
    2.6938    1.3169    0.0000 N   0  0  0  0  0  0  0  0  0  0  0  0
    1.7360    1.0058    0.0000 C   0  0  0  0  0  0  0  0  0  0  0  0
    1.7360   -0.0012    0.0000 C   0  0  0  0  0  0  0  0  0  0  0  0
    0.8680   -0.4978    0.0000 C   0  0  0  0  0  0  0  0  0  0  0  0
    0.0000    0.0000    0.0000 C   0  0  0  0  0  0  0  0  0  0  0  0
   -0.0000    1.0058    0.0000 C   0  0  0  0  0  0  0  0  0  0  0  0
    0.8680    1.5138    0.0000 C   0  0  0  0  0  0  0  0  0  0  0  0
   -0.8675    1.5032    0.0000 F   0  0  0  0  0  0  0  0  0  0  0  0
  1  2  1  0  0  0  0
  2  3  1  0  0  0  0
  3  4  1  0  0  0  0
  4  5  2  0  0  0  0
  4  6  1  0  0  0  0
  6  7  1  0  0  0  0
  7  8  1  0  0  0  0
  8  9  1  0  0  0  0
  9 13  1  0  0  0  0
  9 10  2  0  0  0  0
 10 11  1  0  0  0  0
 11 12  1  0  0  0  0
 12 17  2  0  0  0  0
 12 13  1  0  0  0  0
 13 14  2  0  0  0  0
 14 15  1  0  0  0  0
 15 16  2  0  0  0  0
 16 17  1  0  0  0  0
 16 18  1  0  0  0  0
M  END
$$$$
s_270062____15561916____15585492
  -OEChem-03222016482D

 18 19  0     0  0  0  0  0  0999 V2000
    1.3042   -4.4440    0.0000 C   0  0  0  0  0  0  0  0  0  0  0  0
    1.9734   -3.7009    0.0000 C   0  0  0  0  0  0  0  0  0  0  0  0
    2.9515   -3.9088    0.0000 O   0  0  0  0  0  0  0  0  0  0  0  0
    1.6644   -2.7498    0.0000 N   0  0  0  0  0  0  0  0  0  0  0  0
    2.3336   -2.0067    0.0000 C   0  0  0  0  0  0  0  0  0  0  0  0
    1.5905   -1.3375    0.0000 C   0  0  0  0  0  0  0  0  0  0  0  0
    3.0767   -2.6759    0.0000 C   0  0  0  0  0  0  0  0  0  0  0  0
    3.0028   -1.2636    0.0000 C   0  0  0  0  0  0  0  0  0  0  0  0
    2.6938   -0.3125    0.0000 C   0  0  0  0  0  0  0  0  0  0  0  0
    3.2858    0.5023    0.0000 C   0  0  0  0  0  0  0  0  0  0  0  0
    2.6938    1.3169    0.0000 N   0  0  0  0  0  0  0  0  0  0  0  0
    1.7360    1.0058    0.0000 C   0  0  0  0  0  0  0  0  0  0  0  0
    1.7360   -0.0012    0.0000 C   0  0  0  0  0  0  0  0  0  0  0  0
    0.8680   -0.4978    0.0000 C   0  0  0  0  0  0  0  0  0  0  0  0
    0.0000    0.0000    0.0000 C   0  0  0  0  0  0  0  0  0  0  0  0
   -0.0000    1.0058    0.0000 C   0  0  0  0  0  0  0  0  0  0  0  0
    0.8680    1.5138    0.0000 C   0  0  0  0  0  0  0  0  0  0  0  0
    0.8680    2.5138    0.0000 Br  0  0  0  0  0  0  0  0  0  0  0  0
  1  2  1  0  0  0  0
  2  3  2  0  0  0  0
  2  4  1  0  0  0  0
  4  5  1  0  0  0  0
  5  6  1  0  0  0  0
  5  7  1  0  0  0  0
  5  8  1  0  0  0  0
  8  9  1  0  0  0  0
  9 13  1  0  0  0  0
  9 10  2  0  0  0  0
 10 11  1  0  0  0  0
 11 12  1  0  0  0  0
 12 17  2  0  0  0  0
 12 13  1  0  0  0  0
 13 14  2  0  0  0  0
 14 15  1  0  0  0  0
 15 16  2  0  0  0  0
 16 17  1  0  0  0  0
 17 18  1  0  0  0  0
M  END
$$$$
s_22____13025516____15498218
  -OEChem-03222016482D

 21 22  0     0  0  0  0  0  0999 V2000
    0.0012   -1.9973    0.0000 C   0  0  0  0  0  0  0  0  0  0  0  0
    0.8675   -1.4978    0.0000 O   0  0  0  0  0  0  0  0  0  0  0  0
    0.8680   -0.4978    0.0000 C   0  0  0  0  0  0  0  0  0  0  0  0
    0.0000    0.0000    0.0000 C   0  0  0  0  0  0  0  0  0  0  0  0
   -0.0000    1.0058    0.0000 C   0  0  0  0  0  0  0  0  0  0  0  0
    0.8680    1.5138    0.0000 C   0  0  0  0  0  0  0  0  0  0  0  0
    1.7360    1.0058    0.0000 C   0  0  0  0  0  0  0  0  0  0  0  0
    1.7360   -0.0012    0.0000 C   0  0  0  0  0  0  0  0  0  0  0  0
    2.6938   -0.3125    0.0000 C   0  0  0  0  0  0  0  0  0  0  0  0
    3.2858    0.5023    0.0000 C   0  0  0  0  0  0  0  0  0  0  0  0
    2.6938    1.3169    0.0000 N   0  0  0  0  0  0  0  0  0  0  0  0
    3.0028   -1.2636    0.0000 C   0  0  0  0  0  0  0  0  0  0  0  0
    3.9809   -1.4715    0.0000 C   0  0  0  0  0  0  0  0  0  0  0  0
    4.2899   -2.4226    0.0000 N   0  0  0  0  0  0  0  0  0  0  0  0
    5.2680   -2.6306    0.0000 C   0  0  0  0  0  0  0  0  0  0  0  0
    5.9372   -1.8874    0.0000 O   0  0  0  0  0  0  0  0  0  0  0  0
    5.5770   -3.5816    0.0000 C   0  0  0  0  0  0  0  0  0  0  0  0
    6.5551   -3.7896    0.0000 O   0  0  0  0  0  0  0  0  0  0  0  0
    6.8641   -4.7407    0.0000 C   0  0  0  0  0  0  0  0  0  0  0  0
    7.8422   -4.9486    0.0000 C   0  0  0  0  0  0  0  0  0  0  0  0
    8.8204   -5.1566    0.0000 C   0  0  0  0  0  0  0  0  0  0  0  0
  1  2  1  0  0  0  0
  2  3  1  0  0  0  0
  3  8  2  0  0  0  0
  3  4  1  0  0  0  0
  4  5  2  0  0  0  0
  5  6  1  0  0  0  0
  6  7  2  0  0  0  0
  7 11  1  0  0  0  0
  7  8  1  0  0  0  0
  8  9  1  0  0  0  0
  9 10  2  0  0  0  0
 10 11  1  0  0  0  0
  9 12  1  0  0  0  0
 12 13  1  0  0  0  0
 13 14  1  0  0  0  0
 14 15  1  0  0  0  0
 15 16  2  0  0  0  0
 15 17  1  0  0  0  0
 17 18  1  0  0  0  0
 18 19  1  0  0  0  0
 19 20  1  0  0  0  0
 20 21  3  0  0  0  0
M  END
$$$$
s_240690b____13025580____7368602
  -OEChem-03222016482D

 20 21  0     1  0  0  0  0  0999 V2000
    7.2243   -3.0465    0.0000 C   0  0  0  0  0  0  0  0  0  0  0  0
    6.5551   -3.7896    0.0000 C   0  0  3  0  0  0  0  0  0  0  0  0
    5.5770   -3.5816    0.0000 C   0  0  0  0  0  0  0  0  0  0  0  0
    5.2680   -2.6306    0.0000 C   0  0  0  0  0  0  0  0  0  0  0  0
    5.9372   -1.8874    0.0000 O   0  0  0  0  0  0  0  0  0  0  0  0
    4.2899   -2.4226    0.0000 N   0  0  0  0  0  0  0  0  0  0  0  0
    3.9809   -1.4715    0.0000 C   0  0  0  0  0  0  0  0  0  0  0  0
    3.0028   -1.2636    0.0000 C   0  0  0  0  0  0  0  0  0  0  0  0
    2.6938   -0.3125    0.0000 C   0  0  0  0  0  0  0  0  0  0  0  0
    3.2858    0.5023    0.0000 C   0  0  0  0  0  0  0  0  0  0  0  0
    2.6938    1.3169    0.0000 N   0  0  0  0  0  0  0  0  0  0  0  0
    1.7360    1.0058    0.0000 C   0  0  0  0  0  0  0  0  0  0  0  0
    1.7360   -0.0012    0.0000 C   0  0  0  0  0  0  0  0  0  0  0  0
    0.8680   -0.4978    0.0000 C   0  0  0  0  0  0  0  0  0  0  0  0
    0.0000    0.0000    0.0000 C   0  0  0  0  0  0  0  0  0  0  0  0
   -0.0000    1.0058    0.0000 C   0  0  0  0  0  0  0  0  0  0  0  0
    0.8680    1.5138    0.0000 C   0  0  0  0  0  0  0  0  0  0  0  0
    0.8675   -1.4978    0.0000 O   0  0  0  0  0  0  0  0  0  0  0  0
    1.7332   -1.9983    0.0000 C   0  0  0  0  0  0  0  0  0  0  0  0
    6.8641   -4.7407    0.0000 N   0  3  0  0  0  0  0  0  0  0  0  0
  1  2  1  0  0  0  0
  2  3  1  0  0  0  0
  3  4  1  0  0  0  0
  4  5  2  0  0  0  0
  4  6  1  0  0  0  0
  6  7  1  0  0  0  0
  7  8  1  0  0  0  0
  8  9  1  0  0  0  0
  9 13  1  0  0  0  0
  9 10  2  0  0  0  0
 10 11  1  0  0  0  0
 11 12  1  0  0  0  0
 12 17  2  0  0  0  0
 12 13  1  0  0  0  0
 13 14  2  0  0  0  0
 14 15  1  0  0  0  0
 15 16  2  0  0  0  0
 16 17  1  0  0  0  0
 14 18  1  0  0  0  0
 18 19  1  0  0  0  0
  2 20  1  0  0  0  0
M  CHG  1  20   1
M  END
$$$$
s_270004____8294786____15269820
  -OEChem-03222016482D

 20 21  0     0  0  0  0  0  0999 V2000
    8.7860   -2.0955    0.0000 C   0  0  0  0  0  0  0  0  0  0  0  0
    7.7860   -2.0955    0.0000 N   0  0  0  0  0  0  0  0  0  0  0  0
    7.2860   -2.9616    0.0000 C   0  0  0  0  0  0  0  0  0  0  0  0
    7.2859   -1.2295    0.0000 C   0  0  0  0  0  0  0  0  0  0  0  0
    7.7859   -0.3635    0.0000 O   0  0  0  0  0  0  0  0  0  0  0  0
    6.2859   -1.2296    0.0000 C   0  0  0  0  0  0  0  0  0  0  0  0
    5.7859   -0.3636    0.0000 C   0  0  0  0  0  0  0  0  0  0  0  0
    4.7859   -0.3636    0.0000 N   0  3  0  0  0  0  0  0  0  0  0  0
    4.2858    0.5024    0.0000 C   0  0  0  0  0  0  0  0  0  0  0  0
    3.2858    0.5023    0.0000 C   0  0  0  0  0  0  0  0  0  0  0  0
    2.6938   -0.3125    0.0000 C   0  0  0  0  0  0  0  0  0  0  0  0
    1.7360   -0.0012    0.0000 C   0  0  0  0  0  0  0  0  0  0  0  0
    1.7360    1.0058    0.0000 C   0  0  0  0  0  0  0  0  0  0  0  0
    2.6938    1.3169    0.0000 N   0  0  0  0  0  0  0  0  0  0  0  0
    0.8680    1.5138    0.0000 C   0  0  0  0  0  0  0  0  0  0  0  0
    0.0000    1.0058    0.0000 C   0  0  0  0  0  0  0  0  0  0  0  0
    0.0000    0.0000    0.0000 C   0  0  0  0  0  0  0  0  0  0  0  0
    0.8680   -0.4978    0.0000 C   0  0  0  0  0  0  0  0  0  0  0  0
    0.8675   -1.4978    0.0000 O   0  0  0  0  0  0  0  0  0  0  0  0
    1.7332   -1.9983    0.0000 C   0  0  0  0  0  0  0  0  0  0  0  0
  1  2  1  0  0  0  0
  2  3  1  0  0  0  0
  2  4  1  0  0  0  0
  4  5  2  0  0  0  0
  4  6  1  0  0  0  0
  6  7  1  0  0  0  0
  7  8  1  0  0  0  0
  8  9  1  0  0  0  0
  9 10  1  0  0  0  0
 10 14  1  0  0  0  0
 10 11  2  0  0  0  0
 11 12  1  0  0  0  0
 12 18  2  0  0  0  0
 12 13  1  0  0  0  0
 13 14  1  0  0  0  0
 13 15  2  0  0  0  0
 15 16  1  0  0  0  0
 16 17  2  0  0  0  0
 17 18  1  0  0  0  0
 18 19  1  0  0  0  0
 19 20  1  0  0  0  0
M  CHG  1   8   1
M  END
$$$$
s_240690b____15506692____7368632
  -OEChem-03222016482D

 20 21  0     0  0  0  0  0  0999 V2000
    1.2530   -7.0892    0.0000 C   0  0  0  0  0  0  0  0  0  0  0  0
    1.9222   -6.3461    0.0000 C   0  0  0  0  0  0  0  0  0  0  0  0
    1.6132   -5.3951    0.0000 N   0  3  0  0  0  0  0  0  0  0  0  0
    2.2824   -4.6519    0.0000 C   0  0  0  0  0  0  0  0  0  0  0  0
    1.9734   -3.7009    0.0000 C   0  0  0  0  0  0  0  0  0  0  0  0
    0.9953   -3.4929    0.0000 O   0  0  0  0  0  0  0  0  0  0  0  0
    2.6426   -2.9578    0.0000 N   0  0  0  0  0  0  0  0  0  0  0  0
    2.3336   -2.0067    0.0000 C   0  0  0  0  0  0  0  0  0  0  0  0
    3.0028   -1.2636    0.0000 C   0  0  0  0  0  0  0  0  0  0  0  0
    2.6938   -0.3125    0.0000 C   0  0  0  0  0  0  0  0  0  0  0  0
    3.2858    0.5023    0.0000 C   0  0  0  0  0  0  0  0  0  0  0  0
    2.6938    1.3169    0.0000 N   0  0  0  0  0  0  0  0  0  0  0  0
    1.7360    1.0058    0.0000 C   0  0  0  0  0  0  0  0  0  0  0  0
    1.7360   -0.0012    0.0000 C   0  0  0  0  0  0  0  0  0  0  0  0
    0.8680   -0.4978    0.0000 C   0  0  0  0  0  0  0  0  0  0  0  0
    0.0000    0.0000    0.0000 C   0  0  0  0  0  0  0  0  0  0  0  0
   -0.0000    1.0058    0.0000 C   0  0  0  0  0  0  0  0  0  0  0  0
    0.8680    1.5138    0.0000 C   0  0  0  0  0  0  0  0  0  0  0  0
    0.8680    2.5138    0.0000 O   0  0  0  0  0  0  0  0  0  0  0  0
    0.0020    3.0138    0.0000 C   0  0  0  0  0  0  0  0  0  0  0  0
  1  2  1  0  0  0  0
  2  3  1  0  0  0  0
  3  4  1  0  0  0  0
  4  5  1  0  0  0  0
  5  6  2  0  0  0  0
  5  7  1  0  0  0  0
  7  8  1  0  0  0  0
  8  9  1  0  0  0  0
  9 10  1  0  0  0  0
 10 14  1  0  0  0  0
 10 11  2  0  0  0  0
 11 12  1  0  0  0  0
 12 13  1  0  0  0  0
 13 18  2  0  0  0  0
 13 14  1  0  0  0  0
 14 15  2  0  0  0  0
 15 16  1  0  0  0  0
 16 17  2  0  0  0  0
 17 18  1  0  0  0  0
 18 19  1  0  0  0  0
 19 20  1  0  0  0  0
M  CHG  1   3   1
M  END
$$$$
s_22____13978824____9477924
  -OEChem-03222016482D

 21 22  0     0  0  0  0  0  0999 V2000
    2.3563   -6.0642    0.0000 C   0  0  0  0  0  0  0  0  0  0  0  0
    1.6132   -5.3951    0.0000 C   0  0  0  0  0  0  0  0  0  0  0  0
    0.9440   -6.1382    0.0000 C   0  0  0  0  0  0  0  0  0  0  0  0
    2.2824   -4.6519    0.0000 C   0  0  0  0  0  0  0  0  0  0  0  0
    1.9734   -3.7009    0.0000 C   0  0  0  0  0  0  0  0  0  0  0  0
    0.9953   -3.4929    0.0000 O   0  0  0  0  0  0  0  0  0  0  0  0
    2.6426   -2.9578    0.0000 N   0  0  0  0  0  0  0  0  0  0  0  0
    2.3336   -2.0067    0.0000 C   0  0  0  0  0  0  0  0  0  0  0  0
    3.0028   -1.2636    0.0000 C   0  0  0  0  0  0  0  0  0  0  0  0
    2.6938   -0.3125    0.0000 C   0  0  0  0  0  0  0  0  0  0  0  0
    3.2858    0.5023    0.0000 C   0  0  0  0  0  0  0  0  0  0  0  0
    2.6938    1.3169    0.0000 N   0  0  0  0  0  0  0  0  0  0  0  0
    1.7360    1.0058    0.0000 C   0  0  0  0  0  0  0  0  0  0  0  0
    1.7360   -0.0012    0.0000 C   0  0  0  0  0  0  0  0  0  0  0  0
    0.8680   -0.4978    0.0000 C   0  0  0  0  0  0  0  0  0  0  0  0
    0.0000    0.0000    0.0000 C   0  0  0  0  0  0  0  0  0  0  0  0
   -0.0000    1.0058    0.0000 C   0  0  0  0  0  0  0  0  0  0  0  0
    0.8680    1.5138    0.0000 C   0  0  0  0  0  0  0  0  0  0  0  0
   -0.8675    1.5032    0.0000 O   0  0  0  0  0  0  0  0  0  0  0  0
   -1.7320    1.0007    0.0000 C   0  0  0  0  0  0  0  0  0  0  0  0
    0.8701   -4.7259    0.0000 O   0  0  0  0  0  0  0  0  0  0  0  0
  1  2  1  0  0  0  0
  2  3  1  0  0  0  0
  2  4  1  0  0  0  0
  4  5  1  0  0  0  0
  5  6  2  0  0  0  0
  5  7  1  0  0  0  0
  7  8  1  0  0  0  0
  8  9  1  0  0  0  0
  9 10  1  0  0  0  0
 10 14  1  0  0  0  0
 10 11  2  0  0  0  0
 11 12  1  0  0  0  0
 12 13  1  0  0  0  0
 13 18  2  0  0  0  0
 13 14  1  0  0  0  0
 14 15  2  0  0  0  0
 15 16  1  0  0  0  0
 16 17  2  0  0  0  0
 17 18  1  0  0  0  0
 17 19  1  0  0  0  0
 19 20  1  0  0  0  0
  2 21  1  0  0  0  0
M  END
$$$$
s_22____9226532____12053348
  -OEChem-03222016482D

 20 21  0     0  0  0  0  0  0999 V2000
    1.7327   -2.9983    0.0000 C   0  0  0  0  0  0  0  0  0  0  0  0
    1.7332   -1.9983    0.0000 C   0  0  0  0  0  0  0  0  0  0  0  0
    0.8675   -1.4978    0.0000 O   0  0  0  0  0  0  0  0  0  0  0  0
    0.8680   -0.4978    0.0000 C   0  0  0  0  0  0  0  0  0  0  0  0
    0.0000    0.0000    0.0000 C   0  0  0  0  0  0  0  0  0  0  0  0
   -0.0000    1.0058    0.0000 C   0  0  0  0  0  0  0  0  0  0  0  0
    0.8680    1.5138    0.0000 C   0  0  0  0  0  0  0  0  0  0  0  0
    1.7360    1.0058    0.0000 C   0  0  0  0  0  0  0  0  0  0  0  0
    1.7360   -0.0012    0.0000 C   0  0  0  0  0  0  0  0  0  0  0  0
    2.6938   -0.3125    0.0000 C   0  0  0  0  0  0  0  0  0  0  0  0
    3.2858    0.5023    0.0000 C   0  0  0  0  0  0  0  0  0  0  0  0
    2.6938    1.3169    0.0000 N   0  0  0  0  0  0  0  0  0  0  0  0
    3.0028   -1.2636    0.0000 C   0  0  0  0  0  0  0  0  0  0  0  0
    3.9809   -1.4715    0.0000 C   0  0  0  0  0  0  0  0  0  0  0  0
    4.2899   -2.4226    0.0000 N   0  0  0  0  0  0  0  0  0  0  0  0
    5.2680   -2.6306    0.0000 C   0  0  0  0  0  0  0  0  0  0  0  0
    5.9372   -1.8874    0.0000 O   0  0  0  0  0  0  0  0  0  0  0  0
    5.5770   -3.5816    0.0000 C   0  0  0  0  0  0  0  0  0  0  0  0
    4.9078   -4.3247    0.0000 O   0  0  0  0  0  0  0  0  0  0  0  0
    6.5551   -3.7896    0.0000 N   0  0  0  0  0  0  0  0  0  0  0  0
  1  2  1  0  0  0  0
  2  3  1  0  0  0  0
  3  4  1  0  0  0  0
  4  9  2  0  0  0  0
  4  5  1  0  0  0  0
  5  6  2  0  0  0  0
  6  7  1  0  0  0  0
  7  8  2  0  0  0  0
  8 12  1  0  0  0  0
  8  9  1  0  0  0  0
  9 10  1  0  0  0  0
 10 11  2  0  0  0  0
 11 12  1  0  0  0  0
 10 13  1  0  0  0  0
 13 14  1  0  0  0  0
 14 15  1  0  0  0  0
 15 16  1  0  0  0  0
 16 17  2  0  0  0  0
 16 18  1  0  0  0  0
 18 19  2  0  0  0  0
 18 20  1  0  0  0  0
M  END
$$$$
s_22____6079110____7941096
  -OEChem-03222016482D

 18 19  0     1  0  0  0  0  0999 V2000
    4.9078   -4.3247    0.0000 C   0  0  0  0  0  0  0  0  0  0  0  0
    5.5770   -3.5816    0.0000 C   0  0  3  0  0  0  0  0  0  0  0  0
    5.2680   -2.6306    0.0000 C   0  0  0  0  0  0  0  0  0  0  0  0
    5.9372   -1.8874    0.0000 O   0  0  0  0  0  0  0  0  0  0  0  0
    4.2899   -2.4226    0.0000 N   0  0  0  0  0  0  0  0  0  0  0  0
    3.9809   -1.4715    0.0000 C   0  0  0  0  0  0  0  0  0  0  0  0
    3.0028   -1.2636    0.0000 C   0  0  0  0  0  0  0  0  0  0  0  0
    2.6938   -0.3125    0.0000 C   0  0  0  0  0  0  0  0  0  0  0  0
    3.2858    0.5023    0.0000 C   0  0  0  0  0  0  0  0  0  0  0  0
    2.6938    1.3169    0.0000 N   0  0  0  0  0  0  0  0  0  0  0  0
    1.7360    1.0058    0.0000 C   0  0  0  0  0  0  0  0  0  0  0  0
    1.7360   -0.0012    0.0000 C   0  0  0  0  0  0  0  0  0  0  0  0
    0.8680   -0.4978    0.0000 C   0  0  0  0  0  0  0  0  0  0  0  0
    0.0000    0.0000    0.0000 C   0  0  0  0  0  0  0  0  0  0  0  0
   -0.0000    1.0058    0.0000 C   0  0  0  0  0  0  0  0  0  0  0  0
    0.8680    1.5138    0.0000 C   0  0  0  0  0  0  0  0  0  0  0  0
   -0.8653   -0.5013    0.0000 Cl  0  0  0  0  0  0  0  0  0  0  0  0
    6.5551   -3.7896    0.0000 O   0  0  0  0  0  0  0  0  0  0  0  0
  1  2  1  0  0  0  0
  2  3  1  0  0  0  0
  3  4  2  0  0  0  0
  3  5  1  0  0  0  0
  5  6  1  0  0  0  0
  6  7  1  0  0  0  0
  7  8  1  0  0  0  0
  8 12  1  0  0  0  0
  8  9  2  0  0  0  0
  9 10  1  0  0  0  0
 10 11  1  0  0  0  0
 11 16  2  0  0  0  0
 11 12  1  0  0  0  0
 12 13  2  0  0  0  0
 13 14  1  0  0  0  0
 14 15  2  0  0  0  0
 15 16  1  0  0  0  0
 14 17  1  0  0  0  0
  2 18  1  0  0  0  0
M  END
$$$$
s_22____15506616____2909590
  -OEChem-03222016482D

 20 21  0     0  0  0  0  0  0999 V2000
    1.2530   -7.0892    0.0000 C   0  0  0  0  0  0  0  0  0  0  0  0
    1.9222   -6.3461    0.0000 O   0  0  0  0  0  0  0  0  0  0  0  0
    1.6132   -5.3951    0.0000 C   0  0  0  0  0  0  0  0  0  0  0  0
    2.2824   -4.6519    0.0000 C   0  0  0  0  0  0  0  0  0  0  0  0
    1.9734   -3.7009    0.0000 C   0  0  0  0  0  0  0  0  0  0  0  0
    0.9953   -3.4929    0.0000 O   0  0  0  0  0  0  0  0  0  0  0  0
    2.6426   -2.9578    0.0000 N   0  0  0  0  0  0  0  0  0  0  0  0
    2.3336   -2.0067    0.0000 C   0  0  0  0  0  0  0  0  0  0  0  0
    3.0028   -1.2636    0.0000 C   0  0  0  0  0  0  0  0  0  0  0  0
    2.6938   -0.3125    0.0000 C   0  0  0  0  0  0  0  0  0  0  0  0
    3.2858    0.5023    0.0000 C   0  0  0  0  0  0  0  0  0  0  0  0
    2.6938    1.3169    0.0000 N   0  0  0  0  0  0  0  0  0  0  0  0
    1.7360    1.0058    0.0000 C   0  0  0  0  0  0  0  0  0  0  0  0
    1.7360   -0.0012    0.0000 C   0  0  0  0  0  0  0  0  0  0  0  0
    0.8680   -0.4978    0.0000 C   0  0  0  0  0  0  0  0  0  0  0  0
    0.0000    0.0000    0.0000 C   0  0  0  0  0  0  0  0  0  0  0  0
   -0.0000    1.0058    0.0000 C   0  0  0  0  0  0  0  0  0  0  0  0
    0.8680    1.5138    0.0000 C   0  0  0  0  0  0  0  0  0  0  0  0
    0.8680    2.5138    0.0000 O   0  0  0  0  0  0  0  0  0  0  0  0
    0.0020    3.0138    0.0000 C   0  0  0  0  0  0  0  0  0  0  0  0
  1  2  1  0  0  0  0
  2  3  1  0  0  0  0
  3  4  1  0  0  0  0
  4  5  1  0  0  0  0
  5  6  2  0  0  0  0
  5  7  1  0  0  0  0
  7  8  1  0  0  0  0
  8  9  1  0  0  0  0
  9 10  1  0  0  0  0
 10 14  1  0  0  0  0
 10 11  2  0  0  0  0
 11 12  1  0  0  0  0
 12 13  1  0  0  0  0
 13 18  2  0  0  0  0
 13 14  1  0  0  0  0
 14 15  2  0  0  0  0
 15 16  1  0  0  0  0
 16 17  2  0  0  0  0
 17 18  1  0  0  0  0
 18 19  1  0  0  0  0
 19 20  1  0  0  0  0
M  END
$$$$
s_512____214540____15506628
  -OEChem-03222016482D

 20 21  0     0  0  0  0  0  0999 V2000
    1.2530   -7.0892    0.0000 C   0  0  0  0  0  0  0  0  0  0  0  0
    1.9222   -6.3461    0.0000 C   0  0  0  0  0  0  0  0  0  0  0  0
    1.6132   -5.3951    0.0000 C   0  0  0  0  0  0  0  0  0  0  0  0
    2.2824   -4.6519    0.0000 N   0  0  0  0  0  0  0  0  0  0  0  0
    1.9734   -3.7009    0.0000 C   0  0  0  0  0  0  0  0  0  0  0  0
    0.9953   -3.4929    0.0000 O   0  0  0  0  0  0  0  0  0  0  0  0
    2.6426   -2.9578    0.0000 N   0  0  0  0  0  0  0  0  0  0  0  0
    2.3336   -2.0067    0.0000 C   0  0  0  0  0  0  0  0  0  0  0  0
    3.0028   -1.2636    0.0000 C   0  0  0  0  0  0  0  0  0  0  0  0
    2.6938   -0.3125    0.0000 C   0  0  0  0  0  0  0  0  0  0  0  0
    3.2858    0.5023    0.0000 C   0  0  0  0  0  0  0  0  0  0  0  0
    2.6938    1.3169    0.0000 N   0  0  0  0  0  0  0  0  0  0  0  0
    1.7360    1.0058    0.0000 C   0  0  0  0  0  0  0  0  0  0  0  0
    1.7360   -0.0012    0.0000 C   0  0  0  0  0  0  0  0  0  0  0  0
    0.8680   -0.4978    0.0000 C   0  0  0  0  0  0  0  0  0  0  0  0
    0.0000    0.0000    0.0000 C   0  0  0  0  0  0  0  0  0  0  0  0
   -0.0000    1.0058    0.0000 C   0  0  0  0  0  0  0  0  0  0  0  0
    0.8680    1.5138    0.0000 C   0  0  0  0  0  0  0  0  0  0  0  0
    0.8680    2.5138    0.0000 O   0  0  0  0  0  0  0  0  0  0  0  0
    0.0020    3.0138    0.0000 C   0  0  0  0  0  0  0  0  0  0  0  0
  1  2  1  0  0  0  0
  2  3  1  0  0  0  0
  3  4  1  0  0  0  0
  4  5  1  0  0  0  0
  5  6  2  0  0  0  0
  5  7  1  0  0  0  0
  7  8  1  0  0  0  0
  8  9  1  0  0  0  0
  9 10  1  0  0  0  0
 10 14  1  0  0  0  0
 10 11  2  0  0  0  0
 11 12  1  0  0  0  0
 12 13  1  0  0  0  0
 13 18  2  0  0  0  0
 13 14  1  0  0  0  0
 14 15  2  0  0  0  0
 15 16  1  0  0  0  0
 16 17  2  0  0  0  0
 17 18  1  0  0  0  0
 18 19  1  0  0  0  0
 19 20  1  0  0  0  0
M  END
$$$$
s_527a____12637914____156120
  -OEChem-03222016482D

 19 20  0     0  0  0  0  0  0999 V2000
    5.8860   -4.5327    0.0000 C   0  0  0  0  0  0  0  0  0  0  0  0
    5.5770   -3.5816    0.0000 C   0  0  0  0  0  0  0  0  0  0  0  0
    4.5989   -3.3737    0.0000 C   0  0  0  0  0  0  0  0  0  0  0  0
    3.9297   -4.1168    0.0000 O   0  0  0  0  0  0  0  0  0  0  0  0
    4.2899   -2.4226    0.0000 N   0  0  0  0  0  0  0  0  0  0  0  0
    3.3117   -2.2146    0.0000 C   0  0  0  0  0  0  0  0  0  0  0  0
    3.0028   -1.2636    0.0000 C   0  0  0  0  0  0  0  0  0  0  0  0
    2.0517   -1.5725    0.0000 C   0  0  0  0  0  0  0  0  0  0  0  0
    3.9538   -0.9546    0.0000 C   0  0  0  0  0  0  0  0  0  0  0  0
    2.6938   -0.3125    0.0000 C   0  0  0  0  0  0  0  0  0  0  0  0
    3.2858    0.5023    0.0000 C   0  0  0  0  0  0  0  0  0  0  0  0
    2.6938    1.3169    0.0000 N   0  0  0  0  0  0  0  0  0  0  0  0
    1.7360    1.0058    0.0000 C   0  0  0  0  0  0  0  0  0  0  0  0
    1.7360   -0.0012    0.0000 C   0  0  0  0  0  0  0  0  0  0  0  0
    0.8680   -0.4978    0.0000 C   0  0  0  0  0  0  0  0  0  0  0  0
    0.0000    0.0000    0.0000 C   0  0  0  0  0  0  0  0  0  0  0  0
   -0.0000    1.0058    0.0000 C   0  0  0  0  0  0  0  0  0  0  0  0
    0.8680    1.5138    0.0000 C   0  0  0  0  0  0  0  0  0  0  0  0
   -0.8675    1.5032    0.0000 F   0  0  0  0  0  0  0  0  0  0  0  0
  1  2  1  0  0  0  0
  2  3  1  0  0  0  0
  3  4  2  0  0  0  0
  3  5  1  0  0  0  0
  5  6  1  0  0  0  0
  6  7  1  0  0  0  0
  7  8  1  0  0  0  0
  7  9  1  0  0  0  0
  7 10  1  0  0  0  0
 10 14  1  0  0  0  0
 10 11  2  0  0  0  0
 11 12  1  0  0  0  0
 12 13  1  0  0  0  0
 13 18  2  0  0  0  0
 13 14  1  0  0  0  0
 14 15  2  0  0  0  0
 15 16  1  0  0  0  0
 16 17  2  0  0  0  0
 17 18  1  0  0  0  0
 17 19  1  0  0  0  0
M  END
$$$$
s_22____13978824____592954
  -OEChem-03222016482D

 20 22  0     0  0  0  0  0  0999 V2000
   -0.8705    2.5032    0.0000 C   0  0  0  0  0  0  0  0  0  0  0  0
   -0.8675    1.5032    0.0000 O   0  0  0  0  0  0  0  0  0  0  0  0
    0.0000    1.0058    0.0000 C   0  0  0  0  0  0  0  0  0  0  0  0
    0.0000    0.0000    0.0000 C   0  0  0  0  0  0  0  0  0  0  0  0
    0.8680   -0.4978    0.0000 C   0  0  0  0  0  0  0  0  0  0  0  0
    1.7360   -0.0012    0.0000 C   0  0  0  0  0  0  0  0  0  0  0  0
    1.7360    1.0058    0.0000 C   0  0  0  0  0  0  0  0  0  0  0  0
    0.8680    1.5138    0.0000 C   0  0  0  0  0  0  0  0  0  0  0  0
    2.6938    1.3169    0.0000 N   0  0  0  0  0  0  0  0  0  0  0  0
    3.2858    0.5023    0.0000 C   0  0  0  0  0  0  0  0  0  0  0  0
    2.6938   -0.3125    0.0000 C   0  0  0  0  0  0  0  0  0  0  0  0
    3.0028   -1.2636    0.0000 C   0  0  0  0  0  0  0  0  0  0  0  0
    3.9809   -1.4715    0.0000 C   0  0  0  0  0  0  0  0  0  0  0  0
    4.2899   -2.4226    0.0000 N   0  0  0  0  0  0  0  0  0  0  0  0
    5.2680   -2.6306    0.0000 C   0  0  0  0  0  0  0  0  0  0  0  0
    5.9372   -1.8874    0.0000 O   0  0  0  0  0  0  0  0  0  0  0  0
    5.5770   -3.5816    0.0000 C   0  0  0  0  0  0  0  0  0  0  0  0
    6.5551   -3.7896    0.0000 C   0  0  0  0  0  0  0  0  0  0  0  0
    7.3004   -4.4592    0.0000 C   0  0  0  0  0  0  0  0  0  0  0  0
    7.5083   -3.4811    0.0000 C   0  0  0  0  0  0  0  0  0  0  0  0
  1  2  1  0  0  0  0
  2  3  1  0  0  0  0
  3  8  2  0  0  0  0
  3  4  1  0  0  0  0
  4  5  2  0  0  0  0
  5  6  1  0  0  0  0
  6 11  1  0  0  0  0
  6  7  2  0  0  0  0
  7  8  1  0  0  0  0
  7  9  1  0  0  0  0
  9 10  1  0  0  0  0
 10 11  2  0  0  0  0
 11 12  1  0  0  0  0
 12 13  1  0  0  0  0
 13 14  1  0  0  0  0
 14 15  1  0  0  0  0
 15 16  2  0  0  0  0
 15 17  1  0  0  0  0
 17 18  1  0  0  0  0
 18 20  1  0  0  0  0
 18 19  1  0  0  0  0
 19 20  1  0  0  0  0
M  END
$$$$
s_273270____16362954____10884640
  -OEChem-03222016482D

 18 19  0     0  0  0  0  0  0999 V2000
   -1.7320   -0.0025    0.0000 C   0  0  0  0  0  0  0  0  0  0  0  0
   -0.8653   -0.5013    0.0000 O   0  0  0  0  0  0  0  0  0  0  0  0
    0.0000    0.0000    0.0000 C   0  0  0  0  0  0  0  0  0  0  0  0
   -0.0000    1.0058    0.0000 C   0  0  0  0  0  0  0  0  0  0  0  0
    0.8680    1.5138    0.0000 C   0  0  0  0  0  0  0  0  0  0  0  0
    1.7360    1.0058    0.0000 C   0  0  0  0  0  0  0  0  0  0  0  0
    1.7360   -0.0012    0.0000 C   0  0  0  0  0  0  0  0  0  0  0  0
    0.8680   -0.4978    0.0000 C   0  0  0  0  0  0  0  0  0  0  0  0
    2.6938   -0.3125    0.0000 C   0  0  0  0  0  0  0  0  0  0  0  0
    3.2858    0.5023    0.0000 C   0  0  0  0  0  0  0  0  0  0  0  0
    2.6938    1.3169    0.0000 N   0  0  0  0  0  0  0  0  0  0  0  0
    3.0028   -1.2636    0.0000 C   0  0  0  0  0  0  0  0  0  0  0  0
    3.9809   -1.4715    0.0000 C   0  0  0  0  0  0  0  0  0  0  0  0
    4.2899   -2.4226    0.0000 N   0  0  0  0  0  0  0  0  0  0  0  0
    5.2680   -2.6306    0.0000 C   0  0  0  0  0  0  0  0  0  0  0  0
    5.9372   -1.8874    0.0000 O   0  0  0  0  0  0  0  0  0  0  0  0
    5.5770   -3.5816    0.0000 C   0  0  0  0  0  0  0  0  0  0  0  0
    6.5551   -3.7896    0.0000 C   0  0  0  0  0  0  0  0  0  0  0  0
  1  2  1  0  0  0  0
  2  3  1  0  0  0  0
  3  8  2  0  0  0  0
  3  4  1  0  0  0  0
  4  5  2  0  0  0  0
  5  6  1  0  0  0  0
  6 11  1  0  0  0  0
  6  7  2  0  0  0  0
  7  8  1  0  0  0  0
  7  9  1  0  0  0  0
  9 10  2  0  0  0  0
 10 11  1  0  0  0  0
  9 12  1  0  0  0  0
 12 13  1  0  0  0  0
 13 14  1  0  0  0  0
 14 15  1  0  0  0  0
 15 16  2  0  0  0  0
 15 17  1  0  0  0  0
 17 18  2  0  0  0  0
M  END
$$$$
s_240690b____13025580____3025698
  -OEChem-03222016482D

 18 19  0     0  0  0  0  0  0999 V2000
    0.0012   -1.9973    0.0000 C   0  0  0  0  0  0  0  0  0  0  0  0
    0.8675   -1.4978    0.0000 O   0  0  0  0  0  0  0  0  0  0  0  0
    0.8680   -0.4978    0.0000 C   0  0  0  0  0  0  0  0  0  0  0  0
    0.0000    0.0000    0.0000 C   0  0  0  0  0  0  0  0  0  0  0  0
   -0.0000    1.0058    0.0000 C   0  0  0  0  0  0  0  0  0  0  0  0
    0.8680    1.5138    0.0000 C   0  0  0  0  0  0  0  0  0  0  0  0
    1.7360    1.0058    0.0000 C   0  0  0  0  0  0  0  0  0  0  0  0
    1.7360   -0.0012    0.0000 C   0  0  0  0  0  0  0  0  0  0  0  0
    2.6938   -0.3125    0.0000 C   0  0  0  0  0  0  0  0  0  0  0  0
    3.2858    0.5023    0.0000 C   0  0  0  0  0  0  0  0  0  0  0  0
    2.6938    1.3169    0.0000 N   0  0  0  0  0  0  0  0  0  0  0  0
    3.0028   -1.2636    0.0000 C   0  0  0  0  0  0  0  0  0  0  0  0
    3.9809   -1.4715    0.0000 C   0  0  0  0  0  0  0  0  0  0  0  0
    4.2899   -2.4226    0.0000 N   0  0  0  0  0  0  0  0  0  0  0  0
    5.2680   -2.6306    0.0000 C   0  0  0  0  0  0  0  0  0  0  0  0
    5.9372   -1.8874    0.0000 O   0  0  0  0  0  0  0  0  0  0  0  0
    5.5770   -3.5816    0.0000 C   0  0  0  0  0  0  0  0  0  0  0  0
    6.5551   -3.7896    0.0000 N   0  3  0  0  0  0  0  0  0  0  0  0
  1  2  1  0  0  0  0
  2  3  1  0  0  0  0
  3  8  2  0  0  0  0
  3  4  1  0  0  0  0
  4  5  2  0  0  0  0
  5  6  1  0  0  0  0
  6  7  2  0  0  0  0
  7 11  1  0  0  0  0
  7  8  1  0  0  0  0
  8  9  1  0  0  0  0
  9 10  2  0  0  0  0
 10 11  1  0  0  0  0
  9 12  1  0  0  0  0
 12 13  1  0  0  0  0
 13 14  1  0  0  0  0
 14 15  1  0  0  0  0
 15 16  2  0  0  0  0
 15 17  1  0  0  0  0
 17 18  1  0  0  0  0
M  CHG  1  18   1
M  END
$$$$
s_240690b____11689208____7368582
  -OEChem-03222016482D

 17 18  0     0  0  0  0  0  0999 V2000
    8.7856    3.1007    0.0000 C   0  0  0  0  0  0  0  0  0  0  0  0
    7.7856    3.1006    0.0000 N   0  3  0  0  0  0  0  0  0  0  0  0
    7.2857    2.2346    0.0000 C   0  0  0  0  0  0  0  0  0  0  0  0
    6.2857    2.2345    0.0000 C   0  0  0  0  0  0  0  0  0  0  0  0
    5.7856    3.1005    0.0000 O   0  0  0  0  0  0  0  0  0  0  0  0
    5.7857    1.3685    0.0000 N   0  0  0  0  0  0  0  0  0  0  0  0
    4.7857    1.3684    0.0000 C   0  0  0  0  0  0  0  0  0  0  0  0
    4.2858    0.5024    0.0000 C   0  0  0  0  0  0  0  0  0  0  0  0
    3.2858    0.5023    0.0000 C   0  0  0  0  0  0  0  0  0  0  0  0
    2.6938   -0.3125    0.0000 C   0  0  0  0  0  0  0  0  0  0  0  0
    1.7360   -0.0012    0.0000 C   0  0  0  0  0  0  0  0  0  0  0  0
    0.8680   -0.4978    0.0000 C   0  0  0  0  0  0  0  0  0  0  0  0
    0.0000    0.0000    0.0000 C   0  0  0  0  0  0  0  0  0  0  0  0
    0.0000    1.0058    0.0000 C   0  0  0  0  0  0  0  0  0  0  0  0
    0.8680    1.5138    0.0000 C   0  0  0  0  0  0  0  0  0  0  0  0
    1.7360    1.0058    0.0000 C   0  0  0  0  0  0  0  0  0  0  0  0
    2.6938    1.3169    0.0000 N   0  0  0  0  0  0  0  0  0  0  0  0
  1  2  1  0  0  0  0
  2  3  1  0  0  0  0
  3  4  1  0  0  0  0
  4  5  2  0  0  0  0
  4  6  1  0  0  0  0
  6  7  1  0  0  0  0
  7  8  1  0  0  0  0
  8  9  1  0  0  0  0
  9 17  1  0  0  0  0
  9 10  2  0  0  0  0
 10 11  1  0  0  0  0
 11 16  2  0  0  0  0
 11 12  1  0  0  0  0
 12 13  2  0  0  0  0
 13 14  1  0  0  0  0
 14 15  2  0  0  0  0
 15 16  1  0  0  0  0
 16 17  1  0  0  0  0
M  CHG  1   2   1
M  END
$$$$
s_270004____9315696____15269820
  -OEChem-03222016482D

 19 20  0     1  0  0  0  0  0999 V2000
    6.2858    0.5025    0.0000 C   0  0  0  0  0  0  0  0  0  0  0  0
    5.7859   -0.3636    0.0000 C   0  0  3  0  0  0  0  0  0  0  0  0
    6.2859   -1.2296    0.0000 C   0  0  0  0  0  0  0  0  0  0  0  0
    5.7860   -2.0956    0.0000 O   0  0  0  0  0  0  0  0  0  0  0  0
    7.2859   -1.2295    0.0000 O   0  0  0  0  0  0  0  0  0  0  0  0
    7.7860   -2.0955    0.0000 C   0  0  0  0  0  0  0  0  0  0  0  0
    4.7859   -0.3636    0.0000 N   0  3  0  0  0  0  0  0  0  0  0  0
    4.2858    0.5024    0.0000 C   0  0  0  0  0  0  0  0  0  0  0  0
    3.2858    0.5023    0.0000 C   0  0  0  0  0  0  0  0  0  0  0  0
    2.6938   -0.3125    0.0000 C   0  0  0  0  0  0  0  0  0  0  0  0
    1.7360   -0.0012    0.0000 C   0  0  0  0  0  0  0  0  0  0  0  0
    1.7360    1.0058    0.0000 C   0  0  0  0  0  0  0  0  0  0  0  0
    2.6938    1.3169    0.0000 N   0  0  0  0  0  0  0  0  0  0  0  0
    0.8680    1.5138    0.0000 C   0  0  0  0  0  0  0  0  0  0  0  0
    0.0000    1.0058    0.0000 C   0  0  0  0  0  0  0  0  0  0  0  0
    0.0000    0.0000    0.0000 C   0  0  0  0  0  0  0  0  0  0  0  0
    0.8680   -0.4978    0.0000 C   0  0  0  0  0  0  0  0  0  0  0  0
    0.8675   -1.4978    0.0000 O   0  0  0  0  0  0  0  0  0  0  0  0
    1.7332   -1.9983    0.0000 C   0  0  0  0  0  0  0  0  0  0  0  0
  1  2  1  0  0  0  0
  2  3  1  0  0  0  0
  3  4  2  0  0  0  0
  3  5  1  0  0  0  0
  5  6  1  0  0  0  0
  2  7  1  0  0  0  0
  7  8  1  0  0  0  0
  8  9  1  0  0  0  0
  9 13  1  0  0  0  0
  9 10  2  0  0  0  0
 10 11  1  0  0  0  0
 11 17  2  0  0  0  0
 11 12  1  0  0  0  0
 12 13  1  0  0  0  0
 12 14  2  0  0  0  0
 14 15  1  0  0  0  0
 15 16  2  0  0  0  0
 16 17  1  0  0  0  0
 17 18  1  0  0  0  0
 18 19  1  0  0  0  0
M  CHG  1   7   1
M  END
$$$$
s_2708____13978848____8739002
  -OEChem-03222016482D

 20 21  0     0  0  0  0  0  0999 V2000
    4.9078   -4.3247    0.0000 C   0  0  0  0  0  0  0  0  0  0  0  0
    5.5770   -3.5816    0.0000 N   0  0  0  0  0  0  0  0  0  0  0  0
    5.2680   -2.6306    0.0000 C   0  0  0  0  0  0  0  0  0  0  0  0
    5.9372   -1.8874    0.0000 O   0  0  0  0  0  0  0  0  0  0  0  0
    4.2899   -2.4226    0.0000 N   0  0  0  0  0  0  0  0  0  0  0  0
    3.9809   -1.4715    0.0000 C   0  0  0  0  0  0  0  0  0  0  0  0
    3.0028   -1.2636    0.0000 C   0  0  0  0  0  0  0  0  0  0  0  0
    2.6938   -0.3125    0.0000 C   0  0  0  0  0  0  0  0  0  0  0  0
    3.2858    0.5023    0.0000 C   0  0  0  0  0  0  0  0  0  0  0  0
    2.6938    1.3169    0.0000 N   0  0  0  0  0  0  0  0  0  0  0  0
    1.7360    1.0058    0.0000 C   0  0  0  0  0  0  0  0  0  0  0  0
    1.7360   -0.0012    0.0000 C   0  0  0  0  0  0  0  0  0  0  0  0
    0.8680   -0.4978    0.0000 C   0  0  0  0  0  0  0  0  0  0  0  0
    0.0000    0.0000    0.0000 C   0  0  0  0  0  0  0  0  0  0  0  0
   -0.0000    1.0058    0.0000 C   0  0  0  0  0  0  0  0  0  0  0  0
    0.8680    1.5138    0.0000 C   0  0  0  0  0  0  0  0  0  0  0  0
   -0.8675    1.5032    0.0000 O   0  0  0  0  0  0  0  0  0  0  0  0
   -1.7320    1.0007    0.0000 C   0  0  0  0  0  0  0  0  0  0  0  0
    6.5551   -3.7896    0.0000 O   0  0  0  0  0  0  0  0  0  0  0  0
    6.8641   -4.7407    0.0000 C   0  0  0  0  0  0  0  0  0  0  0  0
  1  2  1  0  0  0  0
  2  3  1  0  0  0  0
  3  4  2  0  0  0  0
  3  5  1  0  0  0  0
  5  6  1  0  0  0  0
  6  7  1  0  0  0  0
  7  8  1  0  0  0  0
  8 12  1  0  0  0  0
  8  9  2  0  0  0  0
  9 10  1  0  0  0  0
 10 11  1  0  0  0  0
 11 16  2  0  0  0  0
 11 12  1  0  0  0  0
 12 13  2  0  0  0  0
 13 14  1  0  0  0  0
 14 15  2  0  0  0  0
 15 16  1  0  0  0  0
 15 17  1  0  0  0  0
 17 18  1  0  0  0  0
  2 19  1  0  0  0  0
 19 20  1  0  0  0  0
M  END
$$$$
s_22____3219394____9296322
  -OEChem-03222016482D

 18 19  0     0  0  0  0  0  0999 V2000
    6.1949   -5.4838    0.0000 C   0  0  0  0  0  0  0  0  0  0  0  0
    5.8860   -4.5327    0.0000 C   0  0  0  0  0  0  0  0  0  0  0  0
    5.5770   -3.5816    0.0000 C   0  0  0  0  0  0  0  0  0  0  0  0
    5.2680   -2.6306    0.0000 C   0  0  0  0  0  0  0  0  0  0  0  0
    5.9372   -1.8874    0.0000 O   0  0  0  0  0  0  0  0  0  0  0  0
    4.2899   -2.4226    0.0000 N   0  0  0  0  0  0  0  0  0  0  0  0
    3.9809   -1.4715    0.0000 C   0  0  0  0  0  0  0  0  0  0  0  0
    3.0028   -1.2636    0.0000 C   0  0  0  0  0  0  0  0  0  0  0  0
    2.6938   -0.3125    0.0000 C   0  0  0  0  0  0  0  0  0  0  0  0
    3.2858    0.5023    0.0000 C   0  0  0  0  0  0  0  0  0  0  0  0
    2.6938    1.3169    0.0000 N   0  0  0  0  0  0  0  0  0  0  0  0
    1.7360    1.0058    0.0000 C   0  0  0  0  0  0  0  0  0  0  0  0
    1.7360   -0.0012    0.0000 C   0  0  0  0  0  0  0  0  0  0  0  0
    0.8680   -0.4978    0.0000 C   0  0  0  0  0  0  0  0  0  0  0  0
    0.0000    0.0000    0.0000 C   0  0  0  0  0  0  0  0  0  0  0  0
   -0.0000    1.0058    0.0000 C   0  0  0  0  0  0  0  0  0  0  0  0
    0.8680    1.5138    0.0000 C   0  0  0  0  0  0  0  0  0  0  0  0
    0.8675   -1.4978    0.0000 C   0  0  0  0  0  0  0  0  0  0  0  0
  1  2  1  0  0  0  0
  2  3  3  0  0  0  0
  3  4  1  0  0  0  0
  4  5  2  0  0  0  0
  4  6  1  0  0  0  0
  6  7  1  0  0  0  0
  7  8  1  0  0  0  0
  8  9  1  0  0  0  0
  9 13  1  0  0  0  0
  9 10  2  0  0  0  0
 10 11  1  0  0  0  0
 11 12  1  0  0  0  0
 12 17  2  0  0  0  0
 12 13  1  0  0  0  0
 13 14  2  0  0  0  0
 14 15  1  0  0  0  0
 15 16  2  0  0  0  0
 16 17  1  0  0  0  0
 14 18  1  0  0  0  0
M  END
$$$$
s_22____9226532____59039
  -OEChem-03222016482D

 20 21  0     0  0  0  0  0  0999 V2000
    1.7327   -2.9983    0.0000 C   0  0  0  0  0  0  0  0  0  0  0  0
    1.7332   -1.9983    0.0000 C   0  0  0  0  0  0  0  0  0  0  0  0
    0.8675   -1.4978    0.0000 O   0  0  0  0  0  0  0  0  0  0  0  0
    0.8680   -0.4978    0.0000 C   0  0  0  0  0  0  0  0  0  0  0  0
    0.0000    0.0000    0.0000 C   0  0  0  0  0  0  0  0  0  0  0  0
   -0.0000    1.0058    0.0000 C   0  0  0  0  0  0  0  0  0  0  0  0
    0.8680    1.5138    0.0000 C   0  0  0  0  0  0  0  0  0  0  0  0
    1.7360    1.0058    0.0000 C   0  0  0  0  0  0  0  0  0  0  0  0
    1.7360   -0.0012    0.0000 C   0  0  0  0  0  0  0  0  0  0  0  0
    2.6938   -0.3125    0.0000 C   0  0  0  0  0  0  0  0  0  0  0  0
    3.2858    0.5023    0.0000 C   0  0  0  0  0  0  0  0  0  0  0  0
    2.6938    1.3169    0.0000 N   0  0  0  0  0  0  0  0  0  0  0  0
    3.0028   -1.2636    0.0000 C   0  0  0  0  0  0  0  0  0  0  0  0
    3.9809   -1.4715    0.0000 C   0  0  0  0  0  0  0  0  0  0  0  0
    4.2899   -2.4226    0.0000 N   0  0  0  0  0  0  0  0  0  0  0  0
    5.2680   -2.6306    0.0000 C   0  0  0  0  0  0  0  0  0  0  0  0
    5.9372   -1.8874    0.0000 O   0  0  0  0  0  0  0  0  0  0  0  0
    5.5770   -3.5816    0.0000 C   0  0  0  0  0  0  0  0  0  0  0  0
    6.5551   -3.7896    0.0000 O   0  0  0  0  0  0  0  0  0  0  0  0
    6.8641   -4.7407    0.0000 C   0  0  0  0  0  0  0  0  0  0  0  0
  1  2  1  0  0  0  0
  2  3  1  0  0  0  0
  3  4  1  0  0  0  0
  4  9  2  0  0  0  0
  4  5  1  0  0  0  0
  5  6  2  0  0  0  0
  6  7  1  0  0  0  0
  7  8  2  0  0  0  0
  8 12  1  0  0  0  0
  8  9  1  0  0  0  0
  9 10  1  0  0  0  0
 10 11  2  0  0  0  0
 11 12  1  0  0  0  0
 10 13  1  0  0  0  0
 13 14  1  0  0  0  0
 14 15  1  0  0  0  0
 15 16  1  0  0  0  0
 16 17  2  0  0  0  0
 16 18  1  0  0  0  0
 18 19  1  0  0  0  0
 19 20  1  0  0  0  0
M  END
$$$$
s_273270____16380474____15281756
  -OEChem-03222016482D

 21 22  0     0  0  0  0  0  0999 V2000
    0.9440   -6.1382    0.0000 C   0  0  0  0  0  0  0  0  0  0  0  0
    1.6132   -5.3951    0.0000 C   0  0  0  0  0  0  0  0  0  0  0  0
    1.3042   -4.4440    0.0000 C   0  0  0  0  0  0  0  0  0  0  0  0
    1.9734   -3.7009    0.0000 C   0  0  0  0  0  0  0  0  0  0  0  0
    2.9515   -3.9088    0.0000 O   0  0  0  0  0  0  0  0  0  0  0  0
    1.6644   -2.7498    0.0000 N   0  0  0  0  0  0  0  0  0  0  0  0
    2.3336   -2.0067    0.0000 C   0  0  0  0  0  0  0  0  0  0  0  0
    1.5905   -1.3375    0.0000 C   0  0  0  0  0  0  0  0  0  0  0  0
    3.0767   -2.6759    0.0000 C   0  0  0  0  0  0  0  0  0  0  0  0
    3.0028   -1.2636    0.0000 C   0  0  0  0  0  0  0  0  0  0  0  0
    2.6938   -0.3125    0.0000 C   0  0  0  0  0  0  0  0  0  0  0  0
    3.2858    0.5023    0.0000 C   0  0  0  0  0  0  0  0  0  0  0  0
    2.6938    1.3169    0.0000 N   0  0  0  0  0  0  0  0  0  0  0  0
    1.7360    1.0058    0.0000 C   0  0  0  0  0  0  0  0  0  0  0  0
    1.7360   -0.0012    0.0000 C   0  0  0  0  0  0  0  0  0  0  0  0
    0.8680   -0.4978    0.0000 C   0  0  0  0  0  0  0  0  0  0  0  0
    0.0000    0.0000    0.0000 C   0  0  0  0  0  0  0  0  0  0  0  0
   -0.0000    1.0058    0.0000 C   0  0  0  0  0  0  0  0  0  0  0  0
    0.8680    1.5138    0.0000 C   0  0  0  0  0  0  0  0  0  0  0  0
   -0.8675    1.5032    0.0000 O   0  0  0  0  0  0  0  0  0  0  0  0
   -1.7320    1.0007    0.0000 C   0  0  0  0  0  0  0  0  0  0  0  0
  1  2  1  0  0  0  0
  2  3  2  3  0  0  0
  3  4  1  0  0  0  0
  4  5  2  0  0  0  0
  4  6  1  0  0  0  0
  6  7  1  0  0  0  0
  7  8  1  0  0  0  0
  7  9  1  0  0  0  0
  7 10  1  0  0  0  0
 10 11  1  0  0  0  0
 11 15  1  0  0  0  0
 11 12  2  0  0  0  0
 12 13  1  0  0  0  0
 13 14  1  0  0  0  0
 14 19  2  0  0  0  0
 14 15  1  0  0  0  0
 15 16  2  0  0  0  0
 16 17  1  0  0  0  0
 17 18  2  0  0  0  0
 18 19  1  0  0  0  0
 18 20  1  0  0  0  0
 20 21  1  0  0  0  0
M  END
$$$$
s_22____13909752____9296322
  -OEChem-03222016482D

 18 19  0     0  0  0  0  0  0999 V2000
    6.1949   -5.4838    0.0000 C   0  0  0  0  0  0  0  0  0  0  0  0
    5.8860   -4.5327    0.0000 C   0  0  0  0  0  0  0  0  0  0  0  0
    5.5770   -3.5816    0.0000 C   0  0  0  0  0  0  0  0  0  0  0  0
    5.2680   -2.6306    0.0000 C   0  0  0  0  0  0  0  0  0  0  0  0
    5.9372   -1.8874    0.0000 O   0  0  0  0  0  0  0  0  0  0  0  0
    4.2899   -2.4226    0.0000 N   0  0  0  0  0  0  0  0  0  0  0  0
    3.9809   -1.4715    0.0000 C   0  0  0  0  0  0  0  0  0  0  0  0
    3.0028   -1.2636    0.0000 C   0  0  0  0  0  0  0  0  0  0  0  0
    2.6938   -0.3125    0.0000 C   0  0  0  0  0  0  0  0  0  0  0  0
    3.2858    0.5023    0.0000 C   0  0  0  0  0  0  0  0  0  0  0  0
    2.6938    1.3169    0.0000 N   0  0  0  0  0  0  0  0  0  0  0  0
    1.7360    1.0058    0.0000 C   0  0  0  0  0  0  0  0  0  0  0  0
    1.7360   -0.0012    0.0000 C   0  0  0  0  0  0  0  0  0  0  0  0
    0.8680   -0.4978    0.0000 C   0  0  0  0  0  0  0  0  0  0  0  0
    0.0000    0.0000    0.0000 C   0  0  0  0  0  0  0  0  0  0  0  0
   -0.0000    1.0058    0.0000 C   0  0  0  0  0  0  0  0  0  0  0  0
    0.8680    1.5138    0.0000 C   0  0  0  0  0  0  0  0  0  0  0  0
   -0.8653   -0.5013    0.0000 O   0  0  0  0  0  0  0  0  0  0  0  0
  1  2  1  0  0  0  0
  2  3  3  0  0  0  0
  3  4  1  0  0  0  0
  4  5  2  0  0  0  0
  4  6  1  0  0  0  0
  6  7  1  0  0  0  0
  7  8  1  0  0  0  0
  8  9  1  0  0  0  0
  9 13  1  0  0  0  0
  9 10  2  0  0  0  0
 10 11  1  0  0  0  0
 11 12  1  0  0  0  0
 12 17  2  0  0  0  0
 12 13  1  0  0  0  0
 13 14  2  0  0  0  0
 14 15  1  0  0  0  0
 15 16  2  0  0  0  0
 16 17  1  0  0  0  0
 15 18  1  0  0  0  0
M  END
$$$$
s_22____13978824____11560700
  -OEChem-03222016482D

 21 23  0     0  0  0  0  0  0999 V2000
   -0.8705    2.5032    0.0000 C   0  0  0  0  0  0  0  0  0  0  0  0
   -0.8675    1.5032    0.0000 O   0  0  0  0  0  0  0  0  0  0  0  0
    0.0000    1.0058    0.0000 C   0  0  0  0  0  0  0  0  0  0  0  0
    0.0000    0.0000    0.0000 C   0  0  0  0  0  0  0  0  0  0  0  0
    0.8680   -0.4978    0.0000 C   0  0  0  0  0  0  0  0  0  0  0  0
    1.7360   -0.0012    0.0000 C   0  0  0  0  0  0  0  0  0  0  0  0
    1.7360    1.0058    0.0000 C   0  0  0  0  0  0  0  0  0  0  0  0
    0.8680    1.5138    0.0000 C   0  0  0  0  0  0  0  0  0  0  0  0
    2.6938    1.3169    0.0000 N   0  0  0  0  0  0  0  0  0  0  0  0
    3.2858    0.5023    0.0000 C   0  0  0  0  0  0  0  0  0  0  0  0
    2.6938   -0.3125    0.0000 C   0  0  0  0  0  0  0  0  0  0  0  0
    3.0028   -1.2636    0.0000 C   0  0  0  0  0  0  0  0  0  0  0  0
    3.9809   -1.4715    0.0000 C   0  0  0  0  0  0  0  0  0  0  0  0
    4.2899   -2.4226    0.0000 N   0  0  0  0  0  0  0  0  0  0  0  0
    5.2680   -2.6306    0.0000 C   0  0  0  0  0  0  0  0  0  0  0  0
    5.9372   -1.8874    0.0000 O   0  0  0  0  0  0  0  0  0  0  0  0
    5.5770   -3.5816    0.0000 C   0  0  0  0  0  0  0  0  0  0  0  0
    6.5551   -3.7896    0.0000 C   0  0  0  0  0  0  0  0  0  0  0  0
    7.3937   -3.2450    0.0000 C   0  0  0  0  0  0  0  0  0  0  0  0
    7.9383   -4.0837    0.0000 S   0  0  0  0  0  0  0  0  0  0  0  0
    7.0997   -4.6282    0.0000 C   0  0  0  0  0  0  0  0  0  0  0  0
  1  2  1  0  0  0  0
  2  3  1  0  0  0  0
  3  8  2  0  0  0  0
  3  4  1  0  0  0  0
  4  5  2  0  0  0  0
  5  6  1  0  0  0  0
  6 11  1  0  0  0  0
  6  7  2  0  0  0  0
  7  8  1  0  0  0  0
  7  9  1  0  0  0  0
  9 10  1  0  0  0  0
 10 11  2  0  0  0  0
 11 12  1  0  0  0  0
 12 13  1  0  0  0  0
 13 14  1  0  0  0  0
 14 15  1  0  0  0  0
 15 16  2  0  0  0  0
 15 17  1  0  0  0  0
 17 18  1  0  0  0  0
 18 21  1  0  0  0  0
 18 19  1  0  0  0  0
 19 20  1  0  0  0  0
 20 21  1  0  0  0  0
M  END
$$$$
s_272164____14971778____9387680
  -OEChem-03222016482D

 22 23  0     0  0  0  0  0  0999 V2000
    1.7327   -2.9983    0.0000 C   0  0  0  0  0  0  0  0  0  0  0  0
    1.7332   -1.9983    0.0000 C   0  0  0  0  0  0  0  0  0  0  0  0
    0.8675   -1.4978    0.0000 O   0  0  0  0  0  0  0  0  0  0  0  0
    0.8680   -0.4978    0.0000 C   0  0  0  0  0  0  0  0  0  0  0  0
    0.0000    0.0000    0.0000 C   0  0  0  0  0  0  0  0  0  0  0  0
   -0.0000    1.0058    0.0000 C   0  0  0  0  0  0  0  0  0  0  0  0
    0.8680    1.5138    0.0000 C   0  0  0  0  0  0  0  0  0  0  0  0
    1.7360    1.0058    0.0000 C   0  0  0  0  0  0  0  0  0  0  0  0
    1.7360   -0.0012    0.0000 C   0  0  0  0  0  0  0  0  0  0  0  0
    2.6938   -0.3125    0.0000 C   0  0  0  0  0  0  0  0  0  0  0  0
    3.2858    0.5023    0.0000 C   0  0  0  0  0  0  0  0  0  0  0  0
    2.6938    1.3169    0.0000 N   0  0  0  0  0  0  0  0  0  0  0  0
    3.0028   -1.2636    0.0000 C   0  0  0  0  0  0  0  0  0  0  0  0
    3.9809   -1.4715    0.0000 C   0  0  0  0  0  0  0  0  0  0  0  0
    4.2899   -2.4226    0.0000 N   0  0  0  0  0  0  0  0  0  0  0  0
    5.2680   -2.6306    0.0000 C   0  0  0  0  0  0  0  0  0  0  0  0
    5.9372   -1.8874    0.0000 O   0  0  0  0  0  0  0  0  0  0  0  0
    5.5770   -3.5816    0.0000 N   0  0  0  0  0  0  0  0  0  0  0  0
    4.9078   -4.3247    0.0000 C   0  0  0  0  0  0  0  0  0  0  0  0
    6.5551   -3.7896    0.0000 C   0  0  0  0  0  0  0  0  0  0  0  0
    6.8641   -4.7407    0.0000 C   0  0  0  0  0  0  0  0  0  0  0  0
    7.1731   -5.6917    0.0000 C   0  0  0  0  0  0  0  0  0  0  0  0
  1  2  1  0  0  0  0
  2  3  1  0  0  0  0
  3  4  1  0  0  0  0
  4  9  2  0  0  0  0
  4  5  1  0  0  0  0
  5  6  2  0  0  0  0
  6  7  1  0  0  0  0
  7  8  2  0  0  0  0
  8 12  1  0  0  0  0
  8  9  1  0  0  0  0
  9 10  1  0  0  0  0
 10 11  2  0  0  0  0
 11 12  1  0  0  0  0
 10 13  1  0  0  0  0
 13 14  1  0  0  0  0
 14 15  1  0  0  0  0
 15 16  1  0  0  0  0
 16 17  2  0  0  0  0
 16 18  1  0  0  0  0
 18 19  1  0  0  0  0
 18 20  1  0  0  0  0
 20 21  1  0  0  0  0
 21 22  3  0  0  0  0
M  END
$$$$
s_22____13978824____2009696
  -OEChem-03222016482D

 21 22  0     0  0  0  0  0  0999 V2000
    8.1512   -5.8997    0.0000 C   0  0  0  0  0  0  0  0  0  0  0  0
    7.8422   -4.9486    0.0000 C   0  0  0  0  0  0  0  0  0  0  0  0
    6.8641   -4.7407    0.0000 C   0  0  0  0  0  0  0  0  0  0  0  0
    6.5551   -3.7896    0.0000 O   0  0  0  0  0  0  0  0  0  0  0  0
    5.5770   -3.5816    0.0000 C   0  0  0  0  0  0  0  0  0  0  0  0
    5.2680   -2.6306    0.0000 C   0  0  0  0  0  0  0  0  0  0  0  0
    5.9372   -1.8874    0.0000 O   0  0  0  0  0  0  0  0  0  0  0  0
    4.2899   -2.4226    0.0000 N   0  0  0  0  0  0  0  0  0  0  0  0
    3.9809   -1.4715    0.0000 C   0  0  0  0  0  0  0  0  0  0  0  0
    3.0028   -1.2636    0.0000 C   0  0  0  0  0  0  0  0  0  0  0  0
    2.6938   -0.3125    0.0000 C   0  0  0  0  0  0  0  0  0  0  0  0
    3.2858    0.5023    0.0000 C   0  0  0  0  0  0  0  0  0  0  0  0
    2.6938    1.3169    0.0000 N   0  0  0  0  0  0  0  0  0  0  0  0
    1.7360    1.0058    0.0000 C   0  0  0  0  0  0  0  0  0  0  0  0
    1.7360   -0.0012    0.0000 C   0  0  0  0  0  0  0  0  0  0  0  0
    0.8680   -0.4978    0.0000 C   0  0  0  0  0  0  0  0  0  0  0  0
    0.0000    0.0000    0.0000 C   0  0  0  0  0  0  0  0  0  0  0  0
   -0.0000    1.0058    0.0000 C   0  0  0  0  0  0  0  0  0  0  0  0
    0.8680    1.5138    0.0000 C   0  0  0  0  0  0  0  0  0  0  0  0
   -0.8675    1.5032    0.0000 O   0  0  0  0  0  0  0  0  0  0  0  0
   -1.7320    1.0007    0.0000 C   0  0  0  0  0  0  0  0  0  0  0  0
  1  2  1  0  0  0  0
  2  3  1  0  0  0  0
  3  4  1  0  0  0  0
  4  5  1  0  0  0  0
  5  6  1  0  0  0  0
  6  7  2  0  0  0  0
  6  8  1  0  0  0  0
  8  9  1  0  0  0  0
  9 10  1  0  0  0  0
 10 11  1  0  0  0  0
 11 15  1  0  0  0  0
 11 12  2  0  0  0  0
 12 13  1  0  0  0  0
 13 14  1  0  0  0  0
 14 19  2  0  0  0  0
 14 15  1  0  0  0  0
 15 16  2  0  0  0  0
 16 17  1  0  0  0  0
 17 18  2  0  0  0  0
 18 19  1  0  0  0  0
 18 20  1  0  0  0  0
 20 21  1  0  0  0  0
M  END
$$$$
s_240690b____13025580____3025680
  -OEChem-03222016482D

 19 20  0     0  0  0  0  0  0999 V2000
    0.0012   -1.9973    0.0000 C   0  0  0  0  0  0  0  0  0  0  0  0
    0.8675   -1.4978    0.0000 O   0  0  0  0  0  0  0  0  0  0  0  0
    0.8680   -0.4978    0.0000 C   0  0  0  0  0  0  0  0  0  0  0  0
    0.0000    0.0000    0.0000 C   0  0  0  0  0  0  0  0  0  0  0  0
   -0.0000    1.0058    0.0000 C   0  0  0  0  0  0  0  0  0  0  0  0
    0.8680    1.5138    0.0000 C   0  0  0  0  0  0  0  0  0  0  0  0
    1.7360    1.0058    0.0000 C   0  0  0  0  0  0  0  0  0  0  0  0
    1.7360   -0.0012    0.0000 C   0  0  0  0  0  0  0  0  0  0  0  0
    2.6938   -0.3125    0.0000 C   0  0  0  0  0  0  0  0  0  0  0  0
    3.2858    0.5023    0.0000 C   0  0  0  0  0  0  0  0  0  0  0  0
    2.6938    1.3169    0.0000 N   0  0  0  0  0  0  0  0  0  0  0  0
    3.0028   -1.2636    0.0000 C   0  0  0  0  0  0  0  0  0  0  0  0
    3.9809   -1.4715    0.0000 C   0  0  0  0  0  0  0  0  0  0  0  0
    4.2899   -2.4226    0.0000 N   0  0  0  0  0  0  0  0  0  0  0  0
    5.2680   -2.6306    0.0000 C   0  0  0  0  0  0  0  0  0  0  0  0
    5.9372   -1.8874    0.0000 O   0  0  0  0  0  0  0  0  0  0  0  0
    5.5770   -3.5816    0.0000 C   0  0  0  0  0  0  0  0  0  0  0  0
    6.5551   -3.7896    0.0000 C   0  0  0  0  0  0  0  0  0  0  0  0
    6.8641   -4.7407    0.0000 N   0  3  0  0  0  0  0  0  0  0  0  0
  1  2  1  0  0  0  0
  2  3  1  0  0  0  0
  3  8  2  0  0  0  0
  3  4  1  0  0  0  0
  4  5  2  0  0  0  0
  5  6  1  0  0  0  0
  6  7  2  0  0  0  0
  7 11  1  0  0  0  0
  7  8  1  0  0  0  0
  8  9  1  0  0  0  0
  9 10  2  0  0  0  0
 10 11  1  0  0  0  0
  9 12  1  0  0  0  0
 12 13  1  0  0  0  0
 13 14  1  0  0  0  0
 14 15  1  0  0  0  0
 15 16  2  0  0  0  0
 15 17  1  0  0  0  0
 17 18  1  0  0  0  0
 18 19  1  0  0  0  0
M  CHG  1  19   1
M  END
$$$$
s_270062____12854088____15585492
  -OEChem-03222016482D

 16 17  0     0  0  0  0  0  0999 V2000
    5.5770   -3.5816    0.0000 C   0  0  0  0  0  0  0  0  0  0  0  0
    5.2680   -2.6306    0.0000 C   0  0  0  0  0  0  0  0  0  0  0  0
    5.9372   -1.8874    0.0000 O   0  0  0  0  0  0  0  0  0  0  0  0
    4.2899   -2.4226    0.0000 N   0  0  0  0  0  0  0  0  0  0  0  0
    3.9809   -1.4715    0.0000 C   0  0  0  0  0  0  0  0  0  0  0  0
    3.0028   -1.2636    0.0000 C   0  0  0  0  0  0  0  0  0  0  0  0
    2.6938   -0.3125    0.0000 C   0  0  0  0  0  0  0  0  0  0  0  0
    3.2858    0.5023    0.0000 C   0  0  0  0  0  0  0  0  0  0  0  0
    2.6938    1.3169    0.0000 N   0  0  0  0  0  0  0  0  0  0  0  0
    1.7360    1.0058    0.0000 C   0  0  0  0  0  0  0  0  0  0  0  0
    1.7360   -0.0012    0.0000 C   0  0  0  0  0  0  0  0  0  0  0  0
    0.8680   -0.4978    0.0000 C   0  0  0  0  0  0  0  0  0  0  0  0
    0.0000    0.0000    0.0000 C   0  0  0  0  0  0  0  0  0  0  0  0
   -0.0000    1.0058    0.0000 C   0  0  0  0  0  0  0  0  0  0  0  0
    0.8680    1.5138    0.0000 C   0  0  0  0  0  0  0  0  0  0  0  0
   -0.8653   -0.5013    0.0000 Br  0  0  0  0  0  0  0  0  0  0  0  0
  1  2  1  0  0  0  0
  2  3  2  0  0  0  0
  2  4  1  0  0  0  0
  4  5  1  0  0  0  0
  5  6  1  0  0  0  0
  6  7  1  0  0  0  0
  7 11  1  0  0  0  0
  7  8  2  0  0  0  0
  8  9  1  0  0  0  0
  9 10  1  0  0  0  0
 10 15  2  0  0  0  0
 10 11  1  0  0  0  0
 11 12  2  0  0  0  0
 12 13  1  0  0  0  0
 13 14  2  0  0  0  0
 14 15  1  0  0  0  0
 13 16  1  0  0  0  0
M  END
$$$$
s_8____13025512____83696
  -OEChem-03222016482D

 19 20  0     0  0  0  0  0  0999 V2000
    6.8641   -4.7407    0.0000 C   0  0  0  0  0  0  0  0  0  0  0  0
    6.5551   -3.7896    0.0000 C   0  0  0  0  0  0  0  0  0  0  0  0
    5.5770   -3.5816    0.0000 N   0  0  0  0  0  0  0  0  0  0  0  0
    5.2680   -2.6306    0.0000 C   0  0  0  0  0  0  0  0  0  0  0  0
    5.9372   -1.8874    0.0000 S   0  0  0  0  0  0  0  0  0  0  0  0
    4.2899   -2.4226    0.0000 N   0  0  0  0  0  0  0  0  0  0  0  0
    3.9809   -1.4715    0.0000 C   0  0  0  0  0  0  0  0  0  0  0  0
    3.0028   -1.2636    0.0000 C   0  0  0  0  0  0  0  0  0  0  0  0
    2.6938   -0.3125    0.0000 C   0  0  0  0  0  0  0  0  0  0  0  0
    3.2858    0.5023    0.0000 C   0  0  0  0  0  0  0  0  0  0  0  0
    2.6938    1.3169    0.0000 N   0  0  0  0  0  0  0  0  0  0  0  0
    1.7360    1.0058    0.0000 C   0  0  0  0  0  0  0  0  0  0  0  0
    1.7360   -0.0012    0.0000 C   0  0  0  0  0  0  0  0  0  0  0  0
    0.8680   -0.4978    0.0000 C   0  0  0  0  0  0  0  0  0  0  0  0
    0.0000    0.0000    0.0000 C   0  0  0  0  0  0  0  0  0  0  0  0
   -0.0000    1.0058    0.0000 C   0  0  0  0  0  0  0  0  0  0  0  0
    0.8680    1.5138    0.0000 C   0  0  0  0  0  0  0  0  0  0  0  0
    0.8675   -1.4978    0.0000 O   0  0  0  0  0  0  0  0  0  0  0  0
    1.7332   -1.9983    0.0000 C   0  0  0  0  0  0  0  0  0  0  0  0
  1  2  1  0  0  0  0
  2  3  1  0  0  0  0
  3  4  1  0  0  0  0
  4  5  2  0  0  0  0
  4  6  1  0  0  0  0
  6  7  1  0  0  0  0
  7  8  1  0  0  0  0
  8  9  1  0  0  0  0
  9 13  1  0  0  0  0
  9 10  2  0  0  0  0
 10 11  1  0  0  0  0
 11 12  1  0  0  0  0
 12 17  2  0  0  0  0
 12 13  1  0  0  0  0
 13 14  2  0  0  0  0
 14 15  1  0  0  0  0
 15 16  2  0  0  0  0
 16 17  1  0  0  0  0
 14 18  1  0  0  0  0
 18 19  1  0  0  0  0
M  END
$$$$
s_275532____13830256____16621902
  -OEChem-03222016482D

 19 20  0     1  0  0  0  0  0999 V2000
    6.2858    0.5025    0.0000 C   0  0  0  0  0  0  0  0  0  0  0  0
    5.7859   -0.3636    0.0000 C   0  0  3  0  0  0  0  0  0  0  0  0
    6.2859   -1.2296    0.0000 C   0  0  0  0  0  0  0  0  0  0  0  0
    5.7860   -2.0956    0.0000 O   0  0  0  0  0  0  0  0  0  0  0  0
    7.2859   -1.2295    0.0000 O   0  5  0  0  0  0  0  0  0  0  0  0
    4.7859   -0.3636    0.0000 N   0  3  3  0  0  0  0  0  0  0  0  0
    4.2859   -1.2297    0.0000 C   0  0  0  0  0  0  0  0  0  0  0  0
    4.2858    0.5024    0.0000 C   0  0  0  0  0  0  0  0  0  0  0  0
    3.2858    0.5023    0.0000 C   0  0  0  0  0  0  0  0  0  0  0  0
    2.6938   -0.3125    0.0000 C   0  0  0  0  0  0  0  0  0  0  0  0
    1.7360   -0.0012    0.0000 C   0  0  0  0  0  0  0  0  0  0  0  0
    0.8680   -0.4978    0.0000 C   0  0  0  0  0  0  0  0  0  0  0  0
    0.0000    0.0000    0.0000 C   0  0  0  0  0  0  0  0  0  0  0  0
    0.0000    1.0058    0.0000 C   0  0  0  0  0  0  0  0  0  0  0  0
    0.8680    1.5138    0.0000 C   0  0  0  0  0  0  0  0  0  0  0  0
    1.7360    1.0058    0.0000 C   0  0  0  0  0  0  0  0  0  0  0  0
    2.6938    1.3169    0.0000 N   0  0  0  0  0  0  0  0  0  0  0  0
   -0.8653   -0.5013    0.0000 O   0  0  0  0  0  0  0  0  0  0  0  0
   -0.8639   -1.5013    0.0000 C   0  0  0  0  0  0  0  0  0  0  0  0
  1  2  1  0  0  0  0
  2  3  1  0  0  0  0
  3  4  2  0  0  0  0
  3  5  1  0  0  0  0
  2  6  1  0  0  0  0
  6  7  1  0  0  0  0
  6  8  1  0  0  0  0
  8  9  1  0  0  0  0
  9 17  1  0  0  0  0
  9 10  2  0  0  0  0
 10 11  1  0  0  0  0
 11 16  2  0  0  0  0
 11 12  1  0  0  0  0
 12 13  2  0  0  0  0
 13 14  1  0  0  0  0
 14 15  2  0  0  0  0
 15 16  1  0  0  0  0
 16 17  1  0  0  0  0
 13 18  1  0  0  0  0
 18 19  1  0  0  0  0
M  CHG  2   5  -1   6   1
M  END
$$$$
s_512____214540____13978836
  -OEChem-03222016482D

 20 21  0     0  0  0  0  0  0999 V2000
    1.2530   -7.0892    0.0000 C   0  0  0  0  0  0  0  0  0  0  0  0
    1.9222   -6.3461    0.0000 C   0  0  0  0  0  0  0  0  0  0  0  0
    1.6132   -5.3951    0.0000 C   0  0  0  0  0  0  0  0  0  0  0  0
    2.2824   -4.6519    0.0000 N   0  0  0  0  0  0  0  0  0  0  0  0
    1.9734   -3.7009    0.0000 C   0  0  0  0  0  0  0  0  0  0  0  0
    0.9953   -3.4929    0.0000 O   0  0  0  0  0  0  0  0  0  0  0  0
    2.6426   -2.9578    0.0000 N   0  0  0  0  0  0  0  0  0  0  0  0
    2.3336   -2.0067    0.0000 C   0  0  0  0  0  0  0  0  0  0  0  0
    3.0028   -1.2636    0.0000 C   0  0  0  0  0  0  0  0  0  0  0  0
    2.6938   -0.3125    0.0000 C   0  0  0  0  0  0  0  0  0  0  0  0
    3.2858    0.5023    0.0000 C   0  0  0  0  0  0  0  0  0  0  0  0
    2.6938    1.3169    0.0000 N   0  0  0  0  0  0  0  0  0  0  0  0
    1.7360    1.0058    0.0000 C   0  0  0  0  0  0  0  0  0  0  0  0
    1.7360   -0.0012    0.0000 C   0  0  0  0  0  0  0  0  0  0  0  0
    0.8680   -0.4978    0.0000 C   0  0  0  0  0  0  0  0  0  0  0  0
    0.0000    0.0000    0.0000 C   0  0  0  0  0  0  0  0  0  0  0  0
   -0.0000    1.0058    0.0000 C   0  0  0  0  0  0  0  0  0  0  0  0
    0.8680    1.5138    0.0000 C   0  0  0  0  0  0  0  0  0  0  0  0
   -0.8675    1.5032    0.0000 O   0  0  0  0  0  0  0  0  0  0  0  0
   -1.7320    1.0007    0.0000 C   0  0  0  0  0  0  0  0  0  0  0  0
  1  2  1  0  0  0  0
  2  3  1  0  0  0  0
  3  4  1  0  0  0  0
  4  5  1  0  0  0  0
  5  6  2  0  0  0  0
  5  7  1  0  0  0  0
  7  8  1  0  0  0  0
  8  9  1  0  0  0  0
  9 10  1  0  0  0  0
 10 14  1  0  0  0  0
 10 11  2  0  0  0  0
 11 12  1  0  0  0  0
 12 13  1  0  0  0  0
 13 18  2  0  0  0  0
 13 14  1  0  0  0  0
 14 15  2  0  0  0  0
 15 16  1  0  0  0  0
 16 17  2  0  0  0  0
 17 18  1  0  0  0  0
 17 19  1  0  0  0  0
 19 20  1  0  0  0  0
M  END
$$$$
s_270004____14519440____15269820
  -OEChem-03222016482D

 21 23  0     1  0  0  0  0  0999 V2000
    5.4199   -1.7296    0.0000 C   0  0  0  0  0  0  0  0  0  0  0  0
    6.2859   -1.2296    0.0000 C   0  0  3  0  0  0  0  0  0  0  0  0
    7.1518   -0.7296    0.0000 C   0  0  0  0  0  0  0  0  0  0  0  0
    7.6518   -1.5955    0.0000 N   0  0  0  0  0  0  0  0  0  0  0  0
    6.7859   -2.0955    0.0000 C   0  0  0  0  0  0  0  0  0  0  0  0
    6.5271   -3.0614    0.0000 O   0  0  0  0  0  0  0  0  0  0  0  0
    8.6178   -1.8543    0.0000 C   0  0  0  0  0  0  0  0  0  0  0  0
    5.7859   -0.3636    0.0000 C   0  0  0  0  0  0  0  0  0  0  0  0
    4.7859   -0.3636    0.0000 N   0  3  0  0  0  0  0  0  0  0  0  0
    4.2858    0.5024    0.0000 C   0  0  0  0  0  0  0  0  0  0  0  0
    3.2858    0.5023    0.0000 C   0  0  0  0  0  0  0  0  0  0  0  0
    2.6938   -0.3125    0.0000 C   0  0  0  0  0  0  0  0  0  0  0  0
    1.7360   -0.0012    0.0000 C   0  0  0  0  0  0  0  0  0  0  0  0
    1.7360    1.0058    0.0000 C   0  0  0  0  0  0  0  0  0  0  0  0
    2.6938    1.3169    0.0000 N   0  0  0  0  0  0  0  0  0  0  0  0
    0.8680    1.5138    0.0000 C   0  0  0  0  0  0  0  0  0  0  0  0
    0.0000    1.0058    0.0000 C   0  0  0  0  0  0  0  0  0  0  0  0
    0.0000    0.0000    0.0000 C   0  0  0  0  0  0  0  0  0  0  0  0
    0.8680   -0.4978    0.0000 C   0  0  0  0  0  0  0  0  0  0  0  0
    0.8675   -1.4978    0.0000 O   0  0  0  0  0  0  0  0  0  0  0  0
    1.7332   -1.9983    0.0000 C   0  0  0  0  0  0  0  0  0  0  0  0
  1  2  1  0  0  0  0
  2  5  1  0  0  0  0
  2  3  1  0  0  0  0
  3  4  1  0  0  0  0
  4  5  1  0  0  0  0
  5  6  2  0  0  0  0
  4  7  1  0  0  0  0
  2  8  1  0  0  0  0
  8  9  1  0  0  0  0
  9 10  1  0  0  0  0
 10 11  1  0  0  0  0
 11 15  1  0  0  0  0
 11 12  2  0  0  0  0
 12 13  1  0  0  0  0
 13 19  2  0  0  0  0
 13 14  1  0  0  0  0
 14 15  1  0  0  0  0
 14 16  2  0  0  0  0
 16 17  1  0  0  0  0
 17 18  2  0  0  0  0
 18 19  1  0  0  0  0
 19 20  1  0  0  0  0
 20 21  1  0  0  0  0
M  CHG  1   9   1
M  END
$$$$
s_275532____13829952____16621902
  -OEChem-03222016482D

 21 22  0     1  0  0  0  0  0999 V2000
    1.7860   -2.0959    0.0000 C   0  0  0  0  0  0  0  0  0  0  0  0
    2.7860   -2.0958    0.0000 O   0  0  0  0  0  0  0  0  0  0  0  0
    3.2859   -1.2298    0.0000 C   0  0  0  0  0  0  0  0  0  0  0  0
    4.2859   -1.2297    0.0000 C   0  0  0  0  0  0  0  0  0  0  0  0
    4.7859   -0.3636    0.0000 N   0  3  3  0  0  0  0  0  0  0  0  0
    4.2858    0.5024    0.0000 C   0  0  0  0  0  0  0  0  0  0  0  0
    3.2858    0.5023    0.0000 C   0  0  0  0  0  0  0  0  0  0  0  0
    2.6938   -0.3125    0.0000 C   0  0  0  0  0  0  0  0  0  0  0  0
    1.7360   -0.0012    0.0000 C   0  0  0  0  0  0  0  0  0  0  0  0
    0.8680   -0.4978    0.0000 C   0  0  0  0  0  0  0  0  0  0  0  0
    0.0000    0.0000    0.0000 C   0  0  0  0  0  0  0  0  0  0  0  0
    0.0000    1.0058    0.0000 C   0  0  0  0  0  0  0  0  0  0  0  0
    0.8680    1.5138    0.0000 C   0  0  0  0  0  0  0  0  0  0  0  0
    1.7360    1.0058    0.0000 C   0  0  0  0  0  0  0  0  0  0  0  0
    2.6938    1.3169    0.0000 N   0  0  0  0  0  0  0  0  0  0  0  0
   -0.8653   -0.5013    0.0000 O   0  0  0  0  0  0  0  0  0  0  0  0
   -0.8639   -1.5013    0.0000 C   0  0  0  0  0  0  0  0  0  0  0  0
    5.7859   -0.3636    0.0000 C   0  0  0  0  0  0  0  0  0  0  0  0
    6.2858    0.5025    0.0000 C   0  0  0  0  0  0  0  0  0  0  0  0
    5.7857    1.3685    0.0000 O   0  0  0  0  0  0  0  0  0  0  0  0
    7.2858    0.5025    0.0000 O   0  5  0  0  0  0  0  0  0  0  0  0
  1  2  1  0  0  0  0
  2  3  1  0  0  0  0
  3  4  1  0  0  0  0
  4  5  1  0  0  0  0
  5  6  1  0  0  0  0
  6  7  1  0  0  0  0
  7 15  1  0  0  0  0
  7  8  2  0  0  0  0
  8  9  1  0  0  0  0
  9 14  2  0  0  0  0
  9 10  1  0  0  0  0
 10 11  2  0  0  0  0
 11 12  1  0  0  0  0
 12 13  2  0  0  0  0
 13 14  1  0  0  0  0
 14 15  1  0  0  0  0
 11 16  1  0  0  0  0
 16 17  1  0  0  0  0
  5 18  1  0  0  0  0
 18 19  1  0  0  0  0
 19 20  2  0  0  0  0
 19 21  1  0  0  0  0
M  CHG  2   5   1  21  -1
M  END
$$$$
s_22____13025516____59017
  -OEChem-03222016482D

 21 22  0     0  0  0  0  0  0999 V2000
    7.8422   -4.9486    0.0000 C   0  0  0  0  0  0  0  0  0  0  0  0
    6.8641   -4.7407    0.0000 C   0  0  0  0  0  0  0  0  0  0  0  0
    6.1949   -5.4838    0.0000 O   0  0  0  0  0  0  0  0  0  0  0  0
    6.5551   -3.7896    0.0000 C   0  0  0  0  0  0  0  0  0  0  0  0
    5.5770   -3.5816    0.0000 C   0  0  0  0  0  0  0  0  0  0  0  0
    5.2680   -2.6306    0.0000 C   0  0  0  0  0  0  0  0  0  0  0  0
    5.9372   -1.8874    0.0000 O   0  0  0  0  0  0  0  0  0  0  0  0
    4.2899   -2.4226    0.0000 N   0  0  0  0  0  0  0  0  0  0  0  0
    3.9809   -1.4715    0.0000 C   0  0  0  0  0  0  0  0  0  0  0  0
    3.0028   -1.2636    0.0000 C   0  0  0  0  0  0  0  0  0  0  0  0
    2.6938   -0.3125    0.0000 C   0  0  0  0  0  0  0  0  0  0  0  0
    3.2858    0.5023    0.0000 C   0  0  0  0  0  0  0  0  0  0  0  0
    2.6938    1.3169    0.0000 N   0  0  0  0  0  0  0  0  0  0  0  0
    1.7360    1.0058    0.0000 C   0  0  0  0  0  0  0  0  0  0  0  0
    1.7360   -0.0012    0.0000 C   0  0  0  0  0  0  0  0  0  0  0  0
    0.8680   -0.4978    0.0000 C   0  0  0  0  0  0  0  0  0  0  0  0
    0.0000    0.0000    0.0000 C   0  0  0  0  0  0  0  0  0  0  0  0
   -0.0000    1.0058    0.0000 C   0  0  0  0  0  0  0  0  0  0  0  0
    0.8680    1.5138    0.0000 C   0  0  0  0  0  0  0  0  0  0  0  0
    0.8675   -1.4978    0.0000 O   0  0  0  0  0  0  0  0  0  0  0  0
    1.7332   -1.9983    0.0000 C   0  0  0  0  0  0  0  0  0  0  0  0
  1  2  1  0  0  0  0
  2  3  2  0  0  0  0
  2  4  1  0  0  0  0
  4  5  1  0  0  0  0
  5  6  1  0  0  0  0
  6  7  2  0  0  0  0
  6  8  1  0  0  0  0
  8  9  1  0  0  0  0
  9 10  1  0  0  0  0
 10 11  1  0  0  0  0
 11 15  1  0  0  0  0
 11 12  2  0  0  0  0
 12 13  1  0  0  0  0
 13 14  1  0  0  0  0
 14 19  2  0  0  0  0
 14 15  1  0  0  0  0
 15 16  2  0  0  0  0
 16 17  1  0  0  0  0
 17 18  2  0  0  0  0
 18 19  1  0  0  0  0
 16 20  1  0  0  0  0
 20 21  1  0  0  0  0
M  END
$$$$
s_22____13025516____1720042
  -OEChem-03222016482D

 21 22  0     0  0  0  0  0  0999 V2000
    0.0012   -1.9973    0.0000 C   0  0  0  0  0  0  0  0  0  0  0  0
    0.8675   -1.4978    0.0000 O   0  0  0  0  0  0  0  0  0  0  0  0
    0.8680   -0.4978    0.0000 C   0  0  0  0  0  0  0  0  0  0  0  0
    0.0000    0.0000    0.0000 C   0  0  0  0  0  0  0  0  0  0  0  0
   -0.0000    1.0058    0.0000 C   0  0  0  0  0  0  0  0  0  0  0  0
    0.8680    1.5138    0.0000 C   0  0  0  0  0  0  0  0  0  0  0  0
    1.7360    1.0058    0.0000 C   0  0  0  0  0  0  0  0  0  0  0  0
    1.7360   -0.0012    0.0000 C   0  0  0  0  0  0  0  0  0  0  0  0
    2.6938   -0.3125    0.0000 C   0  0  0  0  0  0  0  0  0  0  0  0
    3.2858    0.5023    0.0000 C   0  0  0  0  0  0  0  0  0  0  0  0
    2.6938    1.3169    0.0000 N   0  0  0  0  0  0  0  0  0  0  0  0
    3.0028   -1.2636    0.0000 C   0  0  0  0  0  0  0  0  0  0  0  0
    3.9809   -1.4715    0.0000 C   0  0  0  0  0  0  0  0  0  0  0  0
    4.2899   -2.4226    0.0000 N   0  0  0  0  0  0  0  0  0  0  0  0
    5.2680   -2.6306    0.0000 C   0  0  0  0  0  0  0  0  0  0  0  0
    5.9372   -1.8874    0.0000 O   0  0  0  0  0  0  0  0  0  0  0  0
    5.5770   -3.5816    0.0000 C   0  0  0  0  0  0  0  0  0  0  0  0
    6.5551   -3.7896    0.0000 C   0  0  0  0  0  0  0  0  0  0  0  0
    6.7631   -2.8115    0.0000 F   0  0  0  0  0  0  0  0  0  0  0  0
    6.3472   -4.7677    0.0000 F   0  0  0  0  0  0  0  0  0  0  0  0
    7.5333   -3.9976    0.0000 F   0  0  0  0  0  0  0  0  0  0  0  0
  1  2  1  0  0  0  0
  2  3  1  0  0  0  0
  3  8  2  0  0  0  0
  3  4  1  0  0  0  0
  4  5  2  0  0  0  0
  5  6  1  0  0  0  0
  6  7  2  0  0  0  0
  7 11  1  0  0  0  0
  7  8  1  0  0  0  0
  8  9  1  0  0  0  0
  9 10  2  0  0  0  0
 10 11  1  0  0  0  0
  9 12  1  0  0  0  0
 12 13  1  0  0  0  0
 13 14  1  0  0  0  0
 14 15  1  0  0  0  0
 15 16  2  0  0  0  0
 15 17  1  0  0  0  0
 17 18  1  0  0  0  0
 18 19  1  0  0  0  0
 18 20  1  0  0  0  0
 18 21  1  0  0  0  0
M  END
$$$$
s_512____309924____4839458
  -OEChem-03222016482D

 21 23  0     0  0  0  0  0  0999 V2000
   -1.7320   -0.0025    0.0000 C   0  0  0  0  0  0  0  0  0  0  0  0
   -0.8653   -0.5013    0.0000 O   0  0  0  0  0  0  0  0  0  0  0  0
    0.0000    0.0000    0.0000 C   0  0  0  0  0  0  0  0  0  0  0  0
   -0.0000    1.0058    0.0000 C   0  0  0  0  0  0  0  0  0  0  0  0
    0.8680    1.5138    0.0000 C   0  0  0  0  0  0  0  0  0  0  0  0
    1.7360    1.0058    0.0000 C   0  0  0  0  0  0  0  0  0  0  0  0
    1.7360   -0.0012    0.0000 C   0  0  0  0  0  0  0  0  0  0  0  0
    0.8680   -0.4978    0.0000 C   0  0  0  0  0  0  0  0  0  0  0  0
    2.6938   -0.3125    0.0000 C   0  0  0  0  0  0  0  0  0  0  0  0
    3.2858    0.5023    0.0000 C   0  0  0  0  0  0  0  0  0  0  0  0
    2.6938    1.3169    0.0000 N   0  0  0  0  0  0  0  0  0  0  0  0
    3.0028   -1.2636    0.0000 C   0  0  0  0  0  0  0  0  0  0  0  0
    3.9809   -1.4715    0.0000 C   0  0  0  0  0  0  0  0  0  0  0  0
    4.2899   -2.4226    0.0000 N   0  0  0  0  0  0  0  0  0  0  0  0
    5.2680   -2.6306    0.0000 C   0  0  0  0  0  0  0  0  0  0  0  0
    5.9372   -1.8874    0.0000 O   0  0  0  0  0  0  0  0  0  0  0  0
    5.5770   -3.5816    0.0000 N   0  0  0  0  0  0  0  0  0  0  0  0
    6.5551   -3.7896    0.0000 C   0  0  0  0  0  0  0  0  0  0  0  0
    6.8641   -4.7407    0.0000 C   0  0  0  0  0  0  0  0  0  0  0  0
    6.6568   -5.7209    0.0000 C   0  0  0  0  0  0  0  0  0  0  0  0
    7.6079   -5.4119    0.0000 C   0  0  0  0  0  0  0  0  0  0  0  0
  1  2  1  0  0  0  0
  2  3  1  0  0  0  0
  3  8  2  0  0  0  0
  3  4  1  0  0  0  0
  4  5  2  0  0  0  0
  5  6  1  0  0  0  0
  6 11  1  0  0  0  0
  6  7  2  0  0  0  0
  7  8  1  0  0  0  0
  7  9  1  0  0  0  0
  9 10  2  0  0  0  0
 10 11  1  0  0  0  0
  9 12  1  0  0  0  0
 12 13  1  0  0  0  0
 13 14  1  0  0  0  0
 14 15  1  0  0  0  0
 15 16  2  0  0  0  0
 15 17  1  0  0  0  0
 17 18  1  0  0  0  0
 18 19  1  0  0  0  0
 19 21  1  0  0  0  0
 19 20  1  0  0  0  0
 20 21  1  0  0  0  0
M  END
$$$$
s_22____13025516____12111294
  -OEChem-03222016482D

 20 21  0     1  0  0  0  0  0999 V2000
    4.9078   -4.3247    0.0000 C   0  0  0  0  0  0  0  0  0  0  0  0
    5.5770   -3.5816    0.0000 C   0  0  3  0  0  0  0  0  0  0  0  0
    6.5551   -3.7896    0.0000 C   0  0  0  0  0  0  0  0  0  0  0  0
    6.8641   -4.7407    0.0000 F   0  0  0  0  0  0  0  0  0  0  0  0
    5.2680   -2.6306    0.0000 C   0  0  0  0  0  0  0  0  0  0  0  0
    5.9372   -1.8874    0.0000 O   0  0  0  0  0  0  0  0  0  0  0  0
    4.2899   -2.4226    0.0000 N   0  0  0  0  0  0  0  0  0  0  0  0
    3.9809   -1.4715    0.0000 C   0  0  0  0  0  0  0  0  0  0  0  0
    3.0028   -1.2636    0.0000 C   0  0  0  0  0  0  0  0  0  0  0  0
    2.6938   -0.3125    0.0000 C   0  0  0  0  0  0  0  0  0  0  0  0
    3.2858    0.5023    0.0000 C   0  0  0  0  0  0  0  0  0  0  0  0
    2.6938    1.3169    0.0000 N   0  0  0  0  0  0  0  0  0  0  0  0
    1.7360    1.0058    0.0000 C   0  0  0  0  0  0  0  0  0  0  0  0
    1.7360   -0.0012    0.0000 C   0  0  0  0  0  0  0  0  0  0  0  0
    0.8680   -0.4978    0.0000 C   0  0  0  0  0  0  0  0  0  0  0  0
    0.0000    0.0000    0.0000 C   0  0  0  0  0  0  0  0  0  0  0  0
   -0.0000    1.0058    0.0000 C   0  0  0  0  0  0  0  0  0  0  0  0
    0.8680    1.5138    0.0000 C   0  0  0  0  0  0  0  0  0  0  0  0
    0.8675   -1.4978    0.0000 O   0  0  0  0  0  0  0  0  0  0  0  0
    1.7332   -1.9983    0.0000 C   0  0  0  0  0  0  0  0  0  0  0  0
  1  2  1  0  0  0  0
  2  3  1  0  0  0  0
  3  4  1  0  0  0  0
  2  5  1  0  0  0  0
  5  6  2  0  0  0  0
  5  7  1  0  0  0  0
  7  8  1  0  0  0  0
  8  9  1  0  0  0  0
  9 10  1  0  0  0  0
 10 14  1  0  0  0  0
 10 11  2  0  0  0  0
 11 12  1  0  0  0  0
 12 13  1  0  0  0  0
 13 18  2  0  0  0  0
 13 14  1  0  0  0  0
 14 15  2  0  0  0  0
 15 16  1  0  0  0  0
 16 17  2  0  0  0  0
 17 18  1  0  0  0  0
 15 19  1  0  0  0  0
 19 20  1  0  0  0  0
M  END
$$$$
s_22____13978824____12053348
  -OEChem-03222016482D

 19 20  0     0  0  0  0  0  0999 V2000
   -0.8705    2.5032    0.0000 C   0  0  0  0  0  0  0  0  0  0  0  0
   -0.8675    1.5032    0.0000 O   0  0  0  0  0  0  0  0  0  0  0  0
    0.0000    1.0058    0.0000 C   0  0  0  0  0  0  0  0  0  0  0  0
    0.0000    0.0000    0.0000 C   0  0  0  0  0  0  0  0  0  0  0  0
    0.8680   -0.4978    0.0000 C   0  0  0  0  0  0  0  0  0  0  0  0
    1.7360   -0.0012    0.0000 C   0  0  0  0  0  0  0  0  0  0  0  0
    1.7360    1.0058    0.0000 C   0  0  0  0  0  0  0  0  0  0  0  0
    0.8680    1.5138    0.0000 C   0  0  0  0  0  0  0  0  0  0  0  0
    2.6938    1.3169    0.0000 N   0  0  0  0  0  0  0  0  0  0  0  0
    3.2858    0.5023    0.0000 C   0  0  0  0  0  0  0  0  0  0  0  0
    2.6938   -0.3125    0.0000 C   0  0  0  0  0  0  0  0  0  0  0  0
    3.0028   -1.2636    0.0000 C   0  0  0  0  0  0  0  0  0  0  0  0
    3.9809   -1.4715    0.0000 C   0  0  0  0  0  0  0  0  0  0  0  0
    4.2899   -2.4226    0.0000 N   0  0  0  0  0  0  0  0  0  0  0  0
    5.2680   -2.6306    0.0000 C   0  0  0  0  0  0  0  0  0  0  0  0
    5.9372   -1.8874    0.0000 O   0  0  0  0  0  0  0  0  0  0  0  0
    5.5770   -3.5816    0.0000 C   0  0  0  0  0  0  0  0  0  0  0  0
    4.9078   -4.3247    0.0000 O   0  0  0  0  0  0  0  0  0  0  0  0
    6.5551   -3.7896    0.0000 N   0  0  0  0  0  0  0  0  0  0  0  0
  1  2  1  0  0  0  0
  2  3  1  0  0  0  0
  3  8  2  0  0  0  0
  3  4  1  0  0  0  0
  4  5  2  0  0  0  0
  5  6  1  0  0  0  0
  6 11  1  0  0  0  0
  6  7  2  0  0  0  0
  7  8  1  0  0  0  0
  7  9  1  0  0  0  0
  9 10  1  0  0  0  0
 10 11  2  0  0  0  0
 11 12  1  0  0  0  0
 12 13  1  0  0  0  0
 13 14  1  0  0  0  0
 14 15  1  0  0  0  0
 15 16  2  0  0  0  0
 15 17  1  0  0  0  0
 17 18  2  0  0  0  0
 17 19  1  0  0  0  0
M  END
$$$$
s_272164____14971800____17338548
  -OEChem-03222016482D

 21 22  0     0  0  0  0  0  0999 V2000
    4.9078   -4.3247    0.0000 C   0  0  0  0  0  0  0  0  0  0  0  0
    5.5770   -3.5816    0.0000 N   0  0  0  0  0  0  0  0  0  0  0  0
    6.5551   -3.7896    0.0000 C   0  0  0  0  0  0  0  0  0  0  0  0
    6.8641   -4.7407    0.0000 C   0  0  0  0  0  0  0  0  0  0  0  0
    7.1731   -5.6917    0.0000 N   0  0  0  0  0  0  0  0  0  0  0  0
    5.2680   -2.6306    0.0000 C   0  0  0  0  0  0  0  0  0  0  0  0
    5.9372   -1.8874    0.0000 O   0  0  0  0  0  0  0  0  0  0  0  0
    4.2899   -2.4226    0.0000 N   0  0  0  0  0  0  0  0  0  0  0  0
    3.9809   -1.4715    0.0000 C   0  0  0  0  0  0  0  0  0  0  0  0
    3.0028   -1.2636    0.0000 C   0  0  0  0  0  0  0  0  0  0  0  0
    2.6938   -0.3125    0.0000 C   0  0  0  0  0  0  0  0  0  0  0  0
    3.2858    0.5023    0.0000 C   0  0  0  0  0  0  0  0  0  0  0  0
    2.6938    1.3169    0.0000 N   0  0  0  0  0  0  0  0  0  0  0  0
    1.7360    1.0058    0.0000 C   0  0  0  0  0  0  0  0  0  0  0  0
    1.7360   -0.0012    0.0000 C   0  0  0  0  0  0  0  0  0  0  0  0
    0.8680   -0.4978    0.0000 C   0  0  0  0  0  0  0  0  0  0  0  0
    0.0000    0.0000    0.0000 C   0  0  0  0  0  0  0  0  0  0  0  0
   -0.0000    1.0058    0.0000 C   0  0  0  0  0  0  0  0  0  0  0  0
    0.8680    1.5138    0.0000 C   0  0  0  0  0  0  0  0  0  0  0  0
    0.8675   -1.4978    0.0000 O   0  0  0  0  0  0  0  0  0  0  0  0
    1.7332   -1.9983    0.0000 C   0  0  0  0  0  0  0  0  0  0  0  0
  1  2  1  0  0  0  0
  2  3  1  0  0  0  0
  3  4  1  0  0  0  0
  4  5  3  0  0  0  0
  2  6  1  0  0  0  0
  6  7  2  0  0  0  0
  6  8  1  0  0  0  0
  8  9  1  0  0  0  0
  9 10  1  0  0  0  0
 10 11  1  0  0  0  0
 11 15  1  0  0  0  0
 11 12  2  0  0  0  0
 12 13  1  0  0  0  0
 13 14  1  0  0  0  0
 14 19  2  0  0  0  0
 14 15  1  0  0  0  0
 15 16  2  0  0  0  0
 16 17  1  0  0  0  0
 17 18  2  0  0  0  0
 18 19  1  0  0  0  0
 16 20  1  0  0  0  0
 20 21  1  0  0  0  0
M  END
$$$$
s_22____15144084____58844
  -OEChem-03222016482D

 17 18  0     0  0  0  0  0  0999 V2000
    5.5770   -3.5816    0.0000 C   0  0  0  0  0  0  0  0  0  0  0  0
    5.2680   -2.6306    0.0000 C   0  0  0  0  0  0  0  0  0  0  0  0
    5.9372   -1.8874    0.0000 O   0  0  0  0  0  0  0  0  0  0  0  0
    4.2899   -2.4226    0.0000 N   0  0  0  0  0  0  0  0  0  0  0  0
    3.9809   -1.4715    0.0000 C   0  0  0  0  0  0  0  0  0  0  0  0
    3.0028   -1.2636    0.0000 C   0  0  0  0  0  0  0  0  0  0  0  0
    2.6938   -0.3125    0.0000 C   0  0  0  0  0  0  0  0  0  0  0  0
    3.2858    0.5023    0.0000 C   0  0  0  0  0  0  0  0  0  0  0  0
    2.6938    1.3169    0.0000 N   0  0  0  0  0  0  0  0  0  0  0  0
    1.7360    1.0058    0.0000 C   0  0  0  0  0  0  0  0  0  0  0  0
    1.7360   -0.0012    0.0000 C   0  0  0  0  0  0  0  0  0  0  0  0
    0.8680   -0.4978    0.0000 C   0  0  0  0  0  0  0  0  0  0  0  0
    0.0000    0.0000    0.0000 C   0  0  0  0  0  0  0  0  0  0  0  0
   -0.0000    1.0058    0.0000 C   0  0  0  0  0  0  0  0  0  0  0  0
    0.8680    1.5138    0.0000 C   0  0  0  0  0  0  0  0  0  0  0  0
   -0.8675    1.5032    0.0000 F   0  0  0  0  0  0  0  0  0  0  0  0
    0.8675   -1.4978    0.0000 F   0  0  0  0  0  0  0  0  0  0  0  0
  1  2  1  0  0  0  0
  2  3  2  0  0  0  0
  2  4  1  0  0  0  0
  4  5  1  0  0  0  0
  5  6  1  0  0  0  0
  6  7  1  0  0  0  0
  7 11  1  0  0  0  0
  7  8  2  0  0  0  0
  8  9  1  0  0  0  0
  9 10  1  0  0  0  0
 10 15  2  0  0  0  0
 10 11  1  0  0  0  0
 11 12  2  0  0  0  0
 12 13  1  0  0  0  0
 13 14  2  0  0  0  0
 14 15  1  0  0  0  0
 14 16  1  0  0  0  0
 12 17  1  0  0  0  0
M  END
$$$$
s_22____9156166____337030
  -OEChem-03222016482D

 18 19  0     0  0  0  0  0  0999 V2000
   -0.8675    1.5032    0.0000 C   0  0  0  0  0  0  0  0  0  0  0  0
    0.0000    1.0058    0.0000 C   0  0  0  0  0  0  0  0  0  0  0  0
    0.0000    0.0000    0.0000 C   0  0  0  0  0  0  0  0  0  0  0  0
    0.8680   -0.4978    0.0000 C   0  0  0  0  0  0  0  0  0  0  0  0
    1.7360   -0.0012    0.0000 C   0  0  0  0  0  0  0  0  0  0  0  0
    1.7360    1.0058    0.0000 C   0  0  0  0  0  0  0  0  0  0  0  0
    0.8680    1.5138    0.0000 C   0  0  0  0  0  0  0  0  0  0  0  0
    2.6938    1.3169    0.0000 N   0  0  0  0  0  0  0  0  0  0  0  0
    3.2858    0.5023    0.0000 C   0  0  0  0  0  0  0  0  0  0  0  0
    2.6938   -0.3125    0.0000 C   0  0  0  0  0  0  0  0  0  0  0  0
    3.0028   -1.2636    0.0000 C   0  0  0  0  0  0  0  0  0  0  0  0
    3.9809   -1.4715    0.0000 C   0  0  0  0  0  0  0  0  0  0  0  0
    4.2899   -2.4226    0.0000 N   0  0  0  0  0  0  0  0  0  0  0  0
    5.2680   -2.6306    0.0000 C   0  0  0  0  0  0  0  0  0  0  0  0
    5.9372   -1.8874    0.0000 O   0  0  0  0  0  0  0  0  0  0  0  0
    5.5770   -3.5816    0.0000 C   0  0  0  0  0  0  0  0  0  0  0  0
    6.5551   -3.7896    0.0000 C   0  0  0  0  0  0  0  0  0  0  0  0
    4.9078   -4.3247    0.0000 C   0  0  0  0  0  0  0  0  0  0  0  0
  1  2  1  0  0  0  0
  2  7  2  0  0  0  0
  2  3  1  0  0  0  0
  3  4  2  0  0  0  0
  4  5  1  0  0  0  0
  5 10  1  0  0  0  0
  5  6  2  0  0  0  0
  6  7  1  0  0  0  0
  6  8  1  0  0  0  0
  8  9  1  0  0  0  0
  9 10  2  0  0  0  0
 10 11  1  0  0  0  0
 11 12  1  0  0  0  0
 12 13  1  0  0  0  0
 13 14  1  0  0  0  0
 14 15  2  0  0  0  0
 14 16  1  0  0  0  0
 16 17  1  0  0  0  0
 16 18  1  0  0  0  0
M  END
$$$$
s_22____8124972____58844
  -OEChem-03222016482D

 17 18  0     1  0  0  0  0  0999 V2000
   -0.2918   -2.3339    0.0000 C   0  0  0  0  0  0  0  0  0  0  0  0
    0.6863   -2.5418    0.0000 C   0  0  0  0  0  0  0  0  0  0  0  0
    0.9953   -3.4929    0.0000 O   0  0  0  0  0  0  0  0  0  0  0  0
    1.3555   -1.7987    0.0000 N   0  0  0  0  0  0  0  0  0  0  0  0
    2.3336   -2.0067    0.0000 C   0  0  3  0  0  0  0  0  0  0  0  0
    3.0028   -1.2636    0.0000 C   0  0  0  0  0  0  0  0  0  0  0  0
    2.6938   -0.3125    0.0000 C   0  0  0  0  0  0  0  0  0  0  0  0
    3.2858    0.5023    0.0000 C   0  0  0  0  0  0  0  0  0  0  0  0
    2.6938    1.3169    0.0000 N   0  0  0  0  0  0  0  0  0  0  0  0
    1.7360    1.0058    0.0000 C   0  0  0  0  0  0  0  0  0  0  0  0
    1.7360   -0.0012    0.0000 C   0  0  0  0  0  0  0  0  0  0  0  0
    0.8680   -0.4978    0.0000 C   0  0  0  0  0  0  0  0  0  0  0  0
    0.0000    0.0000    0.0000 C   0  0  0  0  0  0  0  0  0  0  0  0
   -0.0000    1.0058    0.0000 C   0  0  0  0  0  0  0  0  0  0  0  0
    0.8680    1.5138    0.0000 C   0  0  0  0  0  0  0  0  0  0  0  0
    2.6426   -2.9578    0.0000 C   0  0  0  0  0  0  0  0  0  0  0  0
    3.6207   -3.1657    0.0000 O   0  0  0  0  0  0  0  0  0  0  0  0
  1  2  1  0  0  0  0
  2  3  2  0  0  0  0
  2  4  1  0  0  0  0
  4  5  1  0  0  0  0
  5  6  1  0  0  0  0
  6  7  1  0  0  0  0
  7 11  1  0  0  0  0
  7  8  2  0  0  0  0
  8  9  1  0  0  0  0
  9 10  1  0  0  0  0
 10 15  2  0  0  0  0
 10 11  1  0  0  0  0
 11 12  2  0  0  0  0
 12 13  1  0  0  0  0
 13 14  2  0  0  0  0
 14 15  1  0  0  0  0
  5 16  1  0  0  0  0
 16 17  1  0  0  0  0
M  END
$$$$
s_240690b____11689238____3025692
  -OEChem-03222016482D

 18 19  0     1  0  0  0  0  0999 V2000
   -0.8675    1.5032    0.0000 C   0  0  0  0  0  0  0  0  0  0  0  0
    0.0000    1.0058    0.0000 C   0  0  0  0  0  0  0  0  0  0  0  0
    0.0000    0.0000    0.0000 C   0  0  0  0  0  0  0  0  0  0  0  0
    0.8680   -0.4978    0.0000 C   0  0  0  0  0  0  0  0  0  0  0  0
    1.7360   -0.0012    0.0000 C   0  0  0  0  0  0  0  0  0  0  0  0
    1.7360    1.0058    0.0000 C   0  0  0  0  0  0  0  0  0  0  0  0
    0.8680    1.5138    0.0000 C   0  0  0  0  0  0  0  0  0  0  0  0
    2.6938    1.3169    0.0000 N   0  0  0  0  0  0  0  0  0  0  0  0
    3.2858    0.5023    0.0000 C   0  0  0  0  0  0  0  0  0  0  0  0
    2.6938   -0.3125    0.0000 C   0  0  0  0  0  0  0  0  0  0  0  0
    3.0028   -1.2636    0.0000 C   0  0  0  0  0  0  0  0  0  0  0  0
    3.9809   -1.4715    0.0000 C   0  0  0  0  0  0  0  0  0  0  0  0
    4.2899   -2.4226    0.0000 N   0  0  0  0  0  0  0  0  0  0  0  0
    5.2680   -2.6306    0.0000 C   0  0  0  0  0  0  0  0  0  0  0  0
    5.9372   -1.8874    0.0000 O   0  0  0  0  0  0  0  0  0  0  0  0
    5.5770   -3.5816    0.0000 C   0  0  3  0  0  0  0  0  0  0  0  0
    6.5551   -3.7896    0.0000 C   0  0  0  0  0  0  0  0  0  0  0  0
    4.9078   -4.3247    0.0000 N   0  3  0  0  0  0  0  0  0  0  0  0
  1  2  1  0  0  0  0
  2  7  2  0  0  0  0
  2  3  1  0  0  0  0
  3  4  2  0  0  0  0
  4  5  1  0  0  0  0
  5 10  1  0  0  0  0
  5  6  2  0  0  0  0
  6  7  1  0  0  0  0
  6  8  1  0  0  0  0
  8  9  1  0  0  0  0
  9 10  2  0  0  0  0
 10 11  1  0  0  0  0
 11 12  1  0  0  0  0
 12 13  1  0  0  0  0
 13 14  1  0  0  0  0
 14 15  2  0  0  0  0
 14 16  1  0  0  0  0
 16 17  1  0  0  0  0
 16 18  1  0  0  0  0
M  CHG  1  18   1
M  END
$$$$
s_22____13771018____337030
  -OEChem-03222016482D

 21 22  0     0  0  0  0  0  0999 V2000
   -3.4641   -0.0050    0.0000 C   0  0  0  0  0  0  0  0  0  0  0  0
   -2.5974   -0.5038    0.0000 C   0  0  0  0  0  0  0  0  0  0  0  0
   -1.7320   -0.0025    0.0000 C   0  0  0  0  0  0  0  0  0  0  0  0
   -0.8653   -0.5013    0.0000 O   0  0  0  0  0  0  0  0  0  0  0  0
    0.0000    0.0000    0.0000 C   0  0  0  0  0  0  0  0  0  0  0  0
   -0.0000    1.0058    0.0000 C   0  0  0  0  0  0  0  0  0  0  0  0
    0.8680    1.5138    0.0000 C   0  0  0  0  0  0  0  0  0  0  0  0
    1.7360    1.0058    0.0000 C   0  0  0  0  0  0  0  0  0  0  0  0
    1.7360   -0.0012    0.0000 C   0  0  0  0  0  0  0  0  0  0  0  0
    0.8680   -0.4978    0.0000 C   0  0  0  0  0  0  0  0  0  0  0  0
    2.6938   -0.3125    0.0000 C   0  0  0  0  0  0  0  0  0  0  0  0
    3.2858    0.5023    0.0000 C   0  0  0  0  0  0  0  0  0  0  0  0
    2.6938    1.3169    0.0000 N   0  0  0  0  0  0  0  0  0  0  0  0
    3.0028   -1.2636    0.0000 C   0  0  0  0  0  0  0  0  0  0  0  0
    3.9809   -1.4715    0.0000 C   0  0  0  0  0  0  0  0  0  0  0  0
    4.2899   -2.4226    0.0000 N   0  0  0  0  0  0  0  0  0  0  0  0
    5.2680   -2.6306    0.0000 C   0  0  0  0  0  0  0  0  0  0  0  0
    5.9372   -1.8874    0.0000 O   0  0  0  0  0  0  0  0  0  0  0  0
    5.5770   -3.5816    0.0000 C   0  0  0  0  0  0  0  0  0  0  0  0
    6.5551   -3.7896    0.0000 C   0  0  0  0  0  0  0  0  0  0  0  0
    4.9078   -4.3247    0.0000 C   0  0  0  0  0  0  0  0  0  0  0  0
  1  2  1  0  0  0  0
  2  3  1  0  0  0  0
  3  4  1  0  0  0  0
  4  5  1  0  0  0  0
  5 10  2  0  0  0  0
  5  6  1  0  0  0  0
  6  7  2  0  0  0  0
  7  8  1  0  0  0  0
  8 13  1  0  0  0  0
  8  9  2  0  0  0  0
  9 10  1  0  0  0  0
  9 11  1  0  0  0  0
 11 12  2  0  0  0  0
 12 13  1  0  0  0  0
 11 14  1  0  0  0  0
 14 15  1  0  0  0  0
 15 16  1  0  0  0  0
 16 17  1  0  0  0  0
 17 18  2  0  0  0  0
 17 19  1  0  0  0  0
 19 20  1  0  0  0  0
 19 21  1  0  0  0  0
M  END
$$$$
s_270062____12637938____8147258
  -OEChem-03222016482D

 19 20  0     0  0  0  0  0  0999 V2000
    3.9538   -0.9546    0.0000 C   0  0  0  0  0  0  0  0  0  0  0  0
    3.0028   -1.2636    0.0000 C   0  0  0  0  0  0  0  0  0  0  0  0
    2.0517   -1.5725    0.0000 C   0  0  0  0  0  0  0  0  0  0  0  0
    3.3117   -2.2146    0.0000 C   0  0  0  0  0  0  0  0  0  0  0  0
    4.2899   -2.4226    0.0000 N   0  0  0  0  0  0  0  0  0  0  0  0
    4.5989   -3.3737    0.0000 C   0  0  0  0  0  0  0  0  0  0  0  0
    3.9297   -4.1168    0.0000 O   0  0  0  0  0  0  0  0  0  0  0  0
    5.5770   -3.5816    0.0000 C   0  0  0  0  0  0  0  0  0  0  0  0
    5.8860   -4.5327    0.0000 Cl  0  0  0  0  0  0  0  0  0  0  0  0
    2.6938   -0.3125    0.0000 C   0  0  0  0  0  0  0  0  0  0  0  0
    3.2858    0.5023    0.0000 C   0  0  0  0  0  0  0  0  0  0  0  0
    2.6938    1.3169    0.0000 N   0  0  0  0  0  0  0  0  0  0  0  0
    1.7360    1.0058    0.0000 C   0  0  0  0  0  0  0  0  0  0  0  0
    1.7360   -0.0012    0.0000 C   0  0  0  0  0  0  0  0  0  0  0  0
    0.8680   -0.4978    0.0000 C   0  0  0  0  0  0  0  0  0  0  0  0
    0.0000    0.0000    0.0000 C   0  0  0  0  0  0  0  0  0  0  0  0
   -0.0000    1.0058    0.0000 C   0  0  0  0  0  0  0  0  0  0  0  0
    0.8680    1.5138    0.0000 C   0  0  0  0  0  0  0  0  0  0  0  0
   -0.8675    1.5032    0.0000 F   0  0  0  0  0  0  0  0  0  0  0  0
  1  2  1  0  0  0  0
  2  3  1  0  0  0  0
  2  4  1  0  0  0  0
  4  5  1  0  0  0  0
  5  6  1  0  0  0  0
  6  7  2  0  0  0  0
  6  8  1  0  0  0  0
  8  9  1  0  0  0  0
  2 10  1  0  0  0  0
 10 14  1  0  0  0  0
 10 11  2  0  0  0  0
 11 12  1  0  0  0  0
 12 13  1  0  0  0  0
 13 18  2  0  0  0  0
 13 14  1  0  0  0  0
 14 15  2  0  0  0  0
 15 16  1  0  0  0  0
 16 17  2  0  0  0  0
 17 18  1  0  0  0  0
 17 19  1  0  0  0  0
M  END
$$$$
s_512____11969934____13025528
  -OEChem-03222016482D

 21 22  0     0  0  0  0  0  0999 V2000
    0.0012   -1.9973    0.0000 C   0  0  0  0  0  0  0  0  0  0  0  0
    0.8675   -1.4978    0.0000 O   0  0  0  0  0  0  0  0  0  0  0  0
    0.8680   -0.4978    0.0000 C   0  0  0  0  0  0  0  0  0  0  0  0
    0.0000    0.0000    0.0000 C   0  0  0  0  0  0  0  0  0  0  0  0
   -0.0000    1.0058    0.0000 C   0  0  0  0  0  0  0  0  0  0  0  0
    0.8680    1.5138    0.0000 C   0  0  0  0  0  0  0  0  0  0  0  0
    1.7360    1.0058    0.0000 C   0  0  0  0  0  0  0  0  0  0  0  0
    1.7360   -0.0012    0.0000 C   0  0  0  0  0  0  0  0  0  0  0  0
    2.6938   -0.3125    0.0000 C   0  0  0  0  0  0  0  0  0  0  0  0
    3.2858    0.5023    0.0000 C   0  0  0  0  0  0  0  0  0  0  0  0
    2.6938    1.3169    0.0000 N   0  0  0  0  0  0  0  0  0  0  0  0
    3.0028   -1.2636    0.0000 C   0  0  0  0  0  0  0  0  0  0  0  0
    3.9809   -1.4715    0.0000 C   0  0  0  0  0  0  0  0  0  0  0  0
    4.2899   -2.4226    0.0000 N   0  0  0  0  0  0  0  0  0  0  0  0
    5.2680   -2.6306    0.0000 C   0  0  0  0  0  0  0  0  0  0  0  0
    5.9372   -1.8874    0.0000 O   0  0  0  0  0  0  0  0  0  0  0  0
    5.5770   -3.5816    0.0000 N   0  0  0  0  0  0  0  0  0  0  0  0
    6.5551   -3.7896    0.0000 C   0  0  0  0  0  0  0  0  0  0  0  0
    6.8641   -4.7407    0.0000 C   0  0  0  0  0  0  0  0  0  0  0  0
    7.8422   -4.9486    0.0000 C   0  0  0  0  0  0  0  0  0  0  0  0
    8.1512   -5.8997    0.0000 C   0  0  0  0  0  0  0  0  0  0  0  0
  1  2  1  0  0  0  0
  2  3  1  0  0  0  0
  3  8  2  0  0  0  0
  3  4  1  0  0  0  0
  4  5  2  0  0  0  0
  5  6  1  0  0  0  0
  6  7  2  0  0  0  0
  7 11  1  0  0  0  0
  7  8  1  0  0  0  0
  8  9  1  0  0  0  0
  9 10  2  0  0  0  0
 10 11  1  0  0  0  0
  9 12  1  0  0  0  0
 12 13  1  0  0  0  0
 13 14  1  0  0  0  0
 14 15  1  0  0  0  0
 15 16  2  0  0  0  0
 15 17  1  0  0  0  0
 17 18  1  0  0  0  0
 18 19  1  0  0  0  0
 19 20  1  0  0  0  0
 20 21  2  0  0  0  0
M  END
$$$$
s_22____9631354____60364
  -OEChem-03222016482D

 18 19  0     0  0  0  0  0  0999 V2000
    6.8641   -4.7407    0.0000 C   0  0  0  0  0  0  0  0  0  0  0  0
    6.5551   -3.7896    0.0000 S   0  0  0  0  0  0  0  0  0  0  0  0
    5.5770   -3.5816    0.0000 C   0  0  0  0  0  0  0  0  0  0  0  0
    5.2680   -2.6306    0.0000 C   0  0  0  0  0  0  0  0  0  0  0  0
    5.9372   -1.8874    0.0000 O   0  0  0  0  0  0  0  0  0  0  0  0
    4.2899   -2.4226    0.0000 N   0  0  0  0  0  0  0  0  0  0  0  0
    3.9809   -1.4715    0.0000 C   0  0  0  0  0  0  0  0  0  0  0  0
    3.0028   -1.2636    0.0000 C   0  0  0  0  0  0  0  0  0  0  0  0
    2.6938   -0.3125    0.0000 C   0  0  0  0  0  0  0  0  0  0  0  0
    3.2858    0.5023    0.0000 C   0  0  0  0  0  0  0  0  0  0  0  0
    2.6938    1.3169    0.0000 N   0  0  0  0  0  0  0  0  0  0  0  0
    1.7360    1.0058    0.0000 C   0  0  0  0  0  0  0  0  0  0  0  0
    1.7360   -0.0012    0.0000 C   0  0  0  0  0  0  0  0  0  0  0  0
    0.8680   -0.4978    0.0000 C   0  0  0  0  0  0  0  0  0  0  0  0
    0.0000    0.0000    0.0000 C   0  0  0  0  0  0  0  0  0  0  0  0
   -0.0000    1.0058    0.0000 C   0  0  0  0  0  0  0  0  0  0  0  0
    0.8680    1.5138    0.0000 C   0  0  0  0  0  0  0  0  0  0  0  0
   -0.8653   -0.5013    0.0000 F   0  0  0  0  0  0  0  0  0  0  0  0
  1  2  1  0  0  0  0
  2  3  1  0  0  0  0
  3  4  1  0  0  0  0
  4  5  2  0  0  0  0
  4  6  1  0  0  0  0
  6  7  1  0  0  0  0
  7  8  1  0  0  0  0
  8  9  1  0  0  0  0
  9 13  1  0  0  0  0
  9 10  2  0  0  0  0
 10 11  1  0  0  0  0
 11 12  1  0  0  0  0
 12 17  2  0  0  0  0
 12 13  1  0  0  0  0
 13 14  2  0  0  0  0
 14 15  1  0  0  0  0
 15 16  2  0  0  0  0
 16 17  1  0  0  0  0
 15 18  1  0  0  0  0
M  END
$$$$
s_240690b____12854120____13151248
  -OEChem-03222016482D

 18 19  0     0  0  0  0  0  0999 V2000
   -0.0000    1.0058    0.0000 C   0  0  0  0  0  0  0  0  0  0  0  0
    0.8680    1.5138    0.0000 C   0  0  0  0  0  0  0  0  0  0  0  0
    1.7360    1.0058    0.0000 C   0  0  0  0  0  0  0  0  0  0  0  0
    1.7360   -0.0012    0.0000 C   0  0  0  0  0  0  0  0  0  0  0  0
    0.8680   -0.4978    0.0000 C   0  0  0  0  0  0  0  0  0  0  0  0
    0.0000    0.0000    0.0000 C   0  0  0  0  0  0  0  0  0  0  0  0
   -0.8653   -0.5013    0.0000 Br  0  0  0  0  0  0  0  0  0  0  0  0
    2.6938   -0.3125    0.0000 C   0  0  0  0  0  0  0  0  0  0  0  0
    3.2858    0.5023    0.0000 C   0  0  0  0  0  0  0  0  0  0  0  0
    2.6938    1.3169    0.0000 N   0  0  0  0  0  0  0  0  0  0  0  0
    3.0028   -1.2636    0.0000 C   0  0  0  0  0  0  0  0  0  0  0  0
    3.9809   -1.4715    0.0000 C   0  0  0  0  0  0  0  0  0  0  0  0
    4.2899   -2.4226    0.0000 N   0  0  0  0  0  0  0  0  0  0  0  0
    5.2680   -2.6306    0.0000 C   0  0  0  0  0  0  0  0  0  0  0  0
    5.9372   -1.8874    0.0000 O   0  0  0  0  0  0  0  0  0  0  0  0
    5.5770   -3.5816    0.0000 C   0  0  0  0  0  0  0  0  0  0  0  0
    6.5551   -3.7896    0.0000 O   0  0  0  0  0  0  0  0  0  0  0  0
    6.8641   -4.7407    0.0000 N   0  0  0  0  0  0  0  0  0  0  0  0
  1  6  2  0  0  0  0
  1  2  1  0  0  0  0
  2  3  2  0  0  0  0
  3 10  1  0  0  0  0
  3  4  1  0  0  0  0
  4  5  2  0  0  0  0
  5  6  1  0  0  0  0
  6  7  1  0  0  0  0
  4  8  1  0  0  0  0
  8  9  2  0  0  0  0
  9 10  1  0  0  0  0
  8 11  1  0  0  0  0
 11 12  1  0  0  0  0
 12 13  1  0  0  0  0
 13 14  1  0  0  0  0
 14 15  2  0  0  0  0
 14 16  1  0  0  0  0
 16 17  1  0  0  0  0
 17 18  1  0  0  0  0
M  END
$$$$
s_22____5635330____58887
  -OEChem-03222016482D

 17 18  0     0  0  0  0  0  0999 V2000
    1.6132   -5.3951    0.0000 C   0  0  0  0  0  0  0  0  0  0  0  0
    2.2824   -4.6519    0.0000 C   0  0  0  0  0  0  0  0  0  0  0  0
    1.9734   -3.7009    0.0000 C   0  0  0  0  0  0  0  0  0  0  0  0
    0.9953   -3.4929    0.0000 O   0  0  0  0  0  0  0  0  0  0  0  0
    2.6426   -2.9578    0.0000 N   0  0  0  0  0  0  0  0  0  0  0  0
    2.3336   -2.0067    0.0000 C   0  0  0  0  0  0  0  0  0  0  0  0
    3.0028   -1.2636    0.0000 C   0  0  0  0  0  0  0  0  0  0  0  0
    2.6938   -0.3125    0.0000 C   0  0  0  0  0  0  0  0  0  0  0  0
    3.2858    0.5023    0.0000 C   0  0  0  0  0  0  0  0  0  0  0  0
    2.6938    1.3169    0.0000 N   0  0  0  0  0  0  0  0  0  0  0  0
    1.7360    1.0058    0.0000 C   0  0  0  0  0  0  0  0  0  0  0  0
    1.7360   -0.0012    0.0000 C   0  0  0  0  0  0  0  0  0  0  0  0
    0.8680   -0.4978    0.0000 C   0  0  0  0  0  0  0  0  0  0  0  0
    0.0000    0.0000    0.0000 C   0  0  0  0  0  0  0  0  0  0  0  0
   -0.0000    1.0058    0.0000 C   0  0  0  0  0  0  0  0  0  0  0  0
    0.8680    1.5138    0.0000 C   0  0  0  0  0  0  0  0  0  0  0  0
    0.8680    2.5138    0.0000 C   0  0  0  0  0  0  0  0  0  0  0  0
  1  2  1  0  0  0  0
  2  3  1  0  0  0  0
  3  4  2  0  0  0  0
  3  5  1  0  0  0  0
  5  6  1  0  0  0  0
  6  7  1  0  0  0  0
  7  8  1  0  0  0  0
  8 12  1  0  0  0  0
  8  9  2  0  0  0  0
  9 10  1  0  0  0  0
 10 11  1  0  0  0  0
 11 16  2  0  0  0  0
 11 12  1  0  0  0  0
 12 13  2  0  0  0  0
 13 14  1  0  0  0  0
 14 15  2  0  0  0  0
 15 16  1  0  0  0  0
 16 17  1  0  0  0  0
M  END
$$$$
s_240690b____11689208____13151248
  -OEChem-03222016482D

 17 18  0     0  0  0  0  0  0999 V2000
    0.0000    0.0000    0.0000 C   0  0  0  0  0  0  0  0  0  0  0  0
   -0.0000    1.0058    0.0000 C   0  0  0  0  0  0  0  0  0  0  0  0
    0.8680    1.5138    0.0000 C   0  0  0  0  0  0  0  0  0  0  0  0
    1.7360    1.0058    0.0000 C   0  0  0  0  0  0  0  0  0  0  0  0
    1.7360   -0.0012    0.0000 C   0  0  0  0  0  0  0  0  0  0  0  0
    0.8680   -0.4978    0.0000 C   0  0  0  0  0  0  0  0  0  0  0  0
    2.6938   -0.3125    0.0000 C   0  0  0  0  0  0  0  0  0  0  0  0
    3.2858    0.5023    0.0000 C   0  0  0  0  0  0  0  0  0  0  0  0
    2.6938    1.3169    0.0000 N   0  0  0  0  0  0  0  0  0  0  0  0
    4.2858    0.5024    0.0000 C   0  0  0  0  0  0  0  0  0  0  0  0
    4.7857    1.3684    0.0000 C   0  0  0  0  0  0  0  0  0  0  0  0
    5.7857    1.3685    0.0000 N   0  0  0  0  0  0  0  0  0  0  0  0
    6.2857    2.2345    0.0000 C   0  0  0  0  0  0  0  0  0  0  0  0
    5.7856    3.1005    0.0000 O   0  0  0  0  0  0  0  0  0  0  0  0
    7.2857    2.2346    0.0000 C   0  0  0  0  0  0  0  0  0  0  0  0
    7.7856    3.1006    0.0000 O   0  0  0  0  0  0  0  0  0  0  0  0
    8.7856    3.1007    0.0000 N   0  0  0  0  0  0  0  0  0  0  0  0
  1  6  2  0  0  0  0
  1  2  1  0  0  0  0
  2  3  2  0  0  0  0
  3  4  1  0  0  0  0
  4  9  1  0  0  0  0
  4  5  2  0  0  0  0
  5  6  1  0  0  0  0
  5  7  1  0  0  0  0
  7  8  2  0  0  0  0
  8  9  1  0  0  0  0
  8 10  1  0  0  0  0
 10 11  1  0  0  0  0
 11 12  1  0  0  0  0
 12 13  1  0  0  0  0
 13 14  2  0  0  0  0
 13 15  1  0  0  0  0
 15 16  1  0  0  0  0
 16 17  1  0  0  0  0
M  END
$$$$
s_270062____13612044____8147258
  -OEChem-03222016482D

 17 18  0     0  0  0  0  0  0999 V2000
   -0.8653   -0.5013    0.0000 C   0  0  0  0  0  0  0  0  0  0  0  0
    0.0000    0.0000    0.0000 C   0  0  0  0  0  0  0  0  0  0  0  0
   -0.0000    1.0058    0.0000 C   0  0  0  0  0  0  0  0  0  0  0  0
    0.8680    1.5138    0.0000 C   0  0  0  0  0  0  0  0  0  0  0  0
    1.7360    1.0058    0.0000 C   0  0  0  0  0  0  0  0  0  0  0  0
    1.7360   -0.0012    0.0000 C   0  0  0  0  0  0  0  0  0  0  0  0
    0.8680   -0.4978    0.0000 C   0  0  0  0  0  0  0  0  0  0  0  0
    2.6938   -0.3125    0.0000 C   0  0  0  0  0  0  0  0  0  0  0  0
    3.2858    0.5023    0.0000 C   0  0  0  0  0  0  0  0  0  0  0  0
    2.6938    1.3169    0.0000 N   0  0  0  0  0  0  0  0  0  0  0  0
    3.0028   -1.2636    0.0000 C   0  0  0  0  0  0  0  0  0  0  0  0
    3.9809   -1.4715    0.0000 C   0  0  0  0  0  0  0  0  0  0  0  0
    4.2899   -2.4226    0.0000 N   0  0  0  0  0  0  0  0  0  0  0  0
    5.2680   -2.6306    0.0000 C   0  0  0  0  0  0  0  0  0  0  0  0
    5.9372   -1.8874    0.0000 O   0  0  0  0  0  0  0  0  0  0  0  0
    5.5770   -3.5816    0.0000 C   0  0  0  0  0  0  0  0  0  0  0  0
    6.5551   -3.7896    0.0000 Cl  0  0  0  0  0  0  0  0  0  0  0  0
  1  2  1  0  0  0  0
  2  7  2  0  0  0  0
  2  3  1  0  0  0  0
  3  4  2  0  0  0  0
  4  5  1  0  0  0  0
  5 10  1  0  0  0  0
  5  6  2  0  0  0  0
  6  7  1  0  0  0  0
  6  8  1  0  0  0  0
  8  9  2  0  0  0  0
  9 10  1  0  0  0  0
  8 11  1  0  0  0  0
 11 12  1  0  0  0  0
 12 13  1  0  0  0  0
 13 14  1  0  0  0  0
 14 15  2  0  0  0  0
 14 16  1  0  0  0  0
 16 17  1  0  0  0  0
M  END
$$$$
s_512____15075154____13025528
  -OEChem-03222016482D

 21 22  0     0  0  0  0  0  0999 V2000
    0.0012   -1.9973    0.0000 C   0  0  0  0  0  0  0  0  0  0  0  0
    0.8675   -1.4978    0.0000 O   0  0  0  0  0  0  0  0  0  0  0  0
    0.8680   -0.4978    0.0000 C   0  0  0  0  0  0  0  0  0  0  0  0
    0.0000    0.0000    0.0000 C   0  0  0  0  0  0  0  0  0  0  0  0
   -0.0000    1.0058    0.0000 C   0  0  0  0  0  0  0  0  0  0  0  0
    0.8680    1.5138    0.0000 C   0  0  0  0  0  0  0  0  0  0  0  0
    1.7360    1.0058    0.0000 C   0  0  0  0  0  0  0  0  0  0  0  0
    1.7360   -0.0012    0.0000 C   0  0  0  0  0  0  0  0  0  0  0  0
    2.6938   -0.3125    0.0000 C   0  0  0  0  0  0  0  0  0  0  0  0
    3.2858    0.5023    0.0000 C   0  0  0  0  0  0  0  0  0  0  0  0
    2.6938    1.3169    0.0000 N   0  0  0  0  0  0  0  0  0  0  0  0
    3.0028   -1.2636    0.0000 C   0  0  0  0  0  0  0  0  0  0  0  0
    3.9809   -1.4715    0.0000 C   0  0  0  0  0  0  0  0  0  0  0  0
    4.2899   -2.4226    0.0000 N   0  0  0  0  0  0  0  0  0  0  0  0
    5.2680   -2.6306    0.0000 C   0  0  0  0  0  0  0  0  0  0  0  0
    5.9372   -1.8874    0.0000 O   0  0  0  0  0  0  0  0  0  0  0  0
    5.5770   -3.5816    0.0000 N   0  0  0  0  0  0  0  0  0  0  0  0
    6.5551   -3.7896    0.0000 C   0  0  0  0  0  0  0  0  0  0  0  0
    6.8641   -4.7407    0.0000 C   0  0  0  0  0  0  0  0  0  0  0  0
    7.8422   -4.9486    0.0000 C   0  0  0  0  0  0  0  0  0  0  0  0
    8.1512   -5.8997    0.0000 Br  0  0  0  0  0  0  0  0  0  0  0  0
  1  2  1  0  0  0  0
  2  3  1  0  0  0  0
  3  8  2  0  0  0  0
  3  4  1  0  0  0  0
  4  5  2  0  0  0  0
  5  6  1  0  0  0  0
  6  7  2  0  0  0  0
  7 11  1  0  0  0  0
  7  8  1  0  0  0  0
  8  9  1  0  0  0  0
  9 10  2  0  0  0  0
 10 11  1  0  0  0  0
  9 12  1  0  0  0  0
 12 13  1  0  0  0  0
 13 14  1  0  0  0  0
 14 15  1  0  0  0  0
 15 16  2  0  0  0  0
 15 17  1  0  0  0  0
 17 18  1  0  0  0  0
 18 19  1  0  0  0  0
 19 20  2  3  0  0  0
 20 21  1  0  0  0  0
M  END
$$$$
s_527a____153889____156031
  -OEChem-03222016482D

 15 16  0     0  0  0  0  0  0999 V2000
    5.5770   -3.5816    0.0000 C   0  0  0  0  0  0  0  0  0  0  0  0
    5.2680   -2.6306    0.0000 C   0  0  0  0  0  0  0  0  0  0  0  0
    5.9372   -1.8874    0.0000 O   0  0  0  0  0  0  0  0  0  0  0  0
    4.2899   -2.4226    0.0000 N   0  0  0  0  0  0  0  0  0  0  0  0
    3.9809   -1.4715    0.0000 C   0  0  0  0  0  0  0  0  0  0  0  0
    3.0028   -1.2636    0.0000 C   0  0  0  0  0  0  0  0  0  0  0  0
    2.6938   -0.3125    0.0000 C   0  0  0  0  0  0  0  0  0  0  0  0
    3.2858    0.5023    0.0000 C   0  0  0  0  0  0  0  0  0  0  0  0
    2.6938    1.3169    0.0000 N   0  0  0  0  0  0  0  0  0  0  0  0
    1.7360    1.0058    0.0000 C   0  0  0  0  0  0  0  0  0  0  0  0
    1.7360   -0.0012    0.0000 C   0  0  0  0  0  0  0  0  0  0  0  0
    0.8680   -0.4978    0.0000 C   0  0  0  0  0  0  0  0  0  0  0  0
    0.0000    0.0000    0.0000 C   0  0  0  0  0  0  0  0  0  0  0  0
   -0.0000    1.0058    0.0000 C   0  0  0  0  0  0  0  0  0  0  0  0
    0.8680    1.5138    0.0000 C   0  0  0  0  0  0  0  0  0  0  0  0
  1  2  1  0  0  0  0
  2  3  2  0  0  0  0
  2  4  1  0  0  0  0
  4  5  1  0  0  0  0
  5  6  1  0  0  0  0
  6  7  1  0  0  0  0
  7 11  1  0  0  0  0
  7  8  2  0  0  0  0
  8  9  1  0  0  0  0
  9 10  1  0  0  0  0
 10 15  2  0  0  0  0
 10 11  1  0  0  0  0
 11 12  2  0  0  0  0
 12 13  1  0  0  0  0
 13 14  2  0  0  0  0
 14 15  1  0  0  0  0
M  END
$$$$
s_22____15506616____925054
  -OEChem-03222016482D

 21 22  0     0  0  0  0  0  0999 V2000
    1.7340    3.0138    0.0000 C   0  0  0  0  0  0  0  0  0  0  0  0
    0.8680    2.5138    0.0000 O   0  0  0  0  0  0  0  0  0  0  0  0
    0.8680    1.5138    0.0000 C   0  0  0  0  0  0  0  0  0  0  0  0
    0.0000    1.0058    0.0000 C   0  0  0  0  0  0  0  0  0  0  0  0
    0.0000    0.0000    0.0000 C   0  0  0  0  0  0  0  0  0  0  0  0
    0.8680   -0.4978    0.0000 C   0  0  0  0  0  0  0  0  0  0  0  0
    1.7360   -0.0012    0.0000 C   0  0  0  0  0  0  0  0  0  0  0  0
    1.7360    1.0058    0.0000 C   0  0  0  0  0  0  0  0  0  0  0  0
    2.6938    1.3169    0.0000 N   0  0  0  0  0  0  0  0  0  0  0  0
    3.2858    0.5023    0.0000 C   0  0  0  0  0  0  0  0  0  0  0  0
    2.6938   -0.3125    0.0000 C   0  0  0  0  0  0  0  0  0  0  0  0
    3.0028   -1.2636    0.0000 C   0  0  0  0  0  0  0  0  0  0  0  0
    3.9809   -1.4715    0.0000 C   0  0  0  0  0  0  0  0  0  0  0  0
    4.2899   -2.4226    0.0000 N   0  0  0  0  0  0  0  0  0  0  0  0
    5.2680   -2.6306    0.0000 C   0  0  0  0  0  0  0  0  0  0  0  0
    5.9372   -1.8874    0.0000 O   0  0  0  0  0  0  0  0  0  0  0  0
    5.5770   -3.5816    0.0000 C   0  0  0  0  0  0  0  0  0  0  0  0
    6.5551   -3.7896    0.0000 S   0  0  0  0  0  0  0  0  0  0  0  0
    6.8641   -4.7407    0.0000 C   0  0  0  0  0  0  0  0  0  0  0  0
    7.8422   -4.9486    0.0000 C   0  0  0  0  0  0  0  0  0  0  0  0
    8.1512   -5.8997    0.0000 C   0  0  0  0  0  0  0  0  0  0  0  0
  1  2  1  0  0  0  0
  2  3  1  0  0  0  0
  3  8  2  0  0  0  0
  3  4  1  0  0  0  0
  4  5  2  0  0  0  0
  5  6  1  0  0  0  0
  6  7  2  0  0  0  0
  7 11  1  0  0  0  0
  7  8  1  0  0  0  0
  8  9  1  0  0  0  0
  9 10  1  0  0  0  0
 10 11  2  0  0  0  0
 11 12  1  0  0  0  0
 12 13  1  0  0  0  0
 13 14  1  0  0  0  0
 14 15  1  0  0  0  0
 15 16  2  0  0  0  0
 15 17  1  0  0  0  0
 17 18  1  0  0  0  0
 18 19  1  0  0  0  0
 19 20  1  0  0  0  0
 20 21  2  0  0  0  0
M  END
$$$$
s_270004____8299666____15269820
  -OEChem-03222016482D

 17 18  0     1  0  0  0  0  0999 V2000
    5.7860   -2.0956    0.0000 C   0  0  0  0  0  0  0  0  0  0  0  0
    6.2859   -1.2296    0.0000 C   0  0  3  0  0  0  0  0  0  0  0  0
    5.7859   -0.3636    0.0000 C   0  0  0  0  0  0  0  0  0  0  0  0
    4.7859   -0.3636    0.0000 N   0  3  0  0  0  0  0  0  0  0  0  0
    4.2858    0.5024    0.0000 C   0  0  0  0  0  0  0  0  0  0  0  0
    3.2858    0.5023    0.0000 C   0  0  0  0  0  0  0  0  0  0  0  0
    2.6938   -0.3125    0.0000 C   0  0  0  0  0  0  0  0  0  0  0  0
    1.7360   -0.0012    0.0000 C   0  0  0  0  0  0  0  0  0  0  0  0
    1.7360    1.0058    0.0000 C   0  0  0  0  0  0  0  0  0  0  0  0
    2.6938    1.3169    0.0000 N   0  0  0  0  0  0  0  0  0  0  0  0
    0.8680    1.5138    0.0000 C   0  0  0  0  0  0  0  0  0  0  0  0
    0.0000    1.0058    0.0000 C   0  0  0  0  0  0  0  0  0  0  0  0
    0.0000    0.0000    0.0000 C   0  0  0  0  0  0  0  0  0  0  0  0
    0.8680   -0.4978    0.0000 C   0  0  0  0  0  0  0  0  0  0  0  0
    0.8675   -1.4978    0.0000 O   0  0  0  0  0  0  0  0  0  0  0  0
    1.7332   -1.9983    0.0000 C   0  0  0  0  0  0  0  0  0  0  0  0
    7.2859   -1.2295    0.0000 O   0  0  0  0  0  0  0  0  0  0  0  0
  1  2  1  0  0  0  0
  2  3  1  0  0  0  0
  3  4  1  0  0  0  0
  4  5  1  0  0  0  0
  5  6  1  0  0  0  0
  6 10  1  0  0  0  0
  6  7  2  0  0  0  0
  7  8  1  0  0  0  0
  8 14  2  0  0  0  0
  8  9  1  0  0  0  0
  9 10  1  0  0  0  0
  9 11  2  0  0  0  0
 11 12  1  0  0  0  0
 12 13  2  0  0  0  0
 13 14  1  0  0  0  0
 14 15  1  0  0  0  0
 15 16  1  0  0  0  0
  2 17  1  0  0  0  0
M  CHG  1   4   1
M  END
$$$$
s_240690b____7354388____3025698
  -OEChem-03222016482D

 18 19  0     0  0  0  0  0  0999 V2000
   -1.7320   -0.0025    0.0000 C   0  0  0  0  0  0  0  0  0  0  0  0
   -0.8653   -0.5013    0.0000 O   0  0  0  0  0  0  0  0  0  0  0  0
    0.0000    0.0000    0.0000 C   0  0  0  0  0  0  0  0  0  0  0  0
   -0.0000    1.0058    0.0000 C   0  0  0  0  0  0  0  0  0  0  0  0
    0.8680    1.5138    0.0000 C   0  0  0  0  0  0  0  0  0  0  0  0
    1.7360    1.0058    0.0000 C   0  0  0  0  0  0  0  0  0  0  0  0
    1.7360   -0.0012    0.0000 C   0  0  0  0  0  0  0  0  0  0  0  0
    0.8680   -0.4978    0.0000 C   0  0  0  0  0  0  0  0  0  0  0  0
    2.6938   -0.3125    0.0000 C   0  0  0  0  0  0  0  0  0  0  0  0
    3.2858    0.5023    0.0000 C   0  0  0  0  0  0  0  0  0  0  0  0
    2.6938    1.3169    0.0000 N   0  0  0  0  0  0  0  0  0  0  0  0
    3.0028   -1.2636    0.0000 C   0  0  0  0  0  0  0  0  0  0  0  0
    3.9809   -1.4715    0.0000 C   0  0  0  0  0  0  0  0  0  0  0  0
    4.2899   -2.4226    0.0000 N   0  0  0  0  0  0  0  0  0  0  0  0
    5.2680   -2.6306    0.0000 C   0  0  0  0  0  0  0  0  0  0  0  0
    5.9372   -1.8874    0.0000 O   0  0  0  0  0  0  0  0  0  0  0  0
    5.5770   -3.5816    0.0000 C   0  0  0  0  0  0  0  0  0  0  0  0
    6.5551   -3.7896    0.0000 N   0  3  0  0  0  0  0  0  0  0  0  0
  1  2  1  0  0  0  0
  2  3  1  0  0  0  0
  3  8  2  0  0  0  0
  3  4  1  0  0  0  0
  4  5  2  0  0  0  0
  5  6  1  0  0  0  0
  6 11  1  0  0  0  0
  6  7  2  0  0  0  0
  7  8  1  0  0  0  0
  7  9  1  0  0  0  0
  9 10  2  0  0  0  0
 10 11  1  0  0  0  0
  9 12  1  0  0  0  0
 12 13  1  0  0  0  0
 13 14  1  0  0  0  0
 14 15  1  0  0  0  0
 15 16  2  0  0  0  0
 15 17  1  0  0  0  0
 17 18  1  0  0  0  0
M  CHG  1  18   1
M  END
$$$$
s_22____4602506____9296322
  -OEChem-03222016482D

 19 20  0     0  0  0  0  0  0999 V2000
    1.7340    3.0138    0.0000 C   0  0  0  0  0  0  0  0  0  0  0  0
    0.8680    2.5138    0.0000 C   0  0  0  0  0  0  0  0  0  0  0  0
    0.8680    1.5138    0.0000 C   0  0  0  0  0  0  0  0  0  0  0  0
    0.0000    1.0058    0.0000 C   0  0  0  0  0  0  0  0  0  0  0  0
    0.0000    0.0000    0.0000 C   0  0  0  0  0  0  0  0  0  0  0  0
    0.8680   -0.4978    0.0000 C   0  0  0  0  0  0  0  0  0  0  0  0
    1.7360   -0.0012    0.0000 C   0  0  0  0  0  0  0  0  0  0  0  0
    1.7360    1.0058    0.0000 C   0  0  0  0  0  0  0  0  0  0  0  0
    2.6938    1.3169    0.0000 N   0  0  0  0  0  0  0  0  0  0  0  0
    3.2858    0.5023    0.0000 C   0  0  0  0  0  0  0  0  0  0  0  0
    2.6938   -0.3125    0.0000 C   0  0  0  0  0  0  0  0  0  0  0  0
    3.0028   -1.2636    0.0000 C   0  0  0  0  0  0  0  0  0  0  0  0
    3.9809   -1.4715    0.0000 C   0  0  0  0  0  0  0  0  0  0  0  0
    4.2899   -2.4226    0.0000 N   0  0  0  0  0  0  0  0  0  0  0  0
    5.2680   -2.6306    0.0000 C   0  0  0  0  0  0  0  0  0  0  0  0
    5.9372   -1.8874    0.0000 O   0  0  0  0  0  0  0  0  0  0  0  0
    5.5770   -3.5816    0.0000 C   0  0  0  0  0  0  0  0  0  0  0  0
    5.8860   -4.5327    0.0000 C   0  0  0  0  0  0  0  0  0  0  0  0
    6.1949   -5.4838    0.0000 C   0  0  0  0  0  0  0  0  0  0  0  0
  1  2  1  0  0  0  0
  2  3  1  0  0  0  0
  3  8  2  0  0  0  0
  3  4  1  0  0  0  0
  4  5  2  0  0  0  0
  5  6  1  0  0  0  0
  6  7  2  0  0  0  0
  7 11  1  0  0  0  0
  7  8  1  0  0  0  0
  8  9  1  0  0  0  0
  9 10  1  0  0  0  0
 10 11  2  0  0  0  0
 11 12  1  0  0  0  0
 12 13  1  0  0  0  0
 13 14  1  0  0  0  0
 14 15  1  0  0  0  0
 15 16  2  0  0  0  0
 15 17  1  0  0  0  0
 17 18  3  0  0  0  0
 18 19  1  0  0  0  0
M  END
$$$$
s_22____3219394____60364
  -OEChem-03222016482D

 18 19  0     0  0  0  0  0  0999 V2000
    0.8675   -1.4978    0.0000 C   0  0  0  0  0  0  0  0  0  0  0  0
    0.8680   -0.4978    0.0000 C   0  0  0  0  0  0  0  0  0  0  0  0
    0.0000    0.0000    0.0000 C   0  0  0  0  0  0  0  0  0  0  0  0
   -0.0000    1.0058    0.0000 C   0  0  0  0  0  0  0  0  0  0  0  0
    0.8680    1.5138    0.0000 C   0  0  0  0  0  0  0  0  0  0  0  0
    1.7360    1.0058    0.0000 C   0  0  0  0  0  0  0  0  0  0  0  0
    1.7360   -0.0012    0.0000 C   0  0  0  0  0  0  0  0  0  0  0  0
    2.6938   -0.3125    0.0000 C   0  0  0  0  0  0  0  0  0  0  0  0
    3.2858    0.5023    0.0000 C   0  0  0  0  0  0  0  0  0  0  0  0
    2.6938    1.3169    0.0000 N   0  0  0  0  0  0  0  0  0  0  0  0
    3.0028   -1.2636    0.0000 C   0  0  0  0  0  0  0  0  0  0  0  0
    3.9809   -1.4715    0.0000 C   0  0  0  0  0  0  0  0  0  0  0  0
    4.2899   -2.4226    0.0000 N   0  0  0  0  0  0  0  0  0  0  0  0
    5.2680   -2.6306    0.0000 C   0  0  0  0  0  0  0  0  0  0  0  0
    5.9372   -1.8874    0.0000 O   0  0  0  0  0  0  0  0  0  0  0  0
    5.5770   -3.5816    0.0000 C   0  0  0  0  0  0  0  0  0  0  0  0
    6.5551   -3.7896    0.0000 S   0  0  0  0  0  0  0  0  0  0  0  0
    6.8641   -4.7407    0.0000 C   0  0  0  0  0  0  0  0  0  0  0  0
  1  2  1  0  0  0  0
  2  7  2  0  0  0  0
  2  3  1  0  0  0  0
  3  4  2  0  0  0  0
  4  5  1  0  0  0  0
  5  6  2  0  0  0  0
  6 10  1  0  0  0  0
  6  7  1  0  0  0  0
  7  8  1  0  0  0  0
  8  9  2  0  0  0  0
  9 10  1  0  0  0  0
  8 11  1  0  0  0  0
 11 12  1  0  0  0  0
 12 13  1  0  0  0  0
 13 14  1  0  0  0  0
 14 15  2  0  0  0  0
 14 16  1  0  0  0  0
 16 17  1  0  0  0  0
 17 18  1  0  0  0  0
M  END
$$$$
s_22____13978824____8794444
  -OEChem-03222016482D

 19 20  0     0  0  0  0  0  0999 V2000
   -0.8705    2.5032    0.0000 C   0  0  0  0  0  0  0  0  0  0  0  0
   -0.8675    1.5032    0.0000 O   0  0  0  0  0  0  0  0  0  0  0  0
    0.0000    1.0058    0.0000 C   0  0  0  0  0  0  0  0  0  0  0  0
    0.0000    0.0000    0.0000 C   0  0  0  0  0  0  0  0  0  0  0  0
    0.8680   -0.4978    0.0000 C   0  0  0  0  0  0  0  0  0  0  0  0
    1.7360   -0.0012    0.0000 C   0  0  0  0  0  0  0  0  0  0  0  0
    1.7360    1.0058    0.0000 C   0  0  0  0  0  0  0  0  0  0  0  0
    0.8680    1.5138    0.0000 C   0  0  0  0  0  0  0  0  0  0  0  0
    2.6938    1.3169    0.0000 N   0  0  0  0  0  0  0  0  0  0  0  0
    3.2858    0.5023    0.0000 C   0  0  0  0  0  0  0  0  0  0  0  0
    2.6938   -0.3125    0.0000 C   0  0  0  0  0  0  0  0  0  0  0  0
    3.0028   -1.2636    0.0000 C   0  0  0  0  0  0  0  0  0  0  0  0
    3.9809   -1.4715    0.0000 C   0  0  0  0  0  0  0  0  0  0  0  0
    4.2899   -2.4226    0.0000 N   0  0  0  0  0  0  0  0  0  0  0  0
    5.2680   -2.6306    0.0000 C   0  0  0  0  0  0  0  0  0  0  0  0
    5.9372   -1.8874    0.0000 O   0  0  0  0  0  0  0  0  0  0  0  0
    5.5770   -3.5816    0.0000 C   0  0  0  0  0  0  0  0  0  0  0  0
    6.5551   -3.7896    0.0000 C   0  0  0  0  0  0  0  0  0  0  0  0
    7.5333   -3.9976    0.0000 N   0  0  0  0  0  0  0  0  0  0  0  0
  1  2  1  0  0  0  0
  2  3  1  0  0  0  0
  3  8  2  0  0  0  0
  3  4  1  0  0  0  0
  4  5  2  0  0  0  0
  5  6  1  0  0  0  0
  6 11  1  0  0  0  0
  6  7  2  0  0  0  0
  7  8  1  0  0  0  0
  7  9  1  0  0  0  0
  9 10  1  0  0  0  0
 10 11  2  0  0  0  0
 11 12  1  0  0  0  0
 12 13  1  0  0  0  0
 13 14  1  0  0  0  0
 14 15  1  0  0  0  0
 15 16  2  0  0  0  0
 15 17  1  0  0  0  0
 17 18  1  0  0  0  0
 18 19  3  0  0  0  0
M  END
$$$$
s_22____15506616____12103014
  -OEChem-03222016482D

 19 20  0     0  0  0  0  0  0999 V2000
    6.8641   -4.7407    0.0000 C   0  0  0  0  0  0  0  0  0  0  0  0
    6.5551   -3.7896    0.0000 C   0  0  0  0  0  0  0  0  0  0  0  0
    5.5770   -3.5816    0.0000 C   0  0  0  0  0  0  0  0  0  0  0  0
    5.2680   -2.6306    0.0000 C   0  0  0  0  0  0  0  0  0  0  0  0
    5.9372   -1.8874    0.0000 O   0  0  0  0  0  0  0  0  0  0  0  0
    4.2899   -2.4226    0.0000 N   0  0  0  0  0  0  0  0  0  0  0  0
    3.9809   -1.4715    0.0000 C   0  0  0  0  0  0  0  0  0  0  0  0
    3.0028   -1.2636    0.0000 C   0  0  0  0  0  0  0  0  0  0  0  0
    2.6938   -0.3125    0.0000 C   0  0  0  0  0  0  0  0  0  0  0  0
    3.2858    0.5023    0.0000 C   0  0  0  0  0  0  0  0  0  0  0  0
    2.6938    1.3169    0.0000 N   0  0  0  0  0  0  0  0  0  0  0  0
    1.7360    1.0058    0.0000 C   0  0  0  0  0  0  0  0  0  0  0  0
    1.7360   -0.0012    0.0000 C   0  0  0  0  0  0  0  0  0  0  0  0
    0.8680   -0.4978    0.0000 C   0  0  0  0  0  0  0  0  0  0  0  0
    0.0000    0.0000    0.0000 C   0  0  0  0  0  0  0  0  0  0  0  0
   -0.0000    1.0058    0.0000 C   0  0  0  0  0  0  0  0  0  0  0  0
    0.8680    1.5138    0.0000 C   0  0  0  0  0  0  0  0  0  0  0  0
    0.8680    2.5138    0.0000 O   0  0  0  0  0  0  0  0  0  0  0  0
    0.0020    3.0138    0.0000 C   0  0  0  0  0  0  0  0  0  0  0  0
  1  2  1  0  0  0  0
  2  3  2  3  0  0  0
  3  4  1  0  0  0  0
  4  5  2  0  0  0  0
  4  6  1  0  0  0  0
  6  7  1  0  0  0  0
  7  8  1  0  0  0  0
  8  9  1  0  0  0  0
  9 13  1  0  0  0  0
  9 10  2  0  0  0  0
 10 11  1  0  0  0  0
 11 12  1  0  0  0  0
 12 17  2  0  0  0  0
 12 13  1  0  0  0  0
 13 14  2  0  0  0  0
 14 15  1  0  0  0  0
 15 16  2  0  0  0  0
 16 17  1  0  0  0  0
 17 18  1  0  0  0  0
 18 19  1  0  0  0  0
M  END
$$$$
s_22____15144084____7941800
  -OEChem-03222016482D

 18 19  0     0  0  0  0  0  0999 V2000
    0.8680    1.5138    0.0000 C   0  0  0  0  0  0  0  0  0  0  0  0
    0.0000    1.0058    0.0000 C   0  0  0  0  0  0  0  0  0  0  0  0
    0.0000    0.0000    0.0000 C   0  0  0  0  0  0  0  0  0  0  0  0
    0.8680   -0.4978    0.0000 C   0  0  0  0  0  0  0  0  0  0  0  0
    1.7360   -0.0012    0.0000 C   0  0  0  0  0  0  0  0  0  0  0  0
    1.7360    1.0058    0.0000 C   0  0  0  0  0  0  0  0  0  0  0  0
    2.6938    1.3169    0.0000 N   0  0  0  0  0  0  0  0  0  0  0  0
    3.2858    0.5023    0.0000 C   0  0  0  0  0  0  0  0  0  0  0  0
    2.6938   -0.3125    0.0000 C   0  0  0  0  0  0  0  0  0  0  0  0
    3.0028   -1.2636    0.0000 C   0  0  0  0  0  0  0  0  0  0  0  0
    3.9809   -1.4715    0.0000 C   0  0  0  0  0  0  0  0  0  0  0  0
    4.2899   -2.4226    0.0000 N   0  0  0  0  0  0  0  0  0  0  0  0
    5.2680   -2.6306    0.0000 C   0  0  0  0  0  0  0  0  0  0  0  0
    5.9372   -1.8874    0.0000 O   0  0  0  0  0  0  0  0  0  0  0  0
    5.5770   -3.5816    0.0000 C   0  0  0  0  0  0  0  0  0  0  0  0
    6.5551   -3.7896    0.0000 O   0  0  0  0  0  0  0  0  0  0  0  0
    0.8675   -1.4978    0.0000 F   0  0  0  0  0  0  0  0  0  0  0  0
   -0.8675    1.5032    0.0000 F   0  0  0  0  0  0  0  0  0  0  0  0
  1  6  2  0  0  0  0
  1  2  1  0  0  0  0
  2  3  2  0  0  0  0
  3  4  1  0  0  0  0
  4  5  2  0  0  0  0
  5  9  1  0  0  0  0
  5  6  1  0  0  0  0
  6  7  1  0  0  0  0
  7  8  1  0  0  0  0
  8  9  2  0  0  0  0
  9 10  1  0  0  0  0
 10 11  1  0  0  0  0
 11 12  1  0  0  0  0
 12 13  1  0  0  0  0
 13 14  2  0  0  0  0
 13 15  1  0  0  0  0
 15 16  1  0  0  0  0
  4 17  1  0  0  0  0
  2 18  1  0  0  0  0
M  END
$$$$
s_22____15506616____10118400
  -OEChem-03222016482D

 21 22  0     0  0  0  0  0  0999 V2000
    1.7340    3.0138    0.0000 C   0  0  0  0  0  0  0  0  0  0  0  0
    0.8680    2.5138    0.0000 O   0  0  0  0  0  0  0  0  0  0  0  0
    0.8680    1.5138    0.0000 C   0  0  0  0  0  0  0  0  0  0  0  0
    0.0000    1.0058    0.0000 C   0  0  0  0  0  0  0  0  0  0  0  0
    0.0000    0.0000    0.0000 C   0  0  0  0  0  0  0  0  0  0  0  0
    0.8680   -0.4978    0.0000 C   0  0  0  0  0  0  0  0  0  0  0  0
    1.7360   -0.0012    0.0000 C   0  0  0  0  0  0  0  0  0  0  0  0
    1.7360    1.0058    0.0000 C   0  0  0  0  0  0  0  0  0  0  0  0
    2.6938    1.3169    0.0000 N   0  0  0  0  0  0  0  0  0  0  0  0
    3.2858    0.5023    0.0000 C   0  0  0  0  0  0  0  0  0  0  0  0
    2.6938   -0.3125    0.0000 C   0  0  0  0  0  0  0  0  0  0  0  0
    3.0028   -1.2636    0.0000 C   0  0  0  0  0  0  0  0  0  0  0  0
    3.9809   -1.4715    0.0000 C   0  0  0  0  0  0  0  0  0  0  0  0
    4.2899   -2.4226    0.0000 N   0  0  0  0  0  0  0  0  0  0  0  0
    5.2680   -2.6306    0.0000 C   0  0  0  0  0  0  0  0  0  0  0  0
    5.9372   -1.8874    0.0000 O   0  0  0  0  0  0  0  0  0  0  0  0
    5.5770   -3.5816    0.0000 C   0  0  0  0  0  0  0  0  0  0  0  0
    6.5551   -3.7896    0.0000 O   0  0  0  0  0  0  0  0  0  0  0  0
    6.8641   -4.7407    0.0000 C   0  0  0  0  0  0  0  0  0  0  0  0
    7.8422   -4.9486    0.0000 F   0  0  0  0  0  0  0  0  0  0  0  0
    6.1949   -5.4838    0.0000 F   0  0  0  0  0  0  0  0  0  0  0  0
  1  2  1  0  0  0  0
  2  3  1  0  0  0  0
  3  8  2  0  0  0  0
  3  4  1  0  0  0  0
  4  5  2  0  0  0  0
  5  6  1  0  0  0  0
  6  7  2  0  0  0  0
  7 11  1  0  0  0  0
  7  8  1  0  0  0  0
  8  9  1  0  0  0  0
  9 10  1  0  0  0  0
 10 11  2  0  0  0  0
 11 12  1  0  0  0  0
 12 13  1  0  0  0  0
 13 14  1  0  0  0  0
 14 15  1  0  0  0  0
 15 16  2  0  0  0  0
 15 17  1  0  0  0  0
 17 18  1  0  0  0  0
 18 19  1  0  0  0  0
 19 20  1  0  0  0  0
 19 21  1  0  0  0  0
M  END
$$$$
s_22____7533902____58887
  -OEChem-03222016482D

 16 17  0     0  0  0  0  0  0999 V2000
    7.7860   -2.0955    0.0000 C   0  0  0  0  0  0  0  0  0  0  0  0
    7.2859   -1.2295    0.0000 C   0  0  0  0  0  0  0  0  0  0  0  0
    6.2859   -1.2296    0.0000 C   0  0  0  0  0  0  0  0  0  0  0  0
    5.7860   -2.0956    0.0000 O   0  0  0  0  0  0  0  0  0  0  0  0
    5.7859   -0.3636    0.0000 N   0  0  0  0  0  0  0  0  0  0  0  0
    4.7859   -0.3636    0.0000 C   0  0  0  0  0  0  0  0  0  0  0  0
    4.2858    0.5024    0.0000 C   0  0  0  0  0  0  0  0  0  0  0  0
    3.2858    0.5023    0.0000 C   0  0  0  0  0  0  0  0  0  0  0  0
    2.6938   -0.3125    0.0000 C   0  0  0  0  0  0  0  0  0  0  0  0
    1.7360   -0.0012    0.0000 C   0  0  0  0  0  0  0  0  0  0  0  0
    0.8680   -0.4978    0.0000 C   0  0  0  0  0  0  0  0  0  0  0  0
    0.0000    0.0000    0.0000 C   0  0  0  0  0  0  0  0  0  0  0  0
    0.0000    1.0058    0.0000 C   0  0  0  0  0  0  0  0  0  0  0  0
    0.8680    1.5138    0.0000 C   0  0  0  0  0  0  0  0  0  0  0  0
    1.7360    1.0058    0.0000 C   0  0  0  0  0  0  0  0  0  0  0  0
    2.6938    1.3169    0.0000 N   0  0  0  0  0  0  0  0  0  0  0  0
  1  2  1  0  0  0  0
  2  3  1  0  0  0  0
  3  4  2  0  0  0  0
  3  5  1  0  0  0  0
  5  6  1  0  0  0  0
  6  7  1  0  0  0  0
  7  8  1  0  0  0  0
  8 16  1  0  0  0  0
  8  9  2  0  0  0  0
  9 10  1  0  0  0  0
 10 15  2  0  0  0  0
 10 11  1  0  0  0  0
 11 12  2  0  0  0  0
 12 13  1  0  0  0  0
 13 14  2  0  0  0  0
 14 15  1  0  0  0  0
 15 16  1  0  0  0  0
M  END
$$$$
s_272164____14971852____17348112
  -OEChem-03222016482D

 22 23  0     1  0  0  0  0  0999 V2000
    3.9809   -1.4715    0.0000 C   0  0  0  0  0  0  0  0  0  0  0  0
    3.0028   -1.2636    0.0000 C   0  0  3  0  0  0  0  0  0  0  0  0
    2.3336   -2.0067    0.0000 C   0  0  0  0  0  0  0  0  0  0  0  0
    2.6426   -2.9578    0.0000 N   0  0  0  0  0  0  0  0  0  0  0  0
    1.9734   -3.7009    0.0000 C   0  0  0  0  0  0  0  0  0  0  0  0
    0.9953   -3.4929    0.0000 O   0  0  0  0  0  0  0  0  0  0  0  0
    2.2824   -4.6519    0.0000 N   0  0  0  0  0  0  0  0  0  0  0  0
    3.2605   -4.8599    0.0000 C   0  0  0  0  0  0  0  0  0  0  0  0
    1.6132   -5.3951    0.0000 C   0  0  0  0  0  0  0  0  0  0  0  0
    1.9222   -6.3461    0.0000 C   0  0  0  0  0  0  0  0  0  0  0  0
    1.2530   -7.0892    0.0000 F   0  0  0  0  0  0  0  0  0  0  0  0
    2.6938   -0.3125    0.0000 C   0  0  0  0  0  0  0  0  0  0  0  0
    3.2858    0.5023    0.0000 C   0  0  0  0  0  0  0  0  0  0  0  0
    2.6938    1.3169    0.0000 N   0  0  0  0  0  0  0  0  0  0  0  0
    1.7360    1.0058    0.0000 C   0  0  0  0  0  0  0  0  0  0  0  0
    1.7360   -0.0012    0.0000 C   0  0  0  0  0  0  0  0  0  0  0  0
    0.8680   -0.4978    0.0000 C   0  0  0  0  0  0  0  0  0  0  0  0
    0.0000    0.0000    0.0000 C   0  0  0  0  0  0  0  0  0  0  0  0
   -0.0000    1.0058    0.0000 C   0  0  0  0  0  0  0  0  0  0  0  0
    0.8680    1.5138    0.0000 C   0  0  0  0  0  0  0  0  0  0  0  0
   -0.8653   -0.5013    0.0000 O   0  0  0  0  0  0  0  0  0  0  0  0
   -0.8639   -1.5013    0.0000 C   0  0  0  0  0  0  0  0  0  0  0  0
  1  2  1  0  0  0  0
  2  3  1  0  0  0  0
  3  4  1  0  0  0  0
  4  5  1  0  0  0  0
  5  6  2  0  0  0  0
  5  7  1  0  0  0  0
  7  8  1  0  0  0  0
  7  9  1  0  0  0  0
  9 10  1  0  0  0  0
 10 11  1  0  0  0  0
  2 12  1  0  0  0  0
 12 16  1  0  0  0  0
 12 13  2  0  0  0  0
 13 14  1  0  0  0  0
 14 15  1  0  0  0  0
 15 20  2  0  0  0  0
 15 16  1  0  0  0  0
 16 17  2  0  0  0  0
 17 18  1  0  0  0  0
 18 19  2  0  0  0  0
 19 20  1  0  0  0  0
 18 21  1  0  0  0  0
 21 22  1  0  0  0  0
M  END
$$$$
s_22____13771018____58902
  -OEChem-03222016482D

 21 23  0     0  0  0  0  0  0999 V2000
   -3.4641   -0.0050    0.0000 C   0  0  0  0  0  0  0  0  0  0  0  0
   -2.5974   -0.5038    0.0000 C   0  0  0  0  0  0  0  0  0  0  0  0
   -1.7320   -0.0025    0.0000 C   0  0  0  0  0  0  0  0  0  0  0  0
   -0.8653   -0.5013    0.0000 O   0  0  0  0  0  0  0  0  0  0  0  0
    0.0000    0.0000    0.0000 C   0  0  0  0  0  0  0  0  0  0  0  0
   -0.0000    1.0058    0.0000 C   0  0  0  0  0  0  0  0  0  0  0  0
    0.8680    1.5138    0.0000 C   0  0  0  0  0  0  0  0  0  0  0  0
    1.7360    1.0058    0.0000 C   0  0  0  0  0  0  0  0  0  0  0  0
    1.7360   -0.0012    0.0000 C   0  0  0  0  0  0  0  0  0  0  0  0
    0.8680   -0.4978    0.0000 C   0  0  0  0  0  0  0  0  0  0  0  0
    2.6938   -0.3125    0.0000 C   0  0  0  0  0  0  0  0  0  0  0  0
    3.2858    0.5023    0.0000 C   0  0  0  0  0  0  0  0  0  0  0  0
    2.6938    1.3169    0.0000 N   0  0  0  0  0  0  0  0  0  0  0  0
    3.0028   -1.2636    0.0000 C   0  0  0  0  0  0  0  0  0  0  0  0
    3.9809   -1.4715    0.0000 C   0  0  0  0  0  0  0  0  0  0  0  0
    4.2899   -2.4226    0.0000 N   0  0  0  0  0  0  0  0  0  0  0  0
    5.2680   -2.6306    0.0000 C   0  0  0  0  0  0  0  0  0  0  0  0
    5.9372   -1.8874    0.0000 O   0  0  0  0  0  0  0  0  0  0  0  0
    5.5770   -3.5816    0.0000 C   0  0  0  0  0  0  0  0  0  0  0  0
    5.3697   -4.5618    0.0000 C   0  0  0  0  0  0  0  0  0  0  0  0
    6.3208   -4.2529    0.0000 C   0  0  0  0  0  0  0  0  0  0  0  0
  1  2  1  0  0  0  0
  2  3  1  0  0  0  0
  3  4  1  0  0  0  0
  4  5  1  0  0  0  0
  5 10  2  0  0  0  0
  5  6  1  0  0  0  0
  6  7  2  0  0  0  0
  7  8  1  0  0  0  0
  8 13  1  0  0  0  0
  8  9  2  0  0  0  0
  9 10  1  0  0  0  0
  9 11  1  0  0  0  0
 11 12  2  0  0  0  0
 12 13  1  0  0  0  0
 11 14  1  0  0  0  0
 14 15  1  0  0  0  0
 15 16  1  0  0  0  0
 16 17  1  0  0  0  0
 17 18  2  0  0  0  0
 17 19  1  0  0  0  0
 19 21  1  0  0  0  0
 19 20  1  0  0  0  0
 20 21  1  0  0  0  0
M  END
$$$$
s_240690b____12854120____3025698
  -OEChem-03222016482D

 17 18  0     0  0  0  0  0  0999 V2000
   -0.0000    1.0058    0.0000 C   0  0  0  0  0  0  0  0  0  0  0  0
    0.8680    1.5138    0.0000 C   0  0  0  0  0  0  0  0  0  0  0  0
    1.7360    1.0058    0.0000 C   0  0  0  0  0  0  0  0  0  0  0  0
    1.7360   -0.0012    0.0000 C   0  0  0  0  0  0  0  0  0  0  0  0
    0.8680   -0.4978    0.0000 C   0  0  0  0  0  0  0  0  0  0  0  0
    0.0000    0.0000    0.0000 C   0  0  0  0  0  0  0  0  0  0  0  0
   -0.8653   -0.5013    0.0000 Br  0  0  0  0  0  0  0  0  0  0  0  0
    2.6938   -0.3125    0.0000 C   0  0  0  0  0  0  0  0  0  0  0  0
    3.2858    0.5023    0.0000 C   0  0  0  0  0  0  0  0  0  0  0  0
    2.6938    1.3169    0.0000 N   0  0  0  0  0  0  0  0  0  0  0  0
    3.0028   -1.2636    0.0000 C   0  0  0  0  0  0  0  0  0  0  0  0
    3.9809   -1.4715    0.0000 C   0  0  0  0  0  0  0  0  0  0  0  0
    4.2899   -2.4226    0.0000 N   0  0  0  0  0  0  0  0  0  0  0  0
    5.2680   -2.6306    0.0000 C   0  0  0  0  0  0  0  0  0  0  0  0
    5.9372   -1.8874    0.0000 O   0  0  0  0  0  0  0  0  0  0  0  0
    5.5770   -3.5816    0.0000 C   0  0  0  0  0  0  0  0  0  0  0  0
    6.5551   -3.7896    0.0000 N   0  3  0  0  0  0  0  0  0  0  0  0
  1  6  2  0  0  0  0
  1  2  1  0  0  0  0
  2  3  2  0  0  0  0
  3 10  1  0  0  0  0
  3  4  1  0  0  0  0
  4  5  2  0  0  0  0
  5  6  1  0  0  0  0
  6  7  1  0  0  0  0
  4  8  1  0  0  0  0
  8  9  2  0  0  0  0
  9 10  1  0  0  0  0
  8 11  1  0  0  0  0
 11 12  1  0  0  0  0
 12 13  1  0  0  0  0
 13 14  1  0  0  0  0
 14 15  2  0  0  0  0
 14 16  1  0  0  0  0
 16 17  1  0  0  0  0
M  CHG  1  17   1
M  END
$$$$
s_22____130022____58844
  -OEChem-03222016482D

 18 19  0     1  0  0  0  0  0999 V2000
    0.0020    4.0138    0.0000 C   0  0  0  0  0  0  0  0  0  0  0  0
    0.0020    3.0138    0.0000 C   0  0  0  0  0  0  0  0  0  0  0  0
    0.8680    2.5138    0.0000 O   0  0  0  0  0  0  0  0  0  0  0  0
    0.8680    1.5138    0.0000 C   0  0  0  0  0  0  0  0  0  0  0  0
    0.0000    1.0058    0.0000 C   0  0  0  0  0  0  0  0  0  0  0  0
    0.0000    0.0000    0.0000 C   0  0  0  0  0  0  0  0  0  0  0  0
    0.8680   -0.4978    0.0000 C   0  0  0  0  0  0  0  0  0  0  0  0
    1.7360   -0.0012    0.0000 C   0  0  0  0  0  0  0  0  0  0  0  0
    1.7360    1.0058    0.0000 C   0  0  0  0  0  0  0  0  0  0  0  0
    2.6938    1.3169    0.0000 O   0  0  0  0  0  0  0  0  0  0  0  0
    3.2858    0.5023    0.0000 C   0  0  0  0  0  0  0  0  0  0  0  0
    2.6938   -0.3125    0.0000 C   0  0  0  0  0  0  0  0  0  0  0  0
    4.2858    0.5024    0.0000 C   0  0  3  0  0  0  0  0  0  0  0  0
    4.7859   -0.3636    0.0000 C   0  0  0  0  0  0  0  0  0  0  0  0
    4.7858    1.3684    0.0000 N   0  0  0  0  0  0  0  0  0  0  0  0
    5.7858    1.3685    0.0000 C   0  0  0  0  0  0  0  0  0  0  0  0
    6.2858    0.5025    0.0000 O   0  0  0  0  0  0  0  0  0  0  0  0
    6.2857    2.2345    0.0000 C   0  0  0  0  0  0  0  0  0  0  0  0
  1  2  1  0  0  0  0
  2  3  1  0  0  0  0
  3  4  1  0  0  0  0
  4  9  2  0  0  0  0
  4  5  1  0  0  0  0
  5  6  2  0  0  0  0
  6  7  1  0  0  0  0
  7  8  2  0  0  0  0
  8 12  1  0  0  0  0
  8  9  1  0  0  0  0
  9 10  1  0  0  0  0
 10 11  1  0  0  0  0
 11 12  2  0  0  0  0
 11 13  1  0  0  0  0
 13 14  1  0  0  0  0
 13 15  1  0  0  0  0
 15 16  1  0  0  0  0
 16 17  2  0  0  0  0
 16 18  1  0  0  0  0
M  END
$$$$
s_512____2055224____13025528
  -OEChem-03222016482D

 21 22  0     0  0  0  0  0  0999 V2000
    0.0012   -1.9973    0.0000 C   0  0  0  0  0  0  0  0  0  0  0  0
    0.8675   -1.4978    0.0000 O   0  0  0  0  0  0  0  0  0  0  0  0
    0.8680   -0.4978    0.0000 C   0  0  0  0  0  0  0  0  0  0  0  0
    0.0000    0.0000    0.0000 C   0  0  0  0  0  0  0  0  0  0  0  0
   -0.0000    1.0058    0.0000 C   0  0  0  0  0  0  0  0  0  0  0  0
    0.8680    1.5138    0.0000 C   0  0  0  0  0  0  0  0  0  0  0  0
    1.7360    1.0058    0.0000 C   0  0  0  0  0  0  0  0  0  0  0  0
    1.7360   -0.0012    0.0000 C   0  0  0  0  0  0  0  0  0  0  0  0
    2.6938   -0.3125    0.0000 C   0  0  0  0  0  0  0  0  0  0  0  0
    3.2858    0.5023    0.0000 C   0  0  0  0  0  0  0  0  0  0  0  0
    2.6938    1.3169    0.0000 N   0  0  0  0  0  0  0  0  0  0  0  0
    3.0028   -1.2636    0.0000 C   0  0  0  0  0  0  0  0  0  0  0  0
    3.9809   -1.4715    0.0000 C   0  0  0  0  0  0  0  0  0  0  0  0
    4.2899   -2.4226    0.0000 N   0  0  0  0  0  0  0  0  0  0  0  0
    5.2680   -2.6306    0.0000 C   0  0  0  0  0  0  0  0  0  0  0  0
    5.9372   -1.8874    0.0000 O   0  0  0  0  0  0  0  0  0  0  0  0
    5.5770   -3.5816    0.0000 N   0  0  0  0  0  0  0  0  0  0  0  0
    6.5551   -3.7896    0.0000 C   0  0  0  0  0  0  0  0  0  0  0  0
    6.8641   -4.7407    0.0000 C   0  0  0  0  0  0  0  0  0  0  0  0
    6.1949   -5.4838    0.0000 C   0  0  0  0  0  0  0  0  0  0  0  0
    7.8422   -4.9486    0.0000 Br  0  0  0  0  0  0  0  0  0  0  0  0
  1  2  1  0  0  0  0
  2  3  1  0  0  0  0
  3  8  2  0  0  0  0
  3  4  1  0  0  0  0
  4  5  2  0  0  0  0
  5  6  1  0  0  0  0
  6  7  2  0  0  0  0
  7 11  1  0  0  0  0
  7  8  1  0  0  0  0
  8  9  1  0  0  0  0
  9 10  2  0  0  0  0
 10 11  1  0  0  0  0
  9 12  1  0  0  0  0
 12 13  1  0  0  0  0
 13 14  1  0  0  0  0
 14 15  1  0  0  0  0
 15 16  2  0  0  0  0
 15 17  1  0  0  0  0
 17 18  1  0  0  0  0
 18 19  1  0  0  0  0
 19 20  2  0  0  0  0
 19 21  1  0  0  0  0
M  END
$$$$
s_22____10303762____58866
  -OEChem-03222016482D

 18 19  0     0  0  0  0  0  0999 V2000
    6.8641   -4.7407    0.0000 C   0  0  0  0  0  0  0  0  0  0  0  0
    6.5551   -3.7896    0.0000 C   0  0  0  0  0  0  0  0  0  0  0  0
    5.5770   -3.5816    0.0000 C   0  0  0  0  0  0  0  0  0  0  0  0
    5.2680   -2.6306    0.0000 C   0  0  0  0  0  0  0  0  0  0  0  0
    5.9372   -1.8874    0.0000 O   0  0  0  0  0  0  0  0  0  0  0  0
    4.2899   -2.4226    0.0000 N   0  0  0  0  0  0  0  0  0  0  0  0
    3.9809   -1.4715    0.0000 C   0  0  0  0  0  0  0  0  0  0  0  0
    3.0028   -1.2636    0.0000 C   0  0  0  0  0  0  0  0  0  0  0  0
    2.6938   -0.3125    0.0000 C   0  0  0  0  0  0  0  0  0  0  0  0
    3.2858    0.5023    0.0000 C   0  0  0  0  0  0  0  0  0  0  0  0
    2.6938    1.3169    0.0000 N   0  0  0  0  0  0  0  0  0  0  0  0
    1.7360    1.0058    0.0000 C   0  0  0  0  0  0  0  0  0  0  0  0
    1.7360   -0.0012    0.0000 C   0  0  0  0  0  0  0  0  0  0  0  0
    0.8680   -0.4978    0.0000 C   0  0  0  0  0  0  0  0  0  0  0  0
    0.0000    0.0000    0.0000 C   0  0  0  0  0  0  0  0  0  0  0  0
   -0.0000    1.0058    0.0000 C   0  0  0  0  0  0  0  0  0  0  0  0
    0.8680    1.5138    0.0000 C   0  0  0  0  0  0  0  0  0  0  0  0
    0.8675   -1.4978    0.0000 Br  0  0  0  0  0  0  0  0  0  0  0  0
  1  2  1  0  0  0  0
  2  3  1  0  0  0  0
  3  4  1  0  0  0  0
  4  5  2  0  0  0  0
  4  6  1  0  0  0  0
  6  7  1  0  0  0  0
  7  8  1  0  0  0  0
  8  9  1  0  0  0  0
  9 13  1  0  0  0  0
  9 10  2  0  0  0  0
 10 11  1  0  0  0  0
 11 12  1  0  0  0  0
 12 17  2  0  0  0  0
 12 13  1  0  0  0  0
 13 14  2  0  0  0  0
 14 15  1  0  0  0  0
 15 16  2  0  0  0  0
 16 17  1  0  0  0  0
 14 18  1  0  0  0  0
M  END
$$$$
s_240690b____13913110____7368582
  -OEChem-03222016482D

 19 20  0     1  0  0  0  0  0999 V2000
    1.3555   -1.7987    0.0000 C   0  0  0  0  0  0  0  0  0  0  0  0
    2.3336   -2.0067    0.0000 C   0  0  3  0  0  0  0  0  0  0  0  0
    3.0028   -1.2636    0.0000 C   0  0  0  0  0  0  0  0  0  0  0  0
    2.6938   -0.3125    0.0000 C   0  0  0  0  0  0  0  0  0  0  0  0
    3.2858    0.5023    0.0000 C   0  0  0  0  0  0  0  0  0  0  0  0
    2.6938    1.3169    0.0000 N   0  0  0  0  0  0  0  0  0  0  0  0
    1.7360    1.0058    0.0000 C   0  0  0  0  0  0  0  0  0  0  0  0
    1.7360   -0.0012    0.0000 C   0  0  0  0  0  0  0  0  0  0  0  0
    0.8680   -0.4978    0.0000 C   0  0  0  0  0  0  0  0  0  0  0  0
    0.0000    0.0000    0.0000 C   0  0  0  0  0  0  0  0  0  0  0  0
   -0.0000    1.0058    0.0000 C   0  0  0  0  0  0  0  0  0  0  0  0
    0.8680    1.5138    0.0000 C   0  0  0  0  0  0  0  0  0  0  0  0
   -0.8653   -0.5013    0.0000 F   0  0  0  0  0  0  0  0  0  0  0  0
    2.6426   -2.9578    0.0000 N   0  0  0  0  0  0  0  0  0  0  0  0
    1.9734   -3.7009    0.0000 C   0  0  0  0  0  0  0  0  0  0  0  0
    0.9953   -3.4929    0.0000 O   0  0  0  0  0  0  0  0  0  0  0  0
    2.2824   -4.6519    0.0000 C   0  0  0  0  0  0  0  0  0  0  0  0
    1.6132   -5.3951    0.0000 N   0  3  0  0  0  0  0  0  0  0  0  0
    1.9222   -6.3461    0.0000 C   0  0  0  0  0  0  0  0  0  0  0  0
  1  2  1  0  0  0  0
  2  3  1  0  0  0  0
  3  4  1  0  0  0  0
  4  8  1  0  0  0  0
  4  5  2  0  0  0  0
  5  6  1  0  0  0  0
  6  7  1  0  0  0  0
  7 12  2  0  0  0  0
  7  8  1  0  0  0  0
  8  9  2  0  0  0  0
  9 10  1  0  0  0  0
 10 11  2  0  0  0  0
 11 12  1  0  0  0  0
 10 13  1  0  0  0  0
  2 14  1  0  0  0  0
 14 15  1  0  0  0  0
 15 16  2  0  0  0  0
 15 17  1  0  0  0  0
 17 18  1  0  0  0  0
 18 19  1  0  0  0  0
M  CHG  1  18   1
M  END
$$$$
s_512____7344786____15506628
  -OEChem-03222016482D

 21 22  0     0  0  0  0  0  0999 V2000
    1.7340    3.0138    0.0000 C   0  0  0  0  0  0  0  0  0  0  0  0
    0.8680    2.5138    0.0000 O   0  0  0  0  0  0  0  0  0  0  0  0
    0.8680    1.5138    0.0000 C   0  0  0  0  0  0  0  0  0  0  0  0
    0.0000    1.0058    0.0000 C   0  0  0  0  0  0  0  0  0  0  0  0
    0.0000    0.0000    0.0000 C   0  0  0  0  0  0  0  0  0  0  0  0
    0.8680   -0.4978    0.0000 C   0  0  0  0  0  0  0  0  0  0  0  0
    1.7360   -0.0012    0.0000 C   0  0  0  0  0  0  0  0  0  0  0  0
    1.7360    1.0058    0.0000 C   0  0  0  0  0  0  0  0  0  0  0  0
    2.6938    1.3169    0.0000 N   0  0  0  0  0  0  0  0  0  0  0  0
    3.2858    0.5023    0.0000 C   0  0  0  0  0  0  0  0  0  0  0  0
    2.6938   -0.3125    0.0000 C   0  0  0  0  0  0  0  0  0  0  0  0
    3.0028   -1.2636    0.0000 C   0  0  0  0  0  0  0  0  0  0  0  0
    3.9809   -1.4715    0.0000 C   0  0  0  0  0  0  0  0  0  0  0  0
    4.2899   -2.4226    0.0000 N   0  0  0  0  0  0  0  0  0  0  0  0
    5.2680   -2.6306    0.0000 C   0  0  0  0  0  0  0  0  0  0  0  0
    5.9372   -1.8874    0.0000 O   0  0  0  0  0  0  0  0  0  0  0  0
    5.5770   -3.5816    0.0000 N   0  0  0  0  0  0  0  0  0  0  0  0
    6.5551   -3.7896    0.0000 C   0  0  0  0  0  0  0  0  0  0  0  0
    6.8641   -4.7407    0.0000 C   0  0  0  0  0  0  0  0  0  0  0  0
    7.8422   -4.9486    0.0000 C   0  0  0  0  0  0  0  0  0  0  0  0
    8.1512   -5.8997    0.0000 F   0  0  0  0  0  0  0  0  0  0  0  0
  1  2  1  0  0  0  0
  2  3  1  0  0  0  0
  3  8  2  0  0  0  0
  3  4  1  0  0  0  0
  4  5  2  0  0  0  0
  5  6  1  0  0  0  0
  6  7  2  0  0  0  0
  7 11  1  0  0  0  0
  7  8  1  0  0  0  0
  8  9  1  0  0  0  0
  9 10  1  0  0  0  0
 10 11  2  0  0  0  0
 11 12  1  0  0  0  0
 12 13  1  0  0  0  0
 13 14  1  0  0  0  0
 14 15  1  0  0  0  0
 15 16  2  0  0  0  0
 15 17  1  0  0  0  0
 17 18  1  0  0  0  0
 18 19  1  0  0  0  0
 19 20  1  0  0  0  0
 20 21  1  0  0  0  0
M  END
$$$$
s_22____4839448____17543248
  -OEChem-03222016482D

 19 20  0     0  0  0  0  0  0999 V2000
   -1.7320   -0.0025    0.0000 C   0  0  0  0  0  0  0  0  0  0  0  0
   -0.8653   -0.5013    0.0000 O   0  0  0  0  0  0  0  0  0  0  0  0
    0.0000    0.0000    0.0000 C   0  0  0  0  0  0  0  0  0  0  0  0
   -0.0000    1.0058    0.0000 C   0  0  0  0  0  0  0  0  0  0  0  0
    0.8680    1.5138    0.0000 C   0  0  0  0  0  0  0  0  0  0  0  0
    1.7360    1.0058    0.0000 C   0  0  0  0  0  0  0  0  0  0  0  0
    1.7360   -0.0012    0.0000 C   0  0  0  0  0  0  0  0  0  0  0  0
    0.8680   -0.4978    0.0000 C   0  0  0  0  0  0  0  0  0  0  0  0
    2.6938   -0.3125    0.0000 C   0  0  0  0  0  0  0  0  0  0  0  0
    3.2858    0.5023    0.0000 C   0  0  0  0  0  0  0  0  0  0  0  0
    2.6938    1.3169    0.0000 N   0  0  0  0  0  0  0  0  0  0  0  0
    3.0028   -1.2636    0.0000 C   0  0  0  0  0  0  0  0  0  0  0  0
    3.9809   -1.4715    0.0000 C   0  0  0  0  0  0  0  0  0  0  0  0
    4.2899   -2.4226    0.0000 N   0  0  0  0  0  0  0  0  0  0  0  0
    5.2680   -2.6306    0.0000 C   0  0  0  0  0  0  0  0  0  0  0  0
    5.9372   -1.8874    0.0000 O   0  0  0  0  0  0  0  0  0  0  0  0
    5.5770   -3.5816    0.0000 C   0  0  0  0  0  0  0  0  0  0  0  0
    6.5551   -3.7896    0.0000 C   0  0  0  0  0  0  0  0  0  0  0  0
    7.5333   -3.9976    0.0000 C   0  0  0  0  0  0  0  0  0  0  0  0
  1  2  1  0  0  0  0
  2  3  1  0  0  0  0
  3  8  2  0  0  0  0
  3  4  1  0  0  0  0
  4  5  2  0  0  0  0
  5  6  1  0  0  0  0
  6 11  1  0  0  0  0
  6  7  2  0  0  0  0
  7  8  1  0  0  0  0
  7  9  1  0  0  0  0
  9 10  2  0  0  0  0
 10 11  1  0  0  0  0
  9 12  1  0  0  0  0
 12 13  1  0  0  0  0
 13 14  1  0  0  0  0
 14 15  1  0  0  0  0
 15 16  2  0  0  0  0
 15 17  1  0  0  0  0
 17 18  2  0  0  0  0
 18 19  2  0  0  0  0
M  END
$$$$
s_512____214540____13025528
  -OEChem-03222016482D

 20 21  0     0  0  0  0  0  0999 V2000
    7.8422   -4.9486    0.0000 C   0  0  0  0  0  0  0  0  0  0  0  0
    6.8641   -4.7407    0.0000 C   0  0  0  0  0  0  0  0  0  0  0  0
    6.5551   -3.7896    0.0000 C   0  0  0  0  0  0  0  0  0  0  0  0
    5.5770   -3.5816    0.0000 N   0  0  0  0  0  0  0  0  0  0  0  0
    5.2680   -2.6306    0.0000 C   0  0  0  0  0  0  0  0  0  0  0  0
    5.9372   -1.8874    0.0000 O   0  0  0  0  0  0  0  0  0  0  0  0
    4.2899   -2.4226    0.0000 N   0  0  0  0  0  0  0  0  0  0  0  0
    3.9809   -1.4715    0.0000 C   0  0  0  0  0  0  0  0  0  0  0  0
    3.0028   -1.2636    0.0000 C   0  0  0  0  0  0  0  0  0  0  0  0
    2.6938   -0.3125    0.0000 C   0  0  0  0  0  0  0  0  0  0  0  0
    3.2858    0.5023    0.0000 C   0  0  0  0  0  0  0  0  0  0  0  0
    2.6938    1.3169    0.0000 N   0  0  0  0  0  0  0  0  0  0  0  0
    1.7360    1.0058    0.0000 C   0  0  0  0  0  0  0  0  0  0  0  0
    1.7360   -0.0012    0.0000 C   0  0  0  0  0  0  0  0  0  0  0  0
    0.8680   -0.4978    0.0000 C   0  0  0  0  0  0  0  0  0  0  0  0
    0.0000    0.0000    0.0000 C   0  0  0  0  0  0  0  0  0  0  0  0
   -0.0000    1.0058    0.0000 C   0  0  0  0  0  0  0  0  0  0  0  0
    0.8680    1.5138    0.0000 C   0  0  0  0  0  0  0  0  0  0  0  0
    0.8675   -1.4978    0.0000 O   0  0  0  0  0  0  0  0  0  0  0  0
    1.7332   -1.9983    0.0000 C   0  0  0  0  0  0  0  0  0  0  0  0
  1  2  1  0  0  0  0
  2  3  1  0  0  0  0
  3  4  1  0  0  0  0
  4  5  1  0  0  0  0
  5  6  2  0  0  0  0
  5  7  1  0  0  0  0
  7  8  1  0  0  0  0
  8  9  1  0  0  0  0
  9 10  1  0  0  0  0
 10 14  1  0  0  0  0
 10 11  2  0  0  0  0
 11 12  1  0  0  0  0
 12 13  1  0  0  0  0
 13 18  2  0  0  0  0
 13 14  1  0  0  0  0
 14 15  2  0  0  0  0
 15 16  1  0  0  0  0
 16 17  2  0  0  0  0
 17 18  1  0  0  0  0
 15 19  1  0  0  0  0
 19 20  1  0  0  0  0
M  END
$$$$
s_22____12346432____7941800
  -OEChem-03222016482D

 17 18  0     0  0  0  0  0  0999 V2000
    0.0000    0.0000    0.0000 C   0  0  0  0  0  0  0  0  0  0  0  0
    0.8680   -0.4978    0.0000 C   0  0  0  0  0  0  0  0  0  0  0  0
    1.7360   -0.0012    0.0000 C   0  0  0  0  0  0  0  0  0  0  0  0
    2.6938   -0.3125    0.0000 C   0  0  0  0  0  0  0  0  0  0  0  0
    3.2858    0.5023    0.0000 C   0  0  0  0  0  0  0  0  0  0  0  0
    2.6938    1.3169    0.0000 N   0  0  0  0  0  0  0  0  0  0  0  0
    1.7360    1.0058    0.0000 C   0  0  0  0  0  0  0  0  0  0  0  0
    0.8680    1.5138    0.0000 C   0  0  0  0  0  0  0  0  0  0  0  0
    0.0000    1.0058    0.0000 C   0  0  0  0  0  0  0  0  0  0  0  0
    0.8680    2.5138    0.0000 Cl  0  0  0  0  0  0  0  0  0  0  0  0
    3.0028   -1.2636    0.0000 C   0  0  0  0  0  0  0  0  0  0  0  0
    3.9809   -1.4715    0.0000 C   0  0  0  0  0  0  0  0  0  0  0  0
    4.2899   -2.4226    0.0000 N   0  0  0  0  0  0  0  0  0  0  0  0
    5.2680   -2.6306    0.0000 C   0  0  0  0  0  0  0  0  0  0  0  0
    5.9372   -1.8874    0.0000 O   0  0  0  0  0  0  0  0  0  0  0  0
    5.5770   -3.5816    0.0000 C   0  0  0  0  0  0  0  0  0  0  0  0
    6.5551   -3.7896    0.0000 O   0  0  0  0  0  0  0  0  0  0  0  0
  1  9  2  0  0  0  0
  1  2  1  0  0  0  0
  2  3  2  0  0  0  0
  3  7  1  0  0  0  0
  3  4  1  0  0  0  0
  4  5  2  0  0  0  0
  5  6  1  0  0  0  0
  6  7  1  0  0  0  0
  7  8  2  0  0  0  0
  8  9  1  0  0  0  0
  8 10  1  0  0  0  0
  4 11  1  0  0  0  0
 11 12  1  0  0  0  0
 12 13  1  0  0  0  0
 13 14  1  0  0  0  0
 14 15  2  0  0  0  0
 14 16  1  0  0  0  0
 16 17  1  0  0  0  0
M  END
$$$$
s_22____15144084____59039
  -OEChem-03222016482D

 19 20  0     0  0  0  0  0  0999 V2000
    6.8641   -4.7407    0.0000 C   0  0  0  0  0  0  0  0  0  0  0  0
    6.5551   -3.7896    0.0000 O   0  0  0  0  0  0  0  0  0  0  0  0
    5.5770   -3.5816    0.0000 C   0  0  0  0  0  0  0  0  0  0  0  0
    5.2680   -2.6306    0.0000 C   0  0  0  0  0  0  0  0  0  0  0  0
    5.9372   -1.8874    0.0000 O   0  0  0  0  0  0  0  0  0  0  0  0
    4.2899   -2.4226    0.0000 N   0  0  0  0  0  0  0  0  0  0  0  0
    3.9809   -1.4715    0.0000 C   0  0  0  0  0  0  0  0  0  0  0  0
    3.0028   -1.2636    0.0000 C   0  0  0  0  0  0  0  0  0  0  0  0
    2.6938   -0.3125    0.0000 C   0  0  0  0  0  0  0  0  0  0  0  0
    3.2858    0.5023    0.0000 C   0  0  0  0  0  0  0  0  0  0  0  0
    2.6938    1.3169    0.0000 N   0  0  0  0  0  0  0  0  0  0  0  0
    1.7360    1.0058    0.0000 C   0  0  0  0  0  0  0  0  0  0  0  0
    1.7360   -0.0012    0.0000 C   0  0  0  0  0  0  0  0  0  0  0  0
    0.8680   -0.4978    0.0000 C   0  0  0  0  0  0  0  0  0  0  0  0
    0.0000    0.0000    0.0000 C   0  0  0  0  0  0  0  0  0  0  0  0
   -0.0000    1.0058    0.0000 C   0  0  0  0  0  0  0  0  0  0  0  0
    0.8680    1.5138    0.0000 C   0  0  0  0  0  0  0  0  0  0  0  0
   -0.8675    1.5032    0.0000 F   0  0  0  0  0  0  0  0  0  0  0  0
    0.8675   -1.4978    0.0000 F   0  0  0  0  0  0  0  0  0  0  0  0
  1  2  1  0  0  0  0
  2  3  1  0  0  0  0
  3  4  1  0  0  0  0
  4  5  2  0  0  0  0
  4  6  1  0  0  0  0
  6  7  1  0  0  0  0
  7  8  1  0  0  0  0
  8  9  1  0  0  0  0
  9 13  1  0  0  0  0
  9 10  2  0  0  0  0
 10 11  1  0  0  0  0
 11 12  1  0  0  0  0
 12 17  2  0  0  0  0
 12 13  1  0  0  0  0
 13 14  2  0  0  0  0
 14 15  1  0  0  0  0
 15 16  2  0  0  0  0
 16 17  1  0  0  0  0
 16 18  1  0  0  0  0
 14 19  1  0  0  0  0
M  END
$$$$
s_240690b____13978894____3025680
  -OEChem-03222016482D

 19 20  0     0  0  0  0  0  0999 V2000
   -0.8705    2.5032    0.0000 C   0  0  0  0  0  0  0  0  0  0  0  0
   -0.8675    1.5032    0.0000 O   0  0  0  0  0  0  0  0  0  0  0  0
    0.0000    1.0058    0.0000 C   0  0  0  0  0  0  0  0  0  0  0  0
    0.0000    0.0000    0.0000 C   0  0  0  0  0  0  0  0  0  0  0  0
    0.8680   -0.4978    0.0000 C   0  0  0  0  0  0  0  0  0  0  0  0
    1.7360   -0.0012    0.0000 C   0  0  0  0  0  0  0  0  0  0  0  0
    1.7360    1.0058    0.0000 C   0  0  0  0  0  0  0  0  0  0  0  0
    0.8680    1.5138    0.0000 C   0  0  0  0  0  0  0  0  0  0  0  0
    2.6938    1.3169    0.0000 N   0  0  0  0  0  0  0  0  0  0  0  0
    3.2858    0.5023    0.0000 C   0  0  0  0  0  0  0  0  0  0  0  0
    2.6938   -0.3125    0.0000 C   0  0  0  0  0  0  0  0  0  0  0  0
    3.0028   -1.2636    0.0000 C   0  0  0  0  0  0  0  0  0  0  0  0
    3.9809   -1.4715    0.0000 C   0  0  0  0  0  0  0  0  0  0  0  0
    4.2899   -2.4226    0.0000 N   0  0  0  0  0  0  0  0  0  0  0  0
    5.2680   -2.6306    0.0000 C   0  0  0  0  0  0  0  0  0  0  0  0
    5.9372   -1.8874    0.0000 O   0  0  0  0  0  0  0  0  0  0  0  0
    5.5770   -3.5816    0.0000 C   0  0  0  0  0  0  0  0  0  0  0  0
    6.5551   -3.7896    0.0000 C   0  0  0  0  0  0  0  0  0  0  0  0
    6.8641   -4.7407    0.0000 N   0  3  0  0  0  0  0  0  0  0  0  0
  1  2  1  0  0  0  0
  2  3  1  0  0  0  0
  3  8  2  0  0  0  0
  3  4  1  0  0  0  0
  4  5  2  0  0  0  0
  5  6  1  0  0  0  0
  6 11  1  0  0  0  0
  6  7  2  0  0  0  0
  7  8  1  0  0  0  0
  7  9  1  0  0  0  0
  9 10  1  0  0  0  0
 10 11  2  0  0  0  0
 11 12  1  0  0  0  0
 12 13  1  0  0  0  0
 13 14  1  0  0  0  0
 14 15  1  0  0  0  0
 15 16  2  0  0  0  0
 15 17  1  0  0  0  0
 17 18  1  0  0  0  0
 18 19  1  0  0  0  0
M  CHG  1  19   1
M  END
$$$$
s_22____16720536____9296322
  -OEChem-03222016482D

 18 19  0     0  0  0  0  0  0999 V2000
    6.1949   -5.4838    0.0000 C   0  0  0  0  0  0  0  0  0  0  0  0
    5.8860   -4.5327    0.0000 C   0  0  0  0  0  0  0  0  0  0  0  0
    5.5770   -3.5816    0.0000 C   0  0  0  0  0  0  0  0  0  0  0  0
    5.2680   -2.6306    0.0000 C   0  0  0  0  0  0  0  0  0  0  0  0
    5.9372   -1.8874    0.0000 O   0  0  0  0  0  0  0  0  0  0  0  0
    4.2899   -2.4226    0.0000 N   0  0  0  0  0  0  0  0  0  0  0  0
    3.9809   -1.4715    0.0000 C   0  0  0  0  0  0  0  0  0  0  0  0
    3.0028   -1.2636    0.0000 C   0  0  0  0  0  0  0  0  0  0  0  0
    2.6938   -0.3125    0.0000 C   0  0  0  0  0  0  0  0  0  0  0  0
    3.2858    0.5023    0.0000 C   0  0  0  0  0  0  0  0  0  0  0  0
    2.6938    1.3169    0.0000 N   0  0  0  0  0  0  0  0  0  0  0  0
    1.7360    1.0058    0.0000 C   0  0  0  0  0  0  0  0  0  0  0  0
    1.7360   -0.0012    0.0000 C   0  0  0  0  0  0  0  0  0  0  0  0
    0.8680   -0.4978    0.0000 C   0  0  0  0  0  0  0  0  0  0  0  0
    0.0000    0.0000    0.0000 C   0  0  0  0  0  0  0  0  0  0  0  0
   -0.0000    1.0058    0.0000 C   0  0  0  0  0  0  0  0  0  0  0  0
    0.8680    1.5138    0.0000 C   0  0  0  0  0  0  0  0  0  0  0  0
    0.8680    2.5138    0.0000 Br  0  0  0  0  0  0  0  0  0  0  0  0
  1  2  1  0  0  0  0
  2  3  3  0  0  0  0
  3  4  1  0  0  0  0
  4  5  2  0  0  0  0
  4  6  1  0  0  0  0
  6  7  1  0  0  0  0
  7  8  1  0  0  0  0
  8  9  1  0  0  0  0
  9 13  1  0  0  0  0
  9 10  2  0  0  0  0
 10 11  1  0  0  0  0
 11 12  1  0  0  0  0
 12 17  2  0  0  0  0
 12 13  1  0  0  0  0
 13 14  2  0  0  0  0
 14 15  1  0  0  0  0
 15 16  2  0  0  0  0
 16 17  1  0  0  0  0
 17 18  1  0  0  0  0
M  END
$$$$
s_512____158555____13025528
  -OEChem-03222016482D

 20 21  0     0  0  0  0  0  0999 V2000
    0.0012   -1.9973    0.0000 C   0  0  0  0  0  0  0  0  0  0  0  0
    0.8675   -1.4978    0.0000 O   0  0  0  0  0  0  0  0  0  0  0  0
    0.8680   -0.4978    0.0000 C   0  0  0  0  0  0  0  0  0  0  0  0
    0.0000    0.0000    0.0000 C   0  0  0  0  0  0  0  0  0  0  0  0
   -0.0000    1.0058    0.0000 C   0  0  0  0  0  0  0  0  0  0  0  0
    0.8680    1.5138    0.0000 C   0  0  0  0  0  0  0  0  0  0  0  0
    1.7360    1.0058    0.0000 C   0  0  0  0  0  0  0  0  0  0  0  0
    1.7360   -0.0012    0.0000 C   0  0  0  0  0  0  0  0  0  0  0  0
    2.6938   -0.3125    0.0000 C   0  0  0  0  0  0  0  0  0  0  0  0
    3.2858    0.5023    0.0000 C   0  0  0  0  0  0  0  0  0  0  0  0
    2.6938    1.3169    0.0000 N   0  0  0  0  0  0  0  0  0  0  0  0
    3.0028   -1.2636    0.0000 C   0  0  0  0  0  0  0  0  0  0  0  0
    3.9809   -1.4715    0.0000 C   0  0  0  0  0  0  0  0  0  0  0  0
    4.2899   -2.4226    0.0000 N   0  0  0  0  0  0  0  0  0  0  0  0
    5.2680   -2.6306    0.0000 C   0  0  0  0  0  0  0  0  0  0  0  0
    5.9372   -1.8874    0.0000 O   0  0  0  0  0  0  0  0  0  0  0  0
    5.5770   -3.5816    0.0000 N   0  0  0  0  0  0  0  0  0  0  0  0
    6.5551   -3.7896    0.0000 C   0  0  0  0  0  0  0  0  0  0  0  0
    6.8641   -4.7407    0.0000 C   0  0  0  0  0  0  0  0  0  0  0  0
    7.8422   -4.9486    0.0000 C   0  0  0  0  0  0  0  0  0  0  0  0
  1  2  1  0  0  0  0
  2  3  1  0  0  0  0
  3  8  2  0  0  0  0
  3  4  1  0  0  0  0
  4  5  2  0  0  0  0
  5  6  1  0  0  0  0
  6  7  2  0  0  0  0
  7 11  1  0  0  0  0
  7  8  1  0  0  0  0
  8  9  1  0  0  0  0
  9 10  2  0  0  0  0
 10 11  1  0  0  0  0
  9 12  1  0  0  0  0
 12 13  1  0  0  0  0
 13 14  1  0  0  0  0
 14 15  1  0  0  0  0
 15 16  2  0  0  0  0
 15 17  1  0  0  0  0
 17 18  1  0  0  0  0
 18 19  1  0  0  0  0
 19 20  2  0  0  0  0
M  END
$$$$
s_240690b____13978894____7368632
  -OEChem-03222016482D

 20 21  0     0  0  0  0  0  0999 V2000
    1.2530   -7.0892    0.0000 C   0  0  0  0  0  0  0  0  0  0  0  0
    1.9222   -6.3461    0.0000 C   0  0  0  0  0  0  0  0  0  0  0  0
    1.6132   -5.3951    0.0000 N   0  3  0  0  0  0  0  0  0  0  0  0
    2.2824   -4.6519    0.0000 C   0  0  0  0  0  0  0  0  0  0  0  0
    1.9734   -3.7009    0.0000 C   0  0  0  0  0  0  0  0  0  0  0  0
    0.9953   -3.4929    0.0000 O   0  0  0  0  0  0  0  0  0  0  0  0
    2.6426   -2.9578    0.0000 N   0  0  0  0  0  0  0  0  0  0  0  0
    2.3336   -2.0067    0.0000 C   0  0  0  0  0  0  0  0  0  0  0  0
    3.0028   -1.2636    0.0000 C   0  0  0  0  0  0  0  0  0  0  0  0
    2.6938   -0.3125    0.0000 C   0  0  0  0  0  0  0  0  0  0  0  0
    3.2858    0.5023    0.0000 C   0  0  0  0  0  0  0  0  0  0  0  0
    2.6938    1.3169    0.0000 N   0  0  0  0  0  0  0  0  0  0  0  0
    1.7360    1.0058    0.0000 C   0  0  0  0  0  0  0  0  0  0  0  0
    1.7360   -0.0012    0.0000 C   0  0  0  0  0  0  0  0  0  0  0  0
    0.8680   -0.4978    0.0000 C   0  0  0  0  0  0  0  0  0  0  0  0
    0.0000    0.0000    0.0000 C   0  0  0  0  0  0  0  0  0  0  0  0
   -0.0000    1.0058    0.0000 C   0  0  0  0  0  0  0  0  0  0  0  0
    0.8680    1.5138    0.0000 C   0  0  0  0  0  0  0  0  0  0  0  0
   -0.8675    1.5032    0.0000 O   0  0  0  0  0  0  0  0  0  0  0  0
   -1.7320    1.0007    0.0000 C   0  0  0  0  0  0  0  0  0  0  0  0
  1  2  1  0  0  0  0
  2  3  1  0  0  0  0
  3  4  1  0  0  0  0
  4  5  1  0  0  0  0
  5  6  2  0  0  0  0
  5  7  1  0  0  0  0
  7  8  1  0  0  0  0
  8  9  1  0  0  0  0
  9 10  1  0  0  0  0
 10 14  1  0  0  0  0
 10 11  2  0  0  0  0
 11 12  1  0  0  0  0
 12 13  1  0  0  0  0
 13 18  2  0  0  0  0
 13 14  1  0  0  0  0
 14 15  2  0  0  0  0
 15 16  1  0  0  0  0
 16 17  2  0  0  0  0
 17 18  1  0  0  0  0
 17 19  1  0  0  0  0
 19 20  1  0  0  0  0
M  CHG  1   3   1
M  END
$$$$
s_22____2228922____9296322
  -OEChem-03222016482D

 18 19  0     0  0  0  0  0  0999 V2000
    6.1949   -5.4838    0.0000 C   0  0  0  0  0  0  0  0  0  0  0  0
    5.8860   -4.5327    0.0000 C   0  0  0  0  0  0  0  0  0  0  0  0
    5.5770   -3.5816    0.0000 C   0  0  0  0  0  0  0  0  0  0  0  0
    5.2680   -2.6306    0.0000 C   0  0  0  0  0  0  0  0  0  0  0  0
    5.9372   -1.8874    0.0000 O   0  0  0  0  0  0  0  0  0  0  0  0
    4.2899   -2.4226    0.0000 N   0  0  0  0  0  0  0  0  0  0  0  0
    3.9809   -1.4715    0.0000 C   0  0  0  0  0  0  0  0  0  0  0  0
    3.0028   -1.2636    0.0000 C   0  0  0  0  0  0  0  0  0  0  0  0
    2.6938   -0.3125    0.0000 C   0  0  0  0  0  0  0  0  0  0  0  0
    3.2858    0.5023    0.0000 C   0  0  0  0  0  0  0  0  0  0  0  0
    2.6938    1.3169    0.0000 N   0  0  0  0  0  0  0  0  0  0  0  0
    1.7360    1.0058    0.0000 C   0  0  0  0  0  0  0  0  0  0  0  0
    1.7360   -0.0012    0.0000 C   0  0  0  0  0  0  0  0  0  0  0  0
    0.8680   -0.4978    0.0000 C   0  0  0  0  0  0  0  0  0  0  0  0
    0.0000    0.0000    0.0000 C   0  0  0  0  0  0  0  0  0  0  0  0
   -0.0000    1.0058    0.0000 C   0  0  0  0  0  0  0  0  0  0  0  0
    0.8680    1.5138    0.0000 C   0  0  0  0  0  0  0  0  0  0  0  0
   -0.8675    1.5032    0.0000 Cl  0  0  0  0  0  0  0  0  0  0  0  0
  1  2  1  0  0  0  0
  2  3  3  0  0  0  0
  3  4  1  0  0  0  0
  4  5  2  0  0  0  0
  4  6  1  0  0  0  0
  6  7  1  0  0  0  0
  7  8  1  0  0  0  0
  8  9  1  0  0  0  0
  9 13  1  0  0  0  0
  9 10  2  0  0  0  0
 10 11  1  0  0  0  0
 11 12  1  0  0  0  0
 12 17  2  0  0  0  0
 12 13  1  0  0  0  0
 13 14  2  0  0  0  0
 14 15  1  0  0  0  0
 15 16  2  0  0  0  0
 16 17  1  0  0  0  0
 16 18  1  0  0  0  0
M  END
$$$$
s_207____13973878____9105504
  -OEChem-03222016482D

 18 19  0     0  0  0  0  0  0999 V2000
    7.7858    1.3686    0.0000 C   0  0  0  0  0  0  0  0  0  0  0  0
    7.2857    2.2346    0.0000 N   0  0  0  0  0  0  0  0  0  0  0  0
    6.2857    2.2345    0.0000 C   0  0  0  0  0  0  0  0  0  0  0  0
    5.7856    3.1005    0.0000 O   0  0  0  0  0  0  0  0  0  0  0  0
    5.7858    1.3685    0.0000 C   0  0  0  0  0  0  0  0  0  0  0  0
    4.7858    1.3684    0.0000 N   0  3  0  0  0  0  0  0  0  0  0  0
    4.2858    0.5024    0.0000 C   0  0  0  0  0  0  0  0  0  0  0  0
    3.2858    0.5023    0.0000 C   0  0  0  0  0  0  0  0  0  0  0  0
    2.6938   -0.3125    0.0000 C   0  0  0  0  0  0  0  0  0  0  0  0
    1.7360   -0.0012    0.0000 C   0  0  0  0  0  0  0  0  0  0  0  0
    1.7360    1.0058    0.0000 C   0  0  0  0  0  0  0  0  0  0  0  0
    2.6938    1.3169    0.0000 N   0  0  0  0  0  0  0  0  0  0  0  0
    0.8680    1.5138    0.0000 C   0  0  0  0  0  0  0  0  0  0  0  0
    0.0000    1.0058    0.0000 C   0  0  0  0  0  0  0  0  0  0  0  0
    0.0000    0.0000    0.0000 C   0  0  0  0  0  0  0  0  0  0  0  0
    0.8680   -0.4978    0.0000 C   0  0  0  0  0  0  0  0  0  0  0  0
    0.8675   -1.4978    0.0000 F   0  0  0  0  0  0  0  0  0  0  0  0
    7.7856    3.1006    0.0000 O   0  0  0  0  0  0  0  0  0  0  0  0
  1  2  1  0  0  0  0
  2  3  1  0  0  0  0
  3  4  2  0  0  0  0
  3  5  1  0  0  0  0
  5  6  1  0  0  0  0
  6  7  1  0  0  0  0
  7  8  1  0  0  0  0
  8 12  1  0  0  0  0
  8  9  2  0  0  0  0
  9 10  1  0  0  0  0
 10 16  2  0  0  0  0
 10 11  1  0  0  0  0
 11 12  1  0  0  0  0
 11 13  2  0  0  0  0
 13 14  1  0  0  0  0
 14 15  2  0  0  0  0
 15 16  1  0  0  0  0
 16 17  1  0  0  0  0
  2 18  1  0  0  0  0
M  CHG  1   6   1
M  END
$$$$
s_207____9284526____15269818
  -OEChem-03222016482D

 20 21  0     1  0  0  0  0  0999 V2000
    6.2858    0.5025    0.0000 C   0  0  0  0  0  0  0  0  0  0  0  0
    5.7859   -0.3636    0.0000 C   0  0  3  0  0  0  0  0  0  0  0  0
    6.2859   -1.2296    0.0000 C   0  0  0  0  0  0  0  0  0  0  0  0
    5.7860   -2.0956    0.0000 O   0  0  0  0  0  0  0  0  0  0  0  0
    7.2859   -1.2295    0.0000 N   0  0  0  0  0  0  0  0  0  0  0  0
    7.7859   -0.3635    0.0000 C   0  0  0  0  0  0  0  0  0  0  0  0
    7.7860   -2.0955    0.0000 C   0  0  0  0  0  0  0  0  0  0  0  0
    4.7859   -0.3636    0.0000 N   0  3  0  0  0  0  0  0  0  0  0  0
    4.2858    0.5024    0.0000 C   0  0  0  0  0  0  0  0  0  0  0  0
    3.2858    0.5023    0.0000 C   0  0  0  0  0  0  0  0  0  0  0  0
    2.6938   -0.3125    0.0000 C   0  0  0  0  0  0  0  0  0  0  0  0
    1.7360   -0.0012    0.0000 C   0  0  0  0  0  0  0  0  0  0  0  0
    1.7360    1.0058    0.0000 C   0  0  0  0  0  0  0  0  0  0  0  0
    2.6938    1.3169    0.0000 N   0  0  0  0  0  0  0  0  0  0  0  0
    0.8680    1.5138    0.0000 C   0  0  0  0  0  0  0  0  0  0  0  0
    0.0000    1.0058    0.0000 C   0  0  0  0  0  0  0  0  0  0  0  0
    0.0000    0.0000    0.0000 C   0  0  0  0  0  0  0  0  0  0  0  0
    0.8680   -0.4978    0.0000 C   0  0  0  0  0  0  0  0  0  0  0  0
    0.8675   -1.4978    0.0000 O   0  0  0  0  0  0  0  0  0  0  0  0
    1.7332   -1.9983    0.0000 C   0  0  0  0  0  0  0  0  0  0  0  0
  1  2  1  0  0  0  0
  2  3  1  0  0  0  0
  3  4  2  0  0  0  0
  3  5  1  0  0  0  0
  5  6  1  0  0  0  0
  5  7  1  0  0  0  0
  2  8  1  0  0  0  0
  8  9  1  0  0  0  0
  9 10  1  0  0  0  0
 10 14  1  0  0  0  0
 10 11  2  0  0  0  0
 11 12  1  0  0  0  0
 12 18  2  0  0  0  0
 12 13  1  0  0  0  0
 13 14  1  0  0  0  0
 13 15  2  0  0  0  0
 15 16  1  0  0  0  0
 16 17  2  0  0  0  0
 17 18  1  0  0  0  0
 18 19  1  0  0  0  0
 19 20  1  0  0  0  0
M  CHG  1   8   1
M  END
$$$$
s_22____13909752____12103014
  -OEChem-03222016482D

 18 19  0     0  0  0  0  0  0999 V2000
    6.8641   -4.7407    0.0000 C   0  0  0  0  0  0  0  0  0  0  0  0
    6.5551   -3.7896    0.0000 C   0  0  0  0  0  0  0  0  0  0  0  0
    5.5770   -3.5816    0.0000 C   0  0  0  0  0  0  0  0  0  0  0  0
    5.2680   -2.6306    0.0000 C   0  0  0  0  0  0  0  0  0  0  0  0
    5.9372   -1.8874    0.0000 O   0  0  0  0  0  0  0  0  0  0  0  0
    4.2899   -2.4226    0.0000 N   0  0  0  0  0  0  0  0  0  0  0  0
    3.9809   -1.4715    0.0000 C   0  0  0  0  0  0  0  0  0  0  0  0
    3.0028   -1.2636    0.0000 C   0  0  0  0  0  0  0  0  0  0  0  0
    2.6938   -0.3125    0.0000 C   0  0  0  0  0  0  0  0  0  0  0  0
    3.2858    0.5023    0.0000 C   0  0  0  0  0  0  0  0  0  0  0  0
    2.6938    1.3169    0.0000 N   0  0  0  0  0  0  0  0  0  0  0  0
    1.7360    1.0058    0.0000 C   0  0  0  0  0  0  0  0  0  0  0  0
    1.7360   -0.0012    0.0000 C   0  0  0  0  0  0  0  0  0  0  0  0
    0.8680   -0.4978    0.0000 C   0  0  0  0  0  0  0  0  0  0  0  0
    0.0000    0.0000    0.0000 C   0  0  0  0  0  0  0  0  0  0  0  0
   -0.0000    1.0058    0.0000 C   0  0  0  0  0  0  0  0  0  0  0  0
    0.8680    1.5138    0.0000 C   0  0  0  0  0  0  0  0  0  0  0  0
   -0.8653   -0.5013    0.0000 O   0  0  0  0  0  0  0  0  0  0  0  0
  1  2  1  0  0  0  0
  2  3  2  3  0  0  0
  3  4  1  0  0  0  0
  4  5  2  0  0  0  0
  4  6  1  0  0  0  0
  6  7  1  0  0  0  0
  7  8  1  0  0  0  0
  8  9  1  0  0  0  0
  9 13  1  0  0  0  0
  9 10  2  0  0  0  0
 10 11  1  0  0  0  0
 11 12  1  0  0  0  0
 12 17  2  0  0  0  0
 12 13  1  0  0  0  0
 13 14  2  0  0  0  0
 14 15  1  0  0  0  0
 15 16  2  0  0  0  0
 16 17  1  0  0  0  0
 15 18  1  0  0  0  0
M  END
$$$$
s_22____15775398____9296322
  -OEChem-03222016482D

 25 27  0     0  0  0  0  0  0999 V2000
    6.1949   -5.4838    0.0000 C   0  0  0  0  0  0  0  0  0  0  0  0
    5.8860   -4.5327    0.0000 C   0  0  0  0  0  0  0  0  0  0  0  0
    5.5770   -3.5816    0.0000 C   0  0  0  0  0  0  0  0  0  0  0  0
    5.2680   -2.6306    0.0000 C   0  0  0  0  0  0  0  0  0  0  0  0
    5.9372   -1.8874    0.0000 O   0  0  0  0  0  0  0  0  0  0  0  0
    4.2899   -2.4226    0.0000 N   0  0  0  0  0  0  0  0  0  0  0  0
    3.9809   -1.4715    0.0000 C   0  0  0  0  0  0  0  0  0  0  0  0
    3.0028   -1.2636    0.0000 C   0  0  0  0  0  0  0  0  0  0  0  0
    2.6938   -0.3125    0.0000 C   0  0  0  0  0  0  0  0  0  0  0  0
    3.2858    0.5023    0.0000 C   0  0  0  0  0  0  0  0  0  0  0  0
    2.6938    1.3169    0.0000 N   0  0  0  0  0  0  0  0  0  0  0  0
    1.7360    1.0058    0.0000 C   0  0  0  0  0  0  0  0  0  0  0  0
    1.7360   -0.0012    0.0000 C   0  0  0  0  0  0  0  0  0  0  0  0
    0.8680   -0.4978    0.0000 C   0  0  0  0  0  0  0  0  0  0  0  0
    0.0000    0.0000    0.0000 C   0  0  0  0  0  0  0  0  0  0  0  0
   -0.0000    1.0058    0.0000 C   0  0  0  0  0  0  0  0  0  0  0  0
    0.8680    1.5138    0.0000 C   0  0  0  0  0  0  0  0  0  0  0  0
    0.8680    2.5138    0.0000 O   0  0  0  0  0  0  0  0  0  0  0  0
    0.0020    3.0138    0.0000 C   0  0  0  0  0  0  0  0  0  0  0  0
    0.0020    4.0138    0.0000 C   0  0  0  0  0  0  0  0  0  0  0  0
   -0.8700    4.5138    0.0000 C   0  0  0  0  0  0  0  0  0  0  0  0
   -0.8701    5.5139    0.0000 C   0  0  0  0  0  0  0  0  0  0  0  0
   -0.0070    6.0189    0.0000 C   0  0  0  0  0  0  0  0  0  0  0  0
    0.8650    5.5189    0.0000 C   0  0  0  0  0  0  0  0  0  0  0  0
    0.8739    4.5138    0.0000 C   0  0  0  0  0  0  0  0  0  0  0  0
  1  2  1  0  0  0  0
  2  3  3  0  0  0  0
  3  4  1  0  0  0  0
  4  5  2  0  0  0  0
  4  6  1  0  0  0  0
  6  7  1  0  0  0  0
  7  8  1  0  0  0  0
  8  9  1  0  0  0  0
  9 13  1  0  0  0  0
  9 10  2  0  0  0  0
 10 11  1  0  0  0  0
 11 12  1  0  0  0  0
 12 17  2  0  0  0  0
 12 13  1  0  0  0  0
 13 14  2  0  0  0  0
 14 15  1  0  0  0  0
 15 16  2  0  0  0  0
 16 17  1  0  0  0  0
 17 18  1  0  0  0  0
 18 19  1  0  0  0  0
 19 20  1  0  0  0  0
 20 25  2  0  0  0  0
 20 21  1  0  0  0  0
 21 22  2  0  0  0  0
 22 23  1  0  0  0  0
 23 24  2  0  0  0  0
 24 25  1  0  0  0  0
M  END
$$$$
s_240690b____13913110____3025698
  -OEChem-03222016482D

 18 19  0     1  0  0  0  0  0999 V2000
    1.3555   -1.7987    0.0000 C   0  0  0  0  0  0  0  0  0  0  0  0
    2.3336   -2.0067    0.0000 C   0  0  3  0  0  0  0  0  0  0  0  0
    3.0028   -1.2636    0.0000 C   0  0  0  0  0  0  0  0  0  0  0  0
    2.6938   -0.3125    0.0000 C   0  0  0  0  0  0  0  0  0  0  0  0
    3.2858    0.5023    0.0000 C   0  0  0  0  0  0  0  0  0  0  0  0
    2.6938    1.3169    0.0000 N   0  0  0  0  0  0  0  0  0  0  0  0
    1.7360    1.0058    0.0000 C   0  0  0  0  0  0  0  0  0  0  0  0
    1.7360   -0.0012    0.0000 C   0  0  0  0  0  0  0  0  0  0  0  0
    0.8680   -0.4978    0.0000 C   0  0  0  0  0  0  0  0  0  0  0  0
    0.0000    0.0000    0.0000 C   0  0  0  0  0  0  0  0  0  0  0  0
   -0.0000    1.0058    0.0000 C   0  0  0  0  0  0  0  0  0  0  0  0
    0.8680    1.5138    0.0000 C   0  0  0  0  0  0  0  0  0  0  0  0
   -0.8653   -0.5013    0.0000 F   0  0  0  0  0  0  0  0  0  0  0  0
    2.6426   -2.9578    0.0000 N   0  0  0  0  0  0  0  0  0  0  0  0
    1.9734   -3.7009    0.0000 C   0  0  0  0  0  0  0  0  0  0  0  0
    0.9953   -3.4929    0.0000 O   0  0  0  0  0  0  0  0  0  0  0  0
    2.2824   -4.6519    0.0000 C   0  0  0  0  0  0  0  0  0  0  0  0
    1.6132   -5.3951    0.0000 N   0  3  0  0  0  0  0  0  0  0  0  0
  1  2  1  0  0  0  0
  2  3  1  0  0  0  0
  3  4  1  0  0  0  0
  4  8  1  0  0  0  0
  4  5  2  0  0  0  0
  5  6  1  0  0  0  0
  6  7  1  0  0  0  0
  7 12  2  0  0  0  0
  7  8  1  0  0  0  0
  8  9  2  0  0  0  0
  9 10  1  0  0  0  0
 10 11  2  0  0  0  0
 11 12  1  0  0  0  0
 10 13  1  0  0  0  0
  2 14  1  0  0  0  0
 14 15  1  0  0  0  0
 15 16  2  0  0  0  0
 15 17  1  0  0  0  0
 17 18  1  0  0  0  0
M  CHG  1  18   1
M  END
$$$$
s_240690b____13040954____13151248
  -OEChem-03222016482D

 19 20  0     0  0  0  0  0  0999 V2000
    0.8680   -0.4978    0.0000 C   0  0  0  0  0  0  0  0  0  0  0  0
    1.7360   -0.0012    0.0000 C   0  0  0  0  0  0  0  0  0  0  0  0
    1.7360    1.0058    0.0000 C   0  0  0  0  0  0  0  0  0  0  0  0
    0.8680    1.5138    0.0000 C   0  0  0  0  0  0  0  0  0  0  0  0
    0.0000    1.0058    0.0000 C   0  0  0  0  0  0  0  0  0  0  0  0
    0.0000    0.0000    0.0000 C   0  0  0  0  0  0  0  0  0  0  0  0
   -0.8653   -0.5013    0.0000 F   0  0  0  0  0  0  0  0  0  0  0  0
   -0.8675    1.5032    0.0000 F   0  0  0  0  0  0  0  0  0  0  0  0
    2.6938    1.3169    0.0000 N   0  0  0  0  0  0  0  0  0  0  0  0
    3.2858    0.5023    0.0000 C   0  0  0  0  0  0  0  0  0  0  0  0
    2.6938   -0.3125    0.0000 C   0  0  0  0  0  0  0  0  0  0  0  0
    3.0028   -1.2636    0.0000 C   0  0  0  0  0  0  0  0  0  0  0  0
    3.9809   -1.4715    0.0000 C   0  0  0  0  0  0  0  0  0  0  0  0
    4.2899   -2.4226    0.0000 N   0  0  0  0  0  0  0  0  0  0  0  0
    5.2680   -2.6306    0.0000 C   0  0  0  0  0  0  0  0  0  0  0  0
    5.9372   -1.8874    0.0000 O   0  0  0  0  0  0  0  0  0  0  0  0
    5.5770   -3.5816    0.0000 C   0  0  0  0  0  0  0  0  0  0  0  0
    6.5551   -3.7896    0.0000 O   0  0  0  0  0  0  0  0  0  0  0  0
    6.8641   -4.7407    0.0000 N   0  0  0  0  0  0  0  0  0  0  0  0
  1  6  2  0  0  0  0
  1  2  1  0  0  0  0
  2 11  1  0  0  0  0
  2  3  2  0  0  0  0
  3  4  1  0  0  0  0
  4  5  2  0  0  0  0
  5  6  1  0  0  0  0
  6  7  1  0  0  0  0
  5  8  1  0  0  0  0
  3  9  1  0  0  0  0
  9 10  1  0  0  0  0
 10 11  2  0  0  0  0
 11 12  1  0  0  0  0
 12 13  1  0  0  0  0
 13 14  1  0  0  0  0
 14 15  1  0  0  0  0
 15 16  2  0  0  0  0
 15 17  1  0  0  0  0
 17 18  1  0  0  0  0
 18 19  1  0  0  0  0
M  END
$$$$
s_22____13771018____58866
  -OEChem-03222016482D

 21 22  0     0  0  0  0  0  0999 V2000
    6.8641   -4.7407    0.0000 C   0  0  0  0  0  0  0  0  0  0  0  0
    6.5551   -3.7896    0.0000 C   0  0  0  0  0  0  0  0  0  0  0  0
    5.5770   -3.5816    0.0000 C   0  0  0  0  0  0  0  0  0  0  0  0
    5.2680   -2.6306    0.0000 C   0  0  0  0  0  0  0  0  0  0  0  0
    5.9372   -1.8874    0.0000 O   0  0  0  0  0  0  0  0  0  0  0  0
    4.2899   -2.4226    0.0000 N   0  0  0  0  0  0  0  0  0  0  0  0
    3.9809   -1.4715    0.0000 C   0  0  0  0  0  0  0  0  0  0  0  0
    3.0028   -1.2636    0.0000 C   0  0  0  0  0  0  0  0  0  0  0  0
    2.6938   -0.3125    0.0000 C   0  0  0  0  0  0  0  0  0  0  0  0
    3.2858    0.5023    0.0000 C   0  0  0  0  0  0  0  0  0  0  0  0
    2.6938    1.3169    0.0000 N   0  0  0  0  0  0  0  0  0  0  0  0
    1.7360    1.0058    0.0000 C   0  0  0  0  0  0  0  0  0  0  0  0
    1.7360   -0.0012    0.0000 C   0  0  0  0  0  0  0  0  0  0  0  0
    0.8680   -0.4978    0.0000 C   0  0  0  0  0  0  0  0  0  0  0  0
    0.0000    0.0000    0.0000 C   0  0  0  0  0  0  0  0  0  0  0  0
   -0.0000    1.0058    0.0000 C   0  0  0  0  0  0  0  0  0  0  0  0
    0.8680    1.5138    0.0000 C   0  0  0  0  0  0  0  0  0  0  0  0
   -0.8653   -0.5013    0.0000 O   0  0  0  0  0  0  0  0  0  0  0  0
   -0.8639   -1.5013    0.0000 C   0  0  0  0  0  0  0  0  0  0  0  0
   -1.7292   -2.0025    0.0000 C   0  0  0  0  0  0  0  0  0  0  0  0
   -1.7277   -3.0025    0.0000 C   0  0  0  0  0  0  0  0  0  0  0  0
  1  2  1  0  0  0  0
  2  3  1  0  0  0  0
  3  4  1  0  0  0  0
  4  5  2  0  0  0  0
  4  6  1  0  0  0  0
  6  7  1  0  0  0  0
  7  8  1  0  0  0  0
  8  9  1  0  0  0  0
  9 13  1  0  0  0  0
  9 10  2  0  0  0  0
 10 11  1  0  0  0  0
 11 12  1  0  0  0  0
 12 17  2  0  0  0  0
 12 13  1  0  0  0  0
 13 14  2  0  0  0  0
 14 15  1  0  0  0  0
 15 16  2  0  0  0  0
 16 17  1  0  0  0  0
 15 18  1  0  0  0  0
 18 19  1  0  0  0  0
 19 20  1  0  0  0  0
 20 21  1  0  0  0  0
M  END
$$$$
s_22____13025516____9477924
  -OEChem-03222016482D

 21 22  0     0  0  0  0  0  0999 V2000
    6.3472   -4.7677    0.0000 C   0  0  0  0  0  0  0  0  0  0  0  0
    6.5551   -3.7896    0.0000 C   0  0  0  0  0  0  0  0  0  0  0  0
    7.5333   -3.9976    0.0000 C   0  0  0  0  0  0  0  0  0  0  0  0
    5.5770   -3.5816    0.0000 C   0  0  0  0  0  0  0  0  0  0  0  0
    5.2680   -2.6306    0.0000 C   0  0  0  0  0  0  0  0  0  0  0  0
    5.9372   -1.8874    0.0000 O   0  0  0  0  0  0  0  0  0  0  0  0
    4.2899   -2.4226    0.0000 N   0  0  0  0  0  0  0  0  0  0  0  0
    3.9809   -1.4715    0.0000 C   0  0  0  0  0  0  0  0  0  0  0  0
    3.0028   -1.2636    0.0000 C   0  0  0  0  0  0  0  0  0  0  0  0
    2.6938   -0.3125    0.0000 C   0  0  0  0  0  0  0  0  0  0  0  0
    3.2858    0.5023    0.0000 C   0  0  0  0  0  0  0  0  0  0  0  0
    2.6938    1.3169    0.0000 N   0  0  0  0  0  0  0  0  0  0  0  0
    1.7360    1.0058    0.0000 C   0  0  0  0  0  0  0  0  0  0  0  0
    1.7360   -0.0012    0.0000 C   0  0  0  0  0  0  0  0  0  0  0  0
    0.8680   -0.4978    0.0000 C   0  0  0  0  0  0  0  0  0  0  0  0
    0.0000    0.0000    0.0000 C   0  0  0  0  0  0  0  0  0  0  0  0
   -0.0000    1.0058    0.0000 C   0  0  0  0  0  0  0  0  0  0  0  0
    0.8680    1.5138    0.0000 C   0  0  0  0  0  0  0  0  0  0  0  0
    0.8675   -1.4978    0.0000 O   0  0  0  0  0  0  0  0  0  0  0  0
    1.7332   -1.9983    0.0000 C   0  0  0  0  0  0  0  0  0  0  0  0
    6.7631   -2.8115    0.0000 O   0  0  0  0  0  0  0  0  0  0  0  0
  1  2  1  0  0  0  0
  2  3  1  0  0  0  0
  2  4  1  0  0  0  0
  4  5  1  0  0  0  0
  5  6  2  0  0  0  0
  5  7  1  0  0  0  0
  7  8  1  0  0  0  0
  8  9  1  0  0  0  0
  9 10  1  0  0  0  0
 10 14  1  0  0  0  0
 10 11  2  0  0  0  0
 11 12  1  0  0  0  0
 12 13  1  0  0  0  0
 13 18  2  0  0  0  0
 13 14  1  0  0  0  0
 14 15  2  0  0  0  0
 15 16  1  0  0  0  0
 16 17  2  0  0  0  0
 17 18  1  0  0  0  0
 15 19  1  0  0  0  0
 19 20  1  0  0  0  0
  2 21  1  0  0  0  0
M  END
$$$$
s_240690b____12854120____3025680
  -OEChem-03222016482D

 18 19  0     0  0  0  0  0  0999 V2000
   -0.0000    1.0058    0.0000 C   0  0  0  0  0  0  0  0  0  0  0  0
    0.8680    1.5138    0.0000 C   0  0  0  0  0  0  0  0  0  0  0  0
    1.7360    1.0058    0.0000 C   0  0  0  0  0  0  0  0  0  0  0  0
    1.7360   -0.0012    0.0000 C   0  0  0  0  0  0  0  0  0  0  0  0
    0.8680   -0.4978    0.0000 C   0  0  0  0  0  0  0  0  0  0  0  0
    0.0000    0.0000    0.0000 C   0  0  0  0  0  0  0  0  0  0  0  0
   -0.8653   -0.5013    0.0000 Br  0  0  0  0  0  0  0  0  0  0  0  0
    2.6938   -0.3125    0.0000 C   0  0  0  0  0  0  0  0  0  0  0  0
    3.2858    0.5023    0.0000 C   0  0  0  0  0  0  0  0  0  0  0  0
    2.6938    1.3169    0.0000 N   0  0  0  0  0  0  0  0  0  0  0  0
    3.0028   -1.2636    0.0000 C   0  0  0  0  0  0  0  0  0  0  0  0
    3.9809   -1.4715    0.0000 C   0  0  0  0  0  0  0  0  0  0  0  0
    4.2899   -2.4226    0.0000 N   0  0  0  0  0  0  0  0  0  0  0  0
    5.2680   -2.6306    0.0000 C   0  0  0  0  0  0  0  0  0  0  0  0
    5.9372   -1.8874    0.0000 O   0  0  0  0  0  0  0  0  0  0  0  0
    5.5770   -3.5816    0.0000 C   0  0  0  0  0  0  0  0  0  0  0  0
    6.5551   -3.7896    0.0000 C   0  0  0  0  0  0  0  0  0  0  0  0
    6.8641   -4.7407    0.0000 N   0  3  0  0  0  0  0  0  0  0  0  0
  1  6  2  0  0  0  0
  1  2  1  0  0  0  0
  2  3  2  0  0  0  0
  3 10  1  0  0  0  0
  3  4  1  0  0  0  0
  4  5  2  0  0  0  0
  5  6  1  0  0  0  0
  6  7  1  0  0  0  0
  4  8  1  0  0  0  0
  8  9  2  0  0  0  0
  9 10  1  0  0  0  0
  8 11  1  0  0  0  0
 11 12  1  0  0  0  0
 12 13  1  0  0  0  0
 13 14  1  0  0  0  0
 14 15  2  0  0  0  0
 14 16  1  0  0  0  0
 16 17  1  0  0  0  0
 17 18  1  0  0  0  0
M  CHG  1  18   1
M  END
$$$$
s_240690b____7354134____3025692
  -OEChem-03222016482D

 18 19  0     1  0  0  0  0  0999 V2000
    4.9078   -4.3247    0.0000 C   0  0  0  0  0  0  0  0  0  0  0  0
    5.5770   -3.5816    0.0000 C   0  0  3  0  0  0  0  0  0  0  0  0
    5.2680   -2.6306    0.0000 C   0  0  0  0  0  0  0  0  0  0  0  0
    5.9372   -1.8874    0.0000 O   0  0  0  0  0  0  0  0  0  0  0  0
    4.2899   -2.4226    0.0000 N   0  0  0  0  0  0  0  0  0  0  0  0
    3.9809   -1.4715    0.0000 C   0  0  0  0  0  0  0  0  0  0  0  0
    3.0028   -1.2636    0.0000 C   0  0  0  0  0  0  0  0  0  0  0  0
    2.6938   -0.3125    0.0000 C   0  0  0  0  0  0  0  0  0  0  0  0
    3.2858    0.5023    0.0000 C   0  0  0  0  0  0  0  0  0  0  0  0
    2.6938    1.3169    0.0000 N   0  0  0  0  0  0  0  0  0  0  0  0
    1.7360    1.0058    0.0000 C   0  0  0  0  0  0  0  0  0  0  0  0
    1.7360   -0.0012    0.0000 C   0  0  0  0  0  0  0  0  0  0  0  0
    0.8680   -0.4978    0.0000 C   0  0  0  0  0  0  0  0  0  0  0  0
    0.0000    0.0000    0.0000 C   0  0  0  0  0  0  0  0  0  0  0  0
   -0.0000    1.0058    0.0000 C   0  0  0  0  0  0  0  0  0  0  0  0
    0.8680    1.5138    0.0000 C   0  0  0  0  0  0  0  0  0  0  0  0
   -0.8653   -0.5013    0.0000 Cl  0  0  0  0  0  0  0  0  0  0  0  0
    6.5551   -3.7896    0.0000 N   0  3  0  0  0  0  0  0  0  0  0  0
  1  2  1  0  0  0  0
  2  3  1  0  0  0  0
  3  4  2  0  0  0  0
  3  5  1  0  0  0  0
  5  6  1  0  0  0  0
  6  7  1  0  0  0  0
  7  8  1  0  0  0  0
  8 12  1  0  0  0  0
  8  9  2  0  0  0  0
  9 10  1  0  0  0  0
 10 11  1  0  0  0  0
 11 16  2  0  0  0  0
 11 12  1  0  0  0  0
 12 13  2  0  0  0  0
 13 14  1  0  0  0  0
 14 15  2  0  0  0  0
 15 16  1  0  0  0  0
 14 17  1  0  0  0  0
  2 18  1  0  0  0  0
M  CHG  1  18   1
M  END
$$$$
s_22____13025516____11560700
  -OEChem-03222016482D

 21 23  0     0  0  0  0  0  0999 V2000
    0.0012   -1.9973    0.0000 C   0  0  0  0  0  0  0  0  0  0  0  0
    0.8675   -1.4978    0.0000 O   0  0  0  0  0  0  0  0  0  0  0  0
    0.8680   -0.4978    0.0000 C   0  0  0  0  0  0  0  0  0  0  0  0
    0.0000    0.0000    0.0000 C   0  0  0  0  0  0  0  0  0  0  0  0
   -0.0000    1.0058    0.0000 C   0  0  0  0  0  0  0  0  0  0  0  0
    0.8680    1.5138    0.0000 C   0  0  0  0  0  0  0  0  0  0  0  0
    1.7360    1.0058    0.0000 C   0  0  0  0  0  0  0  0  0  0  0  0
    1.7360   -0.0012    0.0000 C   0  0  0  0  0  0  0  0  0  0  0  0
    2.6938   -0.3125    0.0000 C   0  0  0  0  0  0  0  0  0  0  0  0
    3.2858    0.5023    0.0000 C   0  0  0  0  0  0  0  0  0  0  0  0
    2.6938    1.3169    0.0000 N   0  0  0  0  0  0  0  0  0  0  0  0
    3.0028   -1.2636    0.0000 C   0  0  0  0  0  0  0  0  0  0  0  0
    3.9809   -1.4715    0.0000 C   0  0  0  0  0  0  0  0  0  0  0  0
    4.2899   -2.4226    0.0000 N   0  0  0  0  0  0  0  0  0  0  0  0
    5.2680   -2.6306    0.0000 C   0  0  0  0  0  0  0  0  0  0  0  0
    5.9372   -1.8874    0.0000 O   0  0  0  0  0  0  0  0  0  0  0  0
    5.5770   -3.5816    0.0000 C   0  0  0  0  0  0  0  0  0  0  0  0
    6.5551   -3.7896    0.0000 C   0  0  0  0  0  0  0  0  0  0  0  0
    7.3937   -3.2450    0.0000 C   0  0  0  0  0  0  0  0  0  0  0  0
    7.9383   -4.0837    0.0000 S   0  0  0  0  0  0  0  0  0  0  0  0
    7.0997   -4.6282    0.0000 C   0  0  0  0  0  0  0  0  0  0  0  0
  1  2  1  0  0  0  0
  2  3  1  0  0  0  0
  3  8  2  0  0  0  0
  3  4  1  0  0  0  0
  4  5  2  0  0  0  0
  5  6  1  0  0  0  0
  6  7  2  0  0  0  0
  7 11  1  0  0  0  0
  7  8  1  0  0  0  0
  8  9  1  0  0  0  0
  9 10  2  0  0  0  0
 10 11  1  0  0  0  0
  9 12  1  0  0  0  0
 12 13  1  0  0  0  0
 13 14  1  0  0  0  0
 14 15  1  0  0  0  0
 15 16  2  0  0  0  0
 15 17  1  0  0  0  0
 17 18  1  0  0  0  0
 18 21  1  0  0  0  0
 18 19  1  0  0  0  0
 19 20  1  0  0  0  0
 20 21  1  0  0  0  0
M  END
$$$$
s_270062____15561916____8147258
  -OEChem-03222016482D

 19 20  0     0  0  0  0  0  0999 V2000
    1.5905   -1.3375    0.0000 C   0  0  0  0  0  0  0  0  0  0  0  0
    2.3336   -2.0067    0.0000 C   0  0  0  0  0  0  0  0  0  0  0  0
    3.0767   -2.6759    0.0000 C   0  0  0  0  0  0  0  0  0  0  0  0
    3.0028   -1.2636    0.0000 C   0  0  0  0  0  0  0  0  0  0  0  0
    2.6938   -0.3125    0.0000 C   0  0  0  0  0  0  0  0  0  0  0  0
    3.2858    0.5023    0.0000 C   0  0  0  0  0  0  0  0  0  0  0  0
    2.6938    1.3169    0.0000 N   0  0  0  0  0  0  0  0  0  0  0  0
    1.7360    1.0058    0.0000 C   0  0  0  0  0  0  0  0  0  0  0  0
    1.7360   -0.0012    0.0000 C   0  0  0  0  0  0  0  0  0  0  0  0
    0.8680   -0.4978    0.0000 C   0  0  0  0  0  0  0  0  0  0  0  0
    0.0000    0.0000    0.0000 C   0  0  0  0  0  0  0  0  0  0  0  0
   -0.0000    1.0058    0.0000 C   0  0  0  0  0  0  0  0  0  0  0  0
    0.8680    1.5138    0.0000 C   0  0  0  0  0  0  0  0  0  0  0  0
    0.8680    2.5138    0.0000 Br  0  0  0  0  0  0  0  0  0  0  0  0
    1.6644   -2.7498    0.0000 N   0  0  0  0  0  0  0  0  0  0  0  0
    1.9734   -3.7009    0.0000 C   0  0  0  0  0  0  0  0  0  0  0  0
    2.9515   -3.9088    0.0000 O   0  0  0  0  0  0  0  0  0  0  0  0
    1.3042   -4.4440    0.0000 C   0  0  0  0  0  0  0  0  0  0  0  0
    1.6132   -5.3951    0.0000 Cl  0  0  0  0  0  0  0  0  0  0  0  0
  1  2  1  0  0  0  0
  2  3  1  0  0  0  0
  2  4  1  0  0  0  0
  4  5  1  0  0  0  0
  5  9  1  0  0  0  0
  5  6  2  0  0  0  0
  6  7  1  0  0  0  0
  7  8  1  0  0  0  0
  8 13  2  0  0  0  0
  8  9  1  0  0  0  0
  9 10  2  0  0  0  0
 10 11  1  0  0  0  0
 11 12  2  0  0  0  0
 12 13  1  0  0  0  0
 13 14  1  0  0  0  0
  2 15  1  0  0  0  0
 15 16  1  0  0  0  0
 16 17  2  0  0  0  0
 16 18  1  0  0  0  0
 18 19  1  0  0  0  0
M  END
$$$$
s_512____309924____13978836
  -OEChem-03222016482D

 21 23  0     0  0  0  0  0  0999 V2000
   -0.8705    2.5032    0.0000 C   0  0  0  0  0  0  0  0  0  0  0  0
   -0.8675    1.5032    0.0000 O   0  0  0  0  0  0  0  0  0  0  0  0
    0.0000    1.0058    0.0000 C   0  0  0  0  0  0  0  0  0  0  0  0
    0.0000    0.0000    0.0000 C   0  0  0  0  0  0  0  0  0  0  0  0
    0.8680   -0.4978    0.0000 C   0  0  0  0  0  0  0  0  0  0  0  0
    1.7360   -0.0012    0.0000 C   0  0  0  0  0  0  0  0  0  0  0  0
    1.7360    1.0058    0.0000 C   0  0  0  0  0  0  0  0  0  0  0  0
    0.8680    1.5138    0.0000 C   0  0  0  0  0  0  0  0  0  0  0  0
    2.6938    1.3169    0.0000 N   0  0  0  0  0  0  0  0  0  0  0  0
    3.2858    0.5023    0.0000 C   0  0  0  0  0  0  0  0  0  0  0  0
    2.6938   -0.3125    0.0000 C   0  0  0  0  0  0  0  0  0  0  0  0
    3.0028   -1.2636    0.0000 C   0  0  0  0  0  0  0  0  0  0  0  0
    3.9809   -1.4715    0.0000 C   0  0  0  0  0  0  0  0  0  0  0  0
    4.2899   -2.4226    0.0000 N   0  0  0  0  0  0  0  0  0  0  0  0
    5.2680   -2.6306    0.0000 C   0  0  0  0  0  0  0  0  0  0  0  0
    5.9372   -1.8874    0.0000 O   0  0  0  0  0  0  0  0  0  0  0  0
    5.5770   -3.5816    0.0000 N   0  0  0  0  0  0  0  0  0  0  0  0
    6.5551   -3.7896    0.0000 C   0  0  0  0  0  0  0  0  0  0  0  0
    6.8641   -4.7407    0.0000 C   0  0  0  0  0  0  0  0  0  0  0  0
    6.6568   -5.7209    0.0000 C   0  0  0  0  0  0  0  0  0  0  0  0
    7.6079   -5.4119    0.0000 C   0  0  0  0  0  0  0  0  0  0  0  0
  1  2  1  0  0  0  0
  2  3  1  0  0  0  0
  3  8  2  0  0  0  0
  3  4  1  0  0  0  0
  4  5  2  0  0  0  0
  5  6  1  0  0  0  0
  6 11  1  0  0  0  0
  6  7  2  0  0  0  0
  7  8  1  0  0  0  0
  7  9  1  0  0  0  0
  9 10  1  0  0  0  0
 10 11  2  0  0  0  0
 11 12  1  0  0  0  0
 12 13  1  0  0  0  0
 13 14  1  0  0  0  0
 14 15  1  0  0  0  0
 15 16  2  0  0  0  0
 15 17  1  0  0  0  0
 17 18  1  0  0  0  0
 18 19  1  0  0  0  0
 19 21  1  0  0  0  0
 19 20  1  0  0  0  0
 20 21  1  0  0  0  0
M  END
$$$$
s_240690b____13771088____3025680
  -OEChem-03222016482D

 21 22  0     0  0  0  0  0  0999 V2000
   -3.4641   -0.0050    0.0000 C   0  0  0  0  0  0  0  0  0  0  0  0
   -2.5974   -0.5038    0.0000 C   0  0  0  0  0  0  0  0  0  0  0  0
   -1.7320   -0.0025    0.0000 C   0  0  0  0  0  0  0  0  0  0  0  0
   -0.8653   -0.5013    0.0000 O   0  0  0  0  0  0  0  0  0  0  0  0
    0.0000    0.0000    0.0000 C   0  0  0  0  0  0  0  0  0  0  0  0
   -0.0000    1.0058    0.0000 C   0  0  0  0  0  0  0  0  0  0  0  0
    0.8680    1.5138    0.0000 C   0  0  0  0  0  0  0  0  0  0  0  0
    1.7360    1.0058    0.0000 C   0  0  0  0  0  0  0  0  0  0  0  0
    1.7360   -0.0012    0.0000 C   0  0  0  0  0  0  0  0  0  0  0  0
    0.8680   -0.4978    0.0000 C   0  0  0  0  0  0  0  0  0  0  0  0
    2.6938   -0.3125    0.0000 C   0  0  0  0  0  0  0  0  0  0  0  0
    3.2858    0.5023    0.0000 C   0  0  0  0  0  0  0  0  0  0  0  0
    2.6938    1.3169    0.0000 N   0  0  0  0  0  0  0  0  0  0  0  0
    3.0028   -1.2636    0.0000 C   0  0  0  0  0  0  0  0  0  0  0  0
    3.9809   -1.4715    0.0000 C   0  0  0  0  0  0  0  0  0  0  0  0
    4.2899   -2.4226    0.0000 N   0  0  0  0  0  0  0  0  0  0  0  0
    5.2680   -2.6306    0.0000 C   0  0  0  0  0  0  0  0  0  0  0  0
    5.9372   -1.8874    0.0000 O   0  0  0  0  0  0  0  0  0  0  0  0
    5.5770   -3.5816    0.0000 C   0  0  0  0  0  0  0  0  0  0  0  0
    6.5551   -3.7896    0.0000 C   0  0  0  0  0  0  0  0  0  0  0  0
    6.8641   -4.7407    0.0000 N   0  3  0  0  0  0  0  0  0  0  0  0
  1  2  1  0  0  0  0
  2  3  1  0  0  0  0
  3  4  1  0  0  0  0
  4  5  1  0  0  0  0
  5 10  2  0  0  0  0
  5  6  1  0  0  0  0
  6  7  2  0  0  0  0
  7  8  1  0  0  0  0
  8 13  1  0  0  0  0
  8  9  2  0  0  0  0
  9 10  1  0  0  0  0
  9 11  1  0  0  0  0
 11 12  2  0  0  0  0
 12 13  1  0  0  0  0
 11 14  1  0  0  0  0
 14 15  1  0  0  0  0
 15 16  1  0  0  0  0
 16 17  1  0  0  0  0
 17 18  2  0  0  0  0
 17 19  1  0  0  0  0
 19 20  1  0  0  0  0
 20 21  1  0  0  0  0
M  CHG  1  21   1
M  END
$$$$
s_270062____17634280____15585492
  -OEChem-03222016482D

 17 18  0     0  0  0  0  0  0999 V2000
    4.2858    0.5024    0.0000 C   0  0  0  0  0  0  0  0  0  0  0  0
    3.2858    0.5023    0.0000 C   0  0  0  0  0  0  0  0  0  0  0  0
    2.6938   -0.3125    0.0000 C   0  0  0  0  0  0  0  0  0  0  0  0
    1.7360   -0.0012    0.0000 C   0  0  0  0  0  0  0  0  0  0  0  0
    1.7360    1.0058    0.0000 C   0  0  0  0  0  0  0  0  0  0  0  0
    2.6938    1.3169    0.0000 N   0  0  0  0  0  0  0  0  0  0  0  0
    0.8680    1.5138    0.0000 C   0  0  0  0  0  0  0  0  0  0  0  0
    0.0000    1.0058    0.0000 C   0  0  0  0  0  0  0  0  0  0  0  0
    0.0000    0.0000    0.0000 C   0  0  0  0  0  0  0  0  0  0  0  0
    0.8680   -0.4978    0.0000 C   0  0  0  0  0  0  0  0  0  0  0  0
    0.8675   -1.4978    0.0000 Br  0  0  0  0  0  0  0  0  0  0  0  0
    3.0028   -1.2636    0.0000 C   0  0  0  0  0  0  0  0  0  0  0  0
    3.9809   -1.4715    0.0000 C   0  0  0  0  0  0  0  0  0  0  0  0
    4.2899   -2.4226    0.0000 N   0  0  0  0  0  0  0  0  0  0  0  0
    5.2680   -2.6306    0.0000 C   0  0  0  0  0  0  0  0  0  0  0  0
    5.9372   -1.8875    0.0000 O   0  0  0  0  0  0  0  0  0  0  0  0
    5.5770   -3.5816    0.0000 C   0  0  0  0  0  0  0  0  0  0  0  0
  1  2  1  0  0  0  0
  2  6  1  0  0  0  0
  2  3  2  0  0  0  0
  3  4  1  0  0  0  0
  4 10  2  0  0  0  0
  4  5  1  0  0  0  0
  5  6  1  0  0  0  0
  5  7  2  0  0  0  0
  7  8  1  0  0  0  0
  8  9  2  0  0  0  0
  9 10  1  0  0  0  0
 10 11  1  0  0  0  0
  3 12  1  0  0  0  0
 12 13  1  0  0  0  0
 13 14  1  0  0  0  0
 14 15  1  0  0  0  0
 15 16  2  0  0  0  0
 15 17  1  0  0  0  0
M  END
$$$$
s_512____158561____15506628
  -OEChem-03222016482D

 21 22  0     0  0  0  0  0  0999 V2000
    7.8422   -4.9486    0.0000 C   0  0  0  0  0  0  0  0  0  0  0  0
    6.8641   -4.7407    0.0000 C   0  0  0  0  0  0  0  0  0  0  0  0
    6.1949   -5.4838    0.0000 C   0  0  0  0  0  0  0  0  0  0  0  0
    6.5551   -3.7896    0.0000 C   0  0  0  0  0  0  0  0  0  0  0  0
    5.5770   -3.5816    0.0000 N   0  0  0  0  0  0  0  0  0  0  0  0
    5.2680   -2.6306    0.0000 C   0  0  0  0  0  0  0  0  0  0  0  0
    5.9372   -1.8874    0.0000 O   0  0  0  0  0  0  0  0  0  0  0  0
    4.2899   -2.4226    0.0000 N   0  0  0  0  0  0  0  0  0  0  0  0
    3.9809   -1.4715    0.0000 C   0  0  0  0  0  0  0  0  0  0  0  0
    3.0028   -1.2636    0.0000 C   0  0  0  0  0  0  0  0  0  0  0  0
    2.6938   -0.3125    0.0000 C   0  0  0  0  0  0  0  0  0  0  0  0
    3.2858    0.5023    0.0000 C   0  0  0  0  0  0  0  0  0  0  0  0
    2.6938    1.3169    0.0000 N   0  0  0  0  0  0  0  0  0  0  0  0
    1.7360    1.0058    0.0000 C   0  0  0  0  0  0  0  0  0  0  0  0
    1.7360   -0.0012    0.0000 C   0  0  0  0  0  0  0  0  0  0  0  0
    0.8680   -0.4978    0.0000 C   0  0  0  0  0  0  0  0  0  0  0  0
    0.0000    0.0000    0.0000 C   0  0  0  0  0  0  0  0  0  0  0  0
   -0.0000    1.0058    0.0000 C   0  0  0  0  0  0  0  0  0  0  0  0
    0.8680    1.5138    0.0000 C   0  0  0  0  0  0  0  0  0  0  0  0
    0.8680    2.5138    0.0000 O   0  0  0  0  0  0  0  0  0  0  0  0
    0.0020    3.0138    0.0000 C   0  0  0  0  0  0  0  0  0  0  0  0
  1  2  1  0  0  0  0
  2  3  1  0  0  0  0
  2  4  1  0  0  0  0
  4  5  1  0  0  0  0
  5  6  1  0  0  0  0
  6  7  2  0  0  0  0
  6  8  1  0  0  0  0
  8  9  1  0  0  0  0
  9 10  1  0  0  0  0
 10 11  1  0  0  0  0
 11 15  1  0  0  0  0
 11 12  2  0  0  0  0
 12 13  1  0  0  0  0
 13 14  1  0  0  0  0
 14 19  2  0  0  0  0
 14 15  1  0  0  0  0
 15 16  2  0  0  0  0
 16 17  1  0  0  0  0
 17 18  2  0  0  0  0
 18 19  1  0  0  0  0
 19 20  1  0  0  0  0
 20 21  1  0  0  0  0
M  END
$$$$
s_240690b____7354388____7368632
  -OEChem-03222016482D

 20 21  0     0  0  0  0  0  0999 V2000
    1.2530   -7.0892    0.0000 C   0  0  0  0  0  0  0  0  0  0  0  0
    1.9222   -6.3461    0.0000 C   0  0  0  0  0  0  0  0  0  0  0  0
    1.6132   -5.3951    0.0000 N   0  3  0  0  0  0  0  0  0  0  0  0
    2.2824   -4.6519    0.0000 C   0  0  0  0  0  0  0  0  0  0  0  0
    1.9734   -3.7009    0.0000 C   0  0  0  0  0  0  0  0  0  0  0  0
    0.9953   -3.4929    0.0000 O   0  0  0  0  0  0  0  0  0  0  0  0
    2.6426   -2.9578    0.0000 N   0  0  0  0  0  0  0  0  0  0  0  0
    2.3336   -2.0067    0.0000 C   0  0  0  0  0  0  0  0  0  0  0  0
    3.0028   -1.2636    0.0000 C   0  0  0  0  0  0  0  0  0  0  0  0
    2.6938   -0.3125    0.0000 C   0  0  0  0  0  0  0  0  0  0  0  0
    3.2858    0.5023    0.0000 C   0  0  0  0  0  0  0  0  0  0  0  0
    2.6938    1.3169    0.0000 N   0  0  0  0  0  0  0  0  0  0  0  0
    1.7360    1.0058    0.0000 C   0  0  0  0  0  0  0  0  0  0  0  0
    1.7360   -0.0012    0.0000 C   0  0  0  0  0  0  0  0  0  0  0  0
    0.8680   -0.4978    0.0000 C   0  0  0  0  0  0  0  0  0  0  0  0
    0.0000    0.0000    0.0000 C   0  0  0  0  0  0  0  0  0  0  0  0
   -0.0000    1.0058    0.0000 C   0  0  0  0  0  0  0  0  0  0  0  0
    0.8680    1.5138    0.0000 C   0  0  0  0  0  0  0  0  0  0  0  0
   -0.8653   -0.5013    0.0000 O   0  0  0  0  0  0  0  0  0  0  0  0
   -0.8639   -1.5013    0.0000 C   0  0  0  0  0  0  0  0  0  0  0  0
  1  2  1  0  0  0  0
  2  3  1  0  0  0  0
  3  4  1  0  0  0  0
  4  5  1  0  0  0  0
  5  6  2  0  0  0  0
  5  7  1  0  0  0  0
  7  8  1  0  0  0  0
  8  9  1  0  0  0  0
  9 10  1  0  0  0  0
 10 14  1  0  0  0  0
 10 11  2  0  0  0  0
 11 12  1  0  0  0  0
 12 13  1  0  0  0  0
 13 18  2  0  0  0  0
 13 14  1  0  0  0  0
 14 15  2  0  0  0  0
 15 16  1  0  0  0  0
 16 17  2  0  0  0  0
 17 18  1  0  0  0  0
 16 19  1  0  0  0  0
 19 20  1  0  0  0  0
M  CHG  1   3   1
M  END
$$$$
s_270004____11392970____16621896
  -OEChem-03222016482D

 20 21  0     0  0  0  0  0  0999 V2000
    7.7857    1.3686    0.0000 C   0  0  0  0  0  0  0  0  0  0  0  0
    7.2857    2.2346    0.0000 N   0  0  0  0  0  0  0  0  0  0  0  0
    6.2857    2.2345    0.0000 C   0  0  0  0  0  0  0  0  0  0  0  0
    5.7856    3.1005    0.0000 O   0  0  0  0  0  0  0  0  0  0  0  0
    5.7857    1.3685    0.0000 C   0  0  0  0  0  0  0  0  0  0  0  0
    4.7857    1.3684    0.0000 N   0  3  0  0  0  0  0  0  0  0  0  0
    4.2858    0.5024    0.0000 C   0  0  0  0  0  0  0  0  0  0  0  0
    3.2858    0.5023    0.0000 C   0  0  0  0  0  0  0  0  0  0  0  0
    2.6938   -0.3125    0.0000 C   0  0  0  0  0  0  0  0  0  0  0  0
    1.7360   -0.0012    0.0000 C   0  0  0  0  0  0  0  0  0  0  0  0
    0.8680   -0.4978    0.0000 C   0  0  0  0  0  0  0  0  0  0  0  0
    0.0000    0.0000    0.0000 C   0  0  0  0  0  0  0  0  0  0  0  0
    0.0000    1.0058    0.0000 C   0  0  0  0  0  0  0  0  0  0  0  0
    0.8680    1.5138    0.0000 C   0  0  0  0  0  0  0  0  0  0  0  0
    1.7360    1.0058    0.0000 C   0  0  0  0  0  0  0  0  0  0  0  0
    2.6938    1.3169    0.0000 N   0  0  0  0  0  0  0  0  0  0  0  0
   -0.8653   -0.5013    0.0000 O   0  0  0  0  0  0  0  0  0  0  0  0
   -0.8639   -1.5013    0.0000 C   0  0  0  0  0  0  0  0  0  0  0  0
    7.7856    3.1006    0.0000 O   0  0  0  0  0  0  0  0  0  0  0  0
    8.7856    3.1007    0.0000 C   0  0  0  0  0  0  0  0  0  0  0  0
  1  2  1  0  0  0  0
  2  3  1  0  0  0  0
  3  4  2  0  0  0  0
  3  5  1  0  0  0  0
  5  6  1  0  0  0  0
  6  7  1  0  0  0  0
  7  8  1  0  0  0  0
  8 16  1  0  0  0  0
  8  9  2  0  0  0  0
  9 10  1  0  0  0  0
 10 15  2  0  0  0  0
 10 11  1  0  0  0  0
 11 12  2  0  0  0  0
 12 13  1  0  0  0  0
 13 14  2  0  0  0  0
 14 15  1  0  0  0  0
 15 16  1  0  0  0  0
 12 17  1  0  0  0  0
 17 18  1  0  0  0  0
  2 19  1  0  0  0  0
 19 20  1  0  0  0  0
M  CHG  1   6   1
M  END
$$$$
s_270062____17596686____8147258
  -OEChem-03222016482D

 18 19  0     0  0  0  0  0  0999 V2000
    4.2858    0.5024    0.0000 C   0  0  0  0  0  0  0  0  0  0  0  0
    3.2858    0.5023    0.0000 C   0  0  0  0  0  0  0  0  0  0  0  0
    2.6938   -0.3125    0.0000 C   0  0  0  0  0  0  0  0  0  0  0  0
    1.7360   -0.0012    0.0000 C   0  0  0  0  0  0  0  0  0  0  0  0
    0.8680   -0.4978    0.0000 C   0  0  0  0  0  0  0  0  0  0  0  0
    0.0000    0.0000    0.0000 C   0  0  0  0  0  0  0  0  0  0  0  0
    0.0000    1.0058    0.0000 C   0  0  0  0  0  0  0  0  0  0  0  0
    0.8680    1.5138    0.0000 C   0  0  0  0  0  0  0  0  0  0  0  0
    1.7360    1.0058    0.0000 C   0  0  0  0  0  0  0  0  0  0  0  0
    2.6938    1.3169    0.0000 N   0  0  0  0  0  0  0  0  0  0  0  0
    0.8680    2.5138    0.0000 F   0  0  0  0  0  0  0  0  0  0  0  0
    3.0028   -1.2636    0.0000 C   0  0  0  0  0  0  0  0  0  0  0  0
    3.9809   -1.4715    0.0000 C   0  0  0  0  0  0  0  0  0  0  0  0
    4.2899   -2.4226    0.0000 N   0  0  0  0  0  0  0  0  0  0  0  0
    5.2680   -2.6306    0.0000 C   0  0  0  0  0  0  0  0  0  0  0  0
    5.9372   -1.8874    0.0000 O   0  0  0  0  0  0  0  0  0  0  0  0
    5.5770   -3.5816    0.0000 C   0  0  0  0  0  0  0  0  0  0  0  0
    6.5551   -3.7896    0.0000 Cl  0  0  0  0  0  0  0  0  0  0  0  0
  1  2  1  0  0  0  0
  2 10  1  0  0  0  0
  2  3  2  0  0  0  0
  3  4  1  0  0  0  0
  4  9  2  0  0  0  0
  4  5  1  0  0  0  0
  5  6  2  0  0  0  0
  6  7  1  0  0  0  0
  7  8  2  0  0  0  0
  8  9  1  0  0  0  0
  9 10  1  0  0  0  0
  8 11  1  0  0  0  0
  3 12  1  0  0  0  0
 12 13  1  0  0  0  0
 13 14  1  0  0  0  0
 14 15  1  0  0  0  0
 15 16  2  0  0  0  0
 15 17  1  0  0  0  0
 17 18  1  0  0  0  0
M  END
$$$$
s_240690b____11689208____3025692
  -OEChem-03222016482D

 17 18  0     1  0  0  0  0  0999 V2000
    7.7857    1.3686    0.0000 C   0  0  0  0  0  0  0  0  0  0  0  0
    7.2857    2.2346    0.0000 C   0  0  3  0  0  0  0  0  0  0  0  0
    6.2857    2.2345    0.0000 C   0  0  0  0  0  0  0  0  0  0  0  0
    5.7856    3.1005    0.0000 O   0  0  0  0  0  0  0  0  0  0  0  0
    5.7857    1.3685    0.0000 N   0  0  0  0  0  0  0  0  0  0  0  0
    4.7857    1.3684    0.0000 C   0  0  0  0  0  0  0  0  0  0  0  0
    4.2858    0.5024    0.0000 C   0  0  0  0  0  0  0  0  0  0  0  0
    3.2858    0.5023    0.0000 C   0  0  0  0  0  0  0  0  0  0  0  0
    2.6938   -0.3125    0.0000 C   0  0  0  0  0  0  0  0  0  0  0  0
    1.7360   -0.0012    0.0000 C   0  0  0  0  0  0  0  0  0  0  0  0
    0.8680   -0.4978    0.0000 C   0  0  0  0  0  0  0  0  0  0  0  0
    0.0000    0.0000    0.0000 C   0  0  0  0  0  0  0  0  0  0  0  0
    0.0000    1.0058    0.0000 C   0  0  0  0  0  0  0  0  0  0  0  0
    0.8680    1.5138    0.0000 C   0  0  0  0  0  0  0  0  0  0  0  0
    1.7360    1.0058    0.0000 C   0  0  0  0  0  0  0  0  0  0  0  0
    2.6938    1.3169    0.0000 N   0  0  0  0  0  0  0  0  0  0  0  0
    7.7856    3.1006    0.0000 N   0  3  0  0  0  0  0  0  0  0  0  0
  1  2  1  0  0  0  0
  2  3  1  0  0  0  0
  3  4  2  0  0  0  0
  3  5  1  0  0  0  0
  5  6  1  0  0  0  0
  6  7  1  0  0  0  0
  7  8  1  0  0  0  0
  8 16  1  0  0  0  0
  8  9  2  0  0  0  0
  9 10  1  0  0  0  0
 10 15  2  0  0  0  0
 10 11  1  0  0  0  0
 11 12  2  0  0  0  0
 12 13  1  0  0  0  0
 13 14  2  0  0  0  0
 14 15  1  0  0  0  0
 15 16  1  0  0  0  0
  2 17  1  0  0  0  0
M  CHG  1  17   1
M  END
$$$$
s_22____13570824____337030
  -OEChem-03222016482D

 18 19  0     0  0  0  0  0  0999 V2000
    5.6909   -3.2963    0.0000 C   0  0  0  0  0  0  0  0  0  0  0  0
    4.7129   -3.0873    0.0000 C   0  0  0  0  0  0  0  0  0  0  0  0
    4.0430   -3.8297    0.0000 C   0  0  0  0  0  0  0  0  0  0  0  0
    4.4050   -2.1359    0.0000 C   0  0  0  0  0  0  0  0  0  0  0  0
    5.0749   -1.3935    0.0000 O   0  0  0  0  0  0  0  0  0  0  0  0
    3.4271   -1.9269    0.0000 N   0  0  0  0  0  0  0  0  0  0  0  0
    3.1191   -0.9755    0.0000 C   0  0  0  0  0  0  0  0  0  0  0  0
    2.1412   -0.7665    0.0000 C   0  0  0  0  0  0  0  0  0  0  0  0
    1.8332    0.1849    0.0000 C   0  0  0  0  0  0  0  0  0  0  0  0
    2.4247    0.9971    0.0000 C   0  0  0  0  0  0  0  0  0  0  0  0
    1.8349    1.8105    0.0000 N   0  0  0  0  0  0  0  0  0  0  0  0
    0.8791    1.5011    0.0000 C   0  0  0  0  0  0  0  0  0  0  0  0
    0.8780    0.4964    0.0000 C   0  0  0  0  0  0  0  0  0  0  0  0
    0.0000    0.0000    0.0000 C   0  0  0  0  0  0  0  0  0  0  0  0
   -0.8635    0.5043    0.0000 C   0  0  0  0  0  0  0  0  0  0  0  0
   -0.8584    1.5098    0.0000 N   0  0  0  0  0  0  0  0  0  0  0  0
    0.0101    2.0110    0.0000 C   0  0  0  0  0  0  0  0  0  0  0  0
   -1.7320    0.0087    0.0000 Cl  0  0  0  0  0  0  0  0  0  0  0  0
  1  2  1  0  0  0  0
  2  3  1  0  0  0  0
  2  4  1  0  0  0  0
  4  5  2  0  0  0  0
  4  6  1  0  0  0  0
  6  7  1  0  0  0  0
  7  8  1  0  0  0  0
  8  9  1  0  0  0  0
  9 13  1  0  0  0  0
  9 10  2  0  0  0  0
 10 11  1  0  0  0  0
 11 12  1  0  0  0  0
 12 17  2  0  0  0  0
 12 13  1  0  0  0  0
 13 14  2  0  0  0  0
 14 15  1  0  0  0  0
 15 16  2  0  0  0  0
 16 17  1  0  0  0  0
 15 18  1  0  0  0  0
M  END
$$$$
s_22____13570824____8794444
  -OEChem-03222016482D

 18 19  0     0  0  0  0  0  0999 V2000
    0.0000    0.0000    0.0000 C   0  0  0  0  0  0  0  0  0  0  0  0
    0.8780    0.4964    0.0000 C   0  0  0  0  0  0  0  0  0  0  0  0
    1.8332    0.1849    0.0000 C   0  0  0  0  0  0  0  0  0  0  0  0
    2.4247    0.9971    0.0000 C   0  0  0  0  0  0  0  0  0  0  0  0
    1.8349    1.8105    0.0000 N   0  0  0  0  0  0  0  0  0  0  0  0
    0.8791    1.5011    0.0000 C   0  0  0  0  0  0  0  0  0  0  0  0
    0.0101    2.0110    0.0000 C   0  0  0  0  0  0  0  0  0  0  0  0
   -0.8584    1.5098    0.0000 N   0  0  0  0  0  0  0  0  0  0  0  0
   -0.8635    0.5043    0.0000 C   0  0  0  0  0  0  0  0  0  0  0  0
   -1.7320    0.0087    0.0000 Cl  0  0  0  0  0  0  0  0  0  0  0  0
    2.1412   -0.7665    0.0000 C   0  0  0  0  0  0  0  0  0  0  0  0
    3.1191   -0.9755    0.0000 C   0  0  0  0  0  0  0  0  0  0  0  0
    3.4271   -1.9269    0.0000 N   0  0  0  0  0  0  0  0  0  0  0  0
    4.4050   -2.1359    0.0000 C   0  0  0  0  0  0  0  0  0  0  0  0
    5.0749   -1.3935    0.0000 O   0  0  0  0  0  0  0  0  0  0  0  0
    4.7129   -3.0873    0.0000 C   0  0  0  0  0  0  0  0  0  0  0  0
    5.6909   -3.2963    0.0000 C   0  0  0  0  0  0  0  0  0  0  0  0
    6.6688   -3.5052    0.0000 N   0  0  0  0  0  0  0  0  0  0  0  0
  1  9  2  0  0  0  0
  1  2  1  0  0  0  0
  2  6  2  0  0  0  0
  2  3  1  0  0  0  0
  3  4  2  0  0  0  0
  4  5  1  0  0  0  0
  5  6  1  0  0  0  0
  6  7  1  0  0  0  0
  7  8  2  0  0  0  0
  8  9  1  0  0  0  0
  9 10  1  0  0  0  0
  3 11  1  0  0  0  0
 11 12  1  0  0  0  0
 12 13  1  0  0  0  0
 13 14  1  0  0  0  0
 14 15  2  0  0  0  0
 14 16  1  0  0  0  0
 16 17  1  0  0  0  0
 17 18  3  0  0  0  0
M  END
$$$$
s_22____15506616____8794444
  -OEChem-03222016482D

 19 20  0     0  0  0  0  0  0999 V2000
    1.7340    3.0138    0.0000 C   0  0  0  0  0  0  0  0  0  0  0  0
    0.8680    2.5138    0.0000 O   0  0  0  0  0  0  0  0  0  0  0  0
    0.8680    1.5138    0.0000 C   0  0  0  0  0  0  0  0  0  0  0  0
    0.0000    1.0058    0.0000 C   0  0  0  0  0  0  0  0  0  0  0  0
    0.0000    0.0000    0.0000 C   0  0  0  0  0  0  0  0  0  0  0  0
    0.8680   -0.4978    0.0000 C   0  0  0  0  0  0  0  0  0  0  0  0
    1.7360   -0.0012    0.0000 C   0  0  0  0  0  0  0  0  0  0  0  0
    1.7360    1.0058    0.0000 C   0  0  0  0  0  0  0  0  0  0  0  0
    2.6938    1.3169    0.0000 N   0  0  0  0  0  0  0  0  0  0  0  0
    3.2858    0.5023    0.0000 C   0  0  0  0  0  0  0  0  0  0  0  0
    2.6938   -0.3125    0.0000 C   0  0  0  0  0  0  0  0  0  0  0  0
    3.0028   -1.2636    0.0000 C   0  0  0  0  0  0  0  0  0  0  0  0
    3.9809   -1.4715    0.0000 C   0  0  0  0  0  0  0  0  0  0  0  0
    4.2899   -2.4226    0.0000 N   0  0  0  0  0  0  0  0  0  0  0  0
    5.2680   -2.6306    0.0000 C   0  0  0  0  0  0  0  0  0  0  0  0
    5.9372   -1.8874    0.0000 O   0  0  0  0  0  0  0  0  0  0  0  0
    5.5770   -3.5816    0.0000 C   0  0  0  0  0  0  0  0  0  0  0  0
    6.5551   -3.7896    0.0000 C   0  0  0  0  0  0  0  0  0  0  0  0
    7.5333   -3.9976    0.0000 N   0  0  0  0  0  0  0  0  0  0  0  0
  1  2  1  0  0  0  0
  2  3  1  0  0  0  0
  3  8  2  0  0  0  0
  3  4  1  0  0  0  0
  4  5  2  0  0  0  0
  5  6  1  0  0  0  0
  6  7  2  0  0  0  0
  7 11  1  0  0  0  0
  7  8  1  0  0  0  0
  8  9  1  0  0  0  0
  9 10  1  0  0  0  0
 10 11  2  0  0  0  0
 11 12  1  0  0  0  0
 12 13  1  0  0  0  0
 13 14  1  0  0  0  0
 14 15  1  0  0  0  0
 15 16  2  0  0  0  0
 15 17  1  0  0  0  0
 17 18  1  0  0  0  0
 18 19  3  0  0  0  0
M  END
$$$$
s_240690b____12637968____3025698
  -OEChem-03222016482D

 19 20  0     0  0  0  0  0  0999 V2000
    3.9538   -0.9546    0.0000 C   0  0  0  0  0  0  0  0  0  0  0  0
    3.0028   -1.2636    0.0000 C   0  0  0  0  0  0  0  0  0  0  0  0
    2.0517   -1.5725    0.0000 C   0  0  0  0  0  0  0  0  0  0  0  0
    3.3117   -2.2146    0.0000 C   0  0  0  0  0  0  0  0  0  0  0  0
    4.2899   -2.4226    0.0000 N   0  0  0  0  0  0  0  0  0  0  0  0
    4.5989   -3.3737    0.0000 C   0  0  0  0  0  0  0  0  0  0  0  0
    3.9297   -4.1168    0.0000 O   0  0  0  0  0  0  0  0  0  0  0  0
    5.5770   -3.5816    0.0000 C   0  0  0  0  0  0  0  0  0  0  0  0
    5.8860   -4.5327    0.0000 N   0  3  0  0  0  0  0  0  0  0  0  0
    2.6938   -0.3125    0.0000 C   0  0  0  0  0  0  0  0  0  0  0  0
    3.2858    0.5023    0.0000 C   0  0  0  0  0  0  0  0  0  0  0  0
    2.6938    1.3169    0.0000 N   0  0  0  0  0  0  0  0  0  0  0  0
    1.7360    1.0058    0.0000 C   0  0  0  0  0  0  0  0  0  0  0  0
    1.7360   -0.0012    0.0000 C   0  0  0  0  0  0  0  0  0  0  0  0
    0.8680   -0.4978    0.0000 C   0  0  0  0  0  0  0  0  0  0  0  0
    0.0000    0.0000    0.0000 C   0  0  0  0  0  0  0  0  0  0  0  0
   -0.0000    1.0058    0.0000 C   0  0  0  0  0  0  0  0  0  0  0  0
    0.8680    1.5138    0.0000 C   0  0  0  0  0  0  0  0  0  0  0  0
   -0.8675    1.5032    0.0000 F   0  0  0  0  0  0  0  0  0  0  0  0
  1  2  1  0  0  0  0
  2  3  1  0  0  0  0
  2  4  1  0  0  0  0
  4  5  1  0  0  0  0
  5  6  1  0  0  0  0
  6  7  2  0  0  0  0
  6  8  1  0  0  0  0
  8  9  1  0  0  0  0
  2 10  1  0  0  0  0
 10 14  1  0  0  0  0
 10 11  2  0  0  0  0
 11 12  1  0  0  0  0
 12 13  1  0  0  0  0
 13 18  2  0  0  0  0
 13 14  1  0  0  0  0
 14 15  2  0  0  0  0
 15 16  1  0  0  0  0
 16 17  2  0  0  0  0
 17 18  1  0  0  0  0
 17 19  1  0  0  0  0
M  CHG  1   9   1
M  END
$$$$
s_240690b____13771088____3025692
  -OEChem-03222016482D

 21 22  0     1  0  0  0  0  0999 V2000
   -3.4641   -0.0050    0.0000 C   0  0  0  0  0  0  0  0  0  0  0  0
   -2.5974   -0.5038    0.0000 C   0  0  0  0  0  0  0  0  0  0  0  0
   -1.7320   -0.0025    0.0000 C   0  0  0  0  0  0  0  0  0  0  0  0
   -0.8653   -0.5013    0.0000 O   0  0  0  0  0  0  0  0  0  0  0  0
    0.0000    0.0000    0.0000 C   0  0  0  0  0  0  0  0  0  0  0  0
   -0.0000    1.0058    0.0000 C   0  0  0  0  0  0  0  0  0  0  0  0
    0.8680    1.5138    0.0000 C   0  0  0  0  0  0  0  0  0  0  0  0
    1.7360    1.0058    0.0000 C   0  0  0  0  0  0  0  0  0  0  0  0
    1.7360   -0.0012    0.0000 C   0  0  0  0  0  0  0  0  0  0  0  0
    0.8680   -0.4978    0.0000 C   0  0  0  0  0  0  0  0  0  0  0  0
    2.6938   -0.3125    0.0000 C   0  0  0  0  0  0  0  0  0  0  0  0
    3.2858    0.5023    0.0000 C   0  0  0  0  0  0  0  0  0  0  0  0
    2.6938    1.3169    0.0000 N   0  0  0  0  0  0  0  0  0  0  0  0
    3.0028   -1.2636    0.0000 C   0  0  0  0  0  0  0  0  0  0  0  0
    3.9809   -1.4715    0.0000 C   0  0  0  0  0  0  0  0  0  0  0  0
    4.2899   -2.4226    0.0000 N   0  0  0  0  0  0  0  0  0  0  0  0
    5.2680   -2.6306    0.0000 C   0  0  0  0  0  0  0  0  0  0  0  0
    5.9372   -1.8874    0.0000 O   0  0  0  0  0  0  0  0  0  0  0  0
    5.5770   -3.5816    0.0000 C   0  0  3  0  0  0  0  0  0  0  0  0
    6.5551   -3.7896    0.0000 C   0  0  0  0  0  0  0  0  0  0  0  0
    4.9078   -4.3247    0.0000 N   0  3  0  0  0  0  0  0  0  0  0  0
  1  2  1  0  0  0  0
  2  3  1  0  0  0  0
  3  4  1  0  0  0  0
  4  5  1  0  0  0  0
  5 10  2  0  0  0  0
  5  6  1  0  0  0  0
  6  7  2  0  0  0  0
  7  8  1  0  0  0  0
  8 13  1  0  0  0  0
  8  9  2  0  0  0  0
  9 10  1  0  0  0  0
  9 11  1  0  0  0  0
 11 12  2  0  0  0  0
 12 13  1  0  0  0  0
 11 14  1  0  0  0  0
 14 15  1  0  0  0  0
 15 16  1  0  0  0  0
 16 17  1  0  0  0  0
 17 18  2  0  0  0  0
 17 19  1  0  0  0  0
 19 20  1  0  0  0  0
 19 21  1  0  0  0  0
M  CHG  1  21   1
M  END
$$$$
s_22____9226532____9296322
  -OEChem-03222016482D

 20 21  0     0  0  0  0  0  0999 V2000
    1.7327   -2.9983    0.0000 C   0  0  0  0  0  0  0  0  0  0  0  0
    1.7332   -1.9983    0.0000 C   0  0  0  0  0  0  0  0  0  0  0  0
    0.8675   -1.4978    0.0000 O   0  0  0  0  0  0  0  0  0  0  0  0
    0.8680   -0.4978    0.0000 C   0  0  0  0  0  0  0  0  0  0  0  0
    0.0000    0.0000    0.0000 C   0  0  0  0  0  0  0  0  0  0  0  0
   -0.0000    1.0058    0.0000 C   0  0  0  0  0  0  0  0  0  0  0  0
    0.8680    1.5138    0.0000 C   0  0  0  0  0  0  0  0  0  0  0  0
    1.7360    1.0058    0.0000 C   0  0  0  0  0  0  0  0  0  0  0  0
    1.7360   -0.0012    0.0000 C   0  0  0  0  0  0  0  0  0  0  0  0
    2.6938   -0.3125    0.0000 C   0  0  0  0  0  0  0  0  0  0  0  0
    3.2858    0.5023    0.0000 C   0  0  0  0  0  0  0  0  0  0  0  0
    2.6938    1.3169    0.0000 N   0  0  0  0  0  0  0  0  0  0  0  0
    3.0028   -1.2636    0.0000 C   0  0  0  0  0  0  0  0  0  0  0  0
    3.9809   -1.4715    0.0000 C   0  0  0  0  0  0  0  0  0  0  0  0
    4.2899   -2.4226    0.0000 N   0  0  0  0  0  0  0  0  0  0  0  0
    5.2680   -2.6306    0.0000 C   0  0  0  0  0  0  0  0  0  0  0  0
    5.9372   -1.8874    0.0000 O   0  0  0  0  0  0  0  0  0  0  0  0
    5.5770   -3.5816    0.0000 C   0  0  0  0  0  0  0  0  0  0  0  0
    5.8860   -4.5327    0.0000 C   0  0  0  0  0  0  0  0  0  0  0  0
    6.1949   -5.4838    0.0000 C   0  0  0  0  0  0  0  0  0  0  0  0
  1  2  1  0  0  0  0
  2  3  1  0  0  0  0
  3  4  1  0  0  0  0
  4  9  2  0  0  0  0
  4  5  1  0  0  0  0
  5  6  2  0  0  0  0
  6  7  1  0  0  0  0
  7  8  2  0  0  0  0
  8 12  1  0  0  0  0
  8  9  1  0  0  0  0
  9 10  1  0  0  0  0
 10 11  2  0  0  0  0
 11 12  1  0  0  0  0
 10 13  1  0  0  0  0
 13 14  1  0  0  0  0
 14 15  1  0  0  0  0
 15 16  1  0  0  0  0
 16 17  2  0  0  0  0
 16 18  1  0  0  0  0
 18 19  3  0  0  0  0
 19 20  1  0  0  0  0
M  END
$$$$
s_270004____8992410____15269820
  -OEChem-03222016482D

 20 21  0     0  0  0  0  0  0999 V2000
    8.7857    3.1007    0.0000 C   0  0  0  0  0  0  0  0  0  0  0  0
    7.7856    3.1006    0.0000 C   0  0  0  0  0  0  0  0  0  0  0  0
    7.2857    2.2346    0.0000 N   0  0  0  0  0  0  0  0  0  0  0  0
    7.7858    1.3686    0.0000 C   0  0  0  0  0  0  0  0  0  0  0  0
    6.2857    2.2345    0.0000 C   0  0  0  0  0  0  0  0  0  0  0  0
    5.7856    3.1005    0.0000 O   0  0  0  0  0  0  0  0  0  0  0  0
    5.7858    1.3685    0.0000 C   0  0  0  0  0  0  0  0  0  0  0  0
    4.7858    1.3684    0.0000 N   0  3  0  0  0  0  0  0  0  0  0  0
    4.2858    0.5024    0.0000 C   0  0  0  0  0  0  0  0  0  0  0  0
    3.2858    0.5023    0.0000 C   0  0  0  0  0  0  0  0  0  0  0  0
    2.6938   -0.3125    0.0000 C   0  0  0  0  0  0  0  0  0  0  0  0
    1.7360   -0.0012    0.0000 C   0  0  0  0  0  0  0  0  0  0  0  0
    1.7360    1.0058    0.0000 C   0  0  0  0  0  0  0  0  0  0  0  0
    2.6938    1.3169    0.0000 N   0  0  0  0  0  0  0  0  0  0  0  0
    0.8680    1.5138    0.0000 C   0  0  0  0  0  0  0  0  0  0  0  0
    0.0000    1.0058    0.0000 C   0  0  0  0  0  0  0  0  0  0  0  0
    0.0000    0.0000    0.0000 C   0  0  0  0  0  0  0  0  0  0  0  0
    0.8680   -0.4978    0.0000 C   0  0  0  0  0  0  0  0  0  0  0  0
    0.8675   -1.4978    0.0000 O   0  0  0  0  0  0  0  0  0  0  0  0
    1.7332   -1.9983    0.0000 C   0  0  0  0  0  0  0  0  0  0  0  0
  1  2  1  0  0  0  0
  2  3  1  0  0  0  0
  3  4  1  0  0  0  0
  3  5  1  0  0  0  0
  5  6  2  0  0  0  0
  5  7  1  0  0  0  0
  7  8  1  0  0  0  0
  8  9  1  0  0  0  0
  9 10  1  0  0  0  0
 10 14  1  0  0  0  0
 10 11  2  0  0  0  0
 11 12  1  0  0  0  0
 12 18  2  0  0  0  0
 12 13  1  0  0  0  0
 13 14  1  0  0  0  0
 13 15  2  0  0  0  0
 15 16  1  0  0  0  0
 16 17  2  0  0  0  0
 17 18  1  0  0  0  0
 18 19  1  0  0  0  0
 19 20  1  0  0  0  0
M  CHG  1   8   1
M  END
$$$$
s_512____11946682____4839458
  -OEChem-03222016482D

 21 22  0     0  0  0  0  0  0999 V2000
   -1.7320   -0.0025    0.0000 C   0  0  0  0  0  0  0  0  0  0  0  0
   -0.8653   -0.5013    0.0000 O   0  0  0  0  0  0  0  0  0  0  0  0
    0.0000    0.0000    0.0000 C   0  0  0  0  0  0  0  0  0  0  0  0
   -0.0000    1.0058    0.0000 C   0  0  0  0  0  0  0  0  0  0  0  0
    0.8680    1.5138    0.0000 C   0  0  0  0  0  0  0  0  0  0  0  0
    1.7360    1.0058    0.0000 C   0  0  0  0  0  0  0  0  0  0  0  0
    1.7360   -0.0012    0.0000 C   0  0  0  0  0  0  0  0  0  0  0  0
    0.8680   -0.4978    0.0000 C   0  0  0  0  0  0  0  0  0  0  0  0
    2.6938   -0.3125    0.0000 C   0  0  0  0  0  0  0  0  0  0  0  0
    3.2858    0.5023    0.0000 C   0  0  0  0  0  0  0  0  0  0  0  0
    2.6938    1.3169    0.0000 N   0  0  0  0  0  0  0  0  0  0  0  0
    3.0028   -1.2636    0.0000 C   0  0  0  0  0  0  0  0  0  0  0  0
    3.9809   -1.4715    0.0000 C   0  0  0  0  0  0  0  0  0  0  0  0
    4.2899   -2.4226    0.0000 N   0  0  0  0  0  0  0  0  0  0  0  0
    5.2680   -2.6306    0.0000 C   0  0  0  0  0  0  0  0  0  0  0  0
    5.9372   -1.8874    0.0000 O   0  0  0  0  0  0  0  0  0  0  0  0
    5.5770   -3.5816    0.0000 N   0  0  0  0  0  0  0  0  0  0  0  0
    6.5551   -3.7896    0.0000 C   0  0  0  0  0  0  0  0  0  0  0  0
    6.8641   -4.7407    0.0000 C   0  0  0  0  0  0  0  0  0  0  0  0
    7.8422   -4.9486    0.0000 S   0  0  0  0  0  0  0  0  0  0  0  0
    8.1512   -5.8997    0.0000 C   0  0  0  0  0  0  0  0  0  0  0  0
  1  2  1  0  0  0  0
  2  3  1  0  0  0  0
  3  8  2  0  0  0  0
  3  4  1  0  0  0  0
  4  5  2  0  0  0  0
  5  6  1  0  0  0  0
  6 11  1  0  0  0  0
  6  7  2  0  0  0  0
  7  8  1  0  0  0  0
  7  9  1  0  0  0  0
  9 10  2  0  0  0  0
 10 11  1  0  0  0  0
  9 12  1  0  0  0  0
 12 13  1  0  0  0  0
 13 14  1  0  0  0  0
 14 15  1  0  0  0  0
 15 16  2  0  0  0  0
 15 17  1  0  0  0  0
 17 18  1  0  0  0  0
 18 19  1  0  0  0  0
 19 20  1  0  0  0  0
 20 21  1  0  0  0  0
M  END
$$$$
s_22____2366540____12103014
  -OEChem-03222016482D

 18 19  0     0  0  0  0  0  0999 V2000
    6.8641   -4.7407    0.0000 C   0  0  0  0  0  0  0  0  0  0  0  0
    6.5551   -3.7896    0.0000 C   0  0  0  0  0  0  0  0  0  0  0  0
    5.5770   -3.5816    0.0000 C   0  0  0  0  0  0  0  0  0  0  0  0
    5.2680   -2.6306    0.0000 C   0  0  0  0  0  0  0  0  0  0  0  0
    5.9372   -1.8874    0.0000 O   0  0  0  0  0  0  0  0  0  0  0  0
    4.2899   -2.4226    0.0000 N   0  0  0  0  0  0  0  0  0  0  0  0
    3.9809   -1.4715    0.0000 C   0  0  0  0  0  0  0  0  0  0  0  0
    3.0028   -1.2636    0.0000 C   0  0  0  0  0  0  0  0  0  0  0  0
    2.6938   -0.3125    0.0000 C   0  0  0  0  0  0  0  0  0  0  0  0
    3.2858    0.5023    0.0000 C   0  0  0  0  0  0  0  0  0  0  0  0
    2.6938    1.3169    0.0000 N   0  0  0  0  0  0  0  0  0  0  0  0
    1.7360    1.0058    0.0000 C   0  0  0  0  0  0  0  0  0  0  0  0
    1.7360   -0.0012    0.0000 C   0  0  0  0  0  0  0  0  0  0  0  0
    0.8680   -0.4978    0.0000 C   0  0  0  0  0  0  0  0  0  0  0  0
    0.0000    0.0000    0.0000 C   0  0  0  0  0  0  0  0  0  0  0  0
   -0.0000    1.0058    0.0000 C   0  0  0  0  0  0  0  0  0  0  0  0
    0.8680    1.5138    0.0000 C   0  0  0  0  0  0  0  0  0  0  0  0
   -0.8675    1.5032    0.0000 F   0  0  0  0  0  0  0  0  0  0  0  0
  1  2  1  0  0  0  0
  2  3  2  3  0  0  0
  3  4  1  0  0  0  0
  4  5  2  0  0  0  0
  4  6  1  0  0  0  0
  6  7  1  0  0  0  0
  7  8  1  0  0  0  0
  8  9  1  0  0  0  0
  9 13  1  0  0  0  0
  9 10  2  0  0  0  0
 10 11  1  0  0  0  0
 11 12  1  0  0  0  0
 12 17  2  0  0  0  0
 12 13  1  0  0  0  0
 13 14  2  0  0  0  0
 14 15  1  0  0  0  0
 15 16  2  0  0  0  0
 16 17  1  0  0  0  0
 16 18  1  0  0  0  0
M  END
$$$$
s_22____13978824____10687876
  -OEChem-03222016482D

 21 23  0     0  0  0  0  0  0999 V2000
   -0.8705    2.5032    0.0000 C   0  0  0  0  0  0  0  0  0  0  0  0
   -0.8675    1.5032    0.0000 O   0  0  0  0  0  0  0  0  0  0  0  0
    0.0000    1.0058    0.0000 C   0  0  0  0  0  0  0  0  0  0  0  0
    0.0000    0.0000    0.0000 C   0  0  0  0  0  0  0  0  0  0  0  0
    0.8680   -0.4978    0.0000 C   0  0  0  0  0  0  0  0  0  0  0  0
    1.7360   -0.0012    0.0000 C   0  0  0  0  0  0  0  0  0  0  0  0
    1.7360    1.0058    0.0000 C   0  0  0  0  0  0  0  0  0  0  0  0
    0.8680    1.5138    0.0000 C   0  0  0  0  0  0  0  0  0  0  0  0
    2.6938    1.3169    0.0000 N   0  0  0  0  0  0  0  0  0  0  0  0
    3.2858    0.5023    0.0000 C   0  0  0  0  0  0  0  0  0  0  0  0
    2.6938   -0.3125    0.0000 C   0  0  0  0  0  0  0  0  0  0  0  0
    3.0028   -1.2636    0.0000 C   0  0  0  0  0  0  0  0  0  0  0  0
    3.9809   -1.4715    0.0000 C   0  0  0  0  0  0  0  0  0  0  0  0
    4.2899   -2.4226    0.0000 N   0  0  0  0  0  0  0  0  0  0  0  0
    5.2680   -2.6306    0.0000 C   0  0  0  0  0  0  0  0  0  0  0  0
    5.9372   -1.8874    0.0000 O   0  0  0  0  0  0  0  0  0  0  0  0
    5.5770   -3.5816    0.0000 C   0  0  0  0  0  0  0  0  0  0  0  0
    6.5551   -3.7896    0.0000 S   0  0  0  0  0  0  0  0  0  0  0  0
    6.8641   -4.7407    0.0000 C   0  0  0  0  0  0  0  0  0  0  0  0
    6.6568   -5.7209    0.0000 C   0  0  0  0  0  0  0  0  0  0  0  0
    7.6079   -5.4119    0.0000 C   0  0  0  0  0  0  0  0  0  0  0  0
  1  2  1  0  0  0  0
  2  3  1  0  0  0  0
  3  8  2  0  0  0  0
  3  4  1  0  0  0  0
  4  5  2  0  0  0  0
  5  6  1  0  0  0  0
  6 11  1  0  0  0  0
  6  7  2  0  0  0  0
  7  8  1  0  0  0  0
  7  9  1  0  0  0  0
  9 10  1  0  0  0  0
 10 11  2  0  0  0  0
 11 12  1  0  0  0  0
 12 13  1  0  0  0  0
 13 14  1  0  0  0  0
 14 15  1  0  0  0  0
 15 16  2  0  0  0  0
 15 17  1  0  0  0  0
 17 18  1  0  0  0  0
 18 19  1  0  0  0  0
 19 21  1  0  0  0  0
 19 20  1  0  0  0  0
 20 21  1  0  0  0  0
M  END
$$$$
s_22____13025516____13756276
  -OEChem-03222016482D

 20 21  0     1  0  0  0  0  0999 V2000
    6.8641   -4.7407    0.0000 C   0  0  0  0  0  0  0  0  0  0  0  0
    6.5551   -3.7896    0.0000 C   0  0  0  0  0  0  0  0  0  0  0  0
    5.5770   -3.5816    0.0000 C   0  0  3  0  0  0  0  0  0  0  0  0
    5.2680   -2.6306    0.0000 C   0  0  0  0  0  0  0  0  0  0  0  0
    5.9372   -1.8874    0.0000 O   0  0  0  0  0  0  0  0  0  0  0  0
    4.2899   -2.4226    0.0000 N   0  0  0  0  0  0  0  0  0  0  0  0
    3.9809   -1.4715    0.0000 C   0  0  0  0  0  0  0  0  0  0  0  0
    3.0028   -1.2636    0.0000 C   0  0  0  0  0  0  0  0  0  0  0  0
    2.6938   -0.3125    0.0000 C   0  0  0  0  0  0  0  0  0  0  0  0
    3.2858    0.5023    0.0000 C   0  0  0  0  0  0  0  0  0  0  0  0
    2.6938    1.3169    0.0000 N   0  0  0  0  0  0  0  0  0  0  0  0
    1.7360    1.0058    0.0000 C   0  0  0  0  0  0  0  0  0  0  0  0
    1.7360   -0.0012    0.0000 C   0  0  0  0  0  0  0  0  0  0  0  0
    0.8680   -0.4978    0.0000 C   0  0  0  0  0  0  0  0  0  0  0  0
    0.0000    0.0000    0.0000 C   0  0  0  0  0  0  0  0  0  0  0  0
   -0.0000    1.0058    0.0000 C   0  0  0  0  0  0  0  0  0  0  0  0
    0.8680    1.5138    0.0000 C   0  0  0  0  0  0  0  0  0  0  0  0
    0.8675   -1.4978    0.0000 O   0  0  0  0  0  0  0  0  0  0  0  0
    1.7332   -1.9983    0.0000 C   0  0  0  0  0  0  0  0  0  0  0  0
    4.9078   -4.3247    0.0000 F   0  0  0  0  0  0  0  0  0  0  0  0
  1  2  1  0  0  0  0
  2  3  1  0  0  0  0
  3  4  1  0  0  0  0
  4  5  2  0  0  0  0
  4  6  1  0  0  0  0
  6  7  1  0  0  0  0
  7  8  1  0  0  0  0
  8  9  1  0  0  0  0
  9 13  1  0  0  0  0
  9 10  2  0  0  0  0
 10 11  1  0  0  0  0
 11 12  1  0  0  0  0
 12 17  2  0  0  0  0
 12 13  1  0  0  0  0
 13 14  2  0  0  0  0
 14 15  1  0  0  0  0
 15 16  2  0  0  0  0
 16 17  1  0  0  0  0
 14 18  1  0  0  0  0
 18 19  1  0  0  0  0
  3 20  1  0  0  0  0
M  END
$$$$
s_22____7533902____7941800
  -OEChem-03222016482D

 16 17  0     0  0  0  0  0  0999 V2000
    0.0000    0.0000    0.0000 C   0  0  0  0  0  0  0  0  0  0  0  0
   -0.0000    1.0058    0.0000 C   0  0  0  0  0  0  0  0  0  0  0  0
    0.8680    1.5138    0.0000 C   0  0  0  0  0  0  0  0  0  0  0  0
    1.7360    1.0058    0.0000 C   0  0  0  0  0  0  0  0  0  0  0  0
    1.7360   -0.0012    0.0000 C   0  0  0  0  0  0  0  0  0  0  0  0
    0.8680   -0.4978    0.0000 C   0  0  0  0  0  0  0  0  0  0  0  0
    2.6938   -0.3125    0.0000 C   0  0  0  0  0  0  0  0  0  0  0  0
    3.2858    0.5023    0.0000 C   0  0  0  0  0  0  0  0  0  0  0  0
    2.6938    1.3169    0.0000 N   0  0  0  0  0  0  0  0  0  0  0  0
    4.2858    0.5024    0.0000 C   0  0  0  0  0  0  0  0  0  0  0  0
    4.7857    1.3684    0.0000 C   0  0  0  0  0  0  0  0  0  0  0  0
    5.7857    1.3685    0.0000 N   0  0  0  0  0  0  0  0  0  0  0  0
    6.2857    2.2345    0.0000 C   0  0  0  0  0  0  0  0  0  0  0  0
    5.7856    3.1005    0.0000 O   0  0  0  0  0  0  0  0  0  0  0  0
    7.2857    2.2346    0.0000 C   0  0  0  0  0  0  0  0  0  0  0  0
    7.7856    3.1006    0.0000 O   0  0  0  0  0  0  0  0  0  0  0  0
  1  6  2  0  0  0  0
  1  2  1  0  0  0  0
  2  3  2  0  0  0  0
  3  4  1  0  0  0  0
  4  9  1  0  0  0  0
  4  5  2  0  0  0  0
  5  6  1  0  0  0  0
  5  7  1  0  0  0  0
  7  8  2  0  0  0  0
  8  9  1  0  0  0  0
  8 10  1  0  0  0  0
 10 11  1  0  0  0  0
 11 12  1  0  0  0  0
 12 13  1  0  0  0  0
 13 14  2  0  0  0  0
 13 15  1  0  0  0  0
 15 16  1  0  0  0  0
M  END
$$$$
s_22____6079110____9296322
  -OEChem-03222016482D

 18 19  0     0  0  0  0  0  0999 V2000
    6.1949   -5.4838    0.0000 C   0  0  0  0  0  0  0  0  0  0  0  0
    5.8860   -4.5327    0.0000 C   0  0  0  0  0  0  0  0  0  0  0  0
    5.5770   -3.5816    0.0000 C   0  0  0  0  0  0  0  0  0  0  0  0
    5.2680   -2.6306    0.0000 C   0  0  0  0  0  0  0  0  0  0  0  0
    5.9372   -1.8874    0.0000 O   0  0  0  0  0  0  0  0  0  0  0  0
    4.2899   -2.4226    0.0000 N   0  0  0  0  0  0  0  0  0  0  0  0
    3.9809   -1.4715    0.0000 C   0  0  0  0  0  0  0  0  0  0  0  0
    3.0028   -1.2636    0.0000 C   0  0  0  0  0  0  0  0  0  0  0  0
    2.6938   -0.3125    0.0000 C   0  0  0  0  0  0  0  0  0  0  0  0
    3.2858    0.5023    0.0000 C   0  0  0  0  0  0  0  0  0  0  0  0
    2.6938    1.3169    0.0000 N   0  0  0  0  0  0  0  0  0  0  0  0
    1.7360    1.0058    0.0000 C   0  0  0  0  0  0  0  0  0  0  0  0
    1.7360   -0.0012    0.0000 C   0  0  0  0  0  0  0  0  0  0  0  0
    0.8680   -0.4978    0.0000 C   0  0  0  0  0  0  0  0  0  0  0  0
    0.0000    0.0000    0.0000 C   0  0  0  0  0  0  0  0  0  0  0  0
   -0.0000    1.0058    0.0000 C   0  0  0  0  0  0  0  0  0  0  0  0
    0.8680    1.5138    0.0000 C   0  0  0  0  0  0  0  0  0  0  0  0
   -0.8653   -0.5013    0.0000 Cl  0  0  0  0  0  0  0  0  0  0  0  0
  1  2  1  0  0  0  0
  2  3  3  0  0  0  0
  3  4  1  0  0  0  0
  4  5  2  0  0  0  0
  4  6  1  0  0  0  0
  6  7  1  0  0  0  0
  7  8  1  0  0  0  0
  8  9  1  0  0  0  0
  9 13  1  0  0  0  0
  9 10  2  0  0  0  0
 10 11  1  0  0  0  0
 11 12  1  0  0  0  0
 12 17  2  0  0  0  0
 12 13  1  0  0  0  0
 13 14  2  0  0  0  0
 14 15  1  0  0  0  0
 15 16  2  0  0  0  0
 16 17  1  0  0  0  0
 15 18  1  0  0  0  0
M  END
$$$$
s_273270____16389250____10884640
  -OEChem-03222016482D

 19 20  0     1  0  0  0  0  0999 V2000
    3.9809   -1.4715    0.0000 C   0  0  0  0  0  0  0  0  0  0  0  0
    3.0028   -1.2636    0.0000 C   0  0  3  0  0  0  0  0  0  0  0  0
    2.3336   -2.0067    0.0000 C   0  0  0  0  0  0  0  0  0  0  0  0
    2.6426   -2.9578    0.0000 N   0  0  0  0  0  0  0  0  0  0  0  0
    1.9734   -3.7009    0.0000 C   0  0  0  0  0  0  0  0  0  0  0  0
    0.9953   -3.4929    0.0000 O   0  0  0  0  0  0  0  0  0  0  0  0
    2.2824   -4.6519    0.0000 C   0  0  0  0  0  0  0  0  0  0  0  0
    1.6132   -5.3951    0.0000 C   0  0  0  0  0  0  0  0  0  0  0  0
    2.6938   -0.3125    0.0000 C   0  0  0  0  0  0  0  0  0  0  0  0
    3.2858    0.5023    0.0000 C   0  0  0  0  0  0  0  0  0  0  0  0
    2.6938    1.3169    0.0000 N   0  0  0  0  0  0  0  0  0  0  0  0
    1.7360    1.0058    0.0000 C   0  0  0  0  0  0  0  0  0  0  0  0
    1.7360   -0.0012    0.0000 C   0  0  0  0  0  0  0  0  0  0  0  0
    0.8680   -0.4978    0.0000 C   0  0  0  0  0  0  0  0  0  0  0  0
    0.0000    0.0000    0.0000 C   0  0  0  0  0  0  0  0  0  0  0  0
   -0.0000    1.0058    0.0000 C   0  0  0  0  0  0  0  0  0  0  0  0
    0.8680    1.5138    0.0000 C   0  0  0  0  0  0  0  0  0  0  0  0
   -0.8653   -0.5013    0.0000 O   0  0  0  0  0  0  0  0  0  0  0  0
   -0.8639   -1.5013    0.0000 C   0  0  0  0  0  0  0  0  0  0  0  0
  1  2  1  0  0  0  0
  2  3  1  0  0  0  0
  3  4  1  0  0  0  0
  4  5  1  0  0  0  0
  5  6  2  0  0  0  0
  5  7  1  0  0  0  0
  7  8  2  0  0  0  0
  2  9  1  0  0  0  0
  9 13  1  0  0  0  0
  9 10  2  0  0  0  0
 10 11  1  0  0  0  0
 11 12  1  0  0  0  0
 12 17  2  0  0  0  0
 12 13  1  0  0  0  0
 13 14  2  0  0  0  0
 14 15  1  0  0  0  0
 15 16  2  0  0  0  0
 16 17  1  0  0  0  0
 15 18  1  0  0  0  0
 18 19  1  0  0  0  0
M  END
$$$$
s_22____13570824____7941800
  -OEChem-03222016482D

 17 18  0     0  0  0  0  0  0999 V2000
    0.0000    0.0000    0.0000 C   0  0  0  0  0  0  0  0  0  0  0  0
    0.8780    0.4964    0.0000 C   0  0  0  0  0  0  0  0  0  0  0  0
    1.8332    0.1849    0.0000 C   0  0  0  0  0  0  0  0  0  0  0  0
    2.4247    0.9971    0.0000 C   0  0  0  0  0  0  0  0  0  0  0  0
    1.8349    1.8105    0.0000 N   0  0  0  0  0  0  0  0  0  0  0  0
    0.8791    1.5011    0.0000 C   0  0  0  0  0  0  0  0  0  0  0  0
    0.0101    2.0110    0.0000 C   0  0  0  0  0  0  0  0  0  0  0  0
   -0.8584    1.5098    0.0000 N   0  0  0  0  0  0  0  0  0  0  0  0
   -0.8635    0.5043    0.0000 C   0  0  0  0  0  0  0  0  0  0  0  0
   -1.7320    0.0087    0.0000 Cl  0  0  0  0  0  0  0  0  0  0  0  0
    2.1412   -0.7665    0.0000 C   0  0  0  0  0  0  0  0  0  0  0  0
    3.1191   -0.9755    0.0000 C   0  0  0  0  0  0  0  0  0  0  0  0
    3.4271   -1.9269    0.0000 N   0  0  0  0  0  0  0  0  0  0  0  0
    4.4050   -2.1359    0.0000 C   0  0  0  0  0  0  0  0  0  0  0  0
    5.0749   -1.3935    0.0000 O   0  0  0  0  0  0  0  0  0  0  0  0
    4.7129   -3.0873    0.0000 C   0  0  0  0  0  0  0  0  0  0  0  0
    5.6909   -3.2963    0.0000 O   0  0  0  0  0  0  0  0  0  0  0  0
  1  9  2  0  0  0  0
  1  2  1  0  0  0  0
  2  6  2  0  0  0  0
  2  3  1  0  0  0  0
  3  4  2  0  0  0  0
  4  5  1  0  0  0  0
  5  6  1  0  0  0  0
  6  7  1  0  0  0  0
  7  8  2  0  0  0  0
  8  9  1  0  0  0  0
  9 10  1  0  0  0  0
  3 11  1  0  0  0  0
 11 12  1  0  0  0  0
 12 13  1  0  0  0  0
 13 14  1  0  0  0  0
 14 15  2  0  0  0  0
 14 16  1  0  0  0  0
 16 17  1  0  0  0  0
M  END
$$$$
s_240690b____7363756____7368582
  -OEChem-03222016482D

 18 19  0     0  0  0  0  0  0999 V2000
    0.8680    2.5138    0.0000 C   0  0  0  0  0  0  0  0  0  0  0  0
    0.8680    1.5138    0.0000 C   0  0  0  0  0  0  0  0  0  0  0  0
    0.0000    1.0058    0.0000 C   0  0  0  0  0  0  0  0  0  0  0  0
    0.0000    0.0000    0.0000 C   0  0  0  0  0  0  0  0  0  0  0  0
    0.8680   -0.4978    0.0000 C   0  0  0  0  0  0  0  0  0  0  0  0
    1.7360   -0.0012    0.0000 C   0  0  0  0  0  0  0  0  0  0  0  0
    1.7360    1.0058    0.0000 C   0  0  0  0  0  0  0  0  0  0  0  0
    2.6938    1.3169    0.0000 N   0  0  0  0  0  0  0  0  0  0  0  0
    3.2858    0.5023    0.0000 C   0  0  0  0  0  0  0  0  0  0  0  0
    2.6938   -0.3125    0.0000 C   0  0  0  0  0  0  0  0  0  0  0  0
    3.0028   -1.2636    0.0000 C   0  0  0  0  0  0  0  0  0  0  0  0
    3.9809   -1.4715    0.0000 C   0  0  0  0  0  0  0  0  0  0  0  0
    4.2899   -2.4226    0.0000 N   0  0  0  0  0  0  0  0  0  0  0  0
    5.2680   -2.6306    0.0000 C   0  0  0  0  0  0  0  0  0  0  0  0
    5.9372   -1.8874    0.0000 O   0  0  0  0  0  0  0  0  0  0  0  0
    5.5770   -3.5816    0.0000 C   0  0  0  0  0  0  0  0  0  0  0  0
    6.5551   -3.7896    0.0000 N   0  3  0  0  0  0  0  0  0  0  0  0
    6.8641   -4.7407    0.0000 C   0  0  0  0  0  0  0  0  0  0  0  0
  1  2  1  0  0  0  0
  2  7  2  0  0  0  0
  2  3  1  0  0  0  0
  3  4  2  0  0  0  0
  4  5  1  0  0  0  0
  5  6  2  0  0  0  0
  6 10  1  0  0  0  0
  6  7  1  0  0  0  0
  7  8  1  0  0  0  0
  8  9  1  0  0  0  0
  9 10  2  0  0  0  0
 10 11  1  0  0  0  0
 11 12  1  0  0  0  0
 12 13  1  0  0  0  0
 13 14  1  0  0  0  0
 14 15  2  0  0  0  0
 14 16  1  0  0  0  0
 16 17  1  0  0  0  0
 17 18  1  0  0  0  0
M  CHG  1  17   1
M  END
$$$$
s_272164____14971800____17342478
  -OEChem-03222016482D

 21 22  0     0  0  0  0  0  0999 V2000
    3.2605   -4.8599    0.0000 C   0  0  0  0  0  0  0  0  0  0  0  0
    2.2824   -4.6519    0.0000 N   0  0  0  0  0  0  0  0  0  0  0  0
    1.6132   -5.3951    0.0000 C   0  0  0  0  0  0  0  0  0  0  0  0
    1.9222   -6.3461    0.0000 C   0  0  0  0  0  0  0  0  0  0  0  0
    2.2312   -7.2972    0.0000 N   0  0  0  0  0  0  0  0  0  0  0  0
    1.9734   -3.7009    0.0000 C   0  0  0  0  0  0  0  0  0  0  0  0
    0.9953   -3.4929    0.0000 O   0  0  0  0  0  0  0  0  0  0  0  0
    2.6426   -2.9578    0.0000 N   0  0  0  0  0  0  0  0  0  0  0  0
    2.3336   -2.0067    0.0000 C   0  0  0  0  0  0  0  0  0  0  0  0
    3.0028   -1.2636    0.0000 C   0  0  0  0  0  0  0  0  0  0  0  0
    2.6938   -0.3125    0.0000 C   0  0  0  0  0  0  0  0  0  0  0  0
    3.2858    0.5023    0.0000 C   0  0  0  0  0  0  0  0  0  0  0  0
    2.6938    1.3169    0.0000 N   0  0  0  0  0  0  0  0  0  0  0  0
    1.7360    1.0058    0.0000 C   0  0  0  0  0  0  0  0  0  0  0  0
    1.7360   -0.0012    0.0000 C   0  0  0  0  0  0  0  0  0  0  0  0
    0.8680   -0.4978    0.0000 C   0  0  0  0  0  0  0  0  0  0  0  0
    0.0000    0.0000    0.0000 C   0  0  0  0  0  0  0  0  0  0  0  0
   -0.0000    1.0058    0.0000 C   0  0  0  0  0  0  0  0  0  0  0  0
    0.8680    1.5138    0.0000 C   0  0  0  0  0  0  0  0  0  0  0  0
   -0.8675    1.5032    0.0000 O   0  0  0  0  0  0  0  0  0  0  0  0
   -1.7320    1.0007    0.0000 C   0  0  0  0  0  0  0  0  0  0  0  0
  1  2  1  0  0  0  0
  2  3  1  0  0  0  0
  3  4  1  0  0  0  0
  4  5  3  0  0  0  0
  2  6  1  0  0  0  0
  6  7  2  0  0  0  0
  6  8  1  0  0  0  0
  8  9  1  0  0  0  0
  9 10  1  0  0  0  0
 10 11  1  0  0  0  0
 11 15  1  0  0  0  0
 11 12  2  0  0  0  0
 12 13  1  0  0  0  0
 13 14  1  0  0  0  0
 14 19  2  0  0  0  0
 14 15  1  0  0  0  0
 15 16  2  0  0  0  0
 16 17  1  0  0  0  0
 17 18  2  0  0  0  0
 18 19  1  0  0  0  0
 18 20  1  0  0  0  0
 20 21  1  0  0  0  0
M  END
$$$$
s_22____15754586____7941096
  -OEChem-03222016482D

 20 21  0     1  0  0  0  0  0999 V2000
    3.9809   -1.4715    0.0000 C   0  0  0  0  0  0  0  0  0  0  0  0
    3.0028   -1.2636    0.0000 C   0  0  3  0  0  0  0  0  0  0  0  0
    2.3336   -2.0067    0.0000 C   0  0  0  0  0  0  0  0  0  0  0  0
    2.6426   -2.9578    0.0000 N   0  0  0  0  0  0  0  0  0  0  0  0
    1.9734   -3.7009    0.0000 C   0  0  0  0  0  0  0  0  0  0  0  0
    0.9953   -3.4929    0.0000 O   0  0  0  0  0  0  0  0  0  0  0  0
    2.2824   -4.6519    0.0000 C   0  0  3  0  0  0  0  0  0  0  0  0
    3.2605   -4.8599    0.0000 C   0  0  0  0  0  0  0  0  0  0  0  0
    1.6132   -5.3951    0.0000 O   0  0  0  0  0  0  0  0  0  0  0  0
    2.6938   -0.3125    0.0000 C   0  0  0  0  0  0  0  0  0  0  0  0
    3.2858    0.5023    0.0000 C   0  0  0  0  0  0  0  0  0  0  0  0
    2.6938    1.3169    0.0000 N   0  0  0  0  0  0  0  0  0  0  0  0
    1.7360    1.0058    0.0000 C   0  0  0  0  0  0  0  0  0  0  0  0
    1.7360   -0.0012    0.0000 C   0  0  0  0  0  0  0  0  0  0  0  0
    0.8680   -0.4978    0.0000 C   0  0  0  0  0  0  0  0  0  0  0  0
    0.0000    0.0000    0.0000 C   0  0  0  0  0  0  0  0  0  0  0  0
   -0.0000    1.0058    0.0000 C   0  0  0  0  0  0  0  0  0  0  0  0
    0.8680    1.5138    0.0000 C   0  0  0  0  0  0  0  0  0  0  0  0
   -0.8653   -0.5013    0.0000 O   0  0  0  0  0  0  0  0  0  0  0  0
   -0.8639   -1.5013    0.0000 C   0  0  0  0  0  0  0  0  0  0  0  0
  1  2  1  0  0  0  0
  2  3  1  0  0  0  0
  3  4  1  0  0  0  0
  4  5  1  0  0  0  0
  5  6  2  0  0  0  0
  5  7  1  0  0  0  0
  7  8  1  0  0  0  0
  7  9  1  0  0  0  0
  2 10  1  0  0  0  0
 10 14  1  0  0  0  0
 10 11  2  0  0  0  0
 11 12  1  0  0  0  0
 12 13  1  0  0  0  0
 13 18  2  0  0  0  0
 13 14  1  0  0  0  0
 14 15  2  0  0  0  0
 15 16  1  0  0  0  0
 16 17  2  0  0  0  0
 17 18  1  0  0  0  0
 16 19  1  0  0  0  0
 19 20  1  0  0  0  0
M  END
$$$$
s_22____16900452____58866
  -OEChem-03222016482D

 18 19  0     0  0  0  0  0  0999 V2000
    6.8641   -4.7407    0.0000 C   0  0  0  0  0  0  0  0  0  0  0  0
    6.5551   -3.7896    0.0000 C   0  0  0  0  0  0  0  0  0  0  0  0
    5.5770   -3.5816    0.0000 C   0  0  0  0  0  0  0  0  0  0  0  0
    5.2680   -2.6306    0.0000 C   0  0  0  0  0  0  0  0  0  0  0  0
    5.9372   -1.8874    0.0000 O   0  0  0  0  0  0  0  0  0  0  0  0
    4.2899   -2.4226    0.0000 N   0  0  0  0  0  0  0  0  0  0  0  0
    3.9809   -1.4715    0.0000 C   0  0  0  0  0  0  0  0  0  0  0  0
    3.0028   -1.2636    0.0000 C   0  0  0  0  0  0  0  0  0  0  0  0
    2.6938   -0.3125    0.0000 C   0  0  0  0  0  0  0  0  0  0  0  0
    3.2858    0.5023    0.0000 C   0  0  0  0  0  0  0  0  0  0  0  0
    2.6938    1.3169    0.0000 N   0  0  0  0  0  0  0  0  0  0  0  0
    1.7360    1.0058    0.0000 C   0  0  0  0  0  0  0  0  0  0  0  0
    1.7360   -0.0012    0.0000 C   0  0  0  0  0  0  0  0  0  0  0  0
    0.8680   -0.4978    0.0000 C   0  0  0  0  0  0  0  0  0  0  0  0
    0.0000    0.0000    0.0000 C   0  0  0  0  0  0  0  0  0  0  0  0
   -0.0000    1.0058    0.0000 C   0  0  0  0  0  0  0  0  0  0  0  0
    0.8680    1.5138    0.0000 C   0  0  0  0  0  0  0  0  0  0  0  0
    0.8675   -1.4978    0.0000 F   0  0  0  0  0  0  0  0  0  0  0  0
  1  2  1  0  0  0  0
  2  3  1  0  0  0  0
  3  4  1  0  0  0  0
  4  5  2  0  0  0  0
  4  6  1  0  0  0  0
  6  7  1  0  0  0  0
  7  8  1  0  0  0  0
  8  9  1  0  0  0  0
  9 13  1  0  0  0  0
  9 10  2  0  0  0  0
 10 11  1  0  0  0  0
 11 12  1  0  0  0  0
 12 17  2  0  0  0  0
 12 13  1  0  0  0  0
 13 14  2  0  0  0  0
 14 15  1  0  0  0  0
 15 16  2  0  0  0  0
 16 17  1  0  0  0  0
 14 18  1  0  0  0  0
M  END
$$$$
s_22____9966972____58844
  -OEChem-03222016482D

 17 18  0     0  0  0  0  0  0999 V2000
    1.6132   -5.3951    0.0000 C   0  0  0  0  0  0  0  0  0  0  0  0
    2.2824   -4.6519    0.0000 C   0  0  0  0  0  0  0  0  0  0  0  0
    3.2605   -4.8599    0.0000 O   0  0  0  0  0  0  0  0  0  0  0  0
    1.9734   -3.7009    0.0000 N   0  0  0  0  0  0  0  0  0  0  0  0
    2.6426   -2.9578    0.0000 C   0  0  0  0  0  0  0  0  0  0  0  0
    2.3336   -2.0067    0.0000 C   0  0  0  0  0  0  0  0  0  0  0  0
    3.0028   -1.2636    0.0000 C   0  0  0  0  0  0  0  0  0  0  0  0
    2.6938   -0.3125    0.0000 C   0  0  0  0  0  0  0  0  0  0  0  0
    3.2858    0.5023    0.0000 C   0  0  0  0  0  0  0  0  0  0  0  0
    2.6938    1.3169    0.0000 N   0  0  0  0  0  0  0  0  0  0  0  0
    1.7360    1.0058    0.0000 C   0  0  0  0  0  0  0  0  0  0  0  0
    1.7360   -0.0012    0.0000 C   0  0  0  0  0  0  0  0  0  0  0  0
    0.8680   -0.4978    0.0000 C   0  0  0  0  0  0  0  0  0  0  0  0
    0.0000    0.0000    0.0000 C   0  0  0  0  0  0  0  0  0  0  0  0
   -0.0000    1.0058    0.0000 C   0  0  0  0  0  0  0  0  0  0  0  0
    0.8680    1.5138    0.0000 C   0  0  0  0  0  0  0  0  0  0  0  0
   -0.8653   -0.5013    0.0000 F   0  0  0  0  0  0  0  0  0  0  0  0
  1  2  1  0  0  0  0
  2  3  2  0  0  0  0
  2  4  1  0  0  0  0
  4  5  1  0  0  0  0
  5  6  1  0  0  0  0
  6  7  1  0  0  0  0
  7  8  1  0  0  0  0
  8 12  1  0  0  0  0
  8  9  2  0  0  0  0
  9 10  1  0  0  0  0
 10 11  1  0  0  0  0
 11 16  2  0  0  0  0
 11 12  1  0  0  0  0
 12 13  2  0  0  0  0
 13 14  1  0  0  0  0
 14 15  2  0  0  0  0
 15 16  1  0  0  0  0
 14 17  1  0  0  0  0
M  END
$$$$
s_240690b____12346500____3025692
  -OEChem-03222016482D

 18 19  0     1  0  0  0  0  0999 V2000
    4.9078   -4.3247    0.0000 C   0  0  0  0  0  0  0  0  0  0  0  0
    5.5770   -3.5816    0.0000 C   0  0  3  0  0  0  0  0  0  0  0  0
    5.2680   -2.6306    0.0000 C   0  0  0  0  0  0  0  0  0  0  0  0
    5.9372   -1.8874    0.0000 O   0  0  0  0  0  0  0  0  0  0  0  0
    4.2899   -2.4226    0.0000 N   0  0  0  0  0  0  0  0  0  0  0  0
    3.9809   -1.4715    0.0000 C   0  0  0  0  0  0  0  0  0  0  0  0
    3.0028   -1.2636    0.0000 C   0  0  0  0  0  0  0  0  0  0  0  0
    2.6938   -0.3125    0.0000 C   0  0  0  0  0  0  0  0  0  0  0  0
    3.2858    0.5023    0.0000 C   0  0  0  0  0  0  0  0  0  0  0  0
    2.6938    1.3169    0.0000 N   0  0  0  0  0  0  0  0  0  0  0  0
    1.7360    1.0058    0.0000 C   0  0  0  0  0  0  0  0  0  0  0  0
    1.7360   -0.0012    0.0000 C   0  0  0  0  0  0  0  0  0  0  0  0
    0.8680   -0.4978    0.0000 C   0  0  0  0  0  0  0  0  0  0  0  0
    0.0000    0.0000    0.0000 C   0  0  0  0  0  0  0  0  0  0  0  0
   -0.0000    1.0058    0.0000 C   0  0  0  0  0  0  0  0  0  0  0  0
    0.8680    1.5138    0.0000 C   0  0  0  0  0  0  0  0  0  0  0  0
    0.8680    2.5138    0.0000 Cl  0  0  0  0  0  0  0  0  0  0  0  0
    6.5551   -3.7896    0.0000 N   0  3  0  0  0  0  0  0  0  0  0  0
  1  2  1  0  0  0  0
  2  3  1  0  0  0  0
  3  4  2  0  0  0  0
  3  5  1  0  0  0  0
  5  6  1  0  0  0  0
  6  7  1  0  0  0  0
  7  8  1  0  0  0  0
  8 12  1  0  0  0  0
  8  9  2  0  0  0  0
  9 10  1  0  0  0  0
 10 11  1  0  0  0  0
 11 16  2  0  0  0  0
 11 12  1  0  0  0  0
 12 13  2  0  0  0  0
 13 14  1  0  0  0  0
 14 15  2  0  0  0  0
 15 16  1  0  0  0  0
 16 17  1  0  0  0  0
  2 18  1  0  0  0  0
M  CHG  1  18   1
M  END
$$$$
s_22____7533902____9296322
  -OEChem-03222016482D

 17 18  0     0  0  0  0  0  0999 V2000
    9.2857    2.2347    0.0000 C   0  0  0  0  0  0  0  0  0  0  0  0
    8.2857    2.2346    0.0000 C   0  0  0  0  0  0  0  0  0  0  0  0
    7.2857    2.2346    0.0000 C   0  0  0  0  0  0  0  0  0  0  0  0
    6.2857    2.2345    0.0000 C   0  0  0  0  0  0  0  0  0  0  0  0
    5.7856    3.1005    0.0000 O   0  0  0  0  0  0  0  0  0  0  0  0
    5.7857    1.3685    0.0000 N   0  0  0  0  0  0  0  0  0  0  0  0
    4.7857    1.3684    0.0000 C   0  0  0  0  0  0  0  0  0  0  0  0
    4.2858    0.5024    0.0000 C   0  0  0  0  0  0  0  0  0  0  0  0
    3.2858    0.5023    0.0000 C   0  0  0  0  0  0  0  0  0  0  0  0
    2.6938   -0.3125    0.0000 C   0  0  0  0  0  0  0  0  0  0  0  0
    1.7360   -0.0012    0.0000 C   0  0  0  0  0  0  0  0  0  0  0  0
    0.8680   -0.4978    0.0000 C   0  0  0  0  0  0  0  0  0  0  0  0
    0.0000    0.0000    0.0000 C   0  0  0  0  0  0  0  0  0  0  0  0
    0.0000    1.0058    0.0000 C   0  0  0  0  0  0  0  0  0  0  0  0
    0.8680    1.5138    0.0000 C   0  0  0  0  0  0  0  0  0  0  0  0
    1.7360    1.0058    0.0000 C   0  0  0  0  0  0  0  0  0  0  0  0
    2.6938    1.3169    0.0000 N   0  0  0  0  0  0  0  0  0  0  0  0
  1  2  1  0  0  0  0
  2  3  3  0  0  0  0
  3  4  1  0  0  0  0
  4  5  2  0  0  0  0
  4  6  1  0  0  0  0
  6  7  1  0  0  0  0
  7  8  1  0  0  0  0
  8  9  1  0  0  0  0
  9 17  1  0  0  0  0
  9 10  2  0  0  0  0
 10 11  1  0  0  0  0
 11 16  2  0  0  0  0
 11 12  1  0  0  0  0
 12 13  2  0  0  0  0
 13 14  1  0  0  0  0
 14 15  2  0  0  0  0
 15 16  1  0  0  0  0
 16 17  1  0  0  0  0
M  END
$$$$
EN300-77547
  -OEChem-03222016482D

 12 13  0     0  0  0  0  0  0999 V2000
    4.2858    0.5024    0.0000 C   0  0  0  0  0  0  0  0  0  0  0  0
    3.2858    0.5023    0.0000 C   0  0  0  0  0  0  0  0  0  0  0  0
    2.6938   -0.3125    0.0000 C   0  0  0  0  0  0  0  0  0  0  0  0
    1.7360   -0.0012    0.0000 C   0  0  0  0  0  0  0  0  0  0  0  0
    0.8680   -0.4978    0.0000 C   0  0  0  0  0  0  0  0  0  0  0  0
    0.0000    0.0000    0.0000 C   0  0  0  0  0  0  0  0  0  0  0  0
    0.0000    1.0058    0.0000 C   0  0  0  0  0  0  0  0  0  0  0  0
    0.8680    1.5138    0.0000 C   0  0  0  0  0  0  0  0  0  0  0  0
    1.7360    1.0058    0.0000 C   0  0  0  0  0  0  0  0  0  0  0  0
    2.6938    1.3169    0.0000 N   0  0  0  0  0  0  0  0  0  0  0  0
   -0.8653   -0.5013    0.0000 O   0  0  0  0  0  0  0  0  0  0  0  0
   -0.8639   -1.5013    0.0000 C   0  0  0  0  0  0  0  0  0  0  0  0
  1  2  1  0  0  0  0
  2 10  1  0  0  0  0
  2  3  2  0  0  0  0
  3  4  1  0  0  0  0
  4  9  2  0  0  0  0
  4  5  1  0  0  0  0
  5  6  2  0  0  0  0
  6  7  1  0  0  0  0
  7  8  2  0  0  0  0
  8  9  1  0  0  0  0
  9 10  1  0  0  0  0
  6 11  1  0  0  0  0
 11 12  1  0  0  0  0
M  END
$$$$
s_22____5635330____58866
  -OEChem-03222016482D

 18 19  0     0  0  0  0  0  0999 V2000
    6.8641   -4.7407    0.0000 C   0  0  0  0  0  0  0  0  0  0  0  0
    6.5551   -3.7896    0.0000 C   0  0  0  0  0  0  0  0  0  0  0  0
    5.5770   -3.5816    0.0000 C   0  0  0  0  0  0  0  0  0  0  0  0
    5.2680   -2.6306    0.0000 C   0  0  0  0  0  0  0  0  0  0  0  0
    5.9372   -1.8874    0.0000 O   0  0  0  0  0  0  0  0  0  0  0  0
    4.2899   -2.4226    0.0000 N   0  0  0  0  0  0  0  0  0  0  0  0
    3.9809   -1.4715    0.0000 C   0  0  0  0  0  0  0  0  0  0  0  0
    3.0028   -1.2636    0.0000 C   0  0  0  0  0  0  0  0  0  0  0  0
    2.6938   -0.3125    0.0000 C   0  0  0  0  0  0  0  0  0  0  0  0
    3.2858    0.5023    0.0000 C   0  0  0  0  0  0  0  0  0  0  0  0
    2.6938    1.3169    0.0000 N   0  0  0  0  0  0  0  0  0  0  0  0
    1.7360    1.0058    0.0000 C   0  0  0  0  0  0  0  0  0  0  0  0
    1.7360   -0.0012    0.0000 C   0  0  0  0  0  0  0  0  0  0  0  0
    0.8680   -0.4978    0.0000 C   0  0  0  0  0  0  0  0  0  0  0  0
    0.0000    0.0000    0.0000 C   0  0  0  0  0  0  0  0  0  0  0  0
   -0.0000    1.0058    0.0000 C   0  0  0  0  0  0  0  0  0  0  0  0
    0.8680    1.5138    0.0000 C   0  0  0  0  0  0  0  0  0  0  0  0
    0.8680    2.5138    0.0000 C   0  0  0  0  0  0  0  0  0  0  0  0
  1  2  1  0  0  0  0
  2  3  1  0  0  0  0
  3  4  1  0  0  0  0
  4  5  2  0  0  0  0
  4  6  1  0  0  0  0
  6  7  1  0  0  0  0
  7  8  1  0  0  0  0
  8  9  1  0  0  0  0
  9 13  1  0  0  0  0
  9 10  2  0  0  0  0
 10 11  1  0  0  0  0
 11 12  1  0  0  0  0
 12 17  2  0  0  0  0
 12 13  1  0  0  0  0
 13 14  2  0  0  0  0
 14 15  1  0  0  0  0
 15 16  2  0  0  0  0
 16 17  1  0  0  0  0
 17 18  1  0  0  0  0
M  END
$$$$
s_22____8929618____58844
  -OEChem-03222016482D

 17 18  0     1  0  0  0  0  0999 V2000
    4.7859   -0.3637    0.0000 C   0  0  0  0  0  0  0  0  0  0  0  0
    4.2858    0.5023    0.0000 C   0  0  3  0  0  0  0  0  0  0  0  0
    3.2858    0.5022    0.0000 C   0  0  0  0  0  0  0  0  0  0  0  0
    2.6938   -0.3126    0.0000 N   0  0  0  0  0  0  0  0  0  0  0  0
    1.7360   -0.0013    0.0000 C   0  0  0  0  0  0  0  0  0  0  0  0
    0.8680   -0.4979    0.0000 C   0  0  0  0  0  0  0  0  0  0  0  0
    0.0000    0.0000    0.0000 C   0  0  0  0  0  0  0  0  0  0  0  0
    0.0000    1.0058    0.0000 C   0  0  0  0  0  0  0  0  0  0  0  0
    0.8680    1.5137    0.0000 C   0  0  0  0  0  0  0  0  0  0  0  0
    1.7360    1.0058    0.0000 C   0  0  0  0  0  0  0  0  0  0  0  0
    2.6938    1.3168    0.0000 N   0  0  0  0  0  0  0  0  0  0  0  0
   -0.8675    1.5033    0.0000 O   0  0  0  0  0  0  0  0  0  0  0  0
   -1.7320    1.0008    0.0000 C   0  0  0  0  0  0  0  0  0  0  0  0
    4.7857    1.3683    0.0000 N   0  0  0  0  0  0  0  0  0  0  0  0
    5.7857    1.3684    0.0000 C   0  0  0  0  0  0  0  0  0  0  0  0
    6.2858    0.5024    0.0000 O   0  0  0  0  0  0  0  0  0  0  0  0
    6.2857    2.2344    0.0000 C   0  0  0  0  0  0  0  0  0  0  0  0
  1  2  1  0  0  0  0
  2  3  1  0  0  0  0
  3 11  2  0  0  0  0
  3  4  1  0  0  0  0
  4  5  1  0  0  0  0
  5 10  2  0  0  0  0
  5  6  1  0  0  0  0
  6  7  2  0  0  0  0
  7  8  1  0  0  0  0
  8  9  2  0  0  0  0
  9 10  1  0  0  0  0
 10 11  1  0  0  0  0
  8 12  1  0  0  0  0
 12 13  1  0  0  0  0
  2 14  1  0  0  0  0
 14 15  1  0  0  0  0
 15 16  2  0  0  0  0
 15 17  1  0  0  0  0
M  END
$$$$
s_22____15506616____2989428
  -OEChem-03222016482D

 20 21  0     0  0  0  0  0  0999 V2000
    1.9222   -6.3461    0.0000 C   0  0  0  0  0  0  0  0  0  0  0  0
    1.6132   -5.3951    0.0000 N   0  3  0  0  0  0  0  0  0  0  0  0
    0.6351   -5.1871    0.0000 C   0  0  0  0  0  0  0  0  0  0  0  0
    2.2824   -4.6519    0.0000 C   0  0  0  0  0  0  0  0  0  0  0  0
    1.9734   -3.7009    0.0000 C   0  0  0  0  0  0  0  0  0  0  0  0
    0.9953   -3.4929    0.0000 O   0  0  0  0  0  0  0  0  0  0  0  0
    2.6426   -2.9578    0.0000 N   0  0  0  0  0  0  0  0  0  0  0  0
    2.3336   -2.0067    0.0000 C   0  0  0  0  0  0  0  0  0  0  0  0
    3.0028   -1.2636    0.0000 C   0  0  0  0  0  0  0  0  0  0  0  0
    2.6938   -0.3125    0.0000 C   0  0  0  0  0  0  0  0  0  0  0  0
    3.2858    0.5023    0.0000 C   0  0  0  0  0  0  0  0  0  0  0  0
    2.6938    1.3169    0.0000 N   0  0  0  0  0  0  0  0  0  0  0  0
    1.7360    1.0058    0.0000 C   0  0  0  0  0  0  0  0  0  0  0  0
    1.7360   -0.0012    0.0000 C   0  0  0  0  0  0  0  0  0  0  0  0
    0.8680   -0.4978    0.0000 C   0  0  0  0  0  0  0  0  0  0  0  0
    0.0000    0.0000    0.0000 C   0  0  0  0  0  0  0  0  0  0  0  0
   -0.0000    1.0058    0.0000 C   0  0  0  0  0  0  0  0  0  0  0  0
    0.8680    1.5138    0.0000 C   0  0  0  0  0  0  0  0  0  0  0  0
    0.8680    2.5138    0.0000 O   0  0  0  0  0  0  0  0  0  0  0  0
    0.0020    3.0138    0.0000 C   0  0  0  0  0  0  0  0  0  0  0  0
  1  2  1  0  0  0  0
  2  3  1  0  0  0  0
  2  4  1  0  0  0  0
  4  5  1  0  0  0  0
  5  6  2  0  0  0  0
  5  7  1  0  0  0  0
  7  8  1  0  0  0  0
  8  9  1  0  0  0  0
  9 10  1  0  0  0  0
 10 14  1  0  0  0  0
 10 11  2  0  0  0  0
 11 12  1  0  0  0  0
 12 13  1  0  0  0  0
 13 18  2  0  0  0  0
 13 14  1  0  0  0  0
 14 15  2  0  0  0  0
 15 16  1  0  0  0  0
 16 17  2  0  0  0  0
 17 18  1  0  0  0  0
 18 19  1  0  0  0  0
 19 20  1  0  0  0  0
M  CHG  1   2   1
M  END
$$$$
s_22____14190602____9296322
  -OEChem-03222016482D

 20 21  0     1  0  0  0  0  0999 V2000
    6.1949   -5.4838    0.0000 C   0  0  0  0  0  0  0  0  0  0  0  0
    5.8860   -4.5327    0.0000 C   0  0  0  0  0  0  0  0  0  0  0  0
    5.5770   -3.5816    0.0000 C   0  0  0  0  0  0  0  0  0  0  0  0
    5.2680   -2.6306    0.0000 C   0  0  0  0  0  0  0  0  0  0  0  0
    5.9372   -1.8874    0.0000 O   0  0  0  0  0  0  0  0  0  0  0  0
    4.2899   -2.4226    0.0000 N   0  0  0  0  0  0  0  0  0  0  0  0
    3.9809   -1.4715    0.0000 C   0  0  3  0  0  0  0  0  0  0  0  0
    4.6501   -0.7284    0.0000 C   0  0  0  0  0  0  0  0  0  0  0  0
    3.0028   -1.2636    0.0000 C   0  0  0  0  0  0  0  0  0  0  0  0
    2.6938   -0.3125    0.0000 C   0  0  0  0  0  0  0  0  0  0  0  0
    3.2858    0.5023    0.0000 C   0  0  0  0  0  0  0  0  0  0  0  0
    2.6938    1.3169    0.0000 N   0  0  0  0  0  0  0  0  0  0  0  0
    1.7360    1.0058    0.0000 C   0  0  0  0  0  0  0  0  0  0  0  0
    1.7360   -0.0012    0.0000 C   0  0  0  0  0  0  0  0  0  0  0  0
    0.8680   -0.4978    0.0000 C   0  0  0  0  0  0  0  0  0  0  0  0
    0.0000    0.0000    0.0000 C   0  0  0  0  0  0  0  0  0  0  0  0
   -0.0000    1.0058    0.0000 C   0  0  0  0  0  0  0  0  0  0  0  0
    0.8680    1.5138    0.0000 C   0  0  0  0  0  0  0  0  0  0  0  0
   -0.8675    1.5032    0.0000 F   0  0  0  0  0  0  0  0  0  0  0  0
   -0.8653   -0.5013    0.0000 F   0  0  0  0  0  0  0  0  0  0  0  0
  1  2  1  0  0  0  0
  2  3  3  0  0  0  0
  3  4  1  0  0  0  0
  4  5  2  0  0  0  0
  4  6  1  0  0  0  0
  6  7  1  0  0  0  0
  7  8  1  0  0  0  0
  7  9  1  0  0  0  0
  9 10  1  0  0  0  0
 10 14  1  0  0  0  0
 10 11  2  0  0  0  0
 11 12  1  0  0  0  0
 12 13  1  0  0  0  0
 13 18  2  0  0  0  0
 13 14  1  0  0  0  0
 14 15  2  0  0  0  0
 15 16  1  0  0  0  0
 16 17  2  0  0  0  0
 17 18  1  0  0  0  0
 17 19  1  0  0  0  0
 16 20  1  0  0  0  0
M  END
$$$$
s_274078a____14577114____12873778
  -OEChem-03222016482D

 19 20  0     1  0  0  0  0  0999 V2000
   -0.2918   -2.3339    0.0000 C   0  0  0  0  0  0  0  0  0  0  0  0
    0.6863   -2.5418    0.0000 C   0  0  0  0  0  0  0  0  0  0  0  0
    0.9953   -3.4929    0.0000 O   0  0  0  0  0  0  0  0  0  0  0  0
    1.3555   -1.7987    0.0000 N   0  0  0  0  0  0  0  0  0  0  0  0
    2.3336   -2.0067    0.0000 C   0  0  3  0  0  0  0  0  0  0  0  0
    3.0028   -1.2636    0.0000 C   0  0  0  0  0  0  0  0  0  0  0  0
    2.6938   -0.3125    0.0000 C   0  0  0  0  0  0  0  0  0  0  0  0
    3.2858    0.5023    0.0000 C   0  0  0  0  0  0  0  0  0  0  0  0
    2.6938    1.3169    0.0000 N   0  0  0  0  0  0  0  0  0  0  0  0
    1.7360    1.0058    0.0000 C   0  0  0  0  0  0  0  0  0  0  0  0
    1.7360   -0.0012    0.0000 C   0  0  0  0  0  0  0  0  0  0  0  0
    0.8680   -0.4978    0.0000 C   0  0  0  0  0  0  0  0  0  0  0  0
    0.0000    0.0000    0.0000 C   0  0  0  0  0  0  0  0  0  0  0  0
   -0.0000    1.0058    0.0000 C   0  0  0  0  0  0  0  0  0  0  0  0
    0.8680    1.5138    0.0000 C   0  0  0  0  0  0  0  0  0  0  0  0
   -0.8653   -0.5013    0.0000 O   0  0  0  0  0  0  0  0  0  0  0  0
    2.6426   -2.9578    0.0000 C   0  0  0  0  0  0  0  0  0  0  0  0
    1.9734   -3.7009    0.0000 O   0  0  0  0  0  0  0  0  0  0  0  0
    3.6207   -3.1657    0.0000 O   0  5  0  0  0  0  0  0  0  0  0  0
  1  2  1  0  0  0  0
  2  3  2  0  0  0  0
  2  4  1  0  0  0  0
  4  5  1  0  0  0  0
  5  6  1  0  0  0  0
  6  7  1  0  0  0  0
  7 11  1  0  0  0  0
  7  8  2  0  0  0  0
  8  9  1  0  0  0  0
  9 10  1  0  0  0  0
 10 15  2  0  0  0  0
 10 11  1  0  0  0  0
 11 12  2  0  0  0  0
 12 13  1  0  0  0  0
 13 14  2  0  0  0  0
 14 15  1  0  0  0  0
 13 16  1  0  0  0  0
  5 17  1  0  0  0  0
 17 18  2  0  0  0  0
 17 19  1  0  0  0  0
M  CHG  1  19  -1
M  END
$$$$
s_240690b____7354100____7368582
  -OEChem-03222016482D

 18 19  0     0  0  0  0  0  0999 V2000
    6.8641   -4.7407    0.0000 C   0  0  0  0  0  0  0  0  0  0  0  0
    6.5551   -3.7896    0.0000 N   0  3  0  0  0  0  0  0  0  0  0  0
    5.5770   -3.5816    0.0000 C   0  0  0  0  0  0  0  0  0  0  0  0
    5.2680   -2.6306    0.0000 C   0  0  0  0  0  0  0  0  0  0  0  0
    5.9372   -1.8874    0.0000 O   0  0  0  0  0  0  0  0  0  0  0  0
    4.2899   -2.4226    0.0000 N   0  0  0  0  0  0  0  0  0  0  0  0
    3.9809   -1.4715    0.0000 C   0  0  0  0  0  0  0  0  0  0  0  0
    3.0028   -1.2636    0.0000 C   0  0  0  0  0  0  0  0  0  0  0  0
    2.6938   -0.3125    0.0000 C   0  0  0  0  0  0  0  0  0  0  0  0
    3.2858    0.5023    0.0000 C   0  0  0  0  0  0  0  0  0  0  0  0
    2.6938    1.3169    0.0000 N   0  0  0  0  0  0  0  0  0  0  0  0
    1.7360    1.0058    0.0000 C   0  0  0  0  0  0  0  0  0  0  0  0
    1.7360   -0.0012    0.0000 C   0  0  0  0  0  0  0  0  0  0  0  0
    0.8680   -0.4978    0.0000 C   0  0  0  0  0  0  0  0  0  0  0  0
    0.0000    0.0000    0.0000 C   0  0  0  0  0  0  0  0  0  0  0  0
   -0.0000    1.0058    0.0000 C   0  0  0  0  0  0  0  0  0  0  0  0
    0.8680    1.5138    0.0000 C   0  0  0  0  0  0  0  0  0  0  0  0
   -0.8675    1.5032    0.0000 F   0  0  0  0  0  0  0  0  0  0  0  0
  1  2  1  0  0  0  0
  2  3  1  0  0  0  0
  3  4  1  0  0  0  0
  4  5  2  0  0  0  0
  4  6  1  0  0  0  0
  6  7  1  0  0  0  0
  7  8  1  0  0  0  0
  8  9  1  0  0  0  0
  9 13  1  0  0  0  0
  9 10  2  0  0  0  0
 10 11  1  0  0  0  0
 11 12  1  0  0  0  0
 12 17  2  0  0  0  0
 12 13  1  0  0  0  0
 13 14  2  0  0  0  0
 14 15  1  0  0  0  0
 15 16  2  0  0  0  0
 16 17  1  0  0  0  0
 16 18  1  0  0  0  0
M  CHG  1   2   1
M  END
$$$$
s_270004____8992410____16621896
  -OEChem-03222016482D

 20 21  0     0  0  0  0  0  0999 V2000
    8.7856    3.1007    0.0000 C   0  0  0  0  0  0  0  0  0  0  0  0
    7.7856    3.1006    0.0000 C   0  0  0  0  0  0  0  0  0  0  0  0
    7.2857    2.2346    0.0000 N   0  0  0  0  0  0  0  0  0  0  0  0
    7.7857    1.3686    0.0000 C   0  0  0  0  0  0  0  0  0  0  0  0
    6.2857    2.2345    0.0000 C   0  0  0  0  0  0  0  0  0  0  0  0
    5.7856    3.1005    0.0000 O   0  0  0  0  0  0  0  0  0  0  0  0
    5.7857    1.3685    0.0000 C   0  0  0  0  0  0  0  0  0  0  0  0
    4.7857    1.3684    0.0000 N   0  3  0  0  0  0  0  0  0  0  0  0
    4.2858    0.5024    0.0000 C   0  0  0  0  0  0  0  0  0  0  0  0
    3.2858    0.5023    0.0000 C   0  0  0  0  0  0  0  0  0  0  0  0
    2.6938   -0.3125    0.0000 C   0  0  0  0  0  0  0  0  0  0  0  0
    1.7360   -0.0012    0.0000 C   0  0  0  0  0  0  0  0  0  0  0  0
    0.8680   -0.4978    0.0000 C   0  0  0  0  0  0  0  0  0  0  0  0
    0.0000    0.0000    0.0000 C   0  0  0  0  0  0  0  0  0  0  0  0
    0.0000    1.0058    0.0000 C   0  0  0  0  0  0  0  0  0  0  0  0
    0.8680    1.5138    0.0000 C   0  0  0  0  0  0  0  0  0  0  0  0
    1.7360    1.0058    0.0000 C   0  0  0  0  0  0  0  0  0  0  0  0
    2.6938    1.3169    0.0000 N   0  0  0  0  0  0  0  0  0  0  0  0
   -0.8653   -0.5013    0.0000 O   0  0  0  0  0  0  0  0  0  0  0  0
   -0.8639   -1.5013    0.0000 C   0  0  0  0  0  0  0  0  0  0  0  0
  1  2  1  0  0  0  0
  2  3  1  0  0  0  0
  3  4  1  0  0  0  0
  3  5  1  0  0  0  0
  5  6  2  0  0  0  0
  5  7  1  0  0  0  0
  7  8  1  0  0  0  0
  8  9  1  0  0  0  0
  9 10  1  0  0  0  0
 10 18  1  0  0  0  0
 10 11  2  0  0  0  0
 11 12  1  0  0  0  0
 12 17  2  0  0  0  0
 12 13  1  0  0  0  0
 13 14  2  0  0  0  0
 14 15  1  0  0  0  0
 15 16  2  0  0  0  0
 16 17  1  0  0  0  0
 17 18  1  0  0  0  0
 14 19  1  0  0  0  0
 19 20  1  0  0  0  0
M  CHG  1   8   1
M  END
$$$$
s_240690b____11689208____3025680
  -OEChem-03222016482D

 17 18  0     0  0  0  0  0  0999 V2000
    0.0000    0.0000    0.0000 C   0  0  0  0  0  0  0  0  0  0  0  0
   -0.0000    1.0058    0.0000 C   0  0  0  0  0  0  0  0  0  0  0  0
    0.8680    1.5138    0.0000 C   0  0  0  0  0  0  0  0  0  0  0  0
    1.7360    1.0058    0.0000 C   0  0  0  0  0  0  0  0  0  0  0  0
    1.7360   -0.0012    0.0000 C   0  0  0  0  0  0  0  0  0  0  0  0
    0.8680   -0.4978    0.0000 C   0  0  0  0  0  0  0  0  0  0  0  0
    2.6938   -0.3125    0.0000 C   0  0  0  0  0  0  0  0  0  0  0  0
    3.2858    0.5023    0.0000 C   0  0  0  0  0  0  0  0  0  0  0  0
    2.6938    1.3169    0.0000 N   0  0  0  0  0  0  0  0  0  0  0  0
    4.2858    0.5024    0.0000 C   0  0  0  0  0  0  0  0  0  0  0  0
    4.7857    1.3684    0.0000 C   0  0  0  0  0  0  0  0  0  0  0  0
    5.7857    1.3685    0.0000 N   0  0  0  0  0  0  0  0  0  0  0  0
    6.2857    2.2345    0.0000 C   0  0  0  0  0  0  0  0  0  0  0  0
    5.7856    3.1005    0.0000 O   0  0  0  0  0  0  0  0  0  0  0  0
    7.2857    2.2346    0.0000 C   0  0  0  0  0  0  0  0  0  0  0  0
    7.7856    3.1006    0.0000 C   0  0  0  0  0  0  0  0  0  0  0  0
    8.7856    3.1007    0.0000 N   0  3  0  0  0  0  0  0  0  0  0  0
  1  6  2  0  0  0  0
  1  2  1  0  0  0  0
  2  3  2  0  0  0  0
  3  4  1  0  0  0  0
  4  9  1  0  0  0  0
  4  5  2  0  0  0  0
  5  6  1  0  0  0  0
  5  7  1  0  0  0  0
  7  8  2  0  0  0  0
  8  9  1  0  0  0  0
  8 10  1  0  0  0  0
 10 11  1  0  0  0  0
 11 12  1  0  0  0  0
 12 13  1  0  0  0  0
 13 14  2  0  0  0  0
 13 15  1  0  0  0  0
 15 16  1  0  0  0  0
 16 17  1  0  0  0  0
M  CHG  1  17   1
M  END
$$$$
s_22____4839448____12103014
  -OEChem-03222016482D

 19 20  0     0  0  0  0  0  0999 V2000
    6.8641   -4.7407    0.0000 C   0  0  0  0  0  0  0  0  0  0  0  0
    6.5551   -3.7896    0.0000 C   0  0  0  0  0  0  0  0  0  0  0  0
    5.5770   -3.5816    0.0000 C   0  0  0  0  0  0  0  0  0  0  0  0
    5.2680   -2.6306    0.0000 C   0  0  0  0  0  0  0  0  0  0  0  0
    5.9372   -1.8874    0.0000 O   0  0  0  0  0  0  0  0  0  0  0  0
    4.2899   -2.4226    0.0000 N   0  0  0  0  0  0  0  0  0  0  0  0
    3.9809   -1.4715    0.0000 C   0  0  0  0  0  0  0  0  0  0  0  0
    3.0028   -1.2636    0.0000 C   0  0  0  0  0  0  0  0  0  0  0  0
    2.6938   -0.3125    0.0000 C   0  0  0  0  0  0  0  0  0  0  0  0
    3.2858    0.5023    0.0000 C   0  0  0  0  0  0  0  0  0  0  0  0
    2.6938    1.3169    0.0000 N   0  0  0  0  0  0  0  0  0  0  0  0
    1.7360    1.0058    0.0000 C   0  0  0  0  0  0  0  0  0  0  0  0
    1.7360   -0.0012    0.0000 C   0  0  0  0  0  0  0  0  0  0  0  0
    0.8680   -0.4978    0.0000 C   0  0  0  0  0  0  0  0  0  0  0  0
    0.0000    0.0000    0.0000 C   0  0  0  0  0  0  0  0  0  0  0  0
   -0.0000    1.0058    0.0000 C   0  0  0  0  0  0  0  0  0  0  0  0
    0.8680    1.5138    0.0000 C   0  0  0  0  0  0  0  0  0  0  0  0
   -0.8653   -0.5013    0.0000 O   0  0  0  0  0  0  0  0  0  0  0  0
   -0.8639   -1.5013    0.0000 C   0  0  0  0  0  0  0  0  0  0  0  0
  1  2  1  0  0  0  0
  2  3  2  3  0  0  0
  3  4  1  0  0  0  0
  4  5  2  0  0  0  0
  4  6  1  0  0  0  0
  6  7  1  0  0  0  0
  7  8  1  0  0  0  0
  8  9  1  0  0  0  0
  9 13  1  0  0  0  0
  9 10  2  0  0  0  0
 10 11  1  0  0  0  0
 11 12  1  0  0  0  0
 12 17  2  0  0  0  0
 12 13  1  0  0  0  0
 13 14  2  0  0  0  0
 14 15  1  0  0  0  0
 15 16  2  0  0  0  0
 16 17  1  0  0  0  0
 15 18  1  0  0  0  0
 18 19  1  0  0  0  0
M  END
$$$$
s_240690b____13612076____13151248
  -OEChem-03222016482D

 18 19  0     0  0  0  0  0  0999 V2000
   -0.8653   -0.5013    0.0000 C   0  0  0  0  0  0  0  0  0  0  0  0
    0.0000    0.0000    0.0000 C   0  0  0  0  0  0  0  0  0  0  0  0
   -0.0000    1.0058    0.0000 C   0  0  0  0  0  0  0  0  0  0  0  0
    0.8680    1.5138    0.0000 C   0  0  0  0  0  0  0  0  0  0  0  0
    1.7360    1.0058    0.0000 C   0  0  0  0  0  0  0  0  0  0  0  0
    1.7360   -0.0012    0.0000 C   0  0  0  0  0  0  0  0  0  0  0  0
    0.8680   -0.4978    0.0000 C   0  0  0  0  0  0  0  0  0  0  0  0
    2.6938   -0.3125    0.0000 C   0  0  0  0  0  0  0  0  0  0  0  0
    3.2858    0.5023    0.0000 C   0  0  0  0  0  0  0  0  0  0  0  0
    2.6938    1.3169    0.0000 N   0  0  0  0  0  0  0  0  0  0  0  0
    3.0028   -1.2636    0.0000 C   0  0  0  0  0  0  0  0  0  0  0  0
    3.9809   -1.4715    0.0000 C   0  0  0  0  0  0  0  0  0  0  0  0
    4.2899   -2.4226    0.0000 N   0  0  0  0  0  0  0  0  0  0  0  0
    5.2680   -2.6306    0.0000 C   0  0  0  0  0  0  0  0  0  0  0  0
    5.9372   -1.8874    0.0000 O   0  0  0  0  0  0  0  0  0  0  0  0
    5.5770   -3.5816    0.0000 C   0  0  0  0  0  0  0  0  0  0  0  0
    6.5551   -3.7896    0.0000 O   0  0  0  0  0  0  0  0  0  0  0  0
    6.8641   -4.7407    0.0000 N   0  0  0  0  0  0  0  0  0  0  0  0
  1  2  1  0  0  0  0
  2  7  2  0  0  0  0
  2  3  1  0  0  0  0
  3  4  2  0  0  0  0
  4  5  1  0  0  0  0
  5 10  1  0  0  0  0
  5  6  2  0  0  0  0
  6  7  1  0  0  0  0
  6  8  1  0  0  0  0
  8  9  2  0  0  0  0
  9 10  1  0  0  0  0
  8 11  1  0  0  0  0
 11 12  1  0  0  0  0
 12 13  1  0  0  0  0
 13 14  1  0  0  0  0
 14 15  2  0  0  0  0
 14 16  1  0  0  0  0
 16 17  1  0  0  0  0
 17 18  1  0  0  0  0
M  END
$$$$
s_512____11946682____15506628
  -OEChem-03222016482D

 21 22  0     0  0  0  0  0  0999 V2000
    1.7340    3.0138    0.0000 C   0  0  0  0  0  0  0  0  0  0  0  0
    0.8680    2.5138    0.0000 O   0  0  0  0  0  0  0  0  0  0  0  0
    0.8680    1.5138    0.0000 C   0  0  0  0  0  0  0  0  0  0  0  0
    0.0000    1.0058    0.0000 C   0  0  0  0  0  0  0  0  0  0  0  0
    0.0000    0.0000    0.0000 C   0  0  0  0  0  0  0  0  0  0  0  0
    0.8680   -0.4978    0.0000 C   0  0  0  0  0  0  0  0  0  0  0  0
    1.7360   -0.0012    0.0000 C   0  0  0  0  0  0  0  0  0  0  0  0
    1.7360    1.0058    0.0000 C   0  0  0  0  0  0  0  0  0  0  0  0
    2.6938    1.3169    0.0000 N   0  0  0  0  0  0  0  0  0  0  0  0
    3.2858    0.5023    0.0000 C   0  0  0  0  0  0  0  0  0  0  0  0
    2.6938   -0.3125    0.0000 C   0  0  0  0  0  0  0  0  0  0  0  0
    3.0028   -1.2636    0.0000 C   0  0  0  0  0  0  0  0  0  0  0  0
    3.9809   -1.4715    0.0000 C   0  0  0  0  0  0  0  0  0  0  0  0
    4.2899   -2.4226    0.0000 N   0  0  0  0  0  0  0  0  0  0  0  0
    5.2680   -2.6306    0.0000 C   0  0  0  0  0  0  0  0  0  0  0  0
    5.9372   -1.8874    0.0000 O   0  0  0  0  0  0  0  0  0  0  0  0
    5.5770   -3.5816    0.0000 N   0  0  0  0  0  0  0  0  0  0  0  0
    6.5551   -3.7896    0.0000 C   0  0  0  0  0  0  0  0  0  0  0  0
    6.8641   -4.7407    0.0000 C   0  0  0  0  0  0  0  0  0  0  0  0
    7.8422   -4.9486    0.0000 S   0  0  0  0  0  0  0  0  0  0  0  0
    8.1512   -5.8997    0.0000 C   0  0  0  0  0  0  0  0  0  0  0  0
  1  2  1  0  0  0  0
  2  3  1  0  0  0  0
  3  8  2  0  0  0  0
  3  4  1  0  0  0  0
  4  5  2  0  0  0  0
  5  6  1  0  0  0  0
  6  7  2  0  0  0  0
  7 11  1  0  0  0  0
  7  8  1  0  0  0  0
  8  9  1  0  0  0  0
  9 10  1  0  0  0  0
 10 11  2  0  0  0  0
 11 12  1  0  0  0  0
 12 13  1  0  0  0  0
 13 14  1  0  0  0  0
 14 15  1  0  0  0  0
 15 16  2  0  0  0  0
 15 17  1  0  0  0  0
 17 18  1  0  0  0  0
 18 19  1  0  0  0  0
 19 20  1  0  0  0  0
 20 21  1  0  0  0  0
M  END
$$$$
s_22____3219394____58887
  -OEChem-03222016482D

 17 18  0     0  0  0  0  0  0999 V2000
    1.6132   -5.3951    0.0000 C   0  0  0  0  0  0  0  0  0  0  0  0
    2.2824   -4.6519    0.0000 C   0  0  0  0  0  0  0  0  0  0  0  0
    1.9734   -3.7009    0.0000 C   0  0  0  0  0  0  0  0  0  0  0  0
    0.9953   -3.4929    0.0000 O   0  0  0  0  0  0  0  0  0  0  0  0
    2.6426   -2.9578    0.0000 N   0  0  0  0  0  0  0  0  0  0  0  0
    2.3336   -2.0067    0.0000 C   0  0  0  0  0  0  0  0  0  0  0  0
    3.0028   -1.2636    0.0000 C   0  0  0  0  0  0  0  0  0  0  0  0
    2.6938   -0.3125    0.0000 C   0  0  0  0  0  0  0  0  0  0  0  0
    3.2858    0.5023    0.0000 C   0  0  0  0  0  0  0  0  0  0  0  0
    2.6938    1.3169    0.0000 N   0  0  0  0  0  0  0  0  0  0  0  0
    1.7360    1.0058    0.0000 C   0  0  0  0  0  0  0  0  0  0  0  0
    1.7360   -0.0012    0.0000 C   0  0  0  0  0  0  0  0  0  0  0  0
    0.8680   -0.4978    0.0000 C   0  0  0  0  0  0  0  0  0  0  0  0
    0.0000    0.0000    0.0000 C   0  0  0  0  0  0  0  0  0  0  0  0
   -0.0000    1.0058    0.0000 C   0  0  0  0  0  0  0  0  0  0  0  0
    0.8680    1.5138    0.0000 C   0  0  0  0  0  0  0  0  0  0  0  0
    0.8675   -1.4978    0.0000 C   0  0  0  0  0  0  0  0  0  0  0  0
  1  2  1  0  0  0  0
  2  3  1  0  0  0  0
  3  4  2  0  0  0  0
  3  5  1  0  0  0  0
  5  6  1  0  0  0  0
  6  7  1  0  0  0  0
  7  8  1  0  0  0  0
  8 12  1  0  0  0  0
  8  9  2  0  0  0  0
  9 10  1  0  0  0  0
 10 11  1  0  0  0  0
 11 16  2  0  0  0  0
 11 12  1  0  0  0  0
 12 13  2  0  0  0  0
 13 14  1  0  0  0  0
 14 15  2  0  0  0  0
 15 16  1  0  0  0  0
 13 17  1  0  0  0  0
M  END
$$$$
s_22____13025516____10389864
  -OEChem-03222016482D

 21 22  0     0  0  0  0  0  0999 V2000
    0.0012   -1.9973    0.0000 C   0  0  0  0  0  0  0  0  0  0  0  0
    0.8675   -1.4978    0.0000 O   0  0  0  0  0  0  0  0  0  0  0  0
    0.8680   -0.4978    0.0000 C   0  0  0  0  0  0  0  0  0  0  0  0
    0.0000    0.0000    0.0000 C   0  0  0  0  0  0  0  0  0  0  0  0
   -0.0000    1.0058    0.0000 C   0  0  0  0  0  0  0  0  0  0  0  0
    0.8680    1.5138    0.0000 C   0  0  0  0  0  0  0  0  0  0  0  0
    1.7360    1.0058    0.0000 C   0  0  0  0  0  0  0  0  0  0  0  0
    1.7360   -0.0012    0.0000 C   0  0  0  0  0  0  0  0  0  0  0  0
    2.6938   -0.3125    0.0000 C   0  0  0  0  0  0  0  0  0  0  0  0
    3.2858    0.5023    0.0000 C   0  0  0  0  0  0  0  0  0  0  0  0
    2.6938    1.3169    0.0000 N   0  0  0  0  0  0  0  0  0  0  0  0
    3.0028   -1.2636    0.0000 C   0  0  0  0  0  0  0  0  0  0  0  0
    3.9809   -1.4715    0.0000 C   0  0  0  0  0  0  0  0  0  0  0  0
    4.2899   -2.4226    0.0000 N   0  0  0  0  0  0  0  0  0  0  0  0
    5.2680   -2.6306    0.0000 C   0  0  0  0  0  0  0  0  0  0  0  0
    5.9372   -1.8874    0.0000 O   0  0  0  0  0  0  0  0  0  0  0  0
    5.5770   -3.5816    0.0000 C   0  0  0  0  0  0  0  0  0  0  0  0
    6.5551   -3.7896    0.0000 C   0  0  0  0  0  0  0  0  0  0  0  0
    6.8641   -4.7407    0.0000 C   0  0  0  0  0  0  0  0  0  0  0  0
    7.8422   -4.9486    0.0000 C   0  0  0  0  0  0  0  0  0  0  0  0
    8.8204   -5.1566    0.0000 N   0  0  0  0  0  0  0  0  0  0  0  0
  1  2  1  0  0  0  0
  2  3  1  0  0  0  0
  3  8  2  0  0  0  0
  3  4  1  0  0  0  0
  4  5  2  0  0  0  0
  5  6  1  0  0  0  0
  6  7  2  0  0  0  0
  7 11  1  0  0  0  0
  7  8  1  0  0  0  0
  8  9  1  0  0  0  0
  9 10  2  0  0  0  0
 10 11  1  0  0  0  0
  9 12  1  0  0  0  0
 12 13  1  0  0  0  0
 13 14  1  0  0  0  0
 14 15  1  0  0  0  0
 15 16  2  0  0  0  0
 15 17  1  0  0  0  0
 17 18  1  0  0  0  0
 18 19  1  0  0  0  0
 19 20  1  0  0  0  0
 20 21  3  0  0  0  0
M  END
$$$$
s_240690b____7354134____3025680
  -OEChem-03222016482D

 18 19  0     0  0  0  0  0  0999 V2000
   -0.0000    1.0058    0.0000 C   0  0  0  0  0  0  0  0  0  0  0  0
    0.8680    1.5138    0.0000 C   0  0  0  0  0  0  0  0  0  0  0  0
    1.7360    1.0058    0.0000 C   0  0  0  0  0  0  0  0  0  0  0  0
    1.7360   -0.0012    0.0000 C   0  0  0  0  0  0  0  0  0  0  0  0
    0.8680   -0.4978    0.0000 C   0  0  0  0  0  0  0  0  0  0  0  0
    0.0000    0.0000    0.0000 C   0  0  0  0  0  0  0  0  0  0  0  0
   -0.8653   -0.5013    0.0000 Cl  0  0  0  0  0  0  0  0  0  0  0  0
    2.6938   -0.3125    0.0000 C   0  0  0  0  0  0  0  0  0  0  0  0
    3.2858    0.5023    0.0000 C   0  0  0  0  0  0  0  0  0  0  0  0
    2.6938    1.3169    0.0000 N   0  0  0  0  0  0  0  0  0  0  0  0
    3.0028   -1.2636    0.0000 C   0  0  0  0  0  0  0  0  0  0  0  0
    3.9809   -1.4715    0.0000 C   0  0  0  0  0  0  0  0  0  0  0  0
    4.2899   -2.4226    0.0000 N   0  0  0  0  0  0  0  0  0  0  0  0
    5.2680   -2.6306    0.0000 C   0  0  0  0  0  0  0  0  0  0  0  0
    5.9372   -1.8874    0.0000 O   0  0  0  0  0  0  0  0  0  0  0  0
    5.5770   -3.5816    0.0000 C   0  0  0  0  0  0  0  0  0  0  0  0
    6.5551   -3.7896    0.0000 C   0  0  0  0  0  0  0  0  0  0  0  0
    6.8641   -4.7407    0.0000 N   0  3  0  0  0  0  0  0  0  0  0  0
  1  6  2  0  0  0  0
  1  2  1  0  0  0  0
  2  3  2  0  0  0  0
  3 10  1  0  0  0  0
  3  4  1  0  0  0  0
  4  5  2  0  0  0  0
  5  6  1  0  0  0  0
  6  7  1  0  0  0  0
  4  8  1  0  0  0  0
  8  9  2  0  0  0  0
  9 10  1  0  0  0  0
  8 11  1  0  0  0  0
 11 12  1  0  0  0  0
 12 13  1  0  0  0  0
 13 14  1  0  0  0  0
 14 15  2  0  0  0  0
 14 16  1  0  0  0  0
 16 17  1  0  0  0  0
 17 18  1  0  0  0  0
M  CHG  1  18   1
M  END
$$$$
s_270062____15754776____8147258
  -OEChem-03222016482D

 19 20  0     0  0  0  0  0  0999 V2000
    1.5905   -1.3375    0.0000 C   0  0  0  0  0  0  0  0  0  0  0  0
    2.3336   -2.0067    0.0000 C   0  0  0  0  0  0  0  0  0  0  0  0
    3.0767   -2.6759    0.0000 C   0  0  0  0  0  0  0  0  0  0  0  0
    3.0028   -1.2636    0.0000 C   0  0  0  0  0  0  0  0  0  0  0  0
    2.6938   -0.3125    0.0000 C   0  0  0  0  0  0  0  0  0  0  0  0
    3.2858    0.5023    0.0000 C   0  0  0  0  0  0  0  0  0  0  0  0
    2.6938    1.3169    0.0000 N   0  0  0  0  0  0  0  0  0  0  0  0
    1.7360    1.0058    0.0000 C   0  0  0  0  0  0  0  0  0  0  0  0
    1.7360   -0.0012    0.0000 C   0  0  0  0  0  0  0  0  0  0  0  0
    0.8680   -0.4978    0.0000 C   0  0  0  0  0  0  0  0  0  0  0  0
    0.0000    0.0000    0.0000 C   0  0  0  0  0  0  0  0  0  0  0  0
   -0.0000    1.0058    0.0000 C   0  0  0  0  0  0  0  0  0  0  0  0
    0.8680    1.5138    0.0000 C   0  0  0  0  0  0  0  0  0  0  0  0
   -0.8675    1.5032    0.0000 F   0  0  0  0  0  0  0  0  0  0  0  0
    1.6644   -2.7498    0.0000 N   0  0  0  0  0  0  0  0  0  0  0  0
    1.9734   -3.7009    0.0000 C   0  0  0  0  0  0  0  0  0  0  0  0
    2.9515   -3.9088    0.0000 O   0  0  0  0  0  0  0  0  0  0  0  0
    1.3042   -4.4440    0.0000 C   0  0  0  0  0  0  0  0  0  0  0  0
    1.6132   -5.3951    0.0000 Cl  0  0  0  0  0  0  0  0  0  0  0  0
  1  2  1  0  0  0  0
  2  3  1  0  0  0  0
  2  4  1  0  0  0  0
  4  5  1  0  0  0  0
  5  9  1  0  0  0  0
  5  6  2  0  0  0  0
  6  7  1  0  0  0  0
  7  8  1  0  0  0  0
  8 13  2  0  0  0  0
  8  9  1  0  0  0  0
  9 10  2  0  0  0  0
 10 11  1  0  0  0  0
 11 12  2  0  0  0  0
 12 13  1  0  0  0  0
 12 14  1  0  0  0  0
  2 15  1  0  0  0  0
 15 16  1  0  0  0  0
 16 17  2  0  0  0  0
 16 18  1  0  0  0  0
 18 19  1  0  0  0  0
M  END
$$$$
s_22____4839448____58844
  -OEChem-03222016482D

 17 18  0     0  0  0  0  0  0999 V2000
    5.5770   -3.5816    0.0000 C   0  0  0  0  0  0  0  0  0  0  0  0
    5.2680   -2.6306    0.0000 C   0  0  0  0  0  0  0  0  0  0  0  0
    5.9372   -1.8874    0.0000 O   0  0  0  0  0  0  0  0  0  0  0  0
    4.2899   -2.4226    0.0000 N   0  0  0  0  0  0  0  0  0  0  0  0
    3.9809   -1.4715    0.0000 C   0  0  0  0  0  0  0  0  0  0  0  0
    3.0028   -1.2636    0.0000 C   0  0  0  0  0  0  0  0  0  0  0  0
    2.6938   -0.3125    0.0000 C   0  0  0  0  0  0  0  0  0  0  0  0
    3.2858    0.5023    0.0000 C   0  0  0  0  0  0  0  0  0  0  0  0
    2.6938    1.3169    0.0000 N   0  0  0  0  0  0  0  0  0  0  0  0
    1.7360    1.0058    0.0000 C   0  0  0  0  0  0  0  0  0  0  0  0
    1.7360   -0.0012    0.0000 C   0  0  0  0  0  0  0  0  0  0  0  0
    0.8680   -0.4978    0.0000 C   0  0  0  0  0  0  0  0  0  0  0  0
    0.0000    0.0000    0.0000 C   0  0  0  0  0  0  0  0  0  0  0  0
   -0.0000    1.0058    0.0000 C   0  0  0  0  0  0  0  0  0  0  0  0
    0.8680    1.5138    0.0000 C   0  0  0  0  0  0  0  0  0  0  0  0
   -0.8653   -0.5013    0.0000 O   0  0  0  0  0  0  0  0  0  0  0  0
   -0.8639   -1.5013    0.0000 C   0  0  0  0  0  0  0  0  0  0  0  0
  1  2  1  0  0  0  0
  2  3  2  0  0  0  0
  2  4  1  0  0  0  0
  4  5  1  0  0  0  0
  5  6  1  0  0  0  0
  6  7  1  0  0  0  0
  7 11  1  0  0  0  0
  7  8  2  0  0  0  0
  8  9  1  0  0  0  0
  9 10  1  0  0  0  0
 10 15  2  0  0  0  0
 10 11  1  0  0  0  0
 11 12  2  0  0  0  0
 12 13  1  0  0  0  0
 13 14  2  0  0  0  0
 14 15  1  0  0  0  0
 13 16  1  0  0  0  0
 16 17  1  0  0  0  0
M  END
$$$$
s_22____16720536____7941800
  -OEChem-03222016482D

 17 18  0     0  0  0  0  0  0999 V2000
    0.0000    0.0000    0.0000 C   0  0  0  0  0  0  0  0  0  0  0  0
    0.8680   -0.4978    0.0000 C   0  0  0  0  0  0  0  0  0  0  0  0
    1.7360   -0.0012    0.0000 C   0  0  0  0  0  0  0  0  0  0  0  0
    2.6938   -0.3125    0.0000 C   0  0  0  0  0  0  0  0  0  0  0  0
    3.2858    0.5023    0.0000 C   0  0  0  0  0  0  0  0  0  0  0  0
    2.6938    1.3169    0.0000 N   0  0  0  0  0  0  0  0  0  0  0  0
    1.7360    1.0058    0.0000 C   0  0  0  0  0  0  0  0  0  0  0  0
    0.8680    1.5138    0.0000 C   0  0  0  0  0  0  0  0  0  0  0  0
    0.0000    1.0058    0.0000 C   0  0  0  0  0  0  0  0  0  0  0  0
    0.8680    2.5138    0.0000 Br  0  0  0  0  0  0  0  0  0  0  0  0
    3.0028   -1.2636    0.0000 C   0  0  0  0  0  0  0  0  0  0  0  0
    3.9809   -1.4715    0.0000 C   0  0  0  0  0  0  0  0  0  0  0  0
    4.2899   -2.4226    0.0000 N   0  0  0  0  0  0  0  0  0  0  0  0
    5.2680   -2.6306    0.0000 C   0  0  0  0  0  0  0  0  0  0  0  0
    5.9372   -1.8874    0.0000 O   0  0  0  0  0  0  0  0  0  0  0  0
    5.5770   -3.5816    0.0000 C   0  0  0  0  0  0  0  0  0  0  0  0
    6.5551   -3.7896    0.0000 O   0  0  0  0  0  0  0  0  0  0  0  0
  1  9  2  0  0  0  0
  1  2  1  0  0  0  0
  2  3  2  0  0  0  0
  3  7  1  0  0  0  0
  3  4  1  0  0  0  0
  4  5  2  0  0  0  0
  5  6  1  0  0  0  0
  6  7  1  0  0  0  0
  7  8  2  0  0  0  0
  8  9  1  0  0  0  0
  8 10  1  0  0  0  0
  4 11  1  0  0  0  0
 11 12  1  0  0  0  0
 12 13  1  0  0  0  0
 13 14  1  0  0  0  0
 14 15  2  0  0  0  0
 14 16  1  0  0  0  0
 16 17  1  0  0  0  0
M  END
$$$$
s_240690b____7351080____3025692
  -OEChem-03222016482D

 17 18  0     1  0  0  0  0  0999 V2000
    4.9078   -4.3247    0.0000 C   0  0  0  0  0  0  0  0  0  0  0  0
    5.5770   -3.5816    0.0000 C   0  0  3  0  0  0  0  0  0  0  0  0
    5.2680   -2.6306    0.0000 C   0  0  0  0  0  0  0  0  0  0  0  0
    5.9372   -1.8874    0.0000 O   0  0  0  0  0  0  0  0  0  0  0  0
    4.2899   -2.4226    0.0000 N   0  0  0  0  0  0  0  0  0  0  0  0
    3.9809   -1.4715    0.0000 C   0  0  0  0  0  0  0  0  0  0  0  0
    3.0028   -1.2636    0.0000 C   0  0  0  0  0  0  0  0  0  0  0  0
    2.6938   -0.3125    0.0000 C   0  0  0  0  0  0  0  0  0  0  0  0
    3.2858    0.5023    0.0000 C   0  0  0  0  0  0  0  0  0  0  0  0
    2.6938    1.3169    0.0000 N   0  0  0  0  0  0  0  0  0  0  0  0
    1.7360    1.0058    0.0000 C   0  0  0  0  0  0  0  0  0  0  0  0
    1.7360   -0.0012    0.0000 C   0  0  0  0  0  0  0  0  0  0  0  0
    0.8680   -0.4978    0.0000 C   0  0  0  0  0  0  0  0  0  0  0  0
    0.0000    0.0000    0.0000 C   0  0  0  0  0  0  0  0  0  0  0  0
   -0.0000    1.0058    0.0000 C   0  0  0  0  0  0  0  0  0  0  0  0
    0.8680    1.5138    0.0000 C   0  0  0  0  0  0  0  0  0  0  0  0
    6.5551   -3.7896    0.0000 N   0  3  0  0  0  0  0  0  0  0  0  0
  1  2  1  0  0  0  0
  2  3  1  0  0  0  0
  3  4  2  0  0  0  0
  3  5  1  0  0  0  0
  5  6  1  0  0  0  0
  6  7  1  0  0  0  0
  7  8  1  0  0  0  0
  8 12  1  0  0  0  0
  8  9  2  0  0  0  0
  9 10  1  0  0  0  0
 10 11  1  0  0  0  0
 11 16  2  0  0  0  0
 11 12  1  0  0  0  0
 12 13  2  0  0  0  0
 13 14  1  0  0  0  0
 14 15  2  0  0  0  0
 15 16  1  0  0  0  0
  2 17  1  0  0  0  0
M  CHG  1  17   1
M  END
$$$$
s_22____4839448____2989428
  -OEChem-03222016482D

 20 21  0     0  0  0  0  0  0999 V2000
    1.9222   -6.3461    0.0000 C   0  0  0  0  0  0  0  0  0  0  0  0
    1.6132   -5.3951    0.0000 N   0  3  0  0  0  0  0  0  0  0  0  0
    0.6351   -5.1871    0.0000 C   0  0  0  0  0  0  0  0  0  0  0  0
    2.2824   -4.6519    0.0000 C   0  0  0  0  0  0  0  0  0  0  0  0
    1.9734   -3.7009    0.0000 C   0  0  0  0  0  0  0  0  0  0  0  0
    0.9953   -3.4929    0.0000 O   0  0  0  0  0  0  0  0  0  0  0  0
    2.6426   -2.9578    0.0000 N   0  0  0  0  0  0  0  0  0  0  0  0
    2.3336   -2.0067    0.0000 C   0  0  0  0  0  0  0  0  0  0  0  0
    3.0028   -1.2636    0.0000 C   0  0  0  0  0  0  0  0  0  0  0  0
    2.6938   -0.3125    0.0000 C   0  0  0  0  0  0  0  0  0  0  0  0
    3.2858    0.5023    0.0000 C   0  0  0  0  0  0  0  0  0  0  0  0
    2.6938    1.3169    0.0000 N   0  0  0  0  0  0  0  0  0  0  0  0
    1.7360    1.0058    0.0000 C   0  0  0  0  0  0  0  0  0  0  0  0
    1.7360   -0.0012    0.0000 C   0  0  0  0  0  0  0  0  0  0  0  0
    0.8680   -0.4978    0.0000 C   0  0  0  0  0  0  0  0  0  0  0  0
    0.0000    0.0000    0.0000 C   0  0  0  0  0  0  0  0  0  0  0  0
   -0.0000    1.0058    0.0000 C   0  0  0  0  0  0  0  0  0  0  0  0
    0.8680    1.5138    0.0000 C   0  0  0  0  0  0  0  0  0  0  0  0
   -0.8653   -0.5013    0.0000 O   0  0  0  0  0  0  0  0  0  0  0  0
   -0.8639   -1.5013    0.0000 C   0  0  0  0  0  0  0  0  0  0  0  0
  1  2  1  0  0  0  0
  2  3  1  0  0  0  0
  2  4  1  0  0  0  0
  4  5  1  0  0  0  0
  5  6  2  0  0  0  0
  5  7  1  0  0  0  0
  7  8  1  0  0  0  0
  8  9  1  0  0  0  0
  9 10  1  0  0  0  0
 10 14  1  0  0  0  0
 10 11  2  0  0  0  0
 11 12  1  0  0  0  0
 12 13  1  0  0  0  0
 13 18  2  0  0  0  0
 13 14  1  0  0  0  0
 14 15  2  0  0  0  0
 15 16  1  0  0  0  0
 16 17  2  0  0  0  0
 17 18  1  0  0  0  0
 16 19  1  0  0  0  0
 19 20  1  0  0  0  0
M  CHG  1   2   1
M  END
$$$$
s_512____11946682____13978836
  -OEChem-03222016482D

 21 22  0     0  0  0  0  0  0999 V2000
   -0.8705    2.5032    0.0000 C   0  0  0  0  0  0  0  0  0  0  0  0
   -0.8675    1.5032    0.0000 O   0  0  0  0  0  0  0  0  0  0  0  0
    0.0000    1.0058    0.0000 C   0  0  0  0  0  0  0  0  0  0  0  0
    0.0000    0.0000    0.0000 C   0  0  0  0  0  0  0  0  0  0  0  0
    0.8680   -0.4978    0.0000 C   0  0  0  0  0  0  0  0  0  0  0  0
    1.7360   -0.0012    0.0000 C   0  0  0  0  0  0  0  0  0  0  0  0
    1.7360    1.0058    0.0000 C   0  0  0  0  0  0  0  0  0  0  0  0
    0.8680    1.5138    0.0000 C   0  0  0  0  0  0  0  0  0  0  0  0
    2.6938    1.3169    0.0000 N   0  0  0  0  0  0  0  0  0  0  0  0
    3.2858    0.5023    0.0000 C   0  0  0  0  0  0  0  0  0  0  0  0
    2.6938   -0.3125    0.0000 C   0  0  0  0  0  0  0  0  0  0  0  0
    3.0028   -1.2636    0.0000 C   0  0  0  0  0  0  0  0  0  0  0  0
    3.9809   -1.4715    0.0000 C   0  0  0  0  0  0  0  0  0  0  0  0
    4.2899   -2.4226    0.0000 N   0  0  0  0  0  0  0  0  0  0  0  0
    5.2680   -2.6306    0.0000 C   0  0  0  0  0  0  0  0  0  0  0  0
    5.9372   -1.8874    0.0000 O   0  0  0  0  0  0  0  0  0  0  0  0
    5.5770   -3.5816    0.0000 N   0  0  0  0  0  0  0  0  0  0  0  0
    6.5551   -3.7896    0.0000 C   0  0  0  0  0  0  0  0  0  0  0  0
    6.8641   -4.7407    0.0000 C   0  0  0  0  0  0  0  0  0  0  0  0
    7.8422   -4.9486    0.0000 S   0  0  0  0  0  0  0  0  0  0  0  0
    8.1512   -5.8997    0.0000 C   0  0  0  0  0  0  0  0  0  0  0  0
  1  2  1  0  0  0  0
  2  3  1  0  0  0  0
  3  8  2  0  0  0  0
  3  4  1  0  0  0  0
  4  5  2  0  0  0  0
  5  6  1  0  0  0  0
  6 11  1  0  0  0  0
  6  7  2  0  0  0  0
  7  8  1  0  0  0  0
  7  9  1  0  0  0  0
  9 10  1  0  0  0  0
 10 11  2  0  0  0  0
 11 12  1  0  0  0  0
 12 13  1  0  0  0  0
 13 14  1  0  0  0  0
 14 15  1  0  0  0  0
 15 16  2  0  0  0  0
 15 17  1  0  0  0  0
 17 18  1  0  0  0  0
 18 19  1  0  0  0  0
 19 20  1  0  0  0  0
 20 21  1  0  0  0  0
M  END
$$$$
s_22____13025516____590148
  -OEChem-03222016482D

 21 22  0     0  0  0  0  0  0999 V2000
    0.0012   -1.9973    0.0000 C   0  0  0  0  0  0  0  0  0  0  0  0
    0.8675   -1.4978    0.0000 O   0  0  0  0  0  0  0  0  0  0  0  0
    0.8680   -0.4978    0.0000 C   0  0  0  0  0  0  0  0  0  0  0  0
    0.0000    0.0000    0.0000 C   0  0  0  0  0  0  0  0  0  0  0  0
   -0.0000    1.0058    0.0000 C   0  0  0  0  0  0  0  0  0  0  0  0
    0.8680    1.5138    0.0000 C   0  0  0  0  0  0  0  0  0  0  0  0
    1.7360    1.0058    0.0000 C   0  0  0  0  0  0  0  0  0  0  0  0
    1.7360   -0.0012    0.0000 C   0  0  0  0  0  0  0  0  0  0  0  0
    2.6938   -0.3125    0.0000 C   0  0  0  0  0  0  0  0  0  0  0  0
    3.2858    0.5023    0.0000 C   0  0  0  0  0  0  0  0  0  0  0  0
    2.6938    1.3169    0.0000 N   0  0  0  0  0  0  0  0  0  0  0  0
    3.0028   -1.2636    0.0000 C   0  0  0  0  0  0  0  0  0  0  0  0
    3.9809   -1.4715    0.0000 C   0  0  0  0  0  0  0  0  0  0  0  0
    4.2899   -2.4226    0.0000 N   0  0  0  0  0  0  0  0  0  0  0  0
    5.2680   -2.6306    0.0000 C   0  0  0  0  0  0  0  0  0  0  0  0
    5.9372   -1.8874    0.0000 O   0  0  0  0  0  0  0  0  0  0  0  0
    5.5770   -3.5816    0.0000 C   0  0  0  0  0  0  0  0  0  0  0  0
    6.5551   -3.7896    0.0000 C   0  0  0  0  0  0  0  0  0  0  0  0
    7.2243   -3.0465    0.0000 O   0  0  0  0  0  0  0  0  0  0  0  0
    6.8641   -4.7407    0.0000 O   0  0  0  0  0  0  0  0  0  0  0  0
    7.8422   -4.9486    0.0000 C   0  0  0  0  0  0  0  0  0  0  0  0
  1  2  1  0  0  0  0
  2  3  1  0  0  0  0
  3  8  2  0  0  0  0
  3  4  1  0  0  0  0
  4  5  2  0  0  0  0
  5  6  1  0  0  0  0
  6  7  2  0  0  0  0
  7 11  1  0  0  0  0
  7  8  1  0  0  0  0
  8  9  1  0  0  0  0
  9 10  2  0  0  0  0
 10 11  1  0  0  0  0
  9 12  1  0  0  0  0
 12 13  1  0  0  0  0
 13 14  1  0  0  0  0
 14 15  1  0  0  0  0
 15 16  2  0  0  0  0
 15 17  1  0  0  0  0
 17 18  1  0  0  0  0
 18 19  2  0  0  0  0
 18 20  1  0  0  0  0
 20 21  1  0  0  0  0
M  END
$$$$
s_22____13978824____59039
  -OEChem-03222016482D

 19 20  0     0  0  0  0  0  0999 V2000
    6.8641   -4.7407    0.0000 C   0  0  0  0  0  0  0  0  0  0  0  0
    6.5551   -3.7896    0.0000 O   0  0  0  0  0  0  0  0  0  0  0  0
    5.5770   -3.5816    0.0000 C   0  0  0  0  0  0  0  0  0  0  0  0
    5.2680   -2.6306    0.0000 C   0  0  0  0  0  0  0  0  0  0  0  0
    5.9372   -1.8874    0.0000 O   0  0  0  0  0  0  0  0  0  0  0  0
    4.2899   -2.4226    0.0000 N   0  0  0  0  0  0  0  0  0  0  0  0
    3.9809   -1.4715    0.0000 C   0  0  0  0  0  0  0  0  0  0  0  0
    3.0028   -1.2636    0.0000 C   0  0  0  0  0  0  0  0  0  0  0  0
    2.6938   -0.3125    0.0000 C   0  0  0  0  0  0  0  0  0  0  0  0
    3.2858    0.5023    0.0000 C   0  0  0  0  0  0  0  0  0  0  0  0
    2.6938    1.3169    0.0000 N   0  0  0  0  0  0  0  0  0  0  0  0
    1.7360    1.0058    0.0000 C   0  0  0  0  0  0  0  0  0  0  0  0
    1.7360   -0.0012    0.0000 C   0  0  0  0  0  0  0  0  0  0  0  0
    0.8680   -0.4978    0.0000 C   0  0  0  0  0  0  0  0  0  0  0  0
    0.0000    0.0000    0.0000 C   0  0  0  0  0  0  0  0  0  0  0  0
   -0.0000    1.0058    0.0000 C   0  0  0  0  0  0  0  0  0  0  0  0
    0.8680    1.5138    0.0000 C   0  0  0  0  0  0  0  0  0  0  0  0
   -0.8675    1.5032    0.0000 O   0  0  0  0  0  0  0  0  0  0  0  0
   -1.7320    1.0007    0.0000 C   0  0  0  0  0  0  0  0  0  0  0  0
  1  2  1  0  0  0  0
  2  3  1  0  0  0  0
  3  4  1  0  0  0  0
  4  5  2  0  0  0  0
  4  6  1  0  0  0  0
  6  7  1  0  0  0  0
  7  8  1  0  0  0  0
  8  9  1  0  0  0  0
  9 13  1  0  0  0  0
  9 10  2  0  0  0  0
 10 11  1  0  0  0  0
 11 12  1  0  0  0  0
 12 17  2  0  0  0  0
 12 13  1  0  0  0  0
 13 14  2  0  0  0  0
 14 15  1  0  0  0  0
 15 16  2  0  0  0  0
 16 17  1  0  0  0  0
 16 18  1  0  0  0  0
 18 19  1  0  0  0  0
M  END
$$$$
s_270062____7616166____8147258
  -OEChem-03222016482D

 18 19  0     0  0  0  0  0  0999 V2000
    1.7340    3.0138    0.0000 C   0  0  0  0  0  0  0  0  0  0  0  0
    0.8680    2.5138    0.0000 C   0  0  0  0  0  0  0  0  0  0  0  0
    0.8680    1.5138    0.0000 C   0  0  0  0  0  0  0  0  0  0  0  0
    0.0000    1.0058    0.0000 C   0  0  0  0  0  0  0  0  0  0  0  0
    0.0000    0.0000    0.0000 C   0  0  0  0  0  0  0  0  0  0  0  0
    0.8680   -0.4978    0.0000 C   0  0  0  0  0  0  0  0  0  0  0  0
    1.7360   -0.0012    0.0000 C   0  0  0  0  0  0  0  0  0  0  0  0
    1.7360    1.0058    0.0000 C   0  0  0  0  0  0  0  0  0  0  0  0
    2.6938    1.3169    0.0000 N   0  0  0  0  0  0  0  0  0  0  0  0
    3.2858    0.5023    0.0000 C   0  0  0  0  0  0  0  0  0  0  0  0
    2.6938   -0.3125    0.0000 C   0  0  0  0  0  0  0  0  0  0  0  0
    3.0028   -1.2636    0.0000 C   0  0  0  0  0  0  0  0  0  0  0  0
    3.9809   -1.4715    0.0000 C   0  0  0  0  0  0  0  0  0  0  0  0
    4.2899   -2.4226    0.0000 N   0  0  0  0  0  0  0  0  0  0  0  0
    5.2680   -2.6306    0.0000 C   0  0  0  0  0  0  0  0  0  0  0  0
    5.9372   -1.8874    0.0000 O   0  0  0  0  0  0  0  0  0  0  0  0
    5.5770   -3.5816    0.0000 C   0  0  0  0  0  0  0  0  0  0  0  0
    6.5551   -3.7896    0.0000 Cl  0  0  0  0  0  0  0  0  0  0  0  0
  1  2  1  0  0  0  0
  2  3  1  0  0  0  0
  3  8  2  0  0  0  0
  3  4  1  0  0  0  0
  4  5  2  0  0  0  0
  5  6  1  0  0  0  0
  6  7  2  0  0  0  0
  7 11  1  0  0  0  0
  7  8  1  0  0  0  0
  8  9  1  0  0  0  0
  9 10  1  0  0  0  0
 10 11  2  0  0  0  0
 11 12  1  0  0  0  0
 12 13  1  0  0  0  0
 13 14  1  0  0  0  0
 14 15  1  0  0  0  0
 15 16  2  0  0  0  0
 15 17  1  0  0  0  0
 17 18  1  0  0  0  0
M  END
$$$$
s_512____13448004____15506628
  -OEChem-03222016482D

 21 22  0     0  0  0  0  0  0999 V2000
    1.7340    3.0138    0.0000 C   0  0  0  0  0  0  0  0  0  0  0  0
    0.8680    2.5138    0.0000 O   0  0  0  0  0  0  0  0  0  0  0  0
    0.8680    1.5138    0.0000 C   0  0  0  0  0  0  0  0  0  0  0  0
    0.0000    1.0058    0.0000 C   0  0  0  0  0  0  0  0  0  0  0  0
    0.0000    0.0000    0.0000 C   0  0  0  0  0  0  0  0  0  0  0  0
    0.8680   -0.4978    0.0000 C   0  0  0  0  0  0  0  0  0  0  0  0
    1.7360   -0.0012    0.0000 C   0  0  0  0  0  0  0  0  0  0  0  0
    1.7360    1.0058    0.0000 C   0  0  0  0  0  0  0  0  0  0  0  0
    2.6938    1.3169    0.0000 N   0  0  0  0  0  0  0  0  0  0  0  0
    3.2858    0.5023    0.0000 C   0  0  0  0  0  0  0  0  0  0  0  0
    2.6938   -0.3125    0.0000 C   0  0  0  0  0  0  0  0  0  0  0  0
    3.0028   -1.2636    0.0000 C   0  0  0  0  0  0  0  0  0  0  0  0
    3.9809   -1.4715    0.0000 C   0  0  0  0  0  0  0  0  0  0  0  0
    4.2899   -2.4226    0.0000 N   0  0  0  0  0  0  0  0  0  0  0  0
    5.2680   -2.6306    0.0000 C   0  0  0  0  0  0  0  0  0  0  0  0
    5.9372   -1.8874    0.0000 O   0  0  0  0  0  0  0  0  0  0  0  0
    5.5770   -3.5816    0.0000 N   0  0  0  0  0  0  0  0  0  0  0  0
    6.5551   -3.7896    0.0000 C   0  0  0  0  0  0  0  0  0  0  0  0
    6.8641   -4.7407    0.0000 C   0  0  0  0  0  0  0  0  0  0  0  0
    7.8422   -4.9486    0.0000 C   0  0  0  0  0  0  0  0  0  0  0  0
    8.1512   -5.8997    0.0000 Cl  0  0  0  0  0  0  0  0  0  0  0  0
  1  2  1  0  0  0  0
  2  3  1  0  0  0  0
  3  8  2  0  0  0  0
  3  4  1  0  0  0  0
  4  5  2  0  0  0  0
  5  6  1  0  0  0  0
  6  7  2  0  0  0  0
  7 11  1  0  0  0  0
  7  8  1  0  0  0  0
  8  9  1  0  0  0  0
  9 10  1  0  0  0  0
 10 11  2  0  0  0  0
 11 12  1  0  0  0  0
 12 13  1  0  0  0  0
 13 14  1  0  0  0  0
 14 15  1  0  0  0  0
 15 16  2  0  0  0  0
 15 17  1  0  0  0  0
 17 18  1  0  0  0  0
 18 19  1  0  0  0  0
 19 20  2  3  0  0  0
 20 21  1  0  0  0  0
M  END
$$$$
s_2554____15561754____951600
  -OEChem-03222016482D

 21 22  0     0  0  0  0  0  0999 V2000
    0.9440   -6.1382    0.0000 C   0  0  0  0  0  0  0  0  0  0  0  0
    1.6132   -5.3951    0.0000 C   0  0  0  0  0  0  0  0  0  0  0  0
    1.3042   -4.4440    0.0000 N   0  0  0  0  0  0  0  0  0  0  0  0
    1.9734   -3.7009    0.0000 C   0  0  0  0  0  0  0  0  0  0  0  0
    2.9515   -3.9088    0.0000 O   0  0  0  0  0  0  0  0  0  0  0  0
    1.6644   -2.7498    0.0000 N   0  0  0  0  0  0  0  0  0  0  0  0
    2.3336   -2.0067    0.0000 C   0  0  0  0  0  0  0  0  0  0  0  0
    1.5905   -1.3375    0.0000 C   0  0  0  0  0  0  0  0  0  0  0  0
    3.0767   -2.6759    0.0000 C   0  0  0  0  0  0  0  0  0  0  0  0
    3.0028   -1.2636    0.0000 C   0  0  0  0  0  0  0  0  0  0  0  0
    2.6938   -0.3125    0.0000 C   0  0  0  0  0  0  0  0  0  0  0  0
    3.2858    0.5023    0.0000 C   0  0  0  0  0  0  0  0  0  0  0  0
    2.6938    1.3169    0.0000 N   0  0  0  0  0  0  0  0  0  0  0  0
    1.7360    1.0058    0.0000 C   0  0  0  0  0  0  0  0  0  0  0  0
    1.7360   -0.0012    0.0000 C   0  0  0  0  0  0  0  0  0  0  0  0
    0.8680   -0.4978    0.0000 C   0  0  0  0  0  0  0  0  0  0  0  0
    0.0000    0.0000    0.0000 C   0  0  0  0  0  0  0  0  0  0  0  0
   -0.0000    1.0058    0.0000 C   0  0  0  0  0  0  0  0  0  0  0  0
    0.8680    1.5138    0.0000 C   0  0  0  0  0  0  0  0  0  0  0  0
   -0.8675    1.5032    0.0000 O   0  0  0  0  0  0  0  0  0  0  0  0
   -1.7320    1.0007    0.0000 C   0  0  0  0  0  0  0  0  0  0  0  0
  1  2  1  0  0  0  0
  2  3  1  0  0  0  0
  3  4  1  0  0  0  0
  4  5  2  0  0  0  0
  4  6  1  0  0  0  0
  6  7  1  0  0  0  0
  7  8  1  0  0  0  0
  7  9  1  0  0  0  0
  7 10  1  0  0  0  0
 10 11  1  0  0  0  0
 11 15  1  0  0  0  0
 11 12  2  0  0  0  0
 12 13  1  0  0  0  0
 13 14  1  0  0  0  0
 14 19  2  0  0  0  0
 14 15  1  0  0  0  0
 15 16  2  0  0  0  0
 16 17  1  0  0  0  0
 17 18  2  0  0  0  0
 18 19  1  0  0  0  0
 18 20  1  0  0  0  0
 20 21  1  0  0  0  0
M  END
$$$$
s_240690b____16720624____7368582
  -OEChem-03222016482D

 18 19  0     0  0  0  0  0  0999 V2000
    6.8641   -4.7407    0.0000 C   0  0  0  0  0  0  0  0  0  0  0  0
    6.5551   -3.7896    0.0000 N   0  3  0  0  0  0  0  0  0  0  0  0
    5.5770   -3.5816    0.0000 C   0  0  0  0  0  0  0  0  0  0  0  0
    5.2680   -2.6306    0.0000 C   0  0  0  0  0  0  0  0  0  0  0  0
    5.9372   -1.8874    0.0000 O   0  0  0  0  0  0  0  0  0  0  0  0
    4.2899   -2.4226    0.0000 N   0  0  0  0  0  0  0  0  0  0  0  0
    3.9809   -1.4715    0.0000 C   0  0  0  0  0  0  0  0  0  0  0  0
    3.0028   -1.2636    0.0000 C   0  0  0  0  0  0  0  0  0  0  0  0
    2.6938   -0.3125    0.0000 C   0  0  0  0  0  0  0  0  0  0  0  0
    3.2858    0.5023    0.0000 C   0  0  0  0  0  0  0  0  0  0  0  0
    2.6938    1.3169    0.0000 N   0  0  0  0  0  0  0  0  0  0  0  0
    1.7360    1.0058    0.0000 C   0  0  0  0  0  0  0  0  0  0  0  0
    1.7360   -0.0012    0.0000 C   0  0  0  0  0  0  0  0  0  0  0  0
    0.8680   -0.4978    0.0000 C   0  0  0  0  0  0  0  0  0  0  0  0
    0.0000    0.0000    0.0000 C   0  0  0  0  0  0  0  0  0  0  0  0
   -0.0000    1.0058    0.0000 C   0  0  0  0  0  0  0  0  0  0  0  0
    0.8680    1.5138    0.0000 C   0  0  0  0  0  0  0  0  0  0  0  0
    0.8680    2.5138    0.0000 Br  0  0  0  0  0  0  0  0  0  0  0  0
  1  2  1  0  0  0  0
  2  3  1  0  0  0  0
  3  4  1  0  0  0  0
  4  5  2  0  0  0  0
  4  6  1  0  0  0  0
  6  7  1  0  0  0  0
  7  8  1  0  0  0  0
  8  9  1  0  0  0  0
  9 13  1  0  0  0  0
  9 10  2  0  0  0  0
 10 11  1  0  0  0  0
 11 12  1  0  0  0  0
 12 17  2  0  0  0  0
 12 13  1  0  0  0  0
 13 14  2  0  0  0  0
 14 15  1  0  0  0  0
 15 16  2  0  0  0  0
 16 17  1  0  0  0  0
 17 18  1  0  0  0  0
M  CHG  1   2   1
M  END
$$$$
s_22____15506616____17543248
  -OEChem-03222016482D

 19 20  0     0  0  0  0  0  0999 V2000
    1.7340    3.0138    0.0000 C   0  0  0  0  0  0  0  0  0  0  0  0
    0.8680    2.5138    0.0000 O   0  0  0  0  0  0  0  0  0  0  0  0
    0.8680    1.5138    0.0000 C   0  0  0  0  0  0  0  0  0  0  0  0
    0.0000    1.0058    0.0000 C   0  0  0  0  0  0  0  0  0  0  0  0
    0.0000    0.0000    0.0000 C   0  0  0  0  0  0  0  0  0  0  0  0
    0.8680   -0.4978    0.0000 C   0  0  0  0  0  0  0  0  0  0  0  0
    1.7360   -0.0012    0.0000 C   0  0  0  0  0  0  0  0  0  0  0  0
    1.7360    1.0058    0.0000 C   0  0  0  0  0  0  0  0  0  0  0  0
    2.6938    1.3169    0.0000 N   0  0  0  0  0  0  0  0  0  0  0  0
    3.2858    0.5023    0.0000 C   0  0  0  0  0  0  0  0  0  0  0  0
    2.6938   -0.3125    0.0000 C   0  0  0  0  0  0  0  0  0  0  0  0
    3.0028   -1.2636    0.0000 C   0  0  0  0  0  0  0  0  0  0  0  0
    3.9809   -1.4715    0.0000 C   0  0  0  0  0  0  0  0  0  0  0  0
    4.2899   -2.4226    0.0000 N   0  0  0  0  0  0  0  0  0  0  0  0
    5.2680   -2.6306    0.0000 C   0  0  0  0  0  0  0  0  0  0  0  0
    5.9372   -1.8874    0.0000 O   0  0  0  0  0  0  0  0  0  0  0  0
    5.5770   -3.5816    0.0000 C   0  0  0  0  0  0  0  0  0  0  0  0
    6.5551   -3.7896    0.0000 C   0  0  0  0  0  0  0  0  0  0  0  0
    7.5333   -3.9976    0.0000 C   0  0  0  0  0  0  0  0  0  0  0  0
  1  2  1  0  0  0  0
  2  3  1  0  0  0  0
  3  8  2  0  0  0  0
  3  4  1  0  0  0  0
  4  5  2  0  0  0  0
  5  6  1  0  0  0  0
  6  7  2  0  0  0  0
  7 11  1  0  0  0  0
  7  8  1  0  0  0  0
  8  9  1  0  0  0  0
  9 10  1  0  0  0  0
 10 11  2  0  0  0  0
 11 12  1  0  0  0  0
 12 13  1  0  0  0  0
 13 14  1  0  0  0  0
 14 15  1  0  0  0  0
 15 16  2  0  0  0  0
 15 17  1  0  0  0  0
 17 18  2  0  0  0  0
 18 19  2  0  0  0  0
M  END
$$$$
s_22____16900452____60364
  -OEChem-03222016482D

 18 19  0     0  0  0  0  0  0999 V2000
    6.8641   -4.7407    0.0000 C   0  0  0  0  0  0  0  0  0  0  0  0
    6.5551   -3.7896    0.0000 S   0  0  0  0  0  0  0  0  0  0  0  0
    5.5770   -3.5816    0.0000 C   0  0  0  0  0  0  0  0  0  0  0  0
    5.2680   -2.6306    0.0000 C   0  0  0  0  0  0  0  0  0  0  0  0
    5.9372   -1.8874    0.0000 O   0  0  0  0  0  0  0  0  0  0  0  0
    4.2899   -2.4226    0.0000 N   0  0  0  0  0  0  0  0  0  0  0  0
    3.9809   -1.4715    0.0000 C   0  0  0  0  0  0  0  0  0  0  0  0
    3.0028   -1.2636    0.0000 C   0  0  0  0  0  0  0  0  0  0  0  0
    2.6938   -0.3125    0.0000 C   0  0  0  0  0  0  0  0  0  0  0  0
    3.2858    0.5023    0.0000 C   0  0  0  0  0  0  0  0  0  0  0  0
    2.6938    1.3169    0.0000 N   0  0  0  0  0  0  0  0  0  0  0  0
    1.7360    1.0058    0.0000 C   0  0  0  0  0  0  0  0  0  0  0  0
    1.7360   -0.0012    0.0000 C   0  0  0  0  0  0  0  0  0  0  0  0
    0.8680   -0.4978    0.0000 C   0  0  0  0  0  0  0  0  0  0  0  0
    0.0000    0.0000    0.0000 C   0  0  0  0  0  0  0  0  0  0  0  0
   -0.0000    1.0058    0.0000 C   0  0  0  0  0  0  0  0  0  0  0  0
    0.8680    1.5138    0.0000 C   0  0  0  0  0  0  0  0  0  0  0  0
    0.8675   -1.4978    0.0000 F   0  0  0  0  0  0  0  0  0  0  0  0
  1  2  1  0  0  0  0
  2  3  1  0  0  0  0
  3  4  1  0  0  0  0
  4  5  2  0  0  0  0
  4  6  1  0  0  0  0
  6  7  1  0  0  0  0
  7  8  1  0  0  0  0
  8  9  1  0  0  0  0
  9 13  1  0  0  0  0
  9 10  2  0  0  0  0
 10 11  1  0  0  0  0
 11 12  1  0  0  0  0
 12 17  2  0  0  0  0
 12 13  1  0  0  0  0
 13 14  2  0  0  0  0
 14 15  1  0  0  0  0
 15 16  2  0  0  0  0
 16 17  1  0  0  0  0
 14 18  1  0  0  0  0
M  END
$$$$
s_240690b____7362722____3025680
  -OEChem-03222016482D

 18 19  0     0  0  0  0  0  0999 V2000
    0.8675   -1.4978    0.0000 C   0  0  0  0  0  0  0  0  0  0  0  0
    0.8680   -0.4978    0.0000 C   0  0  0  0  0  0  0  0  0  0  0  0
    0.0000    0.0000    0.0000 C   0  0  0  0  0  0  0  0  0  0  0  0
   -0.0000    1.0058    0.0000 C   0  0  0  0  0  0  0  0  0  0  0  0
    0.8680    1.5138    0.0000 C   0  0  0  0  0  0  0  0  0  0  0  0
    1.7360    1.0058    0.0000 C   0  0  0  0  0  0  0  0  0  0  0  0
    1.7360   -0.0012    0.0000 C   0  0  0  0  0  0  0  0  0  0  0  0
    2.6938   -0.3125    0.0000 C   0  0  0  0  0  0  0  0  0  0  0  0
    3.2858    0.5023    0.0000 C   0  0  0  0  0  0  0  0  0  0  0  0
    2.6938    1.3169    0.0000 N   0  0  0  0  0  0  0  0  0  0  0  0
    3.0028   -1.2636    0.0000 C   0  0  0  0  0  0  0  0  0  0  0  0
    3.9809   -1.4715    0.0000 C   0  0  0  0  0  0  0  0  0  0  0  0
    4.2899   -2.4226    0.0000 N   0  0  0  0  0  0  0  0  0  0  0  0
    5.2680   -2.6306    0.0000 C   0  0  0  0  0  0  0  0  0  0  0  0
    5.9372   -1.8874    0.0000 O   0  0  0  0  0  0  0  0  0  0  0  0
    5.5770   -3.5816    0.0000 C   0  0  0  0  0  0  0  0  0  0  0  0
    6.5551   -3.7896    0.0000 C   0  0  0  0  0  0  0  0  0  0  0  0
    6.8641   -4.7407    0.0000 N   0  3  0  0  0  0  0  0  0  0  0  0
  1  2  1  0  0  0  0
  2  7  2  0  0  0  0
  2  3  1  0  0  0  0
  3  4  2  0  0  0  0
  4  5  1  0  0  0  0
  5  6  2  0  0  0  0
  6 10  1  0  0  0  0
  6  7  1  0  0  0  0
  7  8  1  0  0  0  0
  8  9  2  0  0  0  0
  9 10  1  0  0  0  0
  8 11  1  0  0  0  0
 11 12  1  0  0  0  0
 12 13  1  0  0  0  0
 13 14  1  0  0  0  0
 14 15  2  0  0  0  0
 14 16  1  0  0  0  0
 16 17  1  0  0  0  0
 17 18  1  0  0  0  0
M  CHG  1  18   1
M  END
$$$$
s_22____13596594____7941800
  -OEChem-03222016482D

 16 17  0     0  0  0  0  0  0999 V2000
    0.0000    0.0000    0.0000 C   0  0  0  0  0  0  0  0  0  0  0  0
    0.8675   -0.4975    0.0000 C   0  0  0  0  0  0  0  0  0  0  0  0
    1.7405    0.0044    0.0000 C   0  0  0  0  0  0  0  0  0  0  0  0
    2.6940   -0.2997    0.0000 C   0  0  0  0  0  0  0  0  0  0  0  0
    3.2780    0.5133    0.0000 C   0  0  0  0  0  0  0  0  0  0  0  0
    2.6851    1.3196    0.0000 N   0  0  0  0  0  0  0  0  0  0  0  0
    1.7350    1.0052    0.0000 C   0  0  0  0  0  0  0  0  0  0  0  0
    0.8675    1.5129    0.0000 N   0  0  0  0  0  0  0  0  0  0  0  0
    0.0000    1.0052    0.0000 C   0  0  0  0  0  0  0  0  0  0  0  0
    3.0082   -1.2491    0.0000 C   0  0  0  0  0  0  0  0  0  0  0  0
    3.9874   -1.4517    0.0000 C   0  0  0  0  0  0  0  0  0  0  0  0
    4.3016   -2.4011    0.0000 N   0  0  0  0  0  0  0  0  0  0  0  0
    5.2808   -2.6037    0.0000 C   0  0  0  0  0  0  0  0  0  0  0  0
    5.9459   -1.8569    0.0000 O   0  0  0  0  0  0  0  0  0  0  0  0
    5.5950   -3.5530    0.0000 C   0  0  0  0  0  0  0  0  0  0  0  0
    6.5743   -3.7557    0.0000 O   0  0  0  0  0  0  0  0  0  0  0  0
  1  9  2  0  0  0  0
  1  2  1  0  0  0  0
  2  3  2  0  0  0  0
  3  7  1  0  0  0  0
  3  4  1  0  0  0  0
  4  5  2  0  0  0  0
  5  6  1  0  0  0  0
  6  7  1  0  0  0  0
  7  8  2  0  0  0  0
  8  9  1  0  0  0  0
  4 10  1  0  0  0  0
 10 11  1  0  0  0  0
 11 12  1  0  0  0  0
 12 13  1  0  0  0  0
 13 14  2  0  0  0  0
 13 15  1  0  0  0  0
 15 16  1  0  0  0  0
M  END
$$$$
s_22____13913040____58844
  -OEChem-03222016482D

 17 18  0     1  0  0  0  0  0999 V2000
    1.3555   -1.7987    0.0000 C   0  0  0  0  0  0  0  0  0  0  0  0
    2.3336   -2.0067    0.0000 C   0  0  3  0  0  0  0  0  0  0  0  0
    3.0028   -1.2636    0.0000 C   0  0  0  0  0  0  0  0  0  0  0  0
    2.6938   -0.3125    0.0000 C   0  0  0  0  0  0  0  0  0  0  0  0
    3.2858    0.5023    0.0000 C   0  0  0  0  0  0  0  0  0  0  0  0
    2.6938    1.3169    0.0000 N   0  0  0  0  0  0  0  0  0  0  0  0
    1.7360    1.0058    0.0000 C   0  0  0  0  0  0  0  0  0  0  0  0
    1.7360   -0.0012    0.0000 C   0  0  0  0  0  0  0  0  0  0  0  0
    0.8680   -0.4978    0.0000 C   0  0  0  0  0  0  0  0  0  0  0  0
    0.0000    0.0000    0.0000 C   0  0  0  0  0  0  0  0  0  0  0  0
   -0.0000    1.0058    0.0000 C   0  0  0  0  0  0  0  0  0  0  0  0
    0.8680    1.5138    0.0000 C   0  0  0  0  0  0  0  0  0  0  0  0
   -0.8653   -0.5013    0.0000 F   0  0  0  0  0  0  0  0  0  0  0  0
    2.6426   -2.9578    0.0000 N   0  0  0  0  0  0  0  0  0  0  0  0
    1.9734   -3.7009    0.0000 C   0  0  0  0  0  0  0  0  0  0  0  0
    0.9953   -3.4929    0.0000 O   0  0  0  0  0  0  0  0  0  0  0  0
    2.2824   -4.6519    0.0000 C   0  0  0  0  0  0  0  0  0  0  0  0
  1  2  1  0  0  0  0
  2  3  1  0  0  0  0
  3  4  1  0  0  0  0
  4  8  1  0  0  0  0
  4  5  2  0  0  0  0
  5  6  1  0  0  0  0
  6  7  1  0  0  0  0
  7 12  2  0  0  0  0
  7  8  1  0  0  0  0
  8  9  2  0  0  0  0
  9 10  1  0  0  0  0
 10 11  2  0  0  0  0
 11 12  1  0  0  0  0
 10 13  1  0  0  0  0
  2 14  1  0  0  0  0
 14 15  1  0  0  0  0
 15 16  2  0  0  0  0
 15 17  1  0  0  0  0
M  END
$$$$
s_22____13570824____59039
  -OEChem-03222016482D

 18 19  0     0  0  0  0  0  0999 V2000
    5.9988   -4.2477    0.0000 C   0  0  0  0  0  0  0  0  0  0  0  0
    5.6909   -3.2963    0.0000 O   0  0  0  0  0  0  0  0  0  0  0  0
    4.7129   -3.0873    0.0000 C   0  0  0  0  0  0  0  0  0  0  0  0
    4.4050   -2.1359    0.0000 C   0  0  0  0  0  0  0  0  0  0  0  0
    5.0749   -1.3935    0.0000 O   0  0  0  0  0  0  0  0  0  0  0  0
    3.4271   -1.9269    0.0000 N   0  0  0  0  0  0  0  0  0  0  0  0
    3.1191   -0.9755    0.0000 C   0  0  0  0  0  0  0  0  0  0  0  0
    2.1412   -0.7665    0.0000 C   0  0  0  0  0  0  0  0  0  0  0  0
    1.8332    0.1849    0.0000 C   0  0  0  0  0  0  0  0  0  0  0  0
    2.4247    0.9971    0.0000 C   0  0  0  0  0  0  0  0  0  0  0  0
    1.8349    1.8105    0.0000 N   0  0  0  0  0  0  0  0  0  0  0  0
    0.8791    1.5011    0.0000 C   0  0  0  0  0  0  0  0  0  0  0  0
    0.8780    0.4964    0.0000 C   0  0  0  0  0  0  0  0  0  0  0  0
    0.0000    0.0000    0.0000 C   0  0  0  0  0  0  0  0  0  0  0  0
   -0.8635    0.5043    0.0000 C   0  0  0  0  0  0  0  0  0  0  0  0
   -0.8584    1.5098    0.0000 N   0  0  0  0  0  0  0  0  0  0  0  0
    0.0101    2.0110    0.0000 C   0  0  0  0  0  0  0  0  0  0  0  0
   -1.7320    0.0087    0.0000 Cl  0  0  0  0  0  0  0  0  0  0  0  0
  1  2  1  0  0  0  0
  2  3  1  0  0  0  0
  3  4  1  0  0  0  0
  4  5  2  0  0  0  0
  4  6  1  0  0  0  0
  6  7  1  0  0  0  0
  7  8  1  0  0  0  0
  8  9  1  0  0  0  0
  9 13  1  0  0  0  0
  9 10  2  0  0  0  0
 10 11  1  0  0  0  0
 11 12  1  0  0  0  0
 12 17  2  0  0  0  0
 12 13  1  0  0  0  0
 13 14  2  0  0  0  0
 14 15  1  0  0  0  0
 15 16  2  0  0  0  0
 16 17  1  0  0  0  0
 15 18  1  0  0  0  0
M  END
$$$$
s_22____15506616____4832482
  -OEChem-03222016482D

 20 21  0     1  0  0  0  0  0999 V2000
    3.2605   -4.8599    0.0000 C   0  0  0  0  0  0  0  0  0  0  0  0
    2.2824   -4.6519    0.0000 C   0  0  3  0  0  0  0  0  0  0  0  0
    1.6132   -5.3951    0.0000 C   0  0  0  0  0  0  0  0  0  0  0  0
    0.9440   -6.1382    0.0000 N   0  0  0  0  0  0  0  0  0  0  0  0
    1.9734   -3.7009    0.0000 C   0  0  0  0  0  0  0  0  0  0  0  0
    0.9953   -3.4929    0.0000 O   0  0  0  0  0  0  0  0  0  0  0  0
    2.6426   -2.9578    0.0000 N   0  0  0  0  0  0  0  0  0  0  0  0
    2.3336   -2.0067    0.0000 C   0  0  0  0  0  0  0  0  0  0  0  0
    3.0028   -1.2636    0.0000 C   0  0  0  0  0  0  0  0  0  0  0  0
    2.6938   -0.3125    0.0000 C   0  0  0  0  0  0  0  0  0  0  0  0
    3.2858    0.5023    0.0000 C   0  0  0  0  0  0  0  0  0  0  0  0
    2.6938    1.3169    0.0000 N   0  0  0  0  0  0  0  0  0  0  0  0
    1.7360    1.0058    0.0000 C   0  0  0  0  0  0  0  0  0  0  0  0
    1.7360   -0.0012    0.0000 C   0  0  0  0  0  0  0  0  0  0  0  0
    0.8680   -0.4978    0.0000 C   0  0  0  0  0  0  0  0  0  0  0  0
    0.0000    0.0000    0.0000 C   0  0  0  0  0  0  0  0  0  0  0  0
   -0.0000    1.0058    0.0000 C   0  0  0  0  0  0  0  0  0  0  0  0
    0.8680    1.5138    0.0000 C   0  0  0  0  0  0  0  0  0  0  0  0
    0.8680    2.5138    0.0000 O   0  0  0  0  0  0  0  0  0  0  0  0
    0.0020    3.0138    0.0000 C   0  0  0  0  0  0  0  0  0  0  0  0
  1  2  1  0  0  0  0
  2  3  1  0  0  0  0
  3  4  3  0  0  0  0
  2  5  1  0  0  0  0
  5  6  2  0  0  0  0
  5  7  1  0  0  0  0
  7  8  1  0  0  0  0
  8  9  1  0  0  0  0
  9 10  1  0  0  0  0
 10 14  1  0  0  0  0
 10 11  2  0  0  0  0
 11 12  1  0  0  0  0
 12 13  1  0  0  0  0
 13 18  2  0  0  0  0
 13 14  1  0  0  0  0
 14 15  2  0  0  0  0
 15 16  1  0  0  0  0
 16 17  2  0  0  0  0
 17 18  1  0  0  0  0
 18 19  1  0  0  0  0
 19 20  1  0  0  0  0
M  END
$$$$
s_240690b____13978894____7368688
  -OEChem-03222016482D

 21 22  0     0  0  0  0  0  0999 V2000
    2.3563   -6.0642    0.0000 C   0  0  0  0  0  0  0  0  0  0  0  0
    1.6132   -5.3951    0.0000 C   0  0  0  0  0  0  0  0  0  0  0  0
    0.9440   -6.1382    0.0000 C   0  0  0  0  0  0  0  0  0  0  0  0
    2.2824   -4.6519    0.0000 C   0  0  0  0  0  0  0  0  0  0  0  0
    1.9734   -3.7009    0.0000 C   0  0  0  0  0  0  0  0  0  0  0  0
    0.9953   -3.4929    0.0000 O   0  0  0  0  0  0  0  0  0  0  0  0
    2.6426   -2.9578    0.0000 N   0  0  0  0  0  0  0  0  0  0  0  0
    2.3336   -2.0067    0.0000 C   0  0  0  0  0  0  0  0  0  0  0  0
    3.0028   -1.2636    0.0000 C   0  0  0  0  0  0  0  0  0  0  0  0
    2.6938   -0.3125    0.0000 C   0  0  0  0  0  0  0  0  0  0  0  0
    3.2858    0.5023    0.0000 C   0  0  0  0  0  0  0  0  0  0  0  0
    2.6938    1.3169    0.0000 N   0  0  0  0  0  0  0  0  0  0  0  0
    1.7360    1.0058    0.0000 C   0  0  0  0  0  0  0  0  0  0  0  0
    1.7360   -0.0012    0.0000 C   0  0  0  0  0  0  0  0  0  0  0  0
    0.8680   -0.4978    0.0000 C   0  0  0  0  0  0  0  0  0  0  0  0
    0.0000    0.0000    0.0000 C   0  0  0  0  0  0  0  0  0  0  0  0
   -0.0000    1.0058    0.0000 C   0  0  0  0  0  0  0  0  0  0  0  0
    0.8680    1.5138    0.0000 C   0  0  0  0  0  0  0  0  0  0  0  0
   -0.8675    1.5032    0.0000 O   0  0  0  0  0  0  0  0  0  0  0  0
   -1.7320    1.0007    0.0000 C   0  0  0  0  0  0  0  0  0  0  0  0
    0.8701   -4.7259    0.0000 N   0  3  0  0  0  0  0  0  0  0  0  0
  1  2  1  0  0  0  0
  2  3  1  0  0  0  0
  2  4  1  0  0  0  0
  4  5  1  0  0  0  0
  5  6  2  0  0  0  0
  5  7  1  0  0  0  0
  7  8  1  0  0  0  0
  8  9  1  0  0  0  0
  9 10  1  0  0  0  0
 10 14  1  0  0  0  0
 10 11  2  0  0  0  0
 11 12  1  0  0  0  0
 12 13  1  0  0  0  0
 13 18  2  0  0  0  0
 13 14  1  0  0  0  0
 14 15  2  0  0  0  0
 15 16  1  0  0  0  0
 16 17  2  0  0  0  0
 17 18  1  0  0  0  0
 17 19  1  0  0  0  0
 19 20  1  0  0  0  0
  2 21  1  0  0  0  0
M  CHG  1  21   1
M  END
$$$$
s_22____13978824____58878
  -OEChem-03222016482D

 21 22  0     0  0  0  0  0  0999 V2000
    1.2530   -7.0892    0.0000 C   0  0  0  0  0  0  0  0  0  0  0  0
    1.9222   -6.3461    0.0000 C   0  0  0  0  0  0  0  0  0  0  0  0
    2.9003   -6.5541    0.0000 O   0  0  0  0  0  0  0  0  0  0  0  0
    1.6132   -5.3951    0.0000 N   0  0  0  0  0  0  0  0  0  0  0  0
    2.2824   -4.6519    0.0000 C   0  0  0  0  0  0  0  0  0  0  0  0
    1.9734   -3.7009    0.0000 C   0  0  0  0  0  0  0  0  0  0  0  0
    0.9953   -3.4929    0.0000 O   0  0  0  0  0  0  0  0  0  0  0  0
    2.6426   -2.9578    0.0000 N   0  0  0  0  0  0  0  0  0  0  0  0
    2.3336   -2.0067    0.0000 C   0  0  0  0  0  0  0  0  0  0  0  0
    3.0028   -1.2636    0.0000 C   0  0  0  0  0  0  0  0  0  0  0  0
    2.6938   -0.3125    0.0000 C   0  0  0  0  0  0  0  0  0  0  0  0
    3.2858    0.5023    0.0000 C   0  0  0  0  0  0  0  0  0  0  0  0
    2.6938    1.3169    0.0000 N   0  0  0  0  0  0  0  0  0  0  0  0
    1.7360    1.0058    0.0000 C   0  0  0  0  0  0  0  0  0  0  0  0
    1.7360   -0.0012    0.0000 C   0  0  0  0  0  0  0  0  0  0  0  0
    0.8680   -0.4978    0.0000 C   0  0  0  0  0  0  0  0  0  0  0  0
    0.0000    0.0000    0.0000 C   0  0  0  0  0  0  0  0  0  0  0  0
   -0.0000    1.0058    0.0000 C   0  0  0  0  0  0  0  0  0  0  0  0
    0.8680    1.5138    0.0000 C   0  0  0  0  0  0  0  0  0  0  0  0
   -0.8675    1.5032    0.0000 O   0  0  0  0  0  0  0  0  0  0  0  0
   -1.7320    1.0007    0.0000 C   0  0  0  0  0  0  0  0  0  0  0  0
  1  2  1  0  0  0  0
  2  3  2  0  0  0  0
  2  4  1  0  0  0  0
  4  5  1  0  0  0  0
  5  6  1  0  0  0  0
  6  7  2  0  0  0  0
  6  8  1  0  0  0  0
  8  9  1  0  0  0  0
  9 10  1  0  0  0  0
 10 11  1  0  0  0  0
 11 15  1  0  0  0  0
 11 12  2  0  0  0  0
 12 13  1  0  0  0  0
 13 14  1  0  0  0  0
 14 19  2  0  0  0  0
 14 15  1  0  0  0  0
 15 16  2  0  0  0  0
 16 17  1  0  0  0  0
 17 18  2  0  0  0  0
 18 19  1  0  0  0  0
 18 20  1  0  0  0  0
 20 21  1  0  0  0  0
M  END
$$$$
s_270062____16429760____8147258
  -OEChem-03222016482D

 18 19  0     0  0  0  0  0  0999 V2000
   -0.0000    1.0058    0.0000 C   0  0  0  0  0  0  0  0  0  0  0  0
    0.8680    1.5138    0.0000 C   0  0  0  0  0  0  0  0  0  0  0  0
    1.7360    1.0058    0.0000 C   0  0  0  0  0  0  0  0  0  0  0  0
    1.7360   -0.0012    0.0000 C   0  0  0  0  0  0  0  0  0  0  0  0
    0.8680   -0.4978    0.0000 C   0  0  0  0  0  0  0  0  0  0  0  0
    0.0000    0.0000    0.0000 C   0  0  0  0  0  0  0  0  0  0  0  0
   -0.8653   -0.5013    0.0000 F   0  0  0  0  0  0  0  0  0  0  0  0
    2.6938   -0.3125    0.0000 C   0  0  0  0  0  0  0  0  0  0  0  0
    3.2858    0.5023    0.0000 C   0  0  0  0  0  0  0  0  0  0  0  0
    2.6938    1.3169    0.0000 N   0  0  0  0  0  0  0  0  0  0  0  0
    3.0028   -1.2636    0.0000 C   0  0  0  0  0  0  0  0  0  0  0  0
    3.9809   -1.4715    0.0000 C   0  0  0  0  0  0  0  0  0  0  0  0
    4.2899   -2.4226    0.0000 C   0  0  0  0  0  0  0  0  0  0  0  0
    5.2680   -2.6306    0.0000 N   0  0  0  0  0  0  0  0  0  0  0  0
    5.5770   -3.5816    0.0000 C   0  0  0  0  0  0  0  0  0  0  0  0
    4.9078   -4.3247    0.0000 O   0  0  0  0  0  0  0  0  0  0  0  0
    6.5551   -3.7896    0.0000 C   0  0  0  0  0  0  0  0  0  0  0  0
    6.8641   -4.7407    0.0000 Cl  0  0  0  0  0  0  0  0  0  0  0  0
  1  6  2  0  0  0  0
  1  2  1  0  0  0  0
  2  3  2  0  0  0  0
  3 10  1  0  0  0  0
  3  4  1  0  0  0  0
  4  5  2  0  0  0  0
  5  6  1  0  0  0  0
  6  7  1  0  0  0  0
  4  8  1  0  0  0  0
  8  9  2  0  0  0  0
  9 10  1  0  0  0  0
  8 11  1  0  0  0  0
 11 12  1  0  0  0  0
 12 13  1  0  0  0  0
 13 14  1  0  0  0  0
 14 15  1  0  0  0  0
 15 16  2  0  0  0  0
 15 17  1  0  0  0  0
 17 18  1  0  0  0  0
M  END
$$$$
s_512____214540____4839458
  -OEChem-03222016482D

 20 21  0     0  0  0  0  0  0999 V2000
    1.2530   -7.0892    0.0000 C   0  0  0  0  0  0  0  0  0  0  0  0
    1.9222   -6.3461    0.0000 C   0  0  0  0  0  0  0  0  0  0  0  0
    1.6132   -5.3951    0.0000 C   0  0  0  0  0  0  0  0  0  0  0  0
    2.2824   -4.6519    0.0000 N   0  0  0  0  0  0  0  0  0  0  0  0
    1.9734   -3.7009    0.0000 C   0  0  0  0  0  0  0  0  0  0  0  0
    0.9953   -3.4929    0.0000 O   0  0  0  0  0  0  0  0  0  0  0  0
    2.6426   -2.9578    0.0000 N   0  0  0  0  0  0  0  0  0  0  0  0
    2.3336   -2.0067    0.0000 C   0  0  0  0  0  0  0  0  0  0  0  0
    3.0028   -1.2636    0.0000 C   0  0  0  0  0  0  0  0  0  0  0  0
    2.6938   -0.3125    0.0000 C   0  0  0  0  0  0  0  0  0  0  0  0
    3.2858    0.5023    0.0000 C   0  0  0  0  0  0  0  0  0  0  0  0
    2.6938    1.3169    0.0000 N   0  0  0  0  0  0  0  0  0  0  0  0
    1.7360    1.0058    0.0000 C   0  0  0  0  0  0  0  0  0  0  0  0
    1.7360   -0.0012    0.0000 C   0  0  0  0  0  0  0  0  0  0  0  0
    0.8680   -0.4978    0.0000 C   0  0  0  0  0  0  0  0  0  0  0  0
    0.0000    0.0000    0.0000 C   0  0  0  0  0  0  0  0  0  0  0  0
   -0.0000    1.0058    0.0000 C   0  0  0  0  0  0  0  0  0  0  0  0
    0.8680    1.5138    0.0000 C   0  0  0  0  0  0  0  0  0  0  0  0
   -0.8653   -0.5013    0.0000 O   0  0  0  0  0  0  0  0  0  0  0  0
   -0.8639   -1.5013    0.0000 C   0  0  0  0  0  0  0  0  0  0  0  0
  1  2  1  0  0  0  0
  2  3  1  0  0  0  0
  3  4  1  0  0  0  0
  4  5  1  0  0  0  0
  5  6  2  0  0  0  0
  5  7  1  0  0  0  0
  7  8  1  0  0  0  0
  8  9  1  0  0  0  0
  9 10  1  0  0  0  0
 10 14  1  0  0  0  0
 10 11  2  0  0  0  0
 11 12  1  0  0  0  0
 12 13  1  0  0  0  0
 13 18  2  0  0  0  0
 13 14  1  0  0  0  0
 14 15  2  0  0  0  0
 15 16  1  0  0  0  0
 16 17  2  0  0  0  0
 17 18  1  0  0  0  0
 16 19  1  0  0  0  0
 19 20  1  0  0  0  0
M  END
$$$$
s_22____16900452____7941800
  -OEChem-03222016482D

 17 18  0     0  0  0  0  0  0999 V2000
   -0.0000    1.0058    0.0000 C   0  0  0  0  0  0  0  0  0  0  0  0
    0.8680    1.5138    0.0000 C   0  0  0  0  0  0  0  0  0  0  0  0
    1.7360    1.0058    0.0000 C   0  0  0  0  0  0  0  0  0  0  0  0
    1.7360   -0.0012    0.0000 C   0  0  0  0  0  0  0  0  0  0  0  0
    0.8680   -0.4978    0.0000 C   0  0  0  0  0  0  0  0  0  0  0  0
    0.0000    0.0000    0.0000 C   0  0  0  0  0  0  0  0  0  0  0  0
    0.8675   -1.4978    0.0000 F   0  0  0  0  0  0  0  0  0  0  0  0
    2.6938   -0.3125    0.0000 C   0  0  0  0  0  0  0  0  0  0  0  0
    3.2858    0.5023    0.0000 C   0  0  0  0  0  0  0  0  0  0  0  0
    2.6938    1.3169    0.0000 N   0  0  0  0  0  0  0  0  0  0  0  0
    3.0028   -1.2636    0.0000 C   0  0  0  0  0  0  0  0  0  0  0  0
    3.9809   -1.4715    0.0000 C   0  0  0  0  0  0  0  0  0  0  0  0
    4.2899   -2.4226    0.0000 N   0  0  0  0  0  0  0  0  0  0  0  0
    5.2680   -2.6306    0.0000 C   0  0  0  0  0  0  0  0  0  0  0  0
    5.9372   -1.8874    0.0000 O   0  0  0  0  0  0  0  0  0  0  0  0
    5.5770   -3.5816    0.0000 C   0  0  0  0  0  0  0  0  0  0  0  0
    6.5551   -3.7896    0.0000 O   0  0  0  0  0  0  0  0  0  0  0  0
  1  6  2  0  0  0  0
  1  2  1  0  0  0  0
  2  3  2  0  0  0  0
  3 10  1  0  0  0  0
  3  4  1  0  0  0  0
  4  5  2  0  0  0  0
  5  6  1  0  0  0  0
  5  7  1  0  0  0  0
  4  8  1  0  0  0  0
  8  9  2  0  0  0  0
  9 10  1  0  0  0  0
  8 11  1  0  0  0  0
 11 12  1  0  0  0  0
 12 13  1  0  0  0  0
 13 14  1  0  0  0  0
 14 15  2  0  0  0  0
 14 16  1  0  0  0  0
 16 17  1  0  0  0  0
M  END
$$$$
s_22____16900452____12103014
  -OEChem-03222016482D

 18 19  0     0  0  0  0  0  0999 V2000
    6.8641   -4.7407    0.0000 C   0  0  0  0  0  0  0  0  0  0  0  0
    6.5551   -3.7896    0.0000 C   0  0  0  0  0  0  0  0  0  0  0  0
    5.5770   -3.5816    0.0000 C   0  0  0  0  0  0  0  0  0  0  0  0
    5.2680   -2.6306    0.0000 C   0  0  0  0  0  0  0  0  0  0  0  0
    5.9372   -1.8874    0.0000 O   0  0  0  0  0  0  0  0  0  0  0  0
    4.2899   -2.4226    0.0000 N   0  0  0  0  0  0  0  0  0  0  0  0
    3.9809   -1.4715    0.0000 C   0  0  0  0  0  0  0  0  0  0  0  0
    3.0028   -1.2636    0.0000 C   0  0  0  0  0  0  0  0  0  0  0  0
    2.6938   -0.3125    0.0000 C   0  0  0  0  0  0  0  0  0  0  0  0
    3.2858    0.5023    0.0000 C   0  0  0  0  0  0  0  0  0  0  0  0
    2.6938    1.3169    0.0000 N   0  0  0  0  0  0  0  0  0  0  0  0
    1.7360    1.0058    0.0000 C   0  0  0  0  0  0  0  0  0  0  0  0
    1.7360   -0.0012    0.0000 C   0  0  0  0  0  0  0  0  0  0  0  0
    0.8680   -0.4978    0.0000 C   0  0  0  0  0  0  0  0  0  0  0  0
    0.0000    0.0000    0.0000 C   0  0  0  0  0  0  0  0  0  0  0  0
   -0.0000    1.0058    0.0000 C   0  0  0  0  0  0  0  0  0  0  0  0
    0.8680    1.5138    0.0000 C   0  0  0  0  0  0  0  0  0  0  0  0
    0.8675   -1.4978    0.0000 F   0  0  0  0  0  0  0  0  0  0  0  0
  1  2  1  0  0  0  0
  2  3  2  3  0  0  0
  3  4  1  0  0  0  0
  4  5  2  0  0  0  0
  4  6  1  0  0  0  0
  6  7  1  0  0  0  0
  7  8  1  0  0  0  0
  8  9  1  0  0  0  0
  9 13  1  0  0  0  0
  9 10  2  0  0  0  0
 10 11  1  0  0  0  0
 11 12  1  0  0  0  0
 12 17  2  0  0  0  0
 12 13  1  0  0  0  0
 13 14  2  0  0  0  0
 14 15  1  0  0  0  0
 15 16  2  0  0  0  0
 16 17  1  0  0  0  0
 14 18  1  0  0  0  0
M  END
$$$$
s_22____9226532____17543248
  -OEChem-03222016482D

 20 21  0     0  0  0  0  0  0999 V2000
    1.7327   -2.9983    0.0000 C   0  0  0  0  0  0  0  0  0  0  0  0
    1.7332   -1.9983    0.0000 C   0  0  0  0  0  0  0  0  0  0  0  0
    0.8675   -1.4978    0.0000 O   0  0  0  0  0  0  0  0  0  0  0  0
    0.8680   -0.4978    0.0000 C   0  0  0  0  0  0  0  0  0  0  0  0
    0.0000    0.0000    0.0000 C   0  0  0  0  0  0  0  0  0  0  0  0
   -0.0000    1.0058    0.0000 C   0  0  0  0  0  0  0  0  0  0  0  0
    0.8680    1.5138    0.0000 C   0  0  0  0  0  0  0  0  0  0  0  0
    1.7360    1.0058    0.0000 C   0  0  0  0  0  0  0  0  0  0  0  0
    1.7360   -0.0012    0.0000 C   0  0  0  0  0  0  0  0  0  0  0  0
    2.6938   -0.3125    0.0000 C   0  0  0  0  0  0  0  0  0  0  0  0
    3.2858    0.5023    0.0000 C   0  0  0  0  0  0  0  0  0  0  0  0
    2.6938    1.3169    0.0000 N   0  0  0  0  0  0  0  0  0  0  0  0
    3.0028   -1.2636    0.0000 C   0  0  0  0  0  0  0  0  0  0  0  0
    3.9809   -1.4715    0.0000 C   0  0  0  0  0  0  0  0  0  0  0  0
    4.2899   -2.4226    0.0000 N   0  0  0  0  0  0  0  0  0  0  0  0
    5.2680   -2.6306    0.0000 C   0  0  0  0  0  0  0  0  0  0  0  0
    5.9372   -1.8874    0.0000 O   0  0  0  0  0  0  0  0  0  0  0  0
    5.5770   -3.5816    0.0000 C   0  0  0  0  0  0  0  0  0  0  0  0
    6.5551   -3.7896    0.0000 C   0  0  0  0  0  0  0  0  0  0  0  0
    7.5333   -3.9976    0.0000 C   0  0  0  0  0  0  0  0  0  0  0  0
  1  2  1  0  0  0  0
  2  3  1  0  0  0  0
  3  4  1  0  0  0  0
  4  9  2  0  0  0  0
  4  5  1  0  0  0  0
  5  6  2  0  0  0  0
  6  7  1  0  0  0  0
  7  8  2  0  0  0  0
  8 12  1  0  0  0  0
  8  9  1  0  0  0  0
  9 10  1  0  0  0  0
 10 11  2  0  0  0  0
 11 12  1  0  0  0  0
 10 13  1  0  0  0  0
 13 14  1  0  0  0  0
 14 15  1  0  0  0  0
 15 16  1  0  0  0  0
 16 17  2  0  0  0  0
 16 18  1  0  0  0  0
 18 19  2  0  0  0  0
 19 20  2  0  0  0  0
M  END
$$$$
s_512____7344786____13978836
  -OEChem-03222016482D

 21 22  0     0  0  0  0  0  0999 V2000
   -0.8705    2.5032    0.0000 C   0  0  0  0  0  0  0  0  0  0  0  0
   -0.8675    1.5032    0.0000 O   0  0  0  0  0  0  0  0  0  0  0  0
    0.0000    1.0058    0.0000 C   0  0  0  0  0  0  0  0  0  0  0  0
    0.0000    0.0000    0.0000 C   0  0  0  0  0  0  0  0  0  0  0  0
    0.8680   -0.4978    0.0000 C   0  0  0  0  0  0  0  0  0  0  0  0
    1.7360   -0.0012    0.0000 C   0  0  0  0  0  0  0  0  0  0  0  0
    1.7360    1.0058    0.0000 C   0  0  0  0  0  0  0  0  0  0  0  0
    0.8680    1.5138    0.0000 C   0  0  0  0  0  0  0  0  0  0  0  0
    2.6938    1.3169    0.0000 N   0  0  0  0  0  0  0  0  0  0  0  0
    3.2858    0.5023    0.0000 C   0  0  0  0  0  0  0  0  0  0  0  0
    2.6938   -0.3125    0.0000 C   0  0  0  0  0  0  0  0  0  0  0  0
    3.0028   -1.2636    0.0000 C   0  0  0  0  0  0  0  0  0  0  0  0
    3.9809   -1.4715    0.0000 C   0  0  0  0  0  0  0  0  0  0  0  0
    4.2899   -2.4226    0.0000 N   0  0  0  0  0  0  0  0  0  0  0  0
    5.2680   -2.6306    0.0000 C   0  0  0  0  0  0  0  0  0  0  0  0
    5.9372   -1.8874    0.0000 O   0  0  0  0  0  0  0  0  0  0  0  0
    5.5770   -3.5816    0.0000 N   0  0  0  0  0  0  0  0  0  0  0  0
    6.5551   -3.7896    0.0000 C   0  0  0  0  0  0  0  0  0  0  0  0
    6.8641   -4.7407    0.0000 C   0  0  0  0  0  0  0  0  0  0  0  0
    7.8422   -4.9486    0.0000 C   0  0  0  0  0  0  0  0  0  0  0  0
    8.1512   -5.8997    0.0000 F   0  0  0  0  0  0  0  0  0  0  0  0
  1  2  1  0  0  0  0
  2  3  1  0  0  0  0
  3  8  2  0  0  0  0
  3  4  1  0  0  0  0
  4  5  2  0  0  0  0
  5  6  1  0  0  0  0
  6 11  1  0  0  0  0
  6  7  2  0  0  0  0
  7  8  1  0  0  0  0
  7  9  1  0  0  0  0
  9 10  1  0  0  0  0
 10 11  2  0  0  0  0
 11 12  1  0  0  0  0
 12 13  1  0  0  0  0
 13 14  1  0  0  0  0
 14 15  1  0  0  0  0
 15 16  2  0  0  0  0
 15 17  1  0  0  0  0
 17 18  1  0  0  0  0
 18 19  1  0  0  0  0
 19 20  1  0  0  0  0
 20 21  1  0  0  0  0
M  END
$$$$
s_527a____153889____237535
  -OEChem-03222016482D

 17 18  0     0  0  0  0  0  0999 V2000
    6.8641   -4.7407    0.0000 C   0  0  0  0  0  0  0  0  0  0  0  0
    6.5551   -3.7896    0.0000 S   0  0  0  0  0  0  0  0  0  0  0  0
    5.5770   -3.5816    0.0000 C   0  0  0  0  0  0  0  0  0  0  0  0
    5.2680   -2.6306    0.0000 C   0  0  0  0  0  0  0  0  0  0  0  0
    5.9372   -1.8874    0.0000 O   0  0  0  0  0  0  0  0  0  0  0  0
    4.2899   -2.4226    0.0000 N   0  0  0  0  0  0  0  0  0  0  0  0
    3.9809   -1.4715    0.0000 C   0  0  0  0  0  0  0  0  0  0  0  0
    3.0028   -1.2636    0.0000 C   0  0  0  0  0  0  0  0  0  0  0  0
    2.6938   -0.3125    0.0000 C   0  0  0  0  0  0  0  0  0  0  0  0
    3.2858    0.5023    0.0000 C   0  0  0  0  0  0  0  0  0  0  0  0
    2.6938    1.3169    0.0000 N   0  0  0  0  0  0  0  0  0  0  0  0
    1.7360    1.0058    0.0000 C   0  0  0  0  0  0  0  0  0  0  0  0
    1.7360   -0.0012    0.0000 C   0  0  0  0  0  0  0  0  0  0  0  0
    0.8680   -0.4978    0.0000 C   0  0  0  0  0  0  0  0  0  0  0  0
    0.0000    0.0000    0.0000 C   0  0  0  0  0  0  0  0  0  0  0  0
   -0.0000    1.0058    0.0000 C   0  0  0  0  0  0  0  0  0  0  0  0
    0.8680    1.5138    0.0000 C   0  0  0  0  0  0  0  0  0  0  0  0
  1  2  1  0  0  0  0
  2  3  1  0  0  0  0
  3  4  1  0  0  0  0
  4  5  2  0  0  0  0
  4  6  1  0  0  0  0
  6  7  1  0  0  0  0
  7  8  1  0  0  0  0
  8  9  1  0  0  0  0
  9 13  1  0  0  0  0
  9 10  2  0  0  0  0
 10 11  1  0  0  0  0
 11 12  1  0  0  0  0
 12 17  2  0  0  0  0
 12 13  1  0  0  0  0
 13 14  2  0  0  0  0
 14 15  1  0  0  0  0
 15 16  2  0  0  0  0
 16 17  1  0  0  0  0
M  END
$$$$
s_22____4839448____9296322
  -OEChem-03222016482D

 19 20  0     0  0  0  0  0  0999 V2000
    6.1949   -5.4838    0.0000 C   0  0  0  0  0  0  0  0  0  0  0  0
    5.8860   -4.5327    0.0000 C   0  0  0  0  0  0  0  0  0  0  0  0
    5.5770   -3.5816    0.0000 C   0  0  0  0  0  0  0  0  0  0  0  0
    5.2680   -2.6306    0.0000 C   0  0  0  0  0  0  0  0  0  0  0  0
    5.9372   -1.8874    0.0000 O   0  0  0  0  0  0  0  0  0  0  0  0
    4.2899   -2.4226    0.0000 N   0  0  0  0  0  0  0  0  0  0  0  0
    3.9809   -1.4715    0.0000 C   0  0  0  0  0  0  0  0  0  0  0  0
    3.0028   -1.2636    0.0000 C   0  0  0  0  0  0  0  0  0  0  0  0
    2.6938   -0.3125    0.0000 C   0  0  0  0  0  0  0  0  0  0  0  0
    3.2858    0.5023    0.0000 C   0  0  0  0  0  0  0  0  0  0  0  0
    2.6938    1.3169    0.0000 N   0  0  0  0  0  0  0  0  0  0  0  0
    1.7360    1.0058    0.0000 C   0  0  0  0  0  0  0  0  0  0  0  0
    1.7360   -0.0012    0.0000 C   0  0  0  0  0  0  0  0  0  0  0  0
    0.8680   -0.4978    0.0000 C   0  0  0  0  0  0  0  0  0  0  0  0
    0.0000    0.0000    0.0000 C   0  0  0  0  0  0  0  0  0  0  0  0
   -0.0000    1.0058    0.0000 C   0  0  0  0  0  0  0  0  0  0  0  0
    0.8680    1.5138    0.0000 C   0  0  0  0  0  0  0  0  0  0  0  0
   -0.8653   -0.5013    0.0000 O   0  0  0  0  0  0  0  0  0  0  0  0
   -0.8639   -1.5013    0.0000 C   0  0  0  0  0  0  0  0  0  0  0  0
  1  2  1  0  0  0  0
  2  3  3  0  0  0  0
  3  4  1  0  0  0  0
  4  5  2  0  0  0  0
  4  6  1  0  0  0  0
  6  7  1  0  0  0  0
  7  8  1  0  0  0  0
  8  9  1  0  0  0  0
  9 13  1  0  0  0  0
  9 10  2  0  0  0  0
 10 11  1  0  0  0  0
 11 12  1  0  0  0  0
 12 17  2  0  0  0  0
 12 13  1  0  0  0  0
 13 14  2  0  0  0  0
 14 15  1  0  0  0  0
 15 16  2  0  0  0  0
 16 17  1  0  0  0  0
 15 18  1  0  0  0  0
 18 19  1  0  0  0  0
M  END
$$$$
s_2708____13025540____8988634
  -OEChem-03222016482D

 19 20  0     0  0  0  0  0  0999 V2000
    0.0012   -1.9973    0.0000 C   0  0  0  0  0  0  0  0  0  0  0  0
    0.8675   -1.4978    0.0000 O   0  0  0  0  0  0  0  0  0  0  0  0
    0.8680   -0.4978    0.0000 C   0  0  0  0  0  0  0  0  0  0  0  0
    0.0000    0.0000    0.0000 C   0  0  0  0  0  0  0  0  0  0  0  0
   -0.0000    1.0058    0.0000 C   0  0  0  0  0  0  0  0  0  0  0  0
    0.8680    1.5138    0.0000 C   0  0  0  0  0  0  0  0  0  0  0  0
    1.7360    1.0058    0.0000 C   0  0  0  0  0  0  0  0  0  0  0  0
    1.7360   -0.0012    0.0000 C   0  0  0  0  0  0  0  0  0  0  0  0
    2.6938   -0.3125    0.0000 C   0  0  0  0  0  0  0  0  0  0  0  0
    3.2858    0.5023    0.0000 C   0  0  0  0  0  0  0  0  0  0  0  0
    2.6938    1.3169    0.0000 N   0  0  0  0  0  0  0  0  0  0  0  0
    3.0028   -1.2636    0.0000 C   0  0  0  0  0  0  0  0  0  0  0  0
    3.9809   -1.4715    0.0000 C   0  0  0  0  0  0  0  0  0  0  0  0
    4.2899   -2.4226    0.0000 N   0  0  0  0  0  0  0  0  0  0  0  0
    5.2680   -2.6306    0.0000 C   0  0  0  0  0  0  0  0  0  0  0  0
    5.9372   -1.8874    0.0000 O   0  0  0  0  0  0  0  0  0  0  0  0
    5.5770   -3.5816    0.0000 N   0  0  0  0  0  0  0  0  0  0  0  0
    6.5551   -3.7896    0.0000 O   0  0  0  0  0  0  0  0  0  0  0  0
    6.8641   -4.7407    0.0000 C   0  0  0  0  0  0  0  0  0  0  0  0
  1  2  1  0  0  0  0
  2  3  1  0  0  0  0
  3  8  2  0  0  0  0
  3  4  1  0  0  0  0
  4  5  2  0  0  0  0
  5  6  1  0  0  0  0
  6  7  2  0  0  0  0
  7 11  1  0  0  0  0
  7  8  1  0  0  0  0
  8  9  1  0  0  0  0
  9 10  2  0  0  0  0
 10 11  1  0  0  0  0
  9 12  1  0  0  0  0
 12 13  1  0  0  0  0
 13 14  1  0  0  0  0
 14 15  1  0  0  0  0
 15 16  2  0  0  0  0
 15 17  1  0  0  0  0
 17 18  1  0  0  0  0
 18 19  1  0  0  0  0
M  END
$$$$
s_270062____16900488____8147258
  -OEChem-03222016482D

 17 18  0     0  0  0  0  0  0999 V2000
   -0.0000    1.0058    0.0000 C   0  0  0  0  0  0  0  0  0  0  0  0
    0.8680    1.5138    0.0000 C   0  0  0  0  0  0  0  0  0  0  0  0
    1.7360    1.0058    0.0000 C   0  0  0  0  0  0  0  0  0  0  0  0
    1.7360   -0.0012    0.0000 C   0  0  0  0  0  0  0  0  0  0  0  0
    0.8680   -0.4978    0.0000 C   0  0  0  0  0  0  0  0  0  0  0  0
    0.0000    0.0000    0.0000 C   0  0  0  0  0  0  0  0  0  0  0  0
    0.8675   -1.4978    0.0000 F   0  0  0  0  0  0  0  0  0  0  0  0
    2.6938   -0.3125    0.0000 C   0  0  0  0  0  0  0  0  0  0  0  0
    3.2858    0.5023    0.0000 C   0  0  0  0  0  0  0  0  0  0  0  0
    2.6938    1.3169    0.0000 N   0  0  0  0  0  0  0  0  0  0  0  0
    3.0028   -1.2636    0.0000 C   0  0  0  0  0  0  0  0  0  0  0  0
    3.9809   -1.4715    0.0000 C   0  0  0  0  0  0  0  0  0  0  0  0
    4.2899   -2.4226    0.0000 N   0  0  0  0  0  0  0  0  0  0  0  0
    5.2680   -2.6306    0.0000 C   0  0  0  0  0  0  0  0  0  0  0  0
    5.9372   -1.8874    0.0000 O   0  0  0  0  0  0  0  0  0  0  0  0
    5.5770   -3.5816    0.0000 C   0  0  0  0  0  0  0  0  0  0  0  0
    6.5551   -3.7896    0.0000 Cl  0  0  0  0  0  0  0  0  0  0  0  0
  1  6  2  0  0  0  0
  1  2  1  0  0  0  0
  2  3  2  0  0  0  0
  3 10  1  0  0  0  0
  3  4  1  0  0  0  0
  4  5  2  0  0  0  0
  5  6  1  0  0  0  0
  5  7  1  0  0  0  0
  4  8  1  0  0  0  0
  8  9  2  0  0  0  0
  9 10  1  0  0  0  0
  8 11  1  0  0  0  0
 11 12  1  0  0  0  0
 12 13  1  0  0  0  0
 13 14  1  0  0  0  0
 14 15  2  0  0  0  0
 14 16  1  0  0  0  0
 16 17  1  0  0  0  0
M  END
$$$$
s_240690b____16720624____13151248
  -OEChem-03222016482D

 18 19  0     0  0  0  0  0  0999 V2000
    0.0000    0.0000    0.0000 C   0  0  0  0  0  0  0  0  0  0  0  0
    0.8680   -0.4978    0.0000 C   0  0  0  0  0  0  0  0  0  0  0  0
    1.7360   -0.0012    0.0000 C   0  0  0  0  0  0  0  0  0  0  0  0
    2.6938   -0.3125    0.0000 C   0  0  0  0  0  0  0  0  0  0  0  0
    3.2858    0.5023    0.0000 C   0  0  0  0  0  0  0  0  0  0  0  0
    2.6938    1.3169    0.0000 N   0  0  0  0  0  0  0  0  0  0  0  0
    1.7360    1.0058    0.0000 C   0  0  0  0  0  0  0  0  0  0  0  0
    0.8680    1.5138    0.0000 C   0  0  0  0  0  0  0  0  0  0  0  0
    0.0000    1.0058    0.0000 C   0  0  0  0  0  0  0  0  0  0  0  0
    0.8680    2.5138    0.0000 Br  0  0  0  0  0  0  0  0  0  0  0  0
    3.0028   -1.2636    0.0000 C   0  0  0  0  0  0  0  0  0  0  0  0
    3.9809   -1.4715    0.0000 C   0  0  0  0  0  0  0  0  0  0  0  0
    4.2899   -2.4226    0.0000 N   0  0  0  0  0  0  0  0  0  0  0  0
    5.2680   -2.6306    0.0000 C   0  0  0  0  0  0  0  0  0  0  0  0
    5.9372   -1.8874    0.0000 O   0  0  0  0  0  0  0  0  0  0  0  0
    5.5770   -3.5816    0.0000 C   0  0  0  0  0  0  0  0  0  0  0  0
    6.5551   -3.7896    0.0000 O   0  0  0  0  0  0  0  0  0  0  0  0
    6.8641   -4.7407    0.0000 N   0  0  0  0  0  0  0  0  0  0  0  0
  1  9  2  0  0  0  0
  1  2  1  0  0  0  0
  2  3  2  0  0  0  0
  3  7  1  0  0  0  0
  3  4  1  0  0  0  0
  4  5  2  0  0  0  0
  5  6  1  0  0  0  0
  6  7  1  0  0  0  0
  7  8  2  0  0  0  0
  8  9  1  0  0  0  0
  8 10  1  0  0  0  0
  4 11  1  0  0  0  0
 11 12  1  0  0  0  0
 12 13  1  0  0  0  0
 13 14  1  0  0  0  0
 14 15  2  0  0  0  0
 14 16  1  0  0  0  0
 16 17  1  0  0  0  0
 17 18  1  0  0  0  0
M  END
$$$$
s_22____2366540____59039
  -OEChem-03222016482D

 18 19  0     0  0  0  0  0  0999 V2000
    6.8641   -4.7407    0.0000 C   0  0  0  0  0  0  0  0  0  0  0  0
    6.5551   -3.7896    0.0000 O   0  0  0  0  0  0  0  0  0  0  0  0
    5.5770   -3.5816    0.0000 C   0  0  0  0  0  0  0  0  0  0  0  0
    5.2680   -2.6306    0.0000 C   0  0  0  0  0  0  0  0  0  0  0  0
    5.9372   -1.8874    0.0000 O   0  0  0  0  0  0  0  0  0  0  0  0
    4.2899   -2.4226    0.0000 N   0  0  0  0  0  0  0  0  0  0  0  0
    3.9809   -1.4715    0.0000 C   0  0  0  0  0  0  0  0  0  0  0  0
    3.0028   -1.2636    0.0000 C   0  0  0  0  0  0  0  0  0  0  0  0
    2.6938   -0.3125    0.0000 C   0  0  0  0  0  0  0  0  0  0  0  0
    3.2858    0.5023    0.0000 C   0  0  0  0  0  0  0  0  0  0  0  0
    2.6938    1.3169    0.0000 N   0  0  0  0  0  0  0  0  0  0  0  0
    1.7360    1.0058    0.0000 C   0  0  0  0  0  0  0  0  0  0  0  0
    1.7360   -0.0012    0.0000 C   0  0  0  0  0  0  0  0  0  0  0  0
    0.8680   -0.4978    0.0000 C   0  0  0  0  0  0  0  0  0  0  0  0
    0.0000    0.0000    0.0000 C   0  0  0  0  0  0  0  0  0  0  0  0
   -0.0000    1.0058    0.0000 C   0  0  0  0  0  0  0  0  0  0  0  0
    0.8680    1.5138    0.0000 C   0  0  0  0  0  0  0  0  0  0  0  0
   -0.8675    1.5032    0.0000 F   0  0  0  0  0  0  0  0  0  0  0  0
  1  2  1  0  0  0  0
  2  3  1  0  0  0  0
  3  4  1  0  0  0  0
  4  5  2  0  0  0  0
  4  6  1  0  0  0  0
  6  7  1  0  0  0  0
  7  8  1  0  0  0  0
  8  9  1  0  0  0  0
  9 13  1  0  0  0  0
  9 10  2  0  0  0  0
 10 11  1  0  0  0  0
 11 12  1  0  0  0  0
 12 17  2  0  0  0  0
 12 13  1  0  0  0  0
 13 14  2  0  0  0  0
 14 15  1  0  0  0  0
 15 16  2  0  0  0  0
 16 17  1  0  0  0  0
 16 18  1  0  0  0  0
M  END
$$$$
s_22____13025516____337030
  -OEChem-03222016482D

 19 20  0     0  0  0  0  0  0999 V2000
    6.5551   -3.7896    0.0000 C   0  0  0  0  0  0  0  0  0  0  0  0
    5.5770   -3.5816    0.0000 C   0  0  0  0  0  0  0  0  0  0  0  0
    4.9078   -4.3247    0.0000 C   0  0  0  0  0  0  0  0  0  0  0  0
    5.2680   -2.6306    0.0000 C   0  0  0  0  0  0  0  0  0  0  0  0
    5.9372   -1.8874    0.0000 O   0  0  0  0  0  0  0  0  0  0  0  0
    4.2899   -2.4226    0.0000 N   0  0  0  0  0  0  0  0  0  0  0  0
    3.9809   -1.4715    0.0000 C   0  0  0  0  0  0  0  0  0  0  0  0
    3.0028   -1.2636    0.0000 C   0  0  0  0  0  0  0  0  0  0  0  0
    2.6938   -0.3125    0.0000 C   0  0  0  0  0  0  0  0  0  0  0  0
    3.2858    0.5023    0.0000 C   0  0  0  0  0  0  0  0  0  0  0  0
    2.6938    1.3169    0.0000 N   0  0  0  0  0  0  0  0  0  0  0  0
    1.7360    1.0058    0.0000 C   0  0  0  0  0  0  0  0  0  0  0  0
    1.7360   -0.0012    0.0000 C   0  0  0  0  0  0  0  0  0  0  0  0
    0.8680   -0.4978    0.0000 C   0  0  0  0  0  0  0  0  0  0  0  0
    0.0000    0.0000    0.0000 C   0  0  0  0  0  0  0  0  0  0  0  0
   -0.0000    1.0058    0.0000 C   0  0  0  0  0  0  0  0  0  0  0  0
    0.8680    1.5138    0.0000 C   0  0  0  0  0  0  0  0  0  0  0  0
    0.8675   -1.4978    0.0000 O   0  0  0  0  0  0  0  0  0  0  0  0
    1.7332   -1.9983    0.0000 C   0  0  0  0  0  0  0  0  0  0  0  0
  1  2  1  0  0  0  0
  2  3  1  0  0  0  0
  2  4  1  0  0  0  0
  4  5  2  0  0  0  0
  4  6  1  0  0  0  0
  6  7  1  0  0  0  0
  7  8  1  0  0  0  0
  8  9  1  0  0  0  0
  9 13  1  0  0  0  0
  9 10  2  0  0  0  0
 10 11  1  0  0  0  0
 11 12  1  0  0  0  0
 12 17  2  0  0  0  0
 12 13  1  0  0  0  0
 13 14  2  0  0  0  0
 14 15  1  0  0  0  0
 15 16  2  0  0  0  0
 16 17  1  0  0  0  0
 14 18  1  0  0  0  0
 18 19  1  0  0  0  0
M  END
$$$$
s_512____6389034____4839458
  -OEChem-03222016482D

 21 22  0     0  0  0  0  0  0999 V2000
   -1.7320   -0.0025    0.0000 C   0  0  0  0  0  0  0  0  0  0  0  0
   -0.8653   -0.5013    0.0000 O   0  0  0  0  0  0  0  0  0  0  0  0
    0.0000    0.0000    0.0000 C   0  0  0  0  0  0  0  0  0  0  0  0
   -0.0000    1.0058    0.0000 C   0  0  0  0  0  0  0  0  0  0  0  0
    0.8680    1.5138    0.0000 C   0  0  0  0  0  0  0  0  0  0  0  0
    1.7360    1.0058    0.0000 C   0  0  0  0  0  0  0  0  0  0  0  0
    1.7360   -0.0012    0.0000 C   0  0  0  0  0  0  0  0  0  0  0  0
    0.8680   -0.4978    0.0000 C   0  0  0  0  0  0  0  0  0  0  0  0
    2.6938   -0.3125    0.0000 C   0  0  0  0  0  0  0  0  0  0  0  0
    3.2858    0.5023    0.0000 C   0  0  0  0  0  0  0  0  0  0  0  0
    2.6938    1.3169    0.0000 N   0  0  0  0  0  0  0  0  0  0  0  0
    3.0028   -1.2636    0.0000 C   0  0  0  0  0  0  0  0  0  0  0  0
    3.9809   -1.4715    0.0000 C   0  0  0  0  0  0  0  0  0  0  0  0
    4.2899   -2.4226    0.0000 N   0  0  0  0  0  0  0  0  0  0  0  0
    5.2680   -2.6306    0.0000 C   0  0  0  0  0  0  0  0  0  0  0  0
    5.9372   -1.8874    0.0000 O   0  0  0  0  0  0  0  0  0  0  0  0
    5.5770   -3.5816    0.0000 N   0  0  0  0  0  0  0  0  0  0  0  0
    6.5551   -3.7896    0.0000 C   0  0  0  0  0  0  0  0  0  0  0  0
    6.8641   -4.7407    0.0000 C   0  0  0  0  0  0  0  0  0  0  0  0
    7.8422   -4.9486    0.0000 F   0  0  0  0  0  0  0  0  0  0  0  0
    6.1949   -5.4838    0.0000 F   0  0  0  0  0  0  0  0  0  0  0  0
  1  2  1  0  0  0  0
  2  3  1  0  0  0  0
  3  8  2  0  0  0  0
  3  4  1  0  0  0  0
  4  5  2  0  0  0  0
  5  6  1  0  0  0  0
  6 11  1  0  0  0  0
  6  7  2  0  0  0  0
  7  8  1  0  0  0  0
  7  9  1  0  0  0  0
  9 10  2  0  0  0  0
 10 11  1  0  0  0  0
  9 12  1  0  0  0  0
 12 13  1  0  0  0  0
 13 14  1  0  0  0  0
 14 15  1  0  0  0  0
 15 16  2  0  0  0  0
 15 17  1  0  0  0  0
 17 18  1  0  0  0  0
 18 19  1  0  0  0  0
 19 20  1  0  0  0  0
 19 21  1  0  0  0  0
M  END
$$$$
s_240690b____15506692____7368602
  -OEChem-03222016482D

 20 21  0     1  0  0  0  0  0999 V2000
    0.6351   -5.1871    0.0000 C   0  0  0  0  0  0  0  0  0  0  0  0
    1.6132   -5.3951    0.0000 C   0  0  3  0  0  0  0  0  0  0  0  0
    2.2824   -4.6519    0.0000 C   0  0  0  0  0  0  0  0  0  0  0  0
    1.9734   -3.7009    0.0000 C   0  0  0  0  0  0  0  0  0  0  0  0
    0.9953   -3.4929    0.0000 O   0  0  0  0  0  0  0  0  0  0  0  0
    2.6426   -2.9578    0.0000 N   0  0  0  0  0  0  0  0  0  0  0  0
    2.3336   -2.0067    0.0000 C   0  0  0  0  0  0  0  0  0  0  0  0
    3.0028   -1.2636    0.0000 C   0  0  0  0  0  0  0  0  0  0  0  0
    2.6938   -0.3125    0.0000 C   0  0  0  0  0  0  0  0  0  0  0  0
    3.2858    0.5023    0.0000 C   0  0  0  0  0  0  0  0  0  0  0  0
    2.6938    1.3169    0.0000 N   0  0  0  0  0  0  0  0  0  0  0  0
    1.7360    1.0058    0.0000 C   0  0  0  0  0  0  0  0  0  0  0  0
    1.7360   -0.0012    0.0000 C   0  0  0  0  0  0  0  0  0  0  0  0
    0.8680   -0.4978    0.0000 C   0  0  0  0  0  0  0  0  0  0  0  0
    0.0000    0.0000    0.0000 C   0  0  0  0  0  0  0  0  0  0  0  0
   -0.0000    1.0058    0.0000 C   0  0  0  0  0  0  0  0  0  0  0  0
    0.8680    1.5138    0.0000 C   0  0  0  0  0  0  0  0  0  0  0  0
    0.8680    2.5138    0.0000 O   0  0  0  0  0  0  0  0  0  0  0  0
    0.0020    3.0138    0.0000 C   0  0  0  0  0  0  0  0  0  0  0  0
    1.9222   -6.3461    0.0000 N   0  3  0  0  0  0  0  0  0  0  0  0
  1  2  1  0  0  0  0
  2  3  1  0  0  0  0
  3  4  1  0  0  0  0
  4  5  2  0  0  0  0
  4  6  1  0  0  0  0
  6  7  1  0  0  0  0
  7  8  1  0  0  0  0
  8  9  1  0  0  0  0
  9 13  1  0  0  0  0
  9 10  2  0  0  0  0
 10 11  1  0  0  0  0
 11 12  1  0  0  0  0
 12 17  2  0  0  0  0
 12 13  1  0  0  0  0
 13 14  2  0  0  0  0
 14 15  1  0  0  0  0
 15 16  2  0  0  0  0
 16 17  1  0  0  0  0
 17 18  1  0  0  0  0
 18 19  1  0  0  0  0
  2 20  1  0  0  0  0
M  CHG  1  20   1
M  END
$$$$
s_22____10303762____8794444
  -OEChem-03222016482D

 18 19  0     0  0  0  0  0  0999 V2000
   -0.0000    1.0058    0.0000 C   0  0  0  0  0  0  0  0  0  0  0  0
    0.8680    1.5138    0.0000 C   0  0  0  0  0  0  0  0  0  0  0  0
    1.7360    1.0058    0.0000 C   0  0  0  0  0  0  0  0  0  0  0  0
    1.7360   -0.0012    0.0000 C   0  0  0  0  0  0  0  0  0  0  0  0
    0.8680   -0.4978    0.0000 C   0  0  0  0  0  0  0  0  0  0  0  0
    0.0000    0.0000    0.0000 C   0  0  0  0  0  0  0  0  0  0  0  0
    0.8675   -1.4978    0.0000 Br  0  0  0  0  0  0  0  0  0  0  0  0
    2.6938   -0.3125    0.0000 C   0  0  0  0  0  0  0  0  0  0  0  0
    3.2858    0.5023    0.0000 C   0  0  0  0  0  0  0  0  0  0  0  0
    2.6938    1.3169    0.0000 N   0  0  0  0  0  0  0  0  0  0  0  0
    3.0028   -1.2636    0.0000 C   0  0  0  0  0  0  0  0  0  0  0  0
    3.9809   -1.4715    0.0000 C   0  0  0  0  0  0  0  0  0  0  0  0
    4.2899   -2.4226    0.0000 N   0  0  0  0  0  0  0  0  0  0  0  0
    5.2680   -2.6306    0.0000 C   0  0  0  0  0  0  0  0  0  0  0  0
    5.9372   -1.8874    0.0000 O   0  0  0  0  0  0  0  0  0  0  0  0
    5.5770   -3.5816    0.0000 C   0  0  0  0  0  0  0  0  0  0  0  0
    6.5551   -3.7896    0.0000 C   0  0  0  0  0  0  0  0  0  0  0  0
    7.5333   -3.9976    0.0000 N   0  0  0  0  0  0  0  0  0  0  0  0
  1  6  2  0  0  0  0
  1  2  1  0  0  0  0
  2  3  2  0  0  0  0
  3 10  1  0  0  0  0
  3  4  1  0  0  0  0
  4  5  2  0  0  0  0
  5  6  1  0  0  0  0
  5  7  1  0  0  0  0
  4  8  1  0  0  0  0
  8  9  2  0  0  0  0
  9 10  1  0  0  0  0
  8 11  1  0  0  0  0
 11 12  1  0  0  0  0
 12 13  1  0  0  0  0
 13 14  1  0  0  0  0
 14 15  2  0  0  0  0
 14 16  1  0  0  0  0
 16 17  1  0  0  0  0
 17 18  3  0  0  0  0
M  END
$$$$
s_240690b____13040954____3025698
  -OEChem-03222016482D

 18 19  0     0  0  0  0  0  0999 V2000
    0.8680   -0.4978    0.0000 C   0  0  0  0  0  0  0  0  0  0  0  0
    1.7360   -0.0012    0.0000 C   0  0  0  0  0  0  0  0  0  0  0  0
    1.7360    1.0058    0.0000 C   0  0  0  0  0  0  0  0  0  0  0  0
    0.8680    1.5138    0.0000 C   0  0  0  0  0  0  0  0  0  0  0  0
    0.0000    1.0058    0.0000 C   0  0  0  0  0  0  0  0  0  0  0  0
    0.0000    0.0000    0.0000 C   0  0  0  0  0  0  0  0  0  0  0  0
   -0.8653   -0.5013    0.0000 F   0  0  0  0  0  0  0  0  0  0  0  0
   -0.8675    1.5032    0.0000 F   0  0  0  0  0  0  0  0  0  0  0  0
    2.6938    1.3169    0.0000 N   0  0  0  0  0  0  0  0  0  0  0  0
    3.2858    0.5023    0.0000 C   0  0  0  0  0  0  0  0  0  0  0  0
    2.6938   -0.3125    0.0000 C   0  0  0  0  0  0  0  0  0  0  0  0
    3.0028   -1.2636    0.0000 C   0  0  0  0  0  0  0  0  0  0  0  0
    3.9809   -1.4715    0.0000 C   0  0  0  0  0  0  0  0  0  0  0  0
    4.2899   -2.4226    0.0000 N   0  0  0  0  0  0  0  0  0  0  0  0
    5.2680   -2.6306    0.0000 C   0  0  0  0  0  0  0  0  0  0  0  0
    5.9372   -1.8874    0.0000 O   0  0  0  0  0  0  0  0  0  0  0  0
    5.5770   -3.5816    0.0000 C   0  0  0  0  0  0  0  0  0  0  0  0
    6.5551   -3.7896    0.0000 N   0  3  0  0  0  0  0  0  0  0  0  0
  1  6  2  0  0  0  0
  1  2  1  0  0  0  0
  2 11  1  0  0  0  0
  2  3  2  0  0  0  0
  3  4  1  0  0  0  0
  4  5  2  0  0  0  0
  5  6  1  0  0  0  0
  6  7  1  0  0  0  0
  5  8  1  0  0  0  0
  3  9  1  0  0  0  0
  9 10  1  0  0  0  0
 10 11  2  0  0  0  0
 11 12  1  0  0  0  0
 12 13  1  0  0  0  0
 13 14  1  0  0  0  0
 14 15  1  0  0  0  0
 15 16  2  0  0  0  0
 15 17  1  0  0  0  0
 17 18  1  0  0  0  0
M  CHG  1  18   1
M  END
$$$$
s_512____214534____13978836
  -OEChem-03222016482D

 21 22  0     0  0  0  0  0  0999 V2000
    8.1512   -5.8997    0.0000 C   0  0  0  0  0  0  0  0  0  0  0  0
    7.8422   -4.9486    0.0000 C   0  0  0  0  0  0  0  0  0  0  0  0
    6.8641   -4.7407    0.0000 C   0  0  0  0  0  0  0  0  0  0  0  0
    6.5551   -3.7896    0.0000 C   0  0  0  0  0  0  0  0  0  0  0  0
    5.5770   -3.5816    0.0000 N   0  0  0  0  0  0  0  0  0  0  0  0
    5.2680   -2.6306    0.0000 C   0  0  0  0  0  0  0  0  0  0  0  0
    5.9372   -1.8874    0.0000 O   0  0  0  0  0  0  0  0  0  0  0  0
    4.2899   -2.4226    0.0000 N   0  0  0  0  0  0  0  0  0  0  0  0
    3.9809   -1.4715    0.0000 C   0  0  0  0  0  0  0  0  0  0  0  0
    3.0028   -1.2636    0.0000 C   0  0  0  0  0  0  0  0  0  0  0  0
    2.6938   -0.3125    0.0000 C   0  0  0  0  0  0  0  0  0  0  0  0
    3.2858    0.5023    0.0000 C   0  0  0  0  0  0  0  0  0  0  0  0
    2.6938    1.3169    0.0000 N   0  0  0  0  0  0  0  0  0  0  0  0
    1.7360    1.0058    0.0000 C   0  0  0  0  0  0  0  0  0  0  0  0
    1.7360   -0.0012    0.0000 C   0  0  0  0  0  0  0  0  0  0  0  0
    0.8680   -0.4978    0.0000 C   0  0  0  0  0  0  0  0  0  0  0  0
    0.0000    0.0000    0.0000 C   0  0  0  0  0  0  0  0  0  0  0  0
   -0.0000    1.0058    0.0000 C   0  0  0  0  0  0  0  0  0  0  0  0
    0.8680    1.5138    0.0000 C   0  0  0  0  0  0  0  0  0  0  0  0
   -0.8675    1.5032    0.0000 O   0  0  0  0  0  0  0  0  0  0  0  0
   -1.7320    1.0007    0.0000 C   0  0  0  0  0  0  0  0  0  0  0  0
  1  2  1  0  0  0  0
  2  3  1  0  0  0  0
  3  4  1  0  0  0  0
  4  5  1  0  0  0  0
  5  6  1  0  0  0  0
  6  7  2  0  0  0  0
  6  8  1  0  0  0  0
  8  9  1  0  0  0  0
  9 10  1  0  0  0  0
 10 11  1  0  0  0  0
 11 15  1  0  0  0  0
 11 12  2  0  0  0  0
 12 13  1  0  0  0  0
 13 14  1  0  0  0  0
 14 19  2  0  0  0  0
 14 15  1  0  0  0  0
 15 16  2  0  0  0  0
 16 17  1  0  0  0  0
 17 18  2  0  0  0  0
 18 19  1  0  0  0  0
 18 20  1  0  0  0  0
 20 21  1  0  0  0  0
M  END
$$$$
s_207____3310404____15565042
  -OEChem-03222016482D

 20 21  0     0  0  0  0  0  0999 V2000
    0.8675   -1.4978    0.0000 C   0  0  0  0  0  0  0  0  0  0  0  0
    0.8680   -0.4978    0.0000 C   0  0  0  0  0  0  0  0  0  0  0  0
    0.0000    0.0000    0.0000 C   0  0  0  0  0  0  0  0  0  0  0  0
   -0.0000    1.0058    0.0000 C   0  0  0  0  0  0  0  0  0  0  0  0
    0.8680    1.5138    0.0000 C   0  0  0  0  0  0  0  0  0  0  0  0
    1.7360    1.0058    0.0000 C   0  0  0  0  0  0  0  0  0  0  0  0
    1.7360   -0.0012    0.0000 C   0  0  0  0  0  0  0  0  0  0  0  0
    2.6938   -0.3125    0.0000 C   0  0  0  0  0  0  0  0  0  0  0  0
    3.2858    0.5023    0.0000 C   0  0  0  0  0  0  0  0  0  0  0  0
    2.6938    1.3169    0.0000 N   0  0  0  0  0  0  0  0  0  0  0  0
    4.2858    0.5024    0.0000 C   0  0  0  0  0  0  0  0  0  0  0  0
    4.7857    1.3684    0.0000 N   0  3  0  0  0  0  0  0  0  0  0  0
    5.7857    1.3685    0.0000 C   0  0  0  0  0  0  0  0  0  0  0  0
    6.2857    2.2345    0.0000 C   0  0  0  0  0  0  0  0  0  0  0  0
    5.7856    3.1005    0.0000 O   0  0  0  0  0  0  0  0  0  0  0  0
    7.2857    2.2346    0.0000 N   0  0  0  0  0  0  0  0  0  0  0  0
    7.7856    3.1006    0.0000 C   0  0  0  0  0  0  0  0  0  0  0  0
    7.7857    1.3686    0.0000 C   0  0  0  0  0  0  0  0  0  0  0  0
   -0.8675    1.5032    0.0000 O   0  0  0  0  0  0  0  0  0  0  0  0
   -1.7320    1.0007    0.0000 C   0  0  0  0  0  0  0  0  0  0  0  0
  1  2  1  0  0  0  0
  2  7  2  0  0  0  0
  2  3  1  0  0  0  0
  3  4  2  0  0  0  0
  4  5  1  0  0  0  0
  5  6  2  0  0  0  0
  6 10  1  0  0  0  0
  6  7  1  0  0  0  0
  7  8  1  0  0  0  0
  8  9  2  0  0  0  0
  9 10  1  0  0  0  0
  9 11  1  0  0  0  0
 11 12  1  0  0  0  0
 12 13  1  0  0  0  0
 13 14  1  0  0  0  0
 14 15  2  0  0  0  0
 14 16  1  0  0  0  0
 16 17  1  0  0  0  0
 16 18  1  0  0  0  0
  4 19  1  0  0  0  0
 19 20  1  0  0  0  0
M  CHG  1  12   1
M  END
$$$$
s_240690b____13040954____7368582
  -OEChem-03222016482D

 19 20  0     0  0  0  0  0  0999 V2000
    6.8641   -4.7407    0.0000 C   0  0  0  0  0  0  0  0  0  0  0  0
    6.5551   -3.7896    0.0000 N   0  3  0  0  0  0  0  0  0  0  0  0
    5.5770   -3.5816    0.0000 C   0  0  0  0  0  0  0  0  0  0  0  0
    5.2680   -2.6306    0.0000 C   0  0  0  0  0  0  0  0  0  0  0  0
    5.9372   -1.8874    0.0000 O   0  0  0  0  0  0  0  0  0  0  0  0
    4.2899   -2.4226    0.0000 N   0  0  0  0  0  0  0  0  0  0  0  0
    3.9809   -1.4715    0.0000 C   0  0  0  0  0  0  0  0  0  0  0  0
    3.0028   -1.2636    0.0000 C   0  0  0  0  0  0  0  0  0  0  0  0
    2.6938   -0.3125    0.0000 C   0  0  0  0  0  0  0  0  0  0  0  0
    3.2858    0.5023    0.0000 C   0  0  0  0  0  0  0  0  0  0  0  0
    2.6938    1.3169    0.0000 N   0  0  0  0  0  0  0  0  0  0  0  0
    1.7360    1.0058    0.0000 C   0  0  0  0  0  0  0  0  0  0  0  0
    1.7360   -0.0012    0.0000 C   0  0  0  0  0  0  0  0  0  0  0  0
    0.8680   -0.4978    0.0000 C   0  0  0  0  0  0  0  0  0  0  0  0
    0.0000    0.0000    0.0000 C   0  0  0  0  0  0  0  0  0  0  0  0
   -0.0000    1.0058    0.0000 C   0  0  0  0  0  0  0  0  0  0  0  0
    0.8680    1.5138    0.0000 C   0  0  0  0  0  0  0  0  0  0  0  0
   -0.8675    1.5032    0.0000 F   0  0  0  0  0  0  0  0  0  0  0  0
   -0.8653   -0.5013    0.0000 F   0  0  0  0  0  0  0  0  0  0  0  0
  1  2  1  0  0  0  0
  2  3  1  0  0  0  0
  3  4  1  0  0  0  0
  4  5  2  0  0  0  0
  4  6  1  0  0  0  0
  6  7  1  0  0  0  0
  7  8  1  0  0  0  0
  8  9  1  0  0  0  0
  9 13  1  0  0  0  0
  9 10  2  0  0  0  0
 10 11  1  0  0  0  0
 11 12  1  0  0  0  0
 12 17  2  0  0  0  0
 12 13  1  0  0  0  0
 13 14  2  0  0  0  0
 14 15  1  0  0  0  0
 15 16  2  0  0  0  0
 16 17  1  0  0  0  0
 16 18  1  0  0  0  0
 15 19  1  0  0  0  0
M  CHG  1   2   1
M  END
$$$$
s_22____9226532____7941800
  -OEChem-03222016482D

 19 20  0     0  0  0  0  0  0999 V2000
    1.7327   -2.9983    0.0000 C   0  0  0  0  0  0  0  0  0  0  0  0
    1.7332   -1.9983    0.0000 C   0  0  0  0  0  0  0  0  0  0  0  0
    0.8675   -1.4978    0.0000 O   0  0  0  0  0  0  0  0  0  0  0  0
    0.8680   -0.4978    0.0000 C   0  0  0  0  0  0  0  0  0  0  0  0
    0.0000    0.0000    0.0000 C   0  0  0  0  0  0  0  0  0  0  0  0
   -0.0000    1.0058    0.0000 C   0  0  0  0  0  0  0  0  0  0  0  0
    0.8680    1.5138    0.0000 C   0  0  0  0  0  0  0  0  0  0  0  0
    1.7360    1.0058    0.0000 C   0  0  0  0  0  0  0  0  0  0  0  0
    1.7360   -0.0012    0.0000 C   0  0  0  0  0  0  0  0  0  0  0  0
    2.6938   -0.3125    0.0000 C   0  0  0  0  0  0  0  0  0  0  0  0
    3.2858    0.5023    0.0000 C   0  0  0  0  0  0  0  0  0  0  0  0
    2.6938    1.3169    0.0000 N   0  0  0  0  0  0  0  0  0  0  0  0
    3.0028   -1.2636    0.0000 C   0  0  0  0  0  0  0  0  0  0  0  0
    3.9809   -1.4715    0.0000 C   0  0  0  0  0  0  0  0  0  0  0  0
    4.2899   -2.4226    0.0000 N   0  0  0  0  0  0  0  0  0  0  0  0
    5.2680   -2.6306    0.0000 C   0  0  0  0  0  0  0  0  0  0  0  0
    5.9372   -1.8874    0.0000 O   0  0  0  0  0  0  0  0  0  0  0  0
    5.5770   -3.5816    0.0000 C   0  0  0  0  0  0  0  0  0  0  0  0
    6.5551   -3.7896    0.0000 O   0  0  0  0  0  0  0  0  0  0  0  0
  1  2  1  0  0  0  0
  2  3  1  0  0  0  0
  3  4  1  0  0  0  0
  4  9  2  0  0  0  0
  4  5  1  0  0  0  0
  5  6  2  0  0  0  0
  6  7  1  0  0  0  0
  7  8  2  0  0  0  0
  8 12  1  0  0  0  0
  8  9  1  0  0  0  0
  9 10  1  0  0  0  0
 10 11  2  0  0  0  0
 11 12  1  0  0  0  0
 10 13  1  0  0  0  0
 13 14  1  0  0  0  0
 14 15  1  0  0  0  0
 15 16  1  0  0  0  0
 16 17  2  0  0  0  0
 16 18  1  0  0  0  0
 18 19  1  0  0  0  0
M  END
$$$$
s_273270____16373254____10884640
  -OEChem-03222016482D

 18 19  0     0  0  0  0  0  0999 V2000
    1.7340    3.0138    0.0000 C   0  0  0  0  0  0  0  0  0  0  0  0
    0.8680    2.5138    0.0000 O   0  0  0  0  0  0  0  0  0  0  0  0
    0.8680    1.5138    0.0000 C   0  0  0  0  0  0  0  0  0  0  0  0
    0.0000    1.0058    0.0000 C   0  0  0  0  0  0  0  0  0  0  0  0
    0.0000    0.0000    0.0000 C   0  0  0  0  0  0  0  0  0  0  0  0
    0.8680   -0.4978    0.0000 C   0  0  0  0  0  0  0  0  0  0  0  0
    1.7360   -0.0012    0.0000 C   0  0  0  0  0  0  0  0  0  0  0  0
    1.7360    1.0058    0.0000 C   0  0  0  0  0  0  0  0  0  0  0  0
    2.6938    1.3169    0.0000 N   0  0  0  0  0  0  0  0  0  0  0  0
    3.2858    0.5023    0.0000 C   0  0  0  0  0  0  0  0  0  0  0  0
    2.6938   -0.3125    0.0000 C   0  0  0  0  0  0  0  0  0  0  0  0
    3.0028   -1.2636    0.0000 C   0  0  0  0  0  0  0  0  0  0  0  0
    3.9809   -1.4715    0.0000 C   0  0  0  0  0  0  0  0  0  0  0  0
    4.2899   -2.4226    0.0000 N   0  0  0  0  0  0  0  0  0  0  0  0
    5.2680   -2.6306    0.0000 C   0  0  0  0  0  0  0  0  0  0  0  0
    5.9372   -1.8874    0.0000 O   0  0  0  0  0  0  0  0  0  0  0  0
    5.5770   -3.5816    0.0000 C   0  0  0  0  0  0  0  0  0  0  0  0
    6.5551   -3.7896    0.0000 C   0  0  0  0  0  0  0  0  0  0  0  0
  1  2  1  0  0  0  0
  2  3  1  0  0  0  0
  3  8  2  0  0  0  0
  3  4  1  0  0  0  0
  4  5  2  0  0  0  0
  5  6  1  0  0  0  0
  6  7  2  0  0  0  0
  7 11  1  0  0  0  0
  7  8  1  0  0  0  0
  8  9  1  0  0  0  0
  9 10  1  0  0  0  0
 10 11  2  0  0  0  0
 11 12  1  0  0  0  0
 12 13  1  0  0  0  0
 13 14  1  0  0  0  0
 14 15  1  0  0  0  0
 15 16  2  0  0  0  0
 15 17  1  0  0  0  0
 17 18  2  0  0  0  0
M  END
$$$$
s_22____9966972____9296322
  -OEChem-03222016482D

 19 20  0     0  0  0  0  0  0999 V2000
    0.2749   -6.8813    0.0000 C   0  0  0  0  0  0  0  0  0  0  0  0
    0.9440   -6.1382    0.0000 C   0  0  0  0  0  0  0  0  0  0  0  0
    1.6132   -5.3951    0.0000 C   0  0  0  0  0  0  0  0  0  0  0  0
    2.2824   -4.6519    0.0000 C   0  0  0  0  0  0  0  0  0  0  0  0
    3.2605   -4.8599    0.0000 O   0  0  0  0  0  0  0  0  0  0  0  0
    1.9734   -3.7009    0.0000 N   0  0  0  0  0  0  0  0  0  0  0  0
    2.6426   -2.9578    0.0000 C   0  0  0  0  0  0  0  0  0  0  0  0
    2.3336   -2.0067    0.0000 C   0  0  0  0  0  0  0  0  0  0  0  0
    3.0028   -1.2636    0.0000 C   0  0  0  0  0  0  0  0  0  0  0  0
    2.6938   -0.3125    0.0000 C   0  0  0  0  0  0  0  0  0  0  0  0
    3.2858    0.5023    0.0000 C   0  0  0  0  0  0  0  0  0  0  0  0
    2.6938    1.3169    0.0000 N   0  0  0  0  0  0  0  0  0  0  0  0
    1.7360    1.0058    0.0000 C   0  0  0  0  0  0  0  0  0  0  0  0
    1.7360   -0.0012    0.0000 C   0  0  0  0  0  0  0  0  0  0  0  0
    0.8680   -0.4978    0.0000 C   0  0  0  0  0  0  0  0  0  0  0  0
    0.0000    0.0000    0.0000 C   0  0  0  0  0  0  0  0  0  0  0  0
   -0.0000    1.0058    0.0000 C   0  0  0  0  0  0  0  0  0  0  0  0
    0.8680    1.5138    0.0000 C   0  0  0  0  0  0  0  0  0  0  0  0
   -0.8653   -0.5013    0.0000 F   0  0  0  0  0  0  0  0  0  0  0  0
  1  2  1  0  0  0  0
  2  3  3  0  0  0  0
  3  4  1  0  0  0  0
  4  5  2  0  0  0  0
  4  6  1  0  0  0  0
  6  7  1  0  0  0  0
  7  8  1  0  0  0  0
  8  9  1  0  0  0  0
  9 10  1  0  0  0  0
 10 14  1  0  0  0  0
 10 11  2  0  0  0  0
 11 12  1  0  0  0  0
 12 13  1  0  0  0  0
 13 18  2  0  0  0  0
 13 14  1  0  0  0  0
 14 15  2  0  0  0  0
 15 16  1  0  0  0  0
 16 17  2  0  0  0  0
 17 18  1  0  0  0  0
 16 19  1  0  0  0  0
M  END
$$$$
s_275532____13829896____16621902
  -OEChem-03222016482D

 20 21  0     1  0  0  0  0  0999 V2000
    5.7860   -2.0956    0.0000 C   0  0  0  0  0  0  0  0  0  0  0  0
    6.2859   -1.2296    0.0000 C   0  0  3  0  0  0  0  0  0  0  0  0
    5.7859   -0.3636    0.0000 C   0  0  0  0  0  0  0  0  0  0  0  0
    4.7859   -0.3636    0.0000 N   0  3  3  0  0  0  0  0  0  0  0  0
    4.2859   -1.2297    0.0000 C   0  0  0  0  0  0  0  0  0  0  0  0
    4.2858    0.5024    0.0000 C   0  0  0  0  0  0  0  0  0  0  0  0
    3.2858    0.5023    0.0000 C   0  0  0  0  0  0  0  0  0  0  0  0
    2.6938   -0.3125    0.0000 C   0  0  0  0  0  0  0  0  0  0  0  0
    1.7360   -0.0012    0.0000 C   0  0  0  0  0  0  0  0  0  0  0  0
    0.8680   -0.4978    0.0000 C   0  0  0  0  0  0  0  0  0  0  0  0
    0.0000    0.0000    0.0000 C   0  0  0  0  0  0  0  0  0  0  0  0
    0.0000    1.0058    0.0000 C   0  0  0  0  0  0  0  0  0  0  0  0
    0.8680    1.5138    0.0000 C   0  0  0  0  0  0  0  0  0  0  0  0
    1.7360    1.0058    0.0000 C   0  0  0  0  0  0  0  0  0  0  0  0
    2.6938    1.3169    0.0000 N   0  0  0  0  0  0  0  0  0  0  0  0
   -0.8653   -0.5013    0.0000 O   0  0  0  0  0  0  0  0  0  0  0  0
   -0.8639   -1.5013    0.0000 C   0  0  0  0  0  0  0  0  0  0  0  0
    7.2859   -1.2295    0.0000 C   0  0  0  0  0  0  0  0  0  0  0  0
    7.7858   -0.3635    0.0000 O   0  0  0  0  0  0  0  0  0  0  0  0
    7.7860   -2.0955    0.0000 O   0  5  0  0  0  0  0  0  0  0  0  0
  1  2  1  0  0  0  0
  2  3  1  0  0  0  0
  3  4  1  0  0  0  0
  4  5  1  0  0  0  0
  4  6  1  0  0  0  0
  6  7  1  0  0  0  0
  7 15  1  0  0  0  0
  7  8  2  0  0  0  0
  8  9  1  0  0  0  0
  9 14  2  0  0  0  0
  9 10  1  0  0  0  0
 10 11  2  0  0  0  0
 11 12  1  0  0  0  0
 12 13  2  0  0  0  0
 13 14  1  0  0  0  0
 14 15  1  0  0  0  0
 11 16  1  0  0  0  0
 16 17  1  0  0  0  0
  2 18  1  0  0  0  0
 18 19  2  0  0  0  0
 18 20  1  0  0  0  0
M  CHG  2   4   1  20  -1
M  END
$$$$
s_240690b____13978894____3025698
  -OEChem-03222016482D

 18 19  0     0  0  0  0  0  0999 V2000
   -0.8705    2.5032    0.0000 C   0  0  0  0  0  0  0  0  0  0  0  0
   -0.8675    1.5032    0.0000 O   0  0  0  0  0  0  0  0  0  0  0  0
    0.0000    1.0058    0.0000 C   0  0  0  0  0  0  0  0  0  0  0  0
    0.0000    0.0000    0.0000 C   0  0  0  0  0  0  0  0  0  0  0  0
    0.8680   -0.4978    0.0000 C   0  0  0  0  0  0  0  0  0  0  0  0
    1.7360   -0.0012    0.0000 C   0  0  0  0  0  0  0  0  0  0  0  0
    1.7360    1.0058    0.0000 C   0  0  0  0  0  0  0  0  0  0  0  0
    0.8680    1.5138    0.0000 C   0  0  0  0  0  0  0  0  0  0  0  0
    2.6938    1.3169    0.0000 N   0  0  0  0  0  0  0  0  0  0  0  0
    3.2858    0.5023    0.0000 C   0  0  0  0  0  0  0  0  0  0  0  0
    2.6938   -0.3125    0.0000 C   0  0  0  0  0  0  0  0  0  0  0  0
    3.0028   -1.2636    0.0000 C   0  0  0  0  0  0  0  0  0  0  0  0
    3.9809   -1.4715    0.0000 C   0  0  0  0  0  0  0  0  0  0  0  0
    4.2899   -2.4226    0.0000 N   0  0  0  0  0  0  0  0  0  0  0  0
    5.2680   -2.6306    0.0000 C   0  0  0  0  0  0  0  0  0  0  0  0
    5.9372   -1.8874    0.0000 O   0  0  0  0  0  0  0  0  0  0  0  0
    5.5770   -3.5816    0.0000 C   0  0  0  0  0  0  0  0  0  0  0  0
    6.5551   -3.7896    0.0000 N   0  3  0  0  0  0  0  0  0  0  0  0
  1  2  1  0  0  0  0
  2  3  1  0  0  0  0
  3  8  2  0  0  0  0
  3  4  1  0  0  0  0
  4  5  2  0  0  0  0
  5  6  1  0  0  0  0
  6 11  1  0  0  0  0
  6  7  2  0  0  0  0
  7  8  1  0  0  0  0
  7  9  1  0  0  0  0
  9 10  1  0  0  0  0
 10 11  2  0  0  0  0
 11 12  1  0  0  0  0
 12 13  1  0  0  0  0
 13 14  1  0  0  0  0
 14 15  1  0  0  0  0
 15 16  2  0  0  0  0
 15 17  1  0  0  0  0
 17 18  1  0  0  0  0
M  CHG  1  18   1
M  END
$$$$
s_22____15506616____11560700
  -OEChem-03222016482D

 21 23  0     0  0  0  0  0  0999 V2000
    1.7340    3.0138    0.0000 C   0  0  0  0  0  0  0  0  0  0  0  0
    0.8680    2.5138    0.0000 O   0  0  0  0  0  0  0  0  0  0  0  0
    0.8680    1.5138    0.0000 C   0  0  0  0  0  0  0  0  0  0  0  0
    0.0000    1.0058    0.0000 C   0  0  0  0  0  0  0  0  0  0  0  0
    0.0000    0.0000    0.0000 C   0  0  0  0  0  0  0  0  0  0  0  0
    0.8680   -0.4978    0.0000 C   0  0  0  0  0  0  0  0  0  0  0  0
    1.7360   -0.0012    0.0000 C   0  0  0  0  0  0  0  0  0  0  0  0
    1.7360    1.0058    0.0000 C   0  0  0  0  0  0  0  0  0  0  0  0
    2.6938    1.3169    0.0000 N   0  0  0  0  0  0  0  0  0  0  0  0
    3.2858    0.5023    0.0000 C   0  0  0  0  0  0  0  0  0  0  0  0
    2.6938   -0.3125    0.0000 C   0  0  0  0  0  0  0  0  0  0  0  0
    3.0028   -1.2636    0.0000 C   0  0  0  0  0  0  0  0  0  0  0  0
    3.9809   -1.4715    0.0000 C   0  0  0  0  0  0  0  0  0  0  0  0
    4.2899   -2.4226    0.0000 N   0  0  0  0  0  0  0  0  0  0  0  0
    5.2680   -2.6306    0.0000 C   0  0  0  0  0  0  0  0  0  0  0  0
    5.9372   -1.8874    0.0000 O   0  0  0  0  0  0  0  0  0  0  0  0
    5.5770   -3.5816    0.0000 C   0  0  0  0  0  0  0  0  0  0  0  0
    6.5551   -3.7896    0.0000 C   0  0  0  0  0  0  0  0  0  0  0  0
    7.3937   -3.2450    0.0000 C   0  0  0  0  0  0  0  0  0  0  0  0
    7.9383   -4.0837    0.0000 S   0  0  0  0  0  0  0  0  0  0  0  0
    7.0997   -4.6282    0.0000 C   0  0  0  0  0  0  0  0  0  0  0  0
  1  2  1  0  0  0  0
  2  3  1  0  0  0  0
  3  8  2  0  0  0  0
  3  4  1  0  0  0  0
  4  5  2  0  0  0  0
  5  6  1  0  0  0  0
  6  7  2  0  0  0  0
  7 11  1  0  0  0  0
  7  8  1  0  0  0  0
  8  9  1  0  0  0  0
  9 10  1  0  0  0  0
 10 11  2  0  0  0  0
 11 12  1  0  0  0  0
 12 13  1  0  0  0  0
 13 14  1  0  0  0  0
 14 15  1  0  0  0  0
 15 16  2  0  0  0  0
 15 17  1  0  0  0  0
 17 18  1  0  0  0  0
 18 21  1  0  0  0  0
 18 19  1  0  0  0  0
 19 20  1  0  0  0  0
 20 21  1  0  0  0  0
M  END
$$$$
s_22____4839448____9322364
  -OEChem-03222016482D

 21 22  0     0  0  0  0  0  0999 V2000
   -1.7320   -0.0025    0.0000 C   0  0  0  0  0  0  0  0  0  0  0  0
   -0.8653   -0.5013    0.0000 O   0  0  0  0  0  0  0  0  0  0  0  0
    0.0000    0.0000    0.0000 C   0  0  0  0  0  0  0  0  0  0  0  0
   -0.0000    1.0058    0.0000 C   0  0  0  0  0  0  0  0  0  0  0  0
    0.8680    1.5138    0.0000 C   0  0  0  0  0  0  0  0  0  0  0  0
    1.7360    1.0058    0.0000 C   0  0  0  0  0  0  0  0  0  0  0  0
    1.7360   -0.0012    0.0000 C   0  0  0  0  0  0  0  0  0  0  0  0
    0.8680   -0.4978    0.0000 C   0  0  0  0  0  0  0  0  0  0  0  0
    2.6938   -0.3125    0.0000 C   0  0  0  0  0  0  0  0  0  0  0  0
    3.2858    0.5023    0.0000 C   0  0  0  0  0  0  0  0  0  0  0  0
    2.6938    1.3169    0.0000 N   0  0  0  0  0  0  0  0  0  0  0  0
    3.0028   -1.2636    0.0000 C   0  0  0  0  0  0  0  0  0  0  0  0
    3.9809   -1.4715    0.0000 C   0  0  0  0  0  0  0  0  0  0  0  0
    4.2899   -2.4226    0.0000 N   0  0  0  0  0  0  0  0  0  0  0  0
    5.2680   -2.6306    0.0000 C   0  0  0  0  0  0  0  0  0  0  0  0
    5.9372   -1.8874    0.0000 O   0  0  0  0  0  0  0  0  0  0  0  0
    5.5770   -3.5816    0.0000 C   0  0  0  0  0  0  0  0  0  0  0  0
    6.5551   -3.7896    0.0000 C   0  0  0  0  0  0  0  0  0  0  0  0
    6.8641   -4.7407    0.0000 C   0  0  0  0  0  0  0  0  0  0  0  0
    7.8422   -4.9486    0.0000 C   0  0  0  0  0  0  0  0  0  0  0  0
    8.8204   -5.1566    0.0000 C   0  0  0  0  0  0  0  0  0  0  0  0
  1  2  1  0  0  0  0
  2  3  1  0  0  0  0
  3  8  2  0  0  0  0
  3  4  1  0  0  0  0
  4  5  2  0  0  0  0
  5  6  1  0  0  0  0
  6 11  1  0  0  0  0
  6  7  2  0  0  0  0
  7  8  1  0  0  0  0
  7  9  1  0  0  0  0
  9 10  2  0  0  0  0
 10 11  1  0  0  0  0
  9 12  1  0  0  0  0
 12 13  1  0  0  0  0
 13 14  1  0  0  0  0
 14 15  1  0  0  0  0
 15 16  2  0  0  0  0
 15 17  1  0  0  0  0
 17 18  1  0  0  0  0
 18 19  1  0  0  0  0
 19 20  1  0  0  0  0
 20 21  3  0  0  0  0
M  END
$$$$
s_22____15754586____337030
  -OEChem-03222016482D

 20 21  0     1  0  0  0  0  0999 V2000
    6.5551   -3.7896    0.0000 C   0  0  0  0  0  0  0  0  0  0  0  0
    5.5770   -3.5816    0.0000 C   0  0  0  0  0  0  0  0  0  0  0  0
    4.9078   -4.3247    0.0000 C   0  0  0  0  0  0  0  0  0  0  0  0
    5.2680   -2.6306    0.0000 C   0  0  0  0  0  0  0  0  0  0  0  0
    5.9372   -1.8874    0.0000 O   0  0  0  0  0  0  0  0  0  0  0  0
    4.2899   -2.4226    0.0000 N   0  0  0  0  0  0  0  0  0  0  0  0
    3.9809   -1.4715    0.0000 C   0  0  0  0  0  0  0  0  0  0  0  0
    3.0028   -1.2636    0.0000 C   0  0  3  0  0  0  0  0  0  0  0  0
    2.3336   -2.0067    0.0000 C   0  0  0  0  0  0  0  0  0  0  0  0
    2.6938   -0.3125    0.0000 C   0  0  0  0  0  0  0  0  0  0  0  0
    3.2858    0.5023    0.0000 C   0  0  0  0  0  0  0  0  0  0  0  0
    2.6938    1.3169    0.0000 N   0  0  0  0  0  0  0  0  0  0  0  0
    1.7360    1.0058    0.0000 C   0  0  0  0  0  0  0  0  0  0  0  0
    1.7360   -0.0012    0.0000 C   0  0  0  0  0  0  0  0  0  0  0  0
    0.8680   -0.4978    0.0000 C   0  0  0  0  0  0  0  0  0  0  0  0
    0.0000    0.0000    0.0000 C   0  0  0  0  0  0  0  0  0  0  0  0
   -0.0000    1.0058    0.0000 C   0  0  0  0  0  0  0  0  0  0  0  0
    0.8680    1.5138    0.0000 C   0  0  0  0  0  0  0  0  0  0  0  0
   -0.8653   -0.5013    0.0000 O   0  0  0  0  0  0  0  0  0  0  0  0
   -0.8639   -1.5013    0.0000 C   0  0  0  0  0  0  0  0  0  0  0  0
  1  2  1  0  0  0  0
  2  3  1  0  0  0  0
  2  4  1  0  0  0  0
  4  5  2  0  0  0  0
  4  6  1  0  0  0  0
  6  7  1  0  0  0  0
  7  8  1  0  0  0  0
  8  9  1  0  0  0  0
  8 10  1  0  0  0  0
 10 14  1  0  0  0  0
 10 11  2  0  0  0  0
 11 12  1  0  0  0  0
 12 13  1  0  0  0  0
 13 18  2  0  0  0  0
 13 14  1  0  0  0  0
 14 15  2  0  0  0  0
 15 16  1  0  0  0  0
 16 17  2  0  0  0  0
 17 18  1  0  0  0  0
 16 19  1  0  0  0  0
 19 20  1  0  0  0  0
M  END
$$$$
s_240690b____12637968____3025680
  -OEChem-03222016482D

 20 21  0     0  0  0  0  0  0999 V2000
    3.9538   -0.9546    0.0000 C   0  0  0  0  0  0  0  0  0  0  0  0
    3.0028   -1.2636    0.0000 C   0  0  0  0  0  0  0  0  0  0  0  0
    2.0517   -1.5725    0.0000 C   0  0  0  0  0  0  0  0  0  0  0  0
    3.3117   -2.2146    0.0000 C   0  0  0  0  0  0  0  0  0  0  0  0
    4.2899   -2.4226    0.0000 N   0  0  0  0  0  0  0  0  0  0  0  0
    4.5989   -3.3737    0.0000 C   0  0  0  0  0  0  0  0  0  0  0  0
    3.9297   -4.1168    0.0000 O   0  0  0  0  0  0  0  0  0  0  0  0
    5.5770   -3.5816    0.0000 C   0  0  0  0  0  0  0  0  0  0  0  0
    5.8860   -4.5327    0.0000 C   0  0  0  0  0  0  0  0  0  0  0  0
    6.8641   -4.7407    0.0000 N   0  3  0  0  0  0  0  0  0  0  0  0
    2.6938   -0.3125    0.0000 C   0  0  0  0  0  0  0  0  0  0  0  0
    3.2858    0.5023    0.0000 C   0  0  0  0  0  0  0  0  0  0  0  0
    2.6938    1.3169    0.0000 N   0  0  0  0  0  0  0  0  0  0  0  0
    1.7360    1.0058    0.0000 C   0  0  0  0  0  0  0  0  0  0  0  0
    1.7360   -0.0012    0.0000 C   0  0  0  0  0  0  0  0  0  0  0  0
    0.8680   -0.4978    0.0000 C   0  0  0  0  0  0  0  0  0  0  0  0
    0.0000    0.0000    0.0000 C   0  0  0  0  0  0  0  0  0  0  0  0
   -0.0000    1.0058    0.0000 C   0  0  0  0  0  0  0  0  0  0  0  0
    0.8680    1.5138    0.0000 C   0  0  0  0  0  0  0  0  0  0  0  0
   -0.8675    1.5032    0.0000 F   0  0  0  0  0  0  0  0  0  0  0  0
  1  2  1  0  0  0  0
  2  3  1  0  0  0  0
  2  4  1  0  0  0  0
  4  5  1  0  0  0  0
  5  6  1  0  0  0  0
  6  7  2  0  0  0  0
  6  8  1  0  0  0  0
  8  9  1  0  0  0  0
  9 10  1  0  0  0  0
  2 11  1  0  0  0  0
 11 15  1  0  0  0  0
 11 12  2  0  0  0  0
 12 13  1  0  0  0  0
 13 14  1  0  0  0  0
 14 19  2  0  0  0  0
 14 15  1  0  0  0  0
 15 16  2  0  0  0  0
 16 17  1  0  0  0  0
 17 18  2  0  0  0  0
 18 19  1  0  0  0  0
 18 20  1  0  0  0  0
M  CHG  1  10   1
M  END
$$$$
s_270004____8294786____16621896
  -OEChem-03222016482D

 20 21  0     0  0  0  0  0  0999 V2000
    8.7859   -2.0955    0.0000 C   0  0  0  0  0  0  0  0  0  0  0  0
    7.7860   -2.0955    0.0000 N   0  0  0  0  0  0  0  0  0  0  0  0
    7.2860   -2.9616    0.0000 C   0  0  0  0  0  0  0  0  0  0  0  0
    7.2859   -1.2295    0.0000 C   0  0  0  0  0  0  0  0  0  0  0  0
    7.7858   -0.3635    0.0000 O   0  0  0  0  0  0  0  0  0  0  0  0
    6.2859   -1.2296    0.0000 C   0  0  0  0  0  0  0  0  0  0  0  0
    5.7859   -0.3636    0.0000 C   0  0  0  0  0  0  0  0  0  0  0  0
    4.7859   -0.3636    0.0000 N   0  3  0  0  0  0  0  0  0  0  0  0
    4.2858    0.5024    0.0000 C   0  0  0  0  0  0  0  0  0  0  0  0
    3.2858    0.5023    0.0000 C   0  0  0  0  0  0  0  0  0  0  0  0
    2.6938   -0.3125    0.0000 C   0  0  0  0  0  0  0  0  0  0  0  0
    1.7360   -0.0012    0.0000 C   0  0  0  0  0  0  0  0  0  0  0  0
    0.8680   -0.4978    0.0000 C   0  0  0  0  0  0  0  0  0  0  0  0
    0.0000    0.0000    0.0000 C   0  0  0  0  0  0  0  0  0  0  0  0
    0.0000    1.0058    0.0000 C   0  0  0  0  0  0  0  0  0  0  0  0
    0.8680    1.5138    0.0000 C   0  0  0  0  0  0  0  0  0  0  0  0
    1.7360    1.0058    0.0000 C   0  0  0  0  0  0  0  0  0  0  0  0
    2.6938    1.3169    0.0000 N   0  0  0  0  0  0  0  0  0  0  0  0
   -0.8653   -0.5013    0.0000 O   0  0  0  0  0  0  0  0  0  0  0  0
   -0.8639   -1.5013    0.0000 C   0  0  0  0  0  0  0  0  0  0  0  0
  1  2  1  0  0  0  0
  2  3  1  0  0  0  0
  2  4  1  0  0  0  0
  4  5  2  0  0  0  0
  4  6  1  0  0  0  0
  6  7  1  0  0  0  0
  7  8  1  0  0  0  0
  8  9  1  0  0  0  0
  9 10  1  0  0  0  0
 10 18  1  0  0  0  0
 10 11  2  0  0  0  0
 11 12  1  0  0  0  0
 12 17  2  0  0  0  0
 12 13  1  0  0  0  0
 13 14  2  0  0  0  0
 14 15  1  0  0  0  0
 15 16  2  0  0  0  0
 16 17  1  0  0  0  0
 17 18  1  0  0  0  0
 14 19  1  0  0  0  0
 19 20  1  0  0  0  0
M  CHG  1   8   1
M  END
$$$$
s_2554____2366562____951600
  -OEChem-03222016482D

 18 19  0     0  0  0  0  0  0999 V2000
    6.8641   -4.7407    0.0000 C   0  0  0  0  0  0  0  0  0  0  0  0
    6.5551   -3.7896    0.0000 C   0  0  0  0  0  0  0  0  0  0  0  0
    5.5770   -3.5816    0.0000 N   0  0  0  0  0  0  0  0  0  0  0  0
    5.2680   -2.6306    0.0000 C   0  0  0  0  0  0  0  0  0  0  0  0
    5.9372   -1.8874    0.0000 O   0  0  0  0  0  0  0  0  0  0  0  0
    4.2899   -2.4226    0.0000 N   0  0  0  0  0  0  0  0  0  0  0  0
    3.9809   -1.4715    0.0000 C   0  0  0  0  0  0  0  0  0  0  0  0
    3.0028   -1.2636    0.0000 C   0  0  0  0  0  0  0  0  0  0  0  0
    2.6938   -0.3125    0.0000 C   0  0  0  0  0  0  0  0  0  0  0  0
    3.2858    0.5023    0.0000 C   0  0  0  0  0  0  0  0  0  0  0  0
    2.6938    1.3169    0.0000 N   0  0  0  0  0  0  0  0  0  0  0  0
    1.7360    1.0058    0.0000 C   0  0  0  0  0  0  0  0  0  0  0  0
    1.7360   -0.0012    0.0000 C   0  0  0  0  0  0  0  0  0  0  0  0
    0.8680   -0.4978    0.0000 C   0  0  0  0  0  0  0  0  0  0  0  0
    0.0000    0.0000    0.0000 C   0  0  0  0  0  0  0  0  0  0  0  0
   -0.0000    1.0058    0.0000 C   0  0  0  0  0  0  0  0  0  0  0  0
    0.8680    1.5138    0.0000 C   0  0  0  0  0  0  0  0  0  0  0  0
   -0.8675    1.5032    0.0000 F   0  0  0  0  0  0  0  0  0  0  0  0
  1  2  1  0  0  0  0
  2  3  1  0  0  0  0
  3  4  1  0  0  0  0
  4  5  2  0  0  0  0
  4  6  1  0  0  0  0
  6  7  1  0  0  0  0
  7  8  1  0  0  0  0
  8  9  1  0  0  0  0
  9 13  1  0  0  0  0
  9 10  2  0  0  0  0
 10 11  1  0  0  0  0
 11 12  1  0  0  0  0
 12 17  2  0  0  0  0
 12 13  1  0  0  0  0
 13 14  2  0  0  0  0
 14 15  1  0  0  0  0
 15 16  2  0  0  0  0
 16 17  1  0  0  0  0
 16 18  1  0  0  0  0
M  END
$$$$
s_270062____7623638____8147258
  -OEChem-03222016482D

 21 22  0     0  0  0  0  0  0999 V2000
   -0.8705    2.5032    0.0000 C   0  0  0  0  0  0  0  0  0  0  0  0
   -0.8675    1.5032    0.0000 O   0  0  0  0  0  0  0  0  0  0  0  0
   -0.0000    1.0058    0.0000 C   0  0  0  0  0  0  0  0  0  0  0  0
    0.8680    1.5138    0.0000 C   0  0  0  0  0  0  0  0  0  0  0  0
    1.7360    1.0058    0.0000 C   0  0  0  0  0  0  0  0  0  0  0  0
    1.7360   -0.0012    0.0000 C   0  0  0  0  0  0  0  0  0  0  0  0
    2.6938   -0.3125    0.0000 C   0  0  0  0  0  0  0  0  0  0  0  0
    3.2858    0.5023    0.0000 C   0  0  0  0  0  0  0  0  0  0  0  0
    2.6938    1.3169    0.0000 N   0  0  0  0  0  0  0  0  0  0  0  0
    4.2858    0.5024    0.0000 C   0  0  0  0  0  0  0  0  0  0  0  0
    4.7857    1.3684    0.0000 C   0  0  0  0  0  0  0  0  0  0  0  0
    5.7857    1.3685    0.0000 C   0  0  0  0  0  0  0  0  0  0  0  0
    6.2857    2.2345    0.0000 N   0  0  0  0  0  0  0  0  0  0  0  0
    7.2857    2.2346    0.0000 C   0  0  0  0  0  0  0  0  0  0  0  0
    7.7857    1.3686    0.0000 O   0  0  0  0  0  0  0  0  0  0  0  0
    7.7856    3.1006    0.0000 C   0  0  0  0  0  0  0  0  0  0  0  0
    8.7856    3.1007    0.0000 Cl  0  0  0  0  0  0  0  0  0  0  0  0
    0.8680   -0.4978    0.0000 C   0  0  0  0  0  0  0  0  0  0  0  0
    0.0000    0.0000    0.0000 C   0  0  0  0  0  0  0  0  0  0  0  0
    0.8675   -1.4978    0.0000 O   0  0  0  0  0  0  0  0  0  0  0  0
    1.7332   -1.9983    0.0000 C   0  0  0  0  0  0  0  0  0  0  0  0
  1  2  1  0  0  0  0
  2  3  1  0  0  0  0
  3 19  2  0  0  0  0
  3  4  1  0  0  0  0
  4  5  2  0  0  0  0
  5  9  1  0  0  0  0
  5  6  1  0  0  0  0
  6  7  1  0  0  0  0
  7  8  2  0  0  0  0
  8  9  1  0  0  0  0
  8 10  1  0  0  0  0
 10 11  1  0  0  0  0
 11 12  1  0  0  0  0
 12 13  1  0  0  0  0
 13 14  1  0  0  0  0
 14 15  2  0  0  0  0
 14 16  1  0  0  0  0
 16 17  1  0  0  0  0
  6 18  2  0  0  0  0
 18 19  1  0  0  0  0
 18 20  1  0  0  0  0
 20 21  1  0  0  0  0
M  END
$$$$
s_22____10303762____7941096
  -OEChem-03222016482D

 18 19  0     1  0  0  0  0  0999 V2000
    4.9078   -4.3247    0.0000 C   0  0  0  0  0  0  0  0  0  0  0  0
    5.5770   -3.5816    0.0000 C   0  0  3  0  0  0  0  0  0  0  0  0
    5.2680   -2.6306    0.0000 C   0  0  0  0  0  0  0  0  0  0  0  0
    5.9372   -1.8874    0.0000 O   0  0  0  0  0  0  0  0  0  0  0  0
    4.2899   -2.4226    0.0000 N   0  0  0  0  0  0  0  0  0  0  0  0
    3.9809   -1.4715    0.0000 C   0  0  0  0  0  0  0  0  0  0  0  0
    3.0028   -1.2636    0.0000 C   0  0  0  0  0  0  0  0  0  0  0  0
    2.6938   -0.3125    0.0000 C   0  0  0  0  0  0  0  0  0  0  0  0
    3.2858    0.5023    0.0000 C   0  0  0  0  0  0  0  0  0  0  0  0
    2.6938    1.3169    0.0000 N   0  0  0  0  0  0  0  0  0  0  0  0
    1.7360    1.0058    0.0000 C   0  0  0  0  0  0  0  0  0  0  0  0
    1.7360   -0.0012    0.0000 C   0  0  0  0  0  0  0  0  0  0  0  0
    0.8680   -0.4978    0.0000 C   0  0  0  0  0  0  0  0  0  0  0  0
    0.0000    0.0000    0.0000 C   0  0  0  0  0  0  0  0  0  0  0  0
   -0.0000    1.0058    0.0000 C   0  0  0  0  0  0  0  0  0  0  0  0
    0.8680    1.5138    0.0000 C   0  0  0  0  0  0  0  0  0  0  0  0
    0.8675   -1.4978    0.0000 Br  0  0  0  0  0  0  0  0  0  0  0  0
    6.5551   -3.7896    0.0000 O   0  0  0  0  0  0  0  0  0  0  0  0
  1  2  1  0  0  0  0
  2  3  1  0  0  0  0
  3  4  2  0  0  0  0
  3  5  1  0  0  0  0
  5  6  1  0  0  0  0
  6  7  1  0  0  0  0
  7  8  1  0  0  0  0
  8 12  1  0  0  0  0
  8  9  2  0  0  0  0
  9 10  1  0  0  0  0
 10 11  1  0  0  0  0
 11 16  2  0  0  0  0
 11 12  1  0  0  0  0
 12 13  2  0  0  0  0
 13 14  1  0  0  0  0
 14 15  2  0  0  0  0
 15 16  1  0  0  0  0
 13 17  1  0  0  0  0
  2 18  1  0  0  0  0
M  END
$$$$
s_22____9276248____58887
  -OEChem-03222016482D

 16 17  0     0  0  0  0  0  0999 V2000
    6.2859   -1.2296    0.0000 C   0  0  0  0  0  0  0  0  0  0  0  0
    5.7859   -0.3636    0.0000 C   0  0  0  0  0  0  0  0  0  0  0  0
    4.7859   -0.3636    0.0000 C   0  0  0  0  0  0  0  0  0  0  0  0
    4.2859   -1.2297    0.0000 O   0  0  0  0  0  0  0  0  0  0  0  0
    4.2858    0.5024    0.0000 N   0  0  0  0  0  0  0  0  0  0  0  0
    3.2858    0.5023    0.0000 C   0  0  0  0  0  0  0  0  0  0  0  0
    2.6938   -0.3125    0.0000 C   0  0  0  0  0  0  0  0  0  0  0  0
    1.7360   -0.0012    0.0000 C   0  0  0  0  0  0  0  0  0  0  0  0
    0.8680   -0.4978    0.0000 C   0  0  0  0  0  0  0  0  0  0  0  0
    0.0000    0.0000    0.0000 C   0  0  0  0  0  0  0  0  0  0  0  0
    0.0000    1.0058    0.0000 C   0  0  0  0  0  0  0  0  0  0  0  0
    0.8680    1.5138    0.0000 C   0  0  0  0  0  0  0  0  0  0  0  0
    1.7360    1.0058    0.0000 C   0  0  0  0  0  0  0  0  0  0  0  0
    2.6938    1.3169    0.0000 N   0  0  0  0  0  0  0  0  0  0  0  0
   -0.8653   -0.5013    0.0000 O   0  0  0  0  0  0  0  0  0  0  0  0
   -0.8639   -1.5013    0.0000 C   0  0  0  0  0  0  0  0  0  0  0  0
  1  2  1  0  0  0  0
  2  3  1  0  0  0  0
  3  4  2  0  0  0  0
  3  5  1  0  0  0  0
  5  6  1  0  0  0  0
  6 14  1  0  0  0  0
  6  7  2  0  0  0  0
  7  8  1  0  0  0  0
  8 13  2  0  0  0  0
  8  9  1  0  0  0  0
  9 10  2  0  0  0  0
 10 11  1  0  0  0  0
 11 12  2  0  0  0  0
 12 13  1  0  0  0  0
 13 14  1  0  0  0  0
 10 15  1  0  0  0  0
 15 16  1  0  0  0  0
M  END
$$$$
s_22____9192330____58844
  -OEChem-03222016482D

 18 19  0     0  0  0  0  0  0999 V2000
   -2.5974   -0.5038    0.0000 C   0  0  0  0  0  0  0  0  0  0  0  0
   -1.7320   -0.0025    0.0000 C   0  0  0  0  0  0  0  0  0  0  0  0
   -1.7335    0.9975    0.0000 C   0  0  0  0  0  0  0  0  0  0  0  0
   -0.8653   -0.5013    0.0000 O   0  0  0  0  0  0  0  0  0  0  0  0
    0.0000    0.0000    0.0000 C   0  0  0  0  0  0  0  0  0  0  0  0
   -0.0000    1.0058    0.0000 C   0  0  0  0  0  0  0  0  0  0  0  0
    0.8680    1.5138    0.0000 C   0  0  0  0  0  0  0  0  0  0  0  0
    1.7360    1.0058    0.0000 C   0  0  0  0  0  0  0  0  0  0  0  0
    1.7360   -0.0012    0.0000 C   0  0  0  0  0  0  0  0  0  0  0  0
    0.8680   -0.4978    0.0000 C   0  0  0  0  0  0  0  0  0  0  0  0
    2.6938   -0.3125    0.0000 C   0  0  0  0  0  0  0  0  0  0  0  0
    3.2858    0.5023    0.0000 C   0  0  0  0  0  0  0  0  0  0  0  0
    2.6938    1.3169    0.0000 N   0  0  0  0  0  0  0  0  0  0  0  0
    3.0028   -1.2636    0.0000 C   0  0  0  0  0  0  0  0  0  0  0  0
    3.9809   -1.4715    0.0000 N   0  0  0  0  0  0  0  0  0  0  0  0
    4.2899   -2.4226    0.0000 C   0  0  0  0  0  0  0  0  0  0  0  0
    3.6207   -3.1657    0.0000 O   0  0  0  0  0  0  0  0  0  0  0  0
    5.2680   -2.6306    0.0000 C   0  0  0  0  0  0  0  0  0  0  0  0
  1  2  1  0  0  0  0
  2  3  1  0  0  0  0
  2  4  1  0  0  0  0
  4  5  1  0  0  0  0
  5 10  2  0  0  0  0
  5  6  1  0  0  0  0
  6  7  2  0  0  0  0
  7  8  1  0  0  0  0
  8 13  1  0  0  0  0
  8  9  2  0  0  0  0
  9 10  1  0  0  0  0
  9 11  1  0  0  0  0
 11 12  2  0  0  0  0
 12 13  1  0  0  0  0
 11 14  1  0  0  0  0
 14 15  1  0  0  0  0
 15 16  1  0  0  0  0
 16 17  2  0  0  0  0
 16 18  1  0  0  0  0
M  END
$$$$
s_22____4839448____60364
  -OEChem-03222016482D

 19 20  0     0  0  0  0  0  0999 V2000
   -1.7320   -0.0025    0.0000 C   0  0  0  0  0  0  0  0  0  0  0  0
   -0.8653   -0.5013    0.0000 O   0  0  0  0  0  0  0  0  0  0  0  0
    0.0000    0.0000    0.0000 C   0  0  0  0  0  0  0  0  0  0  0  0
   -0.0000    1.0058    0.0000 C   0  0  0  0  0  0  0  0  0  0  0  0
    0.8680    1.5138    0.0000 C   0  0  0  0  0  0  0  0  0  0  0  0
    1.7360    1.0058    0.0000 C   0  0  0  0  0  0  0  0  0  0  0  0
    1.7360   -0.0012    0.0000 C   0  0  0  0  0  0  0  0  0  0  0  0
    0.8680   -0.4978    0.0000 C   0  0  0  0  0  0  0  0  0  0  0  0
    2.6938   -0.3125    0.0000 C   0  0  0  0  0  0  0  0  0  0  0  0
    3.2858    0.5023    0.0000 C   0  0  0  0  0  0  0  0  0  0  0  0
    2.6938    1.3169    0.0000 N   0  0  0  0  0  0  0  0  0  0  0  0
    3.0028   -1.2636    0.0000 C   0  0  0  0  0  0  0  0  0  0  0  0
    3.9809   -1.4715    0.0000 C   0  0  0  0  0  0  0  0  0  0  0  0
    4.2899   -2.4226    0.0000 N   0  0  0  0  0  0  0  0  0  0  0  0
    5.2680   -2.6306    0.0000 C   0  0  0  0  0  0  0  0  0  0  0  0
    5.9372   -1.8874    0.0000 O   0  0  0  0  0  0  0  0  0  0  0  0
    5.5770   -3.5816    0.0000 C   0  0  0  0  0  0  0  0  0  0  0  0
    6.5551   -3.7896    0.0000 S   0  0  0  0  0  0  0  0  0  0  0  0
    6.8641   -4.7407    0.0000 C   0  0  0  0  0  0  0  0  0  0  0  0
  1  2  1  0  0  0  0
  2  3  1  0  0  0  0
  3  8  2  0  0  0  0
  3  4  1  0  0  0  0
  4  5  2  0  0  0  0
  5  6  1  0  0  0  0
  6 11  1  0  0  0  0
  6  7  2  0  0  0  0
  7  8  1  0  0  0  0
  7  9  1  0  0  0  0
  9 10  2  0  0  0  0
 10 11  1  0  0  0  0
  9 12  1  0  0  0  0
 12 13  1  0  0  0  0
 13 14  1  0  0  0  0
 14 15  1  0  0  0  0
 15 16  2  0  0  0  0
 15 17  1  0  0  0  0
 17 18  1  0  0  0  0
 18 19  1  0  0  0  0
M  END
$$$$
s_240690b____7360096____13151248
  -OEChem-03222016482D

 18 19  0     0  0  0  0  0  0999 V2000
    0.0000    0.0000    0.0000 C   0  0  0  0  0  0  0  0  0  0  0  0
    0.8680   -0.4978    0.0000 C   0  0  0  0  0  0  0  0  0  0  0  0
    1.7360   -0.0012    0.0000 C   0  0  0  0  0  0  0  0  0  0  0  0
    1.7360    1.0058    0.0000 C   0  0  0  0  0  0  0  0  0  0  0  0
    0.8680    1.5138    0.0000 C   0  0  0  0  0  0  0  0  0  0  0  0
    0.0000    1.0058    0.0000 C   0  0  0  0  0  0  0  0  0  0  0  0
   -0.8675    1.5032    0.0000 Cl  0  0  0  0  0  0  0  0  0  0  0  0
    2.6938    1.3169    0.0000 N   0  0  0  0  0  0  0  0  0  0  0  0
    3.2858    0.5023    0.0000 C   0  0  0  0  0  0  0  0  0  0  0  0
    2.6938   -0.3125    0.0000 C   0  0  0  0  0  0  0  0  0  0  0  0
    3.0028   -1.2636    0.0000 C   0  0  0  0  0  0  0  0  0  0  0  0
    3.9809   -1.4715    0.0000 C   0  0  0  0  0  0  0  0  0  0  0  0
    4.2899   -2.4226    0.0000 N   0  0  0  0  0  0  0  0  0  0  0  0
    5.2680   -2.6306    0.0000 C   0  0  0  0  0  0  0  0  0  0  0  0
    5.9372   -1.8874    0.0000 O   0  0  0  0  0  0  0  0  0  0  0  0
    5.5770   -3.5816    0.0000 C   0  0  0  0  0  0  0  0  0  0  0  0
    6.5551   -3.7896    0.0000 O   0  0  0  0  0  0  0  0  0  0  0  0
    6.8641   -4.7407    0.0000 N   0  0  0  0  0  0  0  0  0  0  0  0
  1  6  2  0  0  0  0
  1  2  1  0  0  0  0
  2  3  2  0  0  0  0
  3 10  1  0  0  0  0
  3  4  1  0  0  0  0
  4  5  2  0  0  0  0
  5  6  1  0  0  0  0
  6  7  1  0  0  0  0
  4  8  1  0  0  0  0
  8  9  1  0  0  0  0
  9 10  2  0  0  0  0
 10 11  1  0  0  0  0
 11 12  1  0  0  0  0
 12 13  1  0  0  0  0
 13 14  1  0  0  0  0
 14 15  2  0  0  0  0
 14 16  1  0  0  0  0
 16 17  1  0  0  0  0
 17 18  1  0  0  0  0
M  END
$$$$
s_2554____15754608____788524
  -OEChem-03222016482D

 18 19  0     1  0  0  0  0  0999 V2000
    3.9809   -1.4715    0.0000 C   0  0  0  0  0  0  0  0  0  0  0  0
    3.0028   -1.2636    0.0000 C   0  0  3  0  0  0  0  0  0  0  0  0
    2.3336   -2.0067    0.0000 C   0  0  0  0  0  0  0  0  0  0  0  0
    2.6426   -2.9578    0.0000 N   0  0  0  0  0  0  0  0  0  0  0  0
    1.9734   -3.7009    0.0000 C   0  0  0  0  0  0  0  0  0  0  0  0
    0.9953   -3.4929    0.0000 O   0  0  0  0  0  0  0  0  0  0  0  0
    2.2824   -4.6519    0.0000 N   0  0  0  0  0  0  0  0  0  0  0  0
    2.6938   -0.3125    0.0000 C   0  0  0  0  0  0  0  0  0  0  0  0
    3.2858    0.5023    0.0000 C   0  0  0  0  0  0  0  0  0  0  0  0
    2.6938    1.3169    0.0000 N   0  0  0  0  0  0  0  0  0  0  0  0
    1.7360    1.0058    0.0000 C   0  0  0  0  0  0  0  0  0  0  0  0
    1.7360   -0.0012    0.0000 C   0  0  0  0  0  0  0  0  0  0  0  0
    0.8680   -0.4978    0.0000 C   0  0  0  0  0  0  0  0  0  0  0  0
    0.0000    0.0000    0.0000 C   0  0  0  0  0  0  0  0  0  0  0  0
   -0.0000    1.0058    0.0000 C   0  0  0  0  0  0  0  0  0  0  0  0
    0.8680    1.5138    0.0000 C   0  0  0  0  0  0  0  0  0  0  0  0
   -0.8653   -0.5013    0.0000 O   0  0  0  0  0  0  0  0  0  0  0  0
   -0.8639   -1.5013    0.0000 C   0  0  0  0  0  0  0  0  0  0  0  0
  1  2  1  0  0  0  0
  2  3  1  0  0  0  0
  3  4  1  0  0  0  0
  4  5  1  0  0  0  0
  5  6  2  0  0  0  0
  5  7  1  0  0  0  0
  2  8  1  0  0  0  0
  8 12  1  0  0  0  0
  8  9  2  0  0  0  0
  9 10  1  0  0  0  0
 10 11  1  0  0  0  0
 11 16  2  0  0  0  0
 11 12  1  0  0  0  0
 12 13  2  0  0  0  0
 13 14  1  0  0  0  0
 14 15  2  0  0  0  0
 15 16  1  0  0  0  0
 14 17  1  0  0  0  0
 17 18  1  0  0  0  0
M  END
$$$$
s_22____15506616____337030
  -OEChem-03222016482D

 19 20  0     0  0  0  0  0  0999 V2000
    6.5551   -3.7896    0.0000 C   0  0  0  0  0  0  0  0  0  0  0  0
    5.5770   -3.5816    0.0000 C   0  0  0  0  0  0  0  0  0  0  0  0
    4.9078   -4.3247    0.0000 C   0  0  0  0  0  0  0  0  0  0  0  0
    5.2680   -2.6306    0.0000 C   0  0  0  0  0  0  0  0  0  0  0  0
    5.9372   -1.8874    0.0000 O   0  0  0  0  0  0  0  0  0  0  0  0
    4.2899   -2.4226    0.0000 N   0  0  0  0  0  0  0  0  0  0  0  0
    3.9809   -1.4715    0.0000 C   0  0  0  0  0  0  0  0  0  0  0  0
    3.0028   -1.2636    0.0000 C   0  0  0  0  0  0  0  0  0  0  0  0
    2.6938   -0.3125    0.0000 C   0  0  0  0  0  0  0  0  0  0  0  0
    3.2858    0.5023    0.0000 C   0  0  0  0  0  0  0  0  0  0  0  0
    2.6938    1.3169    0.0000 N   0  0  0  0  0  0  0  0  0  0  0  0
    1.7360    1.0058    0.0000 C   0  0  0  0  0  0  0  0  0  0  0  0
    1.7360   -0.0012    0.0000 C   0  0  0  0  0  0  0  0  0  0  0  0
    0.8680   -0.4978    0.0000 C   0  0  0  0  0  0  0  0  0  0  0  0
    0.0000    0.0000    0.0000 C   0  0  0  0  0  0  0  0  0  0  0  0
   -0.0000    1.0058    0.0000 C   0  0  0  0  0  0  0  0  0  0  0  0
    0.8680    1.5138    0.0000 C   0  0  0  0  0  0  0  0  0  0  0  0
    0.8680    2.5138    0.0000 O   0  0  0  0  0  0  0  0  0  0  0  0
    0.0020    3.0138    0.0000 C   0  0  0  0  0  0  0  0  0  0  0  0
  1  2  1  0  0  0  0
  2  3  1  0  0  0  0
  2  4  1  0  0  0  0
  4  5  2  0  0  0  0
  4  6  1  0  0  0  0
  6  7  1  0  0  0  0
  7  8  1  0  0  0  0
  8  9  1  0  0  0  0
  9 13  1  0  0  0  0
  9 10  2  0  0  0  0
 10 11  1  0  0  0  0
 11 12  1  0  0  0  0
 12 17  2  0  0  0  0
 12 13  1  0  0  0  0
 13 14  2  0  0  0  0
 14 15  1  0  0  0  0
 15 16  2  0  0  0  0
 16 17  1  0  0  0  0
 17 18  1  0  0  0  0
 18 19  1  0  0  0  0
M  END
$$$$
s_22____17596642____9296322
  -OEChem-03222016482D

 19 20  0     0  0  0  0  0  0999 V2000
    6.1949   -5.4838    0.0000 C   0  0  0  0  0  0  0  0  0  0  0  0
    5.8860   -4.5327    0.0000 C   0  0  0  0  0  0  0  0  0  0  0  0
    5.5770   -3.5816    0.0000 C   0  0  0  0  0  0  0  0  0  0  0  0
    5.2680   -2.6306    0.0000 C   0  0  0  0  0  0  0  0  0  0  0  0
    5.9372   -1.8874    0.0000 O   0  0  0  0  0  0  0  0  0  0  0  0
    4.2899   -2.4226    0.0000 N   0  0  0  0  0  0  0  0  0  0  0  0
    3.9809   -1.4715    0.0000 C   0  0  0  0  0  0  0  0  0  0  0  0
    3.0028   -1.2636    0.0000 C   0  0  0  0  0  0  0  0  0  0  0  0
    2.6938   -0.3125    0.0000 C   0  0  0  0  0  0  0  0  0  0  0  0
    3.2858    0.5023    0.0000 C   0  0  0  0  0  0  0  0  0  0  0  0
    2.6938    1.3169    0.0000 N   0  0  0  0  0  0  0  0  0  0  0  0
    1.7360    1.0058    0.0000 C   0  0  0  0  0  0  0  0  0  0  0  0
    1.7360   -0.0012    0.0000 C   0  0  0  0  0  0  0  0  0  0  0  0
    0.8680   -0.4978    0.0000 C   0  0  0  0  0  0  0  0  0  0  0  0
    0.0000    0.0000    0.0000 C   0  0  0  0  0  0  0  0  0  0  0  0
   -0.0000    1.0058    0.0000 C   0  0  0  0  0  0  0  0  0  0  0  0
    0.8680    1.5138    0.0000 C   0  0  0  0  0  0  0  0  0  0  0  0
    0.8680    2.5138    0.0000 F   0  0  0  0  0  0  0  0  0  0  0  0
    4.2858    0.5024    0.0000 C   0  0  0  0  0  0  0  0  0  0  0  0
  1  2  1  0  0  0  0
  2  3  3  0  0  0  0
  3  4  1  0  0  0  0
  4  5  2  0  0  0  0
  4  6  1  0  0  0  0
  6  7  1  0  0  0  0
  7  8  1  0  0  0  0
  8  9  1  0  0  0  0
  9 13  1  0  0  0  0
  9 10  2  0  0  0  0
 10 11  1  0  0  0  0
 11 12  1  0  0  0  0
 12 17  2  0  0  0  0
 12 13  1  0  0  0  0
 13 14  2  0  0  0  0
 14 15  1  0  0  0  0
 15 16  2  0  0  0  0
 16 17  1  0  0  0  0
 17 18  1  0  0  0  0
 10 19  1  0  0  0  0
M  END
$$$$
s_22____15506616____12105272
  -OEChem-03222016482D

 20 21  0     0  0  0  0  0  0999 V2000
    1.7340    3.0138    0.0000 C   0  0  0  0  0  0  0  0  0  0  0  0
    0.8680    2.5138    0.0000 O   0  0  0  0  0  0  0  0  0  0  0  0
    0.8680    1.5138    0.0000 C   0  0  0  0  0  0  0  0  0  0  0  0
    0.0000    1.0058    0.0000 C   0  0  0  0  0  0  0  0  0  0  0  0
    0.0000    0.0000    0.0000 C   0  0  0  0  0  0  0  0  0  0  0  0
    0.8680   -0.4978    0.0000 C   0  0  0  0  0  0  0  0  0  0  0  0
    1.7360   -0.0012    0.0000 C   0  0  0  0  0  0  0  0  0  0  0  0
    1.7360    1.0058    0.0000 C   0  0  0  0  0  0  0  0  0  0  0  0
    2.6938    1.3169    0.0000 N   0  0  0  0  0  0  0  0  0  0  0  0
    3.2858    0.5023    0.0000 C   0  0  0  0  0  0  0  0  0  0  0  0
    2.6938   -0.3125    0.0000 C   0  0  0  0  0  0  0  0  0  0  0  0
    3.0028   -1.2636    0.0000 C   0  0  0  0  0  0  0  0  0  0  0  0
    3.9809   -1.4715    0.0000 C   0  0  0  0  0  0  0  0  0  0  0  0
    4.2899   -2.4226    0.0000 N   0  0  0  0  0  0  0  0  0  0  0  0
    5.2680   -2.6306    0.0000 C   0  0  0  0  0  0  0  0  0  0  0  0
    5.9372   -1.8874    0.0000 O   0  0  0  0  0  0  0  0  0  0  0  0
    5.5770   -3.5816    0.0000 C   0  0  0  0  0  0  0  0  0  0  0  0
    6.5551   -3.7896    0.0000 C   0  0  0  0  0  0  0  0  0  0  0  0
    6.8641   -4.7407    0.0000 C   0  0  0  0  0  0  0  0  0  0  0  0
    7.8422   -4.9486    0.0000 F   0  0  0  0  0  0  0  0  0  0  0  0
  1  2  1  0  0  0  0
  2  3  1  0  0  0  0
  3  8  2  0  0  0  0
  3  4  1  0  0  0  0
  4  5  2  0  0  0  0
  5  6  1  0  0  0  0
  6  7  2  0  0  0  0
  7 11  1  0  0  0  0
  7  8  1  0  0  0  0
  8  9  1  0  0  0  0
  9 10  1  0  0  0  0
 10 11  2  0  0  0  0
 11 12  1  0  0  0  0
 12 13  1  0  0  0  0
 13 14  1  0  0  0  0
 14 15  1  0  0  0  0
 15 16  2  0  0  0  0
 15 17  1  0  0  0  0
 17 18  1  0  0  0  0
 18 19  1  0  0  0  0
 19 20  1  0  0  0  0
M  END
$$$$
s_272164____14971778____9374306
  -OEChem-03222016482D

 21 22  0     0  0  0  0  0  0999 V2000
    3.2605   -4.8599    0.0000 C   0  0  0  0  0  0  0  0  0  0  0  0
    2.2824   -4.6519    0.0000 N   0  0  0  0  0  0  0  0  0  0  0  0
    1.6132   -5.3951    0.0000 C   0  0  0  0  0  0  0  0  0  0  0  0
    1.9222   -6.3461    0.0000 C   0  0  0  0  0  0  0  0  0  0  0  0
    2.2312   -7.2972    0.0000 C   0  0  0  0  0  0  0  0  0  0  0  0
    1.9734   -3.7009    0.0000 C   0  0  0  0  0  0  0  0  0  0  0  0
    0.9953   -3.4929    0.0000 O   0  0  0  0  0  0  0  0  0  0  0  0
    2.6426   -2.9578    0.0000 N   0  0  0  0  0  0  0  0  0  0  0  0
    2.3336   -2.0067    0.0000 C   0  0  0  0  0  0  0  0  0  0  0  0
    3.0028   -1.2636    0.0000 C   0  0  0  0  0  0  0  0  0  0  0  0
    2.6938   -0.3125    0.0000 C   0  0  0  0  0  0  0  0  0  0  0  0
    3.2858    0.5023    0.0000 C   0  0  0  0  0  0  0  0  0  0  0  0
    2.6938    1.3169    0.0000 N   0  0  0  0  0  0  0  0  0  0  0  0
    1.7360    1.0058    0.0000 C   0  0  0  0  0  0  0  0  0  0  0  0
    1.7360   -0.0012    0.0000 C   0  0  0  0  0  0  0  0  0  0  0  0
    0.8680   -0.4978    0.0000 C   0  0  0  0  0  0  0  0  0  0  0  0
    0.0000    0.0000    0.0000 C   0  0  0  0  0  0  0  0  0  0  0  0
   -0.0000    1.0058    0.0000 C   0  0  0  0  0  0  0  0  0  0  0  0
    0.8680    1.5138    0.0000 C   0  0  0  0  0  0  0  0  0  0  0  0
   -0.8653   -0.5013    0.0000 O   0  0  0  0  0  0  0  0  0  0  0  0
   -0.8639   -1.5013    0.0000 C   0  0  0  0  0  0  0  0  0  0  0  0
  1  2  1  0  0  0  0
  2  3  1  0  0  0  0
  3  4  1  0  0  0  0
  4  5  3  0  0  0  0
  2  6  1  0  0  0  0
  6  7  2  0  0  0  0
  6  8  1  0  0  0  0
  8  9  1  0  0  0  0
  9 10  1  0  0  0  0
 10 11  1  0  0  0  0
 11 15  1  0  0  0  0
 11 12  2  0  0  0  0
 12 13  1  0  0  0  0
 13 14  1  0  0  0  0
 14 19  2  0  0  0  0
 14 15  1  0  0  0  0
 15 16  2  0  0  0  0
 16 17  1  0  0  0  0
 17 18  2  0  0  0  0
 18 19  1  0  0  0  0
 17 20  1  0  0  0  0
 20 21  1  0  0  0  0
M  END
$$$$
s_22____13978824____3124140
  -OEChem-03222016482D

 21 22  0     0  0  0  0  0  0999 V2000
    8.1512   -5.8997    0.0000 C   0  0  0  0  0  0  0  0  0  0  0  0
    7.8422   -4.9486    0.0000 C   0  0  0  0  0  0  0  0  0  0  0  0
    6.8641   -4.7407    0.0000 O   0  0  0  0  0  0  0  0  0  0  0  0
    6.5551   -3.7896    0.0000 C   0  0  0  0  0  0  0  0  0  0  0  0
    5.5770   -3.5816    0.0000 C   0  0  0  0  0  0  0  0  0  0  0  0
    5.2680   -2.6306    0.0000 C   0  0  0  0  0  0  0  0  0  0  0  0
    5.9372   -1.8874    0.0000 O   0  0  0  0  0  0  0  0  0  0  0  0
    4.2899   -2.4226    0.0000 N   0  0  0  0  0  0  0  0  0  0  0  0
    3.9809   -1.4715    0.0000 C   0  0  0  0  0  0  0  0  0  0  0  0
    3.0028   -1.2636    0.0000 C   0  0  0  0  0  0  0  0  0  0  0  0
    2.6938   -0.3125    0.0000 C   0  0  0  0  0  0  0  0  0  0  0  0
    3.2858    0.5023    0.0000 C   0  0  0  0  0  0  0  0  0  0  0  0
    2.6938    1.3169    0.0000 N   0  0  0  0  0  0  0  0  0  0  0  0
    1.7360    1.0058    0.0000 C   0  0  0  0  0  0  0  0  0  0  0  0
    1.7360   -0.0012    0.0000 C   0  0  0  0  0  0  0  0  0  0  0  0
    0.8680   -0.4978    0.0000 C   0  0  0  0  0  0  0  0  0  0  0  0
    0.0000    0.0000    0.0000 C   0  0  0  0  0  0  0  0  0  0  0  0
   -0.0000    1.0058    0.0000 C   0  0  0  0  0  0  0  0  0  0  0  0
    0.8680    1.5138    0.0000 C   0  0  0  0  0  0  0  0  0  0  0  0
   -0.8675    1.5032    0.0000 O   0  0  0  0  0  0  0  0  0  0  0  0
   -1.7320    1.0007    0.0000 C   0  0  0  0  0  0  0  0  0  0  0  0
  1  2  1  0  0  0  0
  2  3  1  0  0  0  0
  3  4  1  0  0  0  0
  4  5  1  0  0  0  0
  5  6  1  0  0  0  0
  6  7  2  0  0  0  0
  6  8  1  0  0  0  0
  8  9  1  0  0  0  0
  9 10  1  0  0  0  0
 10 11  1  0  0  0  0
 11 15  1  0  0  0  0
 11 12  2  0  0  0  0
 12 13  1  0  0  0  0
 13 14  1  0  0  0  0
 14 19  2  0  0  0  0
 14 15  1  0  0  0  0
 15 16  2  0  0  0  0
 16 17  1  0  0  0  0
 17 18  2  0  0  0  0
 18 19  1  0  0  0  0
 18 20  1  0  0  0  0
 20 21  1  0  0  0  0
M  END
$$$$
s_272164____14971778____17341378
  -OEChem-03222016482D

 23 24  0     0  0  0  0  0  0999 V2000
   -3.4641   -0.0050    0.0000 C   0  0  0  0  0  0  0  0  0  0  0  0
   -2.5974   -0.5038    0.0000 C   0  0  0  0  0  0  0  0  0  0  0  0
   -1.7320   -0.0025    0.0000 C   0  0  0  0  0  0  0  0  0  0  0  0
   -0.8653   -0.5013    0.0000 O   0  0  0  0  0  0  0  0  0  0  0  0
    0.0000    0.0000    0.0000 C   0  0  0  0  0  0  0  0  0  0  0  0
   -0.0000    1.0058    0.0000 C   0  0  0  0  0  0  0  0  0  0  0  0
    0.8680    1.5138    0.0000 C   0  0  0  0  0  0  0  0  0  0  0  0
    1.7360    1.0058    0.0000 C   0  0  0  0  0  0  0  0  0  0  0  0
    1.7360   -0.0012    0.0000 C   0  0  0  0  0  0  0  0  0  0  0  0
    0.8680   -0.4978    0.0000 C   0  0  0  0  0  0  0  0  0  0  0  0
    2.6938   -0.3125    0.0000 C   0  0  0  0  0  0  0  0  0  0  0  0
    3.2858    0.5023    0.0000 C   0  0  0  0  0  0  0  0  0  0  0  0
    2.6938    1.3169    0.0000 N   0  0  0  0  0  0  0  0  0  0  0  0
    3.0028   -1.2636    0.0000 C   0  0  0  0  0  0  0  0  0  0  0  0
    3.9809   -1.4715    0.0000 C   0  0  0  0  0  0  0  0  0  0  0  0
    4.2899   -2.4226    0.0000 N   0  0  0  0  0  0  0  0  0  0  0  0
    5.2680   -2.6306    0.0000 C   0  0  0  0  0  0  0  0  0  0  0  0
    5.9372   -1.8874    0.0000 O   0  0  0  0  0  0  0  0  0  0  0  0
    5.5770   -3.5816    0.0000 N   0  0  0  0  0  0  0  0  0  0  0  0
    4.9078   -4.3247    0.0000 C   0  0  0  0  0  0  0  0  0  0  0  0
    6.5551   -3.7896    0.0000 C   0  0  0  0  0  0  0  0  0  0  0  0
    6.8641   -4.7407    0.0000 C   0  0  0  0  0  0  0  0  0  0  0  0
    7.1731   -5.6917    0.0000 C   0  0  0  0  0  0  0  0  0  0  0  0
  1  2  1  0  0  0  0
  2  3  1  0  0  0  0
  3  4  1  0  0  0  0
  4  5  1  0  0  0  0
  5 10  2  0  0  0  0
  5  6  1  0  0  0  0
  6  7  2  0  0  0  0
  7  8  1  0  0  0  0
  8 13  1  0  0  0  0
  8  9  2  0  0  0  0
  9 10  1  0  0  0  0
  9 11  1  0  0  0  0
 11 12  2  0  0  0  0
 12 13  1  0  0  0  0
 11 14  1  0  0  0  0
 14 15  1  0  0  0  0
 15 16  1  0  0  0  0
 16 17  1  0  0  0  0
 17 18  2  0  0  0  0
 17 19  1  0  0  0  0
 19 20  1  0  0  0  0
 19 21  1  0  0  0  0
 21 22  1  0  0  0  0
 22 23  3  0  0  0  0
M  END
$$$$
s_22____13978824____575700
  -OEChem-03222016482D

 21 22  0     0  0  0  0  0  0999 V2000
   -0.8705    2.5032    0.0000 C   0  0  0  0  0  0  0  0  0  0  0  0
   -0.8675    1.5032    0.0000 O   0  0  0  0  0  0  0  0  0  0  0  0
    0.0000    1.0058    0.0000 C   0  0  0  0  0  0  0  0  0  0  0  0
    0.0000    0.0000    0.0000 C   0  0  0  0  0  0  0  0  0  0  0  0
    0.8680   -0.4978    0.0000 C   0  0  0  0  0  0  0  0  0  0  0  0
    1.7360   -0.0012    0.0000 C   0  0  0  0  0  0  0  0  0  0  0  0
    1.7360    1.0058    0.0000 C   0  0  0  0  0  0  0  0  0  0  0  0
    0.8680    1.5138    0.0000 C   0  0  0  0  0  0  0  0  0  0  0  0
    2.6938    1.3169    0.0000 N   0  0  0  0  0  0  0  0  0  0  0  0
    3.2858    0.5023    0.0000 C   0  0  0  0  0  0  0  0  0  0  0  0
    2.6938   -0.3125    0.0000 C   0  0  0  0  0  0  0  0  0  0  0  0
    3.0028   -1.2636    0.0000 C   0  0  0  0  0  0  0  0  0  0  0  0
    3.9809   -1.4715    0.0000 C   0  0  0  0  0  0  0  0  0  0  0  0
    4.2899   -2.4226    0.0000 N   0  0  0  0  0  0  0  0  0  0  0  0
    5.2680   -2.6306    0.0000 C   0  0  0  0  0  0  0  0  0  0  0  0
    5.9372   -1.8874    0.0000 O   0  0  0  0  0  0  0  0  0  0  0  0
    5.5770   -3.5816    0.0000 C   0  0  0  0  0  0  0  0  0  0  0  0
    6.5551   -3.7896    0.0000 S   0  0  0  0  0  0  0  0  0  0  0  0
    6.8641   -4.7407    0.0000 C   0  0  0  0  0  0  0  0  0  0  0  0
    7.8422   -4.9486    0.0000 C   0  0  0  0  0  0  0  0  0  0  0  0
    8.8204   -5.1566    0.0000 N   0  0  0  0  0  0  0  0  0  0  0  0
  1  2  1  0  0  0  0
  2  3  1  0  0  0  0
  3  8  2  0  0  0  0
  3  4  1  0  0  0  0
  4  5  2  0  0  0  0
  5  6  1  0  0  0  0
  6 11  1  0  0  0  0
  6  7  2  0  0  0  0
  7  8  1  0  0  0  0
  7  9  1  0  0  0  0
  9 10  1  0  0  0  0
 10 11  2  0  0  0  0
 11 12  1  0  0  0  0
 12 13  1  0  0  0  0
 13 14  1  0  0  0  0
 14 15  1  0  0  0  0
 15 16  2  0  0  0  0
 15 17  1  0  0  0  0
 17 18  1  0  0  0  0
 18 19  1  0  0  0  0
 19 20  1  0  0  0  0
 20 21  3  0  0  0  0
M  END
$$$$
s_270004____13952054____16621896
  -OEChem-03222016482D

 19 20  0     1  0  0  0  0  0999 V2000
   -1.7320   -0.0025    0.0000 C   0  0  0  0  0  0  0  0  0  0  0  0
   -0.8653   -0.5013    0.0000 O   0  0  0  0  0  0  0  0  0  0  0  0
    0.0000    0.0000    0.0000 C   0  0  0  0  0  0  0  0  0  0  0  0
   -0.0000    1.0058    0.0000 C   0  0  0  0  0  0  0  0  0  0  0  0
    0.8680    1.5138    0.0000 C   0  0  0  0  0  0  0  0  0  0  0  0
    1.7360    1.0058    0.0000 C   0  0  0  0  0  0  0  0  0  0  0  0
    1.7360   -0.0012    0.0000 C   0  0  0  0  0  0  0  0  0  0  0  0
    0.8680   -0.4978    0.0000 C   0  0  0  0  0  0  0  0  0  0  0  0
    2.6938   -0.3125    0.0000 C   0  0  0  0  0  0  0  0  0  0  0  0
    3.2858    0.5023    0.0000 C   0  0  0  0  0  0  0  0  0  0  0  0
    2.6938    1.3169    0.0000 N   0  0  0  0  0  0  0  0  0  0  0  0
    4.2858    0.5024    0.0000 C   0  0  0  0  0  0  0  0  0  0  0  0
    4.7857    1.3684    0.0000 N   0  3  0  0  0  0  0  0  0  0  0  0
    5.7857    1.3685    0.0000 C   0  0  0  0  0  0  0  0  0  0  0  0
    6.2857    2.2345    0.0000 C   0  0  3  0  0  0  0  0  0  0  0  0
    5.7856    3.1005    0.0000 C   0  0  0  0  0  0  0  0  0  0  0  0
    4.7856    3.1005    0.0000 O   0  0  0  0  0  0  0  0  0  0  0  0
    7.2857    2.2346    0.0000 O   0  0  0  0  0  0  0  0  0  0  0  0
    7.7856    3.1006    0.0000 C   0  0  0  0  0  0  0  0  0  0  0  0
  1  2  1  0  0  0  0
  2  3  1  0  0  0  0
  3  8  2  0  0  0  0
  3  4  1  0  0  0  0
  4  5  2  0  0  0  0
  5  6  1  0  0  0  0
  6 11  1  0  0  0  0
  6  7  2  0  0  0  0
  7  8  1  0  0  0  0
  7  9  1  0  0  0  0
  9 10  2  0  0  0  0
 10 11  1  0  0  0  0
 10 12  1  0  0  0  0
 12 13  1  0  0  0  0
 13 14  1  0  0  0  0
 14 15  1  0  0  0  0
 15 16  1  0  0  0  0
 16 17  1  0  0  0  0
 15 18  1  0  0  0  0
 18 19  1  0  0  0  0
M  CHG  1  13   1
M  END
$$$$
s_22____13025516____58886
  -OEChem-03222016482D

 19 20  0     0  0  0  0  0  0999 V2000
    0.0012   -1.9973    0.0000 C   0  0  0  0  0  0  0  0  0  0  0  0
    0.8675   -1.4978    0.0000 O   0  0  0  0  0  0  0  0  0  0  0  0
    0.8680   -0.4978    0.0000 C   0  0  0  0  0  0  0  0  0  0  0  0
    0.0000    0.0000    0.0000 C   0  0  0  0  0  0  0  0  0  0  0  0
   -0.0000    1.0058    0.0000 C   0  0  0  0  0  0  0  0  0  0  0  0
    0.8680    1.5138    0.0000 C   0  0  0  0  0  0  0  0  0  0  0  0
    1.7360    1.0058    0.0000 C   0  0  0  0  0  0  0  0  0  0  0  0
    1.7360   -0.0012    0.0000 C   0  0  0  0  0  0  0  0  0  0  0  0
    2.6938   -0.3125    0.0000 C   0  0  0  0  0  0  0  0  0  0  0  0
    3.2858    0.5023    0.0000 C   0  0  0  0  0  0  0  0  0  0  0  0
    2.6938    1.3169    0.0000 N   0  0  0  0  0  0  0  0  0  0  0  0
    3.0028   -1.2636    0.0000 C   0  0  0  0  0  0  0  0  0  0  0  0
    3.9809   -1.4715    0.0000 C   0  0  0  0  0  0  0  0  0  0  0  0
    4.2899   -2.4226    0.0000 N   0  0  0  0  0  0  0  0  0  0  0  0
    5.2680   -2.6306    0.0000 C   0  0  0  0  0  0  0  0  0  0  0  0
    5.9372   -1.8874    0.0000 O   0  0  0  0  0  0  0  0  0  0  0  0
    5.5770   -3.5816    0.0000 C   0  0  0  0  0  0  0  0  0  0  0  0
    6.5551   -3.7896    0.0000 F   0  0  0  0  0  0  0  0  0  0  0  0
    4.9078   -4.3247    0.0000 F   0  0  0  0  0  0  0  0  0  0  0  0
  1  2  1  0  0  0  0
  2  3  1  0  0  0  0
  3  8  2  0  0  0  0
  3  4  1  0  0  0  0
  4  5  2  0  0  0  0
  5  6  1  0  0  0  0
  6  7  2  0  0  0  0
  7 11  1  0  0  0  0
  7  8  1  0  0  0  0
  8  9  1  0  0  0  0
  9 10  2  0  0  0  0
 10 11  1  0  0  0  0
  9 12  1  0  0  0  0
 12 13  1  0  0  0  0
 13 14  1  0  0  0  0
 14 15  1  0  0  0  0
 15 16  2  0  0  0  0
 15 17  1  0  0  0  0
 17 18  1  0  0  0  0
 17 19  1  0  0  0  0
M  END
$$$$
s_22____15506616____10475936
  -OEChem-03222016482D

 20 21  0     1  0  0  0  0  0999 V2000
    1.7340    3.0138    0.0000 C   0  0  0  0  0  0  0  0  0  0  0  0
    0.8680    2.5138    0.0000 O   0  0  0  0  0  0  0  0  0  0  0  0
    0.8680    1.5138    0.0000 C   0  0  0  0  0  0  0  0  0  0  0  0
    0.0000    1.0058    0.0000 C   0  0  0  0  0  0  0  0  0  0  0  0
    0.0000    0.0000    0.0000 C   0  0  0  0  0  0  0  0  0  0  0  0
    0.8680   -0.4978    0.0000 C   0  0  0  0  0  0  0  0  0  0  0  0
    1.7360   -0.0012    0.0000 C   0  0  0  0  0  0  0  0  0  0  0  0
    1.7360    1.0058    0.0000 C   0  0  0  0  0  0  0  0  0  0  0  0
    2.6938    1.3169    0.0000 N   0  0  0  0  0  0  0  0  0  0  0  0
    3.2858    0.5023    0.0000 C   0  0  0  0  0  0  0  0  0  0  0  0
    2.6938   -0.3125    0.0000 C   0  0  0  0  0  0  0  0  0  0  0  0
    3.0028   -1.2636    0.0000 C   0  0  0  0  0  0  0  0  0  0  0  0
    3.9809   -1.4715    0.0000 C   0  0  0  0  0  0  0  0  0  0  0  0
    4.2899   -2.4226    0.0000 N   0  0  0  0  0  0  0  0  0  0  0  0
    5.2680   -2.6306    0.0000 C   0  0  0  0  0  0  0  0  0  0  0  0
    5.9372   -1.8874    0.0000 O   0  0  0  0  0  0  0  0  0  0  0  0
    5.5770   -3.5816    0.0000 C   0  0  3  0  0  0  0  0  0  0  0  0
    6.5551   -3.7896    0.0000 C   0  0  0  0  0  0  0  0  0  0  0  0
    6.8641   -4.7407    0.0000 C   0  0  0  0  0  0  0  0  0  0  0  0
    4.9078   -4.3247    0.0000 O   0  0  0  0  0  0  0  0  0  0  0  0
  1  2  1  0  0  0  0
  2  3  1  0  0  0  0
  3  8  2  0  0  0  0
  3  4  1  0  0  0  0
  4  5  2  0  0  0  0
  5  6  1  0  0  0  0
  6  7  2  0  0  0  0
  7 11  1  0  0  0  0
  7  8  1  0  0  0  0
  8  9  1  0  0  0  0
  9 10  1  0  0  0  0
 10 11  2  0  0  0  0
 11 12  1  0  0  0  0
 12 13  1  0  0  0  0
 13 14  1  0  0  0  0
 14 15  1  0  0  0  0
 15 16  2  0  0  0  0
 15 17  1  0  0  0  0
 17 18  1  0  0  0  0
 18 19  2  0  0  0  0
 17 20  1  0  0  0  0
M  END
$$$$
s_512____11969934____13978836
  -OEChem-03222016482D

 21 22  0     0  0  0  0  0  0999 V2000
   -0.8705    2.5032    0.0000 C   0  0  0  0  0  0  0  0  0  0  0  0
   -0.8675    1.5032    0.0000 O   0  0  0  0  0  0  0  0  0  0  0  0
    0.0000    1.0058    0.0000 C   0  0  0  0  0  0  0  0  0  0  0  0
    0.0000    0.0000    0.0000 C   0  0  0  0  0  0  0  0  0  0  0  0
    0.8680   -0.4978    0.0000 C   0  0  0  0  0  0  0  0  0  0  0  0
    1.7360   -0.0012    0.0000 C   0  0  0  0  0  0  0  0  0  0  0  0
    1.7360    1.0058    0.0000 C   0  0  0  0  0  0  0  0  0  0  0  0
    0.8680    1.5138    0.0000 C   0  0  0  0  0  0  0  0  0  0  0  0
    2.6938    1.3169    0.0000 N   0  0  0  0  0  0  0  0  0  0  0  0
    3.2858    0.5023    0.0000 C   0  0  0  0  0  0  0  0  0  0  0  0
    2.6938   -0.3125    0.0000 C   0  0  0  0  0  0  0  0  0  0  0  0
    3.0028   -1.2636    0.0000 C   0  0  0  0  0  0  0  0  0  0  0  0
    3.9809   -1.4715    0.0000 C   0  0  0  0  0  0  0  0  0  0  0  0
    4.2899   -2.4226    0.0000 N   0  0  0  0  0  0  0  0  0  0  0  0
    5.2680   -2.6306    0.0000 C   0  0  0  0  0  0  0  0  0  0  0  0
    5.9372   -1.8874    0.0000 O   0  0  0  0  0  0  0  0  0  0  0  0
    5.5770   -3.5816    0.0000 N   0  0  0  0  0  0  0  0  0  0  0  0
    6.5551   -3.7896    0.0000 C   0  0  0  0  0  0  0  0  0  0  0  0
    6.8641   -4.7407    0.0000 C   0  0  0  0  0  0  0  0  0  0  0  0
    7.8422   -4.9486    0.0000 C   0  0  0  0  0  0  0  0  0  0  0  0
    8.1512   -5.8997    0.0000 C   0  0  0  0  0  0  0  0  0  0  0  0
  1  2  1  0  0  0  0
  2  3  1  0  0  0  0
  3  8  2  0  0  0  0
  3  4  1  0  0  0  0
  4  5  2  0  0  0  0
  5  6  1  0  0  0  0
  6 11  1  0  0  0  0
  6  7  2  0  0  0  0
  7  8  1  0  0  0  0
  7  9  1  0  0  0  0
  9 10  1  0  0  0  0
 10 11  2  0  0  0  0
 11 12  1  0  0  0  0
 12 13  1  0  0  0  0
 13 14  1  0  0  0  0
 14 15  1  0  0  0  0
 15 16  2  0  0  0  0
 15 17  1  0  0  0  0
 17 18  1  0  0  0  0
 18 19  1  0  0  0  0
 19 20  1  0  0  0  0
 20 21  2  0  0  0  0
M  END
$$$$
s_207____3310404____15269818
  -OEChem-03222016482D

 19 20  0     0  0  0  0  0  0999 V2000
    7.7856    3.1006    0.0000 C   0  0  0  0  0  0  0  0  0  0  0  0
    7.2857    2.2346    0.0000 N   0  0  0  0  0  0  0  0  0  0  0  0
    7.7858    1.3686    0.0000 C   0  0  0  0  0  0  0  0  0  0  0  0
    6.2857    2.2345    0.0000 C   0  0  0  0  0  0  0  0  0  0  0  0
    5.7856    3.1005    0.0000 O   0  0  0  0  0  0  0  0  0  0  0  0
    5.7858    1.3685    0.0000 C   0  0  0  0  0  0  0  0  0  0  0  0
    4.7858    1.3684    0.0000 N   0  3  0  0  0  0  0  0  0  0  0  0
    4.2858    0.5024    0.0000 C   0  0  0  0  0  0  0  0  0  0  0  0
    3.2858    0.5023    0.0000 C   0  0  0  0  0  0  0  0  0  0  0  0
    2.6938   -0.3125    0.0000 C   0  0  0  0  0  0  0  0  0  0  0  0
    1.7360   -0.0012    0.0000 C   0  0  0  0  0  0  0  0  0  0  0  0
    1.7360    1.0058    0.0000 C   0  0  0  0  0  0  0  0  0  0  0  0
    2.6938    1.3169    0.0000 N   0  0  0  0  0  0  0  0  0  0  0  0
    0.8680    1.5138    0.0000 C   0  0  0  0  0  0  0  0  0  0  0  0
    0.0000    1.0058    0.0000 C   0  0  0  0  0  0  0  0  0  0  0  0
    0.0000    0.0000    0.0000 C   0  0  0  0  0  0  0  0  0  0  0  0
    0.8680   -0.4978    0.0000 C   0  0  0  0  0  0  0  0  0  0  0  0
    0.8675   -1.4978    0.0000 O   0  0  0  0  0  0  0  0  0  0  0  0
    1.7332   -1.9983    0.0000 C   0  0  0  0  0  0  0  0  0  0  0  0
  1  2  1  0  0  0  0
  2  3  1  0  0  0  0
  2  4  1  0  0  0  0
  4  5  2  0  0  0  0
  4  6  1  0  0  0  0
  6  7  1  0  0  0  0
  7  8  1  0  0  0  0
  8  9  1  0  0  0  0
  9 13  1  0  0  0  0
  9 10  2  0  0  0  0
 10 11  1  0  0  0  0
 11 17  2  0  0  0  0
 11 12  1  0  0  0  0
 12 13  1  0  0  0  0
 12 14  2  0  0  0  0
 14 15  1  0  0  0  0
 15 16  2  0  0  0  0
 16 17  1  0  0  0  0
 17 18  1  0  0  0  0
 18 19  1  0  0  0  0
M  CHG  1   7   1
M  END
$$$$
s_240690b____15144160____3025680
  -OEChem-03222016482D

 19 20  0     0  0  0  0  0  0999 V2000
    0.8680    1.5138    0.0000 C   0  0  0  0  0  0  0  0  0  0  0  0
    0.0000    1.0058    0.0000 C   0  0  0  0  0  0  0  0  0  0  0  0
    0.0000    0.0000    0.0000 C   0  0  0  0  0  0  0  0  0  0  0  0
    0.8680   -0.4978    0.0000 C   0  0  0  0  0  0  0  0  0  0  0  0
    1.7360   -0.0012    0.0000 C   0  0  0  0  0  0  0  0  0  0  0  0
    1.7360    1.0058    0.0000 C   0  0  0  0  0  0  0  0  0  0  0  0
    2.6938    1.3169    0.0000 N   0  0  0  0  0  0  0  0  0  0  0  0
    3.2858    0.5023    0.0000 C   0  0  0  0  0  0  0  0  0  0  0  0
    2.6938   -0.3125    0.0000 C   0  0  0  0  0  0  0  0  0  0  0  0
    3.0028   -1.2636    0.0000 C   0  0  0  0  0  0  0  0  0  0  0  0
    3.9809   -1.4715    0.0000 C   0  0  0  0  0  0  0  0  0  0  0  0
    4.2899   -2.4226    0.0000 N   0  0  0  0  0  0  0  0  0  0  0  0
    5.2680   -2.6306    0.0000 C   0  0  0  0  0  0  0  0  0  0  0  0
    5.9372   -1.8874    0.0000 O   0  0  0  0  0  0  0  0  0  0  0  0
    5.5770   -3.5816    0.0000 C   0  0  0  0  0  0  0  0  0  0  0  0
    6.5551   -3.7896    0.0000 C   0  0  0  0  0  0  0  0  0  0  0  0
    6.8641   -4.7407    0.0000 N   0  3  0  0  0  0  0  0  0  0  0  0
    0.8675   -1.4978    0.0000 F   0  0  0  0  0  0  0  0  0  0  0  0
   -0.8675    1.5032    0.0000 F   0  0  0  0  0  0  0  0  0  0  0  0
  1  6  2  0  0  0  0
  1  2  1  0  0  0  0
  2  3  2  0  0  0  0
  3  4  1  0  0  0  0
  4  5  2  0  0  0  0
  5  9  1  0  0  0  0
  5  6  1  0  0  0  0
  6  7  1  0  0  0  0
  7  8  1  0  0  0  0
  8  9  2  0  0  0  0
  9 10  1  0  0  0  0
 10 11  1  0  0  0  0
 11 12  1  0  0  0  0
 12 13  1  0  0  0  0
 13 14  2  0  0  0  0
 13 15  1  0  0  0  0
 15 16  1  0  0  0  0
 16 17  1  0  0  0  0
  4 18  1  0  0  0  0
  2 19  1  0  0  0  0
M  CHG  1  17   1
M  END
$$$$
s_22____9631354____59039
  -OEChem-03222016482D

 18 19  0     0  0  0  0  0  0999 V2000
    6.8641   -4.7407    0.0000 C   0  0  0  0  0  0  0  0  0  0  0  0
    6.5551   -3.7896    0.0000 O   0  0  0  0  0  0  0  0  0  0  0  0
    5.5770   -3.5816    0.0000 C   0  0  0  0  0  0  0  0  0  0  0  0
    5.2680   -2.6306    0.0000 C   0  0  0  0  0  0  0  0  0  0  0  0
    5.9372   -1.8874    0.0000 O   0  0  0  0  0  0  0  0  0  0  0  0
    4.2899   -2.4226    0.0000 N   0  0  0  0  0  0  0  0  0  0  0  0
    3.9809   -1.4715    0.0000 C   0  0  0  0  0  0  0  0  0  0  0  0
    3.0028   -1.2636    0.0000 C   0  0  0  0  0  0  0  0  0  0  0  0
    2.6938   -0.3125    0.0000 C   0  0  0  0  0  0  0  0  0  0  0  0
    3.2858    0.5023    0.0000 C   0  0  0  0  0  0  0  0  0  0  0  0
    2.6938    1.3169    0.0000 N   0  0  0  0  0  0  0  0  0  0  0  0
    1.7360    1.0058    0.0000 C   0  0  0  0  0  0  0  0  0  0  0  0
    1.7360   -0.0012    0.0000 C   0  0  0  0  0  0  0  0  0  0  0  0
    0.8680   -0.4978    0.0000 C   0  0  0  0  0  0  0  0  0  0  0  0
    0.0000    0.0000    0.0000 C   0  0  0  0  0  0  0  0  0  0  0  0
   -0.0000    1.0058    0.0000 C   0  0  0  0  0  0  0  0  0  0  0  0
    0.8680    1.5138    0.0000 C   0  0  0  0  0  0  0  0  0  0  0  0
   -0.8653   -0.5013    0.0000 F   0  0  0  0  0  0  0  0  0  0  0  0
  1  2  1  0  0  0  0
  2  3  1  0  0  0  0
  3  4  1  0  0  0  0
  4  5  2  0  0  0  0
  4  6  1  0  0  0  0
  6  7  1  0  0  0  0
  7  8  1  0  0  0  0
  8  9  1  0  0  0  0
  9 13  1  0  0  0  0
  9 10  2  0  0  0  0
 10 11  1  0  0  0  0
 11 12  1  0  0  0  0
 12 17  2  0  0  0  0
 12 13  1  0  0  0  0
 13 14  2  0  0  0  0
 14 15  1  0  0  0  0
 15 16  2  0  0  0  0
 16 17  1  0  0  0  0
 15 18  1  0  0  0  0
M  END
$$$$
s_240690b____11689208____3025698
  -OEChem-03222016482D

 16 17  0     0  0  0  0  0  0999 V2000
    0.0000    0.0000    0.0000 C   0  0  0  0  0  0  0  0  0  0  0  0
   -0.0000    1.0058    0.0000 C   0  0  0  0  0  0  0  0  0  0  0  0
    0.8680    1.5138    0.0000 C   0  0  0  0  0  0  0  0  0  0  0  0
    1.7360    1.0058    0.0000 C   0  0  0  0  0  0  0  0  0  0  0  0
    1.7360   -0.0012    0.0000 C   0  0  0  0  0  0  0  0  0  0  0  0
    0.8680   -0.4978    0.0000 C   0  0  0  0  0  0  0  0  0  0  0  0
    2.6938   -0.3125    0.0000 C   0  0  0  0  0  0  0  0  0  0  0  0
    3.2858    0.5023    0.0000 C   0  0  0  0  0  0  0  0  0  0  0  0
    2.6938    1.3169    0.0000 N   0  0  0  0  0  0  0  0  0  0  0  0
    4.2858    0.5024    0.0000 C   0  0  0  0  0  0  0  0  0  0  0  0
    4.7857    1.3684    0.0000 C   0  0  0  0  0  0  0  0  0  0  0  0
    5.7857    1.3685    0.0000 N   0  0  0  0  0  0  0  0  0  0  0  0
    6.2857    2.2345    0.0000 C   0  0  0  0  0  0  0  0  0  0  0  0
    5.7856    3.1005    0.0000 O   0  0  0  0  0  0  0  0  0  0  0  0
    7.2857    2.2346    0.0000 C   0  0  0  0  0  0  0  0  0  0  0  0
    7.7856    3.1006    0.0000 N   0  3  0  0  0  0  0  0  0  0  0  0
  1  6  2  0  0  0  0
  1  2  1  0  0  0  0
  2  3  2  0  0  0  0
  3  4  1  0  0  0  0
  4  9  1  0  0  0  0
  4  5  2  0  0  0  0
  5  6  1  0  0  0  0
  5  7  1  0  0  0  0
  7  8  2  0  0  0  0
  8  9  1  0  0  0  0
  8 10  1  0  0  0  0
 10 11  1  0  0  0  0
 11 12  1  0  0  0  0
 12 13  1  0  0  0  0
 13 14  2  0  0  0  0
 13 15  1  0  0  0  0
 15 16  1  0  0  0  0
M  CHG  1  16   1
M  END
$$$$
s_8____13978820____83693
  -OEChem-03222016482D

 18 19  0     0  0  0  0  0  0999 V2000
    1.6132   -5.3951    0.0000 C   0  0  0  0  0  0  0  0  0  0  0  0
    2.2824   -4.6519    0.0000 N   0  0  0  0  0  0  0  0  0  0  0  0
    1.9734   -3.7009    0.0000 C   0  0  0  0  0  0  0  0  0  0  0  0
    0.9953   -3.4929    0.0000 S   0  0  0  0  0  0  0  0  0  0  0  0
    2.6426   -2.9578    0.0000 N   0  0  0  0  0  0  0  0  0  0  0  0
    2.3336   -2.0067    0.0000 C   0  0  0  0  0  0  0  0  0  0  0  0
    3.0028   -1.2636    0.0000 C   0  0  0  0  0  0  0  0  0  0  0  0
    2.6938   -0.3125    0.0000 C   0  0  0  0  0  0  0  0  0  0  0  0
    3.2858    0.5023    0.0000 C   0  0  0  0  0  0  0  0  0  0  0  0
    2.6938    1.3169    0.0000 N   0  0  0  0  0  0  0  0  0  0  0  0
    1.7360    1.0058    0.0000 C   0  0  0  0  0  0  0  0  0  0  0  0
    1.7360   -0.0012    0.0000 C   0  0  0  0  0  0  0  0  0  0  0  0
    0.8680   -0.4978    0.0000 C   0  0  0  0  0  0  0  0  0  0  0  0
    0.0000    0.0000    0.0000 C   0  0  0  0  0  0  0  0  0  0  0  0
   -0.0000    1.0058    0.0000 C   0  0  0  0  0  0  0  0  0  0  0  0
    0.8680    1.5138    0.0000 C   0  0  0  0  0  0  0  0  0  0  0  0
   -0.8675    1.5032    0.0000 O   0  0  0  0  0  0  0  0  0  0  0  0
   -1.7320    1.0007    0.0000 C   0  0  0  0  0  0  0  0  0  0  0  0
  1  2  1  0  0  0  0
  2  3  1  0  0  0  0
  3  4  2  0  0  0  0
  3  5  1  0  0  0  0
  5  6  1  0  0  0  0
  6  7  1  0  0  0  0
  7  8  1  0  0  0  0
  8 12  1  0  0  0  0
  8  9  2  0  0  0  0
  9 10  1  0  0  0  0
 10 11  1  0  0  0  0
 11 16  2  0  0  0  0
 11 12  1  0  0  0  0
 12 13  2  0  0  0  0
 13 14  1  0  0  0  0
 14 15  2  0  0  0  0
 15 16  1  0  0  0  0
 15 17  1  0  0  0  0
 17 18  1  0  0  0  0
M  END
$$$$
s_270006b____8394006____11954852
  -OEChem-03222016482D

 21 22  0     0  0  0  0  0  0999 V2000
    7.8422   -4.9486    0.0000 C   0  0  0  0  0  0  0  0  0  0  0  0
    6.8641   -4.7407    0.0000 C   0  0  0  0  0  0  0  0  0  0  0  0
    6.1949   -5.4838    0.0000 C   0  0  0  0  0  0  0  0  0  0  0  0
    6.5551   -3.7896    0.0000 N   0  3  0  0  0  0  0  0  0  0  0  0
    5.5770   -3.5816    0.0000 C   0  0  0  0  0  0  0  0  0  0  0  0
    5.2680   -2.6306    0.0000 C   0  0  0  0  0  0  0  0  0  0  0  0
    5.9372   -1.8874    0.0000 O   0  0  0  0  0  0  0  0  0  0  0  0
    4.2899   -2.4226    0.0000 N   0  0  0  0  0  0  0  0  0  0  0  0
    3.9809   -1.4715    0.0000 C   0  0  0  0  0  0  0  0  0  0  0  0
    3.0028   -1.2636    0.0000 C   0  0  0  0  0  0  0  0  0  0  0  0
    2.6938   -0.3125    0.0000 C   0  0  0  0  0  0  0  0  0  0  0  0
    3.2858    0.5023    0.0000 C   0  0  0  0  0  0  0  0  0  0  0  0
    2.6938    1.3169    0.0000 N   0  0  0  0  0  0  0  0  0  0  0  0
    1.7360    1.0058    0.0000 C   0  0  0  0  0  0  0  0  0  0  0  0
    1.7360   -0.0012    0.0000 C   0  0  0  0  0  0  0  0  0  0  0  0
    0.8680   -0.4978    0.0000 C   0  0  0  0  0  0  0  0  0  0  0  0
    0.0000    0.0000    0.0000 C   0  0  0  0  0  0  0  0  0  0  0  0
   -0.0000    1.0058    0.0000 C   0  0  0  0  0  0  0  0  0  0  0  0
    0.8680    1.5138    0.0000 C   0  0  0  0  0  0  0  0  0  0  0  0
   -0.8653   -0.5013    0.0000 O   0  0  0  0  0  0  0  0  0  0  0  0
   -0.8639   -1.5013    0.0000 C   0  0  0  0  0  0  0  0  0  0  0  0
  1  2  1  0  0  0  0
  2  3  1  0  0  0  0
  2  4  1  0  0  0  0
  4  5  1  0  0  0  0
  5  6  1  0  0  0  0
  6  7  2  0  0  0  0
  6  8  1  0  0  0  0
  8  9  1  0  0  0  0
  9 10  1  0  0  0  0
 10 11  1  0  0  0  0
 11 15  1  0  0  0  0
 11 12  2  0  0  0  0
 12 13  1  0  0  0  0
 13 14  1  0  0  0  0
 14 19  2  0  0  0  0
 14 15  1  0  0  0  0
 15 16  2  0  0  0  0
 16 17  1  0  0  0  0
 17 18  2  0  0  0  0
 18 19  1  0  0  0  0
 17 20  1  0  0  0  0
 20 21  1  0  0  0  0
M  CHG  1   4   1
M  END
$$$$
s_22____15273190____58844
  -OEChem-03222016482D

 15 16  0     0  0  0  0  0  0999 V2000
    1.9734   -3.7009    0.0000 C   0  0  0  0  0  0  0  0  0  0  0  0
    2.6426   -2.9578    0.0000 C   0  0  0  0  0  0  0  0  0  0  0  0
    3.6207   -3.1657    0.0000 O   0  0  0  0  0  0  0  0  0  0  0  0
    2.3336   -2.0067    0.0000 N   0  0  0  0  0  0  0  0  0  0  0  0
    3.0028   -1.2636    0.0000 C   0  0  0  0  0  0  0  0  0  0  0  0
    2.6938   -0.3125    0.0000 C   0  0  0  0  0  0  0  0  0  0  0  0
    3.2858    0.5023    0.0000 C   0  0  0  0  0  0  0  0  0  0  0  0
    2.6938    1.3169    0.0000 N   0  0  0  0  0  0  0  0  0  0  0  0
    1.7360    1.0058    0.0000 C   0  0  0  0  0  0  0  0  0  0  0  0
    1.7360   -0.0012    0.0000 C   0  0  0  0  0  0  0  0  0  0  0  0
    0.8680   -0.4978    0.0000 C   0  0  0  0  0  0  0  0  0  0  0  0
    0.0000    0.0000    0.0000 C   0  0  0  0  0  0  0  0  0  0  0  0
   -0.0000    1.0058    0.0000 C   0  0  0  0  0  0  0  0  0  0  0  0
    0.8680    1.5138    0.0000 C   0  0  0  0  0  0  0  0  0  0  0  0
   -0.8653   -0.5013    0.0000 F   0  0  0  0  0  0  0  0  0  0  0  0
  1  2  1  0  0  0  0
  2  3  2  0  0  0  0
  2  4  1  0  0  0  0
  4  5  1  0  0  0  0
  5  6  1  0  0  0  0
  6 10  1  0  0  0  0
  6  7  2  0  0  0  0
  7  8  1  0  0  0  0
  8  9  1  0  0  0  0
  9 14  2  0  0  0  0
  9 10  1  0  0  0  0
 10 11  2  0  0  0  0
 11 12  1  0  0  0  0
 12 13  2  0  0  0  0
 13 14  1  0  0  0  0
 12 15  1  0  0  0  0
M  END
$$$$
s_22____13978824____16783912
  -OEChem-03222016482D

 20 21  0     0  0  0  0  0  0999 V2000
   -0.8705    2.5032    0.0000 C   0  0  0  0  0  0  0  0  0  0  0  0
   -0.8675    1.5032    0.0000 O   0  0  0  0  0  0  0  0  0  0  0  0
    0.0000    1.0058    0.0000 C   0  0  0  0  0  0  0  0  0  0  0  0
    0.0000    0.0000    0.0000 C   0  0  0  0  0  0  0  0  0  0  0  0
    0.8680   -0.4978    0.0000 C   0  0  0  0  0  0  0  0  0  0  0  0
    1.7360   -0.0012    0.0000 C   0  0  0  0  0  0  0  0  0  0  0  0
    1.7360    1.0058    0.0000 C   0  0  0  0  0  0  0  0  0  0  0  0
    0.8680    1.5138    0.0000 C   0  0  0  0  0  0  0  0  0  0  0  0
    2.6938    1.3169    0.0000 N   0  0  0  0  0  0  0  0  0  0  0  0
    3.2858    0.5023    0.0000 C   0  0  0  0  0  0  0  0  0  0  0  0
    2.6938   -0.3125    0.0000 C   0  0  0  0  0  0  0  0  0  0  0  0
    3.0028   -1.2636    0.0000 C   0  0  0  0  0  0  0  0  0  0  0  0
    3.9809   -1.4715    0.0000 C   0  0  0  0  0  0  0  0  0  0  0  0
    4.2899   -2.4226    0.0000 N   0  0  0  0  0  0  0  0  0  0  0  0
    5.2680   -2.6306    0.0000 C   0  0  0  0  0  0  0  0  0  0  0  0
    5.9372   -1.8874    0.0000 O   0  0  0  0  0  0  0  0  0  0  0  0
    5.5770   -3.5816    0.0000 C   0  0  0  0  0  0  0  0  0  0  0  0
    6.5551   -3.7896    0.0000 C   0  0  0  0  0  0  0  0  0  0  0  0
    6.8641   -4.7407    0.0000 C   0  0  0  0  0  0  0  0  0  0  0  0
    7.8422   -4.9486    0.0000 O   0  0  0  0  0  0  0  0  0  0  0  0
  1  2  1  0  0  0  0
  2  3  1  0  0  0  0
  3  8  2  0  0  0  0
  3  4  1  0  0  0  0
  4  5  2  0  0  0  0
  5  6  1  0  0  0  0
  6 11  1  0  0  0  0
  6  7  2  0  0  0  0
  7  8  1  0  0  0  0
  7  9  1  0  0  0  0
  9 10  1  0  0  0  0
 10 11  2  0  0  0  0
 11 12  1  0  0  0  0
 12 13  1  0  0  0  0
 13 14  1  0  0  0  0
 14 15  1  0  0  0  0
 15 16  2  0  0  0  0
 15 17  1  0  0  0  0
 17 18  1  0  0  0  0
 18 19  1  0  0  0  0
 19 20  1  0  0  0  0
M  END
$$$$
s_22____4839448____59017
  -OEChem-03222016482D

 21 22  0     0  0  0  0  0  0999 V2000
    1.2530   -7.0892    0.0000 C   0  0  0  0  0  0  0  0  0  0  0  0
    1.9222   -6.3461    0.0000 C   0  0  0  0  0  0  0  0  0  0  0  0
    2.9003   -6.5541    0.0000 O   0  0  0  0  0  0  0  0  0  0  0  0
    1.6132   -5.3951    0.0000 C   0  0  0  0  0  0  0  0  0  0  0  0
    2.2824   -4.6519    0.0000 C   0  0  0  0  0  0  0  0  0  0  0  0
    1.9734   -3.7009    0.0000 C   0  0  0  0  0  0  0  0  0  0  0  0
    0.9953   -3.4929    0.0000 O   0  0  0  0  0  0  0  0  0  0  0  0
    2.6426   -2.9578    0.0000 N   0  0  0  0  0  0  0  0  0  0  0  0
    2.3336   -2.0067    0.0000 C   0  0  0  0  0  0  0  0  0  0  0  0
    3.0028   -1.2636    0.0000 C   0  0  0  0  0  0  0  0  0  0  0  0
    2.6938   -0.3125    0.0000 C   0  0  0  0  0  0  0  0  0  0  0  0
    3.2858    0.5023    0.0000 C   0  0  0  0  0  0  0  0  0  0  0  0
    2.6938    1.3169    0.0000 N   0  0  0  0  0  0  0  0  0  0  0  0
    1.7360    1.0058    0.0000 C   0  0  0  0  0  0  0  0  0  0  0  0
    1.7360   -0.0012    0.0000 C   0  0  0  0  0  0  0  0  0  0  0  0
    0.8680   -0.4978    0.0000 C   0  0  0  0  0  0  0  0  0  0  0  0
    0.0000    0.0000    0.0000 C   0  0  0  0  0  0  0  0  0  0  0  0
   -0.0000    1.0058    0.0000 C   0  0  0  0  0  0  0  0  0  0  0  0
    0.8680    1.5138    0.0000 C   0  0  0  0  0  0  0  0  0  0  0  0
   -0.8653   -0.5013    0.0000 O   0  0  0  0  0  0  0  0  0  0  0  0
   -0.8639   -1.5013    0.0000 C   0  0  0  0  0  0  0  0  0  0  0  0
  1  2  1  0  0  0  0
  2  3  2  0  0  0  0
  2  4  1  0  0  0  0
  4  5  1  0  0  0  0
  5  6  1  0  0  0  0
  6  7  2  0  0  0  0
  6  8  1  0  0  0  0
  8  9  1  0  0  0  0
  9 10  1  0  0  0  0
 10 11  1  0  0  0  0
 11 15  1  0  0  0  0
 11 12  2  0  0  0  0
 12 13  1  0  0  0  0
 13 14  1  0  0  0  0
 14 19  2  0  0  0  0
 14 15  1  0  0  0  0
 15 16  2  0  0  0  0
 16 17  1  0  0  0  0
 17 18  2  0  0  0  0
 18 19  1  0  0  0  0
 17 20  1  0  0  0  0
 20 21  1  0  0  0  0
M  END
$$$$
s_270004____15267152____16621896
  -OEChem-03222016482D

 20 21  0     0  0  0  0  0  0999 V2000
   -1.7320   -0.0025    0.0000 C   0  0  0  0  0  0  0  0  0  0  0  0
   -0.8653   -0.5013    0.0000 O   0  0  0  0  0  0  0  0  0  0  0  0
    0.0000    0.0000    0.0000 C   0  0  0  0  0  0  0  0  0  0  0  0
   -0.0000    1.0058    0.0000 C   0  0  0  0  0  0  0  0  0  0  0  0
    0.8680    1.5138    0.0000 C   0  0  0  0  0  0  0  0  0  0  0  0
    1.7360    1.0058    0.0000 C   0  0  0  0  0  0  0  0  0  0  0  0
    1.7360   -0.0012    0.0000 C   0  0  0  0  0  0  0  0  0  0  0  0
    0.8680   -0.4978    0.0000 C   0  0  0  0  0  0  0  0  0  0  0  0
    2.6938   -0.3125    0.0000 C   0  0  0  0  0  0  0  0  0  0  0  0
    3.2858    0.5023    0.0000 C   0  0  0  0  0  0  0  0  0  0  0  0
    2.6938    1.3169    0.0000 N   0  0  0  0  0  0  0  0  0  0  0  0
    4.2858    0.5024    0.0000 C   0  0  0  0  0  0  0  0  0  0  0  0
    4.7857    1.3684    0.0000 N   0  3  0  0  0  0  0  0  0  0  0  0
    5.7857    1.3685    0.0000 C   0  0  0  0  0  0  0  0  0  0  0  0
    6.2857    2.2345    0.0000 C   0  0  0  0  0  0  0  0  0  0  0  0
    5.7856    3.1005    0.0000 O   0  0  0  0  0  0  0  0  0  0  0  0
    7.2857    2.2346    0.0000 O   0  0  0  0  0  0  0  0  0  0  0  0
    7.7856    3.1006    0.0000 C   0  0  0  0  0  0  0  0  0  0  0  0
    8.7856    3.1007    0.0000 C   0  0  0  0  0  0  0  0  0  0  0  0
    9.7856    3.1008    0.0000 C   0  0  0  0  0  0  0  0  0  0  0  0
  1  2  1  0  0  0  0
  2  3  1  0  0  0  0
  3  8  2  0  0  0  0
  3  4  1  0  0  0  0
  4  5  2  0  0  0  0
  5  6  1  0  0  0  0
  6 11  1  0  0  0  0
  6  7  2  0  0  0  0
  7  8  1  0  0  0  0
  7  9  1  0  0  0  0
  9 10  2  0  0  0  0
 10 11  1  0  0  0  0
 10 12  1  0  0  0  0
 12 13  1  0  0  0  0
 13 14  1  0  0  0  0
 14 15  1  0  0  0  0
 15 16  2  0  0  0  0
 15 17  1  0  0  0  0
 17 18  1  0  0  0  0
 18 19  1  0  0  0  0
 19 20  3  0  0  0  0
M  CHG  1  13   1
M  END
$$$$
s_22____15506616____2009696
  -OEChem-03222016482D

 21 22  0     0  0  0  0  0  0999 V2000
    8.1512   -5.8997    0.0000 C   0  0  0  0  0  0  0  0  0  0  0  0
    7.8422   -4.9486    0.0000 C   0  0  0  0  0  0  0  0  0  0  0  0
    6.8641   -4.7407    0.0000 C   0  0  0  0  0  0  0  0  0  0  0  0
    6.5551   -3.7896    0.0000 O   0  0  0  0  0  0  0  0  0  0  0  0
    5.5770   -3.5816    0.0000 C   0  0  0  0  0  0  0  0  0  0  0  0
    5.2680   -2.6306    0.0000 C   0  0  0  0  0  0  0  0  0  0  0  0
    5.9372   -1.8874    0.0000 O   0  0  0  0  0  0  0  0  0  0  0  0
    4.2899   -2.4226    0.0000 N   0  0  0  0  0  0  0  0  0  0  0  0
    3.9809   -1.4715    0.0000 C   0  0  0  0  0  0  0  0  0  0  0  0
    3.0028   -1.2636    0.0000 C   0  0  0  0  0  0  0  0  0  0  0  0
    2.6938   -0.3125    0.0000 C   0  0  0  0  0  0  0  0  0  0  0  0
    3.2858    0.5023    0.0000 C   0  0  0  0  0  0  0  0  0  0  0  0
    2.6938    1.3169    0.0000 N   0  0  0  0  0  0  0  0  0  0  0  0
    1.7360    1.0058    0.0000 C   0  0  0  0  0  0  0  0  0  0  0  0
    1.7360   -0.0012    0.0000 C   0  0  0  0  0  0  0  0  0  0  0  0
    0.8680   -0.4978    0.0000 C   0  0  0  0  0  0  0  0  0  0  0  0
    0.0000    0.0000    0.0000 C   0  0  0  0  0  0  0  0  0  0  0  0
   -0.0000    1.0058    0.0000 C   0  0  0  0  0  0  0  0  0  0  0  0
    0.8680    1.5138    0.0000 C   0  0  0  0  0  0  0  0  0  0  0  0
    0.8680    2.5138    0.0000 O   0  0  0  0  0  0  0  0  0  0  0  0
    0.0020    3.0138    0.0000 C   0  0  0  0  0  0  0  0  0  0  0  0
  1  2  1  0  0  0  0
  2  3  1  0  0  0  0
  3  4  1  0  0  0  0
  4  5  1  0  0  0  0
  5  6  1  0  0  0  0
  6  7  2  0  0  0  0
  6  8  1  0  0  0  0
  8  9  1  0  0  0  0
  9 10  1  0  0  0  0
 10 11  1  0  0  0  0
 11 15  1  0  0  0  0
 11 12  2  0  0  0  0
 12 13  1  0  0  0  0
 13 14  1  0  0  0  0
 14 19  2  0  0  0  0
 14 15  1  0  0  0  0
 15 16  2  0  0  0  0
 16 17  1  0  0  0  0
 17 18  2  0  0  0  0
 18 19  1  0  0  0  0
 19 20  1  0  0  0  0
 20 21  1  0  0  0  0
M  END
$$$$
s_22____13570824____58866
  -OEChem-03222016482D

 18 19  0     0  0  0  0  0  0999 V2000
    5.9988   -4.2477    0.0000 C   0  0  0  0  0  0  0  0  0  0  0  0
    5.6909   -3.2963    0.0000 C   0  0  0  0  0  0  0  0  0  0  0  0
    4.7129   -3.0873    0.0000 C   0  0  0  0  0  0  0  0  0  0  0  0
    4.4050   -2.1359    0.0000 C   0  0  0  0  0  0  0  0  0  0  0  0
    5.0749   -1.3935    0.0000 O   0  0  0  0  0  0  0  0  0  0  0  0
    3.4271   -1.9269    0.0000 N   0  0  0  0  0  0  0  0  0  0  0  0
    3.1191   -0.9755    0.0000 C   0  0  0  0  0  0  0  0  0  0  0  0
    2.1412   -0.7665    0.0000 C   0  0  0  0  0  0  0  0  0  0  0  0
    1.8332    0.1849    0.0000 C   0  0  0  0  0  0  0  0  0  0  0  0
    2.4247    0.9971    0.0000 C   0  0  0  0  0  0  0  0  0  0  0  0
    1.8349    1.8105    0.0000 N   0  0  0  0  0  0  0  0  0  0  0  0
    0.8791    1.5011    0.0000 C   0  0  0  0  0  0  0  0  0  0  0  0
    0.8780    0.4964    0.0000 C   0  0  0  0  0  0  0  0  0  0  0  0
    0.0000    0.0000    0.0000 C   0  0  0  0  0  0  0  0  0  0  0  0
   -0.8635    0.5043    0.0000 C   0  0  0  0  0  0  0  0  0  0  0  0
   -0.8584    1.5098    0.0000 N   0  0  0  0  0  0  0  0  0  0  0  0
    0.0101    2.0110    0.0000 C   0  0  0  0  0  0  0  0  0  0  0  0
   -1.7320    0.0087    0.0000 Cl  0  0  0  0  0  0  0  0  0  0  0  0
  1  2  1  0  0  0  0
  2  3  1  0  0  0  0
  3  4  1  0  0  0  0
  4  5  2  0  0  0  0
  4  6  1  0  0  0  0
  6  7  1  0  0  0  0
  7  8  1  0  0  0  0
  8  9  1  0  0  0  0
  9 13  1  0  0  0  0
  9 10  2  0  0  0  0
 10 11  1  0  0  0  0
 11 12  1  0  0  0  0
 12 17  2  0  0  0  0
 12 13  1  0  0  0  0
 13 14  2  0  0  0  0
 14 15  1  0  0  0  0
 15 16  2  0  0  0  0
 16 17  1  0  0  0  0
 15 18  1  0  0  0  0
M  END
$$$$
s_240690b____13978894____10126850
  -OEChem-03222016482D

 20 21  0     0  0  0  0  0  0999 V2000
    1.2530   -7.0892    0.0000 C   0  0  0  0  0  0  0  0  0  0  0  0
    1.9222   -6.3461    0.0000 N   0  3  0  0  0  0  0  0  0  0  0  0
    1.6132   -5.3951    0.0000 C   0  0  0  0  0  0  0  0  0  0  0  0
    2.2824   -4.6519    0.0000 C   0  0  0  0  0  0  0  0  0  0  0  0
    1.9734   -3.7009    0.0000 C   0  0  0  0  0  0  0  0  0  0  0  0
    0.9953   -3.4929    0.0000 O   0  0  0  0  0  0  0  0  0  0  0  0
    2.6426   -2.9578    0.0000 N   0  0  0  0  0  0  0  0  0  0  0  0
    2.3336   -2.0067    0.0000 C   0  0  0  0  0  0  0  0  0  0  0  0
    3.0028   -1.2636    0.0000 C   0  0  0  0  0  0  0  0  0  0  0  0
    2.6938   -0.3125    0.0000 C   0  0  0  0  0  0  0  0  0  0  0  0
    3.2858    0.5023    0.0000 C   0  0  0  0  0  0  0  0  0  0  0  0
    2.6938    1.3169    0.0000 N   0  0  0  0  0  0  0  0  0  0  0  0
    1.7360    1.0058    0.0000 C   0  0  0  0  0  0  0  0  0  0  0  0
    1.7360   -0.0012    0.0000 C   0  0  0  0  0  0  0  0  0  0  0  0
    0.8680   -0.4978    0.0000 C   0  0  0  0  0  0  0  0  0  0  0  0
    0.0000    0.0000    0.0000 C   0  0  0  0  0  0  0  0  0  0  0  0
   -0.0000    1.0058    0.0000 C   0  0  0  0  0  0  0  0  0  0  0  0
    0.8680    1.5138    0.0000 C   0  0  0  0  0  0  0  0  0  0  0  0
   -0.8675    1.5032    0.0000 O   0  0  0  0  0  0  0  0  0  0  0  0
   -1.7320    1.0007    0.0000 C   0  0  0  0  0  0  0  0  0  0  0  0
  1  2  1  0  0  0  0
  2  3  1  0  0  0  0
  3  4  1  0  0  0  0
  4  5  1  0  0  0  0
  5  6  2  0  0  0  0
  5  7  1  0  0  0  0
  7  8  1  0  0  0  0
  8  9  1  0  0  0  0
  9 10  1  0  0  0  0
 10 14  1  0  0  0  0
 10 11  2  0  0  0  0
 11 12  1  0  0  0  0
 12 13  1  0  0  0  0
 13 18  2  0  0  0  0
 13 14  1  0  0  0  0
 14 15  2  0  0  0  0
 15 16  1  0  0  0  0
 16 17  2  0  0  0  0
 17 18  1  0  0  0  0
 17 19  1  0  0  0  0
 19 20  1  0  0  0  0
M  CHG  1   2   1
M  END
$$$$
s_270062____12854088____12409802
  -OEChem-03222016482D

 18 19  0     0  0  0  0  0  0999 V2000
    6.5551   -3.7896    0.0000 C   0  0  0  0  0  0  0  0  0  0  0  0
    5.5770   -3.5816    0.0000 C   0  0  0  0  0  0  0  0  0  0  0  0
    4.9078   -4.3247    0.0000 C   0  0  0  0  0  0  0  0  0  0  0  0
    5.2680   -2.6306    0.0000 C   0  0  0  0  0  0  0  0  0  0  0  0
    5.9372   -1.8874    0.0000 O   0  0  0  0  0  0  0  0  0  0  0  0
    4.2899   -2.4226    0.0000 N   0  0  0  0  0  0  0  0  0  0  0  0
    3.9809   -1.4715    0.0000 C   0  0  0  0  0  0  0  0  0  0  0  0
    3.0028   -1.2636    0.0000 C   0  0  0  0  0  0  0  0  0  0  0  0
    2.6938   -0.3125    0.0000 C   0  0  0  0  0  0  0  0  0  0  0  0
    3.2858    0.5023    0.0000 C   0  0  0  0  0  0  0  0  0  0  0  0
    2.6938    1.3169    0.0000 N   0  0  0  0  0  0  0  0  0  0  0  0
    1.7360    1.0058    0.0000 C   0  0  0  0  0  0  0  0  0  0  0  0
    1.7360   -0.0012    0.0000 C   0  0  0  0  0  0  0  0  0  0  0  0
    0.8680   -0.4978    0.0000 C   0  0  0  0  0  0  0  0  0  0  0  0
    0.0000    0.0000    0.0000 C   0  0  0  0  0  0  0  0  0  0  0  0
   -0.0000    1.0058    0.0000 C   0  0  0  0  0  0  0  0  0  0  0  0
    0.8680    1.5138    0.0000 C   0  0  0  0  0  0  0  0  0  0  0  0
   -0.8653   -0.5013    0.0000 Br  0  0  0  0  0  0  0  0  0  0  0  0
  1  2  1  0  0  0  0
  2  3  1  0  0  0  0
  2  4  1  0  0  0  0
  4  5  2  0  0  0  0
  4  6  1  0  0  0  0
  6  7  1  0  0  0  0
  7  8  1  0  0  0  0
  8  9  1  0  0  0  0
  9 13  1  0  0  0  0
  9 10  2  0  0  0  0
 10 11  1  0  0  0  0
 11 12  1  0  0  0  0
 12 17  2  0  0  0  0
 12 13  1  0  0  0  0
 13 14  2  0  0  0  0
 14 15  1  0  0  0  0
 15 16  2  0  0  0  0
 16 17  1  0  0  0  0
 15 18  1  0  0  0  0
M  END
$$$$
s_22____15506616____1720042
  -OEChem-03222016482D

 21 22  0     0  0  0  0  0  0999 V2000
    1.7340    3.0138    0.0000 C   0  0  0  0  0  0  0  0  0  0  0  0
    0.8680    2.5138    0.0000 O   0  0  0  0  0  0  0  0  0  0  0  0
    0.8680    1.5138    0.0000 C   0  0  0  0  0  0  0  0  0  0  0  0
    0.0000    1.0058    0.0000 C   0  0  0  0  0  0  0  0  0  0  0  0
    0.0000    0.0000    0.0000 C   0  0  0  0  0  0  0  0  0  0  0  0
    0.8680   -0.4978    0.0000 C   0  0  0  0  0  0  0  0  0  0  0  0
    1.7360   -0.0012    0.0000 C   0  0  0  0  0  0  0  0  0  0  0  0
    1.7360    1.0058    0.0000 C   0  0  0  0  0  0  0  0  0  0  0  0
    2.6938    1.3169    0.0000 N   0  0  0  0  0  0  0  0  0  0  0  0
    3.2858    0.5023    0.0000 C   0  0  0  0  0  0  0  0  0  0  0  0
    2.6938   -0.3125    0.0000 C   0  0  0  0  0  0  0  0  0  0  0  0
    3.0028   -1.2636    0.0000 C   0  0  0  0  0  0  0  0  0  0  0  0
    3.9809   -1.4715    0.0000 C   0  0  0  0  0  0  0  0  0  0  0  0
    4.2899   -2.4226    0.0000 N   0  0  0  0  0  0  0  0  0  0  0  0
    5.2680   -2.6306    0.0000 C   0  0  0  0  0  0  0  0  0  0  0  0
    5.9372   -1.8874    0.0000 O   0  0  0  0  0  0  0  0  0  0  0  0
    5.5770   -3.5816    0.0000 C   0  0  0  0  0  0  0  0  0  0  0  0
    6.5551   -3.7896    0.0000 C   0  0  0  0  0  0  0  0  0  0  0  0
    6.7631   -2.8115    0.0000 F   0  0  0  0  0  0  0  0  0  0  0  0
    6.3472   -4.7677    0.0000 F   0  0  0  0  0  0  0  0  0  0  0  0
    7.5333   -3.9976    0.0000 F   0  0  0  0  0  0  0  0  0  0  0  0
  1  2  1  0  0  0  0
  2  3  1  0  0  0  0
  3  8  2  0  0  0  0
  3  4  1  0  0  0  0
  4  5  2  0  0  0  0
  5  6  1  0  0  0  0
  6  7  2  0  0  0  0
  7 11  1  0  0  0  0
  7  8  1  0  0  0  0
  8  9  1  0  0  0  0
  9 10  1  0  0  0  0
 10 11  2  0  0  0  0
 11 12  1  0  0  0  0
 12 13  1  0  0  0  0
 13 14  1  0  0  0  0
 14 15  1  0  0  0  0
 15 16  2  0  0  0  0
 15 17  1  0  0  0  0
 17 18  1  0  0  0  0
 18 19  1  0  0  0  0
 18 20  1  0  0  0  0
 18 21  1  0  0  0  0
M  END
$$$$
s_270004____8349722____15269820
  -OEChem-03222016482D

 18 19  0     0  0  0  0  0  0999 V2000
    8.7857    3.1007    0.0000 C   0  0  0  0  0  0  0  0  0  0  0  0
    7.7856    3.1006    0.0000 C   0  0  0  0  0  0  0  0  0  0  0  0
    7.2857    2.2346    0.0000 O   0  0  0  0  0  0  0  0  0  0  0  0
    6.2857    2.2345    0.0000 C   0  0  0  0  0  0  0  0  0  0  0  0
    5.7858    1.3685    0.0000 C   0  0  0  0  0  0  0  0  0  0  0  0
    4.7858    1.3684    0.0000 N   0  3  0  0  0  0  0  0  0  0  0  0
    4.2858    0.5024    0.0000 C   0  0  0  0  0  0  0  0  0  0  0  0
    3.2858    0.5023    0.0000 C   0  0  0  0  0  0  0  0  0  0  0  0
    2.6938   -0.3125    0.0000 C   0  0  0  0  0  0  0  0  0  0  0  0
    1.7360   -0.0012    0.0000 C   0  0  0  0  0  0  0  0  0  0  0  0
    1.7360    1.0058    0.0000 C   0  0  0  0  0  0  0  0  0  0  0  0
    2.6938    1.3169    0.0000 N   0  0  0  0  0  0  0  0  0  0  0  0
    0.8680    1.5138    0.0000 C   0  0  0  0  0  0  0  0  0  0  0  0
    0.0000    1.0058    0.0000 C   0  0  0  0  0  0  0  0  0  0  0  0
    0.0000    0.0000    0.0000 C   0  0  0  0  0  0  0  0  0  0  0  0
    0.8680   -0.4978    0.0000 C   0  0  0  0  0  0  0  0  0  0  0  0
    0.8675   -1.4978    0.0000 O   0  0  0  0  0  0  0  0  0  0  0  0
    1.7332   -1.9983    0.0000 C   0  0  0  0  0  0  0  0  0  0  0  0
  1  2  1  0  0  0  0
  2  3  1  0  0  0  0
  3  4  1  0  0  0  0
  4  5  1  0  0  0  0
  5  6  1  0  0  0  0
  6  7  1  0  0  0  0
  7  8  1  0  0  0  0
  8 12  1  0  0  0  0
  8  9  2  0  0  0  0
  9 10  1  0  0  0  0
 10 16  2  0  0  0  0
 10 11  1  0  0  0  0
 11 12  1  0  0  0  0
 11 13  2  0  0  0  0
 13 14  1  0  0  0  0
 14 15  2  0  0  0  0
 15 16  1  0  0  0  0
 16 17  1  0  0  0  0
 17 18  1  0  0  0  0
M  CHG  1   6   1
M  END
$$$$
s_240690b____7354100____13151248
  -OEChem-03222016482D

 18 19  0     0  0  0  0  0  0999 V2000
    0.0000    0.0000    0.0000 C   0  0  0  0  0  0  0  0  0  0  0  0
    0.8680   -0.4978    0.0000 C   0  0  0  0  0  0  0  0  0  0  0  0
    1.7360   -0.0012    0.0000 C   0  0  0  0  0  0  0  0  0  0  0  0
    1.7360    1.0058    0.0000 C   0  0  0  0  0  0  0  0  0  0  0  0
    0.8680    1.5138    0.0000 C   0  0  0  0  0  0  0  0  0  0  0  0
    0.0000    1.0058    0.0000 C   0  0  0  0  0  0  0  0  0  0  0  0
   -0.8675    1.5032    0.0000 F   0  0  0  0  0  0  0  0  0  0  0  0
    2.6938    1.3169    0.0000 N   0  0  0  0  0  0  0  0  0  0  0  0
    3.2858    0.5023    0.0000 C   0  0  0  0  0  0  0  0  0  0  0  0
    2.6938   -0.3125    0.0000 C   0  0  0  0  0  0  0  0  0  0  0  0
    3.0028   -1.2636    0.0000 C   0  0  0  0  0  0  0  0  0  0  0  0
    3.9809   -1.4715    0.0000 C   0  0  0  0  0  0  0  0  0  0  0  0
    4.2899   -2.4226    0.0000 N   0  0  0  0  0  0  0  0  0  0  0  0
    5.2680   -2.6306    0.0000 C   0  0  0  0  0  0  0  0  0  0  0  0
    5.9372   -1.8874    0.0000 O   0  0  0  0  0  0  0  0  0  0  0  0
    5.5770   -3.5816    0.0000 C   0  0  0  0  0  0  0  0  0  0  0  0
    6.5551   -3.7896    0.0000 O   0  0  0  0  0  0  0  0  0  0  0  0
    6.8641   -4.7407    0.0000 N   0  0  0  0  0  0  0  0  0  0  0  0
  1  6  2  0  0  0  0
  1  2  1  0  0  0  0
  2  3  2  0  0  0  0
  3 10  1  0  0  0  0
  3  4  1  0  0  0  0
  4  5  2  0  0  0  0
  5  6  1  0  0  0  0
  6  7  1  0  0  0  0
  4  8  1  0  0  0  0
  8  9  1  0  0  0  0
  9 10  2  0  0  0  0
 10 11  1  0  0  0  0
 11 12  1  0  0  0  0
 12 13  1  0  0  0  0
 13 14  1  0  0  0  0
 14 15  2  0  0  0  0
 14 16  1  0  0  0  0
 16 17  1  0  0  0  0
 17 18  1  0  0  0  0
M  END
$$$$
s_270006b____8394006____7762300
  -OEChem-03222016482D

 21 23  0     0  0  0  0  0  0999 V2000
   -1.7320   -0.0025    0.0000 C   0  0  0  0  0  0  0  0  0  0  0  0
   -0.8653   -0.5013    0.0000 O   0  0  0  0  0  0  0  0  0  0  0  0
    0.0000    0.0000    0.0000 C   0  0  0  0  0  0  0  0  0  0  0  0
   -0.0000    1.0058    0.0000 C   0  0  0  0  0  0  0  0  0  0  0  0
    0.8680    1.5138    0.0000 C   0  0  0  0  0  0  0  0  0  0  0  0
    1.7360    1.0058    0.0000 C   0  0  0  0  0  0  0  0  0  0  0  0
    1.7360   -0.0012    0.0000 C   0  0  0  0  0  0  0  0  0  0  0  0
    0.8680   -0.4978    0.0000 C   0  0  0  0  0  0  0  0  0  0  0  0
    2.6938   -0.3125    0.0000 C   0  0  0  0  0  0  0  0  0  0  0  0
    3.2858    0.5023    0.0000 C   0  0  0  0  0  0  0  0  0  0  0  0
    2.6938    1.3169    0.0000 N   0  0  0  0  0  0  0  0  0  0  0  0
    3.0028   -1.2636    0.0000 C   0  0  0  0  0  0  0  0  0  0  0  0
    3.9809   -1.4715    0.0000 C   0  0  0  0  0  0  0  0  0  0  0  0
    4.2899   -2.4226    0.0000 N   0  0  0  0  0  0  0  0  0  0  0  0
    5.2680   -2.6306    0.0000 C   0  0  0  0  0  0  0  0  0  0  0  0
    5.9372   -1.8874    0.0000 O   0  0  0  0  0  0  0  0  0  0  0  0
    5.5770   -3.5816    0.0000 C   0  0  0  0  0  0  0  0  0  0  0  0
    6.5551   -3.7896    0.0000 N   0  3  0  0  0  0  0  0  0  0  0  0
    6.8641   -4.7407    0.0000 C   0  0  0  0  0  0  0  0  0  0  0  0
    6.6568   -5.7209    0.0000 C   0  0  0  0  0  0  0  0  0  0  0  0
    7.6079   -5.4119    0.0000 C   0  0  0  0  0  0  0  0  0  0  0  0
  1  2  1  0  0  0  0
  2  3  1  0  0  0  0
  3  8  2  0  0  0  0
  3  4  1  0  0  0  0
  4  5  2  0  0  0  0
  5  6  1  0  0  0  0
  6 11  1  0  0  0  0
  6  7  2  0  0  0  0
  7  8  1  0  0  0  0
  7  9  1  0  0  0  0
  9 10  2  0  0  0  0
 10 11  1  0  0  0  0
  9 12  1  0  0  0  0
 12 13  1  0  0  0  0
 13 14  1  0  0  0  0
 14 15  1  0  0  0  0
 15 16  2  0  0  0  0
 15 17  1  0  0  0  0
 17 18  1  0  0  0  0
 18 19  1  0  0  0  0
 19 21  1  0  0  0  0
 19 20  1  0  0  0  0
 20 21  1  0  0  0  0
M  CHG  1  18   1
M  END
$$$$
s_22____13978824____59118
  -OEChem-03222016482D

 20 21  0     0  0  0  0  0  0999 V2000
    1.2530   -7.0892    0.0000 C   0  0  0  0  0  0  0  0  0  0  0  0
    1.9222   -6.3461    0.0000 C   0  0  0  0  0  0  0  0  0  0  0  0
    1.6132   -5.3951    0.0000 O   0  0  0  0  0  0  0  0  0  0  0  0
    2.2824   -4.6519    0.0000 C   0  0  0  0  0  0  0  0  0  0  0  0
    1.9734   -3.7009    0.0000 C   0  0  0  0  0  0  0  0  0  0  0  0
    0.9953   -3.4929    0.0000 O   0  0  0  0  0  0  0  0  0  0  0  0
    2.6426   -2.9578    0.0000 N   0  0  0  0  0  0  0  0  0  0  0  0
    2.3336   -2.0067    0.0000 C   0  0  0  0  0  0  0  0  0  0  0  0
    3.0028   -1.2636    0.0000 C   0  0  0  0  0  0  0  0  0  0  0  0
    2.6938   -0.3125    0.0000 C   0  0  0  0  0  0  0  0  0  0  0  0
    3.2858    0.5023    0.0000 C   0  0  0  0  0  0  0  0  0  0  0  0
    2.6938    1.3169    0.0000 N   0  0  0  0  0  0  0  0  0  0  0  0
    1.7360    1.0058    0.0000 C   0  0  0  0  0  0  0  0  0  0  0  0
    1.7360   -0.0012    0.0000 C   0  0  0  0  0  0  0  0  0  0  0  0
    0.8680   -0.4978    0.0000 C   0  0  0  0  0  0  0  0  0  0  0  0
    0.0000    0.0000    0.0000 C   0  0  0  0  0  0  0  0  0  0  0  0
   -0.0000    1.0058    0.0000 C   0  0  0  0  0  0  0  0  0  0  0  0
    0.8680    1.5138    0.0000 C   0  0  0  0  0  0  0  0  0  0  0  0
   -0.8675    1.5032    0.0000 O   0  0  0  0  0  0  0  0  0  0  0  0
   -1.7320    1.0007    0.0000 C   0  0  0  0  0  0  0  0  0  0  0  0
  1  2  1  0  0  0  0
  2  3  1  0  0  0  0
  3  4  1  0  0  0  0
  4  5  1  0  0  0  0
  5  6  2  0  0  0  0
  5  7  1  0  0  0  0
  7  8  1  0  0  0  0
  8  9  1  0  0  0  0
  9 10  1  0  0  0  0
 10 14  1  0  0  0  0
 10 11  2  0  0  0  0
 11 12  1  0  0  0  0
 12 13  1  0  0  0  0
 13 18  2  0  0  0  0
 13 14  1  0  0  0  0
 14 15  2  0  0  0  0
 15 16  1  0  0  0  0
 16 17  2  0  0  0  0
 17 18  1  0  0  0  0
 17 19  1  0  0  0  0
 19 20  1  0  0  0  0
M  END
$$$$
s_512____158631____13978836
  -OEChem-03222016482D

 20 21  0     0  0  0  0  0  0999 V2000
   -0.8705    2.5032    0.0000 C   0  0  0  0  0  0  0  0  0  0  0  0
   -0.8675    1.5032    0.0000 O   0  0  0  0  0  0  0  0  0  0  0  0
    0.0000    1.0058    0.0000 C   0  0  0  0  0  0  0  0  0  0  0  0
    0.0000    0.0000    0.0000 C   0  0  0  0  0  0  0  0  0  0  0  0
    0.8680   -0.4978    0.0000 C   0  0  0  0  0  0  0  0  0  0  0  0
    1.7360   -0.0012    0.0000 C   0  0  0  0  0  0  0  0  0  0  0  0
    1.7360    1.0058    0.0000 C   0  0  0  0  0  0  0  0  0  0  0  0
    0.8680    1.5138    0.0000 C   0  0  0  0  0  0  0  0  0  0  0  0
    2.6938    1.3169    0.0000 N   0  0  0  0  0  0  0  0  0  0  0  0
    3.2858    0.5023    0.0000 C   0  0  0  0  0  0  0  0  0  0  0  0
    2.6938   -0.3125    0.0000 C   0  0  0  0  0  0  0  0  0  0  0  0
    3.0028   -1.2636    0.0000 C   0  0  0  0  0  0  0  0  0  0  0  0
    3.9809   -1.4715    0.0000 C   0  0  0  0  0  0  0  0  0  0  0  0
    4.2899   -2.4226    0.0000 N   0  0  0  0  0  0  0  0  0  0  0  0
    5.2680   -2.6306    0.0000 C   0  0  0  0  0  0  0  0  0  0  0  0
    5.9372   -1.8874    0.0000 O   0  0  0  0  0  0  0  0  0  0  0  0
    5.5770   -3.5816    0.0000 N   0  0  0  0  0  0  0  0  0  0  0  0
    6.5551   -3.7896    0.0000 C   0  0  0  0  0  0  0  0  0  0  0  0
    6.8641   -4.7407    0.0000 C   0  0  0  0  0  0  0  0  0  0  0  0
    7.1731   -5.6917    0.0000 C   0  0  0  0  0  0  0  0  0  0  0  0
  1  2  1  0  0  0  0
  2  3  1  0  0  0  0
  3  8  2  0  0  0  0
  3  4  1  0  0  0  0
  4  5  2  0  0  0  0
  5  6  1  0  0  0  0
  6 11  1  0  0  0  0
  6  7  2  0  0  0  0
  7  8  1  0  0  0  0
  7  9  1  0  0  0  0
  9 10  1  0  0  0  0
 10 11  2  0  0  0  0
 11 12  1  0  0  0  0
 12 13  1  0  0  0  0
 13 14  1  0  0  0  0
 14 15  1  0  0  0  0
 15 16  2  0  0  0  0
 15 17  1  0  0  0  0
 17 18  1  0  0  0  0
 18 19  1  0  0  0  0
 19 20  3  0  0  0  0
M  END
$$$$
s_2554____13771040____788524
  -OEChem-03222016482D

 19 20  0     0  0  0  0  0  0999 V2000
   -3.4641   -0.0050    0.0000 C   0  0  0  0  0  0  0  0  0  0  0  0
   -2.5974   -0.5038    0.0000 C   0  0  0  0  0  0  0  0  0  0  0  0
   -1.7320   -0.0025    0.0000 C   0  0  0  0  0  0  0  0  0  0  0  0
   -0.8653   -0.5013    0.0000 O   0  0  0  0  0  0  0  0  0  0  0  0
    0.0000    0.0000    0.0000 C   0  0  0  0  0  0  0  0  0  0  0  0
   -0.0000    1.0058    0.0000 C   0  0  0  0  0  0  0  0  0  0  0  0
    0.8680    1.5138    0.0000 C   0  0  0  0  0  0  0  0  0  0  0  0
    1.7360    1.0058    0.0000 C   0  0  0  0  0  0  0  0  0  0  0  0
    1.7360   -0.0012    0.0000 C   0  0  0  0  0  0  0  0  0  0  0  0
    0.8680   -0.4978    0.0000 C   0  0  0  0  0  0  0  0  0  0  0  0
    2.6938   -0.3125    0.0000 C   0  0  0  0  0  0  0  0  0  0  0  0
    3.2858    0.5023    0.0000 C   0  0  0  0  0  0  0  0  0  0  0  0
    2.6938    1.3169    0.0000 N   0  0  0  0  0  0  0  0  0  0  0  0
    3.0028   -1.2636    0.0000 C   0  0  0  0  0  0  0  0  0  0  0  0
    3.9809   -1.4715    0.0000 C   0  0  0  0  0  0  0  0  0  0  0  0
    4.2899   -2.4226    0.0000 N   0  0  0  0  0  0  0  0  0  0  0  0
    5.2680   -2.6306    0.0000 C   0  0  0  0  0  0  0  0  0  0  0  0
    5.9372   -1.8874    0.0000 O   0  0  0  0  0  0  0  0  0  0  0  0
    5.5770   -3.5816    0.0000 N   0  0  0  0  0  0  0  0  0  0  0  0
  1  2  1  0  0  0  0
  2  3  1  0  0  0  0
  3  4  1  0  0  0  0
  4  5  1  0  0  0  0
  5 10  2  0  0  0  0
  5  6  1  0  0  0  0
  6  7  2  0  0  0  0
  7  8  1  0  0  0  0
  8 13  1  0  0  0  0
  8  9  2  0  0  0  0
  9 10  1  0  0  0  0
  9 11  1  0  0  0  0
 11 12  2  0  0  0  0
 12 13  1  0  0  0  0
 11 14  1  0  0  0  0
 14 15  1  0  0  0  0
 15 16  1  0  0  0  0
 16 17  1  0  0  0  0
 17 18  2  0  0  0  0
 17 19  1  0  0  0  0
M  END
$$$$
s_22____15754586____58886
  -OEChem-03222016482D

 20 21  0     1  0  0  0  0  0999 V2000
    3.9809   -1.4715    0.0000 C   0  0  0  0  0  0  0  0  0  0  0  0
    3.0028   -1.2636    0.0000 C   0  0  3  0  0  0  0  0  0  0  0  0
    2.3336   -2.0067    0.0000 C   0  0  0  0  0  0  0  0  0  0  0  0
    2.6426   -2.9578    0.0000 N   0  0  0  0  0  0  0  0  0  0  0  0
    1.9734   -3.7009    0.0000 C   0  0  0  0  0  0  0  0  0  0  0  0
    0.9953   -3.4929    0.0000 O   0  0  0  0  0  0  0  0  0  0  0  0
    2.2824   -4.6519    0.0000 C   0  0  0  0  0  0  0  0  0  0  0  0
    3.2605   -4.8599    0.0000 F   0  0  0  0  0  0  0  0  0  0  0  0
    1.6132   -5.3951    0.0000 F   0  0  0  0  0  0  0  0  0  0  0  0
    2.6938   -0.3125    0.0000 C   0  0  0  0  0  0  0  0  0  0  0  0
    3.2858    0.5023    0.0000 C   0  0  0  0  0  0  0  0  0  0  0  0
    2.6938    1.3169    0.0000 N   0  0  0  0  0  0  0  0  0  0  0  0
    1.7360    1.0058    0.0000 C   0  0  0  0  0  0  0  0  0  0  0  0
    1.7360   -0.0012    0.0000 C   0  0  0  0  0  0  0  0  0  0  0  0
    0.8680   -0.4978    0.0000 C   0  0  0  0  0  0  0  0  0  0  0  0
    0.0000    0.0000    0.0000 C   0  0  0  0  0  0  0  0  0  0  0  0
   -0.0000    1.0058    0.0000 C   0  0  0  0  0  0  0  0  0  0  0  0
    0.8680    1.5138    0.0000 C   0  0  0  0  0  0  0  0  0  0  0  0
   -0.8653   -0.5013    0.0000 O   0  0  0  0  0  0  0  0  0  0  0  0
   -0.8639   -1.5013    0.0000 C   0  0  0  0  0  0  0  0  0  0  0  0
  1  2  1  0  0  0  0
  2  3  1  0  0  0  0
  3  4  1  0  0  0  0
  4  5  1  0  0  0  0
  5  6  2  0  0  0  0
  5  7  1  0  0  0  0
  7  8  1  0  0  0  0
  7  9  1  0  0  0  0
  2 10  1  0  0  0  0
 10 14  1  0  0  0  0
 10 11  2  0  0  0  0
 11 12  1  0  0  0  0
 12 13  1  0  0  0  0
 13 18  2  0  0  0  0
 13 14  1  0  0  0  0
 14 15  2  0  0  0  0
 15 16  1  0  0  0  0
 16 17  2  0  0  0  0
 17 18  1  0  0  0  0
 16 19  1  0  0  0  0
 19 20  1  0  0  0  0
M  END
$$$$
s_22____13025516____17543248
  -OEChem-03222016482D

 19 20  0     0  0  0  0  0  0999 V2000
    0.0012   -1.9973    0.0000 C   0  0  0  0  0  0  0  0  0  0  0  0
    0.8675   -1.4978    0.0000 O   0  0  0  0  0  0  0  0  0  0  0  0
    0.8680   -0.4978    0.0000 C   0  0  0  0  0  0  0  0  0  0  0  0
    0.0000    0.0000    0.0000 C   0  0  0  0  0  0  0  0  0  0  0  0
   -0.0000    1.0058    0.0000 C   0  0  0  0  0  0  0  0  0  0  0  0
    0.8680    1.5138    0.0000 C   0  0  0  0  0  0  0  0  0  0  0  0
    1.7360    1.0058    0.0000 C   0  0  0  0  0  0  0  0  0  0  0  0
    1.7360   -0.0012    0.0000 C   0  0  0  0  0  0  0  0  0  0  0  0
    2.6938   -0.3125    0.0000 C   0  0  0  0  0  0  0  0  0  0  0  0
    3.2858    0.5023    0.0000 C   0  0  0  0  0  0  0  0  0  0  0  0
    2.6938    1.3169    0.0000 N   0  0  0  0  0  0  0  0  0  0  0  0
    3.0028   -1.2636    0.0000 C   0  0  0  0  0  0  0  0  0  0  0  0
    3.9809   -1.4715    0.0000 C   0  0  0  0  0  0  0  0  0  0  0  0
    4.2899   -2.4226    0.0000 N   0  0  0  0  0  0  0  0  0  0  0  0
    5.2680   -2.6306    0.0000 C   0  0  0  0  0  0  0  0  0  0  0  0
    5.9372   -1.8874    0.0000 O   0  0  0  0  0  0  0  0  0  0  0  0
    5.5770   -3.5816    0.0000 C   0  0  0  0  0  0  0  0  0  0  0  0
    6.5551   -3.7896    0.0000 C   0  0  0  0  0  0  0  0  0  0  0  0
    7.5333   -3.9976    0.0000 C   0  0  0  0  0  0  0  0  0  0  0  0
  1  2  1  0  0  0  0
  2  3  1  0  0  0  0
  3  8  2  0  0  0  0
  3  4  1  0  0  0  0
  4  5  2  0  0  0  0
  5  6  1  0  0  0  0
  6  7  2  0  0  0  0
  7 11  1  0  0  0  0
  7  8  1  0  0  0  0
  8  9  1  0  0  0  0
  9 10  2  0  0  0  0
 10 11  1  0  0  0  0
  9 12  1  0  0  0  0
 12 13  1  0  0  0  0
 13 14  1  0  0  0  0
 14 15  1  0  0  0  0
 15 16  2  0  0  0  0
 15 17  1  0  0  0  0
 17 18  2  0  0  0  0
 18 19  2  0  0  0  0
M  END
$$$$
s_240690b____7354388____3025680
  -OEChem-03222016482D

 19 20  0     0  0  0  0  0  0999 V2000
   -1.7320   -0.0025    0.0000 C   0  0  0  0  0  0  0  0  0  0  0  0
   -0.8653   -0.5013    0.0000 O   0  0  0  0  0  0  0  0  0  0  0  0
    0.0000    0.0000    0.0000 C   0  0  0  0  0  0  0  0  0  0  0  0
   -0.0000    1.0058    0.0000 C   0  0  0  0  0  0  0  0  0  0  0  0
    0.8680    1.5138    0.0000 C   0  0  0  0  0  0  0  0  0  0  0  0
    1.7360    1.0058    0.0000 C   0  0  0  0  0  0  0  0  0  0  0  0
    1.7360   -0.0012    0.0000 C   0  0  0  0  0  0  0  0  0  0  0  0
    0.8680   -0.4978    0.0000 C   0  0  0  0  0  0  0  0  0  0  0  0
    2.6938   -0.3125    0.0000 C   0  0  0  0  0  0  0  0  0  0  0  0
    3.2858    0.5023    0.0000 C   0  0  0  0  0  0  0  0  0  0  0  0
    2.6938    1.3169    0.0000 N   0  0  0  0  0  0  0  0  0  0  0  0
    3.0028   -1.2636    0.0000 C   0  0  0  0  0  0  0  0  0  0  0  0
    3.9809   -1.4715    0.0000 C   0  0  0  0  0  0  0  0  0  0  0  0
    4.2899   -2.4226    0.0000 N   0  0  0  0  0  0  0  0  0  0  0  0
    5.2680   -2.6306    0.0000 C   0  0  0  0  0  0  0  0  0  0  0  0
    5.9372   -1.8874    0.0000 O   0  0  0  0  0  0  0  0  0  0  0  0
    5.5770   -3.5816    0.0000 C   0  0  0  0  0  0  0  0  0  0  0  0
    6.5551   -3.7896    0.0000 C   0  0  0  0  0  0  0  0  0  0  0  0
    6.8641   -4.7407    0.0000 N   0  3  0  0  0  0  0  0  0  0  0  0
  1  2  1  0  0  0  0
  2  3  1  0  0  0  0
  3  8  2  0  0  0  0
  3  4  1  0  0  0  0
  4  5  2  0  0  0  0
  5  6  1  0  0  0  0
  6 11  1  0  0  0  0
  6  7  2  0  0  0  0
  7  8  1  0  0  0  0
  7  9  1  0  0  0  0
  9 10  2  0  0  0  0
 10 11  1  0  0  0  0
  9 12  1  0  0  0  0
 12 13  1  0  0  0  0
 13 14  1  0  0  0  0
 14 15  1  0  0  0  0
 15 16  2  0  0  0  0
 15 17  1  0  0  0  0
 17 18  1  0  0  0  0
 18 19  1  0  0  0  0
M  CHG  1  19   1
M  END
$$$$
s_275532____13829952____15269824
  -OEChem-03222016482D

 21 22  0     1  0  0  0  0  0999 V2000
    3.2860   -2.9618    0.0000 C   0  0  0  0  0  0  0  0  0  0  0  0
    2.7860   -2.0958    0.0000 O   0  0  0  0  0  0  0  0  0  0  0  0
    3.2859   -1.2298    0.0000 C   0  0  0  0  0  0  0  0  0  0  0  0
    4.2859   -1.2297    0.0000 C   0  0  0  0  0  0  0  0  0  0  0  0
    4.7859   -0.3636    0.0000 N   0  3  3  0  0  0  0  0  0  0  0  0
    4.2858    0.5024    0.0000 C   0  0  0  0  0  0  0  0  0  0  0  0
    3.2858    0.5023    0.0000 C   0  0  0  0  0  0  0  0  0  0  0  0
    2.6938   -0.3125    0.0000 C   0  0  0  0  0  0  0  0  0  0  0  0
    1.7360   -0.0012    0.0000 C   0  0  0  0  0  0  0  0  0  0  0  0
    1.7360    1.0058    0.0000 C   0  0  0  0  0  0  0  0  0  0  0  0
    2.6938    1.3169    0.0000 N   0  0  0  0  0  0  0  0  0  0  0  0
    0.8680    1.5138    0.0000 C   0  0  0  0  0  0  0  0  0  0  0  0
    0.0000    1.0058    0.0000 C   0  0  0  0  0  0  0  0  0  0  0  0
    0.0000    0.0000    0.0000 C   0  0  0  0  0  0  0  0  0  0  0  0
    0.8680   -0.4978    0.0000 C   0  0  0  0  0  0  0  0  0  0  0  0
    0.8675   -1.4978    0.0000 O   0  0  0  0  0  0  0  0  0  0  0  0
    1.7332   -1.9983    0.0000 C   0  0  0  0  0  0  0  0  0  0  0  0
    5.7859   -0.3636    0.0000 C   0  0  0  0  0  0  0  0  0  0  0  0
    6.2858    0.5025    0.0000 C   0  0  0  0  0  0  0  0  0  0  0  0
    5.7858    1.3685    0.0000 O   0  0  0  0  0  0  0  0  0  0  0  0
    7.2858    0.5025    0.0000 O   0  5  0  0  0  0  0  0  0  0  0  0
  1  2  1  0  0  0  0
  2  3  1  0  0  0  0
  3  4  1  0  0  0  0
  4  5  1  0  0  0  0
  5  6  1  0  0  0  0
  6  7  1  0  0  0  0
  7 11  1  0  0  0  0
  7  8  2  0  0  0  0
  8  9  1  0  0  0  0
  9 15  2  0  0  0  0
  9 10  1  0  0  0  0
 10 11  1  0  0  0  0
 10 12  2  0  0  0  0
 12 13  1  0  0  0  0
 13 14  2  0  0  0  0
 14 15  1  0  0  0  0
 15 16  1  0  0  0  0
 16 17  1  0  0  0  0
  5 18  1  0  0  0  0
 18 19  1  0  0  0  0
 19 20  2  0  0  0  0
 19 21  1  0  0  0  0
M  CHG  2   5   1  21  -1
M  END
$$$$
s_22____13596594____58844
  -OEChem-03222016482D

 15 16  0     0  0  0  0  0  0999 V2000
    5.5950   -3.5530    0.0000 C   0  0  0  0  0  0  0  0  0  0  0  0
    5.2808   -2.6037    0.0000 C   0  0  0  0  0  0  0  0  0  0  0  0
    5.9459   -1.8569    0.0000 O   0  0  0  0  0  0  0  0  0  0  0  0
    4.3016   -2.4011    0.0000 N   0  0  0  0  0  0  0  0  0  0  0  0
    3.9874   -1.4517    0.0000 C   0  0  0  0  0  0  0  0  0  0  0  0
    3.0082   -1.2491    0.0000 C   0  0  0  0  0  0  0  0  0  0  0  0
    2.6940   -0.2997    0.0000 C   0  0  0  0  0  0  0  0  0  0  0  0
    3.2780    0.5133    0.0000 C   0  0  0  0  0  0  0  0  0  0  0  0
    2.6851    1.3196    0.0000 N   0  0  0  0  0  0  0  0  0  0  0  0
    1.7350    1.0052    0.0000 C   0  0  0  0  0  0  0  0  0  0  0  0
    1.7405    0.0044    0.0000 C   0  0  0  0  0  0  0  0  0  0  0  0
    0.8675   -0.4975    0.0000 C   0  0  0  0  0  0  0  0  0  0  0  0
    0.0000    0.0000    0.0000 C   0  0  0  0  0  0  0  0  0  0  0  0
   -0.0000    1.0052    0.0000 C   0  0  0  0  0  0  0  0  0  0  0  0
    0.8675    1.5129    0.0000 N   0  0  0  0  0  0  0  0  0  0  0  0
  1  2  1  0  0  0  0
  2  3  2  0  0  0  0
  2  4  1  0  0  0  0
  4  5  1  0  0  0  0
  5  6  1  0  0  0  0
  6  7  1  0  0  0  0
  7 11  1  0  0  0  0
  7  8  2  0  0  0  0
  8  9  1  0  0  0  0
  9 10  1  0  0  0  0
 10 15  2  0  0  0  0
 10 11  1  0  0  0  0
 11 12  2  0  0  0  0
 12 13  1  0  0  0  0
 13 14  2  0  0  0  0
 14 15  1  0  0  0  0
M  END
$$$$
s_22____13025516____8794444
  -OEChem-03222016482D

 19 20  0     0  0  0  0  0  0999 V2000
    0.0012   -1.9973    0.0000 C   0  0  0  0  0  0  0  0  0  0  0  0
    0.8675   -1.4978    0.0000 O   0  0  0  0  0  0  0  0  0  0  0  0
    0.8680   -0.4978    0.0000 C   0  0  0  0  0  0  0  0  0  0  0  0
    0.0000    0.0000    0.0000 C   0  0  0  0  0  0  0  0  0  0  0  0
   -0.0000    1.0058    0.0000 C   0  0  0  0  0  0  0  0  0  0  0  0
    0.8680    1.5138    0.0000 C   0  0  0  0  0  0  0  0  0  0  0  0
    1.7360    1.0058    0.0000 C   0  0  0  0  0  0  0  0  0  0  0  0
    1.7360   -0.0012    0.0000 C   0  0  0  0  0  0  0  0  0  0  0  0
    2.6938   -0.3125    0.0000 C   0  0  0  0  0  0  0  0  0  0  0  0
    3.2858    0.5023    0.0000 C   0  0  0  0  0  0  0  0  0  0  0  0
    2.6938    1.3169    0.0000 N   0  0  0  0  0  0  0  0  0  0  0  0
    3.0028   -1.2636    0.0000 C   0  0  0  0  0  0  0  0  0  0  0  0
    3.9809   -1.4715    0.0000 C   0  0  0  0  0  0  0  0  0  0  0  0
    4.2899   -2.4226    0.0000 N   0  0  0  0  0  0  0  0  0  0  0  0
    5.2680   -2.6306    0.0000 C   0  0  0  0  0  0  0  0  0  0  0  0
    5.9372   -1.8874    0.0000 O   0  0  0  0  0  0  0  0  0  0  0  0
    5.5770   -3.5816    0.0000 C   0  0  0  0  0  0  0  0  0  0  0  0
    6.5551   -3.7896    0.0000 C   0  0  0  0  0  0  0  0  0  0  0  0
    7.5333   -3.9976    0.0000 N   0  0  0  0  0  0  0  0  0  0  0  0
  1  2  1  0  0  0  0
  2  3  1  0  0  0  0
  3  8  2  0  0  0  0
  3  4  1  0  0  0  0
  4  5  2  0  0  0  0
  5  6  1  0  0  0  0
  6  7  2  0  0  0  0
  7 11  1  0  0  0  0
  7  8  1  0  0  0  0
  8  9  1  0  0  0  0
  9 10  2  0  0  0  0
 10 11  1  0  0  0  0
  9 12  1  0  0  0  0
 12 13  1  0  0  0  0
 13 14  1  0  0  0  0
 14 15  1  0  0  0  0
 15 16  2  0  0  0  0
 15 17  1  0  0  0  0
 17 18  1  0  0  0  0
 18 19  3  0  0  0  0
M  END
$$$$
s_22____16900452____58844
  -OEChem-03222016482D

 16 17  0     0  0  0  0  0  0999 V2000
    5.5770   -3.5816    0.0000 C   0  0  0  0  0  0  0  0  0  0  0  0
    5.2680   -2.6306    0.0000 C   0  0  0  0  0  0  0  0  0  0  0  0
    5.9372   -1.8874    0.0000 O   0  0  0  0  0  0  0  0  0  0  0  0
    4.2899   -2.4226    0.0000 N   0  0  0  0  0  0  0  0  0  0  0  0
    3.9809   -1.4715    0.0000 C   0  0  0  0  0  0  0  0  0  0  0  0
    3.0028   -1.2636    0.0000 C   0  0  0  0  0  0  0  0  0  0  0  0
    2.6938   -0.3125    0.0000 C   0  0  0  0  0  0  0  0  0  0  0  0
    3.2858    0.5023    0.0000 C   0  0  0  0  0  0  0  0  0  0  0  0
    2.6938    1.3169    0.0000 N   0  0  0  0  0  0  0  0  0  0  0  0
    1.7360    1.0058    0.0000 C   0  0  0  0  0  0  0  0  0  0  0  0
    1.7360   -0.0012    0.0000 C   0  0  0  0  0  0  0  0  0  0  0  0
    0.8680   -0.4978    0.0000 C   0  0  0  0  0  0  0  0  0  0  0  0
    0.0000    0.0000    0.0000 C   0  0  0  0  0  0  0  0  0  0  0  0
   -0.0000    1.0058    0.0000 C   0  0  0  0  0  0  0  0  0  0  0  0
    0.8680    1.5138    0.0000 C   0  0  0  0  0  0  0  0  0  0  0  0
    0.8675   -1.4978    0.0000 F   0  0  0  0  0  0  0  0  0  0  0  0
  1  2  1  0  0  0  0
  2  3  2  0  0  0  0
  2  4  1  0  0  0  0
  4  5  1  0  0  0  0
  5  6  1  0  0  0  0
  6  7  1  0  0  0  0
  7 11  1  0  0  0  0
  7  8  2  0  0  0  0
  8  9  1  0  0  0  0
  9 10  1  0  0  0  0
 10 15  2  0  0  0  0
 10 11  1  0  0  0  0
 11 12  2  0  0  0  0
 12 13  1  0  0  0  0
 13 14  2  0  0  0  0
 14 15  1  0  0  0  0
 12 16  1  0  0  0  0
M  END
$$$$
s_22____12346432____9296322
  -OEChem-03222016482D

 18 19  0     0  0  0  0  0  0999 V2000
    6.1949   -5.4838    0.0000 C   0  0  0  0  0  0  0  0  0  0  0  0
    5.8860   -4.5327    0.0000 C   0  0  0  0  0  0  0  0  0  0  0  0
    5.5770   -3.5816    0.0000 C   0  0  0  0  0  0  0  0  0  0  0  0
    5.2680   -2.6306    0.0000 C   0  0  0  0  0  0  0  0  0  0  0  0
    5.9372   -1.8874    0.0000 O   0  0  0  0  0  0  0  0  0  0  0  0
    4.2899   -2.4226    0.0000 N   0  0  0  0  0  0  0  0  0  0  0  0
    3.9809   -1.4715    0.0000 C   0  0  0  0  0  0  0  0  0  0  0  0
    3.0028   -1.2636    0.0000 C   0  0  0  0  0  0  0  0  0  0  0  0
    2.6938   -0.3125    0.0000 C   0  0  0  0  0  0  0  0  0  0  0  0
    3.2858    0.5023    0.0000 C   0  0  0  0  0  0  0  0  0  0  0  0
    2.6938    1.3169    0.0000 N   0  0  0  0  0  0  0  0  0  0  0  0
    1.7360    1.0058    0.0000 C   0  0  0  0  0  0  0  0  0  0  0  0
    1.7360   -0.0012    0.0000 C   0  0  0  0  0  0  0  0  0  0  0  0
    0.8680   -0.4978    0.0000 C   0  0  0  0  0  0  0  0  0  0  0  0
    0.0000    0.0000    0.0000 C   0  0  0  0  0  0  0  0  0  0  0  0
   -0.0000    1.0058    0.0000 C   0  0  0  0  0  0  0  0  0  0  0  0
    0.8680    1.5138    0.0000 C   0  0  0  0  0  0  0  0  0  0  0  0
    0.8680    2.5138    0.0000 Cl  0  0  0  0  0  0  0  0  0  0  0  0
  1  2  1  0  0  0  0
  2  3  3  0  0  0  0
  3  4  1  0  0  0  0
  4  5  2  0  0  0  0
  4  6  1  0  0  0  0
  6  7  1  0  0  0  0
  7  8  1  0  0  0  0
  8  9  1  0  0  0  0
  9 13  1  0  0  0  0
  9 10  2  0  0  0  0
 10 11  1  0  0  0  0
 11 12  1  0  0  0  0
 12 17  2  0  0  0  0
 12 13  1  0  0  0  0
 13 14  2  0  0  0  0
 14 15  1  0  0  0  0
 15 16  2  0  0  0  0
 16 17  1  0  0  0  0
 17 18  1  0  0  0  0
M  END
$$$$
s_22____9966972____58887
  -OEChem-03222016482D

 18 19  0     0  0  0  0  0  0999 V2000
    6.8641   -4.7407    0.0000 C   0  0  0  0  0  0  0  0  0  0  0  0
    6.5551   -3.7896    0.0000 C   0  0  0  0  0  0  0  0  0  0  0  0
    5.5770   -3.5816    0.0000 C   0  0  0  0  0  0  0  0  0  0  0  0
    4.9078   -4.3247    0.0000 O   0  0  0  0  0  0  0  0  0  0  0  0
    5.2680   -2.6306    0.0000 N   0  0  0  0  0  0  0  0  0  0  0  0
    4.2899   -2.4226    0.0000 C   0  0  0  0  0  0  0  0  0  0  0  0
    3.9809   -1.4715    0.0000 C   0  0  0  0  0  0  0  0  0  0  0  0
    3.0028   -1.2636    0.0000 C   0  0  0  0  0  0  0  0  0  0  0  0
    2.6938   -0.3125    0.0000 C   0  0  0  0  0  0  0  0  0  0  0  0
    3.2858    0.5023    0.0000 C   0  0  0  0  0  0  0  0  0  0  0  0
    2.6938    1.3169    0.0000 N   0  0  0  0  0  0  0  0  0  0  0  0
    1.7360    1.0058    0.0000 C   0  0  0  0  0  0  0  0  0  0  0  0
    1.7360   -0.0012    0.0000 C   0  0  0  0  0  0  0  0  0  0  0  0
    0.8680   -0.4978    0.0000 C   0  0  0  0  0  0  0  0  0  0  0  0
    0.0000    0.0000    0.0000 C   0  0  0  0  0  0  0  0  0  0  0  0
   -0.0000    1.0058    0.0000 C   0  0  0  0  0  0  0  0  0  0  0  0
    0.8680    1.5138    0.0000 C   0  0  0  0  0  0  0  0  0  0  0  0
   -0.8653   -0.5013    0.0000 F   0  0  0  0  0  0  0  0  0  0  0  0
  1  2  1  0  0  0  0
  2  3  1  0  0  0  0
  3  4  2  0  0  0  0
  3  5  1  0  0  0  0
  5  6  1  0  0  0  0
  6  7  1  0  0  0  0
  7  8  1  0  0  0  0
  8  9  1  0  0  0  0
  9 13  1  0  0  0  0
  9 10  2  0  0  0  0
 10 11  1  0  0  0  0
 11 12  1  0  0  0  0
 12 17  2  0  0  0  0
 12 13  1  0  0  0  0
 13 14  2  0  0  0  0
 14 15  1  0  0  0  0
 15 16  2  0  0  0  0
 16 17  1  0  0  0  0
 15 18  1  0  0  0  0
M  END
$$$$
s_240690b____17036622____3025680
  -OEChem-03222016482D

 18 19  0     0  0  0  0  0  0999 V2000
    0.0000    0.0000    0.0000 C   0  0  0  0  0  0  0  0  0  0  0  0
    0.8780    0.4964    0.0000 C   0  0  0  0  0  0  0  0  0  0  0  0
    1.8332    0.1849    0.0000 C   0  0  0  0  0  0  0  0  0  0  0  0
    2.4247    0.9971    0.0000 C   0  0  0  0  0  0  0  0  0  0  0  0
    1.8349    1.8105    0.0000 N   0  0  0  0  0  0  0  0  0  0  0  0
    0.8791    1.5011    0.0000 C   0  0  0  0  0  0  0  0  0  0  0  0
    0.0101    2.0110    0.0000 C   0  0  0  0  0  0  0  0  0  0  0  0
   -0.8584    1.5098    0.0000 N   0  0  0  0  0  0  0  0  0  0  0  0
   -0.8635    0.5043    0.0000 C   0  0  0  0  0  0  0  0  0  0  0  0
   -1.7320    0.0087    0.0000 Cl  0  0  0  0  0  0  0  0  0  0  0  0
    2.1412   -0.7665    0.0000 C   0  0  0  0  0  0  0  0  0  0  0  0
    3.1191   -0.9755    0.0000 C   0  0  0  0  0  0  0  0  0  0  0  0
    3.4271   -1.9269    0.0000 N   0  0  0  0  0  0  0  0  0  0  0  0
    4.4050   -2.1359    0.0000 C   0  0  0  0  0  0  0  0  0  0  0  0
    5.0749   -1.3935    0.0000 O   0  0  0  0  0  0  0  0  0  0  0  0
    4.7129   -3.0873    0.0000 C   0  0  0  0  0  0  0  0  0  0  0  0
    5.6909   -3.2963    0.0000 C   0  0  0  0  0  0  0  0  0  0  0  0
    5.9988   -4.2477    0.0000 N   0  3  0  0  0  0  0  0  0  0  0  0
  1  9  2  0  0  0  0
  1  2  1  0  0  0  0
  2  6  2  0  0  0  0
  2  3  1  0  0  0  0
  3  4  2  0  0  0  0
  4  5  1  0  0  0  0
  5  6  1  0  0  0  0
  6  7  1  0  0  0  0
  7  8  2  0  0  0  0
  8  9  1  0  0  0  0
  9 10  1  0  0  0  0
  3 11  1  0  0  0  0
 11 12  1  0  0  0  0
 12 13  1  0  0  0  0
 13 14  1  0  0  0  0
 14 15  2  0  0  0  0
 14 16  1  0  0  0  0
 16 17  1  0  0  0  0
 17 18  1  0  0  0  0
M  CHG  1  18   1
M  END
$$$$
s_22____16900452____59039
  -OEChem-03222016482D

 18 19  0     0  0  0  0  0  0999 V2000
    6.8641   -4.7407    0.0000 C   0  0  0  0  0  0  0  0  0  0  0  0
    6.5551   -3.7896    0.0000 O   0  0  0  0  0  0  0  0  0  0  0  0
    5.5770   -3.5816    0.0000 C   0  0  0  0  0  0  0  0  0  0  0  0
    5.2680   -2.6306    0.0000 C   0  0  0  0  0  0  0  0  0  0  0  0
    5.9372   -1.8874    0.0000 O   0  0  0  0  0  0  0  0  0  0  0  0
    4.2899   -2.4226    0.0000 N   0  0  0  0  0  0  0  0  0  0  0  0
    3.9809   -1.4715    0.0000 C   0  0  0  0  0  0  0  0  0  0  0  0
    3.0028   -1.2636    0.0000 C   0  0  0  0  0  0  0  0  0  0  0  0
    2.6938   -0.3125    0.0000 C   0  0  0  0  0  0  0  0  0  0  0  0
    3.2858    0.5023    0.0000 C   0  0  0  0  0  0  0  0  0  0  0  0
    2.6938    1.3169    0.0000 N   0  0  0  0  0  0  0  0  0  0  0  0
    1.7360    1.0058    0.0000 C   0  0  0  0  0  0  0  0  0  0  0  0
    1.7360   -0.0012    0.0000 C   0  0  0  0  0  0  0  0  0  0  0  0
    0.8680   -0.4978    0.0000 C   0  0  0  0  0  0  0  0  0  0  0  0
    0.0000    0.0000    0.0000 C   0  0  0  0  0  0  0  0  0  0  0  0
   -0.0000    1.0058    0.0000 C   0  0  0  0  0  0  0  0  0  0  0  0
    0.8680    1.5138    0.0000 C   0  0  0  0  0  0  0  0  0  0  0  0
    0.8675   -1.4978    0.0000 F   0  0  0  0  0  0  0  0  0  0  0  0
  1  2  1  0  0  0  0
  2  3  1  0  0  0  0
  3  4  1  0  0  0  0
  4  5  2  0  0  0  0
  4  6  1  0  0  0  0
  6  7  1  0  0  0  0
  7  8  1  0  0  0  0
  8  9  1  0  0  0  0
  9 13  1  0  0  0  0
  9 10  2  0  0  0  0
 10 11  1  0  0  0  0
 11 12  1  0  0  0  0
 12 17  2  0  0  0  0
 12 13  1  0  0  0  0
 13 14  2  0  0  0  0
 14 15  1  0  0  0  0
 15 16  2  0  0  0  0
 16 17  1  0  0  0  0
 14 18  1  0  0  0  0
M  END
$$$$
s_512____4862204____13978836
  -OEChem-03222016482D

 21 22  0     0  0  0  0  0  0999 V2000
   -0.8705    2.5032    0.0000 C   0  0  0  0  0  0  0  0  0  0  0  0
   -0.8675    1.5032    0.0000 O   0  0  0  0  0  0  0  0  0  0  0  0
    0.0000    1.0058    0.0000 C   0  0  0  0  0  0  0  0  0  0  0  0
    0.0000    0.0000    0.0000 C   0  0  0  0  0  0  0  0  0  0  0  0
    0.8680   -0.4978    0.0000 C   0  0  0  0  0  0  0  0  0  0  0  0
    1.7360   -0.0012    0.0000 C   0  0  0  0  0  0  0  0  0  0  0  0
    1.7360    1.0058    0.0000 C   0  0  0  0  0  0  0  0  0  0  0  0
    0.8680    1.5138    0.0000 C   0  0  0  0  0  0  0  0  0  0  0  0
    2.6938    1.3169    0.0000 N   0  0  0  0  0  0  0  0  0  0  0  0
    3.2858    0.5023    0.0000 C   0  0  0  0  0  0  0  0  0  0  0  0
    2.6938   -0.3125    0.0000 C   0  0  0  0  0  0  0  0  0  0  0  0
    3.0028   -1.2636    0.0000 C   0  0  0  0  0  0  0  0  0  0  0  0
    3.9809   -1.4715    0.0000 C   0  0  0  0  0  0  0  0  0  0  0  0
    4.2899   -2.4226    0.0000 N   0  0  0  0  0  0  0  0  0  0  0  0
    5.2680   -2.6306    0.0000 C   0  0  0  0  0  0  0  0  0  0  0  0
    5.9372   -1.8874    0.0000 O   0  0  0  0  0  0  0  0  0  0  0  0
    5.5770   -3.5816    0.0000 N   0  0  0  0  0  0  0  0  0  0  0  0
    6.5551   -3.7896    0.0000 C   0  0  0  0  0  0  0  0  0  0  0  0
    6.8641   -4.7407    0.0000 C   0  0  0  0  0  0  0  0  0  0  0  0
    7.8422   -4.9486    0.0000 C   0  0  0  0  0  0  0  0  0  0  0  0
    8.8204   -5.1566    0.0000 C   0  0  0  0  0  0  0  0  0  0  0  0
  1  2  1  0  0  0  0
  2  3  1  0  0  0  0
  3  8  2  0  0  0  0
  3  4  1  0  0  0  0
  4  5  2  0  0  0  0
  5  6  1  0  0  0  0
  6 11  1  0  0  0  0
  6  7  2  0  0  0  0
  7  8  1  0  0  0  0
  7  9  1  0  0  0  0
  9 10  1  0  0  0  0
 10 11  2  0  0  0  0
 11 12  1  0  0  0  0
 12 13  1  0  0  0  0
 13 14  1  0  0  0  0
 14 15  1  0  0  0  0
 15 16  2  0  0  0  0
 15 17  1  0  0  0  0
 17 18  1  0  0  0  0
 18 19  1  0  0  0  0
 19 20  1  0  0  0  0
 20 21  3  0  0  0  0
M  END
$$$$
s_22____13771018____12103014
  -OEChem-03222016482D

 21 22  0     0  0  0  0  0  0999 V2000
   -3.4641   -0.0050    0.0000 C   0  0  0  0  0  0  0  0  0  0  0  0
   -2.5974   -0.5038    0.0000 C   0  0  0  0  0  0  0  0  0  0  0  0
   -1.7320   -0.0025    0.0000 C   0  0  0  0  0  0  0  0  0  0  0  0
   -0.8653   -0.5013    0.0000 O   0  0  0  0  0  0  0  0  0  0  0  0
    0.0000    0.0000    0.0000 C   0  0  0  0  0  0  0  0  0  0  0  0
   -0.0000    1.0058    0.0000 C   0  0  0  0  0  0  0  0  0  0  0  0
    0.8680    1.5138    0.0000 C   0  0  0  0  0  0  0  0  0  0  0  0
    1.7360    1.0058    0.0000 C   0  0  0  0  0  0  0  0  0  0  0  0
    1.7360   -0.0012    0.0000 C   0  0  0  0  0  0  0  0  0  0  0  0
    0.8680   -0.4978    0.0000 C   0  0  0  0  0  0  0  0  0  0  0  0
    2.6938   -0.3125    0.0000 C   0  0  0  0  0  0  0  0  0  0  0  0
    3.2858    0.5023    0.0000 C   0  0  0  0  0  0  0  0  0  0  0  0
    2.6938    1.3169    0.0000 N   0  0  0  0  0  0  0  0  0  0  0  0
    3.0028   -1.2636    0.0000 C   0  0  0  0  0  0  0  0  0  0  0  0
    3.9809   -1.4715    0.0000 C   0  0  0  0  0  0  0  0  0  0  0  0
    4.2899   -2.4226    0.0000 N   0  0  0  0  0  0  0  0  0  0  0  0
    5.2680   -2.6306    0.0000 C   0  0  0  0  0  0  0  0  0  0  0  0
    5.9372   -1.8874    0.0000 O   0  0  0  0  0  0  0  0  0  0  0  0
    5.5770   -3.5816    0.0000 C   0  0  0  0  0  0  0  0  0  0  0  0
    6.5551   -3.7896    0.0000 C   0  0  0  0  0  0  0  0  0  0  0  0
    6.8641   -4.7407    0.0000 C   0  0  0  0  0  0  0  0  0  0  0  0
  1  2  1  0  0  0  0
  2  3  1  0  0  0  0
  3  4  1  0  0  0  0
  4  5  1  0  0  0  0
  5 10  2  0  0  0  0
  5  6  1  0  0  0  0
  6  7  2  0  0  0  0
  7  8  1  0  0  0  0
  8 13  1  0  0  0  0
  8  9  2  0  0  0  0
  9 10  1  0  0  0  0
  9 11  1  0  0  0  0
 11 12  2  0  0  0  0
 12 13  1  0  0  0  0
 11 14  1  0  0  0  0
 14 15  1  0  0  0  0
 15 16  1  0  0  0  0
 16 17  1  0  0  0  0
 17 18  2  0  0  0  0
 17 19  1  0  0  0  0
 19 20  2  3  0  0  0
 20 21  1  0  0  0  0
M  END
$$$$
s_22____4839448____10687876
  -OEChem-03222016482D

 21 23  0     0  0  0  0  0  0999 V2000
   -1.7320   -0.0025    0.0000 C   0  0  0  0  0  0  0  0  0  0  0  0
   -0.8653   -0.5013    0.0000 O   0  0  0  0  0  0  0  0  0  0  0  0
    0.0000    0.0000    0.0000 C   0  0  0  0  0  0  0  0  0  0  0  0
   -0.0000    1.0058    0.0000 C   0  0  0  0  0  0  0  0  0  0  0  0
    0.8680    1.5138    0.0000 C   0  0  0  0  0  0  0  0  0  0  0  0
    1.7360    1.0058    0.0000 C   0  0  0  0  0  0  0  0  0  0  0  0
    1.7360   -0.0012    0.0000 C   0  0  0  0  0  0  0  0  0  0  0  0
    0.8680   -0.4978    0.0000 C   0  0  0  0  0  0  0  0  0  0  0  0
    2.6938   -0.3125    0.0000 C   0  0  0  0  0  0  0  0  0  0  0  0
    3.2858    0.5023    0.0000 C   0  0  0  0  0  0  0  0  0  0  0  0
    2.6938    1.3169    0.0000 N   0  0  0  0  0  0  0  0  0  0  0  0
    3.0028   -1.2636    0.0000 C   0  0  0  0  0  0  0  0  0  0  0  0
    3.9809   -1.4715    0.0000 C   0  0  0  0  0  0  0  0  0  0  0  0
    4.2899   -2.4226    0.0000 N   0  0  0  0  0  0  0  0  0  0  0  0
    5.2680   -2.6306    0.0000 C   0  0  0  0  0  0  0  0  0  0  0  0
    5.9372   -1.8874    0.0000 O   0  0  0  0  0  0  0  0  0  0  0  0
    5.5770   -3.5816    0.0000 C   0  0  0  0  0  0  0  0  0  0  0  0
    6.5551   -3.7896    0.0000 S   0  0  0  0  0  0  0  0  0  0  0  0
    6.8641   -4.7407    0.0000 C   0  0  0  0  0  0  0  0  0  0  0  0
    6.6568   -5.7209    0.0000 C   0  0  0  0  0  0  0  0  0  0  0  0
    7.6079   -5.4119    0.0000 C   0  0  0  0  0  0  0  0  0  0  0  0
  1  2  1  0  0  0  0
  2  3  1  0  0  0  0
  3  8  2  0  0  0  0
  3  4  1  0  0  0  0
  4  5  2  0  0  0  0
  5  6  1  0  0  0  0
  6 11  1  0  0  0  0
  6  7  2  0  0  0  0
  7  8  1  0  0  0  0
  7  9  1  0  0  0  0
  9 10  2  0  0  0  0
 10 11  1  0  0  0  0
  9 12  1  0  0  0  0
 12 13  1  0  0  0  0
 13 14  1  0  0  0  0
 14 15  1  0  0  0  0
 15 16  2  0  0  0  0
 15 17  1  0  0  0  0
 17 18  1  0  0  0  0
 18 19  1  0  0  0  0
 19 21  1  0  0  0  0
 19 20  1  0  0  0  0
 20 21  1  0  0  0  0
M  END
$$$$
s_512____11969934____15506628
  -OEChem-03222016482D

 21 22  0     0  0  0  0  0  0999 V2000
    1.7340    3.0138    0.0000 C   0  0  0  0  0  0  0  0  0  0  0  0
    0.8680    2.5138    0.0000 O   0  0  0  0  0  0  0  0  0  0  0  0
    0.8680    1.5138    0.0000 C   0  0  0  0  0  0  0  0  0  0  0  0
    0.0000    1.0058    0.0000 C   0  0  0  0  0  0  0  0  0  0  0  0
    0.0000    0.0000    0.0000 C   0  0  0  0  0  0  0  0  0  0  0  0
    0.8680   -0.4978    0.0000 C   0  0  0  0  0  0  0  0  0  0  0  0
    1.7360   -0.0012    0.0000 C   0  0  0  0  0  0  0  0  0  0  0  0
    1.7360    1.0058    0.0000 C   0  0  0  0  0  0  0  0  0  0  0  0
    2.6938    1.3169    0.0000 N   0  0  0  0  0  0  0  0  0  0  0  0
    3.2858    0.5023    0.0000 C   0  0  0  0  0  0  0  0  0  0  0  0
    2.6938   -0.3125    0.0000 C   0  0  0  0  0  0  0  0  0  0  0  0
    3.0028   -1.2636    0.0000 C   0  0  0  0  0  0  0  0  0  0  0  0
    3.9809   -1.4715    0.0000 C   0  0  0  0  0  0  0  0  0  0  0  0
    4.2899   -2.4226    0.0000 N   0  0  0  0  0  0  0  0  0  0  0  0
    5.2680   -2.6306    0.0000 C   0  0  0  0  0  0  0  0  0  0  0  0
    5.9372   -1.8874    0.0000 O   0  0  0  0  0  0  0  0  0  0  0  0
    5.5770   -3.5816    0.0000 N   0  0  0  0  0  0  0  0  0  0  0  0
    6.5551   -3.7896    0.0000 C   0  0  0  0  0  0  0  0  0  0  0  0
    6.8641   -4.7407    0.0000 C   0  0  0  0  0  0  0  0  0  0  0  0
    7.8422   -4.9486    0.0000 C   0  0  0  0  0  0  0  0  0  0  0  0
    8.1512   -5.8997    0.0000 C   0  0  0  0  0  0  0  0  0  0  0  0
  1  2  1  0  0  0  0
  2  3  1  0  0  0  0
  3  8  2  0  0  0  0
  3  4  1  0  0  0  0
  4  5  2  0  0  0  0
  5  6  1  0  0  0  0
  6  7  2  0  0  0  0
  7 11  1  0  0  0  0
  7  8  1  0  0  0  0
  8  9  1  0  0  0  0
  9 10  1  0  0  0  0
 10 11  2  0  0  0  0
 11 12  1  0  0  0  0
 12 13  1  0  0  0  0
 13 14  1  0  0  0  0
 14 15  1  0  0  0  0
 15 16  2  0  0  0  0
 15 17  1  0  0  0  0
 17 18  1  0  0  0  0
 18 19  1  0  0  0  0
 19 20  1  0  0  0  0
 20 21  2  0  0  0  0
M  END
$$$$
s_240690b____12637968____7368582
  -OEChem-03222016482D

 20 21  0     0  0  0  0  0  0999 V2000
    3.9538   -0.9546    0.0000 C   0  0  0  0  0  0  0  0  0  0  0  0
    3.0028   -1.2636    0.0000 C   0  0  0  0  0  0  0  0  0  0  0  0
    2.0517   -1.5725    0.0000 C   0  0  0  0  0  0  0  0  0  0  0  0
    3.3117   -2.2146    0.0000 C   0  0  0  0  0  0  0  0  0  0  0  0
    4.2899   -2.4226    0.0000 N   0  0  0  0  0  0  0  0  0  0  0  0
    4.5989   -3.3737    0.0000 C   0  0  0  0  0  0  0  0  0  0  0  0
    3.9297   -4.1168    0.0000 O   0  0  0  0  0  0  0  0  0  0  0  0
    5.5770   -3.5816    0.0000 C   0  0  0  0  0  0  0  0  0  0  0  0
    5.8860   -4.5327    0.0000 N   0  3  0  0  0  0  0  0  0  0  0  0
    6.8641   -4.7407    0.0000 C   0  0  0  0  0  0  0  0  0  0  0  0
    2.6938   -0.3125    0.0000 C   0  0  0  0  0  0  0  0  0  0  0  0
    3.2858    0.5023    0.0000 C   0  0  0  0  0  0  0  0  0  0  0  0
    2.6938    1.3169    0.0000 N   0  0  0  0  0  0  0  0  0  0  0  0
    1.7360    1.0058    0.0000 C   0  0  0  0  0  0  0  0  0  0  0  0
    1.7360   -0.0012    0.0000 C   0  0  0  0  0  0  0  0  0  0  0  0
    0.8680   -0.4978    0.0000 C   0  0  0  0  0  0  0  0  0  0  0  0
    0.0000    0.0000    0.0000 C   0  0  0  0  0  0  0  0  0  0  0  0
   -0.0000    1.0058    0.0000 C   0  0  0  0  0  0  0  0  0  0  0  0
    0.8680    1.5138    0.0000 C   0  0  0  0  0  0  0  0  0  0  0  0
   -0.8675    1.5032    0.0000 F   0  0  0  0  0  0  0  0  0  0  0  0
  1  2  1  0  0  0  0
  2  3  1  0  0  0  0
  2  4  1  0  0  0  0
  4  5  1  0  0  0  0
  5  6  1  0  0  0  0
  6  7  2  0  0  0  0
  6  8  1  0  0  0  0
  8  9  1  0  0  0  0
  9 10  1  0  0  0  0
  2 11  1  0  0  0  0
 11 15  1  0  0  0  0
 11 12  2  0  0  0  0
 12 13  1  0  0  0  0
 13 14  1  0  0  0  0
 14 19  2  0  0  0  0
 14 15  1  0  0  0  0
 15 16  2  0  0  0  0
 16 17  1  0  0  0  0
 17 18  2  0  0  0  0
 18 19  1  0  0  0  0
 18 20  1  0  0  0  0
M  CHG  1   9   1
M  END
$$$$
s_22____17638894____9296322
  -OEChem-03222016482D

 19 20  0     1  0  0  0  0  0999 V2000
    7.2860   -2.9616    0.0000 C   0  0  0  0  0  0  0  0  0  0  0  0
    6.7860   -2.0956    0.0000 C   0  0  0  0  0  0  0  0  0  0  0  0
    6.2859   -1.2296    0.0000 C   0  0  0  0  0  0  0  0  0  0  0  0
    5.7859   -0.3636    0.0000 C   0  0  0  0  0  0  0  0  0  0  0  0
    6.2858    0.5025    0.0000 O   0  0  0  0  0  0  0  0  0  0  0  0
    4.7859   -0.3636    0.0000 N   0  0  0  0  0  0  0  0  0  0  0  0
    4.2858    0.5024    0.0000 C   0  0  3  0  0  0  0  0  0  0  0  0
    4.7857    1.3684    0.0000 C   0  0  0  0  0  0  0  0  0  0  0  0
    3.2858    0.5023    0.0000 C   0  0  0  0  0  0  0  0  0  0  0  0
    2.6938   -0.3125    0.0000 C   0  0  0  0  0  0  0  0  0  0  0  0
    1.7360   -0.0012    0.0000 C   0  0  0  0  0  0  0  0  0  0  0  0
    0.8680   -0.4978    0.0000 C   0  0  0  0  0  0  0  0  0  0  0  0
    0.0000    0.0000    0.0000 C   0  0  0  0  0  0  0  0  0  0  0  0
    0.0000    1.0058    0.0000 C   0  0  0  0  0  0  0  0  0  0  0  0
    0.8680    1.5138    0.0000 C   0  0  0  0  0  0  0  0  0  0  0  0
    1.7360    1.0058    0.0000 C   0  0  0  0  0  0  0  0  0  0  0  0
    2.6938    1.3169    0.0000 O   0  0  0  0  0  0  0  0  0  0  0  0
    0.8680    2.5138    0.0000 O   0  0  0  0  0  0  0  0  0  0  0  0
    0.0020    3.0138    0.0000 C   0  0  0  0  0  0  0  0  0  0  0  0
  1  2  1  0  0  0  0
  2  3  3  0  0  0  0
  3  4  1  0  0  0  0
  4  5  2  0  0  0  0
  4  6  1  0  0  0  0
  6  7  1  0  0  0  0
  7  8  1  0  0  0  0
  7  9  1  0  0  0  0
  9 17  1  0  0  0  0
  9 10  2  0  0  0  0
 10 11  1  0  0  0  0
 11 16  2  0  0  0  0
 11 12  1  0  0  0  0
 12 13  2  0  0  0  0
 13 14  1  0  0  0  0
 14 15  2  0  0  0  0
 15 16  1  0  0  0  0
 16 17  1  0  0  0  0
 15 18  1  0  0  0  0
 18 19  1  0  0  0  0
M  END
$$$$
s_22____15506616____16726278
  -OEChem-03222016482D

 21 22  0     0  0  0  0  0  0999 V2000
    8.1512   -5.8997    0.0000 C   0  0  0  0  0  0  0  0  0  0  0  0
    7.8422   -4.9486    0.0000 C   0  0  0  0  0  0  0  0  0  0  0  0
    6.8641   -4.7407    0.0000 C   0  0  0  0  0  0  0  0  0  0  0  0
    6.5551   -3.7896    0.0000 C   0  0  0  0  0  0  0  0  0  0  0  0
    5.5770   -3.5816    0.0000 C   0  0  0  0  0  0  0  0  0  0  0  0
    5.2680   -2.6306    0.0000 C   0  0  0  0  0  0  0  0  0  0  0  0
    5.9372   -1.8874    0.0000 O   0  0  0  0  0  0  0  0  0  0  0  0
    4.2899   -2.4226    0.0000 N   0  0  0  0  0  0  0  0  0  0  0  0
    3.9809   -1.4715    0.0000 C   0  0  0  0  0  0  0  0  0  0  0  0
    3.0028   -1.2636    0.0000 C   0  0  0  0  0  0  0  0  0  0  0  0
    2.6938   -0.3125    0.0000 C   0  0  0  0  0  0  0  0  0  0  0  0
    3.2858    0.5023    0.0000 C   0  0  0  0  0  0  0  0  0  0  0  0
    2.6938    1.3169    0.0000 N   0  0  0  0  0  0  0  0  0  0  0  0
    1.7360    1.0058    0.0000 C   0  0  0  0  0  0  0  0  0  0  0  0
    1.7360   -0.0012    0.0000 C   0  0  0  0  0  0  0  0  0  0  0  0
    0.8680   -0.4978    0.0000 C   0  0  0  0  0  0  0  0  0  0  0  0
    0.0000    0.0000    0.0000 C   0  0  0  0  0  0  0  0  0  0  0  0
   -0.0000    1.0058    0.0000 C   0  0  0  0  0  0  0  0  0  0  0  0
    0.8680    1.5138    0.0000 C   0  0  0  0  0  0  0  0  0  0  0  0
    0.8680    2.5138    0.0000 O   0  0  0  0  0  0  0  0  0  0  0  0
    0.0020    3.0138    0.0000 C   0  0  0  0  0  0  0  0  0  0  0  0
  1  2  1  0  0  0  0
  2  3  2  3  0  0  0
  3  4  1  0  0  0  0
  4  5  1  0  0  0  0
  5  6  1  0  0  0  0
  6  7  2  0  0  0  0
  6  8  1  0  0  0  0
  8  9  1  0  0  0  0
  9 10  1  0  0  0  0
 10 11  1  0  0  0  0
 11 15  1  0  0  0  0
 11 12  2  0  0  0  0
 12 13  1  0  0  0  0
 13 14  1  0  0  0  0
 14 19  2  0  0  0  0
 14 15  1  0  0  0  0
 15 16  2  0  0  0  0
 16 17  1  0  0  0  0
 17 18  2  0  0  0  0
 18 19  1  0  0  0  0
 19 20  1  0  0  0  0
 20 21  1  0  0  0  0
M  END
$$$$
s_270062____15754622____8147258
  -OEChem-03222016482D

 19 20  0     1  0  0  0  0  0999 V2000
    3.9809   -1.4715    0.0000 C   0  0  0  0  0  0  0  0  0  0  0  0
    3.0028   -1.2636    0.0000 C   0  0  3  0  0  0  0  0  0  0  0  0
    2.3336   -2.0067    0.0000 C   0  0  0  0  0  0  0  0  0  0  0  0
    2.6426   -2.9578    0.0000 N   0  0  0  0  0  0  0  0  0  0  0  0
    1.9734   -3.7009    0.0000 C   0  0  0  0  0  0  0  0  0  0  0  0
    0.9953   -3.4929    0.0000 O   0  0  0  0  0  0  0  0  0  0  0  0
    2.2824   -4.6519    0.0000 C   0  0  0  0  0  0  0  0  0  0  0  0
    1.6132   -5.3951    0.0000 Cl  0  0  0  0  0  0  0  0  0  0  0  0
    2.6938   -0.3125    0.0000 C   0  0  0  0  0  0  0  0  0  0  0  0
    3.2858    0.5023    0.0000 C   0  0  0  0  0  0  0  0  0  0  0  0
    2.6938    1.3169    0.0000 N   0  0  0  0  0  0  0  0  0  0  0  0
    1.7360    1.0058    0.0000 C   0  0  0  0  0  0  0  0  0  0  0  0
    1.7360   -0.0012    0.0000 C   0  0  0  0  0  0  0  0  0  0  0  0
    0.8680   -0.4978    0.0000 C   0  0  0  0  0  0  0  0  0  0  0  0
    0.0000    0.0000    0.0000 C   0  0  0  0  0  0  0  0  0  0  0  0
   -0.0000    1.0058    0.0000 C   0  0  0  0  0  0  0  0  0  0  0  0
    0.8680    1.5138    0.0000 C   0  0  0  0  0  0  0  0  0  0  0  0
   -0.8653   -0.5013    0.0000 O   0  0  0  0  0  0  0  0  0  0  0  0
   -0.8639   -1.5013    0.0000 C   0  0  0  0  0  0  0  0  0  0  0  0
  1  2  1  0  0  0  0
  2  3  1  0  0  0  0
  3  4  1  0  0  0  0
  4  5  1  0  0  0  0
  5  6  2  0  0  0  0
  5  7  1  0  0  0  0
  7  8  1  0  0  0  0
  2  9  1  0  0  0  0
  9 13  1  0  0  0  0
  9 10  2  0  0  0  0
 10 11  1  0  0  0  0
 11 12  1  0  0  0  0
 12 17  2  0  0  0  0
 12 13  1  0  0  0  0
 13 14  2  0  0  0  0
 14 15  1  0  0  0  0
 15 16  2  0  0  0  0
 16 17  1  0  0  0  0
 15 18  1  0  0  0  0
 18 19  1  0  0  0  0
M  END
$$$$
s_22____13025516____16783912
  -OEChem-03222016482D

 20 21  0     0  0  0  0  0  0999 V2000
    0.0012   -1.9973    0.0000 C   0  0  0  0  0  0  0  0  0  0  0  0
    0.8675   -1.4978    0.0000 O   0  0  0  0  0  0  0  0  0  0  0  0
    0.8680   -0.4978    0.0000 C   0  0  0  0  0  0  0  0  0  0  0  0
    0.0000    0.0000    0.0000 C   0  0  0  0  0  0  0  0  0  0  0  0
   -0.0000    1.0058    0.0000 C   0  0  0  0  0  0  0  0  0  0  0  0
    0.8680    1.5138    0.0000 C   0  0  0  0  0  0  0  0  0  0  0  0
    1.7360    1.0058    0.0000 C   0  0  0  0  0  0  0  0  0  0  0  0
    1.7360   -0.0012    0.0000 C   0  0  0  0  0  0  0  0  0  0  0  0
    2.6938   -0.3125    0.0000 C   0  0  0  0  0  0  0  0  0  0  0  0
    3.2858    0.5023    0.0000 C   0  0  0  0  0  0  0  0  0  0  0  0
    2.6938    1.3169    0.0000 N   0  0  0  0  0  0  0  0  0  0  0  0
    3.0028   -1.2636    0.0000 C   0  0  0  0  0  0  0  0  0  0  0  0
    3.9809   -1.4715    0.0000 C   0  0  0  0  0  0  0  0  0  0  0  0
    4.2899   -2.4226    0.0000 N   0  0  0  0  0  0  0  0  0  0  0  0
    5.2680   -2.6306    0.0000 C   0  0  0  0  0  0  0  0  0  0  0  0
    5.9372   -1.8874    0.0000 O   0  0  0  0  0  0  0  0  0  0  0  0
    5.5770   -3.5816    0.0000 C   0  0  0  0  0  0  0  0  0  0  0  0
    6.5551   -3.7896    0.0000 C   0  0  0  0  0  0  0  0  0  0  0  0
    6.8641   -4.7407    0.0000 C   0  0  0  0  0  0  0  0  0  0  0  0
    7.8422   -4.9486    0.0000 O   0  0  0  0  0  0  0  0  0  0  0  0
  1  2  1  0  0  0  0
  2  3  1  0  0  0  0
  3  8  2  0  0  0  0
  3  4  1  0  0  0  0
  4  5  2  0  0  0  0
  5  6  1  0  0  0  0
  6  7  2  0  0  0  0
  7 11  1  0  0  0  0
  7  8  1  0  0  0  0
  8  9  1  0  0  0  0
  9 10  2  0  0  0  0
 10 11  1  0  0  0  0
  9 12  1  0  0  0  0
 12 13  1  0  0  0  0
 13 14  1  0  0  0  0
 14 15  1  0  0  0  0
 15 16  2  0  0  0  0
 15 17  1  0  0  0  0
 17 18  1  0  0  0  0
 18 19  1  0  0  0  0
 19 20  1  0  0  0  0
M  END
$$$$
s_22____13612008____9296322
  -OEChem-03222016482D

 18 19  0     0  0  0  0  0  0999 V2000
    6.1949   -5.4838    0.0000 C   0  0  0  0  0  0  0  0  0  0  0  0
    5.8860   -4.5327    0.0000 C   0  0  0  0  0  0  0  0  0  0  0  0
    5.5770   -3.5816    0.0000 C   0  0  0  0  0  0  0  0  0  0  0  0
    5.2680   -2.6306    0.0000 C   0  0  0  0  0  0  0  0  0  0  0  0
    5.9372   -1.8874    0.0000 O   0  0  0  0  0  0  0  0  0  0  0  0
    4.2899   -2.4226    0.0000 N   0  0  0  0  0  0  0  0  0  0  0  0
    3.9809   -1.4715    0.0000 C   0  0  0  0  0  0  0  0  0  0  0  0
    3.0028   -1.2636    0.0000 C   0  0  0  0  0  0  0  0  0  0  0  0
    2.6938   -0.3125    0.0000 C   0  0  0  0  0  0  0  0  0  0  0  0
    3.2858    0.5023    0.0000 C   0  0  0  0  0  0  0  0  0  0  0  0
    2.6938    1.3169    0.0000 N   0  0  0  0  0  0  0  0  0  0  0  0
    1.7360    1.0058    0.0000 C   0  0  0  0  0  0  0  0  0  0  0  0
    1.7360   -0.0012    0.0000 C   0  0  0  0  0  0  0  0  0  0  0  0
    0.8680   -0.4978    0.0000 C   0  0  0  0  0  0  0  0  0  0  0  0
    0.0000    0.0000    0.0000 C   0  0  0  0  0  0  0  0  0  0  0  0
   -0.0000    1.0058    0.0000 C   0  0  0  0  0  0  0  0  0  0  0  0
    0.8680    1.5138    0.0000 C   0  0  0  0  0  0  0  0  0  0  0  0
   -0.8653   -0.5013    0.0000 C   0  0  0  0  0  0  0  0  0  0  0  0
  1  2  1  0  0  0  0
  2  3  3  0  0  0  0
  3  4  1  0  0  0  0
  4  5  2  0  0  0  0
  4  6  1  0  0  0  0
  6  7  1  0  0  0  0
  7  8  1  0  0  0  0
  8  9  1  0  0  0  0
  9 13  1  0  0  0  0
  9 10  2  0  0  0  0
 10 11  1  0  0  0  0
 11 12  1  0  0  0  0
 12 17  2  0  0  0  0
 12 13  1  0  0  0  0
 13 14  2  0  0  0  0
 14 15  1  0  0  0  0
 15 16  2  0  0  0  0
 16 17  1  0  0  0  0
 15 18  1  0  0  0  0
M  END
$$$$
s_207____13973878____16621894
  -OEChem-03222016482D

 19 20  0     0  0  0  0  0  0999 V2000
    7.7857    1.3686    0.0000 C   0  0  0  0  0  0  0  0  0  0  0  0
    7.2857    2.2346    0.0000 N   0  0  0  0  0  0  0  0  0  0  0  0
    6.2857    2.2345    0.0000 C   0  0  0  0  0  0  0  0  0  0  0  0
    5.7856    3.1005    0.0000 O   0  0  0  0  0  0  0  0  0  0  0  0
    5.7857    1.3685    0.0000 C   0  0  0  0  0  0  0  0  0  0  0  0
    4.7857    1.3684    0.0000 N   0  3  0  0  0  0  0  0  0  0  0  0
    4.2858    0.5024    0.0000 C   0  0  0  0  0  0  0  0  0  0  0  0
    3.2858    0.5023    0.0000 C   0  0  0  0  0  0  0  0  0  0  0  0
    2.6938   -0.3125    0.0000 C   0  0  0  0  0  0  0  0  0  0  0  0
    1.7360   -0.0012    0.0000 C   0  0  0  0  0  0  0  0  0  0  0  0
    0.8680   -0.4978    0.0000 C   0  0  0  0  0  0  0  0  0  0  0  0
    0.0000    0.0000    0.0000 C   0  0  0  0  0  0  0  0  0  0  0  0
    0.0000    1.0058    0.0000 C   0  0  0  0  0  0  0  0  0  0  0  0
    0.8680    1.5138    0.0000 C   0  0  0  0  0  0  0  0  0  0  0  0
    1.7360    1.0058    0.0000 C   0  0  0  0  0  0  0  0  0  0  0  0
    2.6938    1.3169    0.0000 N   0  0  0  0  0  0  0  0  0  0  0  0
   -0.8653   -0.5013    0.0000 O   0  0  0  0  0  0  0  0  0  0  0  0
   -0.8639   -1.5013    0.0000 C   0  0  0  0  0  0  0  0  0  0  0  0
    7.7856    3.1006    0.0000 O   0  0  0  0  0  0  0  0  0  0  0  0
  1  2  1  0  0  0  0
  2  3  1  0  0  0  0
  3  4  2  0  0  0  0
  3  5  1  0  0  0  0
  5  6  1  0  0  0  0
  6  7  1  0  0  0  0
  7  8  1  0  0  0  0
  8 16  1  0  0  0  0
  8  9  2  0  0  0  0
  9 10  1  0  0  0  0
 10 15  2  0  0  0  0
 10 11  1  0  0  0  0
 11 12  2  0  0  0  0
 12 13  1  0  0  0  0
 13 14  2  0  0  0  0
 14 15  1  0  0  0  0
 15 16  1  0  0  0  0
 12 17  1  0  0  0  0
 17 18  1  0  0  0  0
  2 19  1  0  0  0  0
M  CHG  1   6   1
M  END
$$$$
s_22____15506616____15789270
  -OEChem-03222016482D

 20 21  0     0  0  0  0  0  0999 V2000
    1.7340    3.0138    0.0000 C   0  0  0  0  0  0  0  0  0  0  0  0
    0.8680    2.5138    0.0000 O   0  0  0  0  0  0  0  0  0  0  0  0
    0.8680    1.5138    0.0000 C   0  0  0  0  0  0  0  0  0  0  0  0
    0.0000    1.0058    0.0000 C   0  0  0  0  0  0  0  0  0  0  0  0
    0.0000    0.0000    0.0000 C   0  0  0  0  0  0  0  0  0  0  0  0
    0.8680   -0.4978    0.0000 C   0  0  0  0  0  0  0  0  0  0  0  0
    1.7360   -0.0012    0.0000 C   0  0  0  0  0  0  0  0  0  0  0  0
    1.7360    1.0058    0.0000 C   0  0  0  0  0  0  0  0  0  0  0  0
    2.6938    1.3169    0.0000 N   0  0  0  0  0  0  0  0  0  0  0  0
    3.2858    0.5023    0.0000 C   0  0  0  0  0  0  0  0  0  0  0  0
    2.6938   -0.3125    0.0000 C   0  0  0  0  0  0  0  0  0  0  0  0
    3.0028   -1.2636    0.0000 C   0  0  0  0  0  0  0  0  0  0  0  0
    3.9809   -1.4715    0.0000 C   0  0  0  0  0  0  0  0  0  0  0  0
    4.2899   -2.4226    0.0000 N   0  0  0  0  0  0  0  0  0  0  0  0
    5.2680   -2.6306    0.0000 C   0  0  0  0  0  0  0  0  0  0  0  0
    5.9372   -1.8874    0.0000 O   0  0  0  0  0  0  0  0  0  0  0  0
    5.5770   -3.5816    0.0000 C   0  0  0  0  0  0  0  0  0  0  0  0
    6.5551   -3.7896    0.0000 N   0  0  0  0  0  0  0  0  0  0  0  0
    6.8641   -4.7407    0.0000 N   0  3  0  0  0  0  0  0  0  0  0  0
    7.1731   -5.6917    0.0000 N   0  5  0  0  0  0  0  0  0  0  0  0
  1  2  1  0  0  0  0
  2  3  1  0  0  0  0
  3  8  2  0  0  0  0
  3  4  1  0  0  0  0
  4  5  2  0  0  0  0
  5  6  1  0  0  0  0
  6  7  2  0  0  0  0
  7 11  1  0  0  0  0
  7  8  1  0  0  0  0
  8  9  1  0  0  0  0
  9 10  1  0  0  0  0
 10 11  2  0  0  0  0
 11 12  1  0  0  0  0
 12 13  1  0  0  0  0
 13 14  1  0  0  0  0
 14 15  1  0  0  0  0
 15 16  2  0  0  0  0
 15 17  1  0  0  0  0
 17 18  1  0  0  0  0
 18 19  2  0  0  0  0
 19 20  2  0  0  0  0
M  CHG  2  19   1  20  -1
M  END
$$$$
s_240690b____17036658____13151248
  -OEChem-03222016482D

 17 18  0     0  0  0  0  0  0999 V2000
    0.0000    0.0000    0.0000 C   0  0  0  0  0  0  0  0  0  0  0  0
    0.8675   -0.4975    0.0000 C   0  0  0  0  0  0  0  0  0  0  0  0
    1.7405    0.0044    0.0000 C   0  0  0  0  0  0  0  0  0  0  0  0
    2.6940   -0.2997    0.0000 C   0  0  0  0  0  0  0  0  0  0  0  0
    3.2780    0.5133    0.0000 C   0  0  0  0  0  0  0  0  0  0  0  0
    2.6851    1.3196    0.0000 N   0  0  0  0  0  0  0  0  0  0  0  0
    1.7350    1.0052    0.0000 C   0  0  0  0  0  0  0  0  0  0  0  0
    0.8675    1.5129    0.0000 N   0  0  0  0  0  0  0  0  0  0  0  0
    0.0000    1.0052    0.0000 C   0  0  0  0  0  0  0  0  0  0  0  0
    3.0082   -1.2491    0.0000 C   0  0  0  0  0  0  0  0  0  0  0  0
    3.9874   -1.4517    0.0000 C   0  0  0  0  0  0  0  0  0  0  0  0
    4.3016   -2.4011    0.0000 N   0  0  0  0  0  0  0  0  0  0  0  0
    5.2808   -2.6037    0.0000 C   0  0  0  0  0  0  0  0  0  0  0  0
    5.9459   -1.8569    0.0000 O   0  0  0  0  0  0  0  0  0  0  0  0
    5.5950   -3.5530    0.0000 C   0  0  0  0  0  0  0  0  0  0  0  0
    6.5743   -3.7557    0.0000 O   0  0  0  0  0  0  0  0  0  0  0  0
    6.8884   -4.7050    0.0000 N   0  0  0  0  0  0  0  0  0  0  0  0
  1  9  2  0  0  0  0
  1  2  1  0  0  0  0
  2  3  2  0  0  0  0
  3  7  1  0  0  0  0
  3  4  1  0  0  0  0
  4  5  2  0  0  0  0
  5  6  1  0  0  0  0
  6  7  1  0  0  0  0
  7  8  2  0  0  0  0
  8  9  1  0  0  0  0
  4 10  1  0  0  0  0
 10 11  1  0  0  0  0
 11 12  1  0  0  0  0
 12 13  1  0  0  0  0
 13 14  2  0  0  0  0
 13 15  1  0  0  0  0
 15 16  1  0  0  0  0
 16 17  1  0  0  0  0
M  END
$$$$
s_240690b____17036658____3025692
  -OEChem-03222016482D

 17 18  0     1  0  0  0  0  0999 V2000
    4.9299   -4.2998    0.0000 C   0  0  0  0  0  0  0  0  0  0  0  0
    5.5950   -3.5530    0.0000 C   0  0  3  0  0  0  0  0  0  0  0  0
    5.2808   -2.6037    0.0000 C   0  0  0  0  0  0  0  0  0  0  0  0
    5.9459   -1.8569    0.0000 O   0  0  0  0  0  0  0  0  0  0  0  0
    4.3016   -2.4011    0.0000 N   0  0  0  0  0  0  0  0  0  0  0  0
    3.9874   -1.4517    0.0000 C   0  0  0  0  0  0  0  0  0  0  0  0
    3.0082   -1.2491    0.0000 C   0  0  0  0  0  0  0  0  0  0  0  0
    2.6940   -0.2997    0.0000 C   0  0  0  0  0  0  0  0  0  0  0  0
    3.2780    0.5133    0.0000 C   0  0  0  0  0  0  0  0  0  0  0  0
    2.6851    1.3196    0.0000 N   0  0  0  0  0  0  0  0  0  0  0  0
    1.7350    1.0052    0.0000 C   0  0  0  0  0  0  0  0  0  0  0  0
    1.7405    0.0044    0.0000 C   0  0  0  0  0  0  0  0  0  0  0  0
    0.8675   -0.4975    0.0000 C   0  0  0  0  0  0  0  0  0  0  0  0
    0.0000    0.0000    0.0000 C   0  0  0  0  0  0  0  0  0  0  0  0
   -0.0000    1.0052    0.0000 C   0  0  0  0  0  0  0  0  0  0  0  0
    0.8675    1.5129    0.0000 N   0  0  0  0  0  0  0  0  0  0  0  0
    6.5743   -3.7557    0.0000 N   0  3  0  0  0  0  0  0  0  0  0  0
  1  2  1  0  0  0  0
  2  3  1  0  0  0  0
  3  4  2  0  0  0  0
  3  5  1  0  0  0  0
  5  6  1  0  0  0  0
  6  7  1  0  0  0  0
  7  8  1  0  0  0  0
  8 12  1  0  0  0  0
  8  9  2  0  0  0  0
  9 10  1  0  0  0  0
 10 11  1  0  0  0  0
 11 16  2  0  0  0  0
 11 12  1  0  0  0  0
 12 13  2  0  0  0  0
 13 14  1  0  0  0  0
 14 15  2  0  0  0  0
 15 16  1  0  0  0  0
  2 17  1  0  0  0  0
M  CHG  1  17   1
M  END
$$$$
s_270062____16720576____8147258
  -OEChem-03222016482D

 17 18  0     0  0  0  0  0  0999 V2000
    0.0000    0.0000    0.0000 C   0  0  0  0  0  0  0  0  0  0  0  0
    0.8680   -0.4978    0.0000 C   0  0  0  0  0  0  0  0  0  0  0  0
    1.7360   -0.0012    0.0000 C   0  0  0  0  0  0  0  0  0  0  0  0
    2.6938   -0.3125    0.0000 C   0  0  0  0  0  0  0  0  0  0  0  0
    3.2858    0.5023    0.0000 C   0  0  0  0  0  0  0  0  0  0  0  0
    2.6938    1.3169    0.0000 N   0  0  0  0  0  0  0  0  0  0  0  0
    1.7360    1.0058    0.0000 C   0  0  0  0  0  0  0  0  0  0  0  0
    0.8680    1.5138    0.0000 C   0  0  0  0  0  0  0  0  0  0  0  0
    0.0000    1.0058    0.0000 C   0  0  0  0  0  0  0  0  0  0  0  0
    0.8680    2.5138    0.0000 Br  0  0  0  0  0  0  0  0  0  0  0  0
    3.0028   -1.2636    0.0000 C   0  0  0  0  0  0  0  0  0  0  0  0
    3.9809   -1.4715    0.0000 C   0  0  0  0  0  0  0  0  0  0  0  0
    4.2899   -2.4226    0.0000 N   0  0  0  0  0  0  0  0  0  0  0  0
    5.2680   -2.6306    0.0000 C   0  0  0  0  0  0  0  0  0  0  0  0
    5.9372   -1.8874    0.0000 O   0  0  0  0  0  0  0  0  0  0  0  0
    5.5770   -3.5816    0.0000 C   0  0  0  0  0  0  0  0  0  0  0  0
    6.5551   -3.7896    0.0000 Cl  0  0  0  0  0  0  0  0  0  0  0  0
  1  9  2  0  0  0  0
  1  2  1  0  0  0  0
  2  3  2  0  0  0  0
  3  7  1  0  0  0  0
  3  4  1  0  0  0  0
  4  5  2  0  0  0  0
  5  6  1  0  0  0  0
  6  7  1  0  0  0  0
  7  8  2  0  0  0  0
  8  9  1  0  0  0  0
  8 10  1  0  0  0  0
  4 11  1  0  0  0  0
 11 12  1  0  0  0  0
 12 13  1  0  0  0  0
 13 14  1  0  0  0  0
 14 15  2  0  0  0  0
 14 16  1  0  0  0  0
 16 17  1  0  0  0  0
M  END
$$$$
s_22____13025516____15789276
  -OEChem-03222016482D

 21 22  0     0  0  0  0  0  0999 V2000
    0.0012   -1.9973    0.0000 C   0  0  0  0  0  0  0  0  0  0  0  0
    0.8675   -1.4978    0.0000 O   0  0  0  0  0  0  0  0  0  0  0  0
    0.8680   -0.4978    0.0000 C   0  0  0  0  0  0  0  0  0  0  0  0
    0.0000    0.0000    0.0000 C   0  0  0  0  0  0  0  0  0  0  0  0
   -0.0000    1.0058    0.0000 C   0  0  0  0  0  0  0  0  0  0  0  0
    0.8680    1.5138    0.0000 C   0  0  0  0  0  0  0  0  0  0  0  0
    1.7360    1.0058    0.0000 C   0  0  0  0  0  0  0  0  0  0  0  0
    1.7360   -0.0012    0.0000 C   0  0  0  0  0  0  0  0  0  0  0  0
    2.6938   -0.3125    0.0000 C   0  0  0  0  0  0  0  0  0  0  0  0
    3.2858    0.5023    0.0000 C   0  0  0  0  0  0  0  0  0  0  0  0
    2.6938    1.3169    0.0000 N   0  0  0  0  0  0  0  0  0  0  0  0
    3.0028   -1.2636    0.0000 C   0  0  0  0  0  0  0  0  0  0  0  0
    3.9809   -1.4715    0.0000 C   0  0  0  0  0  0  0  0  0  0  0  0
    4.2899   -2.4226    0.0000 N   0  0  0  0  0  0  0  0  0  0  0  0
    5.2680   -2.6306    0.0000 C   0  0  0  0  0  0  0  0  0  0  0  0
    5.9372   -1.8874    0.0000 O   0  0  0  0  0  0  0  0  0  0  0  0
    5.5770   -3.5816    0.0000 C   0  0  0  0  0  0  0  0  0  0  0  0
    6.5551   -3.7896    0.0000 C   0  0  0  0  0  0  0  0  0  0  0  0
    6.8641   -4.7407    0.0000 N   0  0  0  0  0  0  0  0  0  0  0  0
    7.8422   -4.9486    0.0000 N   0  3  0  0  0  0  0  0  0  0  0  0
    8.8204   -5.1566    0.0000 N   0  5  0  0  0  0  0  0  0  0  0  0
  1  2  1  0  0  0  0
  2  3  1  0  0  0  0
  3  8  2  0  0  0  0
  3  4  1  0  0  0  0
  4  5  2  0  0  0  0
  5  6  1  0  0  0  0
  6  7  2  0  0  0  0
  7 11  1  0  0  0  0
  7  8  1  0  0  0  0
  8  9  1  0  0  0  0
  9 10  2  0  0  0  0
 10 11  1  0  0  0  0
  9 12  1  0  0  0  0
 12 13  1  0  0  0  0
 13 14  1  0  0  0  0
 14 15  1  0  0  0  0
 15 16  2  0  0  0  0
 15 17  1  0  0  0  0
 17 18  1  0  0  0  0
 18 19  1  0  0  0  0
 19 20  2  0  0  0  0
 20 21  2  0  0  0  0
M  CHG  2  20   1  21  -1
M  END
$$$$
s_22____6079110____59039
  -OEChem-03222016482D

 18 19  0     0  0  0  0  0  0999 V2000
    6.8641   -4.7407    0.0000 C   0  0  0  0  0  0  0  0  0  0  0  0
    6.5551   -3.7896    0.0000 O   0  0  0  0  0  0  0  0  0  0  0  0
    5.5770   -3.5816    0.0000 C   0  0  0  0  0  0  0  0  0  0  0  0
    5.2680   -2.6306    0.0000 C   0  0  0  0  0  0  0  0  0  0  0  0
    5.9372   -1.8874    0.0000 O   0  0  0  0  0  0  0  0  0  0  0  0
    4.2899   -2.4226    0.0000 N   0  0  0  0  0  0  0  0  0  0  0  0
    3.9809   -1.4715    0.0000 C   0  0  0  0  0  0  0  0  0  0  0  0
    3.0028   -1.2636    0.0000 C   0  0  0  0  0  0  0  0  0  0  0  0
    2.6938   -0.3125    0.0000 C   0  0  0  0  0  0  0  0  0  0  0  0
    3.2858    0.5023    0.0000 C   0  0  0  0  0  0  0  0  0  0  0  0
    2.6938    1.3169    0.0000 N   0  0  0  0  0  0  0  0  0  0  0  0
    1.7360    1.0058    0.0000 C   0  0  0  0  0  0  0  0  0  0  0  0
    1.7360   -0.0012    0.0000 C   0  0  0  0  0  0  0  0  0  0  0  0
    0.8680   -0.4978    0.0000 C   0  0  0  0  0  0  0  0  0  0  0  0
    0.0000    0.0000    0.0000 C   0  0  0  0  0  0  0  0  0  0  0  0
   -0.0000    1.0058    0.0000 C   0  0  0  0  0  0  0  0  0  0  0  0
    0.8680    1.5138    0.0000 C   0  0  0  0  0  0  0  0  0  0  0  0
   -0.8653   -0.5013    0.0000 Cl  0  0  0  0  0  0  0  0  0  0  0  0
  1  2  1  0  0  0  0
  2  3  1  0  0  0  0
  3  4  1  0  0  0  0
  4  5  2  0  0  0  0
  4  6  1  0  0  0  0
  6  7  1  0  0  0  0
  7  8  1  0  0  0  0
  8  9  1  0  0  0  0
  9 13  1  0  0  0  0
  9 10  2  0  0  0  0
 10 11  1  0  0  0  0
 11 12  1  0  0  0  0
 12 17  2  0  0  0  0
 12 13  1  0  0  0  0
 13 14  2  0  0  0  0
 14 15  1  0  0  0  0
 15 16  2  0  0  0  0
 16 17  1  0  0  0  0
 15 18  1  0  0  0  0
M  END
$$$$
s_22____15754586____58866
  -OEChem-03222016482D

 20 21  0     1  0  0  0  0  0999 V2000
    6.8641   -4.7407    0.0000 C   0  0  0  0  0  0  0  0  0  0  0  0
    6.5551   -3.7896    0.0000 C   0  0  0  0  0  0  0  0  0  0  0  0
    5.5770   -3.5816    0.0000 C   0  0  0  0  0  0  0  0  0  0  0  0
    5.2680   -2.6306    0.0000 C   0  0  0  0  0  0  0  0  0  0  0  0
    5.9372   -1.8874    0.0000 O   0  0  0  0  0  0  0  0  0  0  0  0
    4.2899   -2.4226    0.0000 N   0  0  0  0  0  0  0  0  0  0  0  0
    3.9809   -1.4715    0.0000 C   0  0  0  0  0  0  0  0  0  0  0  0
    3.0028   -1.2636    0.0000 C   0  0  3  0  0  0  0  0  0  0  0  0
    2.3336   -2.0067    0.0000 C   0  0  0  0  0  0  0  0  0  0  0  0
    2.6938   -0.3125    0.0000 C   0  0  0  0  0  0  0  0  0  0  0  0
    3.2858    0.5023    0.0000 C   0  0  0  0  0  0  0  0  0  0  0  0
    2.6938    1.3169    0.0000 N   0  0  0  0  0  0  0  0  0  0  0  0
    1.7360    1.0058    0.0000 C   0  0  0  0  0  0  0  0  0  0  0  0
    1.7360   -0.0012    0.0000 C   0  0  0  0  0  0  0  0  0  0  0  0
    0.8680   -0.4978    0.0000 C   0  0  0  0  0  0  0  0  0  0  0  0
    0.0000    0.0000    0.0000 C   0  0  0  0  0  0  0  0  0  0  0  0
   -0.0000    1.0058    0.0000 C   0  0  0  0  0  0  0  0  0  0  0  0
    0.8680    1.5138    0.0000 C   0  0  0  0  0  0  0  0  0  0  0  0
   -0.8653   -0.5013    0.0000 O   0  0  0  0  0  0  0  0  0  0  0  0
   -0.8639   -1.5013    0.0000 C   0  0  0  0  0  0  0  0  0  0  0  0
  1  2  1  0  0  0  0
  2  3  1  0  0  0  0
  3  4  1  0  0  0  0
  4  5  2  0  0  0  0
  4  6  1  0  0  0  0
  6  7  1  0  0  0  0
  7  8  1  0  0  0  0
  8  9  1  0  0  0  0
  8 10  1  0  0  0  0
 10 14  1  0  0  0  0
 10 11  2  0  0  0  0
 11 12  1  0  0  0  0
 12 13  1  0  0  0  0
 13 18  2  0  0  0  0
 13 14  1  0  0  0  0
 14 15  2  0  0  0  0
 15 16  1  0  0  0  0
 16 17  2  0  0  0  0
 17 18  1  0  0  0  0
 16 19  1  0  0  0  0
 19 20  1  0  0  0  0
M  END
$$$$
s_240690b____11689238____3025680
  -OEChem-03222016482D

 18 19  0     0  0  0  0  0  0999 V2000
   -0.8675    1.5032    0.0000 C   0  0  0  0  0  0  0  0  0  0  0  0
    0.0000    1.0058    0.0000 C   0  0  0  0  0  0  0  0  0  0  0  0
    0.0000    0.0000    0.0000 C   0  0  0  0  0  0  0  0  0  0  0  0
    0.8680   -0.4978    0.0000 C   0  0  0  0  0  0  0  0  0  0  0  0
    1.7360   -0.0012    0.0000 C   0  0  0  0  0  0  0  0  0  0  0  0
    1.7360    1.0058    0.0000 C   0  0  0  0  0  0  0  0  0  0  0  0
    0.8680    1.5138    0.0000 C   0  0  0  0  0  0  0  0  0  0  0  0
    2.6938    1.3169    0.0000 N   0  0  0  0  0  0  0  0  0  0  0  0
    3.2858    0.5023    0.0000 C   0  0  0  0  0  0  0  0  0  0  0  0
    2.6938   -0.3125    0.0000 C   0  0  0  0  0  0  0  0  0  0  0  0
    3.0028   -1.2636    0.0000 C   0  0  0  0  0  0  0  0  0  0  0  0
    3.9809   -1.4715    0.0000 C   0  0  0  0  0  0  0  0  0  0  0  0
    4.2899   -2.4226    0.0000 N   0  0  0  0  0  0  0  0  0  0  0  0
    5.2680   -2.6306    0.0000 C   0  0  0  0  0  0  0  0  0  0  0  0
    5.9372   -1.8874    0.0000 O   0  0  0  0  0  0  0  0  0  0  0  0
    5.5770   -3.5816    0.0000 C   0  0  0  0  0  0  0  0  0  0  0  0
    6.5551   -3.7896    0.0000 C   0  0  0  0  0  0  0  0  0  0  0  0
    6.8641   -4.7407    0.0000 N   0  3  0  0  0  0  0  0  0  0  0  0
  1  2  1  0  0  0  0
  2  7  2  0  0  0  0
  2  3  1  0  0  0  0
  3  4  2  0  0  0  0
  4  5  1  0  0  0  0
  5 10  1  0  0  0  0
  5  6  2  0  0  0  0
  6  7  1  0  0  0  0
  6  8  1  0  0  0  0
  8  9  1  0  0  0  0
  9 10  2  0  0  0  0
 10 11  1  0  0  0  0
 11 12  1  0  0  0  0
 12 13  1  0  0  0  0
 13 14  1  0  0  0  0
 14 15  2  0  0  0  0
 14 16  1  0  0  0  0
 16 17  1  0  0  0  0
 17 18  1  0  0  0  0
M  CHG  1  18   1
M  END
$$$$
s_512____13448004____13978836
  -OEChem-03222016482D

 21 22  0     0  0  0  0  0  0999 V2000
   -0.8705    2.5032    0.0000 C   0  0  0  0  0  0  0  0  0  0  0  0
   -0.8675    1.5032    0.0000 O   0  0  0  0  0  0  0  0  0  0  0  0
    0.0000    1.0058    0.0000 C   0  0  0  0  0  0  0  0  0  0  0  0
    0.0000    0.0000    0.0000 C   0  0  0  0  0  0  0  0  0  0  0  0
    0.8680   -0.4978    0.0000 C   0  0  0  0  0  0  0  0  0  0  0  0
    1.7360   -0.0012    0.0000 C   0  0  0  0  0  0  0  0  0  0  0  0
    1.7360    1.0058    0.0000 C   0  0  0  0  0  0  0  0  0  0  0  0
    0.8680    1.5138    0.0000 C   0  0  0  0  0  0  0  0  0  0  0  0
    2.6938    1.3169    0.0000 N   0  0  0  0  0  0  0  0  0  0  0  0
    3.2858    0.5023    0.0000 C   0  0  0  0  0  0  0  0  0  0  0  0
    2.6938   -0.3125    0.0000 C   0  0  0  0  0  0  0  0  0  0  0  0
    3.0028   -1.2636    0.0000 C   0  0  0  0  0  0  0  0  0  0  0  0
    3.9809   -1.4715    0.0000 C   0  0  0  0  0  0  0  0  0  0  0  0
    4.2899   -2.4226    0.0000 N   0  0  0  0  0  0  0  0  0  0  0  0
    5.2680   -2.6306    0.0000 C   0  0  0  0  0  0  0  0  0  0  0  0
    5.9372   -1.8874    0.0000 O   0  0  0  0  0  0  0  0  0  0  0  0
    5.5770   -3.5816    0.0000 N   0  0  0  0  0  0  0  0  0  0  0  0
    6.5551   -3.7896    0.0000 C   0  0  0  0  0  0  0  0  0  0  0  0
    6.8641   -4.7407    0.0000 C   0  0  0  0  0  0  0  0  0  0  0  0
    7.8422   -4.9486    0.0000 C   0  0  0  0  0  0  0  0  0  0  0  0
    8.1512   -5.8997    0.0000 Cl  0  0  0  0  0  0  0  0  0  0  0  0
  1  2  1  0  0  0  0
  2  3  1  0  0  0  0
  3  8  2  0  0  0  0
  3  4  1  0  0  0  0
  4  5  2  0  0  0  0
  5  6  1  0  0  0  0
  6 11  1  0  0  0  0
  6  7  2  0  0  0  0
  7  8  1  0  0  0  0
  7  9  1  0  0  0  0
  9 10  1  0  0  0  0
 10 11  2  0  0  0  0
 11 12  1  0  0  0  0
 12 13  1  0  0  0  0
 13 14  1  0  0  0  0
 14 15  1  0  0  0  0
 15 16  2  0  0  0  0
 15 17  1  0  0  0  0
 17 18  1  0  0  0  0
 18 19  1  0  0  0  0
 19 20  2  3  0  0  0
 20 21  1  0  0  0  0
M  END
$$$$
s_512____309924____15506628
  -OEChem-03222016482D

 21 23  0     0  0  0  0  0  0999 V2000
    1.7340    3.0138    0.0000 C   0  0  0  0  0  0  0  0  0  0  0  0
    0.8680    2.5138    0.0000 O   0  0  0  0  0  0  0  0  0  0  0  0
    0.8680    1.5138    0.0000 C   0  0  0  0  0  0  0  0  0  0  0  0
    0.0000    1.0058    0.0000 C   0  0  0  0  0  0  0  0  0  0  0  0
    0.0000    0.0000    0.0000 C   0  0  0  0  0  0  0  0  0  0  0  0
    0.8680   -0.4978    0.0000 C   0  0  0  0  0  0  0  0  0  0  0  0
    1.7360   -0.0012    0.0000 C   0  0  0  0  0  0  0  0  0  0  0  0
    1.7360    1.0058    0.0000 C   0  0  0  0  0  0  0  0  0  0  0  0
    2.6938    1.3169    0.0000 N   0  0  0  0  0  0  0  0  0  0  0  0
    3.2858    0.5023    0.0000 C   0  0  0  0  0  0  0  0  0  0  0  0
    2.6938   -0.3125    0.0000 C   0  0  0  0  0  0  0  0  0  0  0  0
    3.0028   -1.2636    0.0000 C   0  0  0  0  0  0  0  0  0  0  0  0
    3.9809   -1.4715    0.0000 C   0  0  0  0  0  0  0  0  0  0  0  0
    4.2899   -2.4226    0.0000 N   0  0  0  0  0  0  0  0  0  0  0  0
    5.2680   -2.6306    0.0000 C   0  0  0  0  0  0  0  0  0  0  0  0
    5.9372   -1.8874    0.0000 O   0  0  0  0  0  0  0  0  0  0  0  0
    5.5770   -3.5816    0.0000 N   0  0  0  0  0  0  0  0  0  0  0  0
    6.5551   -3.7896    0.0000 C   0  0  0  0  0  0  0  0  0  0  0  0
    6.8641   -4.7407    0.0000 C   0  0  0  0  0  0  0  0  0  0  0  0
    6.6568   -5.7209    0.0000 C   0  0  0  0  0  0  0  0  0  0  0  0
    7.6079   -5.4119    0.0000 C   0  0  0  0  0  0  0  0  0  0  0  0
  1  2  1  0  0  0  0
  2  3  1  0  0  0  0
  3  8  2  0  0  0  0
  3  4  1  0  0  0  0
  4  5  2  0  0  0  0
  5  6  1  0  0  0  0
  6  7  2  0  0  0  0
  7 11  1  0  0  0  0
  7  8  1  0  0  0  0
  8  9  1  0  0  0  0
  9 10  1  0  0  0  0
 10 11  2  0  0  0  0
 11 12  1  0  0  0  0
 12 13  1  0  0  0  0
 13 14  1  0  0  0  0
 14 15  1  0  0  0  0
 15 16  2  0  0  0  0
 15 17  1  0  0  0  0
 17 18  1  0  0  0  0
 18 19  1  0  0  0  0
 19 21  1  0  0  0  0
 19 20  1  0  0  0  0
 20 21  1  0  0  0  0
M  END
$$$$
s_512____6389034____13025528
  -OEChem-03222016482D

 21 22  0     0  0  0  0  0  0999 V2000
    0.0012   -1.9973    0.0000 C   0  0  0  0  0  0  0  0  0  0  0  0
    0.8675   -1.4978    0.0000 O   0  0  0  0  0  0  0  0  0  0  0  0
    0.8680   -0.4978    0.0000 C   0  0  0  0  0  0  0  0  0  0  0  0
    0.0000    0.0000    0.0000 C   0  0  0  0  0  0  0  0  0  0  0  0
   -0.0000    1.0058    0.0000 C   0  0  0  0  0  0  0  0  0  0  0  0
    0.8680    1.5138    0.0000 C   0  0  0  0  0  0  0  0  0  0  0  0
    1.7360    1.0058    0.0000 C   0  0  0  0  0  0  0  0  0  0  0  0
    1.7360   -0.0012    0.0000 C   0  0  0  0  0  0  0  0  0  0  0  0
    2.6938   -0.3125    0.0000 C   0  0  0  0  0  0  0  0  0  0  0  0
    3.2858    0.5023    0.0000 C   0  0  0  0  0  0  0  0  0  0  0  0
    2.6938    1.3169    0.0000 N   0  0  0  0  0  0  0  0  0  0  0  0
    3.0028   -1.2636    0.0000 C   0  0  0  0  0  0  0  0  0  0  0  0
    3.9809   -1.4715    0.0000 C   0  0  0  0  0  0  0  0  0  0  0  0
    4.2899   -2.4226    0.0000 N   0  0  0  0  0  0  0  0  0  0  0  0
    5.2680   -2.6306    0.0000 C   0  0  0  0  0  0  0  0  0  0  0  0
    5.9372   -1.8874    0.0000 O   0  0  0  0  0  0  0  0  0  0  0  0
    5.5770   -3.5816    0.0000 N   0  0  0  0  0  0  0  0  0  0  0  0
    6.5551   -3.7896    0.0000 C   0  0  0  0  0  0  0  0  0  0  0  0
    6.8641   -4.7407    0.0000 C   0  0  0  0  0  0  0  0  0  0  0  0
    7.8422   -4.9486    0.0000 F   0  0  0  0  0  0  0  0  0  0  0  0
    6.1949   -5.4838    0.0000 F   0  0  0  0  0  0  0  0  0  0  0  0
  1  2  1  0  0  0  0
  2  3  1  0  0  0  0
  3  8  2  0  0  0  0
  3  4  1  0  0  0  0
  4  5  2  0  0  0  0
  5  6  1  0  0  0  0
  6  7  2  0  0  0  0
  7 11  1  0  0  0  0
  7  8  1  0  0  0  0
  8  9  1  0  0  0  0
  9 10  2  0  0  0  0
 10 11  1  0  0  0  0
  9 12  1  0  0  0  0
 12 13  1  0  0  0  0
 13 14  1  0  0  0  0
 14 15  1  0  0  0  0
 15 16  2  0  0  0  0
 15 17  1  0  0  0  0
 17 18  1  0  0  0  0
 18 19  1  0  0  0  0
 19 20  1  0  0  0  0
 19 21  1  0  0  0  0
M  END
$$$$
s_240690b____15506692____7368688
  -OEChem-03222016482D

 21 22  0     0  0  0  0  0  0999 V2000
    2.3563   -6.0642    0.0000 C   0  0  0  0  0  0  0  0  0  0  0  0
    1.6132   -5.3951    0.0000 C   0  0  0  0  0  0  0  0  0  0  0  0
    0.9440   -6.1382    0.0000 C   0  0  0  0  0  0  0  0  0  0  0  0
    2.2824   -4.6519    0.0000 C   0  0  0  0  0  0  0  0  0  0  0  0
    1.9734   -3.7009    0.0000 C   0  0  0  0  0  0  0  0  0  0  0  0
    0.9953   -3.4929    0.0000 O   0  0  0  0  0  0  0  0  0  0  0  0
    2.6426   -2.9578    0.0000 N   0  0  0  0  0  0  0  0  0  0  0  0
    2.3336   -2.0067    0.0000 C   0  0  0  0  0  0  0  0  0  0  0  0
    3.0028   -1.2636    0.0000 C   0  0  0  0  0  0  0  0  0  0  0  0
    2.6938   -0.3125    0.0000 C   0  0  0  0  0  0  0  0  0  0  0  0
    3.2858    0.5023    0.0000 C   0  0  0  0  0  0  0  0  0  0  0  0
    2.6938    1.3169    0.0000 N   0  0  0  0  0  0  0  0  0  0  0  0
    1.7360    1.0058    0.0000 C   0  0  0  0  0  0  0  0  0  0  0  0
    1.7360   -0.0012    0.0000 C   0  0  0  0  0  0  0  0  0  0  0  0
    0.8680   -0.4978    0.0000 C   0  0  0  0  0  0  0  0  0  0  0  0
    0.0000    0.0000    0.0000 C   0  0  0  0  0  0  0  0  0  0  0  0
   -0.0000    1.0058    0.0000 C   0  0  0  0  0  0  0  0  0  0  0  0
    0.8680    1.5138    0.0000 C   0  0  0  0  0  0  0  0  0  0  0  0
    0.8680    2.5138    0.0000 O   0  0  0  0  0  0  0  0  0  0  0  0
    0.0020    3.0138    0.0000 C   0  0  0  0  0  0  0  0  0  0  0  0
    0.8701   -4.7259    0.0000 N   0  3  0  0  0  0  0  0  0  0  0  0
  1  2  1  0  0  0  0
  2  3  1  0  0  0  0
  2  4  1  0  0  0  0
  4  5  1  0  0  0  0
  5  6  2  0  0  0  0
  5  7  1  0  0  0  0
  7  8  1  0  0  0  0
  8  9  1  0  0  0  0
  9 10  1  0  0  0  0
 10 14  1  0  0  0  0
 10 11  2  0  0  0  0
 11 12  1  0  0  0  0
 12 13  1  0  0  0  0
 13 18  2  0  0  0  0
 13 14  1  0  0  0  0
 14 15  2  0  0  0  0
 15 16  1  0  0  0  0
 16 17  2  0  0  0  0
 17 18  1  0  0  0  0
 18 19  1  0  0  0  0
 19 20  1  0  0  0  0
  2 21  1  0  0  0  0
M  CHG  1  21   1
M  END
$$$$
s_240690b____7360096____7368582
  -OEChem-03222016482D

 18 19  0     0  0  0  0  0  0999 V2000
    6.8641   -4.7407    0.0000 C   0  0  0  0  0  0  0  0  0  0  0  0
    6.5551   -3.7896    0.0000 N   0  3  0  0  0  0  0  0  0  0  0  0
    5.5770   -3.5816    0.0000 C   0  0  0  0  0  0  0  0  0  0  0  0
    5.2680   -2.6306    0.0000 C   0  0  0  0  0  0  0  0  0  0  0  0
    5.9372   -1.8874    0.0000 O   0  0  0  0  0  0  0  0  0  0  0  0
    4.2899   -2.4226    0.0000 N   0  0  0  0  0  0  0  0  0  0  0  0
    3.9809   -1.4715    0.0000 C   0  0  0  0  0  0  0  0  0  0  0  0
    3.0028   -1.2636    0.0000 C   0  0  0  0  0  0  0  0  0  0  0  0
    2.6938   -0.3125    0.0000 C   0  0  0  0  0  0  0  0  0  0  0  0
    3.2858    0.5023    0.0000 C   0  0  0  0  0  0  0  0  0  0  0  0
    2.6938    1.3169    0.0000 N   0  0  0  0  0  0  0  0  0  0  0  0
    1.7360    1.0058    0.0000 C   0  0  0  0  0  0  0  0  0  0  0  0
    1.7360   -0.0012    0.0000 C   0  0  0  0  0  0  0  0  0  0  0  0
    0.8680   -0.4978    0.0000 C   0  0  0  0  0  0  0  0  0  0  0  0
    0.0000    0.0000    0.0000 C   0  0  0  0  0  0  0  0  0  0  0  0
   -0.0000    1.0058    0.0000 C   0  0  0  0  0  0  0  0  0  0  0  0
    0.8680    1.5138    0.0000 C   0  0  0  0  0  0  0  0  0  0  0  0
   -0.8675    1.5032    0.0000 Cl  0  0  0  0  0  0  0  0  0  0  0  0
  1  2  1  0  0  0  0
  2  3  1  0  0  0  0
  3  4  1  0  0  0  0
  4  5  2  0  0  0  0
  4  6  1  0  0  0  0
  6  7  1  0  0  0  0
  7  8  1  0  0  0  0
  8  9  1  0  0  0  0
  9 13  1  0  0  0  0
  9 10  2  0  0  0  0
 10 11  1  0  0  0  0
 11 12  1  0  0  0  0
 12 17  2  0  0  0  0
 12 13  1  0  0  0  0
 13 14  2  0  0  0  0
 14 15  1  0  0  0  0
 15 16  2  0  0  0  0
 16 17  1  0  0  0  0
 16 18  1  0  0  0  0
M  CHG  1   2   1
M  END
$$$$
s_512____2055224____13978836
  -OEChem-03222016482D

 21 22  0     0  0  0  0  0  0999 V2000
   -0.8705    2.5032    0.0000 C   0  0  0  0  0  0  0  0  0  0  0  0
   -0.8675    1.5032    0.0000 O   0  0  0  0  0  0  0  0  0  0  0  0
    0.0000    1.0058    0.0000 C   0  0  0  0  0  0  0  0  0  0  0  0
    0.0000    0.0000    0.0000 C   0  0  0  0  0  0  0  0  0  0  0  0
    0.8680   -0.4978    0.0000 C   0  0  0  0  0  0  0  0  0  0  0  0
    1.7360   -0.0012    0.0000 C   0  0  0  0  0  0  0  0  0  0  0  0
    1.7360    1.0058    0.0000 C   0  0  0  0  0  0  0  0  0  0  0  0
    0.8680    1.5138    0.0000 C   0  0  0  0  0  0  0  0  0  0  0  0
    2.6938    1.3169    0.0000 N   0  0  0  0  0  0  0  0  0  0  0  0
    3.2858    0.5023    0.0000 C   0  0  0  0  0  0  0  0  0  0  0  0
    2.6938   -0.3125    0.0000 C   0  0  0  0  0  0  0  0  0  0  0  0
    3.0028   -1.2636    0.0000 C   0  0  0  0  0  0  0  0  0  0  0  0
    3.9809   -1.4715    0.0000 C   0  0  0  0  0  0  0  0  0  0  0  0
    4.2899   -2.4226    0.0000 N   0  0  0  0  0  0  0  0  0  0  0  0
    5.2680   -2.6306    0.0000 C   0  0  0  0  0  0  0  0  0  0  0  0
    5.9372   -1.8874    0.0000 O   0  0  0  0  0  0  0  0  0  0  0  0
    5.5770   -3.5816    0.0000 N   0  0  0  0  0  0  0  0  0  0  0  0
    6.5551   -3.7896    0.0000 C   0  0  0  0  0  0  0  0  0  0  0  0
    6.8641   -4.7407    0.0000 C   0  0  0  0  0  0  0  0  0  0  0  0
    6.1949   -5.4838    0.0000 C   0  0  0  0  0  0  0  0  0  0  0  0
    7.8422   -4.9486    0.0000 Br  0  0  0  0  0  0  0  0  0  0  0  0
  1  2  1  0  0  0  0
  2  3  1  0  0  0  0
  3  8  2  0  0  0  0
  3  4  1  0  0  0  0
  4  5  2  0  0  0  0
  5  6  1  0  0  0  0
  6 11  1  0  0  0  0
  6  7  2  0  0  0  0
  7  8  1  0  0  0  0
  7  9  1  0  0  0  0
  9 10  1  0  0  0  0
 10 11  2  0  0  0  0
 11 12  1  0  0  0  0
 12 13  1  0  0  0  0
 13 14  1  0  0  0  0
 14 15  1  0  0  0  0
 15 16  2  0  0  0  0
 15 17  1  0  0  0  0
 17 18  1  0  0  0  0
 18 19  1  0  0  0  0
 19 20  2  0  0  0  0
 19 21  1  0  0  0  0
M  END
$$$$
s_240690b____15754670____13151248
  -OEChem-03222016482D

 20 21  0     1  0  0  0  0  0999 V2000
    3.9809   -1.4715    0.0000 C   0  0  0  0  0  0  0  0  0  0  0  0
    3.0028   -1.2636    0.0000 C   0  0  3  0  0  0  0  0  0  0  0  0
    2.3336   -2.0067    0.0000 C   0  0  0  0  0  0  0  0  0  0  0  0
    2.6426   -2.9578    0.0000 N   0  0  0  0  0  0  0  0  0  0  0  0
    1.9734   -3.7009    0.0000 C   0  0  0  0  0  0  0  0  0  0  0  0
    0.9953   -3.4929    0.0000 O   0  0  0  0  0  0  0  0  0  0  0  0
    2.2824   -4.6519    0.0000 C   0  0  0  0  0  0  0  0  0  0  0  0
    1.6132   -5.3951    0.0000 O   0  0  0  0  0  0  0  0  0  0  0  0
    1.9222   -6.3461    0.0000 N   0  0  0  0  0  0  0  0  0  0  0  0
    2.6938   -0.3125    0.0000 C   0  0  0  0  0  0  0  0  0  0  0  0
    3.2858    0.5023    0.0000 C   0  0  0  0  0  0  0  0  0  0  0  0
    2.6938    1.3169    0.0000 N   0  0  0  0  0  0  0  0  0  0  0  0
    1.7360    1.0058    0.0000 C   0  0  0  0  0  0  0  0  0  0  0  0
    1.7360   -0.0012    0.0000 C   0  0  0  0  0  0  0  0  0  0  0  0
    0.8680   -0.4978    0.0000 C   0  0  0  0  0  0  0  0  0  0  0  0
    0.0000    0.0000    0.0000 C   0  0  0  0  0  0  0  0  0  0  0  0
   -0.0000    1.0058    0.0000 C   0  0  0  0  0  0  0  0  0  0  0  0
    0.8680    1.5138    0.0000 C   0  0  0  0  0  0  0  0  0  0  0  0
   -0.8653   -0.5013    0.0000 O   0  0  0  0  0  0  0  0  0  0  0  0
   -0.8639   -1.5013    0.0000 C   0  0  0  0  0  0  0  0  0  0  0  0
  1  2  1  0  0  0  0
  2  3  1  0  0  0  0
  3  4  1  0  0  0  0
  4  5  1  0  0  0  0
  5  6  2  0  0  0  0
  5  7  1  0  0  0  0
  7  8  1  0  0  0  0
  8  9  1  0  0  0  0
  2 10  1  0  0  0  0
 10 14  1  0  0  0  0
 10 11  2  0  0  0  0
 11 12  1  0  0  0  0
 12 13  1  0  0  0  0
 13 18  2  0  0  0  0
 13 14  1  0  0  0  0
 14 15  2  0  0  0  0
 15 16  1  0  0  0  0
 16 17  2  0  0  0  0
 17 18  1  0  0  0  0
 16 19  1  0  0  0  0
 19 20  1  0  0  0  0
M  END
$$$$
s_22____13951486____9296322
  -OEChem-03222016482D

 25 27  0     0  0  0  0  0  0999 V2000
    6.1949   -5.4838    0.0000 C   0  0  0  0  0  0  0  0  0  0  0  0
    5.8860   -4.5327    0.0000 C   0  0  0  0  0  0  0  0  0  0  0  0
    5.5770   -3.5816    0.0000 C   0  0  0  0  0  0  0  0  0  0  0  0
    5.2680   -2.6306    0.0000 C   0  0  0  0  0  0  0  0  0  0  0  0
    5.9372   -1.8874    0.0000 O   0  0  0  0  0  0  0  0  0  0  0  0
    4.2899   -2.4226    0.0000 N   0  0  0  0  0  0  0  0  0  0  0  0
    3.9809   -1.4715    0.0000 C   0  0  0  0  0  0  0  0  0  0  0  0
    3.0028   -1.2636    0.0000 C   0  0  0  0  0  0  0  0  0  0  0  0
    2.6938   -0.3125    0.0000 C   0  0  0  0  0  0  0  0  0  0  0  0
    3.2858    0.5023    0.0000 C   0  0  0  0  0  0  0  0  0  0  0  0
    2.6938    1.3169    0.0000 N   0  0  0  0  0  0  0  0  0  0  0  0
    1.7360    1.0058    0.0000 C   0  0  0  0  0  0  0  0  0  0  0  0
    1.7360   -0.0012    0.0000 C   0  0  0  0  0  0  0  0  0  0  0  0
    0.8680   -0.4978    0.0000 C   0  0  0  0  0  0  0  0  0  0  0  0
    0.0000    0.0000    0.0000 C   0  0  0  0  0  0  0  0  0  0  0  0
   -0.0000    1.0058    0.0000 C   0  0  0  0  0  0  0  0  0  0  0  0
    0.8680    1.5138    0.0000 C   0  0  0  0  0  0  0  0  0  0  0  0
   -0.8653   -0.5013    0.0000 O   0  0  0  0  0  0  0  0  0  0  0  0
   -0.8639   -1.5013    0.0000 C   0  0  0  0  0  0  0  0  0  0  0  0
   -1.7292   -2.0025    0.0000 C   0  0  0  0  0  0  0  0  0  0  0  0
   -1.7247   -3.0077    0.0000 C   0  0  0  0  0  0  0  0  0  0  0  0
   -2.5900   -3.5090    0.0000 C   0  0  0  0  0  0  0  0  0  0  0  0
   -3.4597   -3.0153    0.0000 C   0  0  0  0  0  0  0  0  0  0  0  0
   -3.4641   -2.0101    0.0000 C   0  0  0  0  0  0  0  0  0  0  0  0
   -2.5989   -1.4986    0.0000 C   0  0  0  0  0  0  0  0  0  0  0  0
  1  2  1  0  0  0  0
  2  3  3  0  0  0  0
  3  4  1  0  0  0  0
  4  5  2  0  0  0  0
  4  6  1  0  0  0  0
  6  7  1  0  0  0  0
  7  8  1  0  0  0  0
  8  9  1  0  0  0  0
  9 13  1  0  0  0  0
  9 10  2  0  0  0  0
 10 11  1  0  0  0  0
 11 12  1  0  0  0  0
 12 17  2  0  0  0  0
 12 13  1  0  0  0  0
 13 14  2  0  0  0  0
 14 15  1  0  0  0  0
 15 16  2  0  0  0  0
 16 17  1  0  0  0  0
 15 18  1  0  0  0  0
 18 19  1  0  0  0  0
 19 20  1  0  0  0  0
 20 25  2  0  0  0  0
 20 21  1  0  0  0  0
 21 22  2  0  0  0  0
 22 23  1  0  0  0  0
 23 24  2  0  0  0  0
 24 25  1  0  0  0  0
M  END
$$$$
s_527a____2833524____156031
  -OEChem-03222016482D

 16 17  0     0  0  0  0  0  0999 V2000
    4.2858    0.5024    0.0000 C   0  0  0  0  0  0  0  0  0  0  0  0
    3.2858    0.5023    0.0000 C   0  0  0  0  0  0  0  0  0  0  0  0
    2.6938   -0.3125    0.0000 C   0  0  0  0  0  0  0  0  0  0  0  0
    1.7360   -0.0012    0.0000 C   0  0  0  0  0  0  0  0  0  0  0  0
    0.8680   -0.4978    0.0000 C   0  0  0  0  0  0  0  0  0  0  0  0
    0.0000    0.0000    0.0000 C   0  0  0  0  0  0  0  0  0  0  0  0
    0.0000    1.0058    0.0000 C   0  0  0  0  0  0  0  0  0  0  0  0
    0.8680    1.5138    0.0000 C   0  0  0  0  0  0  0  0  0  0  0  0
    1.7360    1.0058    0.0000 C   0  0  0  0  0  0  0  0  0  0  0  0
    2.6938    1.3169    0.0000 N   0  0  0  0  0  0  0  0  0  0  0  0
    3.0028   -1.2636    0.0000 C   0  0  0  0  0  0  0  0  0  0  0  0
    3.9809   -1.4715    0.0000 C   0  0  0  0  0  0  0  0  0  0  0  0
    4.2899   -2.4226    0.0000 N   0  0  0  0  0  0  0  0  0  0  0  0
    5.2680   -2.6306    0.0000 C   0  0  0  0  0  0  0  0  0  0  0  0
    5.9372   -1.8874    0.0000 O   0  0  0  0  0  0  0  0  0  0  0  0
    5.5770   -3.5816    0.0000 C   0  0  0  0  0  0  0  0  0  0  0  0
  1  2  1  0  0  0  0
  2 10  1  0  0  0  0
  2  3  2  0  0  0  0
  3  4  1  0  0  0  0
  4  9  2  0  0  0  0
  4  5  1  0  0  0  0
  5  6  2  0  0  0  0
  6  7  1  0  0  0  0
  7  8  2  0  0  0  0
  8  9  1  0  0  0  0
  9 10  1  0  0  0  0
  3 11  1  0  0  0  0
 11 12  1  0  0  0  0
 12 13  1  0  0  0  0
 13 14  1  0  0  0  0
 14 15  2  0  0  0  0
 14 16  1  0  0  0  0
M  END
$$$$
s_22____13978824____58916
  -OEChem-03222016482D

 20 21  0     0  0  0  0  0  0999 V2000
    1.9222   -6.3461    0.0000 C   0  0  0  0  0  0  0  0  0  0  0  0
    1.6132   -5.3951    0.0000 C   0  0  0  0  0  0  0  0  0  0  0  0
    0.6351   -5.1871    0.0000 C   0  0  0  0  0  0  0  0  0  0  0  0
    2.2824   -4.6519    0.0000 C   0  0  0  0  0  0  0  0  0  0  0  0
    1.9734   -3.7009    0.0000 C   0  0  0  0  0  0  0  0  0  0  0  0
    0.9953   -3.4929    0.0000 O   0  0  0  0  0  0  0  0  0  0  0  0
    2.6426   -2.9578    0.0000 N   0  0  0  0  0  0  0  0  0  0  0  0
    2.3336   -2.0067    0.0000 C   0  0  0  0  0  0  0  0  0  0  0  0
    3.0028   -1.2636    0.0000 C   0  0  0  0  0  0  0  0  0  0  0  0
    2.6938   -0.3125    0.0000 C   0  0  0  0  0  0  0  0  0  0  0  0
    3.2858    0.5023    0.0000 C   0  0  0  0  0  0  0  0  0  0  0  0
    2.6938    1.3169    0.0000 N   0  0  0  0  0  0  0  0  0  0  0  0
    1.7360    1.0058    0.0000 C   0  0  0  0  0  0  0  0  0  0  0  0
    1.7360   -0.0012    0.0000 C   0  0  0  0  0  0  0  0  0  0  0  0
    0.8680   -0.4978    0.0000 C   0  0  0  0  0  0  0  0  0  0  0  0
    0.0000    0.0000    0.0000 C   0  0  0  0  0  0  0  0  0  0  0  0
   -0.0000    1.0058    0.0000 C   0  0  0  0  0  0  0  0  0  0  0  0
    0.8680    1.5138    0.0000 C   0  0  0  0  0  0  0  0  0  0  0  0
   -0.8675    1.5032    0.0000 O   0  0  0  0  0  0  0  0  0  0  0  0
   -1.7320    1.0007    0.0000 C   0  0  0  0  0  0  0  0  0  0  0  0
  1  2  1  0  0  0  0
  2  3  1  0  0  0  0
  2  4  1  0  0  0  0
  4  5  1  0  0  0  0
  5  6  2  0  0  0  0
  5  7  1  0  0  0  0
  7  8  1  0  0  0  0
  8  9  1  0  0  0  0
  9 10  1  0  0  0  0
 10 14  1  0  0  0  0
 10 11  2  0  0  0  0
 11 12  1  0  0  0  0
 12 13  1  0  0  0  0
 13 18  2  0  0  0  0
 13 14  1  0  0  0  0
 14 15  2  0  0  0  0
 15 16  1  0  0  0  0
 16 17  2  0  0  0  0
 17 18  1  0  0  0  0
 17 19  1  0  0  0  0
 19 20  1  0  0  0  0
M  END
$$$$
s_22____9226532____12103014
  -OEChem-03222016482D

 20 21  0     0  0  0  0  0  0999 V2000
    1.7327   -2.9983    0.0000 C   0  0  0  0  0  0  0  0  0  0  0  0
    1.7332   -1.9983    0.0000 C   0  0  0  0  0  0  0  0  0  0  0  0
    0.8675   -1.4978    0.0000 O   0  0  0  0  0  0  0  0  0  0  0  0
    0.8680   -0.4978    0.0000 C   0  0  0  0  0  0  0  0  0  0  0  0
    0.0000    0.0000    0.0000 C   0  0  0  0  0  0  0  0  0  0  0  0
   -0.0000    1.0058    0.0000 C   0  0  0  0  0  0  0  0  0  0  0  0
    0.8680    1.5138    0.0000 C   0  0  0  0  0  0  0  0  0  0  0  0
    1.7360    1.0058    0.0000 C   0  0  0  0  0  0  0  0  0  0  0  0
    1.7360   -0.0012    0.0000 C   0  0  0  0  0  0  0  0  0  0  0  0
    2.6938   -0.3125    0.0000 C   0  0  0  0  0  0  0  0  0  0  0  0
    3.2858    0.5023    0.0000 C   0  0  0  0  0  0  0  0  0  0  0  0
    2.6938    1.3169    0.0000 N   0  0  0  0  0  0  0  0  0  0  0  0
    3.0028   -1.2636    0.0000 C   0  0  0  0  0  0  0  0  0  0  0  0
    3.9809   -1.4715    0.0000 C   0  0  0  0  0  0  0  0  0  0  0  0
    4.2899   -2.4226    0.0000 N   0  0  0  0  0  0  0  0  0  0  0  0
    5.2680   -2.6306    0.0000 C   0  0  0  0  0  0  0  0  0  0  0  0
    5.9372   -1.8874    0.0000 O   0  0  0  0  0  0  0  0  0  0  0  0
    5.5770   -3.5816    0.0000 C   0  0  0  0  0  0  0  0  0  0  0  0
    6.5551   -3.7896    0.0000 C   0  0  0  0  0  0  0  0  0  0  0  0
    6.8641   -4.7407    0.0000 C   0  0  0  0  0  0  0  0  0  0  0  0
  1  2  1  0  0  0  0
  2  3  1  0  0  0  0
  3  4  1  0  0  0  0
  4  9  2  0  0  0  0
  4  5  1  0  0  0  0
  5  6  2  0  0  0  0
  6  7  1  0  0  0  0
  7  8  2  0  0  0  0
  8 12  1  0  0  0  0
  8  9  1  0  0  0  0
  9 10  1  0  0  0  0
 10 11  2  0  0  0  0
 11 12  1  0  0  0  0
 10 13  1  0  0  0  0
 13 14  1  0  0  0  0
 14 15  1  0  0  0  0
 15 16  1  0  0  0  0
 16 17  2  0  0  0  0
 16 18  1  0  0  0  0
 18 19  2  3  0  0  0
 19 20  1  0  0  0  0
M  END
$$$$
s_22____9631354____9296322
  -OEChem-03222016482D

 18 19  0     0  0  0  0  0  0999 V2000
    6.1949   -5.4838    0.0000 C   0  0  0  0  0  0  0  0  0  0  0  0
    5.8860   -4.5327    0.0000 C   0  0  0  0  0  0  0  0  0  0  0  0
    5.5770   -3.5816    0.0000 C   0  0  0  0  0  0  0  0  0  0  0  0
    5.2680   -2.6306    0.0000 C   0  0  0  0  0  0  0  0  0  0  0  0
    5.9372   -1.8874    0.0000 O   0  0  0  0  0  0  0  0  0  0  0  0
    4.2899   -2.4226    0.0000 N   0  0  0  0  0  0  0  0  0  0  0  0
    3.9809   -1.4715    0.0000 C   0  0  0  0  0  0  0  0  0  0  0  0
    3.0028   -1.2636    0.0000 C   0  0  0  0  0  0  0  0  0  0  0  0
    2.6938   -0.3125    0.0000 C   0  0  0  0  0  0  0  0  0  0  0  0
    3.2858    0.5023    0.0000 C   0  0  0  0  0  0  0  0  0  0  0  0
    2.6938    1.3169    0.0000 N   0  0  0  0  0  0  0  0  0  0  0  0
    1.7360    1.0058    0.0000 C   0  0  0  0  0  0  0  0  0  0  0  0
    1.7360   -0.0012    0.0000 C   0  0  0  0  0  0  0  0  0  0  0  0
    0.8680   -0.4978    0.0000 C   0  0  0  0  0  0  0  0  0  0  0  0
    0.0000    0.0000    0.0000 C   0  0  0  0  0  0  0  0  0  0  0  0
   -0.0000    1.0058    0.0000 C   0  0  0  0  0  0  0  0  0  0  0  0
    0.8680    1.5138    0.0000 C   0  0  0  0  0  0  0  0  0  0  0  0
   -0.8653   -0.5013    0.0000 F   0  0  0  0  0  0  0  0  0  0  0  0
  1  2  1  0  0  0  0
  2  3  3  0  0  0  0
  3  4  1  0  0  0  0
  4  5  2  0  0  0  0
  4  6  1  0  0  0  0
  6  7  1  0  0  0  0
  7  8  1  0  0  0  0
  8  9  1  0  0  0  0
  9 13  1  0  0  0  0
  9 10  2  0  0  0  0
 10 11  1  0  0  0  0
 11 12  1  0  0  0  0
 12 17  2  0  0  0  0
 12 13  1  0  0  0  0
 13 14  2  0  0  0  0
 14 15  1  0  0  0  0
 15 16  2  0  0  0  0
 16 17  1  0  0  0  0
 15 18  1  0  0  0  0
M  END
$$$$
s_22____3219394____59039
  -OEChem-03222016482D

 18 19  0     0  0  0  0  0  0999 V2000
    0.8675   -1.4978    0.0000 C   0  0  0  0  0  0  0  0  0  0  0  0
    0.8680   -0.4978    0.0000 C   0  0  0  0  0  0  0  0  0  0  0  0
    0.0000    0.0000    0.0000 C   0  0  0  0  0  0  0  0  0  0  0  0
   -0.0000    1.0058    0.0000 C   0  0  0  0  0  0  0  0  0  0  0  0
    0.8680    1.5138    0.0000 C   0  0  0  0  0  0  0  0  0  0  0  0
    1.7360    1.0058    0.0000 C   0  0  0  0  0  0  0  0  0  0  0  0
    1.7360   -0.0012    0.0000 C   0  0  0  0  0  0  0  0  0  0  0  0
    2.6938   -0.3125    0.0000 C   0  0  0  0  0  0  0  0  0  0  0  0
    3.2858    0.5023    0.0000 C   0  0  0  0  0  0  0  0  0  0  0  0
    2.6938    1.3169    0.0000 N   0  0  0  0  0  0  0  0  0  0  0  0
    3.0028   -1.2636    0.0000 C   0  0  0  0  0  0  0  0  0  0  0  0
    3.9809   -1.4715    0.0000 C   0  0  0  0  0  0  0  0  0  0  0  0
    4.2899   -2.4226    0.0000 N   0  0  0  0  0  0  0  0  0  0  0  0
    5.2680   -2.6306    0.0000 C   0  0  0  0  0  0  0  0  0  0  0  0
    5.9372   -1.8874    0.0000 O   0  0  0  0  0  0  0  0  0  0  0  0
    5.5770   -3.5816    0.0000 C   0  0  0  0  0  0  0  0  0  0  0  0
    6.5551   -3.7896    0.0000 O   0  0  0  0  0  0  0  0  0  0  0  0
    6.8641   -4.7407    0.0000 C   0  0  0  0  0  0  0  0  0  0  0  0
  1  2  1  0  0  0  0
  2  7  2  0  0  0  0
  2  3  1  0  0  0  0
  3  4  2  0  0  0  0
  4  5  1  0  0  0  0
  5  6  2  0  0  0  0
  6 10  1  0  0  0  0
  6  7  1  0  0  0  0
  7  8  1  0  0  0  0
  8  9  2  0  0  0  0
  9 10  1  0  0  0  0
  8 11  1  0  0  0  0
 11 12  1  0  0  0  0
 12 13  1  0  0  0  0
 13 14  1  0  0  0  0
 14 15  2  0  0  0  0
 14 16  1  0  0  0  0
 16 17  1  0  0  0  0
 17 18  1  0  0  0  0
M  END
$$$$
s_22____9631354____7941800
  -OEChem-03222016482D

 17 18  0     0  0  0  0  0  0999 V2000
   -0.0000    1.0058    0.0000 C   0  0  0  0  0  0  0  0  0  0  0  0
    0.8680    1.5138    0.0000 C   0  0  0  0  0  0  0  0  0  0  0  0
    1.7360    1.0058    0.0000 C   0  0  0  0  0  0  0  0  0  0  0  0
    1.7360   -0.0012    0.0000 C   0  0  0  0  0  0  0  0  0  0  0  0
    0.8680   -0.4978    0.0000 C   0  0  0  0  0  0  0  0  0  0  0  0
    0.0000    0.0000    0.0000 C   0  0  0  0  0  0  0  0  0  0  0  0
   -0.8653   -0.5013    0.0000 F   0  0  0  0  0  0  0  0  0  0  0  0
    2.6938   -0.3125    0.0000 C   0  0  0  0  0  0  0  0  0  0  0  0
    3.2858    0.5023    0.0000 C   0  0  0  0  0  0  0  0  0  0  0  0
    2.6938    1.3169    0.0000 N   0  0  0  0  0  0  0  0  0  0  0  0
    3.0028   -1.2636    0.0000 C   0  0  0  0  0  0  0  0  0  0  0  0
    3.9809   -1.4715    0.0000 C   0  0  0  0  0  0  0  0  0  0  0  0
    4.2899   -2.4226    0.0000 N   0  0  0  0  0  0  0  0  0  0  0  0
    5.2680   -2.6306    0.0000 C   0  0  0  0  0  0  0  0  0  0  0  0
    5.9372   -1.8874    0.0000 O   0  0  0  0  0  0  0  0  0  0  0  0
    5.5770   -3.5816    0.0000 C   0  0  0  0  0  0  0  0  0  0  0  0
    6.5551   -3.7896    0.0000 O   0  0  0  0  0  0  0  0  0  0  0  0
  1  6  2  0  0  0  0
  1  2  1  0  0  0  0
  2  3  2  0  0  0  0
  3 10  1  0  0  0  0
  3  4  1  0  0  0  0
  4  5  2  0  0  0  0
  5  6  1  0  0  0  0
  6  7  1  0  0  0  0
  4  8  1  0  0  0  0
  8  9  2  0  0  0  0
  9 10  1  0  0  0  0
  8 11  1  0  0  0  0
 11 12  1  0  0  0  0
 12 13  1  0  0  0  0
 13 14  1  0  0  0  0
 14 15  2  0  0  0  0
 14 16  1  0  0  0  0
 16 17  1  0  0  0  0
M  END
$$$$
s_22____13978824____337030
  -OEChem-03222016482D

 19 20  0     0  0  0  0  0  0999 V2000
    6.5551   -3.7896    0.0000 C   0  0  0  0  0  0  0  0  0  0  0  0
    5.5770   -3.5816    0.0000 C   0  0  0  0  0  0  0  0  0  0  0  0
    4.9078   -4.3247    0.0000 C   0  0  0  0  0  0  0  0  0  0  0  0
    5.2680   -2.6306    0.0000 C   0  0  0  0  0  0  0  0  0  0  0  0
    5.9372   -1.8874    0.0000 O   0  0  0  0  0  0  0  0  0  0  0  0
    4.2899   -2.4226    0.0000 N   0  0  0  0  0  0  0  0  0  0  0  0
    3.9809   -1.4715    0.0000 C   0  0  0  0  0  0  0  0  0  0  0  0
    3.0028   -1.2636    0.0000 C   0  0  0  0  0  0  0  0  0  0  0  0
    2.6938   -0.3125    0.0000 C   0  0  0  0  0  0  0  0  0  0  0  0
    3.2858    0.5023    0.0000 C   0  0  0  0  0  0  0  0  0  0  0  0
    2.6938    1.3169    0.0000 N   0  0  0  0  0  0  0  0  0  0  0  0
    1.7360    1.0058    0.0000 C   0  0  0  0  0  0  0  0  0  0  0  0
    1.7360   -0.0012    0.0000 C   0  0  0  0  0  0  0  0  0  0  0  0
    0.8680   -0.4978    0.0000 C   0  0  0  0  0  0  0  0  0  0  0  0
    0.0000    0.0000    0.0000 C   0  0  0  0  0  0  0  0  0  0  0  0
   -0.0000    1.0058    0.0000 C   0  0  0  0  0  0  0  0  0  0  0  0
    0.8680    1.5138    0.0000 C   0  0  0  0  0  0  0  0  0  0  0  0
   -0.8675    1.5032    0.0000 O   0  0  0  0  0  0  0  0  0  0  0  0
   -1.7320    1.0007    0.0000 C   0  0  0  0  0  0  0  0  0  0  0  0
  1  2  1  0  0  0  0
  2  3  1  0  0  0  0
  2  4  1  0  0  0  0
  4  5  2  0  0  0  0
  4  6  1  0  0  0  0
  6  7  1  0  0  0  0
  7  8  1  0  0  0  0
  8  9  1  0  0  0  0
  9 13  1  0  0  0  0
  9 10  2  0  0  0  0
 10 11  1  0  0  0  0
 11 12  1  0  0  0  0
 12 17  2  0  0  0  0
 12 13  1  0  0  0  0
 13 14  2  0  0  0  0
 14 15  1  0  0  0  0
 15 16  2  0  0  0  0
 16 17  1  0  0  0  0
 16 18  1  0  0  0  0
 18 19  1  0  0  0  0
M  END
$$$$
s_270004____8299666____16621896
  -OEChem-03222016482D

 17 18  0     1  0  0  0  0  0999 V2000
    5.7860   -2.0956    0.0000 C   0  0  0  0  0  0  0  0  0  0  0  0
    6.2859   -1.2296    0.0000 C   0  0  3  0  0  0  0  0  0  0  0  0
    5.7859   -0.3636    0.0000 C   0  0  0  0  0  0  0  0  0  0  0  0
    4.7859   -0.3636    0.0000 N   0  3  0  0  0  0  0  0  0  0  0  0
    4.2858    0.5024    0.0000 C   0  0  0  0  0  0  0  0  0  0  0  0
    3.2858    0.5023    0.0000 C   0  0  0  0  0  0  0  0  0  0  0  0
    2.6938   -0.3125    0.0000 C   0  0  0  0  0  0  0  0  0  0  0  0
    1.7360   -0.0012    0.0000 C   0  0  0  0  0  0  0  0  0  0  0  0
    0.8680   -0.4978    0.0000 C   0  0  0  0  0  0  0  0  0  0  0  0
    0.0000    0.0000    0.0000 C   0  0  0  0  0  0  0  0  0  0  0  0
    0.0000    1.0058    0.0000 C   0  0  0  0  0  0  0  0  0  0  0  0
    0.8680    1.5138    0.0000 C   0  0  0  0  0  0  0  0  0  0  0  0
    1.7360    1.0058    0.0000 C   0  0  0  0  0  0  0  0  0  0  0  0
    2.6938    1.3169    0.0000 N   0  0  0  0  0  0  0  0  0  0  0  0
   -0.8653   -0.5013    0.0000 O   0  0  0  0  0  0  0  0  0  0  0  0
   -0.8639   -1.5013    0.0000 C   0  0  0  0  0  0  0  0  0  0  0  0
    7.2859   -1.2295    0.0000 O   0  0  0  0  0  0  0  0  0  0  0  0
  1  2  1  0  0  0  0
  2  3  1  0  0  0  0
  3  4  1  0  0  0  0
  4  5  1  0  0  0  0
  5  6  1  0  0  0  0
  6 14  1  0  0  0  0
  6  7  2  0  0  0  0
  7  8  1  0  0  0  0
  8 13  2  0  0  0  0
  8  9  1  0  0  0  0
  9 10  2  0  0  0  0
 10 11  1  0  0  0  0
 11 12  2  0  0  0  0
 12 13  1  0  0  0  0
 13 14  1  0  0  0  0
 10 15  1  0  0  0  0
 15 16  1  0  0  0  0
  2 17  1  0  0  0  0
M  CHG  1   4   1
M  END
$$$$
s_22____12346432____58844
  -OEChem-03222016482D

 16 17  0     0  0  0  0  0  0999 V2000
    5.5770   -3.5816    0.0000 C   0  0  0  0  0  0  0  0  0  0  0  0
    5.2680   -2.6306    0.0000 C   0  0  0  0  0  0  0  0  0  0  0  0
    5.9372   -1.8874    0.0000 O   0  0  0  0  0  0  0  0  0  0  0  0
    4.2899   -2.4226    0.0000 N   0  0  0  0  0  0  0  0  0  0  0  0
    3.9809   -1.4715    0.0000 C   0  0  0  0  0  0  0  0  0  0  0  0
    3.0028   -1.2636    0.0000 C   0  0  0  0  0  0  0  0  0  0  0  0
    2.6938   -0.3125    0.0000 C   0  0  0  0  0  0  0  0  0  0  0  0
    3.2858    0.5023    0.0000 C   0  0  0  0  0  0  0  0  0  0  0  0
    2.6938    1.3169    0.0000 N   0  0  0  0  0  0  0  0  0  0  0  0
    1.7360    1.0058    0.0000 C   0  0  0  0  0  0  0  0  0  0  0  0
    1.7360   -0.0012    0.0000 C   0  0  0  0  0  0  0  0  0  0  0  0
    0.8680   -0.4978    0.0000 C   0  0  0  0  0  0  0  0  0  0  0  0
    0.0000    0.0000    0.0000 C   0  0  0  0  0  0  0  0  0  0  0  0
   -0.0000    1.0058    0.0000 C   0  0  0  0  0  0  0  0  0  0  0  0
    0.8680    1.5138    0.0000 C   0  0  0  0  0  0  0  0  0  0  0  0
    0.8680    2.5138    0.0000 Cl  0  0  0  0  0  0  0  0  0  0  0  0
  1  2  1  0  0  0  0
  2  3  2  0  0  0  0
  2  4  1  0  0  0  0
  4  5  1  0  0  0  0
  5  6  1  0  0  0  0
  6  7  1  0  0  0  0
  7 11  1  0  0  0  0
  7  8  2  0  0  0  0
  8  9  1  0  0  0  0
  9 10  1  0  0  0  0
 10 15  2  0  0  0  0
 10 11  1  0  0  0  0
 11 12  2  0  0  0  0
 12 13  1  0  0  0  0
 13 14  2  0  0  0  0
 14 15  1  0  0  0  0
 15 16  1  0  0  0  0
M  END
$$$$
s_22____13913040____8794444
  -OEChem-03222016482D

 19 20  0     1  0  0  0  0  0999 V2000
    1.3555   -1.7987    0.0000 C   0  0  0  0  0  0  0  0  0  0  0  0
    2.3336   -2.0067    0.0000 C   0  0  3  0  0  0  0  0  0  0  0  0
    3.0028   -1.2636    0.0000 C   0  0  0  0  0  0  0  0  0  0  0  0
    2.6938   -0.3125    0.0000 C   0  0  0  0  0  0  0  0  0  0  0  0
    3.2858    0.5023    0.0000 C   0  0  0  0  0  0  0  0  0  0  0  0
    2.6938    1.3169    0.0000 N   0  0  0  0  0  0  0  0  0  0  0  0
    1.7360    1.0058    0.0000 C   0  0  0  0  0  0  0  0  0  0  0  0
    1.7360   -0.0012    0.0000 C   0  0  0  0  0  0  0  0  0  0  0  0
    0.8680   -0.4978    0.0000 C   0  0  0  0  0  0  0  0  0  0  0  0
    0.0000    0.0000    0.0000 C   0  0  0  0  0  0  0  0  0  0  0  0
   -0.0000    1.0058    0.0000 C   0  0  0  0  0  0  0  0  0  0  0  0
    0.8680    1.5138    0.0000 C   0  0  0  0  0  0  0  0  0  0  0  0
   -0.8653   -0.5013    0.0000 F   0  0  0  0  0  0  0  0  0  0  0  0
    2.6426   -2.9578    0.0000 N   0  0  0  0  0  0  0  0  0  0  0  0
    1.9734   -3.7009    0.0000 C   0  0  0  0  0  0  0  0  0  0  0  0
    0.9953   -3.4929    0.0000 O   0  0  0  0  0  0  0  0  0  0  0  0
    2.2824   -4.6519    0.0000 C   0  0  0  0  0  0  0  0  0  0  0  0
    1.6132   -5.3951    0.0000 C   0  0  0  0  0  0  0  0  0  0  0  0
    0.9440   -6.1382    0.0000 N   0  0  0  0  0  0  0  0  0  0  0  0
  1  2  1  0  0  0  0
  2  3  1  0  0  0  0
  3  4  1  0  0  0  0
  4  8  1  0  0  0  0
  4  5  2  0  0  0  0
  5  6  1  0  0  0  0
  6  7  1  0  0  0  0
  7 12  2  0  0  0  0
  7  8  1  0  0  0  0
  8  9  2  0  0  0  0
  9 10  1  0  0  0  0
 10 11  2  0  0  0  0
 11 12  1  0  0  0  0
 10 13  1  0  0  0  0
  2 14  1  0  0  0  0
 14 15  1  0  0  0  0
 15 16  2  0  0  0  0
 15 17  1  0  0  0  0
 17 18  1  0  0  0  0
 18 19  3  0  0  0  0
M  END
$$$$
s_22____13978824____13756276
  -OEChem-03222016482D

 20 21  0     1  0  0  0  0  0999 V2000
    6.8641   -4.7407    0.0000 C   0  0  0  0  0  0  0  0  0  0  0  0
    6.5551   -3.7896    0.0000 C   0  0  0  0  0  0  0  0  0  0  0  0
    5.5770   -3.5816    0.0000 C   0  0  3  0  0  0  0  0  0  0  0  0
    5.2680   -2.6306    0.0000 C   0  0  0  0  0  0  0  0  0  0  0  0
    5.9372   -1.8874    0.0000 O   0  0  0  0  0  0  0  0  0  0  0  0
    4.2899   -2.4226    0.0000 N   0  0  0  0  0  0  0  0  0  0  0  0
    3.9809   -1.4715    0.0000 C   0  0  0  0  0  0  0  0  0  0  0  0
    3.0028   -1.2636    0.0000 C   0  0  0  0  0  0  0  0  0  0  0  0
    2.6938   -0.3125    0.0000 C   0  0  0  0  0  0  0  0  0  0  0  0
    3.2858    0.5023    0.0000 C   0  0  0  0  0  0  0  0  0  0  0  0
    2.6938    1.3169    0.0000 N   0  0  0  0  0  0  0  0  0  0  0  0
    1.7360    1.0058    0.0000 C   0  0  0  0  0  0  0  0  0  0  0  0
    1.7360   -0.0012    0.0000 C   0  0  0  0  0  0  0  0  0  0  0  0
    0.8680   -0.4978    0.0000 C   0  0  0  0  0  0  0  0  0  0  0  0
    0.0000    0.0000    0.0000 C   0  0  0  0  0  0  0  0  0  0  0  0
   -0.0000    1.0058    0.0000 C   0  0  0  0  0  0  0  0  0  0  0  0
    0.8680    1.5138    0.0000 C   0  0  0  0  0  0  0  0  0  0  0  0
   -0.8675    1.5032    0.0000 O   0  0  0  0  0  0  0  0  0  0  0  0
   -1.7320    1.0007    0.0000 C   0  0  0  0  0  0  0  0  0  0  0  0
    4.9078   -4.3247    0.0000 F   0  0  0  0  0  0  0  0  0  0  0  0
  1  2  1  0  0  0  0
  2  3  1  0  0  0  0
  3  4  1  0  0  0  0
  4  5  2  0  0  0  0
  4  6  1  0  0  0  0
  6  7  1  0  0  0  0
  7  8  1  0  0  0  0
  8  9  1  0  0  0  0
  9 13  1  0  0  0  0
  9 10  2  0  0  0  0
 10 11  1  0  0  0  0
 11 12  1  0  0  0  0
 12 17  2  0  0  0  0
 12 13  1  0  0  0  0
 13 14  2  0  0  0  0
 14 15  1  0  0  0  0
 15 16  2  0  0  0  0
 16 17  1  0  0  0  0
 16 18  1  0  0  0  0
 18 19  1  0  0  0  0
  3 20  1  0  0  0  0
M  END
$$$$
s_512____5136592____13978836
  -OEChem-03222016482D

 21 22  0     0  0  0  0  0  0999 V2000
   -0.8705    2.5032    0.0000 C   0  0  0  0  0  0  0  0  0  0  0  0
   -0.8675    1.5032    0.0000 O   0  0  0  0  0  0  0  0  0  0  0  0
    0.0000    1.0058    0.0000 C   0  0  0  0  0  0  0  0  0  0  0  0
    0.0000    0.0000    0.0000 C   0  0  0  0  0  0  0  0  0  0  0  0
    0.8680   -0.4978    0.0000 C   0  0  0  0  0  0  0  0  0  0  0  0
    1.7360   -0.0012    0.0000 C   0  0  0  0  0  0  0  0  0  0  0  0
    1.7360    1.0058    0.0000 C   0  0  0  0  0  0  0  0  0  0  0  0
    0.8680    1.5138    0.0000 C   0  0  0  0  0  0  0  0  0  0  0  0
    2.6938    1.3169    0.0000 N   0  0  0  0  0  0  0  0  0  0  0  0
    3.2858    0.5023    0.0000 C   0  0  0  0  0  0  0  0  0  0  0  0
    2.6938   -0.3125    0.0000 C   0  0  0  0  0  0  0  0  0  0  0  0
    3.0028   -1.2636    0.0000 C   0  0  0  0  0  0  0  0  0  0  0  0
    3.9809   -1.4715    0.0000 C   0  0  0  0  0  0  0  0  0  0  0  0
    4.2899   -2.4226    0.0000 N   0  0  0  0  0  0  0  0  0  0  0  0
    5.2680   -2.6306    0.0000 C   0  0  0  0  0  0  0  0  0  0  0  0
    5.9372   -1.8874    0.0000 O   0  0  0  0  0  0  0  0  0  0  0  0
    5.5770   -3.5816    0.0000 N   0  0  0  0  0  0  0  0  0  0  0  0
    6.5551   -3.7896    0.0000 C   0  0  0  0  0  0  0  0  0  0  0  0
    6.8641   -4.7407    0.0000 C   0  0  0  0  0  0  0  0  0  0  0  0
    6.1949   -5.4838    0.0000 C   0  0  0  0  0  0  0  0  0  0  0  0
    7.8422   -4.9486    0.0000 Cl  0  0  0  0  0  0  0  0  0  0  0  0
  1  2  1  0  0  0  0
  2  3  1  0  0  0  0
  3  8  2  0  0  0  0
  3  4  1  0  0  0  0
  4  5  2  0  0  0  0
  5  6  1  0  0  0  0
  6 11  1  0  0  0  0
  6  7  2  0  0  0  0
  7  8  1  0  0  0  0
  7  9  1  0  0  0  0
  9 10  1  0  0  0  0
 10 11  2  0  0  0  0
 11 12  1  0  0  0  0
 12 13  1  0  0  0  0
 13 14  1  0  0  0  0
 14 15  1  0  0  0  0
 15 16  2  0  0  0  0
 15 17  1  0  0  0  0
 17 18  1  0  0  0  0
 18 19  1  0  0  0  0
 19 20  2  0  0  0  0
 19 21  1  0  0  0  0
M  END
$$$$
s_270004____8299440____16621896
  -OEChem-03222016482D

 22 23  0     0  0  0  0  0  0999 V2000
    6.2861   -4.6937    0.0000 C   0  0  0  0  0  0  0  0  0  0  0  0
    6.7861   -3.8276    0.0000 C   0  0  0  0  0  0  0  0  0  0  0  0
    6.2860   -2.9616    0.0000 N   0  0  0  0  0  0  0  0  0  0  0  0
    6.7860   -2.0956    0.0000 C   0  0  0  0  0  0  0  0  0  0  0  0
    7.7860   -2.0955    0.0000 O   0  0  0  0  0  0  0  0  0  0  0  0
    6.2859   -1.2296    0.0000 C   0  0  0  0  0  0  0  0  0  0  0  0
    5.4199   -1.7296    0.0000 C   0  0  0  0  0  0  0  0  0  0  0  0
    7.1519   -0.7295    0.0000 C   0  0  0  0  0  0  0  0  0  0  0  0
    5.7859   -0.3636    0.0000 C   0  0  0  0  0  0  0  0  0  0  0  0
    4.7859   -0.3636    0.0000 N   0  3  0  0  0  0  0  0  0  0  0  0
    4.2858    0.5024    0.0000 C   0  0  0  0  0  0  0  0  0  0  0  0
    3.2858    0.5023    0.0000 C   0  0  0  0  0  0  0  0  0  0  0  0
    2.6938   -0.3125    0.0000 C   0  0  0  0  0  0  0  0  0  0  0  0
    1.7360   -0.0012    0.0000 C   0  0  0  0  0  0  0  0  0  0  0  0
    0.8680   -0.4978    0.0000 C   0  0  0  0  0  0  0  0  0  0  0  0
    0.0000    0.0000    0.0000 C   0  0  0  0  0  0  0  0  0  0  0  0
    0.0000    1.0058    0.0000 C   0  0  0  0  0  0  0  0  0  0  0  0
    0.8680    1.5138    0.0000 C   0  0  0  0  0  0  0  0  0  0  0  0
    1.7360    1.0058    0.0000 C   0  0  0  0  0  0  0  0  0  0  0  0
    2.6938    1.3169    0.0000 N   0  0  0  0  0  0  0  0  0  0  0  0
   -0.8653   -0.5013    0.0000 O   0  0  0  0  0  0  0  0  0  0  0  0
   -0.8639   -1.5013    0.0000 C   0  0  0  0  0  0  0  0  0  0  0  0
  1  2  1  0  0  0  0
  2  3  1  0  0  0  0
  3  4  1  0  0  0  0
  4  5  2  0  0  0  0
  4  6  1  0  0  0  0
  6  7  1  0  0  0  0
  6  8  1  0  0  0  0
  6  9  1  0  0  0  0
  9 10  1  0  0  0  0
 10 11  1  0  0  0  0
 11 12  1  0  0  0  0
 12 20  1  0  0  0  0
 12 13  2  0  0  0  0
 13 14  1  0  0  0  0
 14 19  2  0  0  0  0
 14 15  1  0  0  0  0
 15 16  2  0  0  0  0
 16 17  1  0  0  0  0
 17 18  2  0  0  0  0
 18 19  1  0  0  0  0
 19 20  1  0  0  0  0
 16 21  1  0  0  0  0
 21 22  1  0  0  0  0
M  CHG  1  10   1
M  END
$$$$
s_22____9631354____58887
  -OEChem-03222016482D

 17 18  0     0  0  0  0  0  0999 V2000
    1.6132   -5.3951    0.0000 C   0  0  0  0  0  0  0  0  0  0  0  0
    2.2824   -4.6519    0.0000 C   0  0  0  0  0  0  0  0  0  0  0  0
    1.9734   -3.7009    0.0000 C   0  0  0  0  0  0  0  0  0  0  0  0
    0.9953   -3.4929    0.0000 O   0  0  0  0  0  0  0  0  0  0  0  0
    2.6426   -2.9578    0.0000 N   0  0  0  0  0  0  0  0  0  0  0  0
    2.3336   -2.0067    0.0000 C   0  0  0  0  0  0  0  0  0  0  0  0
    3.0028   -1.2636    0.0000 C   0  0  0  0  0  0  0  0  0  0  0  0
    2.6938   -0.3125    0.0000 C   0  0  0  0  0  0  0  0  0  0  0  0
    3.2858    0.5023    0.0000 C   0  0  0  0  0  0  0  0  0  0  0  0
    2.6938    1.3169    0.0000 N   0  0  0  0  0  0  0  0  0  0  0  0
    1.7360    1.0058    0.0000 C   0  0  0  0  0  0  0  0  0  0  0  0
    1.7360   -0.0012    0.0000 C   0  0  0  0  0  0  0  0  0  0  0  0
    0.8680   -0.4978    0.0000 C   0  0  0  0  0  0  0  0  0  0  0  0
    0.0000    0.0000    0.0000 C   0  0  0  0  0  0  0  0  0  0  0  0
   -0.0000    1.0058    0.0000 C   0  0  0  0  0  0  0  0  0  0  0  0
    0.8680    1.5138    0.0000 C   0  0  0  0  0  0  0  0  0  0  0  0
   -0.8653   -0.5013    0.0000 F   0  0  0  0  0  0  0  0  0  0  0  0
  1  2  1  0  0  0  0
  2  3  1  0  0  0  0
  3  4  2  0  0  0  0
  3  5  1  0  0  0  0
  5  6  1  0  0  0  0
  6  7  1  0  0  0  0
  7  8  1  0  0  0  0
  8 12  1  0  0  0  0
  8  9  2  0  0  0  0
  9 10  1  0  0  0  0
 10 11  1  0  0  0  0
 11 16  2  0  0  0  0
 11 12  1  0  0  0  0
 12 13  2  0  0  0  0
 13 14  1  0  0  0  0
 14 15  2  0  0  0  0
 15 16  1  0  0  0  0
 14 17  1  0  0  0  0
M  END
$$$$
s_240690b____16900534____7368582
  -OEChem-03222016482D

 18 19  0     0  0  0  0  0  0999 V2000
    6.8641   -4.7407    0.0000 C   0  0  0  0  0  0  0  0  0  0  0  0
    6.5551   -3.7896    0.0000 N   0  3  0  0  0  0  0  0  0  0  0  0
    5.5770   -3.5816    0.0000 C   0  0  0  0  0  0  0  0  0  0  0  0
    5.2680   -2.6306    0.0000 C   0  0  0  0  0  0  0  0  0  0  0  0
    5.9372   -1.8874    0.0000 O   0  0  0  0  0  0  0  0  0  0  0  0
    4.2899   -2.4226    0.0000 N   0  0  0  0  0  0  0  0  0  0  0  0
    3.9809   -1.4715    0.0000 C   0  0  0  0  0  0  0  0  0  0  0  0
    3.0028   -1.2636    0.0000 C   0  0  0  0  0  0  0  0  0  0  0  0
    2.6938   -0.3125    0.0000 C   0  0  0  0  0  0  0  0  0  0  0  0
    3.2858    0.5023    0.0000 C   0  0  0  0  0  0  0  0  0  0  0  0
    2.6938    1.3169    0.0000 N   0  0  0  0  0  0  0  0  0  0  0  0
    1.7360    1.0058    0.0000 C   0  0  0  0  0  0  0  0  0  0  0  0
    1.7360   -0.0012    0.0000 C   0  0  0  0  0  0  0  0  0  0  0  0
    0.8680   -0.4978    0.0000 C   0  0  0  0  0  0  0  0  0  0  0  0
    0.0000    0.0000    0.0000 C   0  0  0  0  0  0  0  0  0  0  0  0
   -0.0000    1.0058    0.0000 C   0  0  0  0  0  0  0  0  0  0  0  0
    0.8680    1.5138    0.0000 C   0  0  0  0  0  0  0  0  0  0  0  0
    0.8675   -1.4978    0.0000 F   0  0  0  0  0  0  0  0  0  0  0  0
  1  2  1  0  0  0  0
  2  3  1  0  0  0  0
  3  4  1  0  0  0  0
  4  5  2  0  0  0  0
  4  6  1  0  0  0  0
  6  7  1  0  0  0  0
  7  8  1  0  0  0  0
  8  9  1  0  0  0  0
  9 13  1  0  0  0  0
  9 10  2  0  0  0  0
 10 11  1  0  0  0  0
 11 12  1  0  0  0  0
 12 17  2  0  0  0  0
 12 13  1  0  0  0  0
 13 14  2  0  0  0  0
 14 15  1  0  0  0  0
 15 16  2  0  0  0  0
 16 17  1  0  0  0  0
 14 18  1  0  0  0  0
M  CHG  1   2   1
M  END
$$$$
s_22____13612008____8794444
  -OEChem-03222016482D

 18 19  0     0  0  0  0  0  0999 V2000
   -0.8653   -0.5013    0.0000 C   0  0  0  0  0  0  0  0  0  0  0  0
    0.0000    0.0000    0.0000 C   0  0  0  0  0  0  0  0  0  0  0  0
   -0.0000    1.0058    0.0000 C   0  0  0  0  0  0  0  0  0  0  0  0
    0.8680    1.5138    0.0000 C   0  0  0  0  0  0  0  0  0  0  0  0
    1.7360    1.0058    0.0000 C   0  0  0  0  0  0  0  0  0  0  0  0
    1.7360   -0.0012    0.0000 C   0  0  0  0  0  0  0  0  0  0  0  0
    0.8680   -0.4978    0.0000 C   0  0  0  0  0  0  0  0  0  0  0  0
    2.6938   -0.3125    0.0000 C   0  0  0  0  0  0  0  0  0  0  0  0
    3.2858    0.5023    0.0000 C   0  0  0  0  0  0  0  0  0  0  0  0
    2.6938    1.3169    0.0000 N   0  0  0  0  0  0  0  0  0  0  0  0
    3.0028   -1.2636    0.0000 C   0  0  0  0  0  0  0  0  0  0  0  0
    3.9809   -1.4715    0.0000 C   0  0  0  0  0  0  0  0  0  0  0  0
    4.2899   -2.4226    0.0000 N   0  0  0  0  0  0  0  0  0  0  0  0
    5.2680   -2.6306    0.0000 C   0  0  0  0  0  0  0  0  0  0  0  0
    5.9372   -1.8874    0.0000 O   0  0  0  0  0  0  0  0  0  0  0  0
    5.5770   -3.5816    0.0000 C   0  0  0  0  0  0  0  0  0  0  0  0
    6.5551   -3.7896    0.0000 C   0  0  0  0  0  0  0  0  0  0  0  0
    7.5333   -3.9976    0.0000 N   0  0  0  0  0  0  0  0  0  0  0  0
  1  2  1  0  0  0  0
  2  7  2  0  0  0  0
  2  3  1  0  0  0  0
  3  4  2  0  0  0  0
  4  5  1  0  0  0  0
  5 10  1  0  0  0  0
  5  6  2  0  0  0  0
  6  7  1  0  0  0  0
  6  8  1  0  0  0  0
  8  9  2  0  0  0  0
  9 10  1  0  0  0  0
  8 11  1  0  0  0  0
 11 12  1  0  0  0  0
 12 13  1  0  0  0  0
 13 14  1  0  0  0  0
 14 15  2  0  0  0  0
 14 16  1  0  0  0  0
 16 17  1  0  0  0  0
 17 18  3  0  0  0  0
M  END
$$$$
s_8____15506612____83693
  -OEChem-03222016482D

 18 19  0     0  0  0  0  0  0999 V2000
    1.6132   -5.3951    0.0000 C   0  0  0  0  0  0  0  0  0  0  0  0
    2.2824   -4.6519    0.0000 N   0  0  0  0  0  0  0  0  0  0  0  0
    1.9734   -3.7009    0.0000 C   0  0  0  0  0  0  0  0  0  0  0  0
    0.9953   -3.4929    0.0000 S   0  0  0  0  0  0  0  0  0  0  0  0
    2.6426   -2.9578    0.0000 N   0  0  0  0  0  0  0  0  0  0  0  0
    2.3336   -2.0067    0.0000 C   0  0  0  0  0  0  0  0  0  0  0  0
    3.0028   -1.2636    0.0000 C   0  0  0  0  0  0  0  0  0  0  0  0
    2.6938   -0.3125    0.0000 C   0  0  0  0  0  0  0  0  0  0  0  0
    3.2858    0.5023    0.0000 C   0  0  0  0  0  0  0  0  0  0  0  0
    2.6938    1.3169    0.0000 N   0  0  0  0  0  0  0  0  0  0  0  0
    1.7360    1.0058    0.0000 C   0  0  0  0  0  0  0  0  0  0  0  0
    1.7360   -0.0012    0.0000 C   0  0  0  0  0  0  0  0  0  0  0  0
    0.8680   -0.4978    0.0000 C   0  0  0  0  0  0  0  0  0  0  0  0
    0.0000    0.0000    0.0000 C   0  0  0  0  0  0  0  0  0  0  0  0
   -0.0000    1.0058    0.0000 C   0  0  0  0  0  0  0  0  0  0  0  0
    0.8680    1.5138    0.0000 C   0  0  0  0  0  0  0  0  0  0  0  0
    0.8680    2.5138    0.0000 O   0  0  0  0  0  0  0  0  0  0  0  0
    0.0020    3.0138    0.0000 C   0  0  0  0  0  0  0  0  0  0  0  0
  1  2  1  0  0  0  0
  2  3  1  0  0  0  0
  3  4  2  0  0  0  0
  3  5  1  0  0  0  0
  5  6  1  0  0  0  0
  6  7  1  0  0  0  0
  7  8  1  0  0  0  0
  8 12  1  0  0  0  0
  8  9  2  0  0  0  0
  9 10  1  0  0  0  0
 10 11  1  0  0  0  0
 11 16  2  0  0  0  0
 11 12  1  0  0  0  0
 12 13  2  0  0  0  0
 13 14  1  0  0  0  0
 14 15  2  0  0  0  0
 15 16  1  0  0  0  0
 16 17  1  0  0  0  0
 17 18  1  0  0  0  0
M  END
$$$$
s_22____9156166____59039
  -OEChem-03222016482D

 18 19  0     0  0  0  0  0  0999 V2000
   -0.8675    1.5032    0.0000 C   0  0  0  0  0  0  0  0  0  0  0  0
    0.0000    1.0058    0.0000 C   0  0  0  0  0  0  0  0  0  0  0  0
    0.0000    0.0000    0.0000 C   0  0  0  0  0  0  0  0  0  0  0  0
    0.8680   -0.4978    0.0000 C   0  0  0  0  0  0  0  0  0  0  0  0
    1.7360   -0.0012    0.0000 C   0  0  0  0  0  0  0  0  0  0  0  0
    1.7360    1.0058    0.0000 C   0  0  0  0  0  0  0  0  0  0  0  0
    0.8680    1.5138    0.0000 C   0  0  0  0  0  0  0  0  0  0  0  0
    2.6938    1.3169    0.0000 N   0  0  0  0  0  0  0  0  0  0  0  0
    3.2858    0.5023    0.0000 C   0  0  0  0  0  0  0  0  0  0  0  0
    2.6938   -0.3125    0.0000 C   0  0  0  0  0  0  0  0  0  0  0  0
    3.0028   -1.2636    0.0000 C   0  0  0  0  0  0  0  0  0  0  0  0
    3.9809   -1.4715    0.0000 C   0  0  0  0  0  0  0  0  0  0  0  0
    4.2899   -2.4226    0.0000 N   0  0  0  0  0  0  0  0  0  0  0  0
    5.2680   -2.6306    0.0000 C   0  0  0  0  0  0  0  0  0  0  0  0
    5.9372   -1.8874    0.0000 O   0  0  0  0  0  0  0  0  0  0  0  0
    5.5770   -3.5816    0.0000 C   0  0  0  0  0  0  0  0  0  0  0  0
    6.5551   -3.7896    0.0000 O   0  0  0  0  0  0  0  0  0  0  0  0
    6.8641   -4.7407    0.0000 C   0  0  0  0  0  0  0  0  0  0  0  0
  1  2  1  0  0  0  0
  2  7  2  0  0  0  0
  2  3  1  0  0  0  0
  3  4  2  0  0  0  0
  4  5  1  0  0  0  0
  5 10  1  0  0  0  0
  5  6  2  0  0  0  0
  6  7  1  0  0  0  0
  6  8  1  0  0  0  0
  8  9  1  0  0  0  0
  9 10  2  0  0  0  0
 10 11  1  0  0  0  0
 11 12  1  0  0  0  0
 12 13  1  0  0  0  0
 13 14  1  0  0  0  0
 14 15  2  0  0  0  0
 14 16  1  0  0  0  0
 16 17  1  0  0  0  0
 17 18  1  0  0  0  0
M  END
$$$$
s_512____13448004____4839458
  -OEChem-03222016482D

 21 22  0     0  0  0  0  0  0999 V2000
   -1.7320   -0.0025    0.0000 C   0  0  0  0  0  0  0  0  0  0  0  0
   -0.8653   -0.5013    0.0000 O   0  0  0  0  0  0  0  0  0  0  0  0
    0.0000    0.0000    0.0000 C   0  0  0  0  0  0  0  0  0  0  0  0
   -0.0000    1.0058    0.0000 C   0  0  0  0  0  0  0  0  0  0  0  0
    0.8680    1.5138    0.0000 C   0  0  0  0  0  0  0  0  0  0  0  0
    1.7360    1.0058    0.0000 C   0  0  0  0  0  0  0  0  0  0  0  0
    1.7360   -0.0012    0.0000 C   0  0  0  0  0  0  0  0  0  0  0  0
    0.8680   -0.4978    0.0000 C   0  0  0  0  0  0  0  0  0  0  0  0
    2.6938   -0.3125    0.0000 C   0  0  0  0  0  0  0  0  0  0  0  0
    3.2858    0.5023    0.0000 C   0  0  0  0  0  0  0  0  0  0  0  0
    2.6938    1.3169    0.0000 N   0  0  0  0  0  0  0  0  0  0  0  0
    3.0028   -1.2636    0.0000 C   0  0  0  0  0  0  0  0  0  0  0  0
    3.9809   -1.4715    0.0000 C   0  0  0  0  0  0  0  0  0  0  0  0
    4.2899   -2.4226    0.0000 N   0  0  0  0  0  0  0  0  0  0  0  0
    5.2680   -2.6306    0.0000 C   0  0  0  0  0  0  0  0  0  0  0  0
    5.9372   -1.8874    0.0000 O   0  0  0  0  0  0  0  0  0  0  0  0
    5.5770   -3.5816    0.0000 N   0  0  0  0  0  0  0  0  0  0  0  0
    6.5551   -3.7896    0.0000 C   0  0  0  0  0  0  0  0  0  0  0  0
    6.8641   -4.7407    0.0000 C   0  0  0  0  0  0  0  0  0  0  0  0
    7.8422   -4.9486    0.0000 C   0  0  0  0  0  0  0  0  0  0  0  0
    8.1512   -5.8997    0.0000 Cl  0  0  0  0  0  0  0  0  0  0  0  0
  1  2  1  0  0  0  0
  2  3  1  0  0  0  0
  3  8  2  0  0  0  0
  3  4  1  0  0  0  0
  4  5  2  0  0  0  0
  5  6  1  0  0  0  0
  6 11  1  0  0  0  0
  6  7  2  0  0  0  0
  7  8  1  0  0  0  0
  7  9  1  0  0  0  0
  9 10  2  0  0  0  0
 10 11  1  0  0  0  0
  9 12  1  0  0  0  0
 12 13  1  0  0  0  0
 13 14  1  0  0  0  0
 14 15  1  0  0  0  0
 15 16  2  0  0  0  0
 15 17  1  0  0  0  0
 17 18  1  0  0  0  0
 18 19  1  0  0  0  0
 19 20  2  3  0  0  0
 20 21  1  0  0  0  0
M  END
$$$$
s_512____214534____13025528
  -OEChem-03222016482D

 21 22  0     0  0  0  0  0  0999 V2000
    8.1512   -5.8997    0.0000 C   0  0  0  0  0  0  0  0  0  0  0  0
    7.8422   -4.9486    0.0000 C   0  0  0  0  0  0  0  0  0  0  0  0
    6.8641   -4.7407    0.0000 C   0  0  0  0  0  0  0  0  0  0  0  0
    6.5551   -3.7896    0.0000 C   0  0  0  0  0  0  0  0  0  0  0  0
    5.5770   -3.5816    0.0000 N   0  0  0  0  0  0  0  0  0  0  0  0
    5.2680   -2.6306    0.0000 C   0  0  0  0  0  0  0  0  0  0  0  0
    5.9372   -1.8874    0.0000 O   0  0  0  0  0  0  0  0  0  0  0  0
    4.2899   -2.4226    0.0000 N   0  0  0  0  0  0  0  0  0  0  0  0
    3.9809   -1.4715    0.0000 C   0  0  0  0  0  0  0  0  0  0  0  0
    3.0028   -1.2636    0.0000 C   0  0  0  0  0  0  0  0  0  0  0  0
    2.6938   -0.3125    0.0000 C   0  0  0  0  0  0  0  0  0  0  0  0
    3.2858    0.5023    0.0000 C   0  0  0  0  0  0  0  0  0  0  0  0
    2.6938    1.3169    0.0000 N   0  0  0  0  0  0  0  0  0  0  0  0
    1.7360    1.0058    0.0000 C   0  0  0  0  0  0  0  0  0  0  0  0
    1.7360   -0.0012    0.0000 C   0  0  0  0  0  0  0  0  0  0  0  0
    0.8680   -0.4978    0.0000 C   0  0  0  0  0  0  0  0  0  0  0  0
    0.0000    0.0000    0.0000 C   0  0  0  0  0  0  0  0  0  0  0  0
   -0.0000    1.0058    0.0000 C   0  0  0  0  0  0  0  0  0  0  0  0
    0.8680    1.5138    0.0000 C   0  0  0  0  0  0  0  0  0  0  0  0
    0.8675   -1.4978    0.0000 O   0  0  0  0  0  0  0  0  0  0  0  0
    1.7332   -1.9983    0.0000 C   0  0  0  0  0  0  0  0  0  0  0  0
  1  2  1  0  0  0  0
  2  3  1  0  0  0  0
  3  4  1  0  0  0  0
  4  5  1  0  0  0  0
  5  6  1  0  0  0  0
  6  7  2  0  0  0  0
  6  8  1  0  0  0  0
  8  9  1  0  0  0  0
  9 10  1  0  0  0  0
 10 11  1  0  0  0  0
 11 15  1  0  0  0  0
 11 12  2  0  0  0  0
 12 13  1  0  0  0  0
 13 14  1  0  0  0  0
 14 19  2  0  0  0  0
 14 15  1  0  0  0  0
 15 16  2  0  0  0  0
 16 17  1  0  0  0  0
 17 18  2  0  0  0  0
 18 19  1  0  0  0  0
 16 20  1  0  0  0  0
 20 21  1  0  0  0  0
M  END
$$$$
s_22____4839448____7941800
  -OEChem-03222016482D

 18 19  0     0  0  0  0  0  0999 V2000
   -1.7320   -0.0025    0.0000 C   0  0  0  0  0  0  0  0  0  0  0  0
   -0.8653   -0.5013    0.0000 O   0  0  0  0  0  0  0  0  0  0  0  0
    0.0000    0.0000    0.0000 C   0  0  0  0  0  0  0  0  0  0  0  0
   -0.0000    1.0058    0.0000 C   0  0  0  0  0  0  0  0  0  0  0  0
    0.8680    1.5138    0.0000 C   0  0  0  0  0  0  0  0  0  0  0  0
    1.7360    1.0058    0.0000 C   0  0  0  0  0  0  0  0  0  0  0  0
    1.7360   -0.0012    0.0000 C   0  0  0  0  0  0  0  0  0  0  0  0
    0.8680   -0.4978    0.0000 C   0  0  0  0  0  0  0  0  0  0  0  0
    2.6938   -0.3125    0.0000 C   0  0  0  0  0  0  0  0  0  0  0  0
    3.2858    0.5023    0.0000 C   0  0  0  0  0  0  0  0  0  0  0  0
    2.6938    1.3169    0.0000 N   0  0  0  0  0  0  0  0  0  0  0  0
    3.0028   -1.2636    0.0000 C   0  0  0  0  0  0  0  0  0  0  0  0
    3.9809   -1.4715    0.0000 C   0  0  0  0  0  0  0  0  0  0  0  0
    4.2899   -2.4226    0.0000 N   0  0  0  0  0  0  0  0  0  0  0  0
    5.2680   -2.6306    0.0000 C   0  0  0  0  0  0  0  0  0  0  0  0
    5.9372   -1.8874    0.0000 O   0  0  0  0  0  0  0  0  0  0  0  0
    5.5770   -3.5816    0.0000 C   0  0  0  0  0  0  0  0  0  0  0  0
    6.5551   -3.7896    0.0000 O   0  0  0  0  0  0  0  0  0  0  0  0
  1  2  1  0  0  0  0
  2  3  1  0  0  0  0
  3  8  2  0  0  0  0
  3  4  1  0  0  0  0
  4  5  2  0  0  0  0
  5  6  1  0  0  0  0
  6 11  1  0  0  0  0
  6  7  2  0  0  0  0
  7  8  1  0  0  0  0
  7  9  1  0  0  0  0
  9 10  2  0  0  0  0
 10 11  1  0  0  0  0
  9 12  1  0  0  0  0
 12 13  1  0  0  0  0
 13 14  1  0  0  0  0
 14 15  1  0  0  0  0
 15 16  2  0  0  0  0
 15 17  1  0  0  0  0
 17 18  1  0  0  0  0
M  END
$$$$
s_274078a____12246902____12873778
  -OEChem-03222016482D

 18 19  0     1  0  0  0  0  0999 V2000
   -0.2806   -2.3374    0.0000 C   0  0  0  0  0  0  0  0  0  0  0  0
    0.6987   -2.5400    0.0000 C   0  0  0  0  0  0  0  0  0  0  0  0
    1.0129   -3.4893    0.0000 O   0  0  0  0  0  0  0  0  0  0  0  0
    1.3638   -1.7932    0.0000 N   0  0  0  0  0  0  0  0  0  0  0  0
    2.3431   -1.9958    0.0000 C   0  0  3  0  0  0  0  0  0  0  0  0
    3.0082   -1.2491    0.0000 C   0  0  0  0  0  0  0  0  0  0  0  0
    2.6940   -0.2997    0.0000 C   0  0  0  0  0  0  0  0  0  0  0  0
    3.2780    0.5133    0.0000 C   0  0  0  0  0  0  0  0  0  0  0  0
    2.6851    1.3196    0.0000 N   0  0  0  0  0  0  0  0  0  0  0  0
    1.7350    1.0052    0.0000 C   0  0  0  0  0  0  0  0  0  0  0  0
    1.7405    0.0044    0.0000 C   0  0  0  0  0  0  0  0  0  0  0  0
    0.8675   -0.4975    0.0000 C   0  0  0  0  0  0  0  0  0  0  0  0
    0.0000    0.0000    0.0000 C   0  0  0  0  0  0  0  0  0  0  0  0
   -0.0000    1.0052    0.0000 C   0  0  0  0  0  0  0  0  0  0  0  0
    0.8675    1.5129    0.0000 N   0  0  0  0  0  0  0  0  0  0  0  0
    2.6572   -2.9452    0.0000 C   0  0  0  0  0  0  0  0  0  0  0  0
    1.9921   -3.6920    0.0000 O   0  0  0  0  0  0  0  0  0  0  0  0
    3.6365   -3.1478    0.0000 O   0  5  0  0  0  0  0  0  0  0  0  0
  1  2  1  0  0  0  0
  2  3  2  0  0  0  0
  2  4  1  0  0  0  0
  4  5  1  0  0  0  0
  5  6  1  0  0  0  0
  6  7  1  0  0  0  0
  7 11  1  0  0  0  0
  7  8  2  0  0  0  0
  8  9  1  0  0  0  0
  9 10  1  0  0  0  0
 10 15  2  0  0  0  0
 10 11  1  0  0  0  0
 11 12  2  0  0  0  0
 12 13  1  0  0  0  0
 13 14  2  0  0  0  0
 14 15  1  0  0  0  0
  5 16  1  0  0  0  0
 16 17  2  0  0  0  0
 16 18  1  0  0  0  0
M  CHG  1  18  -1
M  END
$$$$
s_270062____17638936____8147258
  -OEChem-03222016482D

 18 19  0     1  0  0  0  0  0999 V2000
    4.7859   -0.3636    0.0000 C   0  0  0  0  0  0  0  0  0  0  0  0
    4.2858    0.5024    0.0000 C   0  0  3  0  0  0  0  0  0  0  0  0
    3.2858    0.5023    0.0000 C   0  0  0  0  0  0  0  0  0  0  0  0
    2.6938   -0.3125    0.0000 C   0  0  0  0  0  0  0  0  0  0  0  0
    1.7360   -0.0012    0.0000 C   0  0  0  0  0  0  0  0  0  0  0  0
    0.8680   -0.4978    0.0000 C   0  0  0  0  0  0  0  0  0  0  0  0
    0.0000    0.0000    0.0000 C   0  0  0  0  0  0  0  0  0  0  0  0
    0.0000    1.0058    0.0000 C   0  0  0  0  0  0  0  0  0  0  0  0
    0.8680    1.5138    0.0000 C   0  0  0  0  0  0  0  0  0  0  0  0
    1.7360    1.0058    0.0000 C   0  0  0  0  0  0  0  0  0  0  0  0
    2.6938    1.3169    0.0000 O   0  0  0  0  0  0  0  0  0  0  0  0
    0.8680    2.5138    0.0000 O   0  0  0  0  0  0  0  0  0  0  0  0
    0.0020    3.0138    0.0000 C   0  0  0  0  0  0  0  0  0  0  0  0
    4.7857    1.3684    0.0000 N   0  0  0  0  0  0  0  0  0  0  0  0
    5.7857    1.3685    0.0000 C   0  0  0  0  0  0  0  0  0  0  0  0
    6.2858    0.5025    0.0000 O   0  0  0  0  0  0  0  0  0  0  0  0
    6.2857    2.2345    0.0000 C   0  0  0  0  0  0  0  0  0  0  0  0
    7.2857    2.2346    0.0000 Cl  0  0  0  0  0  0  0  0  0  0  0  0
  1  2  1  0  0  0  0
  2  3  1  0  0  0  0
  3 11  1  0  0  0  0
  3  4  2  0  0  0  0
  4  5  1  0  0  0  0
  5 10  2  0  0  0  0
  5  6  1  0  0  0  0
  6  7  2  0  0  0  0
  7  8  1  0  0  0  0
  8  9  2  0  0  0  0
  9 10  1  0  0  0  0
 10 11  1  0  0  0  0
  9 12  1  0  0  0  0
 12 13  1  0  0  0  0
  2 14  1  0  0  0  0
 14 15  1  0  0  0  0
 15 16  2  0  0  0  0
 15 17  1  0  0  0  0
 17 18  1  0  0  0  0
M  END
$$$$
s_22____13025516____592954
  -OEChem-03222016482D

 20 22  0     0  0  0  0  0  0999 V2000
    0.0012   -1.9973    0.0000 C   0  0  0  0  0  0  0  0  0  0  0  0
    0.8675   -1.4978    0.0000 O   0  0  0  0  0  0  0  0  0  0  0  0
    0.8680   -0.4978    0.0000 C   0  0  0  0  0  0  0  0  0  0  0  0
    0.0000    0.0000    0.0000 C   0  0  0  0  0  0  0  0  0  0  0  0
   -0.0000    1.0058    0.0000 C   0  0  0  0  0  0  0  0  0  0  0  0
    0.8680    1.5138    0.0000 C   0  0  0  0  0  0  0  0  0  0  0  0
    1.7360    1.0058    0.0000 C   0  0  0  0  0  0  0  0  0  0  0  0
    1.7360   -0.0012    0.0000 C   0  0  0  0  0  0  0  0  0  0  0  0
    2.6938   -0.3125    0.0000 C   0  0  0  0  0  0  0  0  0  0  0  0
    3.2858    0.5023    0.0000 C   0  0  0  0  0  0  0  0  0  0  0  0
    2.6938    1.3169    0.0000 N   0  0  0  0  0  0  0  0  0  0  0  0
    3.0028   -1.2636    0.0000 C   0  0  0  0  0  0  0  0  0  0  0  0
    3.9809   -1.4715    0.0000 C   0  0  0  0  0  0  0  0  0  0  0  0
    4.2899   -2.4226    0.0000 N   0  0  0  0  0  0  0  0  0  0  0  0
    5.2680   -2.6306    0.0000 C   0  0  0  0  0  0  0  0  0  0  0  0
    5.9372   -1.8874    0.0000 O   0  0  0  0  0  0  0  0  0  0  0  0
    5.5770   -3.5816    0.0000 C   0  0  0  0  0  0  0  0  0  0  0  0
    6.5551   -3.7896    0.0000 C   0  0  0  0  0  0  0  0  0  0  0  0
    7.3004   -4.4592    0.0000 C   0  0  0  0  0  0  0  0  0  0  0  0
    7.5083   -3.4811    0.0000 C   0  0  0  0  0  0  0  0  0  0  0  0
  1  2  1  0  0  0  0
  2  3  1  0  0  0  0
  3  8  2  0  0  0  0
  3  4  1  0  0  0  0
  4  5  2  0  0  0  0
  5  6  1  0  0  0  0
  6  7  2  0  0  0  0
  7 11  1  0  0  0  0
  7  8  1  0  0  0  0
  8  9  1  0  0  0  0
  9 10  2  0  0  0  0
 10 11  1  0  0  0  0
  9 12  1  0  0  0  0
 12 13  1  0  0  0  0
 13 14  1  0  0  0  0
 14 15  1  0  0  0  0
 15 16  2  0  0  0  0
 15 17  1  0  0  0  0
 17 18  1  0  0  0  0
 18 20  1  0  0  0  0
 18 19  1  0  0  0  0
 19 20  1  0  0  0  0
M  END
$$$$
s_270062____7617122____8147258
  -OEChem-03222016482D

 18 19  0     0  0  0  0  0  0999 V2000
   -1.7320   -0.0025    0.0000 C   0  0  0  0  0  0  0  0  0  0  0  0
   -0.8653   -0.5013    0.0000 O   0  0  0  0  0  0  0  0  0  0  0  0
    0.0000    0.0000    0.0000 C   0  0  0  0  0  0  0  0  0  0  0  0
   -0.0000    1.0058    0.0000 C   0  0  0  0  0  0  0  0  0  0  0  0
    0.8680    1.5138    0.0000 C   0  0  0  0  0  0  0  0  0  0  0  0
    1.7360    1.0058    0.0000 C   0  0  0  0  0  0  0  0  0  0  0  0
    1.7360   -0.0012    0.0000 C   0  0  0  0  0  0  0  0  0  0  0  0
    0.8680   -0.4978    0.0000 C   0  0  0  0  0  0  0  0  0  0  0  0
    2.6938   -0.3125    0.0000 C   0  0  0  0  0  0  0  0  0  0  0  0
    3.2858    0.5023    0.0000 C   0  0  0  0  0  0  0  0  0  0  0  0
    2.6938    1.3169    0.0000 N   0  0  0  0  0  0  0  0  0  0  0  0
    3.0028   -1.2636    0.0000 C   0  0  0  0  0  0  0  0  0  0  0  0
    3.9809   -1.4715    0.0000 C   0  0  0  0  0  0  0  0  0  0  0  0
    4.2899   -2.4226    0.0000 N   0  0  0  0  0  0  0  0  0  0  0  0
    5.2680   -2.6306    0.0000 C   0  0  0  0  0  0  0  0  0  0  0  0
    5.9372   -1.8874    0.0000 O   0  0  0  0  0  0  0  0  0  0  0  0
    5.5770   -3.5816    0.0000 C   0  0  0  0  0  0  0  0  0  0  0  0
    6.5551   -3.7896    0.0000 Cl  0  0  0  0  0  0  0  0  0  0  0  0
  1  2  1  0  0  0  0
  2  3  1  0  0  0  0
  3  8  2  0  0  0  0
  3  4  1  0  0  0  0
  4  5  2  0  0  0  0
  5  6  1  0  0  0  0
  6 11  1  0  0  0  0
  6  7  2  0  0  0  0
  7  8  1  0  0  0  0
  7  9  1  0  0  0  0
  9 10  2  0  0  0  0
 10 11  1  0  0  0  0
  9 12  1  0  0  0  0
 12 13  1  0  0  0  0
 13 14  1  0  0  0  0
 14 15  1  0  0  0  0
 15 16  2  0  0  0  0
 15 17  1  0  0  0  0
 17 18  1  0  0  0  0
M  END
$$$$
EN300-2008931
  -OEChem-03222016482D

 18 19  0     1  0  0  0  0  0999 V2000
   -1.7320   -0.0025    0.0000 C   0  0  0  0  0  0  0  0  0  0  0  0
   -0.8653   -0.5013    0.0000 O   0  0  0  0  0  0  0  0  0  0  0  0
    0.0000    0.0000    0.0000 C   0  0  0  0  0  0  0  0  0  0  0  0
   -0.0000    1.0058    0.0000 C   0  0  0  0  0  0  0  0  0  0  0  0
    0.8680    1.5138    0.0000 C   0  0  0  0  0  0  0  0  0  0  0  0
    1.7360    1.0058    0.0000 C   0  0  0  0  0  0  0  0  0  0  0  0
    1.7360   -0.0012    0.0000 C   0  0  0  0  0  0  0  0  0  0  0  0
    0.8680   -0.4978    0.0000 C   0  0  0  0  0  0  0  0  0  0  0  0
    2.6938   -0.3125    0.0000 C   0  0  0  0  0  0  0  0  0  0  0  0
    3.2858    0.5023    0.0000 C   0  0  0  0  0  0  0  0  0  0  0  0
    2.6938    1.3169    0.0000 N   0  0  0  0  0  0  0  0  0  0  0  0
    3.0028   -1.2636    0.0000 C   0  0  0  0  0  0  0  0  0  0  0  0
    3.9809   -1.4715    0.0000 C   0  0  3  0  0  0  0  0  0  0  0  0
    4.2899   -2.4226    0.0000 C   0  0  0  0  0  0  0  0  0  0  0  0
    3.6207   -3.1657    0.0000 O   0  0  0  0  0  0  0  0  0  0  0  0
    5.2680   -2.6306    0.0000 O   0  0  0  0  0  0  0  0  0  0  0  0
    5.5770   -3.5816    0.0000 C   0  0  0  0  0  0  0  0  0  0  0  0
    4.6501   -0.7284    0.0000 N   0  3  0  0  0  0  0  0  0  0  0  0
  1  2  1  0  0  0  0
  2  3  1  0  0  0  0
  3  8  2  0  0  0  0
  3  4  1  0  0  0  0
  4  5  2  0  0  0  0
  5  6  1  0  0  0  0
  6 11  1  0  0  0  0
  6  7  2  0  0  0  0
  7  8  1  0  0  0  0
  7  9  1  0  0  0  0
  9 10  2  0  0  0  0
 10 11  1  0  0  0  0
  9 12  1  0  0  0  0
 12 13  1  0  0  0  0
 13 14  1  0  0  0  0
 14 15  2  0  0  0  0
 14 16  1  0  0  0  0
 16 17  1  0  0  0  0
 13 18  1  0  0  0  0
M  CHG  1  18   1
M  END
$$$$
s_270062____13025552____8147258
  -OEChem-03222016482D

 18 19  0     0  0  0  0  0  0999 V2000
    0.0012   -1.9973    0.0000 C   0  0  0  0  0  0  0  0  0  0  0  0
    0.8675   -1.4978    0.0000 O   0  0  0  0  0  0  0  0  0  0  0  0
    0.8680   -0.4978    0.0000 C   0  0  0  0  0  0  0  0  0  0  0  0
    0.0000    0.0000    0.0000 C   0  0  0  0  0  0  0  0  0  0  0  0
   -0.0000    1.0058    0.0000 C   0  0  0  0  0  0  0  0  0  0  0  0
    0.8680    1.5138    0.0000 C   0  0  0  0  0  0  0  0  0  0  0  0
    1.7360    1.0058    0.0000 C   0  0  0  0  0  0  0  0  0  0  0  0
    1.7360   -0.0012    0.0000 C   0  0  0  0  0  0  0  0  0  0  0  0
    2.6938   -0.3125    0.0000 C   0  0  0  0  0  0  0  0  0  0  0  0
    3.2858    0.5023    0.0000 C   0  0  0  0  0  0  0  0  0  0  0  0
    2.6938    1.3169    0.0000 N   0  0  0  0  0  0  0  0  0  0  0  0
    3.0028   -1.2636    0.0000 C   0  0  0  0  0  0  0  0  0  0  0  0
    3.9809   -1.4715    0.0000 C   0  0  0  0  0  0  0  0  0  0  0  0
    4.2899   -2.4226    0.0000 N   0  0  0  0  0  0  0  0  0  0  0  0
    5.2680   -2.6306    0.0000 C   0  0  0  0  0  0  0  0  0  0  0  0
    5.9372   -1.8874    0.0000 O   0  0  0  0  0  0  0  0  0  0  0  0
    5.5770   -3.5816    0.0000 C   0  0  0  0  0  0  0  0  0  0  0  0
    6.5551   -3.7896    0.0000 Cl  0  0  0  0  0  0  0  0  0  0  0  0
  1  2  1  0  0  0  0
  2  3  1  0  0  0  0
  3  8  2  0  0  0  0
  3  4  1  0  0  0  0
  4  5  2  0  0  0  0
  5  6  1  0  0  0  0
  6  7  2  0  0  0  0
  7 11  1  0  0  0  0
  7  8  1  0  0  0  0
  8  9  1  0  0  0  0
  9 10  2  0  0  0  0
 10 11  1  0  0  0  0
  9 12  1  0  0  0  0
 12 13  1  0  0  0  0
 13 14  1  0  0  0  0
 14 15  1  0  0  0  0
 15 16  2  0  0  0  0
 15 17  1  0  0  0  0
 17 18  1  0  0  0  0
M  END
$$$$
s_22____2228922____59039
  -OEChem-03222016482D

 18 19  0     0  0  0  0  0  0999 V2000
    6.8641   -4.7407    0.0000 C   0  0  0  0  0  0  0  0  0  0  0  0
    6.5551   -3.7896    0.0000 O   0  0  0  0  0  0  0  0  0  0  0  0
    5.5770   -3.5816    0.0000 C   0  0  0  0  0  0  0  0  0  0  0  0
    5.2680   -2.6306    0.0000 C   0  0  0  0  0  0  0  0  0  0  0  0
    5.9372   -1.8874    0.0000 O   0  0  0  0  0  0  0  0  0  0  0  0
    4.2899   -2.4226    0.0000 N   0  0  0  0  0  0  0  0  0  0  0  0
    3.9809   -1.4715    0.0000 C   0  0  0  0  0  0  0  0  0  0  0  0
    3.0028   -1.2636    0.0000 C   0  0  0  0  0  0  0  0  0  0  0  0
    2.6938   -0.3125    0.0000 C   0  0  0  0  0  0  0  0  0  0  0  0
    3.2858    0.5023    0.0000 C   0  0  0  0  0  0  0  0  0  0  0  0
    2.6938    1.3169    0.0000 N   0  0  0  0  0  0  0  0  0  0  0  0
    1.7360    1.0058    0.0000 C   0  0  0  0  0  0  0  0  0  0  0  0
    1.7360   -0.0012    0.0000 C   0  0  0  0  0  0  0  0  0  0  0  0
    0.8680   -0.4978    0.0000 C   0  0  0  0  0  0  0  0  0  0  0  0
    0.0000    0.0000    0.0000 C   0  0  0  0  0  0  0  0  0  0  0  0
   -0.0000    1.0058    0.0000 C   0  0  0  0  0  0  0  0  0  0  0  0
    0.8680    1.5138    0.0000 C   0  0  0  0  0  0  0  0  0  0  0  0
   -0.8675    1.5032    0.0000 Cl  0  0  0  0  0  0  0  0  0  0  0  0
  1  2  1  0  0  0  0
  2  3  1  0  0  0  0
  3  4  1  0  0  0  0
  4  5  2  0  0  0  0
  4  6  1  0  0  0  0
  6  7  1  0  0  0  0
  7  8  1  0  0  0  0
  8  9  1  0  0  0  0
  9 13  1  0  0  0  0
  9 10  2  0  0  0  0
 10 11  1  0  0  0  0
 11 12  1  0  0  0  0
 12 17  2  0  0  0  0
 12 13  1  0  0  0  0
 13 14  2  0  0  0  0
 14 15  1  0  0  0  0
 15 16  2  0  0  0  0
 16 17  1  0  0  0  0
 16 18  1  0  0  0  0
M  END
$$$$
s_22____13978824____16520644
  -OEChem-03222016482D

 21 22  0     1  0  0  0  0  0999 V2000
    0.6351   -5.1871    0.0000 C   0  0  0  0  0  0  0  0  0  0  0  0
    1.6132   -5.3951    0.0000 C   0  0  3  0  0  0  0  0  0  0  0  0
    2.2824   -4.6519    0.0000 C   0  0  0  0  0  0  0  0  0  0  0  0
    1.9734   -3.7009    0.0000 C   0  0  0  0  0  0  0  0  0  0  0  0
    0.9953   -3.4929    0.0000 O   0  0  0  0  0  0  0  0  0  0  0  0
    2.6426   -2.9578    0.0000 N   0  0  0  0  0  0  0  0  0  0  0  0
    2.3336   -2.0067    0.0000 C   0  0  0  0  0  0  0  0  0  0  0  0
    3.0028   -1.2636    0.0000 C   0  0  0  0  0  0  0  0  0  0  0  0
    2.6938   -0.3125    0.0000 C   0  0  0  0  0  0  0  0  0  0  0  0
    3.2858    0.5023    0.0000 C   0  0  0  0  0  0  0  0  0  0  0  0
    2.6938    1.3169    0.0000 N   0  0  0  0  0  0  0  0  0  0  0  0
    1.7360    1.0058    0.0000 C   0  0  0  0  0  0  0  0  0  0  0  0
    1.7360   -0.0012    0.0000 C   0  0  0  0  0  0  0  0  0  0  0  0
    0.8680   -0.4978    0.0000 C   0  0  0  0  0  0  0  0  0  0  0  0
    0.0000    0.0000    0.0000 C   0  0  0  0  0  0  0  0  0  0  0  0
   -0.0000    1.0058    0.0000 C   0  0  0  0  0  0  0  0  0  0  0  0
    0.8680    1.5138    0.0000 C   0  0  0  0  0  0  0  0  0  0  0  0
   -0.8675    1.5032    0.0000 O   0  0  0  0  0  0  0  0  0  0  0  0
   -1.7320    1.0007    0.0000 C   0  0  0  0  0  0  0  0  0  0  0  0
    1.9222   -6.3461    0.0000 C   0  0  0  0  0  0  0  0  0  0  0  0
    1.2530   -7.0892    0.0000 C   0  0  0  0  0  0  0  0  0  0  0  0
  1  2  1  0  0  0  0
  2  3  1  0  0  0  0
  3  4  1  0  0  0  0
  4  5  2  0  0  0  0
  4  6  1  0  0  0  0
  6  7  1  0  0  0  0
  7  8  1  0  0  0  0
  8  9  1  0  0  0  0
  9 13  1  0  0  0  0
  9 10  2  0  0  0  0
 10 11  1  0  0  0  0
 11 12  1  0  0  0  0
 12 17  2  0  0  0  0
 12 13  1  0  0  0  0
 13 14  2  0  0  0  0
 14 15  1  0  0  0  0
 15 16  2  0  0  0  0
 16 17  1  0  0  0  0
 16 18  1  0  0  0  0
 18 19  1  0  0  0  0
  2 20  1  0  0  0  0
 20 21  2  0  0  0  0
M  END
$$$$
s_272164____14971778____17348112
  -OEChem-03222016482D

 22 23  0     1  0  0  0  0  0999 V2000
    3.9809   -1.4715    0.0000 C   0  0  0  0  0  0  0  0  0  0  0  0
    3.0028   -1.2636    0.0000 C   0  0  3  0  0  0  0  0  0  0  0  0
    2.3336   -2.0067    0.0000 C   0  0  0  0  0  0  0  0  0  0  0  0
    2.6426   -2.9578    0.0000 N   0  0  0  0  0  0  0  0  0  0  0  0
    1.9734   -3.7009    0.0000 C   0  0  0  0  0  0  0  0  0  0  0  0
    0.9953   -3.4929    0.0000 O   0  0  0  0  0  0  0  0  0  0  0  0
    2.2824   -4.6519    0.0000 N   0  0  0  0  0  0  0  0  0  0  0  0
    3.2605   -4.8599    0.0000 C   0  0  0  0  0  0  0  0  0  0  0  0
    1.6132   -5.3951    0.0000 C   0  0  0  0  0  0  0  0  0  0  0  0
    1.9222   -6.3461    0.0000 C   0  0  0  0  0  0  0  0  0  0  0  0
    2.2312   -7.2972    0.0000 C   0  0  0  0  0  0  0  0  0  0  0  0
    2.6938   -0.3125    0.0000 C   0  0  0  0  0  0  0  0  0  0  0  0
    3.2858    0.5023    0.0000 C   0  0  0  0  0  0  0  0  0  0  0  0
    2.6938    1.3169    0.0000 N   0  0  0  0  0  0  0  0  0  0  0  0
    1.7360    1.0058    0.0000 C   0  0  0  0  0  0  0  0  0  0  0  0
    1.7360   -0.0012    0.0000 C   0  0  0  0  0  0  0  0  0  0  0  0
    0.8680   -0.4978    0.0000 C   0  0  0  0  0  0  0  0  0  0  0  0
    0.0000    0.0000    0.0000 C   0  0  0  0  0  0  0  0  0  0  0  0
   -0.0000    1.0058    0.0000 C   0  0  0  0  0  0  0  0  0  0  0  0
    0.8680    1.5138    0.0000 C   0  0  0  0  0  0  0  0  0  0  0  0
   -0.8653   -0.5013    0.0000 O   0  0  0  0  0  0  0  0  0  0  0  0
   -0.8639   -1.5013    0.0000 C   0  0  0  0  0  0  0  0  0  0  0  0
  1  2  1  0  0  0  0
  2  3  1  0  0  0  0
  3  4  1  0  0  0  0
  4  5  1  0  0  0  0
  5  6  2  0  0  0  0
  5  7  1  0  0  0  0
  7  8  1  0  0  0  0
  7  9  1  0  0  0  0
  9 10  1  0  0  0  0
 10 11  3  0  0  0  0
  2 12  1  0  0  0  0
 12 16  1  0  0  0  0
 12 13  2  0  0  0  0
 13 14  1  0  0  0  0
 14 15  1  0  0  0  0
 15 20  2  0  0  0  0
 15 16  1  0  0  0  0
 16 17  2  0  0  0  0
 17 18  1  0  0  0  0
 18 19  2  0  0  0  0
 19 20  1  0  0  0  0
 18 21  1  0  0  0  0
 21 22  1  0  0  0  0
M  END
$$$$
s_512____158555____15506628
  -OEChem-03222016482D

 20 21  0     0  0  0  0  0  0999 V2000
    1.7340    3.0138    0.0000 C   0  0  0  0  0  0  0  0  0  0  0  0
    0.8680    2.5138    0.0000 O   0  0  0  0  0  0  0  0  0  0  0  0
    0.8680    1.5138    0.0000 C   0  0  0  0  0  0  0  0  0  0  0  0
    0.0000    1.0058    0.0000 C   0  0  0  0  0  0  0  0  0  0  0  0
    0.0000    0.0000    0.0000 C   0  0  0  0  0  0  0  0  0  0  0  0
    0.8680   -0.4978    0.0000 C   0  0  0  0  0  0  0  0  0  0  0  0
    1.7360   -0.0012    0.0000 C   0  0  0  0  0  0  0  0  0  0  0  0
    1.7360    1.0058    0.0000 C   0  0  0  0  0  0  0  0  0  0  0  0
    2.6938    1.3169    0.0000 N   0  0  0  0  0  0  0  0  0  0  0  0
    3.2858    0.5023    0.0000 C   0  0  0  0  0  0  0  0  0  0  0  0
    2.6938   -0.3125    0.0000 C   0  0  0  0  0  0  0  0  0  0  0  0
    3.0028   -1.2636    0.0000 C   0  0  0  0  0  0  0  0  0  0  0  0
    3.9809   -1.4715    0.0000 C   0  0  0  0  0  0  0  0  0  0  0  0
    4.2899   -2.4226    0.0000 N   0  0  0  0  0  0  0  0  0  0  0  0
    5.2680   -2.6306    0.0000 C   0  0  0  0  0  0  0  0  0  0  0  0
    5.9372   -1.8874    0.0000 O   0  0  0  0  0  0  0  0  0  0  0  0
    5.5770   -3.5816    0.0000 N   0  0  0  0  0  0  0  0  0  0  0  0
    6.5551   -3.7896    0.0000 C   0  0  0  0  0  0  0  0  0  0  0  0
    6.8641   -4.7407    0.0000 C   0  0  0  0  0  0  0  0  0  0  0  0
    7.8422   -4.9486    0.0000 C   0  0  0  0  0  0  0  0  0  0  0  0
  1  2  1  0  0  0  0
  2  3  1  0  0  0  0
  3  8  2  0  0  0  0
  3  4  1  0  0  0  0
  4  5  2  0  0  0  0
  5  6  1  0  0  0  0
  6  7  2  0  0  0  0
  7 11  1  0  0  0  0
  7  8  1  0  0  0  0
  8  9  1  0  0  0  0
  9 10  1  0  0  0  0
 10 11  2  0  0  0  0
 11 12  1  0  0  0  0
 12 13  1  0  0  0  0
 13 14  1  0  0  0  0
 14 15  1  0  0  0  0
 15 16  2  0  0  0  0
 15 17  1  0  0  0  0
 17 18  1  0  0  0  0
 18 19  1  0  0  0  0
 19 20  2  0  0  0  0
M  END
$$$$
s_240690b____13025580____7368688
  -OEChem-03222016482D

 21 22  0     0  0  0  0  0  0999 V2000
    6.3472   -4.7677    0.0000 C   0  0  0  0  0  0  0  0  0  0  0  0
    6.5551   -3.7896    0.0000 C   0  0  0  0  0  0  0  0  0  0  0  0
    7.5333   -3.9976    0.0000 C   0  0  0  0  0  0  0  0  0  0  0  0
    5.5770   -3.5816    0.0000 C   0  0  0  0  0  0  0  0  0  0  0  0
    5.2680   -2.6306    0.0000 C   0  0  0  0  0  0  0  0  0  0  0  0
    5.9372   -1.8874    0.0000 O   0  0  0  0  0  0  0  0  0  0  0  0
    4.2899   -2.4226    0.0000 N   0  0  0  0  0  0  0  0  0  0  0  0
    3.9809   -1.4715    0.0000 C   0  0  0  0  0  0  0  0  0  0  0  0
    3.0028   -1.2636    0.0000 C   0  0  0  0  0  0  0  0  0  0  0  0
    2.6938   -0.3125    0.0000 C   0  0  0  0  0  0  0  0  0  0  0  0
    3.2858    0.5023    0.0000 C   0  0  0  0  0  0  0  0  0  0  0  0
    2.6938    1.3169    0.0000 N   0  0  0  0  0  0  0  0  0  0  0  0
    1.7360    1.0058    0.0000 C   0  0  0  0  0  0  0  0  0  0  0  0
    1.7360   -0.0012    0.0000 C   0  0  0  0  0  0  0  0  0  0  0  0
    0.8680   -0.4978    0.0000 C   0  0  0  0  0  0  0  0  0  0  0  0
    0.0000    0.0000    0.0000 C   0  0  0  0  0  0  0  0  0  0  0  0
   -0.0000    1.0058    0.0000 C   0  0  0  0  0  0  0  0  0  0  0  0
    0.8680    1.5138    0.0000 C   0  0  0  0  0  0  0  0  0  0  0  0
    0.8675   -1.4978    0.0000 O   0  0  0  0  0  0  0  0  0  0  0  0
    1.7332   -1.9983    0.0000 C   0  0  0  0  0  0  0  0  0  0  0  0
    6.7631   -2.8115    0.0000 N   0  3  0  0  0  0  0  0  0  0  0  0
  1  2  1  0  0  0  0
  2  3  1  0  0  0  0
  2  4  1  0  0  0  0
  4  5  1  0  0  0  0
  5  6  2  0  0  0  0
  5  7  1  0  0  0  0
  7  8  1  0  0  0  0
  8  9  1  0  0  0  0
  9 10  1  0  0  0  0
 10 14  1  0  0  0  0
 10 11  2  0  0  0  0
 11 12  1  0  0  0  0
 12 13  1  0  0  0  0
 13 18  2  0  0  0  0
 13 14  1  0  0  0  0
 14 15  2  0  0  0  0
 15 16  1  0  0  0  0
 16 17  2  0  0  0  0
 17 18  1  0  0  0  0
 15 19  1  0  0  0  0
 19 20  1  0  0  0  0
  2 21  1  0  0  0  0
M  CHG  1  21   1
M  END
$$$$
s_22____2366540____7941096
  -OEChem-03222016482D

 18 19  0     1  0  0  0  0  0999 V2000
    4.9078   -4.3247    0.0000 C   0  0  0  0  0  0  0  0  0  0  0  0
    5.5770   -3.5816    0.0000 C   0  0  3  0  0  0  0  0  0  0  0  0
    5.2680   -2.6306    0.0000 C   0  0  0  0  0  0  0  0  0  0  0  0
    5.9372   -1.8874    0.0000 O   0  0  0  0  0  0  0  0  0  0  0  0
    4.2899   -2.4226    0.0000 N   0  0  0  0  0  0  0  0  0  0  0  0
    3.9809   -1.4715    0.0000 C   0  0  0  0  0  0  0  0  0  0  0  0
    3.0028   -1.2636    0.0000 C   0  0  0  0  0  0  0  0  0  0  0  0
    2.6938   -0.3125    0.0000 C   0  0  0  0  0  0  0  0  0  0  0  0
    3.2858    0.5023    0.0000 C   0  0  0  0  0  0  0  0  0  0  0  0
    2.6938    1.3169    0.0000 N   0  0  0  0  0  0  0  0  0  0  0  0
    1.7360    1.0058    0.0000 C   0  0  0  0  0  0  0  0  0  0  0  0
    1.7360   -0.0012    0.0000 C   0  0  0  0  0  0  0  0  0  0  0  0
    0.8680   -0.4978    0.0000 C   0  0  0  0  0  0  0  0  0  0  0  0
    0.0000    0.0000    0.0000 C   0  0  0  0  0  0  0  0  0  0  0  0
   -0.0000    1.0058    0.0000 C   0  0  0  0  0  0  0  0  0  0  0  0
    0.8680    1.5138    0.0000 C   0  0  0  0  0  0  0  0  0  0  0  0
   -0.8675    1.5032    0.0000 F   0  0  0  0  0  0  0  0  0  0  0  0
    6.5551   -3.7896    0.0000 O   0  0  0  0  0  0  0  0  0  0  0  0
  1  2  1  0  0  0  0
  2  3  1  0  0  0  0
  3  4  2  0  0  0  0
  3  5  1  0  0  0  0
  5  6  1  0  0  0  0
  6  7  1  0  0  0  0
  7  8  1  0  0  0  0
  8 12  1  0  0  0  0
  8  9  2  0  0  0  0
  9 10  1  0  0  0  0
 10 11  1  0  0  0  0
 11 16  2  0  0  0  0
 11 12  1  0  0  0  0
 12 13  2  0  0  0  0
 13 14  1  0  0  0  0
 14 15  2  0  0  0  0
 15 16  1  0  0  0  0
 15 17  1  0  0  0  0
  2 18  1  0  0  0  0
M  END
$$$$
s_22____4839448____592954
  -OEChem-03222016482D

 20 22  0     0  0  0  0  0  0999 V2000
   -1.7320   -0.0025    0.0000 C   0  0  0  0  0  0  0  0  0  0  0  0
   -0.8653   -0.5013    0.0000 O   0  0  0  0  0  0  0  0  0  0  0  0
    0.0000    0.0000    0.0000 C   0  0  0  0  0  0  0  0  0  0  0  0
   -0.0000    1.0058    0.0000 C   0  0  0  0  0  0  0  0  0  0  0  0
    0.8680    1.5138    0.0000 C   0  0  0  0  0  0  0  0  0  0  0  0
    1.7360    1.0058    0.0000 C   0  0  0  0  0  0  0  0  0  0  0  0
    1.7360   -0.0012    0.0000 C   0  0  0  0  0  0  0  0  0  0  0  0
    0.8680   -0.4978    0.0000 C   0  0  0  0  0  0  0  0  0  0  0  0
    2.6938   -0.3125    0.0000 C   0  0  0  0  0  0  0  0  0  0  0  0
    3.2858    0.5023    0.0000 C   0  0  0  0  0  0  0  0  0  0  0  0
    2.6938    1.3169    0.0000 N   0  0  0  0  0  0  0  0  0  0  0  0
    3.0028   -1.2636    0.0000 C   0  0  0  0  0  0  0  0  0  0  0  0
    3.9809   -1.4715    0.0000 C   0  0  0  0  0  0  0  0  0  0  0  0
    4.2899   -2.4226    0.0000 N   0  0  0  0  0  0  0  0  0  0  0  0
    5.2680   -2.6306    0.0000 C   0  0  0  0  0  0  0  0  0  0  0  0
    5.9372   -1.8874    0.0000 O   0  0  0  0  0  0  0  0  0  0  0  0
    5.5770   -3.5816    0.0000 C   0  0  0  0  0  0  0  0  0  0  0  0
    6.5551   -3.7896    0.0000 C   0  0  0  0  0  0  0  0  0  0  0  0
    7.3004   -4.4592    0.0000 C   0  0  0  0  0  0  0  0  0  0  0  0
    7.5083   -3.4811    0.0000 C   0  0  0  0  0  0  0  0  0  0  0  0
  1  2  1  0  0  0  0
  2  3  1  0  0  0  0
  3  8  2  0  0  0  0
  3  4  1  0  0  0  0
  4  5  2  0  0  0  0
  5  6  1  0  0  0  0
  6 11  1  0  0  0  0
  6  7  2  0  0  0  0
  7  8  1  0  0  0  0
  7  9  1  0  0  0  0
  9 10  2  0  0  0  0
 10 11  1  0  0  0  0
  9 12  1  0  0  0  0
 12 13  1  0  0  0  0
 13 14  1  0  0  0  0
 14 15  1  0  0  0  0
 15 16  2  0  0  0  0
 15 17  1  0  0  0  0
 17 18  1  0  0  0  0
 18 20  1  0  0  0  0
 18 19  1  0  0  0  0
 19 20  1  0  0  0  0
M  END
$$$$
s_22____13025516____7941800
  -OEChem-03222016482D

 18 19  0     0  0  0  0  0  0999 V2000
    0.0012   -1.9973    0.0000 C   0  0  0  0  0  0  0  0  0  0  0  0
    0.8675   -1.4978    0.0000 O   0  0  0  0  0  0  0  0  0  0  0  0
    0.8680   -0.4978    0.0000 C   0  0  0  0  0  0  0  0  0  0  0  0
    0.0000    0.0000    0.0000 C   0  0  0  0  0  0  0  0  0  0  0  0
   -0.0000    1.0058    0.0000 C   0  0  0  0  0  0  0  0  0  0  0  0
    0.8680    1.5138    0.0000 C   0  0  0  0  0  0  0  0  0  0  0  0
    1.7360    1.0058    0.0000 C   0  0  0  0  0  0  0  0  0  0  0  0
    1.7360   -0.0012    0.0000 C   0  0  0  0  0  0  0  0  0  0  0  0
    2.6938   -0.3125    0.0000 C   0  0  0  0  0  0  0  0  0  0  0  0
    3.2858    0.5023    0.0000 C   0  0  0  0  0  0  0  0  0  0  0  0
    2.6938    1.3169    0.0000 N   0  0  0  0  0  0  0  0  0  0  0  0
    3.0028   -1.2636    0.0000 C   0  0  0  0  0  0  0  0  0  0  0  0
    3.9809   -1.4715    0.0000 C   0  0  0  0  0  0  0  0  0  0  0  0
    4.2899   -2.4226    0.0000 N   0  0  0  0  0  0  0  0  0  0  0  0
    5.2680   -2.6306    0.0000 C   0  0  0  0  0  0  0  0  0  0  0  0
    5.9372   -1.8874    0.0000 O   0  0  0  0  0  0  0  0  0  0  0  0
    5.5770   -3.5816    0.0000 C   0  0  0  0  0  0  0  0  0  0  0  0
    6.5551   -3.7896    0.0000 O   0  0  0  0  0  0  0  0  0  0  0  0
  1  2  1  0  0  0  0
  2  3  1  0  0  0  0
  3  8  2  0  0  0  0
  3  4  1  0  0  0  0
  4  5  2  0  0  0  0
  5  6  1  0  0  0  0
  6  7  2  0  0  0  0
  7 11  1  0  0  0  0
  7  8  1  0  0  0  0
  8  9  1  0  0  0  0
  9 10  2  0  0  0  0
 10 11  1  0  0  0  0
  9 12  1  0  0  0  0
 12 13  1  0  0  0  0
 13 14  1  0  0  0  0
 14 15  1  0  0  0  0
 15 16  2  0  0  0  0
 15 17  1  0  0  0  0
 17 18  1  0  0  0  0
M  END
$$$$
s_270062____12854466____15585492
  -OEChem-03222016482D

 17 18  0     0  0  0  0  0  0999 V2000
    4.2858    0.5024    0.0000 C   0  0  0  0  0  0  0  0  0  0  0  0
    3.2858    0.5023    0.0000 C   0  0  0  0  0  0  0  0  0  0  0  0
    2.6938   -0.3125    0.0000 C   0  0  0  0  0  0  0  0  0  0  0  0
    1.7360   -0.0012    0.0000 C   0  0  0  0  0  0  0  0  0  0  0  0
    0.8680   -0.4978    0.0000 C   0  0  0  0  0  0  0  0  0  0  0  0
    0.0000    0.0000    0.0000 C   0  0  0  0  0  0  0  0  0  0  0  0
    0.0000    1.0058    0.0000 C   0  0  0  0  0  0  0  0  0  0  0  0
    0.8680    1.5138    0.0000 C   0  0  0  0  0  0  0  0  0  0  0  0
    1.7360    1.0058    0.0000 C   0  0  0  0  0  0  0  0  0  0  0  0
    2.6938    1.3169    0.0000 N   0  0  0  0  0  0  0  0  0  0  0  0
   -0.8675    1.5032    0.0000 F   0  0  0  0  0  0  0  0  0  0  0  0
    3.0028   -1.2636    0.0000 C   0  0  0  0  0  0  0  0  0  0  0  0
    3.9809   -1.4715    0.0000 C   0  0  0  0  0  0  0  0  0  0  0  0
    4.2899   -2.4226    0.0000 N   0  0  0  0  0  0  0  0  0  0  0  0
    5.2680   -2.6306    0.0000 C   0  0  0  0  0  0  0  0  0  0  0  0
    5.9372   -1.8874    0.0000 O   0  0  0  0  0  0  0  0  0  0  0  0
    5.5770   -3.5816    0.0000 C   0  0  0  0  0  0  0  0  0  0  0  0
  1  2  1  0  0  0  0
  2 10  1  0  0  0  0
  2  3  2  0  0  0  0
  3  4  1  0  0  0  0
  4  9  2  0  0  0  0
  4  5  1  0  0  0  0
  5  6  2  0  0  0  0
  6  7  1  0  0  0  0
  7  8  2  0  0  0  0
  8  9  1  0  0  0  0
  9 10  1  0  0  0  0
  7 11  1  0  0  0  0
  3 12  1  0  0  0  0
 12 13  1  0  0  0  0
 13 14  1  0  0  0  0
 14 15  1  0  0  0  0
 15 16  2  0  0  0  0
 15 17  1  0  0  0  0
M  END
$$$$
s_22____4839448____303718
  -OEChem-03222016482D

 20 21  0     0  0  0  0  0  0999 V2000
    1.2530   -7.0892    0.0000 C   0  0  0  0  0  0  0  0  0  0  0  0
    1.9222   -6.3461    0.0000 C   0  0  0  0  0  0  0  0  0  0  0  0
    1.6132   -5.3951    0.0000 C   0  0  0  0  0  0  0  0  0  0  0  0
    2.2824   -4.6519    0.0000 C   0  0  0  0  0  0  0  0  0  0  0  0
    1.9734   -3.7009    0.0000 C   0  0  0  0  0  0  0  0  0  0  0  0
    0.9953   -3.4929    0.0000 O   0  0  0  0  0  0  0  0  0  0  0  0
    2.6426   -2.9578    0.0000 N   0  0  0  0  0  0  0  0  0  0  0  0
    2.3336   -2.0067    0.0000 C   0  0  0  0  0  0  0  0  0  0  0  0
    3.0028   -1.2636    0.0000 C   0  0  0  0  0  0  0  0  0  0  0  0
    2.6938   -0.3125    0.0000 C   0  0  0  0  0  0  0  0  0  0  0  0
    3.2858    0.5023    0.0000 C   0  0  0  0  0  0  0  0  0  0  0  0
    2.6938    1.3169    0.0000 N   0  0  0  0  0  0  0  0  0  0  0  0
    1.7360    1.0058    0.0000 C   0  0  0  0  0  0  0  0  0  0  0  0
    1.7360   -0.0012    0.0000 C   0  0  0  0  0  0  0  0  0  0  0  0
    0.8680   -0.4978    0.0000 C   0  0  0  0  0  0  0  0  0  0  0  0
    0.0000    0.0000    0.0000 C   0  0  0  0  0  0  0  0  0  0  0  0
   -0.0000    1.0058    0.0000 C   0  0  0  0  0  0  0  0  0  0  0  0
    0.8680    1.5138    0.0000 C   0  0  0  0  0  0  0  0  0  0  0  0
   -0.8653   -0.5013    0.0000 O   0  0  0  0  0  0  0  0  0  0  0  0
   -0.8639   -1.5013    0.0000 C   0  0  0  0  0  0  0  0  0  0  0  0
  1  2  1  0  0  0  0
  2  3  1  0  0  0  0
  3  4  1  0  0  0  0
  4  5  1  0  0  0  0
  5  6  2  0  0  0  0
  5  7  1  0  0  0  0
  7  8  1  0  0  0  0
  8  9  1  0  0  0  0
  9 10  1  0  0  0  0
 10 14  1  0  0  0  0
 10 11  2  0  0  0  0
 11 12  1  0  0  0  0
 12 13  1  0  0  0  0
 13 18  2  0  0  0  0
 13 14  1  0  0  0  0
 14 15  2  0  0  0  0
 15 16  1  0  0  0  0
 16 17  2  0  0  0  0
 17 18  1  0  0  0  0
 16 19  1  0  0  0  0
 19 20  1  0  0  0  0
M  END
$$$$
s_22____9226532____9477924
  -OEChem-03222016482D

 22 23  0     0  0  0  0  0  0999 V2000
    1.7327   -2.9983    0.0000 C   0  0  0  0  0  0  0  0  0  0  0  0
    1.7332   -1.9983    0.0000 C   0  0  0  0  0  0  0  0  0  0  0  0
    0.8675   -1.4978    0.0000 O   0  0  0  0  0  0  0  0  0  0  0  0
    0.8680   -0.4978    0.0000 C   0  0  0  0  0  0  0  0  0  0  0  0
    0.0000    0.0000    0.0000 C   0  0  0  0  0  0  0  0  0  0  0  0
   -0.0000    1.0058    0.0000 C   0  0  0  0  0  0  0  0  0  0  0  0
    0.8680    1.5138    0.0000 C   0  0  0  0  0  0  0  0  0  0  0  0
    1.7360    1.0058    0.0000 C   0  0  0  0  0  0  0  0  0  0  0  0
    1.7360   -0.0012    0.0000 C   0  0  0  0  0  0  0  0  0  0  0  0
    2.6938   -0.3125    0.0000 C   0  0  0  0  0  0  0  0  0  0  0  0
    3.2858    0.5023    0.0000 C   0  0  0  0  0  0  0  0  0  0  0  0
    2.6938    1.3169    0.0000 N   0  0  0  0  0  0  0  0  0  0  0  0
    3.0028   -1.2636    0.0000 C   0  0  0  0  0  0  0  0  0  0  0  0
    3.9809   -1.4715    0.0000 C   0  0  0  0  0  0  0  0  0  0  0  0
    4.2899   -2.4226    0.0000 N   0  0  0  0  0  0  0  0  0  0  0  0
    5.2680   -2.6306    0.0000 C   0  0  0  0  0  0  0  0  0  0  0  0
    5.9372   -1.8874    0.0000 O   0  0  0  0  0  0  0  0  0  0  0  0
    5.5770   -3.5816    0.0000 C   0  0  0  0  0  0  0  0  0  0  0  0
    6.5551   -3.7896    0.0000 C   0  0  0  0  0  0  0  0  0  0  0  0
    6.7631   -2.8115    0.0000 C   0  0  0  0  0  0  0  0  0  0  0  0
    6.3472   -4.7677    0.0000 C   0  0  0  0  0  0  0  0  0  0  0  0
    7.5333   -3.9976    0.0000 O   0  0  0  0  0  0  0  0  0  0  0  0
  1  2  1  0  0  0  0
  2  3  1  0  0  0  0
  3  4  1  0  0  0  0
  4  9  2  0  0  0  0
  4  5  1  0  0  0  0
  5  6  2  0  0  0  0
  6  7  1  0  0  0  0
  7  8  2  0  0  0  0
  8 12  1  0  0  0  0
  8  9  1  0  0  0  0
  9 10  1  0  0  0  0
 10 11  2  0  0  0  0
 11 12  1  0  0  0  0
 10 13  1  0  0  0  0
 13 14  1  0  0  0  0
 14 15  1  0  0  0  0
 15 16  1  0  0  0  0
 16 17  2  0  0  0  0
 16 18  1  0  0  0  0
 18 19  1  0  0  0  0
 19 20  1  0  0  0  0
 19 21  1  0  0  0  0
 19 22  1  0  0  0  0
M  END
$$$$
s_22____16720658____58844
  -OEChem-03222016482D

 17 18  0     0  0  0  0  0  0999 V2000
   -0.8653   -0.5013    0.0000 C   0  0  0  0  0  0  0  0  0  0  0  0
    0.0000    0.0000    0.0000 C   0  0  0  0  0  0  0  0  0  0  0  0
   -0.0000    1.0058    0.0000 C   0  0  0  0  0  0  0  0  0  0  0  0
    0.8680    1.5138    0.0000 C   0  0  0  0  0  0  0  0  0  0  0  0
    1.7360    1.0058    0.0000 C   0  0  0  0  0  0  0  0  0  0  0  0
    1.7360   -0.0012    0.0000 C   0  0  0  0  0  0  0  0  0  0  0  0
    0.8680   -0.4978    0.0000 C   0  0  0  0  0  0  0  0  0  0  0  0
    2.6938   -0.3125    0.0000 C   0  0  0  0  0  0  0  0  0  0  0  0
    3.2858    0.5023    0.0000 C   0  0  0  0  0  0  0  0  0  0  0  0
    2.6938    1.3169    0.0000 N   0  0  0  0  0  0  0  0  0  0  0  0
    4.2858    0.5024    0.0000 C   0  0  0  0  0  0  0  0  0  0  0  0
    3.0028   -1.2636    0.0000 C   0  0  0  0  0  0  0  0  0  0  0  0
    3.9809   -1.4715    0.0000 C   0  0  0  0  0  0  0  0  0  0  0  0
    4.2899   -2.4226    0.0000 N   0  0  0  0  0  0  0  0  0  0  0  0
    5.2680   -2.6306    0.0000 C   0  0  0  0  0  0  0  0  0  0  0  0
    5.9372   -1.8874    0.0000 O   0  0  0  0  0  0  0  0  0  0  0  0
    5.5770   -3.5816    0.0000 C   0  0  0  0  0  0  0  0  0  0  0  0
  1  2  1  0  0  0  0
  2  7  2  0  0  0  0
  2  3  1  0  0  0  0
  3  4  2  0  0  0  0
  4  5  1  0  0  0  0
  5 10  1  0  0  0  0
  5  6  2  0  0  0  0
  6  7  1  0  0  0  0
  6  8  1  0  0  0  0
  8  9  2  0  0  0  0
  9 10  1  0  0  0  0
  9 11  1  0  0  0  0
  8 12  1  0  0  0  0
 12 13  1  0  0  0  0
 13 14  1  0  0  0  0
 14 15  1  0  0  0  0
 15 16  2  0  0  0  0
 15 17  1  0  0  0  0
M  END
$$$$
s_22____4839448____294126
  -OEChem-03222016482D

 21 22  0     0  0  0  0  0  0999 V2000
    0.9440   -6.1382    0.0000 C   0  0  0  0  0  0  0  0  0  0  0  0
    1.6132   -5.3951    0.0000 C   0  0  0  0  0  0  0  0  0  0  0  0
    0.8701   -4.7259    0.0000 C   0  0  0  0  0  0  0  0  0  0  0  0
    2.3563   -6.0642    0.0000 C   0  0  0  0  0  0  0  0  0  0  0  0
    2.2824   -4.6519    0.0000 C   0  0  0  0  0  0  0  0  0  0  0  0
    1.9734   -3.7009    0.0000 C   0  0  0  0  0  0  0  0  0  0  0  0
    0.9953   -3.4929    0.0000 O   0  0  0  0  0  0  0  0  0  0  0  0
    2.6426   -2.9578    0.0000 N   0  0  0  0  0  0  0  0  0  0  0  0
    2.3336   -2.0067    0.0000 C   0  0  0  0  0  0  0  0  0  0  0  0
    3.0028   -1.2636    0.0000 C   0  0  0  0  0  0  0  0  0  0  0  0
    2.6938   -0.3125    0.0000 C   0  0  0  0  0  0  0  0  0  0  0  0
    3.2858    0.5023    0.0000 C   0  0  0  0  0  0  0  0  0  0  0  0
    2.6938    1.3169    0.0000 N   0  0  0  0  0  0  0  0  0  0  0  0
    1.7360    1.0058    0.0000 C   0  0  0  0  0  0  0  0  0  0  0  0
    1.7360   -0.0012    0.0000 C   0  0  0  0  0  0  0  0  0  0  0  0
    0.8680   -0.4978    0.0000 C   0  0  0  0  0  0  0  0  0  0  0  0
    0.0000    0.0000    0.0000 C   0  0  0  0  0  0  0  0  0  0  0  0
   -0.0000    1.0058    0.0000 C   0  0  0  0  0  0  0  0  0  0  0  0
    0.8680    1.5138    0.0000 C   0  0  0  0  0  0  0  0  0  0  0  0
   -0.8653   -0.5013    0.0000 O   0  0  0  0  0  0  0  0  0  0  0  0
   -0.8639   -1.5013    0.0000 C   0  0  0  0  0  0  0  0  0  0  0  0
  1  2  1  0  0  0  0
  2  3  1  0  0  0  0
  2  4  1  0  0  0  0
  2  5  1  0  0  0  0
  5  6  1  0  0  0  0
  6  7  2  0  0  0  0
  6  8  1  0  0  0  0
  8  9  1  0  0  0  0
  9 10  1  0  0  0  0
 10 11  1  0  0  0  0
 11 15  1  0  0  0  0
 11 12  2  0  0  0  0
 12 13  1  0  0  0  0
 13 14  1  0  0  0  0
 14 19  2  0  0  0  0
 14 15  1  0  0  0  0
 15 16  2  0  0  0  0
 16 17  1  0  0  0  0
 17 18  2  0  0  0  0
 18 19  1  0  0  0  0
 17 20  1  0  0  0  0
 20 21  1  0  0  0  0
M  END
$$$$
s_22____15754586____13756276
  -OEChem-03222016482D

 21 22  0     1  0  0  0  0  0999 V2000
    6.8641   -4.7407    0.0000 C   0  0  0  0  0  0  0  0  0  0  0  0
    6.5551   -3.7896    0.0000 C   0  0  0  0  0  0  0  0  0  0  0  0
    5.5770   -3.5816    0.0000 C   0  0  3  0  0  0  0  0  0  0  0  0
    5.2680   -2.6306    0.0000 C   0  0  0  0  0  0  0  0  0  0  0  0
    5.9372   -1.8874    0.0000 O   0  0  0  0  0  0  0  0  0  0  0  0
    4.2899   -2.4226    0.0000 N   0  0  0  0  0  0  0  0  0  0  0  0
    3.9809   -1.4715    0.0000 C   0  0  0  0  0  0  0  0  0  0  0  0
    3.0028   -1.2636    0.0000 C   0  0  3  0  0  0  0  0  0  0  0  0
    2.3336   -2.0067    0.0000 C   0  0  0  0  0  0  0  0  0  0  0  0
    2.6938   -0.3125    0.0000 C   0  0  0  0  0  0  0  0  0  0  0  0
    3.2858    0.5023    0.0000 C   0  0  0  0  0  0  0  0  0  0  0  0
    2.6938    1.3169    0.0000 N   0  0  0  0  0  0  0  0  0  0  0  0
    1.7360    1.0058    0.0000 C   0  0  0  0  0  0  0  0  0  0  0  0
    1.7360   -0.0012    0.0000 C   0  0  0  0  0  0  0  0  0  0  0  0
    0.8680   -0.4978    0.0000 C   0  0  0  0  0  0  0  0  0  0  0  0
    0.0000    0.0000    0.0000 C   0  0  0  0  0  0  0  0  0  0  0  0
   -0.0000    1.0058    0.0000 C   0  0  0  0  0  0  0  0  0  0  0  0
    0.8680    1.5138    0.0000 C   0  0  0  0  0  0  0  0  0  0  0  0
   -0.8653   -0.5013    0.0000 O   0  0  0  0  0  0  0  0  0  0  0  0
   -0.8639   -1.5013    0.0000 C   0  0  0  0  0  0  0  0  0  0  0  0
    4.9078   -4.3247    0.0000 F   0  0  0  0  0  0  0  0  0  0  0  0
  1  2  1  0  0  0  0
  2  3  1  0  0  0  0
  3  4  1  0  0  0  0
  4  5  2  0  0  0  0
  4  6  1  0  0  0  0
  6  7  1  0  0  0  0
  7  8  1  0  0  0  0
  8  9  1  0  0  0  0
  8 10  1  0  0  0  0
 10 14  1  0  0  0  0
 10 11  2  0  0  0  0
 11 12  1  0  0  0  0
 12 13  1  0  0  0  0
 13 18  2  0  0  0  0
 13 14  1  0  0  0  0
 14 15  2  0  0  0  0
 15 16  1  0  0  0  0
 16 17  2  0  0  0  0
 17 18  1  0  0  0  0
 16 19  1  0  0  0  0
 19 20  1  0  0  0  0
  3 21  1  0  0  0  0
M  END
$$$$
s_22____15506616____16520644
  -OEChem-03222016482D

 21 22  0     1  0  0  0  0  0999 V2000
    0.6351   -5.1871    0.0000 C   0  0  0  0  0  0  0  0  0  0  0  0
    1.6132   -5.3951    0.0000 C   0  0  3  0  0  0  0  0  0  0  0  0
    2.2824   -4.6519    0.0000 C   0  0  0  0  0  0  0  0  0  0  0  0
    1.9734   -3.7009    0.0000 C   0  0  0  0  0  0  0  0  0  0  0  0
    0.9953   -3.4929    0.0000 O   0  0  0  0  0  0  0  0  0  0  0  0
    2.6426   -2.9578    0.0000 N   0  0  0  0  0  0  0  0  0  0  0  0
    2.3336   -2.0067    0.0000 C   0  0  0  0  0  0  0  0  0  0  0  0
    3.0028   -1.2636    0.0000 C   0  0  0  0  0  0  0  0  0  0  0  0
    2.6938   -0.3125    0.0000 C   0  0  0  0  0  0  0  0  0  0  0  0
    3.2858    0.5023    0.0000 C   0  0  0  0  0  0  0  0  0  0  0  0
    2.6938    1.3169    0.0000 N   0  0  0  0  0  0  0  0  0  0  0  0
    1.7360    1.0058    0.0000 C   0  0  0  0  0  0  0  0  0  0  0  0
    1.7360   -0.0012    0.0000 C   0  0  0  0  0  0  0  0  0  0  0  0
    0.8680   -0.4978    0.0000 C   0  0  0  0  0  0  0  0  0  0  0  0
    0.0000    0.0000    0.0000 C   0  0  0  0  0  0  0  0  0  0  0  0
   -0.0000    1.0058    0.0000 C   0  0  0  0  0  0  0  0  0  0  0  0
    0.8680    1.5138    0.0000 C   0  0  0  0  0  0  0  0  0  0  0  0
    0.8680    2.5138    0.0000 O   0  0  0  0  0  0  0  0  0  0  0  0
    0.0020    3.0138    0.0000 C   0  0  0  0  0  0  0  0  0  0  0  0
    1.9222   -6.3461    0.0000 C   0  0  0  0  0  0  0  0  0  0  0  0
    1.2530   -7.0892    0.0000 C   0  0  0  0  0  0  0  0  0  0  0  0
  1  2  1  0  0  0  0
  2  3  1  0  0  0  0
  3  4  1  0  0  0  0
  4  5  2  0  0  0  0
  4  6  1  0  0  0  0
  6  7  1  0  0  0  0
  7  8  1  0  0  0  0
  8  9  1  0  0  0  0
  9 13  1  0  0  0  0
  9 10  2  0  0  0  0
 10 11  1  0  0  0  0
 11 12  1  0  0  0  0
 12 17  2  0  0  0  0
 12 13  1  0  0  0  0
 13 14  2  0  0  0  0
 14 15  1  0  0  0  0
 15 16  2  0  0  0  0
 16 17  1  0  0  0  0
 17 18  1  0  0  0  0
 18 19  1  0  0  0  0
  2 20  1  0  0  0  0
 20 21  2  0  0  0  0
M  END
$$$$
s_22____4839448____590148
  -OEChem-03222016482D

 21 22  0     0  0  0  0  0  0999 V2000
   -1.7320   -0.0025    0.0000 C   0  0  0  0  0  0  0  0  0  0  0  0
   -0.8653   -0.5013    0.0000 O   0  0  0  0  0  0  0  0  0  0  0  0
    0.0000    0.0000    0.0000 C   0  0  0  0  0  0  0  0  0  0  0  0
   -0.0000    1.0058    0.0000 C   0  0  0  0  0  0  0  0  0  0  0  0
    0.8680    1.5138    0.0000 C   0  0  0  0  0  0  0  0  0  0  0  0
    1.7360    1.0058    0.0000 C   0  0  0  0  0  0  0  0  0  0  0  0
    1.7360   -0.0012    0.0000 C   0  0  0  0  0  0  0  0  0  0  0  0
    0.8680   -0.4978    0.0000 C   0  0  0  0  0  0  0  0  0  0  0  0
    2.6938   -0.3125    0.0000 C   0  0  0  0  0  0  0  0  0  0  0  0
    3.2858    0.5023    0.0000 C   0  0  0  0  0  0  0  0  0  0  0  0
    2.6938    1.3169    0.0000 N   0  0  0  0  0  0  0  0  0  0  0  0
    3.0028   -1.2636    0.0000 C   0  0  0  0  0  0  0  0  0  0  0  0
    3.9809   -1.4715    0.0000 C   0  0  0  0  0  0  0  0  0  0  0  0
    4.2899   -2.4226    0.0000 N   0  0  0  0  0  0  0  0  0  0  0  0
    5.2680   -2.6306    0.0000 C   0  0  0  0  0  0  0  0  0  0  0  0
    5.9372   -1.8874    0.0000 O   0  0  0  0  0  0  0  0  0  0  0  0
    5.5770   -3.5816    0.0000 C   0  0  0  0  0  0  0  0  0  0  0  0
    6.5551   -3.7896    0.0000 C   0  0  0  0  0  0  0  0  0  0  0  0
    7.2243   -3.0465    0.0000 O   0  0  0  0  0  0  0  0  0  0  0  0
    6.8641   -4.7407    0.0000 O   0  0  0  0  0  0  0  0  0  0  0  0
    7.8422   -4.9486    0.0000 C   0  0  0  0  0  0  0  0  0  0  0  0
  1  2  1  0  0  0  0
  2  3  1  0  0  0  0
  3  8  2  0  0  0  0
  3  4  1  0  0  0  0
  4  5  2  0  0  0  0
  5  6  1  0  0  0  0
  6 11  1  0  0  0  0
  6  7  2  0  0  0  0
  7  8  1  0  0  0  0
  7  9  1  0  0  0  0
  9 10  2  0  0  0  0
 10 11  1  0  0  0  0
  9 12  1  0  0  0  0
 12 13  1  0  0  0  0
 13 14  1  0  0  0  0
 14 15  1  0  0  0  0
 15 16  2  0  0  0  0
 15 17  1  0  0  0  0
 17 18  1  0  0  0  0
 18 19  2  0  0  0  0
 18 20  1  0  0  0  0
 20 21  1  0  0  0  0
M  END
$$$$
s_512____214534____4839458
  -OEChem-03222016482D

 21 22  0     0  0  0  0  0  0999 V2000
    8.1512   -5.8997    0.0000 C   0  0  0  0  0  0  0  0  0  0  0  0
    7.8422   -4.9486    0.0000 C   0  0  0  0  0  0  0  0  0  0  0  0
    6.8641   -4.7407    0.0000 C   0  0  0  0  0  0  0  0  0  0  0  0
    6.5551   -3.7896    0.0000 C   0  0  0  0  0  0  0  0  0  0  0  0
    5.5770   -3.5816    0.0000 N   0  0  0  0  0  0  0  0  0  0  0  0
    5.2680   -2.6306    0.0000 C   0  0  0  0  0  0  0  0  0  0  0  0
    5.9372   -1.8874    0.0000 O   0  0  0  0  0  0  0  0  0  0  0  0
    4.2899   -2.4226    0.0000 N   0  0  0  0  0  0  0  0  0  0  0  0
    3.9809   -1.4715    0.0000 C   0  0  0  0  0  0  0  0  0  0  0  0
    3.0028   -1.2636    0.0000 C   0  0  0  0  0  0  0  0  0  0  0  0
    2.6938   -0.3125    0.0000 C   0  0  0  0  0  0  0  0  0  0  0  0
    3.2858    0.5023    0.0000 C   0  0  0  0  0  0  0  0  0  0  0  0
    2.6938    1.3169    0.0000 N   0  0  0  0  0  0  0  0  0  0  0  0
    1.7360    1.0058    0.0000 C   0  0  0  0  0  0  0  0  0  0  0  0
    1.7360   -0.0012    0.0000 C   0  0  0  0  0  0  0  0  0  0  0  0
    0.8680   -0.4978    0.0000 C   0  0  0  0  0  0  0  0  0  0  0  0
    0.0000    0.0000    0.0000 C   0  0  0  0  0  0  0  0  0  0  0  0
   -0.0000    1.0058    0.0000 C   0  0  0  0  0  0  0  0  0  0  0  0
    0.8680    1.5138    0.0000 C   0  0  0  0  0  0  0  0  0  0  0  0
   -0.8653   -0.5013    0.0000 O   0  0  0  0  0  0  0  0  0  0  0  0
   -0.8639   -1.5013    0.0000 C   0  0  0  0  0  0  0  0  0  0  0  0
  1  2  1  0  0  0  0
  2  3  1  0  0  0  0
  3  4  1  0  0  0  0
  4  5  1  0  0  0  0
  5  6  1  0  0  0  0
  6  7  2  0  0  0  0
  6  8  1  0  0  0  0
  8  9  1  0  0  0  0
  9 10  1  0  0  0  0
 10 11  1  0  0  0  0
 11 15  1  0  0  0  0
 11 12  2  0  0  0  0
 12 13  1  0  0  0  0
 13 14  1  0  0  0  0
 14 19  2  0  0  0  0
 14 15  1  0  0  0  0
 15 16  2  0  0  0  0
 16 17  1  0  0  0  0
 17 18  2  0  0  0  0
 18 19  1  0  0  0  0
 17 20  1  0  0  0  0
 20 21  1  0  0  0  0
M  END
$$$$
s_240690b____12342476____3025698
  -OEChem-03222016482D

 18 19  0     0  0  0  0  0  0999 V2000
    0.8680   -0.4978    0.0000 C   0  0  0  0  0  0  0  0  0  0  0  0
    1.7360   -0.0012    0.0000 C   0  0  0  0  0  0  0  0  0  0  0  0
    1.7360    1.0058    0.0000 C   0  0  0  0  0  0  0  0  0  0  0  0
    0.8680    1.5138    0.0000 C   0  0  0  0  0  0  0  0  0  0  0  0
    0.0000    1.0058    0.0000 C   0  0  0  0  0  0  0  0  0  0  0  0
    0.0000    0.0000    0.0000 C   0  0  0  0  0  0  0  0  0  0  0  0
   -0.8653   -0.5013    0.0000 Cl  0  0  0  0  0  0  0  0  0  0  0  0
   -0.8675    1.5032    0.0000 F   0  0  0  0  0  0  0  0  0  0  0  0
    2.6938    1.3169    0.0000 N   0  0  0  0  0  0  0  0  0  0  0  0
    3.2858    0.5023    0.0000 C   0  0  0  0  0  0  0  0  0  0  0  0
    2.6938   -0.3125    0.0000 C   0  0  0  0  0  0  0  0  0  0  0  0
    3.0028   -1.2636    0.0000 C   0  0  0  0  0  0  0  0  0  0  0  0
    3.9809   -1.4715    0.0000 C   0  0  0  0  0  0  0  0  0  0  0  0
    4.2899   -2.4226    0.0000 N   0  0  0  0  0  0  0  0  0  0  0  0
    5.2680   -2.6306    0.0000 C   0  0  0  0  0  0  0  0  0  0  0  0
    5.9372   -1.8874    0.0000 O   0  0  0  0  0  0  0  0  0  0  0  0
    5.5770   -3.5816    0.0000 C   0  0  0  0  0  0  0  0  0  0  0  0
    6.5551   -3.7896    0.0000 N   0  3  0  0  0  0  0  0  0  0  0  0
  1  6  2  0  0  0  0
  1  2  1  0  0  0  0
  2 11  1  0  0  0  0
  2  3  2  0  0  0  0
  3  4  1  0  0  0  0
  4  5  2  0  0  0  0
  5  6  1  0  0  0  0
  6  7  1  0  0  0  0
  5  8  1  0  0  0  0
  3  9  1  0  0  0  0
  9 10  1  0  0  0  0
 10 11  2  0  0  0  0
 11 12  1  0  0  0  0
 12 13  1  0  0  0  0
 13 14  1  0  0  0  0
 14 15  1  0  0  0  0
 15 16  2  0  0  0  0
 15 17  1  0  0  0  0
 17 18  1  0  0  0  0
M  CHG  1  18   1
M  END
$$$$
s_240690b____15754670____3025680
  -OEChem-03222016482D

 20 21  0     1  0  0  0  0  0999 V2000
    3.9809   -1.4715    0.0000 C   0  0  0  0  0  0  0  0  0  0  0  0
    3.0028   -1.2636    0.0000 C   0  0  3  0  0  0  0  0  0  0  0  0
    2.3336   -2.0067    0.0000 C   0  0  0  0  0  0  0  0  0  0  0  0
    2.6426   -2.9578    0.0000 N   0  0  0  0  0  0  0  0  0  0  0  0
    1.9734   -3.7009    0.0000 C   0  0  0  0  0  0  0  0  0  0  0  0
    0.9953   -3.4929    0.0000 O   0  0  0  0  0  0  0  0  0  0  0  0
    2.2824   -4.6519    0.0000 C   0  0  0  0  0  0  0  0  0  0  0  0
    1.6132   -5.3951    0.0000 C   0  0  0  0  0  0  0  0  0  0  0  0
    1.9222   -6.3461    0.0000 N   0  3  0  0  0  0  0  0  0  0  0  0
    2.6938   -0.3125    0.0000 C   0  0  0  0  0  0  0  0  0  0  0  0
    3.2858    0.5023    0.0000 C   0  0  0  0  0  0  0  0  0  0  0  0
    2.6938    1.3169    0.0000 N   0  0  0  0  0  0  0  0  0  0  0  0
    1.7360    1.0058    0.0000 C   0  0  0  0  0  0  0  0  0  0  0  0
    1.7360   -0.0012    0.0000 C   0  0  0  0  0  0  0  0  0  0  0  0
    0.8680   -0.4978    0.0000 C   0  0  0  0  0  0  0  0  0  0  0  0
    0.0000    0.0000    0.0000 C   0  0  0  0  0  0  0  0  0  0  0  0
   -0.0000    1.0058    0.0000 C   0  0  0  0  0  0  0  0  0  0  0  0
    0.8680    1.5138    0.0000 C   0  0  0  0  0  0  0  0  0  0  0  0
   -0.8653   -0.5013    0.0000 O   0  0  0  0  0  0  0  0  0  0  0  0
   -0.8639   -1.5013    0.0000 C   0  0  0  0  0  0  0  0  0  0  0  0
  1  2  1  0  0  0  0
  2  3  1  0  0  0  0
  3  4  1  0  0  0  0
  4  5  1  0  0  0  0
  5  6  2  0  0  0  0
  5  7  1  0  0  0  0
  7  8  1  0  0  0  0
  8  9  1  0  0  0  0
  2 10  1  0  0  0  0
 10 14  1  0  0  0  0
 10 11  2  0  0  0  0
 11 12  1  0  0  0  0
 12 13  1  0  0  0  0
 13 18  2  0  0  0  0
 13 14  1  0  0  0  0
 14 15  2  0  0  0  0
 15 16  1  0  0  0  0
 16 17  2  0  0  0  0
 17 18  1  0  0  0  0
 16 19  1  0  0  0  0
 19 20  1  0  0  0  0
M  CHG  1   9   1
M  END
$$$$
s_22____16900452____337030
  -OEChem-03222016482D

 18 19  0     0  0  0  0  0  0999 V2000
    6.5551   -3.7896    0.0000 C   0  0  0  0  0  0  0  0  0  0  0  0
    5.5770   -3.5816    0.0000 C   0  0  0  0  0  0  0  0  0  0  0  0
    4.9078   -4.3247    0.0000 C   0  0  0  0  0  0  0  0  0  0  0  0
    5.2680   -2.6306    0.0000 C   0  0  0  0  0  0  0  0  0  0  0  0
    5.9372   -1.8874    0.0000 O   0  0  0  0  0  0  0  0  0  0  0  0
    4.2899   -2.4226    0.0000 N   0  0  0  0  0  0  0  0  0  0  0  0
    3.9809   -1.4715    0.0000 C   0  0  0  0  0  0  0  0  0  0  0  0
    3.0028   -1.2636    0.0000 C   0  0  0  0  0  0  0  0  0  0  0  0
    2.6938   -0.3125    0.0000 C   0  0  0  0  0  0  0  0  0  0  0  0
    3.2858    0.5023    0.0000 C   0  0  0  0  0  0  0  0  0  0  0  0
    2.6938    1.3169    0.0000 N   0  0  0  0  0  0  0  0  0  0  0  0
    1.7360    1.0058    0.0000 C   0  0  0  0  0  0  0  0  0  0  0  0
    1.7360   -0.0012    0.0000 C   0  0  0  0  0  0  0  0  0  0  0  0
    0.8680   -0.4978    0.0000 C   0  0  0  0  0  0  0  0  0  0  0  0
    0.0000    0.0000    0.0000 C   0  0  0  0  0  0  0  0  0  0  0  0
   -0.0000    1.0058    0.0000 C   0  0  0  0  0  0  0  0  0  0  0  0
    0.8680    1.5138    0.0000 C   0  0  0  0  0  0  0  0  0  0  0  0
    0.8675   -1.4978    0.0000 F   0  0  0  0  0  0  0  0  0  0  0  0
  1  2  1  0  0  0  0
  2  3  1  0  0  0  0
  2  4  1  0  0  0  0
  4  5  2  0  0  0  0
  4  6  1  0  0  0  0
  6  7  1  0  0  0  0
  7  8  1  0  0  0  0
  8  9  1  0  0  0  0
  9 13  1  0  0  0  0
  9 10  2  0  0  0  0
 10 11  1  0  0  0  0
 11 12  1  0  0  0  0
 12 17  2  0  0  0  0
 12 13  1  0  0  0  0
 13 14  2  0  0  0  0
 14 15  1  0  0  0  0
 15 16  2  0  0  0  0
 16 17  1  0  0  0  0
 14 18  1  0  0  0  0
M  END
$$$$
s_22____13025516____12053348
  -OEChem-03222016482D

 19 20  0     0  0  0  0  0  0999 V2000
    0.0012   -1.9973    0.0000 C   0  0  0  0  0  0  0  0  0  0  0  0
    0.8675   -1.4978    0.0000 O   0  0  0  0  0  0  0  0  0  0  0  0
    0.8680   -0.4978    0.0000 C   0  0  0  0  0  0  0  0  0  0  0  0
    0.0000    0.0000    0.0000 C   0  0  0  0  0  0  0  0  0  0  0  0
   -0.0000    1.0058    0.0000 C   0  0  0  0  0  0  0  0  0  0  0  0
    0.8680    1.5138    0.0000 C   0  0  0  0  0  0  0  0  0  0  0  0
    1.7360    1.0058    0.0000 C   0  0  0  0  0  0  0  0  0  0  0  0
    1.7360   -0.0012    0.0000 C   0  0  0  0  0  0  0  0  0  0  0  0
    2.6938   -0.3125    0.0000 C   0  0  0  0  0  0  0  0  0  0  0  0
    3.2858    0.5023    0.0000 C   0  0  0  0  0  0  0  0  0  0  0  0
    2.6938    1.3169    0.0000 N   0  0  0  0  0  0  0  0  0  0  0  0
    3.0028   -1.2636    0.0000 C   0  0  0  0  0  0  0  0  0  0  0  0
    3.9809   -1.4715    0.0000 C   0  0  0  0  0  0  0  0  0  0  0  0
    4.2899   -2.4226    0.0000 N   0  0  0  0  0  0  0  0  0  0  0  0
    5.2680   -2.6306    0.0000 C   0  0  0  0  0  0  0  0  0  0  0  0
    5.9372   -1.8874    0.0000 O   0  0  0  0  0  0  0  0  0  0  0  0
    5.5770   -3.5816    0.0000 C   0  0  0  0  0  0  0  0  0  0  0  0
    4.9078   -4.3247    0.0000 O   0  0  0  0  0  0  0  0  0  0  0  0
    6.5551   -3.7896    0.0000 N   0  0  0  0  0  0  0  0  0  0  0  0
  1  2  1  0  0  0  0
  2  3  1  0  0  0  0
  3  8  2  0  0  0  0
  3  4  1  0  0  0  0
  4  5  2  0  0  0  0
  5  6  1  0  0  0  0
  6  7  2  0  0  0  0
  7 11  1  0  0  0  0
  7  8  1  0  0  0  0
  8  9  1  0  0  0  0
  9 10  2  0  0  0  0
 10 11  1  0  0  0  0
  9 12  1  0  0  0  0
 12 13  1  0  0  0  0
 13 14  1  0  0  0  0
 14 15  1  0  0  0  0
 15 16  2  0  0  0  0
 15 17  1  0  0  0  0
 17 18  2  0  0  0  0
 17 19  1  0  0  0  0
M  END
$$$$
s_270004____9164178____15269820
  -OEChem-03222016482D

 18 19  0     1  0  0  0  0  0999 V2000
    5.7860   -2.0956    0.0000 C   0  0  0  0  0  0  0  0  0  0  0  0
    6.2859   -1.2296    0.0000 C   0  0  3  0  0  0  0  0  0  0  0  0
    5.7859   -0.3636    0.0000 C   0  0  0  0  0  0  0  0  0  0  0  0
    4.7859   -0.3636    0.0000 N   0  3  0  0  0  0  0  0  0  0  0  0
    4.2858    0.5024    0.0000 C   0  0  0  0  0  0  0  0  0  0  0  0
    3.2858    0.5023    0.0000 C   0  0  0  0  0  0  0  0  0  0  0  0
    2.6938   -0.3125    0.0000 C   0  0  0  0  0  0  0  0  0  0  0  0
    1.7360   -0.0012    0.0000 C   0  0  0  0  0  0  0  0  0  0  0  0
    1.7360    1.0058    0.0000 C   0  0  0  0  0  0  0  0  0  0  0  0
    2.6938    1.3169    0.0000 N   0  0  0  0  0  0  0  0  0  0  0  0
    0.8680    1.5138    0.0000 C   0  0  0  0  0  0  0  0  0  0  0  0
    0.0000    1.0058    0.0000 C   0  0  0  0  0  0  0  0  0  0  0  0
    0.0000    0.0000    0.0000 C   0  0  0  0  0  0  0  0  0  0  0  0
    0.8680   -0.4978    0.0000 C   0  0  0  0  0  0  0  0  0  0  0  0
    0.8675   -1.4978    0.0000 O   0  0  0  0  0  0  0  0  0  0  0  0
    1.7332   -1.9983    0.0000 C   0  0  0  0  0  0  0  0  0  0  0  0
    7.2859   -1.2295    0.0000 O   0  0  0  0  0  0  0  0  0  0  0  0
    7.7860   -2.0955    0.0000 C   0  0  0  0  0  0  0  0  0  0  0  0
  1  2  1  0  0  0  0
  2  3  1  0  0  0  0
  3  4  1  0  0  0  0
  4  5  1  0  0  0  0
  5  6  1  0  0  0  0
  6 10  1  0  0  0  0
  6  7  2  0  0  0  0
  7  8  1  0  0  0  0
  8 14  2  0  0  0  0
  8  9  1  0  0  0  0
  9 10  1  0  0  0  0
  9 11  2  0  0  0  0
 11 12  1  0  0  0  0
 12 13  2  0  0  0  0
 13 14  1  0  0  0  0
 14 15  1  0  0  0  0
 15 16  1  0  0  0  0
  2 17  1  0  0  0  0
 17 18  1  0  0  0  0
M  CHG  1   4   1
M  END
$$$$
s_8____15754582____83696
  -OEChem-03222016482D

 20 21  0     1  0  0  0  0  0999 V2000
    6.8641   -4.7407    0.0000 C   0  0  0  0  0  0  0  0  0  0  0  0
    6.5551   -3.7896    0.0000 C   0  0  0  0  0  0  0  0  0  0  0  0
    5.5770   -3.5816    0.0000 N   0  0  0  0  0  0  0  0  0  0  0  0
    5.2680   -2.6306    0.0000 C   0  0  0  0  0  0  0  0  0  0  0  0
    5.9372   -1.8874    0.0000 S   0  0  0  0  0  0  0  0  0  0  0  0
    4.2899   -2.4226    0.0000 N   0  0  0  0  0  0  0  0  0  0  0  0
    3.9809   -1.4715    0.0000 C   0  0  0  0  0  0  0  0  0  0  0  0
    3.0028   -1.2636    0.0000 C   0  0  3  0  0  0  0  0  0  0  0  0
    2.3336   -2.0067    0.0000 C   0  0  0  0  0  0  0  0  0  0  0  0
    2.6938   -0.3125    0.0000 C   0  0  0  0  0  0  0  0  0  0  0  0
    3.2858    0.5023    0.0000 C   0  0  0  0  0  0  0  0  0  0  0  0
    2.6938    1.3169    0.0000 N   0  0  0  0  0  0  0  0  0  0  0  0
    1.7360    1.0058    0.0000 C   0  0  0  0  0  0  0  0  0  0  0  0
    1.7360   -0.0012    0.0000 C   0  0  0  0  0  0  0  0  0  0  0  0
    0.8680   -0.4978    0.0000 C   0  0  0  0  0  0  0  0  0  0  0  0
    0.0000    0.0000    0.0000 C   0  0  0  0  0  0  0  0  0  0  0  0
   -0.0000    1.0058    0.0000 C   0  0  0  0  0  0  0  0  0  0  0  0
    0.8680    1.5138    0.0000 C   0  0  0  0  0  0  0  0  0  0  0  0
   -0.8653   -0.5013    0.0000 O   0  0  0  0  0  0  0  0  0  0  0  0
   -0.8639   -1.5013    0.0000 C   0  0  0  0  0  0  0  0  0  0  0  0
  1  2  1  0  0  0  0
  2  3  1  0  0  0  0
  3  4  1  0  0  0  0
  4  5  2  0  0  0  0
  4  6  1  0  0  0  0
  6  7  1  0  0  0  0
  7  8  1  0  0  0  0
  8  9  1  0  0  0  0
  8 10  1  0  0  0  0
 10 14  1  0  0  0  0
 10 11  2  0  0  0  0
 11 12  1  0  0  0  0
 12 13  1  0  0  0  0
 13 18  2  0  0  0  0
 13 14  1  0  0  0  0
 14 15  2  0  0  0  0
 15 16  1  0  0  0  0
 16 17  2  0  0  0  0
 17 18  1  0  0  0  0
 16 19  1  0  0  0  0
 19 20  1  0  0  0  0
M  END
$$$$
s_270062____15506652____8147258
  -OEChem-03222016482D

 18 19  0     0  0  0  0  0  0999 V2000
    1.7340    3.0138    0.0000 C   0  0  0  0  0  0  0  0  0  0  0  0
    0.8680    2.5138    0.0000 O   0  0  0  0  0  0  0  0  0  0  0  0
    0.8680    1.5138    0.0000 C   0  0  0  0  0  0  0  0  0  0  0  0
    0.0000    1.0058    0.0000 C   0  0  0  0  0  0  0  0  0  0  0  0
    0.0000    0.0000    0.0000 C   0  0  0  0  0  0  0  0  0  0  0  0
    0.8680   -0.4978    0.0000 C   0  0  0  0  0  0  0  0  0  0  0  0
    1.7360   -0.0012    0.0000 C   0  0  0  0  0  0  0  0  0  0  0  0
    1.7360    1.0058    0.0000 C   0  0  0  0  0  0  0  0  0  0  0  0
    2.6938    1.3169    0.0000 N   0  0  0  0  0  0  0  0  0  0  0  0
    3.2858    0.5023    0.0000 C   0  0  0  0  0  0  0  0  0  0  0  0
    2.6938   -0.3125    0.0000 C   0  0  0  0  0  0  0  0  0  0  0  0
    3.0028   -1.2636    0.0000 C   0  0  0  0  0  0  0  0  0  0  0  0
    3.9809   -1.4715    0.0000 C   0  0  0  0  0  0  0  0  0  0  0  0
    4.2899   -2.4226    0.0000 N   0  0  0  0  0  0  0  0  0  0  0  0
    5.2680   -2.6306    0.0000 C   0  0  0  0  0  0  0  0  0  0  0  0
    5.9372   -1.8874    0.0000 O   0  0  0  0  0  0  0  0  0  0  0  0
    5.5770   -3.5816    0.0000 C   0  0  0  0  0  0  0  0  0  0  0  0
    6.5551   -3.7896    0.0000 Cl  0  0  0  0  0  0  0  0  0  0  0  0
  1  2  1  0  0  0  0
  2  3  1  0  0  0  0
  3  8  2  0  0  0  0
  3  4  1  0  0  0  0
  4  5  2  0  0  0  0
  5  6  1  0  0  0  0
  6  7  2  0  0  0  0
  7 11  1  0  0  0  0
  7  8  1  0  0  0  0
  8  9  1  0  0  0  0
  9 10  1  0  0  0  0
 10 11  2  0  0  0  0
 11 12  1  0  0  0  0
 12 13  1  0  0  0  0
 13 14  1  0  0  0  0
 14 15  1  0  0  0  0
 15 16  2  0  0  0  0
 15 17  1  0  0  0  0
 17 18  1  0  0  0  0
M  END
$$$$
s_22____13978824____4970170
  -OEChem-03222016482D

 21 23  0     0  0  0  0  0  0999 V2000
   -0.8705    2.5032    0.0000 C   0  0  0  0  0  0  0  0  0  0  0  0
   -0.8675    1.5032    0.0000 O   0  0  0  0  0  0  0  0  0  0  0  0
    0.0000    1.0058    0.0000 C   0  0  0  0  0  0  0  0  0  0  0  0
    0.0000    0.0000    0.0000 C   0  0  0  0  0  0  0  0  0  0  0  0
    0.8680   -0.4978    0.0000 C   0  0  0  0  0  0  0  0  0  0  0  0
    1.7360   -0.0012    0.0000 C   0  0  0  0  0  0  0  0  0  0  0  0
    1.7360    1.0058    0.0000 C   0  0  0  0  0  0  0  0  0  0  0  0
    0.8680    1.5138    0.0000 C   0  0  0  0  0  0  0  0  0  0  0  0
    2.6938    1.3169    0.0000 N   0  0  0  0  0  0  0  0  0  0  0  0
    3.2858    0.5023    0.0000 C   0  0  0  0  0  0  0  0  0  0  0  0
    2.6938   -0.3125    0.0000 C   0  0  0  0  0  0  0  0  0  0  0  0
    3.0028   -1.2636    0.0000 C   0  0  0  0  0  0  0  0  0  0  0  0
    3.9809   -1.4715    0.0000 C   0  0  0  0  0  0  0  0  0  0  0  0
    4.2899   -2.4226    0.0000 N   0  0  0  0  0  0  0  0  0  0  0  0
    5.2680   -2.6306    0.0000 C   0  0  0  0  0  0  0  0  0  0  0  0
    5.9372   -1.8874    0.0000 O   0  0  0  0  0  0  0  0  0  0  0  0
    5.5770   -3.5816    0.0000 C   0  0  0  0  0  0  0  0  0  0  0  0
    6.5551   -3.7896    0.0000 C   0  0  0  0  0  0  0  0  0  0  0  0
    6.8641   -4.7407    0.0000 C   0  0  0  0  0  0  0  0  0  0  0  0
    6.6568   -5.7209    0.0000 C   0  0  0  0  0  0  0  0  0  0  0  0
    7.6079   -5.4119    0.0000 C   0  0  0  0  0  0  0  0  0  0  0  0
  1  2  1  0  0  0  0
  2  3  1  0  0  0  0
  3  8  2  0  0  0  0
  3  4  1  0  0  0  0
  4  5  2  0  0  0  0
  5  6  1  0  0  0  0
  6 11  1  0  0  0  0
  6  7  2  0  0  0  0
  7  8  1  0  0  0  0
  7  9  1  0  0  0  0
  9 10  1  0  0  0  0
 10 11  2  0  0  0  0
 11 12  1  0  0  0  0
 12 13  1  0  0  0  0
 13 14  1  0  0  0  0
 14 15  1  0  0  0  0
 15 16  2  0  0  0  0
 15 17  1  0  0  0  0
 17 18  1  0  0  0  0
 18 19  1  0  0  0  0
 19 21  1  0  0  0  0
 19 20  1  0  0  0  0
 20 21  1  0  0  0  0
M  END
$$$$
s_512____158537____13025528
  -OEChem-03222016482D

 20 21  0     0  0  0  0  0  0999 V2000
    6.8641   -4.7407    0.0000 C   0  0  0  0  0  0  0  0  0  0  0  0
    6.5551   -3.7896    0.0000 C   0  0  0  0  0  0  0  0  0  0  0  0
    7.2243   -3.0465    0.0000 C   0  0  0  0  0  0  0  0  0  0  0  0
    5.5770   -3.5816    0.0000 N   0  0  0  0  0  0  0  0  0  0  0  0
    5.2680   -2.6306    0.0000 C   0  0  0  0  0  0  0  0  0  0  0  0
    5.9372   -1.8874    0.0000 O   0  0  0  0  0  0  0  0  0  0  0  0
    4.2899   -2.4226    0.0000 N   0  0  0  0  0  0  0  0  0  0  0  0
    3.9809   -1.4715    0.0000 C   0  0  0  0  0  0  0  0  0  0  0  0
    3.0028   -1.2636    0.0000 C   0  0  0  0  0  0  0  0  0  0  0  0
    2.6938   -0.3125    0.0000 C   0  0  0  0  0  0  0  0  0  0  0  0
    3.2858    0.5023    0.0000 C   0  0  0  0  0  0  0  0  0  0  0  0
    2.6938    1.3169    0.0000 N   0  0  0  0  0  0  0  0  0  0  0  0
    1.7360    1.0058    0.0000 C   0  0  0  0  0  0  0  0  0  0  0  0
    1.7360   -0.0012    0.0000 C   0  0  0  0  0  0  0  0  0  0  0  0
    0.8680   -0.4978    0.0000 C   0  0  0  0  0  0  0  0  0  0  0  0
    0.0000    0.0000    0.0000 C   0  0  0  0  0  0  0  0  0  0  0  0
   -0.0000    1.0058    0.0000 C   0  0  0  0  0  0  0  0  0  0  0  0
    0.8680    1.5138    0.0000 C   0  0  0  0  0  0  0  0  0  0  0  0
    0.8675   -1.4978    0.0000 O   0  0  0  0  0  0  0  0  0  0  0  0
    1.7332   -1.9983    0.0000 C   0  0  0  0  0  0  0  0  0  0  0  0
  1  2  1  0  0  0  0
  2  3  1  0  0  0  0
  2  4  1  0  0  0  0
  4  5  1  0  0  0  0
  5  6  2  0  0  0  0
  5  7  1  0  0  0  0
  7  8  1  0  0  0  0
  8  9  1  0  0  0  0
  9 10  1  0  0  0  0
 10 14  1  0  0  0  0
 10 11  2  0  0  0  0
 11 12  1  0  0  0  0
 12 13  1  0  0  0  0
 13 18  2  0  0  0  0
 13 14  1  0  0  0  0
 14 15  2  0  0  0  0
 15 16  1  0  0  0  0
 16 17  2  0  0  0  0
 17 18  1  0  0  0  0
 15 19  1  0  0  0  0
 19 20  1  0  0  0  0
M  END
$$$$
s_22____15775312____58844
  -OEChem-03222016482D

 23 25  0     0  0  0  0  0  0999 V2000
    5.5770   -3.5816    0.0000 C   0  0  0  0  0  0  0  0  0  0  0  0
    5.2680   -2.6306    0.0000 C   0  0  0  0  0  0  0  0  0  0  0  0
    5.9372   -1.8874    0.0000 O   0  0  0  0  0  0  0  0  0  0  0  0
    4.2899   -2.4226    0.0000 N   0  0  0  0  0  0  0  0  0  0  0  0
    3.9809   -1.4715    0.0000 C   0  0  0  0  0  0  0  0  0  0  0  0
    3.0028   -1.2636    0.0000 C   0  0  0  0  0  0  0  0  0  0  0  0
    2.6938   -0.3125    0.0000 C   0  0  0  0  0  0  0  0  0  0  0  0
    3.2858    0.5023    0.0000 C   0  0  0  0  0  0  0  0  0  0  0  0
    2.6938    1.3169    0.0000 N   0  0  0  0  0  0  0  0  0  0  0  0
    1.7360    1.0058    0.0000 C   0  0  0  0  0  0  0  0  0  0  0  0
    1.7360   -0.0012    0.0000 C   0  0  0  0  0  0  0  0  0  0  0  0
    0.8680   -0.4978    0.0000 C   0  0  0  0  0  0  0  0  0  0  0  0
    0.0000    0.0000    0.0000 C   0  0  0  0  0  0  0  0  0  0  0  0
   -0.0000    1.0058    0.0000 C   0  0  0  0  0  0  0  0  0  0  0  0
    0.8680    1.5138    0.0000 C   0  0  0  0  0  0  0  0  0  0  0  0
    0.8675   -1.4978    0.0000 O   0  0  0  0  0  0  0  0  0  0  0  0
    1.7332   -1.9983    0.0000 C   0  0  0  0  0  0  0  0  0  0  0  0
    1.7327   -2.9983    0.0000 C   0  0  0  0  0  0  0  0  0  0  0  0
    2.6045   -3.4987    0.0000 C   0  0  0  0  0  0  0  0  0  0  0  0
    2.6040   -4.4988    0.0000 C   0  0  0  0  0  0  0  0  0  0  0  0
    1.7406   -5.0034    0.0000 C   0  0  0  0  0  0  0  0  0  0  0  0
    0.8689   -4.5029    0.0000 C   0  0  0  0  0  0  0  0  0  0  0  0
    0.8605   -3.4978    0.0000 C   0  0  0  0  0  0  0  0  0  0  0  0
  1  2  1  0  0  0  0
  2  3  2  0  0  0  0
  2  4  1  0  0  0  0
  4  5  1  0  0  0  0
  5  6  1  0  0  0  0
  6  7  1  0  0  0  0
  7 11  1  0  0  0  0
  7  8  2  0  0  0  0
  8  9  1  0  0  0  0
  9 10  1  0  0  0  0
 10 15  2  0  0  0  0
 10 11  1  0  0  0  0
 11 12  2  0  0  0  0
 12 13  1  0  0  0  0
 13 14  2  0  0  0  0
 14 15  1  0  0  0  0
 12 16  1  0  0  0  0
 16 17  1  0  0  0  0
 17 18  1  0  0  0  0
 18 23  2  0  0  0  0
 18 19  1  0  0  0  0
 19 20  2  0  0  0  0
 20 21  1  0  0  0  0
 21 22  2  0  0  0  0
 22 23  1  0  0  0  0
M  END
$$$$
s_22____9276248____7941800
  -OEChem-03222016482D

 16 17  0     0  0  0  0  0  0999 V2000
   -1.7320   -0.0025    0.0000 C   0  0  0  0  0  0  0  0  0  0  0  0
   -0.8653   -0.5013    0.0000 O   0  0  0  0  0  0  0  0  0  0  0  0
    0.0000    0.0000    0.0000 C   0  0  0  0  0  0  0  0  0  0  0  0
   -0.0000    1.0058    0.0000 C   0  0  0  0  0  0  0  0  0  0  0  0
    0.8680    1.5138    0.0000 C   0  0  0  0  0  0  0  0  0  0  0  0
    1.7360    1.0058    0.0000 C   0  0  0  0  0  0  0  0  0  0  0  0
    1.7360   -0.0012    0.0000 C   0  0  0  0  0  0  0  0  0  0  0  0
    0.8680   -0.4978    0.0000 C   0  0  0  0  0  0  0  0  0  0  0  0
    2.6938   -0.3125    0.0000 C   0  0  0  0  0  0  0  0  0  0  0  0
    3.2858    0.5023    0.0000 C   0  0  0  0  0  0  0  0  0  0  0  0
    2.6938    1.3169    0.0000 N   0  0  0  0  0  0  0  0  0  0  0  0
    4.2858    0.5024    0.0000 N   0  0  0  0  0  0  0  0  0  0  0  0
    4.7857    1.3684    0.0000 C   0  0  0  0  0  0  0  0  0  0  0  0
    4.2857    2.2344    0.0000 O   0  0  0  0  0  0  0  0  0  0  0  0
    5.7857    1.3685    0.0000 C   0  0  0  0  0  0  0  0  0  0  0  0
    6.2857    2.2345    0.0000 O   0  0  0  0  0  0  0  0  0  0  0  0
  1  2  1  0  0  0  0
  2  3  1  0  0  0  0
  3  8  2  0  0  0  0
  3  4  1  0  0  0  0
  4  5  2  0  0  0  0
  5  6  1  0  0  0  0
  6 11  1  0  0  0  0
  6  7  2  0  0  0  0
  7  8  1  0  0  0  0
  7  9  1  0  0  0  0
  9 10  2  0  0  0  0
 10 11  1  0  0  0  0
 10 12  1  0  0  0  0
 12 13  1  0  0  0  0
 13 14  2  0  0  0  0
 13 15  1  0  0  0  0
 15 16  1  0  0  0  0
M  END
$$$$
s_22____15506616____58886
  -OEChem-03222016482D

 19 20  0     0  0  0  0  0  0999 V2000
    1.7340    3.0138    0.0000 C   0  0  0  0  0  0  0  0  0  0  0  0
    0.8680    2.5138    0.0000 O   0  0  0  0  0  0  0  0  0  0  0  0
    0.8680    1.5138    0.0000 C   0  0  0  0  0  0  0  0  0  0  0  0
    0.0000    1.0058    0.0000 C   0  0  0  0  0  0  0  0  0  0  0  0
    0.0000    0.0000    0.0000 C   0  0  0  0  0  0  0  0  0  0  0  0
    0.8680   -0.4978    0.0000 C   0  0  0  0  0  0  0  0  0  0  0  0
    1.7360   -0.0012    0.0000 C   0  0  0  0  0  0  0  0  0  0  0  0
    1.7360    1.0058    0.0000 C   0  0  0  0  0  0  0  0  0  0  0  0
    2.6938    1.3169    0.0000 N   0  0  0  0  0  0  0  0  0  0  0  0
    3.2858    0.5023    0.0000 C   0  0  0  0  0  0  0  0  0  0  0  0
    2.6938   -0.3125    0.0000 C   0  0  0  0  0  0  0  0  0  0  0  0
    3.0028   -1.2636    0.0000 C   0  0  0  0  0  0  0  0  0  0  0  0
    3.9809   -1.4715    0.0000 C   0  0  0  0  0  0  0  0  0  0  0  0
    4.2899   -2.4226    0.0000 N   0  0  0  0  0  0  0  0  0  0  0  0
    5.2680   -2.6306    0.0000 C   0  0  0  0  0  0  0  0  0  0  0  0
    5.9372   -1.8874    0.0000 O   0  0  0  0  0  0  0  0  0  0  0  0
    5.5770   -3.5816    0.0000 C   0  0  0  0  0  0  0  0  0  0  0  0
    6.5551   -3.7896    0.0000 F   0  0  0  0  0  0  0  0  0  0  0  0
    4.9078   -4.3247    0.0000 F   0  0  0  0  0  0  0  0  0  0  0  0
  1  2  1  0  0  0  0
  2  3  1  0  0  0  0
  3  8  2  0  0  0  0
  3  4  1  0  0  0  0
  4  5  2  0  0  0  0
  5  6  1  0  0  0  0
  6  7  2  0  0  0  0
  7 11  1  0  0  0  0
  7  8  1  0  0  0  0
  8  9  1  0  0  0  0
  9 10  1  0  0  0  0
 10 11  2  0  0  0  0
 11 12  1  0  0  0  0
 12 13  1  0  0  0  0
 13 14  1  0  0  0  0
 14 15  1  0  0  0  0
 15 16  2  0  0  0  0
 15 17  1  0  0  0  0
 17 18  1  0  0  0  0
 17 19  1  0  0  0  0
M  END
$$$$
s_240690b____13025580____7368582
  -OEChem-03222016482D

 19 20  0     0  0  0  0  0  0999 V2000
    6.8641   -4.7407    0.0000 C   0  0  0  0  0  0  0  0  0  0  0  0
    6.5551   -3.7896    0.0000 N   0  3  0  0  0  0  0  0  0  0  0  0
    5.5770   -3.5816    0.0000 C   0  0  0  0  0  0  0  0  0  0  0  0
    5.2680   -2.6306    0.0000 C   0  0  0  0  0  0  0  0  0  0  0  0
    5.9372   -1.8874    0.0000 O   0  0  0  0  0  0  0  0  0  0  0  0
    4.2899   -2.4226    0.0000 N   0  0  0  0  0  0  0  0  0  0  0  0
    3.9809   -1.4715    0.0000 C   0  0  0  0  0  0  0  0  0  0  0  0
    3.0028   -1.2636    0.0000 C   0  0  0  0  0  0  0  0  0  0  0  0
    2.6938   -0.3125    0.0000 C   0  0  0  0  0  0  0  0  0  0  0  0
    3.2858    0.5023    0.0000 C   0  0  0  0  0  0  0  0  0  0  0  0
    2.6938    1.3169    0.0000 N   0  0  0  0  0  0  0  0  0  0  0  0
    1.7360    1.0058    0.0000 C   0  0  0  0  0  0  0  0  0  0  0  0
    1.7360   -0.0012    0.0000 C   0  0  0  0  0  0  0  0  0  0  0  0
    0.8680   -0.4978    0.0000 C   0  0  0  0  0  0  0  0  0  0  0  0
    0.0000    0.0000    0.0000 C   0  0  0  0  0  0  0  0  0  0  0  0
   -0.0000    1.0058    0.0000 C   0  0  0  0  0  0  0  0  0  0  0  0
    0.8680    1.5138    0.0000 C   0  0  0  0  0  0  0  0  0  0  0  0
    0.8675   -1.4978    0.0000 O   0  0  0  0  0  0  0  0  0  0  0  0
    1.7332   -1.9983    0.0000 C   0  0  0  0  0  0  0  0  0  0  0  0
  1  2  1  0  0  0  0
  2  3  1  0  0  0  0
  3  4  1  0  0  0  0
  4  5  2  0  0  0  0
  4  6  1  0  0  0  0
  6  7  1  0  0  0  0
  7  8  1  0  0  0  0
  8  9  1  0  0  0  0
  9 13  1  0  0  0  0
  9 10  2  0  0  0  0
 10 11  1  0  0  0  0
 11 12  1  0  0  0  0
 12 17  2  0  0  0  0
 12 13  1  0  0  0  0
 13 14  2  0  0  0  0
 14 15  1  0  0  0  0
 15 16  2  0  0  0  0
 16 17  1  0  0  0  0
 14 18  1  0  0  0  0
 18 19  1  0  0  0  0
M  CHG  1   2   1
M  END
$$$$
s_270004____8284638____16621896
  -OEChem-03222016482D

 21 22  0     0  0  0  0  0  0999 V2000
    5.4199   -1.7296    0.0000 C   0  0  0  0  0  0  0  0  0  0  0  0
    6.2859   -1.2296    0.0000 C   0  0  0  0  0  0  0  0  0  0  0  0
    7.1519   -0.7295    0.0000 C   0  0  0  0  0  0  0  0  0  0  0  0
    5.7859   -0.3636    0.0000 C   0  0  0  0  0  0  0  0  0  0  0  0
    4.7859   -0.3636    0.0000 N   0  3  0  0  0  0  0  0  0  0  0  0
    4.2858    0.5024    0.0000 C   0  0  0  0  0  0  0  0  0  0  0  0
    3.2858    0.5023    0.0000 C   0  0  0  0  0  0  0  0  0  0  0  0
    2.6938   -0.3125    0.0000 C   0  0  0  0  0  0  0  0  0  0  0  0
    1.7360   -0.0012    0.0000 C   0  0  0  0  0  0  0  0  0  0  0  0
    0.8680   -0.4978    0.0000 C   0  0  0  0  0  0  0  0  0  0  0  0
    0.0000    0.0000    0.0000 C   0  0  0  0  0  0  0  0  0  0  0  0
    0.0000    1.0058    0.0000 C   0  0  0  0  0  0  0  0  0  0  0  0
    0.8680    1.5138    0.0000 C   0  0  0  0  0  0  0  0  0  0  0  0
    1.7360    1.0058    0.0000 C   0  0  0  0  0  0  0  0  0  0  0  0
    2.6938    1.3169    0.0000 N   0  0  0  0  0  0  0  0  0  0  0  0
   -0.8653   -0.5013    0.0000 O   0  0  0  0  0  0  0  0  0  0  0  0
   -0.8639   -1.5013    0.0000 C   0  0  0  0  0  0  0  0  0  0  0  0
    6.7860   -2.0956    0.0000 C   0  0  0  0  0  0  0  0  0  0  0  0
    6.2860   -2.9616    0.0000 O   0  0  0  0  0  0  0  0  0  0  0  0
    7.7860   -2.0955    0.0000 O   0  0  0  0  0  0  0  0  0  0  0  0
    8.2860   -2.9615    0.0000 C   0  0  0  0  0  0  0  0  0  0  0  0
  1  2  1  0  0  0  0
  2  3  1  0  0  0  0
  2  4  1  0  0  0  0
  4  5  1  0  0  0  0
  5  6  1  0  0  0  0
  6  7  1  0  0  0  0
  7 15  1  0  0  0  0
  7  8  2  0  0  0  0
  8  9  1  0  0  0  0
  9 14  2  0  0  0  0
  9 10  1  0  0  0  0
 10 11  2  0  0  0  0
 11 12  1  0  0  0  0
 12 13  2  0  0  0  0
 13 14  1  0  0  0  0
 14 15  1  0  0  0  0
 11 16  1  0  0  0  0
 16 17  1  0  0  0  0
  2 18  1  0  0  0  0
 18 19  2  0  0  0  0
 18 20  1  0  0  0  0
 20 21  1  0  0  0  0
M  CHG  1   5   1
M  END
$$$$
s_527a____12637914____157834
  -OEChem-03222016482D

 20 21  0     0  0  0  0  0  0999 V2000
    3.9538   -0.9546    0.0000 C   0  0  0  0  0  0  0  0  0  0  0  0
    3.0028   -1.2636    0.0000 C   0  0  0  0  0  0  0  0  0  0  0  0
    2.0517   -1.5725    0.0000 C   0  0  0  0  0  0  0  0  0  0  0  0
    3.3117   -2.2146    0.0000 C   0  0  0  0  0  0  0  0  0  0  0  0
    4.2899   -2.4226    0.0000 N   0  0  0  0  0  0  0  0  0  0  0  0
    4.5989   -3.3737    0.0000 C   0  0  0  0  0  0  0  0  0  0  0  0
    3.9297   -4.1168    0.0000 O   0  0  0  0  0  0  0  0  0  0  0  0
    5.5770   -3.5816    0.0000 C   0  0  0  0  0  0  0  0  0  0  0  0
    5.8860   -4.5327    0.0000 O   0  0  0  0  0  0  0  0  0  0  0  0
    6.8641   -4.7407    0.0000 C   0  0  0  0  0  0  0  0  0  0  0  0
    2.6938   -0.3125    0.0000 C   0  0  0  0  0  0  0  0  0  0  0  0
    3.2858    0.5023    0.0000 C   0  0  0  0  0  0  0  0  0  0  0  0
    2.6938    1.3169    0.0000 N   0  0  0  0  0  0  0  0  0  0  0  0
    1.7360    1.0058    0.0000 C   0  0  0  0  0  0  0  0  0  0  0  0
    1.7360   -0.0012    0.0000 C   0  0  0  0  0  0  0  0  0  0  0  0
    0.8680   -0.4978    0.0000 C   0  0  0  0  0  0  0  0  0  0  0  0
    0.0000    0.0000    0.0000 C   0  0  0  0  0  0  0  0  0  0  0  0
   -0.0000    1.0058    0.0000 C   0  0  0  0  0  0  0  0  0  0  0  0
    0.8680    1.5138    0.0000 C   0  0  0  0  0  0  0  0  0  0  0  0
   -0.8675    1.5032    0.0000 F   0  0  0  0  0  0  0  0  0  0  0  0
  1  2  1  0  0  0  0
  2  3  1  0  0  0  0
  2  4  1  0  0  0  0
  4  5  1  0  0  0  0
  5  6  1  0  0  0  0
  6  7  2  0  0  0  0
  6  8  1  0  0  0  0
  8  9  1  0  0  0  0
  9 10  1  0  0  0  0
  2 11  1  0  0  0  0
 11 15  1  0  0  0  0
 11 12  2  0  0  0  0
 12 13  1  0  0  0  0
 13 14  1  0  0  0  0
 14 19  2  0  0  0  0
 14 15  1  0  0  0  0
 15 16  2  0  0  0  0
 16 17  1  0  0  0  0
 17 18  2  0  0  0  0
 18 19  1  0  0  0  0
 18 20  1  0  0  0  0
M  END
$$$$
s_22____5635330____7941800
  -OEChem-03222016482D

 17 18  0     0  0  0  0  0  0999 V2000
    0.8680    2.5138    0.0000 C   0  0  0  0  0  0  0  0  0  0  0  0
    0.8680    1.5138    0.0000 C   0  0  0  0  0  0  0  0  0  0  0  0
    0.0000    1.0058    0.0000 C   0  0  0  0  0  0  0  0  0  0  0  0
    0.0000    0.0000    0.0000 C   0  0  0  0  0  0  0  0  0  0  0  0
    0.8680   -0.4978    0.0000 C   0  0  0  0  0  0  0  0  0  0  0  0
    1.7360   -0.0012    0.0000 C   0  0  0  0  0  0  0  0  0  0  0  0
    1.7360    1.0058    0.0000 C   0  0  0  0  0  0  0  0  0  0  0  0
    2.6938    1.3169    0.0000 N   0  0  0  0  0  0  0  0  0  0  0  0
    3.2858    0.5023    0.0000 C   0  0  0  0  0  0  0  0  0  0  0  0
    2.6938   -0.3125    0.0000 C   0  0  0  0  0  0  0  0  0  0  0  0
    3.0028   -1.2636    0.0000 C   0  0  0  0  0  0  0  0  0  0  0  0
    3.9809   -1.4715    0.0000 C   0  0  0  0  0  0  0  0  0  0  0  0
    4.2899   -2.4226    0.0000 N   0  0  0  0  0  0  0  0  0  0  0  0
    5.2680   -2.6306    0.0000 C   0  0  0  0  0  0  0  0  0  0  0  0
    5.9372   -1.8874    0.0000 O   0  0  0  0  0  0  0  0  0  0  0  0
    5.5770   -3.5816    0.0000 C   0  0  0  0  0  0  0  0  0  0  0  0
    6.5551   -3.7896    0.0000 O   0  0  0  0  0  0  0  0  0  0  0  0
  1  2  1  0  0  0  0
  2  7  2  0  0  0  0
  2  3  1  0  0  0  0
  3  4  2  0  0  0  0
  4  5  1  0  0  0  0
  5  6  2  0  0  0  0
  6 10  1  0  0  0  0
  6  7  1  0  0  0  0
  7  8  1  0  0  0  0
  8  9  1  0  0  0  0
  9 10  2  0  0  0  0
 10 11  1  0  0  0  0
 11 12  1  0  0  0  0
 12 13  1  0  0  0  0
 13 14  1  0  0  0  0
 14 15  2  0  0  0  0
 14 16  1  0  0  0  0
 16 17  1  0  0  0  0
M  END
$$$$
s_22____9226532____58886
  -OEChem-03222016482D

 20 21  0     0  0  0  0  0  0999 V2000
    1.7327   -2.9983    0.0000 C   0  0  0  0  0  0  0  0  0  0  0  0
    1.7332   -1.9983    0.0000 C   0  0  0  0  0  0  0  0  0  0  0  0
    0.8675   -1.4978    0.0000 O   0  0  0  0  0  0  0  0  0  0  0  0
    0.8680   -0.4978    0.0000 C   0  0  0  0  0  0  0  0  0  0  0  0
    0.0000    0.0000    0.0000 C   0  0  0  0  0  0  0  0  0  0  0  0
   -0.0000    1.0058    0.0000 C   0  0  0  0  0  0  0  0  0  0  0  0
    0.8680    1.5138    0.0000 C   0  0  0  0  0  0  0  0  0  0  0  0
    1.7360    1.0058    0.0000 C   0  0  0  0  0  0  0  0  0  0  0  0
    1.7360   -0.0012    0.0000 C   0  0  0  0  0  0  0  0  0  0  0  0
    2.6938   -0.3125    0.0000 C   0  0  0  0  0  0  0  0  0  0  0  0
    3.2858    0.5023    0.0000 C   0  0  0  0  0  0  0  0  0  0  0  0
    2.6938    1.3169    0.0000 N   0  0  0  0  0  0  0  0  0  0  0  0
    3.0028   -1.2636    0.0000 C   0  0  0  0  0  0  0  0  0  0  0  0
    3.9809   -1.4715    0.0000 C   0  0  0  0  0  0  0  0  0  0  0  0
    4.2899   -2.4226    0.0000 N   0  0  0  0  0  0  0  0  0  0  0  0
    5.2680   -2.6306    0.0000 C   0  0  0  0  0  0  0  0  0  0  0  0
    5.9372   -1.8874    0.0000 O   0  0  0  0  0  0  0  0  0  0  0  0
    5.5770   -3.5816    0.0000 C   0  0  0  0  0  0  0  0  0  0  0  0
    6.5551   -3.7896    0.0000 F   0  0  0  0  0  0  0  0  0  0  0  0
    4.9078   -4.3247    0.0000 F   0  0  0  0  0  0  0  0  0  0  0  0
  1  2  1  0  0  0  0
  2  3  1  0  0  0  0
  3  4  1  0  0  0  0
  4  9  2  0  0  0  0
  4  5  1  0  0  0  0
  5  6  2  0  0  0  0
  6  7  1  0  0  0  0
  7  8  2  0  0  0  0
  8 12  1  0  0  0  0
  8  9  1  0  0  0  0
  9 10  1  0  0  0  0
 10 11  2  0  0  0  0
 11 12  1  0  0  0  0
 10 13  1  0  0  0  0
 13 14  1  0  0  0  0
 14 15  1  0  0  0  0
 15 16  1  0  0  0  0
 16 17  2  0  0  0  0
 16 18  1  0  0  0  0
 18 19  1  0  0  0  0
 18 20  1  0  0  0  0
M  END
$$$$
s_275532____13830256____15269824
  -OEChem-03222016482D

 19 20  0     1  0  0  0  0  0999 V2000
    6.2858    0.5025    0.0000 C   0  0  0  0  0  0  0  0  0  0  0  0
    5.7859   -0.3636    0.0000 C   0  0  3  0  0  0  0  0  0  0  0  0
    6.2859   -1.2296    0.0000 C   0  0  0  0  0  0  0  0  0  0  0  0
    5.7860   -2.0956    0.0000 O   0  0  0  0  0  0  0  0  0  0  0  0
    7.2859   -1.2295    0.0000 O   0  5  0  0  0  0  0  0  0  0  0  0
    4.7859   -0.3636    0.0000 N   0  3  3  0  0  0  0  0  0  0  0  0
    4.2859   -1.2297    0.0000 C   0  0  0  0  0  0  0  0  0  0  0  0
    4.2858    0.5024    0.0000 C   0  0  0  0  0  0  0  0  0  0  0  0
    3.2858    0.5023    0.0000 C   0  0  0  0  0  0  0  0  0  0  0  0
    2.6938   -0.3125    0.0000 C   0  0  0  0  0  0  0  0  0  0  0  0
    1.7360   -0.0012    0.0000 C   0  0  0  0  0  0  0  0  0  0  0  0
    1.7360    1.0058    0.0000 C   0  0  0  0  0  0  0  0  0  0  0  0
    2.6938    1.3169    0.0000 N   0  0  0  0  0  0  0  0  0  0  0  0
    0.8680    1.5138    0.0000 C   0  0  0  0  0  0  0  0  0  0  0  0
    0.0000    1.0058    0.0000 C   0  0  0  0  0  0  0  0  0  0  0  0
    0.0000    0.0000    0.0000 C   0  0  0  0  0  0  0  0  0  0  0  0
    0.8680   -0.4978    0.0000 C   0  0  0  0  0  0  0  0  0  0  0  0
    0.8675   -1.4978    0.0000 O   0  0  0  0  0  0  0  0  0  0  0  0
    1.7332   -1.9983    0.0000 C   0  0  0  0  0  0  0  0  0  0  0  0
  1  2  1  0  0  0  0
  2  3  1  0  0  0  0
  3  4  2  0  0  0  0
  3  5  1  0  0  0  0
  2  6  1  0  0  0  0
  6  7  1  0  0  0  0
  6  8  1  0  0  0  0
  8  9  1  0  0  0  0
  9 13  1  0  0  0  0
  9 10  2  0  0  0  0
 10 11  1  0  0  0  0
 11 17  2  0  0  0  0
 11 12  1  0  0  0  0
 12 13  1  0  0  0  0
 12 14  2  0  0  0  0
 14 15  1  0  0  0  0
 15 16  2  0  0  0  0
 16 17  1  0  0  0  0
 17 18  1  0  0  0  0
 18 19  1  0  0  0  0
M  CHG  2   5  -1   6   1
M  END
$$$$
s_240690b____13913110____3025680
  -OEChem-03222016482D

 19 20  0     1  0  0  0  0  0999 V2000
    1.3555   -1.7987    0.0000 C   0  0  0  0  0  0  0  0  0  0  0  0
    2.3336   -2.0067    0.0000 C   0  0  3  0  0  0  0  0  0  0  0  0
    3.0028   -1.2636    0.0000 C   0  0  0  0  0  0  0  0  0  0  0  0
    2.6938   -0.3125    0.0000 C   0  0  0  0  0  0  0  0  0  0  0  0
    3.2858    0.5023    0.0000 C   0  0  0  0  0  0  0  0  0  0  0  0
    2.6938    1.3169    0.0000 N   0  0  0  0  0  0  0  0  0  0  0  0
    1.7360    1.0058    0.0000 C   0  0  0  0  0  0  0  0  0  0  0  0
    1.7360   -0.0012    0.0000 C   0  0  0  0  0  0  0  0  0  0  0  0
    0.8680   -0.4978    0.0000 C   0  0  0  0  0  0  0  0  0  0  0  0
    0.0000    0.0000    0.0000 C   0  0  0  0  0  0  0  0  0  0  0  0
   -0.0000    1.0058    0.0000 C   0  0  0  0  0  0  0  0  0  0  0  0
    0.8680    1.5138    0.0000 C   0  0  0  0  0  0  0  0  0  0  0  0
   -0.8653   -0.5013    0.0000 F   0  0  0  0  0  0  0  0  0  0  0  0
    2.6426   -2.9578    0.0000 N   0  0  0  0  0  0  0  0  0  0  0  0
    1.9734   -3.7009    0.0000 C   0  0  0  0  0  0  0  0  0  0  0  0
    0.9953   -3.4929    0.0000 O   0  0  0  0  0  0  0  0  0  0  0  0
    2.2824   -4.6519    0.0000 C   0  0  0  0  0  0  0  0  0  0  0  0
    1.6132   -5.3951    0.0000 C   0  0  0  0  0  0  0  0  0  0  0  0
    1.9222   -6.3461    0.0000 N   0  3  0  0  0  0  0  0  0  0  0  0
  1  2  1  0  0  0  0
  2  3  1  0  0  0  0
  3  4  1  0  0  0  0
  4  8  1  0  0  0  0
  4  5  2  0  0  0  0
  5  6  1  0  0  0  0
  6  7  1  0  0  0  0
  7 12  2  0  0  0  0
  7  8  1  0  0  0  0
  8  9  2  0  0  0  0
  9 10  1  0  0  0  0
 10 11  2  0  0  0  0
 11 12  1  0  0  0  0
 10 13  1  0  0  0  0
  2 14  1  0  0  0  0
 14 15  1  0  0  0  0
 15 16  2  0  0  0  0
 15 17  1  0  0  0  0
 17 18  1  0  0  0  0
 18 19  1  0  0  0  0
M  CHG  1  19   1
M  END
$$$$
s_512____13448004____13025528
  -OEChem-03222016482D

 21 22  0     0  0  0  0  0  0999 V2000
    0.0012   -1.9973    0.0000 C   0  0  0  0  0  0  0  0  0  0  0  0
    0.8675   -1.4978    0.0000 O   0  0  0  0  0  0  0  0  0  0  0  0
    0.8680   -0.4978    0.0000 C   0  0  0  0  0  0  0  0  0  0  0  0
    0.0000    0.0000    0.0000 C   0  0  0  0  0  0  0  0  0  0  0  0
   -0.0000    1.0058    0.0000 C   0  0  0  0  0  0  0  0  0  0  0  0
    0.8680    1.5138    0.0000 C   0  0  0  0  0  0  0  0  0  0  0  0
    1.7360    1.0058    0.0000 C   0  0  0  0  0  0  0  0  0  0  0  0
    1.7360   -0.0012    0.0000 C   0  0  0  0  0  0  0  0  0  0  0  0
    2.6938   -0.3125    0.0000 C   0  0  0  0  0  0  0  0  0  0  0  0
    3.2858    0.5023    0.0000 C   0  0  0  0  0  0  0  0  0  0  0  0
    2.6938    1.3169    0.0000 N   0  0  0  0  0  0  0  0  0  0  0  0
    3.0028   -1.2636    0.0000 C   0  0  0  0  0  0  0  0  0  0  0  0
    3.9809   -1.4715    0.0000 C   0  0  0  0  0  0  0  0  0  0  0  0
    4.2899   -2.4226    0.0000 N   0  0  0  0  0  0  0  0  0  0  0  0
    5.2680   -2.6306    0.0000 C   0  0  0  0  0  0  0  0  0  0  0  0
    5.9372   -1.8874    0.0000 O   0  0  0  0  0  0  0  0  0  0  0  0
    5.5770   -3.5816    0.0000 N   0  0  0  0  0  0  0  0  0  0  0  0
    6.5551   -3.7896    0.0000 C   0  0  0  0  0  0  0  0  0  0  0  0
    6.8641   -4.7407    0.0000 C   0  0  0  0  0  0  0  0  0  0  0  0
    7.8422   -4.9486    0.0000 C   0  0  0  0  0  0  0  0  0  0  0  0
    8.1512   -5.8997    0.0000 Cl  0  0  0  0  0  0  0  0  0  0  0  0
  1  2  1  0  0  0  0
  2  3  1  0  0  0  0
  3  8  2  0  0  0  0
  3  4  1  0  0  0  0
  4  5  2  0  0  0  0
  5  6  1  0  0  0  0
  6  7  2  0  0  0  0
  7 11  1  0  0  0  0
  7  8  1  0  0  0  0
  8  9  1  0  0  0  0
  9 10  2  0  0  0  0
 10 11  1  0  0  0  0
  9 12  1  0  0  0  0
 12 13  1  0  0  0  0
 13 14  1  0  0  0  0
 14 15  1  0  0  0  0
 15 16  2  0  0  0  0
 15 17  1  0  0  0  0
 17 18  1  0  0  0  0
 18 19  1  0  0  0  0
 19 20  2  3  0  0  0
 20 21  1  0  0  0  0
M  END
$$$$
s_22____13025516____1290374
  -OEChem-03222016482D

 21 22  0     0  0  0  0  0  0999 V2000
    0.0012   -1.9973    0.0000 C   0  0  0  0  0  0  0  0  0  0  0  0
    0.8675   -1.4978    0.0000 O   0  0  0  0  0  0  0  0  0  0  0  0
    0.8680   -0.4978    0.0000 C   0  0  0  0  0  0  0  0  0  0  0  0
    0.0000    0.0000    0.0000 C   0  0  0  0  0  0  0  0  0  0  0  0
   -0.0000    1.0058    0.0000 C   0  0  0  0  0  0  0  0  0  0  0  0
    0.8680    1.5138    0.0000 C   0  0  0  0  0  0  0  0  0  0  0  0
    1.7360    1.0058    0.0000 C   0  0  0  0  0  0  0  0  0  0  0  0
    1.7360   -0.0012    0.0000 C   0  0  0  0  0  0  0  0  0  0  0  0
    2.6938   -0.3125    0.0000 C   0  0  0  0  0  0  0  0  0  0  0  0
    3.2858    0.5023    0.0000 C   0  0  0  0  0  0  0  0  0  0  0  0
    2.6938    1.3169    0.0000 N   0  0  0  0  0  0  0  0  0  0  0  0
    3.0028   -1.2636    0.0000 C   0  0  0  0  0  0  0  0  0  0  0  0
    3.9809   -1.4715    0.0000 C   0  0  0  0  0  0  0  0  0  0  0  0
    4.2899   -2.4226    0.0000 N   0  0  0  0  0  0  0  0  0  0  0  0
    5.2680   -2.6306    0.0000 C   0  0  0  0  0  0  0  0  0  0  0  0
    5.9372   -1.8874    0.0000 O   0  0  0  0  0  0  0  0  0  0  0  0
    5.5770   -3.5816    0.0000 C   0  0  0  0  0  0  0  0  0  0  0  0
    6.5551   -3.7896    0.0000 S   0  0  0  0  0  0  0  0  0  0  0  0
    6.7631   -2.8115    0.0000 O   0  0  0  0  0  0  0  0  0  0  0  0
    6.3472   -4.7677    0.0000 O   0  0  0  0  0  0  0  0  0  0  0  0
    7.5333   -3.9976    0.0000 C   0  0  0  0  0  0  0  0  0  0  0  0
  1  2  1  0  0  0  0
  2  3  1  0  0  0  0
  3  8  2  0  0  0  0
  3  4  1  0  0  0  0
  4  5  2  0  0  0  0
  5  6  1  0  0  0  0
  6  7  2  0  0  0  0
  7 11  1  0  0  0  0
  7  8  1  0  0  0  0
  8  9  1  0  0  0  0
  9 10  2  0  0  0  0
 10 11  1  0  0  0  0
  9 12  1  0  0  0  0
 12 13  1  0  0  0  0
 13 14  1  0  0  0  0
 14 15  1  0  0  0  0
 15 16  2  0  0  0  0
 15 17  1  0  0  0  0
 17 18  1  0  0  0  0
 18 19  2  0  0  0  0
 18 20  2  0  0  0  0
 18 21  1  0  0  0  0
M  END
$$$$
s_22____15506616____13756276
  -OEChem-03222016482D

 20 21  0     1  0  0  0  0  0999 V2000
    6.8641   -4.7407    0.0000 C   0  0  0  0  0  0  0  0  0  0  0  0
    6.5551   -3.7896    0.0000 C   0  0  0  0  0  0  0  0  0  0  0  0
    5.5770   -3.5816    0.0000 C   0  0  3  0  0  0  0  0  0  0  0  0
    5.2680   -2.6306    0.0000 C   0  0  0  0  0  0  0  0  0  0  0  0
    5.9372   -1.8874    0.0000 O   0  0  0  0  0  0  0  0  0  0  0  0
    4.2899   -2.4226    0.0000 N   0  0  0  0  0  0  0  0  0  0  0  0
    3.9809   -1.4715    0.0000 C   0  0  0  0  0  0  0  0  0  0  0  0
    3.0028   -1.2636    0.0000 C   0  0  0  0  0  0  0  0  0  0  0  0
    2.6938   -0.3125    0.0000 C   0  0  0  0  0  0  0  0  0  0  0  0
    3.2858    0.5023    0.0000 C   0  0  0  0  0  0  0  0  0  0  0  0
    2.6938    1.3169    0.0000 N   0  0  0  0  0  0  0  0  0  0  0  0
    1.7360    1.0058    0.0000 C   0  0  0  0  0  0  0  0  0  0  0  0
    1.7360   -0.0012    0.0000 C   0  0  0  0  0  0  0  0  0  0  0  0
    0.8680   -0.4978    0.0000 C   0  0  0  0  0  0  0  0  0  0  0  0
    0.0000    0.0000    0.0000 C   0  0  0  0  0  0  0  0  0  0  0  0
   -0.0000    1.0058    0.0000 C   0  0  0  0  0  0  0  0  0  0  0  0
    0.8680    1.5138    0.0000 C   0  0  0  0  0  0  0  0  0  0  0  0
    0.8680    2.5138    0.0000 O   0  0  0  0  0  0  0  0  0  0  0  0
    0.0020    3.0138    0.0000 C   0  0  0  0  0  0  0  0  0  0  0  0
    4.9078   -4.3247    0.0000 F   0  0  0  0  0  0  0  0  0  0  0  0
  1  2  1  0  0  0  0
  2  3  1  0  0  0  0
  3  4  1  0  0  0  0
  4  5  2  0  0  0  0
  4  6  1  0  0  0  0
  6  7  1  0  0  0  0
  7  8  1  0  0  0  0
  8  9  1  0  0  0  0
  9 13  1  0  0  0  0
  9 10  2  0  0  0  0
 10 11  1  0  0  0  0
 11 12  1  0  0  0  0
 12 17  2  0  0  0  0
 12 13  1  0  0  0  0
 13 14  2  0  0  0  0
 14 15  1  0  0  0  0
 15 16  2  0  0  0  0
 16 17  1  0  0  0  0
 17 18  1  0  0  0  0
 18 19  1  0  0  0  0
  3 20  1  0  0  0  0
M  END
$$$$
s_22____13025516____925054
  -OEChem-03222016482D

 21 22  0     0  0  0  0  0  0999 V2000
    0.0012   -1.9973    0.0000 C   0  0  0  0  0  0  0  0  0  0  0  0
    0.8675   -1.4978    0.0000 O   0  0  0  0  0  0  0  0  0  0  0  0
    0.8680   -0.4978    0.0000 C   0  0  0  0  0  0  0  0  0  0  0  0
    0.0000    0.0000    0.0000 C   0  0  0  0  0  0  0  0  0  0  0  0
   -0.0000    1.0058    0.0000 C   0  0  0  0  0  0  0  0  0  0  0  0
    0.8680    1.5138    0.0000 C   0  0  0  0  0  0  0  0  0  0  0  0
    1.7360    1.0058    0.0000 C   0  0  0  0  0  0  0  0  0  0  0  0
    1.7360   -0.0012    0.0000 C   0  0  0  0  0  0  0  0  0  0  0  0
    2.6938   -0.3125    0.0000 C   0  0  0  0  0  0  0  0  0  0  0  0
    3.2858    0.5023    0.0000 C   0  0  0  0  0  0  0  0  0  0  0  0
    2.6938    1.3169    0.0000 N   0  0  0  0  0  0  0  0  0  0  0  0
    3.0028   -1.2636    0.0000 C   0  0  0  0  0  0  0  0  0  0  0  0
    3.9809   -1.4715    0.0000 C   0  0  0  0  0  0  0  0  0  0  0  0
    4.2899   -2.4226    0.0000 N   0  0  0  0  0  0  0  0  0  0  0  0
    5.2680   -2.6306    0.0000 C   0  0  0  0  0  0  0  0  0  0  0  0
    5.9372   -1.8874    0.0000 O   0  0  0  0  0  0  0  0  0  0  0  0
    5.5770   -3.5816    0.0000 C   0  0  0  0  0  0  0  0  0  0  0  0
    6.5551   -3.7896    0.0000 S   0  0  0  0  0  0  0  0  0  0  0  0
    6.8641   -4.7407    0.0000 C   0  0  0  0  0  0  0  0  0  0  0  0
    7.8422   -4.9486    0.0000 C   0  0  0  0  0  0  0  0  0  0  0  0
    8.1512   -5.8997    0.0000 C   0  0  0  0  0  0  0  0  0  0  0  0
  1  2  1  0  0  0  0
  2  3  1  0  0  0  0
  3  8  2  0  0  0  0
  3  4  1  0  0  0  0
  4  5  2  0  0  0  0
  5  6  1  0  0  0  0
  6  7  2  0  0  0  0
  7 11  1  0  0  0  0
  7  8  1  0  0  0  0
  8  9  1  0  0  0  0
  9 10  2  0  0  0  0
 10 11  1  0  0  0  0
  9 12  1  0  0  0  0
 12 13  1  0  0  0  0
 13 14  1  0  0  0  0
 14 15  1  0  0  0  0
 15 16  2  0  0  0  0
 15 17  1  0  0  0  0
 17 18  1  0  0  0  0
 18 19  1  0  0  0  0
 19 20  1  0  0  0  0
 20 21  2  0  0  0  0
M  END
$$$$
s_22____9631354____12103014
  -OEChem-03222016482D

 18 19  0     0  0  0  0  0  0999 V2000
    6.8641   -4.7407    0.0000 C   0  0  0  0  0  0  0  0  0  0  0  0
    6.5551   -3.7896    0.0000 C   0  0  0  0  0  0  0  0  0  0  0  0
    5.5770   -3.5816    0.0000 C   0  0  0  0  0  0  0  0  0  0  0  0
    5.2680   -2.6306    0.0000 C   0  0  0  0  0  0  0  0  0  0  0  0
    5.9372   -1.8874    0.0000 O   0  0  0  0  0  0  0  0  0  0  0  0
    4.2899   -2.4226    0.0000 N   0  0  0  0  0  0  0  0  0  0  0  0
    3.9809   -1.4715    0.0000 C   0  0  0  0  0  0  0  0  0  0  0  0
    3.0028   -1.2636    0.0000 C   0  0  0  0  0  0  0  0  0  0  0  0
    2.6938   -0.3125    0.0000 C   0  0  0  0  0  0  0  0  0  0  0  0
    3.2858    0.5023    0.0000 C   0  0  0  0  0  0  0  0  0  0  0  0
    2.6938    1.3169    0.0000 N   0  0  0  0  0  0  0  0  0  0  0  0
    1.7360    1.0058    0.0000 C   0  0  0  0  0  0  0  0  0  0  0  0
    1.7360   -0.0012    0.0000 C   0  0  0  0  0  0  0  0  0  0  0  0
    0.8680   -0.4978    0.0000 C   0  0  0  0  0  0  0  0  0  0  0  0
    0.0000    0.0000    0.0000 C   0  0  0  0  0  0  0  0  0  0  0  0
   -0.0000    1.0058    0.0000 C   0  0  0  0  0  0  0  0  0  0  0  0
    0.8680    1.5138    0.0000 C   0  0  0  0  0  0  0  0  0  0  0  0
   -0.8653   -0.5013    0.0000 F   0  0  0  0  0  0  0  0  0  0  0  0
  1  2  1  0  0  0  0
  2  3  2  3  0  0  0
  3  4  1  0  0  0  0
  4  5  2  0  0  0  0
  4  6  1  0  0  0  0
  6  7  1  0  0  0  0
  7  8  1  0  0  0  0
  8  9  1  0  0  0  0
  9 13  1  0  0  0  0
  9 10  2  0  0  0  0
 10 11  1  0  0  0  0
 11 12  1  0  0  0  0
 12 17  2  0  0  0  0
 12 13  1  0  0  0  0
 13 14  2  0  0  0  0
 14 15  1  0  0  0  0
 15 16  2  0  0  0  0
 16 17  1  0  0  0  0
 15 18  1  0  0  0  0
M  END
$$$$
s_22____13025516____10475936
  -OEChem-03222016482D

 20 21  0     1  0  0  0  0  0999 V2000
    0.0012   -1.9973    0.0000 C   0  0  0  0  0  0  0  0  0  0  0  0
    0.8675   -1.4978    0.0000 O   0  0  0  0  0  0  0  0  0  0  0  0
    0.8680   -0.4978    0.0000 C   0  0  0  0  0  0  0  0  0  0  0  0
    0.0000    0.0000    0.0000 C   0  0  0  0  0  0  0  0  0  0  0  0
   -0.0000    1.0058    0.0000 C   0  0  0  0  0  0  0  0  0  0  0  0
    0.8680    1.5138    0.0000 C   0  0  0  0  0  0  0  0  0  0  0  0
    1.7360    1.0058    0.0000 C   0  0  0  0  0  0  0  0  0  0  0  0
    1.7360   -0.0012    0.0000 C   0  0  0  0  0  0  0  0  0  0  0  0
    2.6938   -0.3125    0.0000 C   0  0  0  0  0  0  0  0  0  0  0  0
    3.2858    0.5023    0.0000 C   0  0  0  0  0  0  0  0  0  0  0  0
    2.6938    1.3169    0.0000 N   0  0  0  0  0  0  0  0  0  0  0  0
    3.0028   -1.2636    0.0000 C   0  0  0  0  0  0  0  0  0  0  0  0
    3.9809   -1.4715    0.0000 C   0  0  0  0  0  0  0  0  0  0  0  0
    4.2899   -2.4226    0.0000 N   0  0  0  0  0  0  0  0  0  0  0  0
    5.2680   -2.6306    0.0000 C   0  0  0  0  0  0  0  0  0  0  0  0
    5.9372   -1.8874    0.0000 O   0  0  0  0  0  0  0  0  0  0  0  0
    5.5770   -3.5816    0.0000 C   0  0  3  0  0  0  0  0  0  0  0  0
    6.5551   -3.7896    0.0000 C   0  0  0  0  0  0  0  0  0  0  0  0
    6.8641   -4.7407    0.0000 C   0  0  0  0  0  0  0  0  0  0  0  0
    4.9078   -4.3247    0.0000 O   0  0  0  0  0  0  0  0  0  0  0  0
  1  2  1  0  0  0  0
  2  3  1  0  0  0  0
  3  8  2  0  0  0  0
  3  4  1  0  0  0  0
  4  5  2  0  0  0  0
  5  6  1  0  0  0  0
  6  7  2  0  0  0  0
  7 11  1  0  0  0  0
  7  8  1  0  0  0  0
  8  9  1  0  0  0  0
  9 10  2  0  0  0  0
 10 11  1  0  0  0  0
  9 12  1  0  0  0  0
 12 13  1  0  0  0  0
 13 14  1  0  0  0  0
 14 15  1  0  0  0  0
 15 16  2  0  0  0  0
 15 17  1  0  0  0  0
 17 18  1  0  0  0  0
 18 19  2  0  0  0  0
 17 20  1  0  0  0  0
M  END
$$$$
s_2554____15506638____788524
  -OEChem-03222016482D

 17 18  0     0  0  0  0  0  0999 V2000
    1.7340    3.0138    0.0000 C   0  0  0  0  0  0  0  0  0  0  0  0
    0.8680    2.5138    0.0000 O   0  0  0  0  0  0  0  0  0  0  0  0
    0.8680    1.5138    0.0000 C   0  0  0  0  0  0  0  0  0  0  0  0
    0.0000    1.0058    0.0000 C   0  0  0  0  0  0  0  0  0  0  0  0
    0.0000    0.0000    0.0000 C   0  0  0  0  0  0  0  0  0  0  0  0
    0.8680   -0.4978    0.0000 C   0  0  0  0  0  0  0  0  0  0  0  0
    1.7360   -0.0012    0.0000 C   0  0  0  0  0  0  0  0  0  0  0  0
    1.7360    1.0058    0.0000 C   0  0  0  0  0  0  0  0  0  0  0  0
    2.6938    1.3169    0.0000 N   0  0  0  0  0  0  0  0  0  0  0  0
    3.2858    0.5023    0.0000 C   0  0  0  0  0  0  0  0  0  0  0  0
    2.6938   -0.3125    0.0000 C   0  0  0  0  0  0  0  0  0  0  0  0
    3.0028   -1.2636    0.0000 C   0  0  0  0  0  0  0  0  0  0  0  0
    3.9809   -1.4715    0.0000 C   0  0  0  0  0  0  0  0  0  0  0  0
    4.2899   -2.4226    0.0000 N   0  0  0  0  0  0  0  0  0  0  0  0
    5.2680   -2.6306    0.0000 C   0  0  0  0  0  0  0  0  0  0  0  0
    5.9372   -1.8874    0.0000 O   0  0  0  0  0  0  0  0  0  0  0  0
    5.5770   -3.5816    0.0000 N   0  0  0  0  0  0  0  0  0  0  0  0
  1  2  1  0  0  0  0
  2  3  1  0  0  0  0
  3  8  2  0  0  0  0
  3  4  1  0  0  0  0
  4  5  2  0  0  0  0
  5  6  1  0  0  0  0
  6  7  2  0  0  0  0
  7 11  1  0  0  0  0
  7  8  1  0  0  0  0
  8  9  1  0  0  0  0
  9 10  1  0  0  0  0
 10 11  2  0  0  0  0
 11 12  1  0  0  0  0
 12 13  1  0  0  0  0
 13 14  1  0  0  0  0
 14 15  1  0  0  0  0
 15 16  2  0  0  0  0
 15 17  1  0  0  0  0
M  END
$$$$
s_22____15506616____1290374
  -OEChem-03222016482D

 21 22  0     0  0  0  0  0  0999 V2000
    1.7340    3.0138    0.0000 C   0  0  0  0  0  0  0  0  0  0  0  0
    0.8680    2.5138    0.0000 O   0  0  0  0  0  0  0  0  0  0  0  0
    0.8680    1.5138    0.0000 C   0  0  0  0  0  0  0  0  0  0  0  0
    0.0000    1.0058    0.0000 C   0  0  0  0  0  0  0  0  0  0  0  0
    0.0000    0.0000    0.0000 C   0  0  0  0  0  0  0  0  0  0  0  0
    0.8680   -0.4978    0.0000 C   0  0  0  0  0  0  0  0  0  0  0  0
    1.7360   -0.0012    0.0000 C   0  0  0  0  0  0  0  0  0  0  0  0
    1.7360    1.0058    0.0000 C   0  0  0  0  0  0  0  0  0  0  0  0
    2.6938    1.3169    0.0000 N   0  0  0  0  0  0  0  0  0  0  0  0
    3.2858    0.5023    0.0000 C   0  0  0  0  0  0  0  0  0  0  0  0
    2.6938   -0.3125    0.0000 C   0  0  0  0  0  0  0  0  0  0  0  0
    3.0028   -1.2636    0.0000 C   0  0  0  0  0  0  0  0  0  0  0  0
    3.9809   -1.4715    0.0000 C   0  0  0  0  0  0  0  0  0  0  0  0
    4.2899   -2.4226    0.0000 N   0  0  0  0  0  0  0  0  0  0  0  0
    5.2680   -2.6306    0.0000 C   0  0  0  0  0  0  0  0  0  0  0  0
    5.9372   -1.8874    0.0000 O   0  0  0  0  0  0  0  0  0  0  0  0
    5.5770   -3.5816    0.0000 C   0  0  0  0  0  0  0  0  0  0  0  0
    6.5551   -3.7896    0.0000 S   0  0  0  0  0  0  0  0  0  0  0  0
    6.7631   -2.8115    0.0000 O   0  0  0  0  0  0  0  0  0  0  0  0
    6.3472   -4.7677    0.0000 O   0  0  0  0  0  0  0  0  0  0  0  0
    7.5333   -3.9976    0.0000 C   0  0  0  0  0  0  0  0  0  0  0  0
  1  2  1  0  0  0  0
  2  3  1  0  0  0  0
  3  8  2  0  0  0  0
  3  4  1  0  0  0  0
  4  5  2  0  0  0  0
  5  6  1  0  0  0  0
  6  7  2  0  0  0  0
  7 11  1  0  0  0  0
  7  8  1  0  0  0  0
  8  9  1  0  0  0  0
  9 10  1  0  0  0  0
 10 11  2  0  0  0  0
 11 12  1  0  0  0  0
 12 13  1  0  0  0  0
 13 14  1  0  0  0  0
 14 15  1  0  0  0  0
 15 16  2  0  0  0  0
 15 17  1  0  0  0  0
 17 18  1  0  0  0  0
 18 19  2  0  0  0  0
 18 20  2  0  0  0  0
 18 21  1  0  0  0  0
M  END
$$$$
s_240690b____7351080____3025698
  -OEChem-03222016482D

 16 17  0     0  0  0  0  0  0999 V2000
    0.0000    0.0000    0.0000 C   0  0  0  0  0  0  0  0  0  0  0  0
   -0.0000    1.0058    0.0000 C   0  0  0  0  0  0  0  0  0  0  0  0
    0.8680    1.5138    0.0000 C   0  0  0  0  0  0  0  0  0  0  0  0
    1.7360    1.0058    0.0000 C   0  0  0  0  0  0  0  0  0  0  0  0
    1.7360   -0.0012    0.0000 C   0  0  0  0  0  0  0  0  0  0  0  0
    0.8680   -0.4978    0.0000 C   0  0  0  0  0  0  0  0  0  0  0  0
    2.6938   -0.3125    0.0000 C   0  0  0  0  0  0  0  0  0  0  0  0
    3.2858    0.5023    0.0000 C   0  0  0  0  0  0  0  0  0  0  0  0
    2.6938    1.3169    0.0000 N   0  0  0  0  0  0  0  0  0  0  0  0
    3.0028   -1.2636    0.0000 C   0  0  0  0  0  0  0  0  0  0  0  0
    3.9809   -1.4715    0.0000 C   0  0  0  0  0  0  0  0  0  0  0  0
    4.2899   -2.4226    0.0000 N   0  0  0  0  0  0  0  0  0  0  0  0
    5.2680   -2.6306    0.0000 C   0  0  0  0  0  0  0  0  0  0  0  0
    5.9372   -1.8874    0.0000 O   0  0  0  0  0  0  0  0  0  0  0  0
    5.5770   -3.5816    0.0000 C   0  0  0  0  0  0  0  0  0  0  0  0
    6.5551   -3.7896    0.0000 N   0  3  0  0  0  0  0  0  0  0  0  0
  1  6  2  0  0  0  0
  1  2  1  0  0  0  0
  2  3  2  0  0  0  0
  3  4  1  0  0  0  0
  4  9  1  0  0  0  0
  4  5  2  0  0  0  0
  5  6  1  0  0  0  0
  5  7  1  0  0  0  0
  7  8  2  0  0  0  0
  8  9  1  0  0  0  0
  7 10  1  0  0  0  0
 10 11  1  0  0  0  0
 11 12  1  0  0  0  0
 12 13  1  0  0  0  0
 13 14  2  0  0  0  0
 13 15  1  0  0  0  0
 15 16  1  0  0  0  0
M  CHG  1  16   1
M  END
$$$$
EN300-1694055
  -OEChem-03222016482D

 16 17  0     0  0  0  0  0  0999 V2000
    5.5770   -3.5816    0.0000 C   0  0  0  0  0  0  0  0  0  0  0  0
    5.2680   -2.6306    0.0000 C   0  0  0  0  0  0  0  0  0  0  0  0
    5.9372   -1.8874    0.0000 O   0  0  0  0  0  0  0  0  0  0  0  0
    4.2899   -2.4226    0.0000 N   0  0  0  0  0  0  0  0  0  0  0  0
    3.9809   -1.4715    0.0000 C   0  0  0  0  0  0  0  0  0  0  0  0
    3.0028   -1.2636    0.0000 C   0  0  0  0  0  0  0  0  0  0  0  0
    2.6938   -0.3125    0.0000 C   0  0  0  0  0  0  0  0  0  0  0  0
    3.2858    0.5023    0.0000 C   0  0  0  0  0  0  0  0  0  0  0  0
    2.6938    1.3169    0.0000 N   0  0  0  0  0  0  0  0  0  0  0  0
    1.7360    1.0058    0.0000 C   0  0  0  0  0  0  0  0  0  0  0  0
    1.7360   -0.0012    0.0000 C   0  0  0  0  0  0  0  0  0  0  0  0
    0.8680   -0.4978    0.0000 C   0  0  0  0  0  0  0  0  0  0  0  0
    0.0000    0.0000    0.0000 C   0  0  0  0  0  0  0  0  0  0  0  0
   -0.0000    1.0058    0.0000 C   0  0  0  0  0  0  0  0  0  0  0  0
    0.8680    1.5138    0.0000 C   0  0  0  0  0  0  0  0  0  0  0  0
   -0.8653   -0.5013    0.0000 N   0  0  0  0  0  0  0  0  0  0  0  0
  1  2  1  0  0  0  0
  2  3  2  0  0  0  0
  2  4  1  0  0  0  0
  4  5  1  0  0  0  0
  5  6  1  0  0  0  0
  6  7  1  0  0  0  0
  7 11  1  0  0  0  0
  7  8  2  0  0  0  0
  8  9  1  0  0  0  0
  9 10  1  0  0  0  0
 10 15  2  0  0  0  0
 10 11  1  0  0  0  0
 11 12  2  0  0  0  0
 12 13  1  0  0  0  0
 13 14  2  0  0  0  0
 14 15  1  0  0  0  0
 13 16  1  0  0  0  0
M  END
$$$$
s_240690b____17036622____13151248
  -OEChem-03222016482D

 18 19  0     0  0  0  0  0  0999 V2000
    0.0000    0.0000    0.0000 C   0  0  0  0  0  0  0  0  0  0  0  0
    0.8780    0.4964    0.0000 C   0  0  0  0  0  0  0  0  0  0  0  0
    1.8332    0.1849    0.0000 C   0  0  0  0  0  0  0  0  0  0  0  0
    2.4247    0.9971    0.0000 C   0  0  0  0  0  0  0  0  0  0  0  0
    1.8349    1.8105    0.0000 N   0  0  0  0  0  0  0  0  0  0  0  0
    0.8791    1.5011    0.0000 C   0  0  0  0  0  0  0  0  0  0  0  0
    0.0101    2.0110    0.0000 C   0  0  0  0  0  0  0  0  0  0  0  0
   -0.8584    1.5098    0.0000 N   0  0  0  0  0  0  0  0  0  0  0  0
   -0.8635    0.5043    0.0000 C   0  0  0  0  0  0  0  0  0  0  0  0
   -1.7320    0.0087    0.0000 Cl  0  0  0  0  0  0  0  0  0  0  0  0
    2.1412   -0.7665    0.0000 C   0  0  0  0  0  0  0  0  0  0  0  0
    3.1191   -0.9755    0.0000 C   0  0  0  0  0  0  0  0  0  0  0  0
    3.4271   -1.9269    0.0000 N   0  0  0  0  0  0  0  0  0  0  0  0
    4.4050   -2.1359    0.0000 C   0  0  0  0  0  0  0  0  0  0  0  0
    5.0749   -1.3935    0.0000 O   0  0  0  0  0  0  0  0  0  0  0  0
    4.7129   -3.0873    0.0000 C   0  0  0  0  0  0  0  0  0  0  0  0
    5.6909   -3.2963    0.0000 O   0  0  0  0  0  0  0  0  0  0  0  0
    5.9988   -4.2477    0.0000 N   0  0  0  0  0  0  0  0  0  0  0  0
  1  9  2  0  0  0  0
  1  2  1  0  0  0  0
  2  6  2  0  0  0  0
  2  3  1  0  0  0  0
  3  4  2  0  0  0  0
  4  5  1  0  0  0  0
  5  6  1  0  0  0  0
  6  7  1  0  0  0  0
  7  8  2  0  0  0  0
  8  9  1  0  0  0  0
  9 10  1  0  0  0  0
  3 11  1  0  0  0  0
 11 12  1  0  0  0  0
 12 13  1  0  0  0  0
 13 14  1  0  0  0  0
 14 15  2  0  0  0  0
 14 16  1  0  0  0  0
 16 17  1  0  0  0  0
 17 18  1  0  0  0  0
M  END
$$$$
s_273464b____13025594____11234894
  -OEChem-03222016482D

 18 19  0     0  0  0  0  0  0999 V2000
    0.0012   -1.9973    0.0000 C   0  0  0  0  0  0  0  0  0  0  0  0
    0.8675   -1.4978    0.0000 O   0  0  0  0  0  0  0  0  0  0  0  0
    0.8680   -0.4978    0.0000 C   0  0  0  0  0  0  0  0  0  0  0  0
    0.0000    0.0000    0.0000 C   0  0  0  0  0  0  0  0  0  0  0  0
   -0.0000    1.0058    0.0000 C   0  0  0  0  0  0  0  0  0  0  0  0
    0.8680    1.5138    0.0000 C   0  0  0  0  0  0  0  0  0  0  0  0
    1.7360    1.0058    0.0000 C   0  0  0  0  0  0  0  0  0  0  0  0
    1.7360   -0.0012    0.0000 C   0  0  0  0  0  0  0  0  0  0  0  0
    2.6938   -0.3125    0.0000 C   0  0  0  0  0  0  0  0  0  0  0  0
    3.2858    0.5023    0.0000 C   0  0  0  0  0  0  0  0  0  0  0  0
    2.6938    1.3169    0.0000 N   0  0  0  0  0  0  0  0  0  0  0  0
    3.0028   -1.2636    0.0000 C   0  0  0  0  0  0  0  0  0  0  0  0
    3.9809   -1.4715    0.0000 C   0  0  0  0  0  0  0  0  0  0  0  0
    4.2899   -2.4226    0.0000 N   0  0  0  0  0  0  0  0  0  0  0  0
    5.2680   -2.6306    0.0000 C   0  0  0  0  0  0  0  0  0  0  0  0
    5.9372   -1.8874    0.0000 O   0  0  0  0  0  0  0  0  0  0  0  0
    5.5770   -3.5816    0.0000 N   0  0  0  0  0  0  0  0  0  0  0  0
    6.5551   -3.7896    0.0000 N   0  0  0  0  0  0  0  0  0  0  0  0
  1  2  1  0  0  0  0
  2  3  1  0  0  0  0
  3  8  2  0  0  0  0
  3  4  1  0  0  0  0
  4  5  2  0  0  0  0
  5  6  1  0  0  0  0
  6  7  2  0  0  0  0
  7 11  1  0  0  0  0
  7  8  1  0  0  0  0
  8  9  1  0  0  0  0
  9 10  2  0  0  0  0
 10 11  1  0  0  0  0
  9 12  1  0  0  0  0
 12 13  1  0  0  0  0
 13 14  1  0  0  0  0
 14 15  1  0  0  0  0
 15 16  2  0  0  0  0
 15 17  1  0  0  0  0
 17 18  1  0  0  0  0
M  END
$$$$
s_2554____13978846____788524
  -OEChem-03222016482D

 17 18  0     0  0  0  0  0  0999 V2000
   -0.8705    2.5032    0.0000 C   0  0  0  0  0  0  0  0  0  0  0  0
   -0.8675    1.5032    0.0000 O   0  0  0  0  0  0  0  0  0  0  0  0
    0.0000    1.0058    0.0000 C   0  0  0  0  0  0  0  0  0  0  0  0
    0.0000    0.0000    0.0000 C   0  0  0  0  0  0  0  0  0  0  0  0
    0.8680   -0.4978    0.0000 C   0  0  0  0  0  0  0  0  0  0  0  0
    1.7360   -0.0012    0.0000 C   0  0  0  0  0  0  0  0  0  0  0  0
    1.7360    1.0058    0.0000 C   0  0  0  0  0  0  0  0  0  0  0  0
    0.8680    1.5138    0.0000 C   0  0  0  0  0  0  0  0  0  0  0  0
    2.6938    1.3169    0.0000 N   0  0  0  0  0  0  0  0  0  0  0  0
    3.2858    0.5023    0.0000 C   0  0  0  0  0  0  0  0  0  0  0  0
    2.6938   -0.3125    0.0000 C   0  0  0  0  0  0  0  0  0  0  0  0
    3.0028   -1.2636    0.0000 C   0  0  0  0  0  0  0  0  0  0  0  0
    3.9809   -1.4715    0.0000 C   0  0  0  0  0  0  0  0  0  0  0  0
    4.2899   -2.4226    0.0000 N   0  0  0  0  0  0  0  0  0  0  0  0
    5.2680   -2.6306    0.0000 C   0  0  0  0  0  0  0  0  0  0  0  0
    5.9372   -1.8874    0.0000 O   0  0  0  0  0  0  0  0  0  0  0  0
    5.5770   -3.5816    0.0000 N   0  0  0  0  0  0  0  0  0  0  0  0
  1  2  1  0  0  0  0
  2  3  1  0  0  0  0
  3  8  2  0  0  0  0
  3  4  1  0  0  0  0
  4  5  2  0  0  0  0
  5  6  1  0  0  0  0
  6 11  1  0  0  0  0
  6  7  2  0  0  0  0
  7  8  1  0  0  0  0
  7  9  1  0  0  0  0
  9 10  1  0  0  0  0
 10 11  2  0  0  0  0
 11 12  1  0  0  0  0
 12 13  1  0  0  0  0
 13 14  1  0  0  0  0
 14 15  1  0  0  0  0
 15 16  2  0  0  0  0
 15 17  1  0  0  0  0
M  END
$$$$
s_58____12370788____131253
  -OEChem-03222016482D

 21 22  0     0  0  0  0  0  0999 V2000
   -1.7320   -0.0025    0.0000 C   0  0  0  0  0  0  0  0  0  0  0  0
   -0.8653   -0.5013    0.0000 O   0  0  0  0  0  0  0  0  0  0  0  0
    0.0000    0.0000    0.0000 C   0  0  0  0  0  0  0  0  0  0  0  0
   -0.0000    1.0058    0.0000 C   0  0  0  0  0  0  0  0  0  0  0  0
    0.8680    1.5138    0.0000 C   0  0  0  0  0  0  0  0  0  0  0  0
    1.7360    1.0058    0.0000 C   0  0  0  0  0  0  0  0  0  0  0  0
    1.7360   -0.0012    0.0000 C   0  0  0  0  0  0  0  0  0  0  0  0
    0.8680   -0.4978    0.0000 C   0  0  0  0  0  0  0  0  0  0  0  0
    2.6938   -0.3125    0.0000 C   0  0  0  0  0  0  0  0  0  0  0  0
    3.2858    0.5023    0.0000 C   0  0  0  0  0  0  0  0  0  0  0  0
    2.6938    1.3169    0.0000 N   0  0  0  0  0  0  0  0  0  0  0  0
    3.0028   -1.2636    0.0000 C   0  0  0  0  0  0  0  0  0  0  0  0
    3.9809   -1.4715    0.0000 C   0  0  0  0  0  0  0  0  0  0  0  0
    4.2899   -2.4226    0.0000 N   0  0  0  0  0  0  0  0  0  0  0  0
    5.2680   -2.6306    0.0000 C   0  0  0  0  0  0  0  0  0  0  0  0
    5.9372   -1.8874    0.0000 O   0  0  0  0  0  0  0  0  0  0  0  0
    5.5770   -3.5816    0.0000 C   0  0  0  0  0  0  0  0  0  0  0  0
    6.5551   -3.7896    0.0000 C   0  0  0  0  0  0  0  0  0  0  0  0
    6.8641   -4.7407    0.0000 C   0  0  0  0  0  0  0  0  0  0  0  0
    6.1949   -5.4838    0.0000 O   0  0  0  0  0  0  0  0  0  0  0  0
    7.8422   -4.9486    0.0000 O   0  5  0  0  0  0  0  0  0  0  0  0
  1  2  1  0  0  0  0
  2  3  1  0  0  0  0
  3  8  2  0  0  0  0
  3  4  1  0  0  0  0
  4  5  2  0  0  0  0
  5  6  1  0  0  0  0
  6 11  1  0  0  0  0
  6  7  2  0  0  0  0
  7  8  1  0  0  0  0
  7  9  1  0  0  0  0
  9 10  2  0  0  0  0
 10 11  1  0  0  0  0
  9 12  1  0  0  0  0
 12 13  1  0  0  0  0
 13 14  1  0  0  0  0
 14 15  1  0  0  0  0
 15 16  2  0  0  0  0
 15 17  1  0  0  0  0
 17 18  1  0  0  0  0
 18 19  1  0  0  0  0
 19 20  2  0  0  0  0
 19 21  1  0  0  0  0
M  CHG  1  21  -1
M  END
$$$$
s_2554____9631380____788524
  -OEChem-03222016482D

 16 17  0     0  0  0  0  0  0999 V2000
   -0.0000    1.0058    0.0000 C   0  0  0  0  0  0  0  0  0  0  0  0
    0.8680    1.5138    0.0000 C   0  0  0  0  0  0  0  0  0  0  0  0
    1.7360    1.0058    0.0000 C   0  0  0  0  0  0  0  0  0  0  0  0
    1.7360   -0.0012    0.0000 C   0  0  0  0  0  0  0  0  0  0  0  0
    0.8680   -0.4978    0.0000 C   0  0  0  0  0  0  0  0  0  0  0  0
    0.0000    0.0000    0.0000 C   0  0  0  0  0  0  0  0  0  0  0  0
   -0.8653   -0.5013    0.0000 F   0  0  0  0  0  0  0  0  0  0  0  0
    2.6938   -0.3125    0.0000 C   0  0  0  0  0  0  0  0  0  0  0  0
    3.2858    0.5023    0.0000 C   0  0  0  0  0  0  0  0  0  0  0  0
    2.6938    1.3169    0.0000 N   0  0  0  0  0  0  0  0  0  0  0  0
    3.0028   -1.2636    0.0000 C   0  0  0  0  0  0  0  0  0  0  0  0
    3.9809   -1.4715    0.0000 C   0  0  0  0  0  0  0  0  0  0  0  0
    4.2899   -2.4226    0.0000 N   0  0  0  0  0  0  0  0  0  0  0  0
    5.2680   -2.6306    0.0000 C   0  0  0  0  0  0  0  0  0  0  0  0
    5.9372   -1.8874    0.0000 O   0  0  0  0  0  0  0  0  0  0  0  0
    5.5770   -3.5816    0.0000 N   0  0  0  0  0  0  0  0  0  0  0  0
  1  6  2  0  0  0  0
  1  2  1  0  0  0  0
  2  3  2  0  0  0  0
  3 10  1  0  0  0  0
  3  4  1  0  0  0  0
  4  5  2  0  0  0  0
  5  6  1  0  0  0  0
  6  7  1  0  0  0  0
  4  8  1  0  0  0  0
  8  9  2  0  0  0  0
  9 10  1  0  0  0  0
  8 11  1  0  0  0  0
 11 12  1  0  0  0  0
 12 13  1  0  0  0  0
 13 14  1  0  0  0  0
 14 15  2  0  0  0  0
 14 16  1  0  0  0  0
M  END
$$$$
s_240690b____7354388____3025692
  -OEChem-03222016482D

 19 20  0     1  0  0  0  0  0999 V2000
    4.9078   -4.3247    0.0000 C   0  0  0  0  0  0  0  0  0  0  0  0
    5.5770   -3.5816    0.0000 C   0  0  3  0  0  0  0  0  0  0  0  0
    5.2680   -2.6306    0.0000 C   0  0  0  0  0  0  0  0  0  0  0  0
    5.9372   -1.8874    0.0000 O   0  0  0  0  0  0  0  0  0  0  0  0
    4.2899   -2.4226    0.0000 N   0  0  0  0  0  0  0  0  0  0  0  0
    3.9809   -1.4715    0.0000 C   0  0  0  0  0  0  0  0  0  0  0  0
    3.0028   -1.2636    0.0000 C   0  0  0  0  0  0  0  0  0  0  0  0
    2.6938   -0.3125    0.0000 C   0  0  0  0  0  0  0  0  0  0  0  0
    3.2858    0.5023    0.0000 C   0  0  0  0  0  0  0  0  0  0  0  0
    2.6938    1.3169    0.0000 N   0  0  0  0  0  0  0  0  0  0  0  0
    1.7360    1.0058    0.0000 C   0  0  0  0  0  0  0  0  0  0  0  0
    1.7360   -0.0012    0.0000 C   0  0  0  0  0  0  0  0  0  0  0  0
    0.8680   -0.4978    0.0000 C   0  0  0  0  0  0  0  0  0  0  0  0
    0.0000    0.0000    0.0000 C   0  0  0  0  0  0  0  0  0  0  0  0
   -0.0000    1.0058    0.0000 C   0  0  0  0  0  0  0  0  0  0  0  0
    0.8680    1.5138    0.0000 C   0  0  0  0  0  0  0  0  0  0  0  0
   -0.8653   -0.5013    0.0000 O   0  0  0  0  0  0  0  0  0  0  0  0
   -0.8639   -1.5013    0.0000 C   0  0  0  0  0  0  0  0  0  0  0  0
    6.5551   -3.7896    0.0000 N   0  3  0  0  0  0  0  0  0  0  0  0
  1  2  1  0  0  0  0
  2  3  1  0  0  0  0
  3  4  2  0  0  0  0
  3  5  1  0  0  0  0
  5  6  1  0  0  0  0
  6  7  1  0  0  0  0
  7  8  1  0  0  0  0
  8 12  1  0  0  0  0
  8  9  2  0  0  0  0
  9 10  1  0  0  0  0
 10 11  1  0  0  0  0
 11 16  2  0  0  0  0
 11 12  1  0  0  0  0
 12 13  2  0  0  0  0
 13 14  1  0  0  0  0
 14 15  2  0  0  0  0
 15 16  1  0  0  0  0
 14 17  1  0  0  0  0
 17 18  1  0  0  0  0
  2 19  1  0  0  0  0
M  CHG  1  19   1
M  END
$$$$
s_22____9226532____58866
  -OEChem-03222016482D

 20 21  0     0  0  0  0  0  0999 V2000
    6.8641   -4.7407    0.0000 C   0  0  0  0  0  0  0  0  0  0  0  0
    6.5551   -3.7896    0.0000 C   0  0  0  0  0  0  0  0  0  0  0  0
    5.5770   -3.5816    0.0000 C   0  0  0  0  0  0  0  0  0  0  0  0
    5.2680   -2.6306    0.0000 C   0  0  0  0  0  0  0  0  0  0  0  0
    5.9372   -1.8874    0.0000 O   0  0  0  0  0  0  0  0  0  0  0  0
    4.2899   -2.4226    0.0000 N   0  0  0  0  0  0  0  0  0  0  0  0
    3.9809   -1.4715    0.0000 C   0  0  0  0  0  0  0  0  0  0  0  0
    3.0028   -1.2636    0.0000 C   0  0  0  0  0  0  0  0  0  0  0  0
    2.6938   -0.3125    0.0000 C   0  0  0  0  0  0  0  0  0  0  0  0
    3.2858    0.5023    0.0000 C   0  0  0  0  0  0  0  0  0  0  0  0
    2.6938    1.3169    0.0000 N   0  0  0  0  0  0  0  0  0  0  0  0
    1.7360    1.0058    0.0000 C   0  0  0  0  0  0  0  0  0  0  0  0
    1.7360   -0.0012    0.0000 C   0  0  0  0  0  0  0  0  0  0  0  0
    0.8680   -0.4978    0.0000 C   0  0  0  0  0  0  0  0  0  0  0  0
    0.0000    0.0000    0.0000 C   0  0  0  0  0  0  0  0  0  0  0  0
   -0.0000    1.0058    0.0000 C   0  0  0  0  0  0  0  0  0  0  0  0
    0.8680    1.5138    0.0000 C   0  0  0  0  0  0  0  0  0  0  0  0
    0.8675   -1.4978    0.0000 O   0  0  0  0  0  0  0  0  0  0  0  0
    1.7332   -1.9983    0.0000 C   0  0  0  0  0  0  0  0  0  0  0  0
    1.7327   -2.9983    0.0000 C   0  0  0  0  0  0  0  0  0  0  0  0
  1  2  1  0  0  0  0
  2  3  1  0  0  0  0
  3  4  1  0  0  0  0
  4  5  2  0  0  0  0
  4  6  1  0  0  0  0
  6  7  1  0  0  0  0
  7  8  1  0  0  0  0
  8  9  1  0  0  0  0
  9 13  1  0  0  0  0
  9 10  2  0  0  0  0
 10 11  1  0  0  0  0
 11 12  1  0  0  0  0
 12 17  2  0  0  0  0
 12 13  1  0  0  0  0
 13 14  2  0  0  0  0
 14 15  1  0  0  0  0
 15 16  2  0  0  0  0
 16 17  1  0  0  0  0
 14 18  1  0  0  0  0
 18 19  1  0  0  0  0
 19 20  1  0  0  0  0
M  END
$$$$
s_512____9045016____13025528
  -OEChem-03222016482D

 21 22  0     0  0  0  0  0  0999 V2000
    7.8422   -4.9486    0.0000 C   0  0  0  0  0  0  0  0  0  0  0  0
    6.8641   -4.7407    0.0000 C   0  0  0  0  0  0  0  0  0  0  0  0
    6.1949   -5.4838    0.0000 C   0  0  0  0  0  0  0  0  0  0  0  0
    6.5551   -3.7896    0.0000 C   0  0  0  0  0  0  0  0  0  0  0  0
    5.5770   -3.5816    0.0000 N   0  0  0  0  0  0  0  0  0  0  0  0
    5.2680   -2.6306    0.0000 C   0  0  0  0  0  0  0  0  0  0  0  0
    5.9372   -1.8874    0.0000 O   0  0  0  0  0  0  0  0  0  0  0  0
    4.2899   -2.4226    0.0000 N   0  0  0  0  0  0  0  0  0  0  0  0
    3.9809   -1.4715    0.0000 C   0  0  0  0  0  0  0  0  0  0  0  0
    3.0028   -1.2636    0.0000 C   0  0  0  0  0  0  0  0  0  0  0  0
    2.6938   -0.3125    0.0000 C   0  0  0  0  0  0  0  0  0  0  0  0
    3.2858    0.5023    0.0000 C   0  0  0  0  0  0  0  0  0  0  0  0
    2.6938    1.3169    0.0000 N   0  0  0  0  0  0  0  0  0  0  0  0
    1.7360    1.0058    0.0000 C   0  0  0  0  0  0  0  0  0  0  0  0
    1.7360   -0.0012    0.0000 C   0  0  0  0  0  0  0  0  0  0  0  0
    0.8680   -0.4978    0.0000 C   0  0  0  0  0  0  0  0  0  0  0  0
    0.0000    0.0000    0.0000 C   0  0  0  0  0  0  0  0  0  0  0  0
   -0.0000    1.0058    0.0000 C   0  0  0  0  0  0  0  0  0  0  0  0
    0.8680    1.5138    0.0000 C   0  0  0  0  0  0  0  0  0  0  0  0
    0.8675   -1.4978    0.0000 O   0  0  0  0  0  0  0  0  0  0  0  0
    1.7332   -1.9983    0.0000 C   0  0  0  0  0  0  0  0  0  0  0  0
  1  2  1  0  0  0  0
  2  3  2  0  0  0  0
  2  4  1  0  0  0  0
  4  5  1  0  0  0  0
  5  6  1  0  0  0  0
  6  7  2  0  0  0  0
  6  8  1  0  0  0  0
  8  9  1  0  0  0  0
  9 10  1  0  0  0  0
 10 11  1  0  0  0  0
 11 15  1  0  0  0  0
 11 12  2  0  0  0  0
 12 13  1  0  0  0  0
 13 14  1  0  0  0  0
 14 19  2  0  0  0  0
 14 15  1  0  0  0  0
 15 16  2  0  0  0  0
 16 17  1  0  0  0  0
 17 18  2  0  0  0  0
 18 19  1  0  0  0  0
 16 20  1  0  0  0  0
 20 21  1  0  0  0  0
M  END
$$$$
s_240690b____13025580____7368632
  -OEChem-03222016482D

 20 21  0     0  0  0  0  0  0999 V2000
    7.8422   -4.9486    0.0000 C   0  0  0  0  0  0  0  0  0  0  0  0
    6.8641   -4.7407    0.0000 C   0  0  0  0  0  0  0  0  0  0  0  0
    6.5551   -3.7896    0.0000 N   0  3  0  0  0  0  0  0  0  0  0  0
    5.5770   -3.5816    0.0000 C   0  0  0  0  0  0  0  0  0  0  0  0
    5.2680   -2.6306    0.0000 C   0  0  0  0  0  0  0  0  0  0  0  0
    5.9372   -1.8874    0.0000 O   0  0  0  0  0  0  0  0  0  0  0  0
    4.2899   -2.4226    0.0000 N   0  0  0  0  0  0  0  0  0  0  0  0
    3.9809   -1.4715    0.0000 C   0  0  0  0  0  0  0  0  0  0  0  0
    3.0028   -1.2636    0.0000 C   0  0  0  0  0  0  0  0  0  0  0  0
    2.6938   -0.3125    0.0000 C   0  0  0  0  0  0  0  0  0  0  0  0
    3.2858    0.5023    0.0000 C   0  0  0  0  0  0  0  0  0  0  0  0
    2.6938    1.3169    0.0000 N   0  0  0  0  0  0  0  0  0  0  0  0
    1.7360    1.0058    0.0000 C   0  0  0  0  0  0  0  0  0  0  0  0
    1.7360   -0.0012    0.0000 C   0  0  0  0  0  0  0  0  0  0  0  0
    0.8680   -0.4978    0.0000 C   0  0  0  0  0  0  0  0  0  0  0  0
    0.0000    0.0000    0.0000 C   0  0  0  0  0  0  0  0  0  0  0  0
   -0.0000    1.0058    0.0000 C   0  0  0  0  0  0  0  0  0  0  0  0
    0.8680    1.5138    0.0000 C   0  0  0  0  0  0  0  0  0  0  0  0
    0.8675   -1.4978    0.0000 O   0  0  0  0  0  0  0  0  0  0  0  0
    1.7332   -1.9983    0.0000 C   0  0  0  0  0  0  0  0  0  0  0  0
  1  2  1  0  0  0  0
  2  3  1  0  0  0  0
  3  4  1  0  0  0  0
  4  5  1  0  0  0  0
  5  6  2  0  0  0  0
  5  7  1  0  0  0  0
  7  8  1  0  0  0  0
  8  9  1  0  0  0  0
  9 10  1  0  0  0  0
 10 14  1  0  0  0  0
 10 11  2  0  0  0  0
 11 12  1  0  0  0  0
 12 13  1  0  0  0  0
 13 18  2  0  0  0  0
 13 14  1  0  0  0  0
 14 15  2  0  0  0  0
 15 16  1  0  0  0  0
 16 17  2  0  0  0  0
 17 18  1  0  0  0  0
 15 19  1  0  0  0  0
 19 20  1  0  0  0  0
M  CHG  1   3   1
M  END
$$$$
s_22____4839448____2009696
  -OEChem-03222016482D

 21 22  0     0  0  0  0  0  0999 V2000
    8.1512   -5.8997    0.0000 C   0  0  0  0  0  0  0  0  0  0  0  0
    7.8422   -4.9486    0.0000 C   0  0  0  0  0  0  0  0  0  0  0  0
    6.8641   -4.7407    0.0000 C   0  0  0  0  0  0  0  0  0  0  0  0
    6.5551   -3.7896    0.0000 O   0  0  0  0  0  0  0  0  0  0  0  0
    5.5770   -3.5816    0.0000 C   0  0  0  0  0  0  0  0  0  0  0  0
    5.2680   -2.6306    0.0000 C   0  0  0  0  0  0  0  0  0  0  0  0
    5.9372   -1.8874    0.0000 O   0  0  0  0  0  0  0  0  0  0  0  0
    4.2899   -2.4226    0.0000 N   0  0  0  0  0  0  0  0  0  0  0  0
    3.9809   -1.4715    0.0000 C   0  0  0  0  0  0  0  0  0  0  0  0
    3.0028   -1.2636    0.0000 C   0  0  0  0  0  0  0  0  0  0  0  0
    2.6938   -0.3125    0.0000 C   0  0  0  0  0  0  0  0  0  0  0  0
    3.2858    0.5023    0.0000 C   0  0  0  0  0  0  0  0  0  0  0  0
    2.6938    1.3169    0.0000 N   0  0  0  0  0  0  0  0  0  0  0  0
    1.7360    1.0058    0.0000 C   0  0  0  0  0  0  0  0  0  0  0  0
    1.7360   -0.0012    0.0000 C   0  0  0  0  0  0  0  0  0  0  0  0
    0.8680   -0.4978    0.0000 C   0  0  0  0  0  0  0  0  0  0  0  0
    0.0000    0.0000    0.0000 C   0  0  0  0  0  0  0  0  0  0  0  0
   -0.0000    1.0058    0.0000 C   0  0  0  0  0  0  0  0  0  0  0  0
    0.8680    1.5138    0.0000 C   0  0  0  0  0  0  0  0  0  0  0  0
   -0.8653   -0.5013    0.0000 O   0  0  0  0  0  0  0  0  0  0  0  0
   -0.8639   -1.5013    0.0000 C   0  0  0  0  0  0  0  0  0  0  0  0
  1  2  1  0  0  0  0
  2  3  1  0  0  0  0
  3  4  1  0  0  0  0
  4  5  1  0  0  0  0
  5  6  1  0  0  0  0
  6  7  2  0  0  0  0
  6  8  1  0  0  0  0
  8  9  1  0  0  0  0
  9 10  1  0  0  0  0
 10 11  1  0  0  0  0
 11 15  1  0  0  0  0
 11 12  2  0  0  0  0
 12 13  1  0  0  0  0
 13 14  1  0  0  0  0
 14 19  2  0  0  0  0
 14 15  1  0  0  0  0
 15 16  2  0  0  0  0
 16 17  1  0  0  0  0
 17 18  2  0  0  0  0
 18 19  1  0  0  0  0
 17 20  1  0  0  0  0
 20 21  1  0  0  0  0
M  END
$$$$
s_240690b____12854120____7368582
  -OEChem-03222016482D

 18 19  0     0  0  0  0  0  0999 V2000
    6.8641   -4.7407    0.0000 C   0  0  0  0  0  0  0  0  0  0  0  0
    6.5551   -3.7896    0.0000 N   0  3  0  0  0  0  0  0  0  0  0  0
    5.5770   -3.5816    0.0000 C   0  0  0  0  0  0  0  0  0  0  0  0
    5.2680   -2.6306    0.0000 C   0  0  0  0  0  0  0  0  0  0  0  0
    5.9372   -1.8874    0.0000 O   0  0  0  0  0  0  0  0  0  0  0  0
    4.2899   -2.4226    0.0000 N   0  0  0  0  0  0  0  0  0  0  0  0
    3.9809   -1.4715    0.0000 C   0  0  0  0  0  0  0  0  0  0  0  0
    3.0028   -1.2636    0.0000 C   0  0  0  0  0  0  0  0  0  0  0  0
    2.6938   -0.3125    0.0000 C   0  0  0  0  0  0  0  0  0  0  0  0
    3.2858    0.5023    0.0000 C   0  0  0  0  0  0  0  0  0  0  0  0
    2.6938    1.3169    0.0000 N   0  0  0  0  0  0  0  0  0  0  0  0
    1.7360    1.0058    0.0000 C   0  0  0  0  0  0  0  0  0  0  0  0
    1.7360   -0.0012    0.0000 C   0  0  0  0  0  0  0  0  0  0  0  0
    0.8680   -0.4978    0.0000 C   0  0  0  0  0  0  0  0  0  0  0  0
    0.0000    0.0000    0.0000 C   0  0  0  0  0  0  0  0  0  0  0  0
   -0.0000    1.0058    0.0000 C   0  0  0  0  0  0  0  0  0  0  0  0
    0.8680    1.5138    0.0000 C   0  0  0  0  0  0  0  0  0  0  0  0
   -0.8653   -0.5013    0.0000 Br  0  0  0  0  0  0  0  0  0  0  0  0
  1  2  1  0  0  0  0
  2  3  1  0  0  0  0
  3  4  1  0  0  0  0
  4  5  2  0  0  0  0
  4  6  1  0  0  0  0
  6  7  1  0  0  0  0
  7  8  1  0  0  0  0
  8  9  1  0  0  0  0
  9 13  1  0  0  0  0
  9 10  2  0  0  0  0
 10 11  1  0  0  0  0
 11 12  1  0  0  0  0
 12 17  2  0  0  0  0
 12 13  1  0  0  0  0
 13 14  2  0  0  0  0
 14 15  1  0  0  0  0
 15 16  2  0  0  0  0
 16 17  1  0  0  0  0
 15 18  1  0  0  0  0
M  CHG  1   2   1
M  END
$$$$
s_22____4839448____2757558
  -OEChem-03222016482D

 20 21  0     0  0  0  0  0  0999 V2000
   -1.7320   -0.0025    0.0000 C   0  0  0  0  0  0  0  0  0  0  0  0
   -0.8653   -0.5013    0.0000 O   0  0  0  0  0  0  0  0  0  0  0  0
    0.0000    0.0000    0.0000 C   0  0  0  0  0  0  0  0  0  0  0  0
   -0.0000    1.0058    0.0000 C   0  0  0  0  0  0  0  0  0  0  0  0
    0.8680    1.5138    0.0000 C   0  0  0  0  0  0  0  0  0  0  0  0
    1.7360    1.0058    0.0000 C   0  0  0  0  0  0  0  0  0  0  0  0
    1.7360   -0.0012    0.0000 C   0  0  0  0  0  0  0  0  0  0  0  0
    0.8680   -0.4978    0.0000 C   0  0  0  0  0  0  0  0  0  0  0  0
    2.6938   -0.3125    0.0000 C   0  0  0  0  0  0  0  0  0  0  0  0
    3.2858    0.5023    0.0000 C   0  0  0  0  0  0  0  0  0  0  0  0
    2.6938    1.3169    0.0000 N   0  0  0  0  0  0  0  0  0  0  0  0
    3.0028   -1.2636    0.0000 C   0  0  0  0  0  0  0  0  0  0  0  0
    3.9809   -1.4715    0.0000 C   0  0  0  0  0  0  0  0  0  0  0  0
    4.2899   -2.4226    0.0000 N   0  0  0  0  0  0  0  0  0  0  0  0
    5.2680   -2.6306    0.0000 C   0  0  0  0  0  0  0  0  0  0  0  0
    5.9372   -1.8874    0.0000 O   0  0  0  0  0  0  0  0  0  0  0  0
    5.5770   -3.5816    0.0000 C   0  0  0  0  0  0  0  0  0  0  0  0
    6.5551   -3.7896    0.0000 C   0  0  0  0  0  0  0  0  0  0  0  0
    6.8641   -4.7407    0.0000 C   0  0  0  0  0  0  0  0  0  0  0  0
    7.8422   -4.9486    0.0000 C   0  0  0  0  0  0  0  0  0  0  0  0
  1  2  1  0  0  0  0
  2  3  1  0  0  0  0
  3  8  2  0  0  0  0
  3  4  1  0  0  0  0
  4  5  2  0  0  0  0
  5  6  1  0  0  0  0
  6 11  1  0  0  0  0
  6  7  2  0  0  0  0
  7  8  1  0  0  0  0
  7  9  1  0  0  0  0
  9 10  2  0  0  0  0
 10 11  1  0  0  0  0
  9 12  1  0  0  0  0
 12 13  1  0  0  0  0
 13 14  1  0  0  0  0
 14 15  1  0  0  0  0
 15 16  2  0  0  0  0
 15 17  1  0  0  0  0
 17 18  1  0  0  0  0
 18 19  1  0  0  0  0
 19 20  2  0  0  0  0
M  END
$$$$
s_22____13978824____9156240
  -OEChem-03222016482D

 21 22  0     1  0  0  0  0  0999 V2000
    1.9222   -6.3461    0.0000 C   0  0  0  0  0  0  0  0  0  0  0  0
    1.6132   -5.3951    0.0000 C   0  0  0  0  0  0  0  0  0  0  0  0
    0.6351   -5.1871    0.0000 C   0  0  0  0  0  0  0  0  0  0  0  0
    2.2824   -4.6519    0.0000 C   0  0  3  0  0  0  0  0  0  0  0  0
    1.9734   -3.7009    0.0000 C   0  0  0  0  0  0  0  0  0  0  0  0
    0.9953   -3.4929    0.0000 O   0  0  0  0  0  0  0  0  0  0  0  0
    2.6426   -2.9578    0.0000 N   0  0  0  0  0  0  0  0  0  0  0  0
    2.3336   -2.0067    0.0000 C   0  0  0  0  0  0  0  0  0  0  0  0
    3.0028   -1.2636    0.0000 C   0  0  0  0  0  0  0  0  0  0  0  0
    2.6938   -0.3125    0.0000 C   0  0  0  0  0  0  0  0  0  0  0  0
    3.2858    0.5023    0.0000 C   0  0  0  0  0  0  0  0  0  0  0  0
    2.6938    1.3169    0.0000 N   0  0  0  0  0  0  0  0  0  0  0  0
    1.7360    1.0058    0.0000 C   0  0  0  0  0  0  0  0  0  0  0  0
    1.7360   -0.0012    0.0000 C   0  0  0  0  0  0  0  0  0  0  0  0
    0.8680   -0.4978    0.0000 C   0  0  0  0  0  0  0  0  0  0  0  0
    0.0000    0.0000    0.0000 C   0  0  0  0  0  0  0  0  0  0  0  0
   -0.0000    1.0058    0.0000 C   0  0  0  0  0  0  0  0  0  0  0  0
    0.8680    1.5138    0.0000 C   0  0  0  0  0  0  0  0  0  0  0  0
   -0.8675    1.5032    0.0000 O   0  0  0  0  0  0  0  0  0  0  0  0
   -1.7320    1.0007    0.0000 C   0  0  0  0  0  0  0  0  0  0  0  0
    3.2605   -4.8599    0.0000 F   0  0  0  0  0  0  0  0  0  0  0  0
  1  2  1  0  0  0  0
  2  3  1  0  0  0  0
  2  4  1  0  0  0  0
  4  5  1  0  0  0  0
  5  6  2  0  0  0  0
  5  7  1  0  0  0  0
  7  8  1  0  0  0  0
  8  9  1  0  0  0  0
  9 10  1  0  0  0  0
 10 14  1  0  0  0  0
 10 11  2  0  0  0  0
 11 12  1  0  0  0  0
 12 13  1  0  0  0  0
 13 18  2  0  0  0  0
 13 14  1  0  0  0  0
 14 15  2  0  0  0  0
 15 16  1  0  0  0  0
 16 17  2  0  0  0  0
 17 18  1  0  0  0  0
 17 19  1  0  0  0  0
 19 20  1  0  0  0  0
  4 21  1  0  0  0  0
M  END
$$$$
s_22____4839448____15789276
  -OEChem-03222016482D

 21 22  0     0  0  0  0  0  0999 V2000
   -1.7320   -0.0025    0.0000 C   0  0  0  0  0  0  0  0  0  0  0  0
   -0.8653   -0.5013    0.0000 O   0  0  0  0  0  0  0  0  0  0  0  0
    0.0000    0.0000    0.0000 C   0  0  0  0  0  0  0  0  0  0  0  0
   -0.0000    1.0058    0.0000 C   0  0  0  0  0  0  0  0  0  0  0  0
    0.8680    1.5138    0.0000 C   0  0  0  0  0  0  0  0  0  0  0  0
    1.7360    1.0058    0.0000 C   0  0  0  0  0  0  0  0  0  0  0  0
    1.7360   -0.0012    0.0000 C   0  0  0  0  0  0  0  0  0  0  0  0
    0.8680   -0.4978    0.0000 C   0  0  0  0  0  0  0  0  0  0  0  0
    2.6938   -0.3125    0.0000 C   0  0  0  0  0  0  0  0  0  0  0  0
    3.2858    0.5023    0.0000 C   0  0  0  0  0  0  0  0  0  0  0  0
    2.6938    1.3169    0.0000 N   0  0  0  0  0  0  0  0  0  0  0  0
    3.0028   -1.2636    0.0000 C   0  0  0  0  0  0  0  0  0  0  0  0
    3.9809   -1.4715    0.0000 C   0  0  0  0  0  0  0  0  0  0  0  0
    4.2899   -2.4226    0.0000 N   0  0  0  0  0  0  0  0  0  0  0  0
    5.2680   -2.6306    0.0000 C   0  0  0  0  0  0  0  0  0  0  0  0
    5.9372   -1.8874    0.0000 O   0  0  0  0  0  0  0  0  0  0  0  0
    5.5770   -3.5816    0.0000 C   0  0  0  0  0  0  0  0  0  0  0  0
    6.5551   -3.7896    0.0000 C   0  0  0  0  0  0  0  0  0  0  0  0
    6.8641   -4.7407    0.0000 N   0  0  0  0  0  0  0  0  0  0  0  0
    7.8422   -4.9486    0.0000 N   0  3  0  0  0  0  0  0  0  0  0  0
    8.8204   -5.1566    0.0000 N   0  5  0  0  0  0  0  0  0  0  0  0
  1  2  1  0  0  0  0
  2  3  1  0  0  0  0
  3  8  2  0  0  0  0
  3  4  1  0  0  0  0
  4  5  2  0  0  0  0
  5  6  1  0  0  0  0
  6 11  1  0  0  0  0
  6  7  2  0  0  0  0
  7  8  1  0  0  0  0
  7  9  1  0  0  0  0
  9 10  2  0  0  0  0
 10 11  1  0  0  0  0
  9 12  1  0  0  0  0
 12 13  1  0  0  0  0
 13 14  1  0  0  0  0
 14 15  1  0  0  0  0
 15 16  2  0  0  0  0
 15 17  1  0  0  0  0
 17 18  1  0  0  0  0
 18 19  1  0  0  0  0
 19 20  2  0  0  0  0
 20 21  2  0  0  0  0
M  CHG  2  20   1  21  -1
M  END
$$$$
s_270062____16424530____8147258
  -OEChem-03222016482D

 18 19  0     0  0  0  0  0  0999 V2000
    0.8680   -0.4978    0.0000 C   0  0  0  0  0  0  0  0  0  0  0  0
    0.0000    0.0000    0.0000 C   0  0  0  0  0  0  0  0  0  0  0  0
   -0.0000    1.0058    0.0000 C   0  0  0  0  0  0  0  0  0  0  0  0
    0.8680    1.5138    0.0000 C   0  0  0  0  0  0  0  0  0  0  0  0
    1.7360    1.0058    0.0000 C   0  0  0  0  0  0  0  0  0  0  0  0
    1.7360   -0.0012    0.0000 C   0  0  0  0  0  0  0  0  0  0  0  0
    2.6938   -0.3125    0.0000 C   0  0  0  0  0  0  0  0  0  0  0  0
    3.2858    0.5023    0.0000 C   0  0  0  0  0  0  0  0  0  0  0  0
    2.6938    1.3169    0.0000 N   0  0  0  0  0  0  0  0  0  0  0  0
    3.0028   -1.2636    0.0000 C   0  0  0  0  0  0  0  0  0  0  0  0
    3.9809   -1.4715    0.0000 C   0  0  0  0  0  0  0  0  0  0  0  0
    4.2899   -2.4226    0.0000 N   0  0  0  0  0  0  0  0  0  0  0  0
    5.2680   -2.6306    0.0000 C   0  0  0  0  0  0  0  0  0  0  0  0
    5.9372   -1.8874    0.0000 O   0  0  0  0  0  0  0  0  0  0  0  0
    5.5770   -3.5816    0.0000 C   0  0  0  0  0  0  0  0  0  0  0  0
    6.5551   -3.7896    0.0000 Cl  0  0  0  0  0  0  0  0  0  0  0  0
    0.8680    2.5138    0.0000 Cl  0  0  0  0  0  0  0  0  0  0  0  0
   -0.8653   -0.5013    0.0000 Cl  0  0  0  0  0  0  0  0  0  0  0  0
  1  6  2  0  0  0  0
  1  2  1  0  0  0  0
  2  3  2  0  0  0  0
  3  4  1  0  0  0  0
  4  5  2  0  0  0  0
  5  9  1  0  0  0  0
  5  6  1  0  0  0  0
  6  7  1  0  0  0  0
  7  8  2  0  0  0  0
  8  9  1  0  0  0  0
  7 10  1  0  0  0  0
 10 11  1  0  0  0  0
 11 12  1  0  0  0  0
 12 13  1  0  0  0  0
 13 14  2  0  0  0  0
 13 15  1  0  0  0  0
 15 16  1  0  0  0  0
  4 17  1  0  0  0  0
  2 18  1  0  0  0  0
M  END
$$$$
s_270062____7620740____8147258
  -OEChem-03222016482D

 17 18  0     0  0  0  0  0  0999 V2000
   -0.0000    1.0058    0.0000 C   0  0  0  0  0  0  0  0  0  0  0  0
    0.8680    1.5138    0.0000 C   0  0  0  0  0  0  0  0  0  0  0  0
    1.7360    1.0058    0.0000 C   0  0  0  0  0  0  0  0  0  0  0  0
    1.7360   -0.0012    0.0000 C   0  0  0  0  0  0  0  0  0  0  0  0
    0.8680   -0.4978    0.0000 C   0  0  0  0  0  0  0  0  0  0  0  0
    0.0000    0.0000    0.0000 C   0  0  0  0  0  0  0  0  0  0  0  0
   -0.8653   -0.5013    0.0000 Cl  0  0  0  0  0  0  0  0  0  0  0  0
    2.6938   -0.3125    0.0000 C   0  0  0  0  0  0  0  0  0  0  0  0
    3.2858    0.5023    0.0000 C   0  0  0  0  0  0  0  0  0  0  0  0
    2.6938    1.3169    0.0000 N   0  0  0  0  0  0  0  0  0  0  0  0
    3.0028   -1.2636    0.0000 C   0  0  0  0  0  0  0  0  0  0  0  0
    3.9809   -1.4715    0.0000 C   0  0  0  0  0  0  0  0  0  0  0  0
    4.2899   -2.4226    0.0000 N   0  0  0  0  0  0  0  0  0  0  0  0
    5.2680   -2.6306    0.0000 C   0  0  0  0  0  0  0  0  0  0  0  0
    5.9372   -1.8874    0.0000 O   0  0  0  0  0  0  0  0  0  0  0  0
    5.5770   -3.5816    0.0000 C   0  0  0  0  0  0  0  0  0  0  0  0
    6.5551   -3.7896    0.0000 Cl  0  0  0  0  0  0  0  0  0  0  0  0
  1  6  2  0  0  0  0
  1  2  1  0  0  0  0
  2  3  2  0  0  0  0
  3 10  1  0  0  0  0
  3  4  1  0  0  0  0
  4  5  2  0  0  0  0
  5  6  1  0  0  0  0
  6  7  1  0  0  0  0
  4  8  1  0  0  0  0
  8  9  2  0  0  0  0
  9 10  1  0  0  0  0
  8 11  1  0  0  0  0
 11 12  1  0  0  0  0
 12 13  1  0  0  0  0
 13 14  1  0  0  0  0
 14 15  2  0  0  0  0
 14 16  1  0  0  0  0
 16 17  1  0  0  0  0
M  END
$$$$
s_22____15506616____58866
  -OEChem-03222016482D

 19 20  0     0  0  0  0  0  0999 V2000
    6.8641   -4.7407    0.0000 C   0  0  0  0  0  0  0  0  0  0  0  0
    6.5551   -3.7896    0.0000 C   0  0  0  0  0  0  0  0  0  0  0  0
    5.5770   -3.5816    0.0000 C   0  0  0  0  0  0  0  0  0  0  0  0
    5.2680   -2.6306    0.0000 C   0  0  0  0  0  0  0  0  0  0  0  0
    5.9372   -1.8874    0.0000 O   0  0  0  0  0  0  0  0  0  0  0  0
    4.2899   -2.4226    0.0000 N   0  0  0  0  0  0  0  0  0  0  0  0
    3.9809   -1.4715    0.0000 C   0  0  0  0  0  0  0  0  0  0  0  0
    3.0028   -1.2636    0.0000 C   0  0  0  0  0  0  0  0  0  0  0  0
    2.6938   -0.3125    0.0000 C   0  0  0  0  0  0  0  0  0  0  0  0
    3.2858    0.5023    0.0000 C   0  0  0  0  0  0  0  0  0  0  0  0
    2.6938    1.3169    0.0000 N   0  0  0  0  0  0  0  0  0  0  0  0
    1.7360    1.0058    0.0000 C   0  0  0  0  0  0  0  0  0  0  0  0
    1.7360   -0.0012    0.0000 C   0  0  0  0  0  0  0  0  0  0  0  0
    0.8680   -0.4978    0.0000 C   0  0  0  0  0  0  0  0  0  0  0  0
    0.0000    0.0000    0.0000 C   0  0  0  0  0  0  0  0  0  0  0  0
   -0.0000    1.0058    0.0000 C   0  0  0  0  0  0  0  0  0  0  0  0
    0.8680    1.5138    0.0000 C   0  0  0  0  0  0  0  0  0  0  0  0
    0.8680    2.5138    0.0000 O   0  0  0  0  0  0  0  0  0  0  0  0
    0.0020    3.0138    0.0000 C   0  0  0  0  0  0  0  0  0  0  0  0
  1  2  1  0  0  0  0
  2  3  1  0  0  0  0
  3  4  1  0  0  0  0
  4  5  2  0  0  0  0
  4  6  1  0  0  0  0
  6  7  1  0  0  0  0
  7  8  1  0  0  0  0
  8  9  1  0  0  0  0
  9 13  1  0  0  0  0
  9 10  2  0  0  0  0
 10 11  1  0  0  0  0
 11 12  1  0  0  0  0
 12 17  2  0  0  0  0
 12 13  1  0  0  0  0
 13 14  2  0  0  0  0
 14 15  1  0  0  0  0
 15 16  2  0  0  0  0
 16 17  1  0  0  0  0
 17 18  1  0  0  0  0
 18 19  1  0  0  0  0
M  END
$$$$
s_512____15075154____13978836
  -OEChem-03222016482D

 21 22  0     0  0  0  0  0  0999 V2000
   -0.8705    2.5032    0.0000 C   0  0  0  0  0  0  0  0  0  0  0  0
   -0.8675    1.5032    0.0000 O   0  0  0  0  0  0  0  0  0  0  0  0
    0.0000    1.0058    0.0000 C   0  0  0  0  0  0  0  0  0  0  0  0
    0.0000    0.0000    0.0000 C   0  0  0  0  0  0  0  0  0  0  0  0
    0.8680   -0.4978    0.0000 C   0  0  0  0  0  0  0  0  0  0  0  0
    1.7360   -0.0012    0.0000 C   0  0  0  0  0  0  0  0  0  0  0  0
    1.7360    1.0058    0.0000 C   0  0  0  0  0  0  0  0  0  0  0  0
    0.8680    1.5138    0.0000 C   0  0  0  0  0  0  0  0  0  0  0  0
    2.6938    1.3169    0.0000 N   0  0  0  0  0  0  0  0  0  0  0  0
    3.2858    0.5023    0.0000 C   0  0  0  0  0  0  0  0  0  0  0  0
    2.6938   -0.3125    0.0000 C   0  0  0  0  0  0  0  0  0  0  0  0
    3.0028   -1.2636    0.0000 C   0  0  0  0  0  0  0  0  0  0  0  0
    3.9809   -1.4715    0.0000 C   0  0  0  0  0  0  0  0  0  0  0  0
    4.2899   -2.4226    0.0000 N   0  0  0  0  0  0  0  0  0  0  0  0
    5.2680   -2.6306    0.0000 C   0  0  0  0  0  0  0  0  0  0  0  0
    5.9372   -1.8874    0.0000 O   0  0  0  0  0  0  0  0  0  0  0  0
    5.5770   -3.5816    0.0000 N   0  0  0  0  0  0  0  0  0  0  0  0
    6.5551   -3.7896    0.0000 C   0  0  0  0  0  0  0  0  0  0  0  0
    6.8641   -4.7407    0.0000 C   0  0  0  0  0  0  0  0  0  0  0  0
    7.8422   -4.9486    0.0000 C   0  0  0  0  0  0  0  0  0  0  0  0
    8.1512   -5.8997    0.0000 Br  0  0  0  0  0  0  0  0  0  0  0  0
  1  2  1  0  0  0  0
  2  3  1  0  0  0  0
  3  8  2  0  0  0  0
  3  4  1  0  0  0  0
  4  5  2  0  0  0  0
  5  6  1  0  0  0  0
  6 11  1  0  0  0  0
  6  7  2  0  0  0  0
  7  8  1  0  0  0  0
  7  9  1  0  0  0  0
  9 10  1  0  0  0  0
 10 11  2  0  0  0  0
 11 12  1  0  0  0  0
 12 13  1  0  0  0  0
 13 14  1  0  0  0  0
 14 15  1  0  0  0  0
 15 16  2  0  0  0  0
 15 17  1  0  0  0  0
 17 18  1  0  0  0  0
 18 19  1  0  0  0  0
 19 20  2  3  0  0  0
 20 21  1  0  0  0  0
M  END
$$$$
s_22____13025516____2989428
  -OEChem-03222016482D

 20 21  0     0  0  0  0  0  0999 V2000
    6.8641   -4.7407    0.0000 C   0  0  0  0  0  0  0  0  0  0  0  0
    6.5551   -3.7896    0.0000 N   0  3  0  0  0  0  0  0  0  0  0  0
    7.2243   -3.0465    0.0000 C   0  0  0  0  0  0  0  0  0  0  0  0
    5.5770   -3.5816    0.0000 C   0  0  0  0  0  0  0  0  0  0  0  0
    5.2680   -2.6306    0.0000 C   0  0  0  0  0  0  0  0  0  0  0  0
    5.9372   -1.8874    0.0000 O   0  0  0  0  0  0  0  0  0  0  0  0
    4.2899   -2.4226    0.0000 N   0  0  0  0  0  0  0  0  0  0  0  0
    3.9809   -1.4715    0.0000 C   0  0  0  0  0  0  0  0  0  0  0  0
    3.0028   -1.2636    0.0000 C   0  0  0  0  0  0  0  0  0  0  0  0
    2.6938   -0.3125    0.0000 C   0  0  0  0  0  0  0  0  0  0  0  0
    3.2858    0.5023    0.0000 C   0  0  0  0  0  0  0  0  0  0  0  0
    2.6938    1.3169    0.0000 N   0  0  0  0  0  0  0  0  0  0  0  0
    1.7360    1.0058    0.0000 C   0  0  0  0  0  0  0  0  0  0  0  0
    1.7360   -0.0012    0.0000 C   0  0  0  0  0  0  0  0  0  0  0  0
    0.8680   -0.4978    0.0000 C   0  0  0  0  0  0  0  0  0  0  0  0
    0.0000    0.0000    0.0000 C   0  0  0  0  0  0  0  0  0  0  0  0
   -0.0000    1.0058    0.0000 C   0  0  0  0  0  0  0  0  0  0  0  0
    0.8680    1.5138    0.0000 C   0  0  0  0  0  0  0  0  0  0  0  0
    0.8675   -1.4978    0.0000 O   0  0  0  0  0  0  0  0  0  0  0  0
    1.7332   -1.9983    0.0000 C   0  0  0  0  0  0  0  0  0  0  0  0
  1  2  1  0  0  0  0
  2  3  1  0  0  0  0
  2  4  1  0  0  0  0
  4  5  1  0  0  0  0
  5  6  2  0  0  0  0
  5  7  1  0  0  0  0
  7  8  1  0  0  0  0
  8  9  1  0  0  0  0
  9 10  1  0  0  0  0
 10 14  1  0  0  0  0
 10 11  2  0  0  0  0
 11 12  1  0  0  0  0
 12 13  1  0  0  0  0
 13 18  2  0  0  0  0
 13 14  1  0  0  0  0
 14 15  2  0  0  0  0
 15 16  1  0  0  0  0
 16 17  2  0  0  0  0
 17 18  1  0  0  0  0
 15 19  1  0  0  0  0
 19 20  1  0  0  0  0
M  CHG  1   2   1
M  END
$$$$
s_240690b____16720624____3025680
  -OEChem-03222016482D

 18 19  0     0  0  0  0  0  0999 V2000
    0.0000    0.0000    0.0000 C   0  0  0  0  0  0  0  0  0  0  0  0
    0.8680   -0.4978    0.0000 C   0  0  0  0  0  0  0  0  0  0  0  0
    1.7360   -0.0012    0.0000 C   0  0  0  0  0  0  0  0  0  0  0  0
    2.6938   -0.3125    0.0000 C   0  0  0  0  0  0  0  0  0  0  0  0
    3.2858    0.5023    0.0000 C   0  0  0  0  0  0  0  0  0  0  0  0
    2.6938    1.3169    0.0000 N   0  0  0  0  0  0  0  0  0  0  0  0
    1.7360    1.0058    0.0000 C   0  0  0  0  0  0  0  0  0  0  0  0
    0.8680    1.5138    0.0000 C   0  0  0  0  0  0  0  0  0  0  0  0
    0.0000    1.0058    0.0000 C   0  0  0  0  0  0  0  0  0  0  0  0
    0.8680    2.5138    0.0000 Br  0  0  0  0  0  0  0  0  0  0  0  0
    3.0028   -1.2636    0.0000 C   0  0  0  0  0  0  0  0  0  0  0  0
    3.9809   -1.4715    0.0000 C   0  0  0  0  0  0  0  0  0  0  0  0
    4.2899   -2.4226    0.0000 N   0  0  0  0  0  0  0  0  0  0  0  0
    5.2680   -2.6306    0.0000 C   0  0  0  0  0  0  0  0  0  0  0  0
    5.9372   -1.8874    0.0000 O   0  0  0  0  0  0  0  0  0  0  0  0
    5.5770   -3.5816    0.0000 C   0  0  0  0  0  0  0  0  0  0  0  0
    6.5551   -3.7896    0.0000 C   0  0  0  0  0  0  0  0  0  0  0  0
    6.8641   -4.7407    0.0000 N   0  3  0  0  0  0  0  0  0  0  0  0
  1  9  2  0  0  0  0
  1  2  1  0  0  0  0
  2  3  2  0  0  0  0
  3  7  1  0  0  0  0
  3  4  1  0  0  0  0
  4  5  2  0  0  0  0
  5  6  1  0  0  0  0
  6  7  1  0  0  0  0
  7  8  2  0  0  0  0
  8  9  1  0  0  0  0
  8 10  1  0  0  0  0
  4 11  1  0  0  0  0
 11 12  1  0  0  0  0
 12 13  1  0  0  0  0
 13 14  1  0  0  0  0
 14 15  2  0  0  0  0
 14 16  1  0  0  0  0
 16 17  1  0  0  0  0
 17 18  1  0  0  0  0
M  CHG  1  18   1
M  END
$$$$
s_22____15506616____592954
  -OEChem-03222016482D

 20 22  0     0  0  0  0  0  0999 V2000
    1.7340    3.0138    0.0000 C   0  0  0  0  0  0  0  0  0  0  0  0
    0.8680    2.5138    0.0000 O   0  0  0  0  0  0  0  0  0  0  0  0
    0.8680    1.5138    0.0000 C   0  0  0  0  0  0  0  0  0  0  0  0
    0.0000    1.0058    0.0000 C   0  0  0  0  0  0  0  0  0  0  0  0
    0.0000    0.0000    0.0000 C   0  0  0  0  0  0  0  0  0  0  0  0
    0.8680   -0.4978    0.0000 C   0  0  0  0  0  0  0  0  0  0  0  0
    1.7360   -0.0012    0.0000 C   0  0  0  0  0  0  0  0  0  0  0  0
    1.7360    1.0058    0.0000 C   0  0  0  0  0  0  0  0  0  0  0  0
    2.6938    1.3169    0.0000 N   0  0  0  0  0  0  0  0  0  0  0  0
    3.2858    0.5023    0.0000 C   0  0  0  0  0  0  0  0  0  0  0  0
    2.6938   -0.3125    0.0000 C   0  0  0  0  0  0  0  0  0  0  0  0
    3.0028   -1.2636    0.0000 C   0  0  0  0  0  0  0  0  0  0  0  0
    3.9809   -1.4715    0.0000 C   0  0  0  0  0  0  0  0  0  0  0  0
    4.2899   -2.4226    0.0000 N   0  0  0  0  0  0  0  0  0  0  0  0
    5.2680   -2.6306    0.0000 C   0  0  0  0  0  0  0  0  0  0  0  0
    5.9372   -1.8874    0.0000 O   0  0  0  0  0  0  0  0  0  0  0  0
    5.5770   -3.5816    0.0000 C   0  0  0  0  0  0  0  0  0  0  0  0
    6.5551   -3.7896    0.0000 C   0  0  0  0  0  0  0  0  0  0  0  0
    7.3004   -4.4592    0.0000 C   0  0  0  0  0  0  0  0  0  0  0  0
    7.5083   -3.4811    0.0000 C   0  0  0  0  0  0  0  0  0  0  0  0
  1  2  1  0  0  0  0
  2  3  1  0  0  0  0
  3  8  2  0  0  0  0
  3  4  1  0  0  0  0
  4  5  2  0  0  0  0
  5  6  1  0  0  0  0
  6  7  2  0  0  0  0
  7 11  1  0  0  0  0
  7  8  1  0  0  0  0
  8  9  1  0  0  0  0
  9 10  1  0  0  0  0
 10 11  2  0  0  0  0
 11 12  1  0  0  0  0
 12 13  1  0  0  0  0
 13 14  1  0  0  0  0
 14 15  1  0  0  0  0
 15 16  2  0  0  0  0
 15 17  1  0  0  0  0
 17 18  1  0  0  0  0
 18 20  1  0  0  0  0
 18 19  1  0  0  0  0
 19 20  1  0  0  0  0
M  END
$$$$
s_240690b____13913110____13151248
  -OEChem-03222016482D

 19 20  0     1  0  0  0  0  0999 V2000
    1.3555   -1.7987    0.0000 C   0  0  0  0  0  0  0  0  0  0  0  0
    2.3336   -2.0067    0.0000 C   0  0  3  0  0  0  0  0  0  0  0  0
    3.0028   -1.2636    0.0000 C   0  0  0  0  0  0  0  0  0  0  0  0
    2.6938   -0.3125    0.0000 C   0  0  0  0  0  0  0  0  0  0  0  0
    3.2858    0.5023    0.0000 C   0  0  0  0  0  0  0  0  0  0  0  0
    2.6938    1.3169    0.0000 N   0  0  0  0  0  0  0  0  0  0  0  0
    1.7360    1.0058    0.0000 C   0  0  0  0  0  0  0  0  0  0  0  0
    1.7360   -0.0012    0.0000 C   0  0  0  0  0  0  0  0  0  0  0  0
    0.8680   -0.4978    0.0000 C   0  0  0  0  0  0  0  0  0  0  0  0
    0.0000    0.0000    0.0000 C   0  0  0  0  0  0  0  0  0  0  0  0
   -0.0000    1.0058    0.0000 C   0  0  0  0  0  0  0  0  0  0  0  0
    0.8680    1.5138    0.0000 C   0  0  0  0  0  0  0  0  0  0  0  0
   -0.8653   -0.5013    0.0000 F   0  0  0  0  0  0  0  0  0  0  0  0
    2.6426   -2.9578    0.0000 N   0  0  0  0  0  0  0  0  0  0  0  0
    1.9734   -3.7009    0.0000 C   0  0  0  0  0  0  0  0  0  0  0  0
    0.9953   -3.4929    0.0000 O   0  0  0  0  0  0  0  0  0  0  0  0
    2.2824   -4.6519    0.0000 C   0  0  0  0  0  0  0  0  0  0  0  0
    1.6132   -5.3951    0.0000 O   0  0  0  0  0  0  0  0  0  0  0  0
    1.9222   -6.3461    0.0000 N   0  0  0  0  0  0  0  0  0  0  0  0
  1  2  1  0  0  0  0
  2  3  1  0  0  0  0
  3  4  1  0  0  0  0
  4  8  1  0  0  0  0
  4  5  2  0  0  0  0
  5  6  1  0  0  0  0
  6  7  1  0  0  0  0
  7 12  2  0  0  0  0
  7  8  1  0  0  0  0
  8  9  2  0  0  0  0
  9 10  1  0  0  0  0
 10 11  2  0  0  0  0
 11 12  1  0  0  0  0
 10 13  1  0  0  0  0
  2 14  1  0  0  0  0
 14 15  1  0  0  0  0
 15 16  2  0  0  0  0
 15 17  1  0  0  0  0
 17 18  1  0  0  0  0
 18 19  1  0  0  0  0
M  END
$$$$
s_240690b____12854120____3025692
  -OEChem-03222016482D

 18 19  0     1  0  0  0  0  0999 V2000
    4.9078   -4.3247    0.0000 C   0  0  0  0  0  0  0  0  0  0  0  0
    5.5770   -3.5816    0.0000 C   0  0  3  0  0  0  0  0  0  0  0  0
    5.2680   -2.6306    0.0000 C   0  0  0  0  0  0  0  0  0  0  0  0
    5.9372   -1.8874    0.0000 O   0  0  0  0  0  0  0  0  0  0  0  0
    4.2899   -2.4226    0.0000 N   0  0  0  0  0  0  0  0  0  0  0  0
    3.9809   -1.4715    0.0000 C   0  0  0  0  0  0  0  0  0  0  0  0
    3.0028   -1.2636    0.0000 C   0  0  0  0  0  0  0  0  0  0  0  0
    2.6938   -0.3125    0.0000 C   0  0  0  0  0  0  0  0  0  0  0  0
    3.2858    0.5023    0.0000 C   0  0  0  0  0  0  0  0  0  0  0  0
    2.6938    1.3169    0.0000 N   0  0  0  0  0  0  0  0  0  0  0  0
    1.7360    1.0058    0.0000 C   0  0  0  0  0  0  0  0  0  0  0  0
    1.7360   -0.0012    0.0000 C   0  0  0  0  0  0  0  0  0  0  0  0
    0.8680   -0.4978    0.0000 C   0  0  0  0  0  0  0  0  0  0  0  0
    0.0000    0.0000    0.0000 C   0  0  0  0  0  0  0  0  0  0  0  0
   -0.0000    1.0058    0.0000 C   0  0  0  0  0  0  0  0  0  0  0  0
    0.8680    1.5138    0.0000 C   0  0  0  0  0  0  0  0  0  0  0  0
   -0.8653   -0.5013    0.0000 Br  0  0  0  0  0  0  0  0  0  0  0  0
    6.5551   -3.7896    0.0000 N   0  3  0  0  0  0  0  0  0  0  0  0
  1  2  1  0  0  0  0
  2  3  1  0  0  0  0
  3  4  2  0  0  0  0
  3  5  1  0  0  0  0
  5  6  1  0  0  0  0
  6  7  1  0  0  0  0
  7  8  1  0  0  0  0
  8 12  1  0  0  0  0
  8  9  2  0  0  0  0
  9 10  1  0  0  0  0
 10 11  1  0  0  0  0
 11 16  2  0  0  0  0
 11 12  1  0  0  0  0
 12 13  2  0  0  0  0
 13 14  1  0  0  0  0
 14 15  2  0  0  0  0
 15 16  1  0  0  0  0
 14 17  1  0  0  0  0
  2 18  1  0  0  0  0
M  CHG  1  18   1
M  END
$$$$
s_22____15754586____17543248
  -OEChem-03222016482D

 20 21  0     1  0  0  0  0  0999 V2000
    3.9809   -1.4715    0.0000 C   0  0  0  0  0  0  0  0  0  0  0  0
    3.0028   -1.2636    0.0000 C   0  0  3  0  0  0  0  0  0  0  0  0
    2.3336   -2.0067    0.0000 C   0  0  0  0  0  0  0  0  0  0  0  0
    2.6426   -2.9578    0.0000 N   0  0  0  0  0  0  0  0  0  0  0  0
    1.9734   -3.7009    0.0000 C   0  0  0  0  0  0  0  0  0  0  0  0
    0.9953   -3.4929    0.0000 O   0  0  0  0  0  0  0  0  0  0  0  0
    2.2824   -4.6519    0.0000 C   0  0  0  0  0  0  0  0  0  0  0  0
    1.6132   -5.3951    0.0000 C   0  0  0  0  0  0  0  0  0  0  0  0
    0.9440   -6.1382    0.0000 C   0  0  0  0  0  0  0  0  0  0  0  0
    2.6938   -0.3125    0.0000 C   0  0  0  0  0  0  0  0  0  0  0  0
    3.2858    0.5023    0.0000 C   0  0  0  0  0  0  0  0  0  0  0  0
    2.6938    1.3169    0.0000 N   0  0  0  0  0  0  0  0  0  0  0  0
    1.7360    1.0058    0.0000 C   0  0  0  0  0  0  0  0  0  0  0  0
    1.7360   -0.0012    0.0000 C   0  0  0  0  0  0  0  0  0  0  0  0
    0.8680   -0.4978    0.0000 C   0  0  0  0  0  0  0  0  0  0  0  0
    0.0000    0.0000    0.0000 C   0  0  0  0  0  0  0  0  0  0  0  0
   -0.0000    1.0058    0.0000 C   0  0  0  0  0  0  0  0  0  0  0  0
    0.8680    1.5138    0.0000 C   0  0  0  0  0  0  0  0  0  0  0  0
   -0.8653   -0.5013    0.0000 O   0  0  0  0  0  0  0  0  0  0  0  0
   -0.8639   -1.5013    0.0000 C   0  0  0  0  0  0  0  0  0  0  0  0
  1  2  1  0  0  0  0
  2  3  1  0  0  0  0
  3  4  1  0  0  0  0
  4  5  1  0  0  0  0
  5  6  2  0  0  0  0
  5  7  1  0  0  0  0
  7  8  2  0  0  0  0
  8  9  2  0  0  0  0
  2 10  1  0  0  0  0
 10 14  1  0  0  0  0
 10 11  2  0  0  0  0
 11 12  1  0  0  0  0
 12 13  1  0  0  0  0
 13 18  2  0  0  0  0
 13 14  1  0  0  0  0
 14 15  2  0  0  0  0
 15 16  1  0  0  0  0
 16 17  2  0  0  0  0
 17 18  1  0  0  0  0
 16 19  1  0  0  0  0
 19 20  1  0  0  0  0
M  END
$$$$
s_512____158537____13978836
  -OEChem-03222016482D

 20 21  0     0  0  0  0  0  0999 V2000
    1.9222   -6.3461    0.0000 C   0  0  0  0  0  0  0  0  0  0  0  0
    1.6132   -5.3951    0.0000 C   0  0  0  0  0  0  0  0  0  0  0  0
    0.6351   -5.1871    0.0000 C   0  0  0  0  0  0  0  0  0  0  0  0
    2.2824   -4.6519    0.0000 N   0  0  0  0  0  0  0  0  0  0  0  0
    1.9734   -3.7009    0.0000 C   0  0  0  0  0  0  0  0  0  0  0  0
    0.9953   -3.4929    0.0000 O   0  0  0  0  0  0  0  0  0  0  0  0
    2.6426   -2.9578    0.0000 N   0  0  0  0  0  0  0  0  0  0  0  0
    2.3336   -2.0067    0.0000 C   0  0  0  0  0  0  0  0  0  0  0  0
    3.0028   -1.2636    0.0000 C   0  0  0  0  0  0  0  0  0  0  0  0
    2.6938   -0.3125    0.0000 C   0  0  0  0  0  0  0  0  0  0  0  0
    3.2858    0.5023    0.0000 C   0  0  0  0  0  0  0  0  0  0  0  0
    2.6938    1.3169    0.0000 N   0  0  0  0  0  0  0  0  0  0  0  0
    1.7360    1.0058    0.0000 C   0  0  0  0  0  0  0  0  0  0  0  0
    1.7360   -0.0012    0.0000 C   0  0  0  0  0  0  0  0  0  0  0  0
    0.8680   -0.4978    0.0000 C   0  0  0  0  0  0  0  0  0  0  0  0
    0.0000    0.0000    0.0000 C   0  0  0  0  0  0  0  0  0  0  0  0
   -0.0000    1.0058    0.0000 C   0  0  0  0  0  0  0  0  0  0  0  0
    0.8680    1.5138    0.0000 C   0  0  0  0  0  0  0  0  0  0  0  0
   -0.8675    1.5032    0.0000 O   0  0  0  0  0  0  0  0  0  0  0  0
   -1.7320    1.0007    0.0000 C   0  0  0  0  0  0  0  0  0  0  0  0
  1  2  1  0  0  0  0
  2  3  1  0  0  0  0
  2  4  1  0  0  0  0
  4  5  1  0  0  0  0
  5  6  2  0  0  0  0
  5  7  1  0  0  0  0
  7  8  1  0  0  0  0
  8  9  1  0  0  0  0
  9 10  1  0  0  0  0
 10 14  1  0  0  0  0
 10 11  2  0  0  0  0
 11 12  1  0  0  0  0
 12 13  1  0  0  0  0
 13 18  2  0  0  0  0
 13 14  1  0  0  0  0
 14 15  2  0  0  0  0
 15 16  1  0  0  0  0
 16 17  2  0  0  0  0
 17 18  1  0  0  0  0
 17 19  1  0  0  0  0
 19 20  1  0  0  0  0
M  END
$$$$
s_273464b____13771102____11234894
  -OEChem-03222016482D

 20 21  0     0  0  0  0  0  0999 V2000
   -3.4641   -0.0050    0.0000 C   0  0  0  0  0  0  0  0  0  0  0  0
   -2.5974   -0.5038    0.0000 C   0  0  0  0  0  0  0  0  0  0  0  0
   -1.7320   -0.0025    0.0000 C   0  0  0  0  0  0  0  0  0  0  0  0
   -0.8653   -0.5013    0.0000 O   0  0  0  0  0  0  0  0  0  0  0  0
    0.0000    0.0000    0.0000 C   0  0  0  0  0  0  0  0  0  0  0  0
   -0.0000    1.0058    0.0000 C   0  0  0  0  0  0  0  0  0  0  0  0
    0.8680    1.5138    0.0000 C   0  0  0  0  0  0  0  0  0  0  0  0
    1.7360    1.0058    0.0000 C   0  0  0  0  0  0  0  0  0  0  0  0
    1.7360   -0.0012    0.0000 C   0  0  0  0  0  0  0  0  0  0  0  0
    0.8680   -0.4978    0.0000 C   0  0  0  0  0  0  0  0  0  0  0  0
    2.6938   -0.3125    0.0000 C   0  0  0  0  0  0  0  0  0  0  0  0
    3.2858    0.5023    0.0000 C   0  0  0  0  0  0  0  0  0  0  0  0
    2.6938    1.3169    0.0000 N   0  0  0  0  0  0  0  0  0  0  0  0
    3.0028   -1.2636    0.0000 C   0  0  0  0  0  0  0  0  0  0  0  0
    3.9809   -1.4715    0.0000 C   0  0  0  0  0  0  0  0  0  0  0  0
    4.2899   -2.4226    0.0000 N   0  0  0  0  0  0  0  0  0  0  0  0
    5.2680   -2.6306    0.0000 C   0  0  0  0  0  0  0  0  0  0  0  0
    5.9372   -1.8874    0.0000 O   0  0  0  0  0  0  0  0  0  0  0  0
    5.5770   -3.5816    0.0000 N   0  0  0  0  0  0  0  0  0  0  0  0
    6.5551   -3.7896    0.0000 N   0  0  0  0  0  0  0  0  0  0  0  0
  1  2  1  0  0  0  0
  2  3  1  0  0  0  0
  3  4  1  0  0  0  0
  4  5  1  0  0  0  0
  5 10  2  0  0  0  0
  5  6  1  0  0  0  0
  6  7  2  0  0  0  0
  7  8  1  0  0  0  0
  8 13  1  0  0  0  0
  8  9  2  0  0  0  0
  9 10  1  0  0  0  0
  9 11  1  0  0  0  0
 11 12  2  0  0  0  0
 12 13  1  0  0  0  0
 11 14  1  0  0  0  0
 14 15  1  0  0  0  0
 15 16  1  0  0  0  0
 16 17  1  0  0  0  0
 17 18  2  0  0  0  0
 17 19  1  0  0  0  0
 19 20  1  0  0  0  0
M  END
$$$$
s_270006b____8394006____11615886
  -OEChem-03222016482D

 21 22  0     0  0  0  0  0  0999 V2000
   -1.7320   -0.0025    0.0000 C   0  0  0  0  0  0  0  0  0  0  0  0
   -0.8653   -0.5013    0.0000 O   0  0  0  0  0  0  0  0  0  0  0  0
    0.0000    0.0000    0.0000 C   0  0  0  0  0  0  0  0  0  0  0  0
   -0.0000    1.0058    0.0000 C   0  0  0  0  0  0  0  0  0  0  0  0
    0.8680    1.5138    0.0000 C   0  0  0  0  0  0  0  0  0  0  0  0
    1.7360    1.0058    0.0000 C   0  0  0  0  0  0  0  0  0  0  0  0
    1.7360   -0.0012    0.0000 C   0  0  0  0  0  0  0  0  0  0  0  0
    0.8680   -0.4978    0.0000 C   0  0  0  0  0  0  0  0  0  0  0  0
    2.6938   -0.3125    0.0000 C   0  0  0  0  0  0  0  0  0  0  0  0
    3.2858    0.5023    0.0000 C   0  0  0  0  0  0  0  0  0  0  0  0
    2.6938    1.3169    0.0000 N   0  0  0  0  0  0  0  0  0  0  0  0
    3.0028   -1.2636    0.0000 C   0  0  0  0  0  0  0  0  0  0  0  0
    3.9809   -1.4715    0.0000 C   0  0  0  0  0  0  0  0  0  0  0  0
    4.2899   -2.4226    0.0000 N   0  0  0  0  0  0  0  0  0  0  0  0
    5.2680   -2.6306    0.0000 C   0  0  0  0  0  0  0  0  0  0  0  0
    5.9372   -1.8874    0.0000 O   0  0  0  0  0  0  0  0  0  0  0  0
    5.5770   -3.5816    0.0000 C   0  0  0  0  0  0  0  0  0  0  0  0
    6.5551   -3.7896    0.0000 O   0  0  0  0  0  0  0  0  0  0  0  0
    6.8641   -4.7407    0.0000 C   0  0  0  0  0  0  0  0  0  0  0  0
    7.8422   -4.9486    0.0000 C   0  0  0  0  0  0  0  0  0  0  0  0
    8.1512   -5.8997    0.0000 N   0  3  0  0  0  0  0  0  0  0  0  0
  1  2  1  0  0  0  0
  2  3  1  0  0  0  0
  3  8  2  0  0  0  0
  3  4  1  0  0  0  0
  4  5  2  0  0  0  0
  5  6  1  0  0  0  0
  6 11  1  0  0  0  0
  6  7  2  0  0  0  0
  7  8  1  0  0  0  0
  7  9  1  0  0  0  0
  9 10  2  0  0  0  0
 10 11  1  0  0  0  0
  9 12  1  0  0  0  0
 12 13  1  0  0  0  0
 13 14  1  0  0  0  0
 14 15  1  0  0  0  0
 15 16  2  0  0  0  0
 15 17  1  0  0  0  0
 17 18  1  0  0  0  0
 18 19  1  0  0  0  0
 19 20  1  0  0  0  0
 20 21  1  0  0  0  0
M  CHG  1  21   1
M  END
$$$$
s_22____16900452____8794444
  -OEChem-03222016482D

 18 19  0     0  0  0  0  0  0999 V2000
   -0.0000    1.0058    0.0000 C   0  0  0  0  0  0  0  0  0  0  0  0
    0.8680    1.5138    0.0000 C   0  0  0  0  0  0  0  0  0  0  0  0
    1.7360    1.0058    0.0000 C   0  0  0  0  0  0  0  0  0  0  0  0
    1.7360   -0.0012    0.0000 C   0  0  0  0  0  0  0  0  0  0  0  0
    0.8680   -0.4978    0.0000 C   0  0  0  0  0  0  0  0  0  0  0  0
    0.0000    0.0000    0.0000 C   0  0  0  0  0  0  0  0  0  0  0  0
    0.8675   -1.4978    0.0000 F   0  0  0  0  0  0  0  0  0  0  0  0
    2.6938   -0.3125    0.0000 C   0  0  0  0  0  0  0  0  0  0  0  0
    3.2858    0.5023    0.0000 C   0  0  0  0  0  0  0  0  0  0  0  0
    2.6938    1.3169    0.0000 N   0  0  0  0  0  0  0  0  0  0  0  0
    3.0028   -1.2636    0.0000 C   0  0  0  0  0  0  0  0  0  0  0  0
    3.9809   -1.4715    0.0000 C   0  0  0  0  0  0  0  0  0  0  0  0
    4.2899   -2.4226    0.0000 N   0  0  0  0  0  0  0  0  0  0  0  0
    5.2680   -2.6306    0.0000 C   0  0  0  0  0  0  0  0  0  0  0  0
    5.9372   -1.8874    0.0000 O   0  0  0  0  0  0  0  0  0  0  0  0
    5.5770   -3.5816    0.0000 C   0  0  0  0  0  0  0  0  0  0  0  0
    6.5551   -3.7896    0.0000 C   0  0  0  0  0  0  0  0  0  0  0  0
    7.5333   -3.9976    0.0000 N   0  0  0  0  0  0  0  0  0  0  0  0
  1  6  2  0  0  0  0
  1  2  1  0  0  0  0
  2  3  2  0  0  0  0
  3 10  1  0  0  0  0
  3  4  1  0  0  0  0
  4  5  2  0  0  0  0
  5  6  1  0  0  0  0
  5  7  1  0  0  0  0
  4  8  1  0  0  0  0
  8  9  2  0  0  0  0
  9 10  1  0  0  0  0
  8 11  1  0  0  0  0
 11 12  1  0  0  0  0
 12 13  1  0  0  0  0
 13 14  1  0  0  0  0
 14 15  2  0  0  0  0
 14 16  1  0  0  0  0
 16 17  1  0  0  0  0
 17 18  3  0  0  0  0
M  END
$$$$
s_270062____15561864____15585492
  -OEChem-03222016482D

 18 19  0     0  0  0  0  0  0999 V2000
    6.2462   -2.8385    0.0000 C   0  0  0  0  0  0  0  0  0  0  0  0
    5.2680   -2.6306    0.0000 C   0  0  0  0  0  0  0  0  0  0  0  0
    4.5988   -3.3737    0.0000 O   0  0  0  0  0  0  0  0  0  0  0  0
    4.9590   -1.6795    0.0000 N   0  0  0  0  0  0  0  0  0  0  0  0
    3.9809   -1.4715    0.0000 C   0  0  0  0  0  0  0  0  0  0  0  0
    4.1889   -0.4934    0.0000 C   0  0  0  0  0  0  0  0  0  0  0  0
    3.7729   -2.4497    0.0000 C   0  0  0  0  0  0  0  0  0  0  0  0
    3.0028   -1.2636    0.0000 C   0  0  0  0  0  0  0  0  0  0  0  0
    2.6938   -0.3125    0.0000 C   0  0  0  0  0  0  0  0  0  0  0  0
    3.2858    0.5023    0.0000 C   0  0  0  0  0  0  0  0  0  0  0  0
    2.6938    1.3169    0.0000 N   0  0  0  0  0  0  0  0  0  0  0  0
    1.7360    1.0058    0.0000 C   0  0  0  0  0  0  0  0  0  0  0  0
    1.7360   -0.0012    0.0000 C   0  0  0  0  0  0  0  0  0  0  0  0
    0.8680   -0.4978    0.0000 C   0  0  0  0  0  0  0  0  0  0  0  0
    0.0000    0.0000    0.0000 C   0  0  0  0  0  0  0  0  0  0  0  0
   -0.0000    1.0058    0.0000 C   0  0  0  0  0  0  0  0  0  0  0  0
    0.8680    1.5138    0.0000 C   0  0  0  0  0  0  0  0  0  0  0  0
    0.8675   -1.4978    0.0000 Br  0  0  0  0  0  0  0  0  0  0  0  0
  1  2  1  0  0  0  0
  2  3  2  0  0  0  0
  2  4  1  0  0  0  0
  4  5  1  0  0  0  0
  5  6  1  0  0  0  0
  5  7  1  0  0  0  0
  5  8  1  0  0  0  0
  8  9  1  0  0  0  0
  9 13  1  0  0  0  0
  9 10  2  0  0  0  0
 10 11  1  0  0  0  0
 11 12  1  0  0  0  0
 12 17  2  0  0  0  0
 12 13  1  0  0  0  0
 13 14  2  0  0  0  0
 14 15  1  0  0  0  0
 15 16  2  0  0  0  0
 16 17  1  0  0  0  0
 14 18  1  0  0  0  0
M  END
$$$$
s_272164____14971852____17338548
  -OEChem-03222016482D

 21 22  0     0  0  0  0  0  0999 V2000
    4.9078   -4.3247    0.0000 C   0  0  0  0  0  0  0  0  0  0  0  0
    5.5770   -3.5816    0.0000 N   0  0  0  0  0  0  0  0  0  0  0  0
    6.5551   -3.7896    0.0000 C   0  0  0  0  0  0  0  0  0  0  0  0
    6.8641   -4.7407    0.0000 C   0  0  0  0  0  0  0  0  0  0  0  0
    7.8422   -4.9486    0.0000 F   0  0  0  0  0  0  0  0  0  0  0  0
    5.2680   -2.6306    0.0000 C   0  0  0  0  0  0  0  0  0  0  0  0
    5.9372   -1.8874    0.0000 O   0  0  0  0  0  0  0  0  0  0  0  0
    4.2899   -2.4226    0.0000 N   0  0  0  0  0  0  0  0  0  0  0  0
    3.9809   -1.4715    0.0000 C   0  0  0  0  0  0  0  0  0  0  0  0
    3.0028   -1.2636    0.0000 C   0  0  0  0  0  0  0  0  0  0  0  0
    2.6938   -0.3125    0.0000 C   0  0  0  0  0  0  0  0  0  0  0  0
    3.2858    0.5023    0.0000 C   0  0  0  0  0  0  0  0  0  0  0  0
    2.6938    1.3169    0.0000 N   0  0  0  0  0  0  0  0  0  0  0  0
    1.7360    1.0058    0.0000 C   0  0  0  0  0  0  0  0  0  0  0  0
    1.7360   -0.0012    0.0000 C   0  0  0  0  0  0  0  0  0  0  0  0
    0.8680   -0.4978    0.0000 C   0  0  0  0  0  0  0  0  0  0  0  0
    0.0000    0.0000    0.0000 C   0  0  0  0  0  0  0  0  0  0  0  0
   -0.0000    1.0058    0.0000 C   0  0  0  0  0  0  0  0  0  0  0  0
    0.8680    1.5138    0.0000 C   0  0  0  0  0  0  0  0  0  0  0  0
    0.8675   -1.4978    0.0000 O   0  0  0  0  0  0  0  0  0  0  0  0
    1.7332   -1.9983    0.0000 C   0  0  0  0  0  0  0  0  0  0  0  0
  1  2  1  0  0  0  0
  2  3  1  0  0  0  0
  3  4  1  0  0  0  0
  4  5  1  0  0  0  0
  2  6  1  0  0  0  0
  6  7  2  0  0  0  0
  6  8  1  0  0  0  0
  8  9  1  0  0  0  0
  9 10  1  0  0  0  0
 10 11  1  0  0  0  0
 11 15  1  0  0  0  0
 11 12  2  0  0  0  0
 12 13  1  0  0  0  0
 13 14  1  0  0  0  0
 14 19  2  0  0  0  0
 14 15  1  0  0  0  0
 15 16  2  0  0  0  0
 16 17  1  0  0  0  0
 17 18  2  0  0  0  0
 18 19  1  0  0  0  0
 16 20  1  0  0  0  0
 20 21  1  0  0  0  0
M  END
$$$$
s_512____158631____4839458
  -OEChem-03222016482D

 20 21  0     0  0  0  0  0  0999 V2000
   -1.7320   -0.0025    0.0000 C   0  0  0  0  0  0  0  0  0  0  0  0
   -0.8653   -0.5013    0.0000 O   0  0  0  0  0  0  0  0  0  0  0  0
    0.0000    0.0000    0.0000 C   0  0  0  0  0  0  0  0  0  0  0  0
   -0.0000    1.0058    0.0000 C   0  0  0  0  0  0  0  0  0  0  0  0
    0.8680    1.5138    0.0000 C   0  0  0  0  0  0  0  0  0  0  0  0
    1.7360    1.0058    0.0000 C   0  0  0  0  0  0  0  0  0  0  0  0
    1.7360   -0.0012    0.0000 C   0  0  0  0  0  0  0  0  0  0  0  0
    0.8680   -0.4978    0.0000 C   0  0  0  0  0  0  0  0  0  0  0  0
    2.6938   -0.3125    0.0000 C   0  0  0  0  0  0  0  0  0  0  0  0
    3.2858    0.5023    0.0000 C   0  0  0  0  0  0  0  0  0  0  0  0
    2.6938    1.3169    0.0000 N   0  0  0  0  0  0  0  0  0  0  0  0
    3.0028   -1.2636    0.0000 C   0  0  0  0  0  0  0  0  0  0  0  0
    3.9809   -1.4715    0.0000 C   0  0  0  0  0  0  0  0  0  0  0  0
    4.2899   -2.4226    0.0000 N   0  0  0  0  0  0  0  0  0  0  0  0
    5.2680   -2.6306    0.0000 C   0  0  0  0  0  0  0  0  0  0  0  0
    5.9372   -1.8874    0.0000 O   0  0  0  0  0  0  0  0  0  0  0  0
    5.5770   -3.5816    0.0000 N   0  0  0  0  0  0  0  0  0  0  0  0
    6.5551   -3.7896    0.0000 C   0  0  0  0  0  0  0  0  0  0  0  0
    6.8641   -4.7407    0.0000 C   0  0  0  0  0  0  0  0  0  0  0  0
    7.1731   -5.6917    0.0000 C   0  0  0  0  0  0  0  0  0  0  0  0
  1  2  1  0  0  0  0
  2  3  1  0  0  0  0
  3  8  2  0  0  0  0
  3  4  1  0  0  0  0
  4  5  2  0  0  0  0
  5  6  1  0  0  0  0
  6 11  1  0  0  0  0
  6  7  2  0  0  0  0
  7  8  1  0  0  0  0
  7  9  1  0  0  0  0
  9 10  2  0  0  0  0
 10 11  1  0  0  0  0
  9 12  1  0  0  0  0
 12 13  1  0  0  0  0
 13 14  1  0  0  0  0
 14 15  1  0  0  0  0
 15 16  2  0  0  0  0
 15 17  1  0  0  0  0
 17 18  1  0  0  0  0
 18 19  1  0  0  0  0
 19 20  3  0  0  0  0
M  END
$$$$
s_22____13978824____590148
  -OEChem-03222016482D

 21 22  0     0  0  0  0  0  0999 V2000
   -0.8705    2.5032    0.0000 C   0  0  0  0  0  0  0  0  0  0  0  0
   -0.8675    1.5032    0.0000 O   0  0  0  0  0  0  0  0  0  0  0  0
    0.0000    1.0058    0.0000 C   0  0  0  0  0  0  0  0  0  0  0  0
    0.0000    0.0000    0.0000 C   0  0  0  0  0  0  0  0  0  0  0  0
    0.8680   -0.4978    0.0000 C   0  0  0  0  0  0  0  0  0  0  0  0
    1.7360   -0.0012    0.0000 C   0  0  0  0  0  0  0  0  0  0  0  0
    1.7360    1.0058    0.0000 C   0  0  0  0  0  0  0  0  0  0  0  0
    0.8680    1.5138    0.0000 C   0  0  0  0  0  0  0  0  0  0  0  0
    2.6938    1.3169    0.0000 N   0  0  0  0  0  0  0  0  0  0  0  0
    3.2858    0.5023    0.0000 C   0  0  0  0  0  0  0  0  0  0  0  0
    2.6938   -0.3125    0.0000 C   0  0  0  0  0  0  0  0  0  0  0  0
    3.0028   -1.2636    0.0000 C   0  0  0  0  0  0  0  0  0  0  0  0
    3.9809   -1.4715    0.0000 C   0  0  0  0  0  0  0  0  0  0  0  0
    4.2899   -2.4226    0.0000 N   0  0  0  0  0  0  0  0  0  0  0  0
    5.2680   -2.6306    0.0000 C   0  0  0  0  0  0  0  0  0  0  0  0
    5.9372   -1.8874    0.0000 O   0  0  0  0  0  0  0  0  0  0  0  0
    5.5770   -3.5816    0.0000 C   0  0  0  0  0  0  0  0  0  0  0  0
    6.5551   -3.7896    0.0000 C   0  0  0  0  0  0  0  0  0  0  0  0
    7.2243   -3.0465    0.0000 O   0  0  0  0  0  0  0  0  0  0  0  0
    6.8641   -4.7407    0.0000 O   0  0  0  0  0  0  0  0  0  0  0  0
    7.8422   -4.9486    0.0000 C   0  0  0  0  0  0  0  0  0  0  0  0
  1  2  1  0  0  0  0
  2  3  1  0  0  0  0
  3  8  2  0  0  0  0
  3  4  1  0  0  0  0
  4  5  2  0  0  0  0
  5  6  1  0  0  0  0
  6 11  1  0  0  0  0
  6  7  2  0  0  0  0
  7  8  1  0  0  0  0
  7  9  1  0  0  0  0
  9 10  1  0  0  0  0
 10 11  2  0  0  0  0
 11 12  1  0  0  0  0
 12 13  1  0  0  0  0
 13 14  1  0  0  0  0
 14 15  1  0  0  0  0
 15 16  2  0  0  0  0
 15 17  1  0  0  0  0
 17 18  1  0  0  0  0
 18 19  2  0  0  0  0
 18 20  1  0  0  0  0
 20 21  1  0  0  0  0
M  END
$$$$
s_22____17638894____58844
  -OEChem-03222016482D

 17 18  0     1  0  0  0  0  0999 V2000
    4.7859   -0.3636    0.0000 C   0  0  0  0  0  0  0  0  0  0  0  0
    4.2858    0.5024    0.0000 C   0  0  3  0  0  0  0  0  0  0  0  0
    3.2858    0.5023    0.0000 C   0  0  0  0  0  0  0  0  0  0  0  0
    2.6938   -0.3125    0.0000 C   0  0  0  0  0  0  0  0  0  0  0  0
    1.7360   -0.0012    0.0000 C   0  0  0  0  0  0  0  0  0  0  0  0
    0.8680   -0.4978    0.0000 C   0  0  0  0  0  0  0  0  0  0  0  0
    0.0000    0.0000    0.0000 C   0  0  0  0  0  0  0  0  0  0  0  0
    0.0000    1.0058    0.0000 C   0  0  0  0  0  0  0  0  0  0  0  0
    0.8680    1.5138    0.0000 C   0  0  0  0  0  0  0  0  0  0  0  0
    1.7360    1.0058    0.0000 C   0  0  0  0  0  0  0  0  0  0  0  0
    2.6938    1.3169    0.0000 O   0  0  0  0  0  0  0  0  0  0  0  0
    0.8680    2.5138    0.0000 O   0  0  0  0  0  0  0  0  0  0  0  0
    0.0020    3.0138    0.0000 C   0  0  0  0  0  0  0  0  0  0  0  0
    4.7857    1.3684    0.0000 N   0  0  0  0  0  0  0  0  0  0  0  0
    5.7857    1.3685    0.0000 C   0  0  0  0  0  0  0  0  0  0  0  0
    6.2858    0.5025    0.0000 O   0  0  0  0  0  0  0  0  0  0  0  0
    6.2857    2.2345    0.0000 C   0  0  0  0  0  0  0  0  0  0  0  0
  1  2  1  0  0  0  0
  2  3  1  0  0  0  0
  3 11  1  0  0  0  0
  3  4  2  0  0  0  0
  4  5  1  0  0  0  0
  5 10  2  0  0  0  0
  5  6  1  0  0  0  0
  6  7  2  0  0  0  0
  7  8  1  0  0  0  0
  8  9  2  0  0  0  0
  9 10  1  0  0  0  0
 10 11  1  0  0  0  0
  9 12  1  0  0  0  0
 12 13  1  0  0  0  0
  2 14  1  0  0  0  0
 14 15  1  0  0  0  0
 15 16  2  0  0  0  0
 15 17  1  0  0  0  0
M  END
$$$$
s_512____9045016____4839458
  -OEChem-03222016482D

 21 22  0     0  0  0  0  0  0999 V2000
    1.2530   -7.0892    0.0000 C   0  0  0  0  0  0  0  0  0  0  0  0
    1.9222   -6.3461    0.0000 C   0  0  0  0  0  0  0  0  0  0  0  0
    2.9003   -6.5541    0.0000 C   0  0  0  0  0  0  0  0  0  0  0  0
    1.6132   -5.3951    0.0000 C   0  0  0  0  0  0  0  0  0  0  0  0
    2.2824   -4.6519    0.0000 N   0  0  0  0  0  0  0  0  0  0  0  0
    1.9734   -3.7009    0.0000 C   0  0  0  0  0  0  0  0  0  0  0  0
    0.9953   -3.4929    0.0000 O   0  0  0  0  0  0  0  0  0  0  0  0
    2.6426   -2.9578    0.0000 N   0  0  0  0  0  0  0  0  0  0  0  0
    2.3336   -2.0067    0.0000 C   0  0  0  0  0  0  0  0  0  0  0  0
    3.0028   -1.2636    0.0000 C   0  0  0  0  0  0  0  0  0  0  0  0
    2.6938   -0.3125    0.0000 C   0  0  0  0  0  0  0  0  0  0  0  0
    3.2858    0.5023    0.0000 C   0  0  0  0  0  0  0  0  0  0  0  0
    2.6938    1.3169    0.0000 N   0  0  0  0  0  0  0  0  0  0  0  0
    1.7360    1.0058    0.0000 C   0  0  0  0  0  0  0  0  0  0  0  0
    1.7360   -0.0012    0.0000 C   0  0  0  0  0  0  0  0  0  0  0  0
    0.8680   -0.4978    0.0000 C   0  0  0  0  0  0  0  0  0  0  0  0
    0.0000    0.0000    0.0000 C   0  0  0  0  0  0  0  0  0  0  0  0
   -0.0000    1.0058    0.0000 C   0  0  0  0  0  0  0  0  0  0  0  0
    0.8680    1.5138    0.0000 C   0  0  0  0  0  0  0  0  0  0  0  0
   -0.8653   -0.5013    0.0000 O   0  0  0  0  0  0  0  0  0  0  0  0
   -0.8639   -1.5013    0.0000 C   0  0  0  0  0  0  0  0  0  0  0  0
  1  2  1  0  0  0  0
  2  3  2  0  0  0  0
  2  4  1  0  0  0  0
  4  5  1  0  0  0  0
  5  6  1  0  0  0  0
  6  7  2  0  0  0  0
  6  8  1  0  0  0  0
  8  9  1  0  0  0  0
  9 10  1  0  0  0  0
 10 11  1  0  0  0  0
 11 15  1  0  0  0  0
 11 12  2  0  0  0  0
 12 13  1  0  0  0  0
 13 14  1  0  0  0  0
 14 19  2  0  0  0  0
 14 15  1  0  0  0  0
 15 16  2  0  0  0  0
 16 17  1  0  0  0  0
 17 18  2  0  0  0  0
 18 19  1  0  0  0  0
 17 20  1  0  0  0  0
 20 21  1  0  0  0  0
M  END
$$$$
s_22____13978824____12111294
  -OEChem-03222016482D

 20 21  0     1  0  0  0  0  0999 V2000
    3.2605   -4.8599    0.0000 C   0  0  0  0  0  0  0  0  0  0  0  0
    2.2824   -4.6519    0.0000 C   0  0  3  0  0  0  0  0  0  0  0  0
    1.6132   -5.3951    0.0000 C   0  0  0  0  0  0  0  0  0  0  0  0
    1.9222   -6.3461    0.0000 F   0  0  0  0  0  0  0  0  0  0  0  0
    1.9734   -3.7009    0.0000 C   0  0  0  0  0  0  0  0  0  0  0  0
    0.9953   -3.4929    0.0000 O   0  0  0  0  0  0  0  0  0  0  0  0
    2.6426   -2.9578    0.0000 N   0  0  0  0  0  0  0  0  0  0  0  0
    2.3336   -2.0067    0.0000 C   0  0  0  0  0  0  0  0  0  0  0  0
    3.0028   -1.2636    0.0000 C   0  0  0  0  0  0  0  0  0  0  0  0
    2.6938   -0.3125    0.0000 C   0  0  0  0  0  0  0  0  0  0  0  0
    3.2858    0.5023    0.0000 C   0  0  0  0  0  0  0  0  0  0  0  0
    2.6938    1.3169    0.0000 N   0  0  0  0  0  0  0  0  0  0  0  0
    1.7360    1.0058    0.0000 C   0  0  0  0  0  0  0  0  0  0  0  0
    1.7360   -0.0012    0.0000 C   0  0  0  0  0  0  0  0  0  0  0  0
    0.8680   -0.4978    0.0000 C   0  0  0  0  0  0  0  0  0  0  0  0
    0.0000    0.0000    0.0000 C   0  0  0  0  0  0  0  0  0  0  0  0
   -0.0000    1.0058    0.0000 C   0  0  0  0  0  0  0  0  0  0  0  0
    0.8680    1.5138    0.0000 C   0  0  0  0  0  0  0  0  0  0  0  0
   -0.8675    1.5032    0.0000 O   0  0  0  0  0  0  0  0  0  0  0  0
   -1.7320    1.0007    0.0000 C   0  0  0  0  0  0  0  0  0  0  0  0
  1  2  1  0  0  0  0
  2  3  1  0  0  0  0
  3  4  1  0  0  0  0
  2  5  1  0  0  0  0
  5  6  2  0  0  0  0
  5  7  1  0  0  0  0
  7  8  1  0  0  0  0
  8  9  1  0  0  0  0
  9 10  1  0  0  0  0
 10 14  1  0  0  0  0
 10 11  2  0  0  0  0
 11 12  1  0  0  0  0
 12 13  1  0  0  0  0
 13 18  2  0  0  0  0
 13 14  1  0  0  0  0
 14 15  2  0  0  0  0
 15 16  1  0  0  0  0
 16 17  2  0  0  0  0
 17 18  1  0  0  0  0
 17 19  1  0  0  0  0
 19 20  1  0  0  0  0
M  END
$$$$
EN300-27932
  -OEChem-03222016482D

 17 18  0     1  0  0  0  0  0999 V2000
    4.9078   -4.3247    0.0000 C   0  0  0  0  0  0  0  0  0  0  0  0
    5.5770   -3.5816    0.0000 C   0  0  3  0  0  0  0  0  0  0  0  0
    5.2680   -2.6306    0.0000 C   0  0  0  0  0  0  0  0  0  0  0  0
    5.9372   -1.8874    0.0000 O   0  0  0  0  0  0  0  0  0  0  0  0
    4.2899   -2.4226    0.0000 N   0  0  0  0  0  0  0  0  0  0  0  0
    3.9809   -1.4715    0.0000 C   0  0  0  0  0  0  0  0  0  0  0  0
    3.0028   -1.2636    0.0000 C   0  0  0  0  0  0  0  0  0  0  0  0
    2.6938   -0.3125    0.0000 C   0  0  0  0  0  0  0  0  0  0  0  0
    3.2858    0.5023    0.0000 C   0  0  0  0  0  0  0  0  0  0  0  0
    2.6938    1.3169    0.0000 N   0  0  0  0  0  0  0  0  0  0  0  0
    1.7360    1.0058    0.0000 C   0  0  0  0  0  0  0  0  0  0  0  0
    1.7360   -0.0012    0.0000 C   0  0  0  0  0  0  0  0  0  0  0  0
    0.8680   -0.4978    0.0000 C   0  0  0  0  0  0  0  0  0  0  0  0
    0.0000    0.0000    0.0000 C   0  0  0  0  0  0  0  0  0  0  0  0
   -0.0000    1.0058    0.0000 C   0  0  0  0  0  0  0  0  0  0  0  0
    0.8680    1.5138    0.0000 C   0  0  0  0  0  0  0  0  0  0  0  0
    6.5551   -3.7896    0.0000 Cl  0  0  0  0  0  0  0  0  0  0  0  0
  1  2  1  0  0  0  0
  2  3  1  0  0  0  0
  3  4  2  0  0  0  0
  3  5  1  0  0  0  0
  5  6  1  0  0  0  0
  6  7  1  0  0  0  0
  7  8  1  0  0  0  0
  8 12  1  0  0  0  0
  8  9  2  0  0  0  0
  9 10  1  0  0  0  0
 10 11  1  0  0  0  0
 11 16  2  0  0  0  0
 11 12  1  0  0  0  0
 12 13  2  0  0  0  0
 13 14  1  0  0  0  0
 14 15  2  0  0  0  0
 15 16  1  0  0  0  0
  2 17  1  0  0  0  0
M  END
$$$$
s_270006b____8394006____11615860
  -OEChem-03222016482D

 21 22  0     0  0  0  0  0  0999 V2000
    8.1512   -5.8997    0.0000 C   0  0  0  0  0  0  0  0  0  0  0  0
    7.8422   -4.9486    0.0000 N   0  3  0  0  0  0  0  0  0  0  0  0
    6.8641   -4.7407    0.0000 C   0  0  0  0  0  0  0  0  0  0  0  0
    6.5551   -3.7896    0.0000 C   0  0  0  0  0  0  0  0  0  0  0  0
    5.5770   -3.5816    0.0000 C   0  0  0  0  0  0  0  0  0  0  0  0
    5.2680   -2.6306    0.0000 C   0  0  0  0  0  0  0  0  0  0  0  0
    5.9372   -1.8874    0.0000 O   0  0  0  0  0  0  0  0  0  0  0  0
    4.2899   -2.4226    0.0000 N   0  0  0  0  0  0  0  0  0  0  0  0
    3.9809   -1.4715    0.0000 C   0  0  0  0  0  0  0  0  0  0  0  0
    3.0028   -1.2636    0.0000 C   0  0  0  0  0  0  0  0  0  0  0  0
    2.6938   -0.3125    0.0000 C   0  0  0  0  0  0  0  0  0  0  0  0
    3.2858    0.5023    0.0000 C   0  0  0  0  0  0  0  0  0  0  0  0
    2.6938    1.3169    0.0000 N   0  0  0  0  0  0  0  0  0  0  0  0
    1.7360    1.0058    0.0000 C   0  0  0  0  0  0  0  0  0  0  0  0
    1.7360   -0.0012    0.0000 C   0  0  0  0  0  0  0  0  0  0  0  0
    0.8680   -0.4978    0.0000 C   0  0  0  0  0  0  0  0  0  0  0  0
    0.0000    0.0000    0.0000 C   0  0  0  0  0  0  0  0  0  0  0  0
   -0.0000    1.0058    0.0000 C   0  0  0  0  0  0  0  0  0  0  0  0
    0.8680    1.5138    0.0000 C   0  0  0  0  0  0  0  0  0  0  0  0
   -0.8653   -0.5013    0.0000 O   0  0  0  0  0  0  0  0  0  0  0  0
   -0.8639   -1.5013    0.0000 C   0  0  0  0  0  0  0  0  0  0  0  0
  1  2  1  0  0  0  0
  2  3  1  0  0  0  0
  3  4  1  0  0  0  0
  4  5  1  0  0  0  0
  5  6  1  0  0  0  0
  6  7  2  0  0  0  0
  6  8  1  0  0  0  0
  8  9  1  0  0  0  0
  9 10  1  0  0  0  0
 10 11  1  0  0  0  0
 11 15  1  0  0  0  0
 11 12  2  0  0  0  0
 12 13  1  0  0  0  0
 13 14  1  0  0  0  0
 14 19  2  0  0  0  0
 14 15  1  0  0  0  0
 15 16  2  0  0  0  0
 16 17  1  0  0  0  0
 17 18  2  0  0  0  0
 18 19  1  0  0  0  0
 17 20  1  0  0  0  0
 20 21  1  0  0  0  0
M  CHG  1   2   1
M  END
$$$$
s_22____15506616____294126
  -OEChem-03222016482D

 21 22  0     0  0  0  0  0  0999 V2000
    0.9440   -6.1382    0.0000 C   0  0  0  0  0  0  0  0  0  0  0  0
    1.6132   -5.3951    0.0000 C   0  0  0  0  0  0  0  0  0  0  0  0
    0.8701   -4.7259    0.0000 C   0  0  0  0  0  0  0  0  0  0  0  0
    2.3563   -6.0642    0.0000 C   0  0  0  0  0  0  0  0  0  0  0  0
    2.2824   -4.6519    0.0000 C   0  0  0  0  0  0  0  0  0  0  0  0
    1.9734   -3.7009    0.0000 C   0  0  0  0  0  0  0  0  0  0  0  0
    0.9953   -3.4929    0.0000 O   0  0  0  0  0  0  0  0  0  0  0  0
    2.6426   -2.9578    0.0000 N   0  0  0  0  0  0  0  0  0  0  0  0
    2.3336   -2.0067    0.0000 C   0  0  0  0  0  0  0  0  0  0  0  0
    3.0028   -1.2636    0.0000 C   0  0  0  0  0  0  0  0  0  0  0  0
    2.6938   -0.3125    0.0000 C   0  0  0  0  0  0  0  0  0  0  0  0
    3.2858    0.5023    0.0000 C   0  0  0  0  0  0  0  0  0  0  0  0
    2.6938    1.3169    0.0000 N   0  0  0  0  0  0  0  0  0  0  0  0
    1.7360    1.0058    0.0000 C   0  0  0  0  0  0  0  0  0  0  0  0
    1.7360   -0.0012    0.0000 C   0  0  0  0  0  0  0  0  0  0  0  0
    0.8680   -0.4978    0.0000 C   0  0  0  0  0  0  0  0  0  0  0  0
    0.0000    0.0000    0.0000 C   0  0  0  0  0  0  0  0  0  0  0  0
   -0.0000    1.0058    0.0000 C   0  0  0  0  0  0  0  0  0  0  0  0
    0.8680    1.5138    0.0000 C   0  0  0  0  0  0  0  0  0  0  0  0
    0.8680    2.5138    0.0000 O   0  0  0  0  0  0  0  0  0  0  0  0
    0.0020    3.0138    0.0000 C   0  0  0  0  0  0  0  0  0  0  0  0
  1  2  1  0  0  0  0
  2  3  1  0  0  0  0
  2  4  1  0  0  0  0
  2  5  1  0  0  0  0
  5  6  1  0  0  0  0
  6  7  2  0  0  0  0
  6  8  1  0  0  0  0
  8  9  1  0  0  0  0
  9 10  1  0  0  0  0
 10 11  1  0  0  0  0
 11 15  1  0  0  0  0
 11 12  2  0  0  0  0
 12 13  1  0  0  0  0
 13 14  1  0  0  0  0
 14 19  2  0  0  0  0
 14 15  1  0  0  0  0
 15 16  2  0  0  0  0
 16 17  1  0  0  0  0
 17 18  2  0  0  0  0
 18 19  1  0  0  0  0
 19 20  1  0  0  0  0
 20 21  1  0  0  0  0
M  END
$$$$
s_240690b____7360096____3025698
  -OEChem-03222016482D

 17 18  0     0  0  0  0  0  0999 V2000
    0.0000    0.0000    0.0000 C   0  0  0  0  0  0  0  0  0  0  0  0
    0.8680   -0.4978    0.0000 C   0  0  0  0  0  0  0  0  0  0  0  0
    1.7360   -0.0012    0.0000 C   0  0  0  0  0  0  0  0  0  0  0  0
    1.7360    1.0058    0.0000 C   0  0  0  0  0  0  0  0  0  0  0  0
    0.8680    1.5138    0.0000 C   0  0  0  0  0  0  0  0  0  0  0  0
    0.0000    1.0058    0.0000 C   0  0  0  0  0  0  0  0  0  0  0  0
   -0.8675    1.5032    0.0000 Cl  0  0  0  0  0  0  0  0  0  0  0  0
    2.6938    1.3169    0.0000 N   0  0  0  0  0  0  0  0  0  0  0  0
    3.2858    0.5023    0.0000 C   0  0  0  0  0  0  0  0  0  0  0  0
    2.6938   -0.3125    0.0000 C   0  0  0  0  0  0  0  0  0  0  0  0
    3.0028   -1.2636    0.0000 C   0  0  0  0  0  0  0  0  0  0  0  0
    3.9809   -1.4715    0.0000 C   0  0  0  0  0  0  0  0  0  0  0  0
    4.2899   -2.4226    0.0000 N   0  0  0  0  0  0  0  0  0  0  0  0
    5.2680   -2.6306    0.0000 C   0  0  0  0  0  0  0  0  0  0  0  0
    5.9372   -1.8874    0.0000 O   0  0  0  0  0  0  0  0  0  0  0  0
    5.5770   -3.5816    0.0000 C   0  0  0  0  0  0  0  0  0  0  0  0
    6.5551   -3.7896    0.0000 N   0  3  0  0  0  0  0  0  0  0  0  0
  1  6  2  0  0  0  0
  1  2  1  0  0  0  0
  2  3  2  0  0  0  0
  3 10  1  0  0  0  0
  3  4  1  0  0  0  0
  4  5  2  0  0  0  0
  5  6  1  0  0  0  0
  6  7  1  0  0  0  0
  4  8  1  0  0  0  0
  8  9  1  0  0  0  0
  9 10  2  0  0  0  0
 10 11  1  0  0  0  0
 11 12  1  0  0  0  0
 12 13  1  0  0  0  0
 13 14  1  0  0  0  0
 14 15  2  0  0  0  0
 14 16  1  0  0  0  0
 16 17  1  0  0  0  0
M  CHG  1  17   1
M  END
$$$$
s_207____3310404____14949000
  -OEChem-03222016482D

 17 18  0     0  0  0  0  0  0999 V2000
    7.7856    2.0947    0.0000 C   0  0  0  0  0  0  0  0  0  0  0  0
    7.2857    1.2287    0.0000 N   0  0  0  0  0  0  0  0  0  0  0  0
    7.7857    0.3627    0.0000 C   0  0  0  0  0  0  0  0  0  0  0  0
    6.2857    1.2286    0.0000 C   0  0  0  0  0  0  0  0  0  0  0  0
    5.7856    2.0946    0.0000 O   0  0  0  0  0  0  0  0  0  0  0  0
    5.7857    0.3626    0.0000 C   0  0  0  0  0  0  0  0  0  0  0  0
    4.7857    0.3625    0.0000 N   0  3  0  0  0  0  0  0  0  0  0  0
    4.2858   -0.5035    0.0000 C   0  0  0  0  0  0  0  0  0  0  0  0
    3.2858   -0.5036    0.0000 C   0  0  0  0  0  0  0  0  0  0  0  0
    2.6938    0.3110    0.0000 C   0  0  0  0  0  0  0  0  0  0  0  0
    1.7360   -0.0000    0.0000 C   0  0  0  0  0  0  0  0  0  0  0  0
    0.8680    0.5079    0.0000 C   0  0  0  0  0  0  0  0  0  0  0  0
    0.0000    0.0000    0.0000 N   0  0  0  0  0  0  0  0  0  0  0  0
   -0.0000   -1.0058    0.0000 C   0  0  0  0  0  0  0  0  0  0  0  0
    0.8680   -1.5037    0.0000 C   0  0  0  0  0  0  0  0  0  0  0  0
    1.7360   -1.0071    0.0000 C   0  0  0  0  0  0  0  0  0  0  0  0
    2.6938   -1.3184    0.0000 N   0  0  0  0  0  0  0  0  0  0  0  0
  1  2  1  0  0  0  0
  2  3  1  0  0  0  0
  2  4  1  0  0  0  0
  4  5  2  0  0  0  0
  4  6  1  0  0  0  0
  6  7  1  0  0  0  0
  7  8  1  0  0  0  0
  8  9  1  0  0  0  0
  9 17  1  0  0  0  0
  9 10  2  0  0  0  0
 10 11  1  0  0  0  0
 11 16  2  0  0  0  0
 11 12  1  0  0  0  0
 12 13  2  0  0  0  0
 13 14  1  0  0  0  0
 14 15  2  0  0  0  0
 15 16  1  0  0  0  0
 16 17  1  0  0  0  0
M  CHG  1   7   1
M  END
$$$$
s_273270____15547352____10884640
  -OEChem-03222016482D

 18 19  0     0  0  0  0  0  0999 V2000
   -0.8705    2.5032    0.0000 C   0  0  0  0  0  0  0  0  0  0  0  0
   -0.8675    1.5032    0.0000 O   0  0  0  0  0  0  0  0  0  0  0  0
    0.0000    1.0058    0.0000 C   0  0  0  0  0  0  0  0  0  0  0  0
    0.0000    0.0000    0.0000 C   0  0  0  0  0  0  0  0  0  0  0  0
    0.8680   -0.4978    0.0000 C   0  0  0  0  0  0  0  0  0  0  0  0
    1.7360   -0.0012    0.0000 C   0  0  0  0  0  0  0  0  0  0  0  0
    1.7360    1.0058    0.0000 C   0  0  0  0  0  0  0  0  0  0  0  0
    0.8680    1.5138    0.0000 C   0  0  0  0  0  0  0  0  0  0  0  0
    2.6938    1.3169    0.0000 N   0  0  0  0  0  0  0  0  0  0  0  0
    3.2858    0.5023    0.0000 C   0  0  0  0  0  0  0  0  0  0  0  0
    2.6938   -0.3125    0.0000 C   0  0  0  0  0  0  0  0  0  0  0  0
    3.0028   -1.2636    0.0000 C   0  0  0  0  0  0  0  0  0  0  0  0
    3.9809   -1.4715    0.0000 C   0  0  0  0  0  0  0  0  0  0  0  0
    4.2899   -2.4226    0.0000 N   0  0  0  0  0  0  0  0  0  0  0  0
    5.2680   -2.6306    0.0000 C   0  0  0  0  0  0  0  0  0  0  0  0
    5.9372   -1.8874    0.0000 O   0  0  0  0  0  0  0  0  0  0  0  0
    5.5770   -3.5816    0.0000 C   0  0  0  0  0  0  0  0  0  0  0  0
    6.5551   -3.7896    0.0000 C   0  0  0  0  0  0  0  0  0  0  0  0
  1  2  1  0  0  0  0
  2  3  1  0  0  0  0
  3  8  2  0  0  0  0
  3  4  1  0  0  0  0
  4  5  2  0  0  0  0
  5  6  1  0  0  0  0
  6 11  1  0  0  0  0
  6  7  2  0  0  0  0
  7  8  1  0  0  0  0
  7  9  1  0  0  0  0
  9 10  1  0  0  0  0
 10 11  2  0  0  0  0
 11 12  1  0  0  0  0
 12 13  1  0  0  0  0
 13 14  1  0  0  0  0
 14 15  1  0  0  0  0
 15 16  2  0  0  0  0
 15 17  1  0  0  0  0
 17 18  2  0  0  0  0
M  END
$$$$
s_22____5635330____60364
  -OEChem-03222016482D

 18 19  0     0  0  0  0  0  0999 V2000
    0.8680    2.5138    0.0000 C   0  0  0  0  0  0  0  0  0  0  0  0
    0.8680    1.5138    0.0000 C   0  0  0  0  0  0  0  0  0  0  0  0
    0.0000    1.0058    0.0000 C   0  0  0  0  0  0  0  0  0  0  0  0
    0.0000    0.0000    0.0000 C   0  0  0  0  0  0  0  0  0  0  0  0
    0.8680   -0.4978    0.0000 C   0  0  0  0  0  0  0  0  0  0  0  0
    1.7360   -0.0012    0.0000 C   0  0  0  0  0  0  0  0  0  0  0  0
    1.7360    1.0058    0.0000 C   0  0  0  0  0  0  0  0  0  0  0  0
    2.6938    1.3169    0.0000 N   0  0  0  0  0  0  0  0  0  0  0  0
    3.2858    0.5023    0.0000 C   0  0  0  0  0  0  0  0  0  0  0  0
    2.6938   -0.3125    0.0000 C   0  0  0  0  0  0  0  0  0  0  0  0
    3.0028   -1.2636    0.0000 C   0  0  0  0  0  0  0  0  0  0  0  0
    3.9809   -1.4715    0.0000 C   0  0  0  0  0  0  0  0  0  0  0  0
    4.2899   -2.4226    0.0000 N   0  0  0  0  0  0  0  0  0  0  0  0
    5.2680   -2.6306    0.0000 C   0  0  0  0  0  0  0  0  0  0  0  0
    5.9372   -1.8874    0.0000 O   0  0  0  0  0  0  0  0  0  0  0  0
    5.5770   -3.5816    0.0000 C   0  0  0  0  0  0  0  0  0  0  0  0
    6.5551   -3.7896    0.0000 S   0  0  0  0  0  0  0  0  0  0  0  0
    6.8641   -4.7407    0.0000 C   0  0  0  0  0  0  0  0  0  0  0  0
  1  2  1  0  0  0  0
  2  7  2  0  0  0  0
  2  3  1  0  0  0  0
  3  4  2  0  0  0  0
  4  5  1  0  0  0  0
  5  6  2  0  0  0  0
  6 10  1  0  0  0  0
  6  7  1  0  0  0  0
  7  8  1  0  0  0  0
  8  9  1  0  0  0  0
  9 10  2  0  0  0  0
 10 11  1  0  0  0  0
 11 12  1  0  0  0  0
 12 13  1  0  0  0  0
 13 14  1  0  0  0  0
 14 15  2  0  0  0  0
 14 16  1  0  0  0  0
 16 17  1  0  0  0  0
 17 18  1  0  0  0  0
M  END
$$$$
s_22____12346432____60364
  -OEChem-03222016482D

 18 19  0     0  0  0  0  0  0999 V2000
    6.8641   -4.7407    0.0000 C   0  0  0  0  0  0  0  0  0  0  0  0
    6.5551   -3.7896    0.0000 S   0  0  0  0  0  0  0  0  0  0  0  0
    5.5770   -3.5816    0.0000 C   0  0  0  0  0  0  0  0  0  0  0  0
    5.2680   -2.6306    0.0000 C   0  0  0  0  0  0  0  0  0  0  0  0
    5.9372   -1.8874    0.0000 O   0  0  0  0  0  0  0  0  0  0  0  0
    4.2899   -2.4226    0.0000 N   0  0  0  0  0  0  0  0  0  0  0  0
    3.9809   -1.4715    0.0000 C   0  0  0  0  0  0  0  0  0  0  0  0
    3.0028   -1.2636    0.0000 C   0  0  0  0  0  0  0  0  0  0  0  0
    2.6938   -0.3125    0.0000 C   0  0  0  0  0  0  0  0  0  0  0  0
    3.2858    0.5023    0.0000 C   0  0  0  0  0  0  0  0  0  0  0  0
    2.6938    1.3169    0.0000 N   0  0  0  0  0  0  0  0  0  0  0  0
    1.7360    1.0058    0.0000 C   0  0  0  0  0  0  0  0  0  0  0  0
    1.7360   -0.0012    0.0000 C   0  0  0  0  0  0  0  0  0  0  0  0
    0.8680   -0.4978    0.0000 C   0  0  0  0  0  0  0  0  0  0  0  0
    0.0000    0.0000    0.0000 C   0  0  0  0  0  0  0  0  0  0  0  0
   -0.0000    1.0058    0.0000 C   0  0  0  0  0  0  0  0  0  0  0  0
    0.8680    1.5138    0.0000 C   0  0  0  0  0  0  0  0  0  0  0  0
    0.8680    2.5138    0.0000 Cl  0  0  0  0  0  0  0  0  0  0  0  0
  1  2  1  0  0  0  0
  2  3  1  0  0  0  0
  3  4  1  0  0  0  0
  4  5  2  0  0  0  0
  4  6  1  0  0  0  0
  6  7  1  0  0  0  0
  7  8  1  0  0  0  0
  8  9  1  0  0  0  0
  9 13  1  0  0  0  0
  9 10  2  0  0  0  0
 10 11  1  0  0  0  0
 11 12  1  0  0  0  0
 12 17  2  0  0  0  0
 12 13  1  0  0  0  0
 13 14  2  0  0  0  0
 14 15  1  0  0  0  0
 15 16  2  0  0  0  0
 16 17  1  0  0  0  0
 17 18  1  0  0  0  0
M  END
$$$$
s_22____9966972____7941800
  -OEChem-03222016482D

 18 19  0     0  0  0  0  0  0999 V2000
   -0.0000    1.0058    0.0000 C   0  0  0  0  0  0  0  0  0  0  0  0
    0.8680    1.5138    0.0000 C   0  0  0  0  0  0  0  0  0  0  0  0
    1.7360    1.0058    0.0000 C   0  0  0  0  0  0  0  0  0  0  0  0
    1.7360   -0.0012    0.0000 C   0  0  0  0  0  0  0  0  0  0  0  0
    0.8680   -0.4978    0.0000 C   0  0  0  0  0  0  0  0  0  0  0  0
    0.0000    0.0000    0.0000 C   0  0  0  0  0  0  0  0  0  0  0  0
   -0.8653   -0.5013    0.0000 F   0  0  0  0  0  0  0  0  0  0  0  0
    2.6938   -0.3125    0.0000 C   0  0  0  0  0  0  0  0  0  0  0  0
    3.2858    0.5023    0.0000 C   0  0  0  0  0  0  0  0  0  0  0  0
    2.6938    1.3169    0.0000 N   0  0  0  0  0  0  0  0  0  0  0  0
    3.0028   -1.2636    0.0000 C   0  0  0  0  0  0  0  0  0  0  0  0
    3.9809   -1.4715    0.0000 C   0  0  0  0  0  0  0  0  0  0  0  0
    4.2899   -2.4226    0.0000 C   0  0  0  0  0  0  0  0  0  0  0  0
    5.2680   -2.6306    0.0000 N   0  0  0  0  0  0  0  0  0  0  0  0
    5.5770   -3.5816    0.0000 C   0  0  0  0  0  0  0  0  0  0  0  0
    4.9078   -4.3247    0.0000 O   0  0  0  0  0  0  0  0  0  0  0  0
    6.5551   -3.7896    0.0000 C   0  0  0  0  0  0  0  0  0  0  0  0
    6.8641   -4.7407    0.0000 O   0  0  0  0  0  0  0  0  0  0  0  0
  1  6  2  0  0  0  0
  1  2  1  0  0  0  0
  2  3  2  0  0  0  0
  3 10  1  0  0  0  0
  3  4  1  0  0  0  0
  4  5  2  0  0  0  0
  5  6  1  0  0  0  0
  6  7  1  0  0  0  0
  4  8  1  0  0  0  0
  8  9  2  0  0  0  0
  9 10  1  0  0  0  0
  8 11  1  0  0  0  0
 11 12  1  0  0  0  0
 12 13  1  0  0  0  0
 13 14  1  0  0  0  0
 14 15  1  0  0  0  0
 15 16  2  0  0  0  0
 15 17  1  0  0  0  0
 17 18  1  0  0  0  0
M  END
$$$$
s_270062____15775348____8147258
  -OEChem-03222016482D

 24 26  0     0  0  0  0  0  0999 V2000
    1.7406   -5.0034    0.0000 C   0  0  0  0  0  0  0  0  0  0  0  0
    2.6040   -4.4988    0.0000 C   0  0  0  0  0  0  0  0  0  0  0  0
    2.6045   -3.4987    0.0000 C   0  0  0  0  0  0  0  0  0  0  0  0
    1.7327   -2.9983    0.0000 C   0  0  0  0  0  0  0  0  0  0  0  0
    0.8605   -3.4978    0.0000 C   0  0  0  0  0  0  0  0  0  0  0  0
    0.8689   -4.5029    0.0000 C   0  0  0  0  0  0  0  0  0  0  0  0
    1.7332   -1.9983    0.0000 C   0  0  0  0  0  0  0  0  0  0  0  0
    0.8675   -1.4978    0.0000 O   0  0  0  0  0  0  0  0  0  0  0  0
    0.8680   -0.4978    0.0000 C   0  0  0  0  0  0  0  0  0  0  0  0
    0.0000    0.0000    0.0000 C   0  0  0  0  0  0  0  0  0  0  0  0
   -0.0000    1.0058    0.0000 C   0  0  0  0  0  0  0  0  0  0  0  0
    0.8680    1.5138    0.0000 C   0  0  0  0  0  0  0  0  0  0  0  0
    1.7360    1.0058    0.0000 C   0  0  0  0  0  0  0  0  0  0  0  0
    1.7360   -0.0012    0.0000 C   0  0  0  0  0  0  0  0  0  0  0  0
    2.6938   -0.3125    0.0000 C   0  0  0  0  0  0  0  0  0  0  0  0
    3.2858    0.5023    0.0000 C   0  0  0  0  0  0  0  0  0  0  0  0
    2.6938    1.3169    0.0000 N   0  0  0  0  0  0  0  0  0  0  0  0
    3.0028   -1.2636    0.0000 C   0  0  0  0  0  0  0  0  0  0  0  0
    3.9809   -1.4715    0.0000 C   0  0  0  0  0  0  0  0  0  0  0  0
    4.2899   -2.4226    0.0000 N   0  0  0  0  0  0  0  0  0  0  0  0
    5.2680   -2.6306    0.0000 C   0  0  0  0  0  0  0  0  0  0  0  0
    5.9372   -1.8874    0.0000 O   0  0  0  0  0  0  0  0  0  0  0  0
    5.5770   -3.5816    0.0000 C   0  0  0  0  0  0  0  0  0  0  0  0
    6.5551   -3.7896    0.0000 Cl  0  0  0  0  0  0  0  0  0  0  0  0
  1  6  2  0  0  0  0
  1  2  1  0  0  0  0
  2  3  2  0  0  0  0
  3  4  1  0  0  0  0
  4  5  2  0  0  0  0
  5  6  1  0  0  0  0
  4  7  1  0  0  0  0
  7  8  1  0  0  0  0
  8  9  1  0  0  0  0
  9 14  2  0  0  0  0
  9 10  1  0  0  0  0
 10 11  2  0  0  0  0
 11 12  1  0  0  0  0
 12 13  2  0  0  0  0
 13 17  1  0  0  0  0
 13 14  1  0  0  0  0
 14 15  1  0  0  0  0
 15 16  2  0  0  0  0
 16 17  1  0  0  0  0
 15 18  1  0  0  0  0
 18 19  1  0  0  0  0
 19 20  1  0  0  0  0
 20 21  1  0  0  0  0
 21 22  2  0  0  0  0
 21 23  1  0  0  0  0
 23 24  1  0  0  0  0
M  END
$$$$
s_270062____7613388____8147258
  -OEChem-03222016482D

 17 18  0     0  0  0  0  0  0999 V2000
    0.8675   -1.4978    0.0000 C   0  0  0  0  0  0  0  0  0  0  0  0
    0.8680   -0.4978    0.0000 C   0  0  0  0  0  0  0  0  0  0  0  0
    0.0000    0.0000    0.0000 C   0  0  0  0  0  0  0  0  0  0  0  0
   -0.0000    1.0058    0.0000 C   0  0  0  0  0  0  0  0  0  0  0  0
    0.8680    1.5138    0.0000 C   0  0  0  0  0  0  0  0  0  0  0  0
    1.7360    1.0058    0.0000 C   0  0  0  0  0  0  0  0  0  0  0  0
    1.7360   -0.0012    0.0000 C   0  0  0  0  0  0  0  0  0  0  0  0
    2.6938   -0.3125    0.0000 C   0  0  0  0  0  0  0  0  0  0  0  0
    3.2858    0.5023    0.0000 C   0  0  0  0  0  0  0  0  0  0  0  0
    2.6938    1.3169    0.0000 N   0  0  0  0  0  0  0  0  0  0  0  0
    3.0028   -1.2636    0.0000 C   0  0  0  0  0  0  0  0  0  0  0  0
    3.9809   -1.4715    0.0000 C   0  0  0  0  0  0  0  0  0  0  0  0
    4.2899   -2.4226    0.0000 N   0  0  0  0  0  0  0  0  0  0  0  0
    5.2680   -2.6306    0.0000 C   0  0  0  0  0  0  0  0  0  0  0  0
    5.9372   -1.8874    0.0000 O   0  0  0  0  0  0  0  0  0  0  0  0
    5.5770   -3.5816    0.0000 C   0  0  0  0  0  0  0  0  0  0  0  0
    6.5551   -3.7896    0.0000 Cl  0  0  0  0  0  0  0  0  0  0  0  0
  1  2  1  0  0  0  0
  2  7  2  0  0  0  0
  2  3  1  0  0  0  0
  3  4  2  0  0  0  0
  4  5  1  0  0  0  0
  5  6  2  0  0  0  0
  6 10  1  0  0  0  0
  6  7  1  0  0  0  0
  7  8  1  0  0  0  0
  8  9  2  0  0  0  0
  9 10  1  0  0  0  0
  8 11  1  0  0  0  0
 11 12  1  0  0  0  0
 12 13  1  0  0  0  0
 13 14  1  0  0  0  0
 14 15  2  0  0  0  0
 14 16  1  0  0  0  0
 16 17  1  0  0  0  0
M  END
$$$$
s_270004____8290858____16621896
  -OEChem-03222016482D

 21 22  0     0  0  0  0  0  0999 V2000
    8.2860   -2.9615    0.0000 C   0  0  0  0  0  0  0  0  0  0  0  0
    7.7860   -2.0955    0.0000 C   0  0  0  0  0  0  0  0  0  0  0  0
    6.9200   -2.5956    0.0000 C   0  0  0  0  0  0  0  0  0  0  0  0
    8.6519   -1.5955    0.0000 C   0  0  0  0  0  0  0  0  0  0  0  0
    7.2859   -1.2295    0.0000 N   0  0  0  0  0  0  0  0  0  0  0  0
    6.2859   -1.2296    0.0000 C   0  0  0  0  0  0  0  0  0  0  0  0
    5.7860   -2.0956    0.0000 O   0  0  0  0  0  0  0  0  0  0  0  0
    5.7859   -0.3636    0.0000 C   0  0  0  0  0  0  0  0  0  0  0  0
    4.7859   -0.3636    0.0000 N   0  3  0  0  0  0  0  0  0  0  0  0
    4.2858    0.5024    0.0000 C   0  0  0  0  0  0  0  0  0  0  0  0
    3.2858    0.5023    0.0000 C   0  0  0  0  0  0  0  0  0  0  0  0
    2.6938   -0.3125    0.0000 C   0  0  0  0  0  0  0  0  0  0  0  0
    1.7360   -0.0012    0.0000 C   0  0  0  0  0  0  0  0  0  0  0  0
    0.8680   -0.4978    0.0000 C   0  0  0  0  0  0  0  0  0  0  0  0
    0.0000    0.0000    0.0000 C   0  0  0  0  0  0  0  0  0  0  0  0
    0.0000    1.0058    0.0000 C   0  0  0  0  0  0  0  0  0  0  0  0
    0.8680    1.5138    0.0000 C   0  0  0  0  0  0  0  0  0  0  0  0
    1.7360    1.0058    0.0000 C   0  0  0  0  0  0  0  0  0  0  0  0
    2.6938    1.3169    0.0000 N   0  0  0  0  0  0  0  0  0  0  0  0
   -0.8653   -0.5013    0.0000 O   0  0  0  0  0  0  0  0  0  0  0  0
   -0.8639   -1.5013    0.0000 C   0  0  0  0  0  0  0  0  0  0  0  0
  1  2  1  0  0  0  0
  2  3  1  0  0  0  0
  2  4  1  0  0  0  0
  2  5  1  0  0  0  0
  5  6  1  0  0  0  0
  6  7  2  0  0  0  0
  6  8  1  0  0  0  0
  8  9  1  0  0  0  0
  9 10  1  0  0  0  0
 10 11  1  0  0  0  0
 11 19  1  0  0  0  0
 11 12  2  0  0  0  0
 12 13  1  0  0  0  0
 13 18  2  0  0  0  0
 13 14  1  0  0  0  0
 14 15  2  0  0  0  0
 15 16  1  0  0  0  0
 16 17  2  0  0  0  0
 17 18  1  0  0  0  0
 18 19  1  0  0  0  0
 15 20  1  0  0  0  0
 20 21  1  0  0  0  0
M  CHG  1   9   1
M  END
$$$$
s_240690b____13612076____3025692
  -OEChem-03222016482D

 18 19  0     1  0  0  0  0  0999 V2000
   -0.8653   -0.5013    0.0000 C   0  0  0  0  0  0  0  0  0  0  0  0
    0.0000    0.0000    0.0000 C   0  0  0  0  0  0  0  0  0  0  0  0
   -0.0000    1.0058    0.0000 C   0  0  0  0  0  0  0  0  0  0  0  0
    0.8680    1.5138    0.0000 C   0  0  0  0  0  0  0  0  0  0  0  0
    1.7360    1.0058    0.0000 C   0  0  0  0  0  0  0  0  0  0  0  0
    1.7360   -0.0012    0.0000 C   0  0  0  0  0  0  0  0  0  0  0  0
    0.8680   -0.4978    0.0000 C   0  0  0  0  0  0  0  0  0  0  0  0
    2.6938   -0.3125    0.0000 C   0  0  0  0  0  0  0  0  0  0  0  0
    3.2858    0.5023    0.0000 C   0  0  0  0  0  0  0  0  0  0  0  0
    2.6938    1.3169    0.0000 N   0  0  0  0  0  0  0  0  0  0  0  0
    3.0028   -1.2636    0.0000 C   0  0  0  0  0  0  0  0  0  0  0  0
    3.9809   -1.4715    0.0000 C   0  0  0  0  0  0  0  0  0  0  0  0
    4.2899   -2.4226    0.0000 N   0  0  0  0  0  0  0  0  0  0  0  0
    5.2680   -2.6306    0.0000 C   0  0  0  0  0  0  0  0  0  0  0  0
    5.9372   -1.8874    0.0000 O   0  0  0  0  0  0  0  0  0  0  0  0
    5.5770   -3.5816    0.0000 C   0  0  3  0  0  0  0  0  0  0  0  0
    6.5551   -3.7896    0.0000 C   0  0  0  0  0  0  0  0  0  0  0  0
    4.9078   -4.3247    0.0000 N   0  3  0  0  0  0  0  0  0  0  0  0
  1  2  1  0  0  0  0
  2  7  2  0  0  0  0
  2  3  1  0  0  0  0
  3  4  2  0  0  0  0
  4  5  1  0  0  0  0
  5 10  1  0  0  0  0
  5  6  2  0  0  0  0
  6  7  1  0  0  0  0
  6  8  1  0  0  0  0
  8  9  2  0  0  0  0
  9 10  1  0  0  0  0
  8 11  1  0  0  0  0
 11 12  1  0  0  0  0
 12 13  1  0  0  0  0
 13 14  1  0  0  0  0
 14 15  2  0  0  0  0
 14 16  1  0  0  0  0
 16 17  1  0  0  0  0
 16 18  1  0  0  0  0
M  CHG  1  18   1
M  END
$$$$
s_270004____11392970____15269820
  -OEChem-03222016482D

 20 21  0     0  0  0  0  0  0999 V2000
    7.7858    1.3686    0.0000 C   0  0  0  0  0  0  0  0  0  0  0  0
    7.2857    2.2346    0.0000 N   0  0  0  0  0  0  0  0  0  0  0  0
    6.2857    2.2345    0.0000 C   0  0  0  0  0  0  0  0  0  0  0  0
    5.7856    3.1005    0.0000 O   0  0  0  0  0  0  0  0  0  0  0  0
    5.7858    1.3685    0.0000 C   0  0  0  0  0  0  0  0  0  0  0  0
    4.7858    1.3684    0.0000 N   0  3  0  0  0  0  0  0  0  0  0  0
    4.2858    0.5024    0.0000 C   0  0  0  0  0  0  0  0  0  0  0  0
    3.2858    0.5023    0.0000 C   0  0  0  0  0  0  0  0  0  0  0  0
    2.6938   -0.3125    0.0000 C   0  0  0  0  0  0  0  0  0  0  0  0
    1.7360   -0.0012    0.0000 C   0  0  0  0  0  0  0  0  0  0  0  0
    1.7360    1.0058    0.0000 C   0  0  0  0  0  0  0  0  0  0  0  0
    2.6938    1.3169    0.0000 N   0  0  0  0  0  0  0  0  0  0  0  0
    0.8680    1.5138    0.0000 C   0  0  0  0  0  0  0  0  0  0  0  0
    0.0000    1.0058    0.0000 C   0  0  0  0  0  0  0  0  0  0  0  0
    0.0000    0.0000    0.0000 C   0  0  0  0  0  0  0  0  0  0  0  0
    0.8680   -0.4978    0.0000 C   0  0  0  0  0  0  0  0  0  0  0  0
    0.8675   -1.4978    0.0000 O   0  0  0  0  0  0  0  0  0  0  0  0
    1.7332   -1.9983    0.0000 C   0  0  0  0  0  0  0  0  0  0  0  0
    7.7856    3.1006    0.0000 O   0  0  0  0  0  0  0  0  0  0  0  0
    8.7856    3.1007    0.0000 C   0  0  0  0  0  0  0  0  0  0  0  0
  1  2  1  0  0  0  0
  2  3  1  0  0  0  0
  3  4  2  0  0  0  0
  3  5  1  0  0  0  0
  5  6  1  0  0  0  0
  6  7  1  0  0  0  0
  7  8  1  0  0  0  0
  8 12  1  0  0  0  0
  8  9  2  0  0  0  0
  9 10  1  0  0  0  0
 10 16  2  0  0  0  0
 10 11  1  0  0  0  0
 11 12  1  0  0  0  0
 11 13  2  0  0  0  0
 13 14  1  0  0  0  0
 14 15  2  0  0  0  0
 15 16  1  0  0  0  0
 16 17  1  0  0  0  0
 17 18  1  0  0  0  0
  2 19  1  0  0  0  0
 19 20  1  0  0  0  0
M  CHG  1   6   1
M  END
$$$$
s_22____4839448____12111294
  -OEChem-03222016482D

 20 21  0     1  0  0  0  0  0999 V2000
    3.2605   -4.8599    0.0000 C   0  0  0  0  0  0  0  0  0  0  0  0
    2.2824   -4.6519    0.0000 C   0  0  3  0  0  0  0  0  0  0  0  0
    1.6132   -5.3951    0.0000 C   0  0  0  0  0  0  0  0  0  0  0  0
    1.9222   -6.3461    0.0000 F   0  0  0  0  0  0  0  0  0  0  0  0
    1.9734   -3.7009    0.0000 C   0  0  0  0  0  0  0  0  0  0  0  0
    0.9953   -3.4929    0.0000 O   0  0  0  0  0  0  0  0  0  0  0  0
    2.6426   -2.9578    0.0000 N   0  0  0  0  0  0  0  0  0  0  0  0
    2.3336   -2.0067    0.0000 C   0  0  0  0  0  0  0  0  0  0  0  0
    3.0028   -1.2636    0.0000 C   0  0  0  0  0  0  0  0  0  0  0  0
    2.6938   -0.3125    0.0000 C   0  0  0  0  0  0  0  0  0  0  0  0
    3.2858    0.5023    0.0000 C   0  0  0  0  0  0  0  0  0  0  0  0
    2.6938    1.3169    0.0000 N   0  0  0  0  0  0  0  0  0  0  0  0
    1.7360    1.0058    0.0000 C   0  0  0  0  0  0  0  0  0  0  0  0
    1.7360   -0.0012    0.0000 C   0  0  0  0  0  0  0  0  0  0  0  0
    0.8680   -0.4978    0.0000 C   0  0  0  0  0  0  0  0  0  0  0  0
    0.0000    0.0000    0.0000 C   0  0  0  0  0  0  0  0  0  0  0  0
   -0.0000    1.0058    0.0000 C   0  0  0  0  0  0  0  0  0  0  0  0
    0.8680    1.5138    0.0000 C   0  0  0  0  0  0  0  0  0  0  0  0
   -0.8653   -0.5013    0.0000 O   0  0  0  0  0  0  0  0  0  0  0  0
   -0.8639   -1.5013    0.0000 C   0  0  0  0  0  0  0  0  0  0  0  0
  1  2  1  0  0  0  0
  2  3  1  0  0  0  0
  3  4  1  0  0  0  0
  2  5  1  0  0  0  0
  5  6  2  0  0  0  0
  5  7  1  0  0  0  0
  7  8  1  0  0  0  0
  8  9  1  0  0  0  0
  9 10  1  0  0  0  0
 10 14  1  0  0  0  0
 10 11  2  0  0  0  0
 11 12  1  0  0  0  0
 12 13  1  0  0  0  0
 13 18  2  0  0  0  0
 13 14  1  0  0  0  0
 14 15  2  0  0  0  0
 15 16  1  0  0  0  0
 16 17  2  0  0  0  0
 17 18  1  0  0  0  0
 16 19  1  0  0  0  0
 19 20  1  0  0  0  0
M  END
$$$$
s_22____15506616____9477924
  -OEChem-03222016482D

 21 22  0     0  0  0  0  0  0999 V2000
    2.3563   -6.0642    0.0000 C   0  0  0  0  0  0  0  0  0  0  0  0
    1.6132   -5.3951    0.0000 C   0  0  0  0  0  0  0  0  0  0  0  0
    0.9440   -6.1382    0.0000 C   0  0  0  0  0  0  0  0  0  0  0  0
    2.2824   -4.6519    0.0000 C   0  0  0  0  0  0  0  0  0  0  0  0
    1.9734   -3.7009    0.0000 C   0  0  0  0  0  0  0  0  0  0  0  0
    0.9953   -3.4929    0.0000 O   0  0  0  0  0  0  0  0  0  0  0  0
    2.6426   -2.9578    0.0000 N   0  0  0  0  0  0  0  0  0  0  0  0
    2.3336   -2.0067    0.0000 C   0  0  0  0  0  0  0  0  0  0  0  0
    3.0028   -1.2636    0.0000 C   0  0  0  0  0  0  0  0  0  0  0  0
    2.6938   -0.3125    0.0000 C   0  0  0  0  0  0  0  0  0  0  0  0
    3.2858    0.5023    0.0000 C   0  0  0  0  0  0  0  0  0  0  0  0
    2.6938    1.3169    0.0000 N   0  0  0  0  0  0  0  0  0  0  0  0
    1.7360    1.0058    0.0000 C   0  0  0  0  0  0  0  0  0  0  0  0
    1.7360   -0.0012    0.0000 C   0  0  0  0  0  0  0  0  0  0  0  0
    0.8680   -0.4978    0.0000 C   0  0  0  0  0  0  0  0  0  0  0  0
    0.0000    0.0000    0.0000 C   0  0  0  0  0  0  0  0  0  0  0  0
   -0.0000    1.0058    0.0000 C   0  0  0  0  0  0  0  0  0  0  0  0
    0.8680    1.5138    0.0000 C   0  0  0  0  0  0  0  0  0  0  0  0
    0.8680    2.5138    0.0000 O   0  0  0  0  0  0  0  0  0  0  0  0
    0.0020    3.0138    0.0000 C   0  0  0  0  0  0  0  0  0  0  0  0
    0.8701   -4.7259    0.0000 O   0  0  0  0  0  0  0  0  0  0  0  0
  1  2  1  0  0  0  0
  2  3  1  0  0  0  0
  2  4  1  0  0  0  0
  4  5  1  0  0  0  0
  5  6  2  0  0  0  0
  5  7  1  0  0  0  0
  7  8  1  0  0  0  0
  8  9  1  0  0  0  0
  9 10  1  0  0  0  0
 10 14  1  0  0  0  0
 10 11  2  0  0  0  0
 11 12  1  0  0  0  0
 12 13  1  0  0  0  0
 13 18  2  0  0  0  0
 13 14  1  0  0  0  0
 14 15  2  0  0  0  0
 15 16  1  0  0  0  0
 16 17  2  0  0  0  0
 17 18  1  0  0  0  0
 18 19  1  0  0  0  0
 19 20  1  0  0  0  0
  2 21  1  0  0  0  0
M  END
$$$$
s_22____4839448____9477924
  -OEChem-03222016482D

 21 22  0     0  0  0  0  0  0999 V2000
    2.3563   -6.0642    0.0000 C   0  0  0  0  0  0  0  0  0  0  0  0
    1.6132   -5.3951    0.0000 C   0  0  0  0  0  0  0  0  0  0  0  0
    0.9440   -6.1382    0.0000 C   0  0  0  0  0  0  0  0  0  0  0  0
    2.2824   -4.6519    0.0000 C   0  0  0  0  0  0  0  0  0  0  0  0
    1.9734   -3.7009    0.0000 C   0  0  0  0  0  0  0  0  0  0  0  0
    0.9953   -3.4929    0.0000 O   0  0  0  0  0  0  0  0  0  0  0  0
    2.6426   -2.9578    0.0000 N   0  0  0  0  0  0  0  0  0  0  0  0
    2.3336   -2.0067    0.0000 C   0  0  0  0  0  0  0  0  0  0  0  0
    3.0028   -1.2636    0.0000 C   0  0  0  0  0  0  0  0  0  0  0  0
    2.6938   -0.3125    0.0000 C   0  0  0  0  0  0  0  0  0  0  0  0
    3.2858    0.5023    0.0000 C   0  0  0  0  0  0  0  0  0  0  0  0
    2.6938    1.3169    0.0000 N   0  0  0  0  0  0  0  0  0  0  0  0
    1.7360    1.0058    0.0000 C   0  0  0  0  0  0  0  0  0  0  0  0
    1.7360   -0.0012    0.0000 C   0  0  0  0  0  0  0  0  0  0  0  0
    0.8680   -0.4978    0.0000 C   0  0  0  0  0  0  0  0  0  0  0  0
    0.0000    0.0000    0.0000 C   0  0  0  0  0  0  0  0  0  0  0  0
   -0.0000    1.0058    0.0000 C   0  0  0  0  0  0  0  0  0  0  0  0
    0.8680    1.5138    0.0000 C   0  0  0  0  0  0  0  0  0  0  0  0
   -0.8653   -0.5013    0.0000 O   0  0  0  0  0  0  0  0  0  0  0  0
   -0.8639   -1.5013    0.0000 C   0  0  0  0  0  0  0  0  0  0  0  0
    0.8701   -4.7259    0.0000 O   0  0  0  0  0  0  0  0  0  0  0  0
  1  2  1  0  0  0  0
  2  3  1  0  0  0  0
  2  4  1  0  0  0  0
  4  5  1  0  0  0  0
  5  6  2  0  0  0  0
  5  7  1  0  0  0  0
  7  8  1  0  0  0  0
  8  9  1  0  0  0  0
  9 10  1  0  0  0  0
 10 14  1  0  0  0  0
 10 11  2  0  0  0  0
 11 12  1  0  0  0  0
 12 13  1  0  0  0  0
 13 18  2  0  0  0  0
 13 14  1  0  0  0  0
 14 15  2  0  0  0  0
 15 16  1  0  0  0  0
 16 17  2  0  0  0  0
 17 18  1  0  0  0  0
 16 19  1  0  0  0  0
 19 20  1  0  0  0  0
  2 21  1  0  0  0  0
M  END
$$$$
s_512____7932012____4839458
  -OEChem-03222016482D

 21 22  0     0  0  0  0  0  0999 V2000
    7.4820   -6.6428    0.0000 C   0  0  0  0  0  0  0  0  0  0  0  0
    7.1731   -5.6917    0.0000 C   0  0  0  0  0  0  0  0  0  0  0  0
    6.8641   -4.7407    0.0000 C   0  0  0  0  0  0  0  0  0  0  0  0
    6.5551   -3.7896    0.0000 C   0  0  0  0  0  0  0  0  0  0  0  0
    5.5770   -3.5816    0.0000 N   0  0  0  0  0  0  0  0  0  0  0  0
    5.2680   -2.6306    0.0000 C   0  0  0  0  0  0  0  0  0  0  0  0
    5.9372   -1.8874    0.0000 O   0  0  0  0  0  0  0  0  0  0  0  0
    4.2899   -2.4226    0.0000 N   0  0  0  0  0  0  0  0  0  0  0  0
    3.9809   -1.4715    0.0000 C   0  0  0  0  0  0  0  0  0  0  0  0
    3.0028   -1.2636    0.0000 C   0  0  0  0  0  0  0  0  0  0  0  0
    2.6938   -0.3125    0.0000 C   0  0  0  0  0  0  0  0  0  0  0  0
    3.2858    0.5023    0.0000 C   0  0  0  0  0  0  0  0  0  0  0  0
    2.6938    1.3169    0.0000 N   0  0  0  0  0  0  0  0  0  0  0  0
    1.7360    1.0058    0.0000 C   0  0  0  0  0  0  0  0  0  0  0  0
    1.7360   -0.0012    0.0000 C   0  0  0  0  0  0  0  0  0  0  0  0
    0.8680   -0.4978    0.0000 C   0  0  0  0  0  0  0  0  0  0  0  0
    0.0000    0.0000    0.0000 C   0  0  0  0  0  0  0  0  0  0  0  0
   -0.0000    1.0058    0.0000 C   0  0  0  0  0  0  0  0  0  0  0  0
    0.8680    1.5138    0.0000 C   0  0  0  0  0  0  0  0  0  0  0  0
   -0.8653   -0.5013    0.0000 O   0  0  0  0  0  0  0  0  0  0  0  0
   -0.8639   -1.5013    0.0000 C   0  0  0  0  0  0  0  0  0  0  0  0
  1  2  1  0  0  0  0
  2  3  3  0  0  0  0
  3  4  1  0  0  0  0
  4  5  1  0  0  0  0
  5  6  1  0  0  0  0
  6  7  2  0  0  0  0
  6  8  1  0  0  0  0
  8  9  1  0  0  0  0
  9 10  1  0  0  0  0
 10 11  1  0  0  0  0
 11 15  1  0  0  0  0
 11 12  2  0  0  0  0
 12 13  1  0  0  0  0
 13 14  1  0  0  0  0
 14 19  2  0  0  0  0
 14 15  1  0  0  0  0
 15 16  2  0  0  0  0
 16 17  1  0  0  0  0
 17 18  2  0  0  0  0
 18 19  1  0  0  0  0
 17 20  1  0  0  0  0
 20 21  1  0  0  0  0
M  END
$$$$
s_22____15506616____590148
  -OEChem-03222016482D

 21 22  0     0  0  0  0  0  0999 V2000
    1.7340    3.0138    0.0000 C   0  0  0  0  0  0  0  0  0  0  0  0
    0.8680    2.5138    0.0000 O   0  0  0  0  0  0  0  0  0  0  0  0
    0.8680    1.5138    0.0000 C   0  0  0  0  0  0  0  0  0  0  0  0
    0.0000    1.0058    0.0000 C   0  0  0  0  0  0  0  0  0  0  0  0
    0.0000    0.0000    0.0000 C   0  0  0  0  0  0  0  0  0  0  0  0
    0.8680   -0.4978    0.0000 C   0  0  0  0  0  0  0  0  0  0  0  0
    1.7360   -0.0012    0.0000 C   0  0  0  0  0  0  0  0  0  0  0  0
    1.7360    1.0058    0.0000 C   0  0  0  0  0  0  0  0  0  0  0  0
    2.6938    1.3169    0.0000 N   0  0  0  0  0  0  0  0  0  0  0  0
    3.2858    0.5023    0.0000 C   0  0  0  0  0  0  0  0  0  0  0  0
    2.6938   -0.3125    0.0000 C   0  0  0  0  0  0  0  0  0  0  0  0
    3.0028   -1.2636    0.0000 C   0  0  0  0  0  0  0  0  0  0  0  0
    3.9809   -1.4715    0.0000 C   0  0  0  0  0  0  0  0  0  0  0  0
    4.2899   -2.4226    0.0000 N   0  0  0  0  0  0  0  0  0  0  0  0
    5.2680   -2.6306    0.0000 C   0  0  0  0  0  0  0  0  0  0  0  0
    5.9372   -1.8874    0.0000 O   0  0  0  0  0  0  0  0  0  0  0  0
    5.5770   -3.5816    0.0000 C   0  0  0  0  0  0  0  0  0  0  0  0
    6.5551   -3.7896    0.0000 C   0  0  0  0  0  0  0  0  0  0  0  0
    7.2243   -3.0465    0.0000 O   0  0  0  0  0  0  0  0  0  0  0  0
    6.8641   -4.7407    0.0000 O   0  0  0  0  0  0  0  0  0  0  0  0
    7.8422   -4.9486    0.0000 C   0  0  0  0  0  0  0  0  0  0  0  0
  1  2  1  0  0  0  0
  2  3  1  0  0  0  0
  3  8  2  0  0  0  0
  3  4  1  0  0  0  0
  4  5  2  0  0  0  0
  5  6  1  0  0  0  0
  6  7  2  0  0  0  0
  7 11  1  0  0  0  0
  7  8  1  0  0  0  0
  8  9  1  0  0  0  0
  9 10  1  0  0  0  0
 10 11  2  0  0  0  0
 11 12  1  0  0  0  0
 12 13  1  0  0  0  0
 13 14  1  0  0  0  0
 14 15  1  0  0  0  0
 15 16  2  0  0  0  0
 15 17  1  0  0  0  0
 17 18  1  0  0  0  0
 18 19  2  0  0  0  0
 18 20  1  0  0  0  0
 20 21  1  0  0  0  0
M  END
$$$$
s_22____13978824____10389864
  -OEChem-03222016482D

 21 22  0     0  0  0  0  0  0999 V2000
   -0.8705    2.5032    0.0000 C   0  0  0  0  0  0  0  0  0  0  0  0
   -0.8675    1.5032    0.0000 O   0  0  0  0  0  0  0  0  0  0  0  0
    0.0000    1.0058    0.0000 C   0  0  0  0  0  0  0  0  0  0  0  0
    0.0000    0.0000    0.0000 C   0  0  0  0  0  0  0  0  0  0  0  0
    0.8680   -0.4978    0.0000 C   0  0  0  0  0  0  0  0  0  0  0  0
    1.7360   -0.0012    0.0000 C   0  0  0  0  0  0  0  0  0  0  0  0
    1.7360    1.0058    0.0000 C   0  0  0  0  0  0  0  0  0  0  0  0
    0.8680    1.5138    0.0000 C   0  0  0  0  0  0  0  0  0  0  0  0
    2.6938    1.3169    0.0000 N   0  0  0  0  0  0  0  0  0  0  0  0
    3.2858    0.5023    0.0000 C   0  0  0  0  0  0  0  0  0  0  0  0
    2.6938   -0.3125    0.0000 C   0  0  0  0  0  0  0  0  0  0  0  0
    3.0028   -1.2636    0.0000 C   0  0  0  0  0  0  0  0  0  0  0  0
    3.9809   -1.4715    0.0000 C   0  0  0  0  0  0  0  0  0  0  0  0
    4.2899   -2.4226    0.0000 N   0  0  0  0  0  0  0  0  0  0  0  0
    5.2680   -2.6306    0.0000 C   0  0  0  0  0  0  0  0  0  0  0  0
    5.9372   -1.8874    0.0000 O   0  0  0  0  0  0  0  0  0  0  0  0
    5.5770   -3.5816    0.0000 C   0  0  0  0  0  0  0  0  0  0  0  0
    6.5551   -3.7896    0.0000 C   0  0  0  0  0  0  0  0  0  0  0  0
    6.8641   -4.7407    0.0000 C   0  0  0  0  0  0  0  0  0  0  0  0
    7.8422   -4.9486    0.0000 C   0  0  0  0  0  0  0  0  0  0  0  0
    8.8204   -5.1566    0.0000 N   0  0  0  0  0  0  0  0  0  0  0  0
  1  2  1  0  0  0  0
  2  3  1  0  0  0  0
  3  8  2  0  0  0  0
  3  4  1  0  0  0  0
  4  5  2  0  0  0  0
  5  6  1  0  0  0  0
  6 11  1  0  0  0  0
  6  7  2  0  0  0  0
  7  8  1  0  0  0  0
  7  9  1  0  0  0  0
  9 10  1  0  0  0  0
 10 11  2  0  0  0  0
 11 12  1  0  0  0  0
 12 13  1  0  0  0  0
 13 14  1  0  0  0  0
 14 15  1  0  0  0  0
 15 16  2  0  0  0  0
 15 17  1  0  0  0  0
 17 18  1  0  0  0  0
 18 19  1  0  0  0  0
 19 20  1  0  0  0  0
 20 21  3  0  0  0  0
M  END
$$$$
s_22____16720536____337030
  -OEChem-03222016482D

 18 19  0     0  0  0  0  0  0999 V2000
    6.5551   -3.7896    0.0000 C   0  0  0  0  0  0  0  0  0  0  0  0
    5.5770   -3.5816    0.0000 C   0  0  0  0  0  0  0  0  0  0  0  0
    4.9078   -4.3247    0.0000 C   0  0  0  0  0  0  0  0  0  0  0  0
    5.2680   -2.6306    0.0000 C   0  0  0  0  0  0  0  0  0  0  0  0
    5.9372   -1.8874    0.0000 O   0  0  0  0  0  0  0  0  0  0  0  0
    4.2899   -2.4226    0.0000 N   0  0  0  0  0  0  0  0  0  0  0  0
    3.9809   -1.4715    0.0000 C   0  0  0  0  0  0  0  0  0  0  0  0
    3.0028   -1.2636    0.0000 C   0  0  0  0  0  0  0  0  0  0  0  0
    2.6938   -0.3125    0.0000 C   0  0  0  0  0  0  0  0  0  0  0  0
    3.2858    0.5023    0.0000 C   0  0  0  0  0  0  0  0  0  0  0  0
    2.6938    1.3169    0.0000 N   0  0  0  0  0  0  0  0  0  0  0  0
    1.7360    1.0058    0.0000 C   0  0  0  0  0  0  0  0  0  0  0  0
    1.7360   -0.0012    0.0000 C   0  0  0  0  0  0  0  0  0  0  0  0
    0.8680   -0.4978    0.0000 C   0  0  0  0  0  0  0  0  0  0  0  0
    0.0000    0.0000    0.0000 C   0  0  0  0  0  0  0  0  0  0  0  0
   -0.0000    1.0058    0.0000 C   0  0  0  0  0  0  0  0  0  0  0  0
    0.8680    1.5138    0.0000 C   0  0  0  0  0  0  0  0  0  0  0  0
    0.8680    2.5138    0.0000 Br  0  0  0  0  0  0  0  0  0  0  0  0
  1  2  1  0  0  0  0
  2  3  1  0  0  0  0
  2  4  1  0  0  0  0
  4  5  2  0  0  0  0
  4  6  1  0  0  0  0
  6  7  1  0  0  0  0
  7  8  1  0  0  0  0
  8  9  1  0  0  0  0
  9 13  1  0  0  0  0
  9 10  2  0  0  0  0
 10 11  1  0  0  0  0
 11 12  1  0  0  0  0
 12 17  2  0  0  0  0
 12 13  1  0  0  0  0
 13 14  2  0  0  0  0
 14 15  1  0  0  0  0
 15 16  2  0  0  0  0
 16 17  1  0  0  0  0
 17 18  1  0  0  0  0
M  END
$$$$
s_22____4839448____10748158
  -OEChem-03222016482D

 21 22  0     0  0  0  0  0  0999 V2000
   -1.7320   -0.0025    0.0000 C   0  0  0  0  0  0  0  0  0  0  0  0
   -0.8653   -0.5013    0.0000 O   0  0  0  0  0  0  0  0  0  0  0  0
    0.0000    0.0000    0.0000 C   0  0  0  0  0  0  0  0  0  0  0  0
   -0.0000    1.0058    0.0000 C   0  0  0  0  0  0  0  0  0  0  0  0
    0.8680    1.5138    0.0000 C   0  0  0  0  0  0  0  0  0  0  0  0
    1.7360    1.0058    0.0000 C   0  0  0  0  0  0  0  0  0  0  0  0
    1.7360   -0.0012    0.0000 C   0  0  0  0  0  0  0  0  0  0  0  0
    0.8680   -0.4978    0.0000 C   0  0  0  0  0  0  0  0  0  0  0  0
    2.6938   -0.3125    0.0000 C   0  0  0  0  0  0  0  0  0  0  0  0
    3.2858    0.5023    0.0000 C   0  0  0  0  0  0  0  0  0  0  0  0
    2.6938    1.3169    0.0000 N   0  0  0  0  0  0  0  0  0  0  0  0
    3.0028   -1.2636    0.0000 C   0  0  0  0  0  0  0  0  0  0  0  0
    3.9809   -1.4715    0.0000 C   0  0  0  0  0  0  0  0  0  0  0  0
    4.2899   -2.4226    0.0000 N   0  0  0  0  0  0  0  0  0  0  0  0
    5.2680   -2.6306    0.0000 C   0  0  0  0  0  0  0  0  0  0  0  0
    5.9372   -1.8874    0.0000 O   0  0  0  0  0  0  0  0  0  0  0  0
    5.5770   -3.5816    0.0000 C   0  0  0  0  0  0  0  0  0  0  0  0
    6.5551   -3.7896    0.0000 S   0  0  0  0  0  0  0  0  0  0  0  0
    6.8641   -4.7407    0.0000 C   0  0  0  0  0  0  0  0  0  0  0  0
    7.8422   -4.9486    0.0000 F   0  0  0  0  0  0  0  0  0  0  0  0
    6.1949   -5.4838    0.0000 F   0  0  0  0  0  0  0  0  0  0  0  0
  1  2  1  0  0  0  0
  2  3  1  0  0  0  0
  3  8  2  0  0  0  0
  3  4  1  0  0  0  0
  4  5  2  0  0  0  0
  5  6  1  0  0  0  0
  6 11  1  0  0  0  0
  6  7  2  0  0  0  0
  7  8  1  0  0  0  0
  7  9  1  0  0  0  0
  9 10  2  0  0  0  0
 10 11  1  0  0  0  0
  9 12  1  0  0  0  0
 12 13  1  0  0  0  0
 13 14  1  0  0  0  0
 14 15  1  0  0  0  0
 15 16  2  0  0  0  0
 15 17  1  0  0  0  0
 17 18  1  0  0  0  0
 18 19  1  0  0  0  0
 19 20  1  0  0  0  0
 19 21  1  0  0  0  0
M  END
$$$$
s_22____10303762____7941800
  -OEChem-03222016482D

 17 18  0     0  0  0  0  0  0999 V2000
   -0.0000    1.0058    0.0000 C   0  0  0  0  0  0  0  0  0  0  0  0
    0.8680    1.5138    0.0000 C   0  0  0  0  0  0  0  0  0  0  0  0
    1.7360    1.0058    0.0000 C   0  0  0  0  0  0  0  0  0  0  0  0
    1.7360   -0.0012    0.0000 C   0  0  0  0  0  0  0  0  0  0  0  0
    0.8680   -0.4978    0.0000 C   0  0  0  0  0  0  0  0  0  0  0  0
    0.0000    0.0000    0.0000 C   0  0  0  0  0  0  0  0  0  0  0  0
    0.8675   -1.4978    0.0000 Br  0  0  0  0  0  0  0  0  0  0  0  0
    2.6938   -0.3125    0.0000 C   0  0  0  0  0  0  0  0  0  0  0  0
    3.2858    0.5023    0.0000 C   0  0  0  0  0  0  0  0  0  0  0  0
    2.6938    1.3169    0.0000 N   0  0  0  0  0  0  0  0  0  0  0  0
    3.0028   -1.2636    0.0000 C   0  0  0  0  0  0  0  0  0  0  0  0
    3.9809   -1.4715    0.0000 C   0  0  0  0  0  0  0  0  0  0  0  0
    4.2899   -2.4226    0.0000 N   0  0  0  0  0  0  0  0  0  0  0  0
    5.2680   -2.6306    0.0000 C   0  0  0  0  0  0  0  0  0  0  0  0
    5.9372   -1.8874    0.0000 O   0  0  0  0  0  0  0  0  0  0  0  0
    5.5770   -3.5816    0.0000 C   0  0  0  0  0  0  0  0  0  0  0  0
    6.5551   -3.7896    0.0000 O   0  0  0  0  0  0  0  0  0  0  0  0
  1  6  2  0  0  0  0
  1  2  1  0  0  0  0
  2  3  2  0  0  0  0
  3 10  1  0  0  0  0
  3  4  1  0  0  0  0
  4  5  2  0  0  0  0
  5  6  1  0  0  0  0
  5  7  1  0  0  0  0
  4  8  1  0  0  0  0
  8  9  2  0  0  0  0
  9 10  1  0  0  0  0
  8 11  1  0  0  0  0
 11 12  1  0  0  0  0
 12 13  1  0  0  0  0
 13 14  1  0  0  0  0
 14 15  2  0  0  0  0
 14 16  1  0  0  0  0
 16 17  1  0  0  0  0
M  END
$$$$
s_22____13978824____4832482
  -OEChem-03222016482D

 20 21  0     1  0  0  0  0  0999 V2000
    3.2605   -4.8599    0.0000 C   0  0  0  0  0  0  0  0  0  0  0  0
    2.2824   -4.6519    0.0000 C   0  0  3  0  0  0  0  0  0  0  0  0
    1.6132   -5.3951    0.0000 C   0  0  0  0  0  0  0  0  0  0  0  0
    0.9440   -6.1382    0.0000 N   0  0  0  0  0  0  0  0  0  0  0  0
    1.9734   -3.7009    0.0000 C   0  0  0  0  0  0  0  0  0  0  0  0
    0.9953   -3.4929    0.0000 O   0  0  0  0  0  0  0  0  0  0  0  0
    2.6426   -2.9578    0.0000 N   0  0  0  0  0  0  0  0  0  0  0  0
    2.3336   -2.0067    0.0000 C   0  0  0  0  0  0  0  0  0  0  0  0
    3.0028   -1.2636    0.0000 C   0  0  0  0  0  0  0  0  0  0  0  0
    2.6938   -0.3125    0.0000 C   0  0  0  0  0  0  0  0  0  0  0  0
    3.2858    0.5023    0.0000 C   0  0  0  0  0  0  0  0  0  0  0  0
    2.6938    1.3169    0.0000 N   0  0  0  0  0  0  0  0  0  0  0  0
    1.7360    1.0058    0.0000 C   0  0  0  0  0  0  0  0  0  0  0  0
    1.7360   -0.0012    0.0000 C   0  0  0  0  0  0  0  0  0  0  0  0
    0.8680   -0.4978    0.0000 C   0  0  0  0  0  0  0  0  0  0  0  0
    0.0000    0.0000    0.0000 C   0  0  0  0  0  0  0  0  0  0  0  0
   -0.0000    1.0058    0.0000 C   0  0  0  0  0  0  0  0  0  0  0  0
    0.8680    1.5138    0.0000 C   0  0  0  0  0  0  0  0  0  0  0  0
   -0.8675    1.5032    0.0000 O   0  0  0  0  0  0  0  0  0  0  0  0
   -1.7320    1.0007    0.0000 C   0  0  0  0  0  0  0  0  0  0  0  0
  1  2  1  0  0  0  0
  2  3  1  0  0  0  0
  3  4  3  0  0  0  0
  2  5  1  0  0  0  0
  5  6  2  0  0  0  0
  5  7  1  0  0  0  0
  7  8  1  0  0  0  0
  8  9  1  0  0  0  0
  9 10  1  0  0  0  0
 10 14  1  0  0  0  0
 10 11  2  0  0  0  0
 11 12  1  0  0  0  0
 12 13  1  0  0  0  0
 13 18  2  0  0  0  0
 13 14  1  0  0  0  0
 14 15  2  0  0  0  0
 15 16  1  0  0  0  0
 16 17  2  0  0  0  0
 17 18  1  0  0  0  0
 17 19  1  0  0  0  0
 19 20  1  0  0  0  0
M  END
$$$$
s_22____13025516____16520644
  -OEChem-03222016482D

 21 22  0     1  0  0  0  0  0999 V2000
    7.2243   -3.0465    0.0000 C   0  0  0  0  0  0  0  0  0  0  0  0
    6.5551   -3.7896    0.0000 C   0  0  3  0  0  0  0  0  0  0  0  0
    5.5770   -3.5816    0.0000 C   0  0  0  0  0  0  0  0  0  0  0  0
    5.2680   -2.6306    0.0000 C   0  0  0  0  0  0  0  0  0  0  0  0
    5.9372   -1.8874    0.0000 O   0  0  0  0  0  0  0  0  0  0  0  0
    4.2899   -2.4226    0.0000 N   0  0  0  0  0  0  0  0  0  0  0  0
    3.9809   -1.4715    0.0000 C   0  0  0  0  0  0  0  0  0  0  0  0
    3.0028   -1.2636    0.0000 C   0  0  0  0  0  0  0  0  0  0  0  0
    2.6938   -0.3125    0.0000 C   0  0  0  0  0  0  0  0  0  0  0  0
    3.2858    0.5023    0.0000 C   0  0  0  0  0  0  0  0  0  0  0  0
    2.6938    1.3169    0.0000 N   0  0  0  0  0  0  0  0  0  0  0  0
    1.7360    1.0058    0.0000 C   0  0  0  0  0  0  0  0  0  0  0  0
    1.7360   -0.0012    0.0000 C   0  0  0  0  0  0  0  0  0  0  0  0
    0.8680   -0.4978    0.0000 C   0  0  0  0  0  0  0  0  0  0  0  0
    0.0000    0.0000    0.0000 C   0  0  0  0  0  0  0  0  0  0  0  0
   -0.0000    1.0058    0.0000 C   0  0  0  0  0  0  0  0  0  0  0  0
    0.8680    1.5138    0.0000 C   0  0  0  0  0  0  0  0  0  0  0  0
    0.8675   -1.4978    0.0000 O   0  0  0  0  0  0  0  0  0  0  0  0
    1.7332   -1.9983    0.0000 C   0  0  0  0  0  0  0  0  0  0  0  0
    6.8641   -4.7407    0.0000 C   0  0  0  0  0  0  0  0  0  0  0  0
    7.8422   -4.9486    0.0000 C   0  0  0  0  0  0  0  0  0  0  0  0
  1  2  1  0  0  0  0
  2  3  1  0  0  0  0
  3  4  1  0  0  0  0
  4  5  2  0  0  0  0
  4  6  1  0  0  0  0
  6  7  1  0  0  0  0
  7  8  1  0  0  0  0
  8  9  1  0  0  0  0
  9 13  1  0  0  0  0
  9 10  2  0  0  0  0
 10 11  1  0  0  0  0
 11 12  1  0  0  0  0
 12 17  2  0  0  0  0
 12 13  1  0  0  0  0
 13 14  2  0  0  0  0
 14 15  1  0  0  0  0
 15 16  2  0  0  0  0
 16 17  1  0  0  0  0
 14 18  1  0  0  0  0
 18 19  1  0  0  0  0
  2 20  1  0  0  0  0
 20 21  2  0  0  0  0
M  END
$$$$
s_22____16720536____58887
  -OEChem-03222016482D

 17 18  0     0  0  0  0  0  0999 V2000
    1.6132   -5.3951    0.0000 C   0  0  0  0  0  0  0  0  0  0  0  0
    2.2824   -4.6519    0.0000 C   0  0  0  0  0  0  0  0  0  0  0  0
    1.9734   -3.7009    0.0000 C   0  0  0  0  0  0  0  0  0  0  0  0
    0.9953   -3.4929    0.0000 O   0  0  0  0  0  0  0  0  0  0  0  0
    2.6426   -2.9578    0.0000 N   0  0  0  0  0  0  0  0  0  0  0  0
    2.3336   -2.0067    0.0000 C   0  0  0  0  0  0  0  0  0  0  0  0
    3.0028   -1.2636    0.0000 C   0  0  0  0  0  0  0  0  0  0  0  0
    2.6938   -0.3125    0.0000 C   0  0  0  0  0  0  0  0  0  0  0  0
    3.2858    0.5023    0.0000 C   0  0  0  0  0  0  0  0  0  0  0  0
    2.6938    1.3169    0.0000 N   0  0  0  0  0  0  0  0  0  0  0  0
    1.7360    1.0058    0.0000 C   0  0  0  0  0  0  0  0  0  0  0  0
    1.7360   -0.0012    0.0000 C   0  0  0  0  0  0  0  0  0  0  0  0
    0.8680   -0.4978    0.0000 C   0  0  0  0  0  0  0  0  0  0  0  0
    0.0000    0.0000    0.0000 C   0  0  0  0  0  0  0  0  0  0  0  0
   -0.0000    1.0058    0.0000 C   0  0  0  0  0  0  0  0  0  0  0  0
    0.8680    1.5138    0.0000 C   0  0  0  0  0  0  0  0  0  0  0  0
    0.8680    2.5138    0.0000 Br  0  0  0  0  0  0  0  0  0  0  0  0
  1  2  1  0  0  0  0
  2  3  1  0  0  0  0
  3  4  2  0  0  0  0
  3  5  1  0  0  0  0
  5  6  1  0  0  0  0
  6  7  1  0  0  0  0
  7  8  1  0  0  0  0
  8 12  1  0  0  0  0
  8  9  2  0  0  0  0
  9 10  1  0  0  0  0
 10 11  1  0  0  0  0
 11 16  2  0  0  0  0
 11 12  1  0  0  0  0
 12 13  2  0  0  0  0
 13 14  1  0  0  0  0
 14 15  2  0  0  0  0
 15 16  1  0  0  0  0
 16 17  1  0  0  0  0
M  END
$$$$
s_240690b____13025580____3025682
  -OEChem-03222016482D

 20 21  0     0  0  0  0  0  0999 V2000
    0.0012   -1.9973    0.0000 C   0  0  0  0  0  0  0  0  0  0  0  0
    0.8675   -1.4978    0.0000 O   0  0  0  0  0  0  0  0  0  0  0  0
    0.8680   -0.4978    0.0000 C   0  0  0  0  0  0  0  0  0  0  0  0
    0.0000    0.0000    0.0000 C   0  0  0  0  0  0  0  0  0  0  0  0
   -0.0000    1.0058    0.0000 C   0  0  0  0  0  0  0  0  0  0  0  0
    0.8680    1.5138    0.0000 C   0  0  0  0  0  0  0  0  0  0  0  0
    1.7360    1.0058    0.0000 C   0  0  0  0  0  0  0  0  0  0  0  0
    1.7360   -0.0012    0.0000 C   0  0  0  0  0  0  0  0  0  0  0  0
    2.6938   -0.3125    0.0000 C   0  0  0  0  0  0  0  0  0  0  0  0
    3.2858    0.5023    0.0000 C   0  0  0  0  0  0  0  0  0  0  0  0
    2.6938    1.3169    0.0000 N   0  0  0  0  0  0  0  0  0  0  0  0
    3.0028   -1.2636    0.0000 C   0  0  0  0  0  0  0  0  0  0  0  0
    3.9809   -1.4715    0.0000 C   0  0  0  0  0  0  0  0  0  0  0  0
    4.2899   -2.4226    0.0000 N   0  0  0  0  0  0  0  0  0  0  0  0
    5.2680   -2.6306    0.0000 C   0  0  0  0  0  0  0  0  0  0  0  0
    5.9372   -1.8874    0.0000 O   0  0  0  0  0  0  0  0  0  0  0  0
    5.5770   -3.5816    0.0000 C   0  0  0  0  0  0  0  0  0  0  0  0
    6.5551   -3.7896    0.0000 C   0  0  0  0  0  0  0  0  0  0  0  0
    6.8641   -4.7407    0.0000 C   0  0  0  0  0  0  0  0  0  0  0  0
    7.8422   -4.9486    0.0000 N   0  3  0  0  0  0  0  0  0  0  0  0
  1  2  1  0  0  0  0
  2  3  1  0  0  0  0
  3  8  2  0  0  0  0
  3  4  1  0  0  0  0
  4  5  2  0  0  0  0
  5  6  1  0  0  0  0
  6  7  2  0  0  0  0
  7 11  1  0  0  0  0
  7  8  1  0  0  0  0
  8  9  1  0  0  0  0
  9 10  2  0  0  0  0
 10 11  1  0  0  0  0
  9 12  1  0  0  0  0
 12 13  1  0  0  0  0
 13 14  1  0  0  0  0
 14 15  1  0  0  0  0
 15 16  2  0  0  0  0
 15 17  1  0  0  0  0
 17 18  1  0  0  0  0
 18 19  1  0  0  0  0
 19 20  1  0  0  0  0
M  CHG  1  20   1
M  END
$$$$
s_11a____14724372____294102
  -OEChem-03222016482D

 23 24  0     1  0  0  0  0  0999 V2000
   -1.9391   -2.8690    0.0000 C   0  0  0  0  0  0  0  0  0  0  0  0
   -0.9610   -3.0770    0.0000 O   0  0  0  0  0  0  0  0  0  0  0  0
   -0.2918   -2.3339    0.0000 C   0  0  0  0  0  0  0  0  0  0  0  0
    0.6863   -2.5418    0.0000 C   0  0  0  0  0  0  0  0  0  0  0  0
    0.9953   -3.4929    0.0000 O   0  0  0  0  0  0  0  0  0  0  0  0
    1.3555   -1.7987    0.0000 N   0  0  0  0  0  0  0  0  0  0  0  0
    2.3336   -2.0067    0.0000 C   0  0  3  0  0  0  0  0  0  0  0  0
    3.0028   -1.2636    0.0000 C   0  0  0  0  0  0  0  0  0  0  0  0
    2.6938   -0.3125    0.0000 C   0  0  0  0  0  0  0  0  0  0  0  0
    3.2858    0.5023    0.0000 C   0  0  0  0  0  0  0  0  0  0  0  0
    2.6938    1.3169    0.0000 N   0  0  0  0  0  0  0  0  0  0  0  0
    1.7360    1.0058    0.0000 C   0  0  0  0  0  0  0  0  0  0  0  0
    1.7360   -0.0012    0.0000 C   0  0  0  0  0  0  0  0  0  0  0  0
    0.8680   -0.4978    0.0000 C   0  0  0  0  0  0  0  0  0  0  0  0
    0.0000    0.0000    0.0000 C   0  0  0  0  0  0  0  0  0  0  0  0
   -0.0000    1.0058    0.0000 C   0  0  0  0  0  0  0  0  0  0  0  0
    0.8680    1.5138    0.0000 C   0  0  0  0  0  0  0  0  0  0  0  0
   -0.8653   -0.5013    0.0000 O   0  0  0  0  0  0  0  0  0  0  0  0
   -0.8639   -1.5013    0.0000 C   0  0  0  0  0  0  0  0  0  0  0  0
    2.6426   -2.9578    0.0000 C   0  0  0  0  0  0  0  0  0  0  0  0
    1.9734   -3.7009    0.0000 O   0  0  0  0  0  0  0  0  0  0  0  0
    3.6207   -3.1657    0.0000 O   0  0  0  0  0  0  0  0  0  0  0  0
    3.9297   -4.1168    0.0000 C   0  0  0  0  0  0  0  0  0  0  0  0
  1  2  1  0  0  0  0
  2  3  1  0  0  0  0
  3  4  1  0  0  0  0
  4  5  2  0  0  0  0
  4  6  1  0  0  0  0
  6  7  1  0  0  0  0
  7  8  1  0  0  0  0
  8  9  1  0  0  0  0
  9 13  1  0  0  0  0
  9 10  2  0  0  0  0
 10 11  1  0  0  0  0
 11 12  1  0  0  0  0
 12 17  2  0  0  0  0
 12 13  1  0  0  0  0
 13 14  2  0  0  0  0
 14 15  1  0  0  0  0
 15 16  2  0  0  0  0
 16 17  1  0  0  0  0
 15 18  1  0  0  0  0
 18 19  1  0  0  0  0
  7 20  1  0  0  0  0
 20 21  2  0  0  0  0
 20 22  1  0  0  0  0
 22 23  1  0  0  0  0
M  END
$$$$
s_22____13978824____16890190
  -OEChem-03222016482D

 20 21  0     1  0  0  0  0  0999 V2000
    0.6351   -5.1871    0.0000 C   0  0  0  0  0  0  0  0  0  0  0  0
    1.6132   -5.3951    0.0000 C   0  0  3  0  0  0  0  0  0  0  0  0
    2.2824   -4.6519    0.0000 C   0  0  0  0  0  0  0  0  0  0  0  0
    1.9734   -3.7009    0.0000 C   0  0  0  0  0  0  0  0  0  0  0  0
    0.9953   -3.4929    0.0000 O   0  0  0  0  0  0  0  0  0  0  0  0
    2.6426   -2.9578    0.0000 N   0  0  0  0  0  0  0  0  0  0  0  0
    2.3336   -2.0067    0.0000 C   0  0  0  0  0  0  0  0  0  0  0  0
    3.0028   -1.2636    0.0000 C   0  0  0  0  0  0  0  0  0  0  0  0
    2.6938   -0.3125    0.0000 C   0  0  0  0  0  0  0  0  0  0  0  0
    3.2858    0.5023    0.0000 C   0  0  0  0  0  0  0  0  0  0  0  0
    2.6938    1.3169    0.0000 N   0  0  0  0  0  0  0  0  0  0  0  0
    1.7360    1.0058    0.0000 C   0  0  0  0  0  0  0  0  0  0  0  0
    1.7360   -0.0012    0.0000 C   0  0  0  0  0  0  0  0  0  0  0  0
    0.8680   -0.4978    0.0000 C   0  0  0  0  0  0  0  0  0  0  0  0
    0.0000    0.0000    0.0000 C   0  0  0  0  0  0  0  0  0  0  0  0
   -0.0000    1.0058    0.0000 C   0  0  0  0  0  0  0  0  0  0  0  0
    0.8680    1.5138    0.0000 C   0  0  0  0  0  0  0  0  0  0  0  0
   -0.8675    1.5032    0.0000 O   0  0  0  0  0  0  0  0  0  0  0  0
   -1.7320    1.0007    0.0000 C   0  0  0  0  0  0  0  0  0  0  0  0
    1.9222   -6.3461    0.0000 F   0  0  0  0  0  0  0  0  0  0  0  0
  1  2  1  0  0  0  0
  2  3  1  0  0  0  0
  3  4  1  0  0  0  0
  4  5  2  0  0  0  0
  4  6  1  0  0  0  0
  6  7  1  0  0  0  0
  7  8  1  0  0  0  0
  8  9  1  0  0  0  0
  9 13  1  0  0  0  0
  9 10  2  0  0  0  0
 10 11  1  0  0  0  0
 11 12  1  0  0  0  0
 12 17  2  0  0  0  0
 12 13  1  0  0  0  0
 13 14  2  0  0  0  0
 14 15  1  0  0  0  0
 15 16  2  0  0  0  0
 16 17  1  0  0  0  0
 16 18  1  0  0  0  0
 18 19  1  0  0  0  0
  2 20  1  0  0  0  0
M  END
$$$$
s_22____4839448____4970170
  -OEChem-03222016482D

 21 23  0     0  0  0  0  0  0999 V2000
   -1.7320   -0.0025    0.0000 C   0  0  0  0  0  0  0  0  0  0  0  0
   -0.8653   -0.5013    0.0000 O   0  0  0  0  0  0  0  0  0  0  0  0
    0.0000    0.0000    0.0000 C   0  0  0  0  0  0  0  0  0  0  0  0
   -0.0000    1.0058    0.0000 C   0  0  0  0  0  0  0  0  0  0  0  0
    0.8680    1.5138    0.0000 C   0  0  0  0  0  0  0  0  0  0  0  0
    1.7360    1.0058    0.0000 C   0  0  0  0  0  0  0  0  0  0  0  0
    1.7360   -0.0012    0.0000 C   0  0  0  0  0  0  0  0  0  0  0  0
    0.8680   -0.4978    0.0000 C   0  0  0  0  0  0  0  0  0  0  0  0
    2.6938   -0.3125    0.0000 C   0  0  0  0  0  0  0  0  0  0  0  0
    3.2858    0.5023    0.0000 C   0  0  0  0  0  0  0  0  0  0  0  0
    2.6938    1.3169    0.0000 N   0  0  0  0  0  0  0  0  0  0  0  0
    3.0028   -1.2636    0.0000 C   0  0  0  0  0  0  0  0  0  0  0  0
    3.9809   -1.4715    0.0000 C   0  0  0  0  0  0  0  0  0  0  0  0
    4.2899   -2.4226    0.0000 N   0  0  0  0  0  0  0  0  0  0  0  0
    5.2680   -2.6306    0.0000 C   0  0  0  0  0  0  0  0  0  0  0  0
    5.9372   -1.8874    0.0000 O   0  0  0  0  0  0  0  0  0  0  0  0
    5.5770   -3.5816    0.0000 C   0  0  0  0  0  0  0  0  0  0  0  0
    6.5551   -3.7896    0.0000 C   0  0  0  0  0  0  0  0  0  0  0  0
    6.8641   -4.7407    0.0000 C   0  0  0  0  0  0  0  0  0  0  0  0
    6.6568   -5.7209    0.0000 C   0  0  0  0  0  0  0  0  0  0  0  0
    7.6079   -5.4119    0.0000 C   0  0  0  0  0  0  0  0  0  0  0  0
  1  2  1  0  0  0  0
  2  3  1  0  0  0  0
  3  8  2  0  0  0  0
  3  4  1  0  0  0  0
  4  5  2  0  0  0  0
  5  6  1  0  0  0  0
  6 11  1  0  0  0  0
  6  7  2  0  0  0  0
  7  8  1  0  0  0  0
  7  9  1  0  0  0  0
  9 10  2  0  0  0  0
 10 11  1  0  0  0  0
  9 12  1  0  0  0  0
 12 13  1  0  0  0  0
 13 14  1  0  0  0  0
 14 15  1  0  0  0  0
 15 16  2  0  0  0  0
 15 17  1  0  0  0  0
 17 18  1  0  0  0  0
 18 19  1  0  0  0  0
 19 21  1  0  0  0  0
 19 20  1  0  0  0  0
 20 21  1  0  0  0  0
M  END
$$$$
s_512____158555____4839458
  -OEChem-03222016482D

 20 21  0     0  0  0  0  0  0999 V2000
   -1.7320   -0.0025    0.0000 C   0  0  0  0  0  0  0  0  0  0  0  0
   -0.8653   -0.5013    0.0000 O   0  0  0  0  0  0  0  0  0  0  0  0
    0.0000    0.0000    0.0000 C   0  0  0  0  0  0  0  0  0  0  0  0
   -0.0000    1.0058    0.0000 C   0  0  0  0  0  0  0  0  0  0  0  0
    0.8680    1.5138    0.0000 C   0  0  0  0  0  0  0  0  0  0  0  0
    1.7360    1.0058    0.0000 C   0  0  0  0  0  0  0  0  0  0  0  0
    1.7360   -0.0012    0.0000 C   0  0  0  0  0  0  0  0  0  0  0  0
    0.8680   -0.4978    0.0000 C   0  0  0  0  0  0  0  0  0  0  0  0
    2.6938   -0.3125    0.0000 C   0  0  0  0  0  0  0  0  0  0  0  0
    3.2858    0.5023    0.0000 C   0  0  0  0  0  0  0  0  0  0  0  0
    2.6938    1.3169    0.0000 N   0  0  0  0  0  0  0  0  0  0  0  0
    3.0028   -1.2636    0.0000 C   0  0  0  0  0  0  0  0  0  0  0  0
    3.9809   -1.4715    0.0000 C   0  0  0  0  0  0  0  0  0  0  0  0
    4.2899   -2.4226    0.0000 N   0  0  0  0  0  0  0  0  0  0  0  0
    5.2680   -2.6306    0.0000 C   0  0  0  0  0  0  0  0  0  0  0  0
    5.9372   -1.8874    0.0000 O   0  0  0  0  0  0  0  0  0  0  0  0
    5.5770   -3.5816    0.0000 N   0  0  0  0  0  0  0  0  0  0  0  0
    6.5551   -3.7896    0.0000 C   0  0  0  0  0  0  0  0  0  0  0  0
    6.8641   -4.7407    0.0000 C   0  0  0  0  0  0  0  0  0  0  0  0
    7.8422   -4.9486    0.0000 C   0  0  0  0  0  0  0  0  0  0  0  0
  1  2  1  0  0  0  0
  2  3  1  0  0  0  0
  3  8  2  0  0  0  0
  3  4  1  0  0  0  0
  4  5  2  0  0  0  0
  5  6  1  0  0  0  0
  6 11  1  0  0  0  0
  6  7  2  0  0  0  0
  7  8  1  0  0  0  0
  7  9  1  0  0  0  0
  9 10  2  0  0  0  0
 10 11  1  0  0  0  0
  9 12  1  0  0  0  0
 12 13  1  0  0  0  0
 13 14  1  0  0  0  0
 14 15  1  0  0  0  0
 15 16  2  0  0  0  0
 15 17  1  0  0  0  0
 17 18  1  0  0  0  0
 18 19  1  0  0  0  0
 19 20  2  0  0  0  0
M  END
$$$$
s_22____15754586____58887
  -OEChem-03222016482D

 19 20  0     1  0  0  0  0  0999 V2000
    1.6132   -5.3951    0.0000 C   0  0  0  0  0  0  0  0  0  0  0  0
    2.2824   -4.6519    0.0000 C   0  0  0  0  0  0  0  0  0  0  0  0
    1.9734   -3.7009    0.0000 C   0  0  0  0  0  0  0  0  0  0  0  0
    0.9953   -3.4929    0.0000 O   0  0  0  0  0  0  0  0  0  0  0  0
    2.6426   -2.9578    0.0000 N   0  0  0  0  0  0  0  0  0  0  0  0
    2.3336   -2.0067    0.0000 C   0  0  0  0  0  0  0  0  0  0  0  0
    3.0028   -1.2636    0.0000 C   0  0  3  0  0  0  0  0  0  0  0  0
    3.9809   -1.4715    0.0000 C   0  0  0  0  0  0  0  0  0  0  0  0
    2.6938   -0.3125    0.0000 C   0  0  0  0  0  0  0  0  0  0  0  0
    3.2858    0.5023    0.0000 C   0  0  0  0  0  0  0  0  0  0  0  0
    2.6938    1.3169    0.0000 N   0  0  0  0  0  0  0  0  0  0  0  0
    1.7360    1.0058    0.0000 C   0  0  0  0  0  0  0  0  0  0  0  0
    1.7360   -0.0012    0.0000 C   0  0  0  0  0  0  0  0  0  0  0  0
    0.8680   -0.4978    0.0000 C   0  0  0  0  0  0  0  0  0  0  0  0
    0.0000    0.0000    0.0000 C   0  0  0  0  0  0  0  0  0  0  0  0
   -0.0000    1.0058    0.0000 C   0  0  0  0  0  0  0  0  0  0  0  0
    0.8680    1.5138    0.0000 C   0  0  0  0  0  0  0  0  0  0  0  0
   -0.8653   -0.5013    0.0000 O   0  0  0  0  0  0  0  0  0  0  0  0
   -0.8639   -1.5013    0.0000 C   0  0  0  0  0  0  0  0  0  0  0  0
  1  2  1  0  0  0  0
  2  3  1  0  0  0  0
  3  4  2  0  0  0  0
  3  5  1  0  0  0  0
  5  6  1  0  0  0  0
  6  7  1  0  0  0  0
  7  8  1  0  0  0  0
  7  9  1  0  0  0  0
  9 13  1  0  0  0  0
  9 10  2  0  0  0  0
 10 11  1  0  0  0  0
 11 12  1  0  0  0  0
 12 17  2  0  0  0  0
 12 13  1  0  0  0  0
 13 14  2  0  0  0  0
 14 15  1  0  0  0  0
 15 16  2  0  0  0  0
 16 17  1  0  0  0  0
 15 18  1  0  0  0  0
 18 19  1  0  0  0  0
M  END
$$$$
s_22____4839448____13756276
  -OEChem-03222016482D

 20 21  0     1  0  0  0  0  0999 V2000
    6.8641   -4.7407    0.0000 C   0  0  0  0  0  0  0  0  0  0  0  0
    6.5551   -3.7896    0.0000 C   0  0  0  0  0  0  0  0  0  0  0  0
    5.5770   -3.5816    0.0000 C   0  0  3  0  0  0  0  0  0  0  0  0
    5.2680   -2.6306    0.0000 C   0  0  0  0  0  0  0  0  0  0  0  0
    5.9372   -1.8874    0.0000 O   0  0  0  0  0  0  0  0  0  0  0  0
    4.2899   -2.4226    0.0000 N   0  0  0  0  0  0  0  0  0  0  0  0
    3.9809   -1.4715    0.0000 C   0  0  0  0  0  0  0  0  0  0  0  0
    3.0028   -1.2636    0.0000 C   0  0  0  0  0  0  0  0  0  0  0  0
    2.6938   -0.3125    0.0000 C   0  0  0  0  0  0  0  0  0  0  0  0
    3.2858    0.5023    0.0000 C   0  0  0  0  0  0  0  0  0  0  0  0
    2.6938    1.3169    0.0000 N   0  0  0  0  0  0  0  0  0  0  0  0
    1.7360    1.0058    0.0000 C   0  0  0  0  0  0  0  0  0  0  0  0
    1.7360   -0.0012    0.0000 C   0  0  0  0  0  0  0  0  0  0  0  0
    0.8680   -0.4978    0.0000 C   0  0  0  0  0  0  0  0  0  0  0  0
    0.0000    0.0000    0.0000 C   0  0  0  0  0  0  0  0  0  0  0  0
   -0.0000    1.0058    0.0000 C   0  0  0  0  0  0  0  0  0  0  0  0
    0.8680    1.5138    0.0000 C   0  0  0  0  0  0  0  0  0  0  0  0
   -0.8653   -0.5013    0.0000 O   0  0  0  0  0  0  0  0  0  0  0  0
   -0.8639   -1.5013    0.0000 C   0  0  0  0  0  0  0  0  0  0  0  0
    4.9078   -4.3247    0.0000 F   0  0  0  0  0  0  0  0  0  0  0  0
  1  2  1  0  0  0  0
  2  3  1  0  0  0  0
  3  4  1  0  0  0  0
  4  5  2  0  0  0  0
  4  6  1  0  0  0  0
  6  7  1  0  0  0  0
  7  8  1  0  0  0  0
  8  9  1  0  0  0  0
  9 13  1  0  0  0  0
  9 10  2  0  0  0  0
 10 11  1  0  0  0  0
 11 12  1  0  0  0  0
 12 17  2  0  0  0  0
 12 13  1  0  0  0  0
 13 14  2  0  0  0  0
 14 15  1  0  0  0  0
 15 16  2  0  0  0  0
 16 17  1  0  0  0  0
 15 18  1  0  0  0  0
 18 19  1  0  0  0  0
  3 20  1  0  0  0  0
M  END
$$$$
s_240690b____7354388____7368688
  -OEChem-03222016482D

 21 22  0     0  0  0  0  0  0999 V2000
    2.3563   -6.0642    0.0000 C   0  0  0  0  0  0  0  0  0  0  0  0
    1.6132   -5.3951    0.0000 C   0  0  0  0  0  0  0  0  0  0  0  0
    0.9440   -6.1382    0.0000 C   0  0  0  0  0  0  0  0  0  0  0  0
    2.2824   -4.6519    0.0000 C   0  0  0  0  0  0  0  0  0  0  0  0
    1.9734   -3.7009    0.0000 C   0  0  0  0  0  0  0  0  0  0  0  0
    0.9953   -3.4929    0.0000 O   0  0  0  0  0  0  0  0  0  0  0  0
    2.6426   -2.9578    0.0000 N   0  0  0  0  0  0  0  0  0  0  0  0
    2.3336   -2.0067    0.0000 C   0  0  0  0  0  0  0  0  0  0  0  0
    3.0028   -1.2636    0.0000 C   0  0  0  0  0  0  0  0  0  0  0  0
    2.6938   -0.3125    0.0000 C   0  0  0  0  0  0  0  0  0  0  0  0
    3.2858    0.5023    0.0000 C   0  0  0  0  0  0  0  0  0  0  0  0
    2.6938    1.3169    0.0000 N   0  0  0  0  0  0  0  0  0  0  0  0
    1.7360    1.0058    0.0000 C   0  0  0  0  0  0  0  0  0  0  0  0
    1.7360   -0.0012    0.0000 C   0  0  0  0  0  0  0  0  0  0  0  0
    0.8680   -0.4978    0.0000 C   0  0  0  0  0  0  0  0  0  0  0  0
    0.0000    0.0000    0.0000 C   0  0  0  0  0  0  0  0  0  0  0  0
   -0.0000    1.0058    0.0000 C   0  0  0  0  0  0  0  0  0  0  0  0
    0.8680    1.5138    0.0000 C   0  0  0  0  0  0  0  0  0  0  0  0
   -0.8653   -0.5013    0.0000 O   0  0  0  0  0  0  0  0  0  0  0  0
   -0.8639   -1.5013    0.0000 C   0  0  0  0  0  0  0  0  0  0  0  0
    0.8701   -4.7259    0.0000 N   0  3  0  0  0  0  0  0  0  0  0  0
  1  2  1  0  0  0  0
  2  3  1  0  0  0  0
  2  4  1  0  0  0  0
  4  5  1  0  0  0  0
  5  6  2  0  0  0  0
  5  7  1  0  0  0  0
  7  8  1  0  0  0  0
  8  9  1  0  0  0  0
  9 10  1  0  0  0  0
 10 14  1  0  0  0  0
 10 11  2  0  0  0  0
 11 12  1  0  0  0  0
 12 13  1  0  0  0  0
 13 18  2  0  0  0  0
 13 14  1  0  0  0  0
 14 15  2  0  0  0  0
 15 16  1  0  0  0  0
 16 17  2  0  0  0  0
 17 18  1  0  0  0  0
 16 19  1  0  0  0  0
 19 20  1  0  0  0  0
  2 21  1  0  0  0  0
M  CHG  1  21   1
M  END
$$$$
s_240690b____7363756____3025680
  -OEChem-03222016482D

 18 19  0     0  0  0  0  0  0999 V2000
    0.8680    2.5138    0.0000 C   0  0  0  0  0  0  0  0  0  0  0  0
    0.8680    1.5138    0.0000 C   0  0  0  0  0  0  0  0  0  0  0  0
    0.0000    1.0058    0.0000 C   0  0  0  0  0  0  0  0  0  0  0  0
    0.0000    0.0000    0.0000 C   0  0  0  0  0  0  0  0  0  0  0  0
    0.8680   -0.4978    0.0000 C   0  0  0  0  0  0  0  0  0  0  0  0
    1.7360   -0.0012    0.0000 C   0  0  0  0  0  0  0  0  0  0  0  0
    1.7360    1.0058    0.0000 C   0  0  0  0  0  0  0  0  0  0  0  0
    2.6938    1.3169    0.0000 N   0  0  0  0  0  0  0  0  0  0  0  0
    3.2858    0.5023    0.0000 C   0  0  0  0  0  0  0  0  0  0  0  0
    2.6938   -0.3125    0.0000 C   0  0  0  0  0  0  0  0  0  0  0  0
    3.0028   -1.2636    0.0000 C   0  0  0  0  0  0  0  0  0  0  0  0
    3.9809   -1.4715    0.0000 C   0  0  0  0  0  0  0  0  0  0  0  0
    4.2899   -2.4226    0.0000 N   0  0  0  0  0  0  0  0  0  0  0  0
    5.2680   -2.6306    0.0000 C   0  0  0  0  0  0  0  0  0  0  0  0
    5.9372   -1.8874    0.0000 O   0  0  0  0  0  0  0  0  0  0  0  0
    5.5770   -3.5816    0.0000 C   0  0  0  0  0  0  0  0  0  0  0  0
    6.5551   -3.7896    0.0000 C   0  0  0  0  0  0  0  0  0  0  0  0
    6.8641   -4.7407    0.0000 N   0  3  0  0  0  0  0  0  0  0  0  0
  1  2  1  0  0  0  0
  2  7  2  0  0  0  0
  2  3  1  0  0  0  0
  3  4  2  0  0  0  0
  4  5  1  0  0  0  0
  5  6  2  0  0  0  0
  6 10  1  0  0  0  0
  6  7  1  0  0  0  0
  7  8  1  0  0  0  0
  8  9  1  0  0  0  0
  9 10  2  0  0  0  0
 10 11  1  0  0  0  0
 11 12  1  0  0  0  0
 12 13  1  0  0  0  0
 13 14  1  0  0  0  0
 14 15  2  0  0  0  0
 14 16  1  0  0  0  0
 16 17  1  0  0  0  0
 17 18  1  0  0  0  0
M  CHG  1  18   1
M  END
$$$$
EN300-128270
  -OEChem-03222016482D

 15 16  0     0  0  0  0  0  0999 V2000
    4.2899   -2.4226    0.0000 C   0  0  0  0  0  0  0  0  0  0  0  0
    3.9809   -1.4715    0.0000 N   0  3  0  0  0  0  0  0  0  0  0  0
    4.6501   -0.7284    0.0000 C   0  0  0  0  0  0  0  0  0  0  0  0
    3.0028   -1.2636    0.0000 C   0  0  0  0  0  0  0  0  0  0  0  0
    2.6938   -0.3125    0.0000 C   0  0  0  0  0  0  0  0  0  0  0  0
    3.2858    0.5023    0.0000 C   0  0  0  0  0  0  0  0  0  0  0  0
    2.6938    1.3169    0.0000 N   0  0  0  0  0  0  0  0  0  0  0  0
    1.7360    1.0058    0.0000 C   0  0  0  0  0  0  0  0  0  0  0  0
    1.7360   -0.0012    0.0000 C   0  0  0  0  0  0  0  0  0  0  0  0
    0.8680   -0.4978    0.0000 C   0  0  0  0  0  0  0  0  0  0  0  0
    0.0000    0.0000    0.0000 C   0  0  0  0  0  0  0  0  0  0  0  0
   -0.0000    1.0058    0.0000 C   0  0  0  0  0  0  0  0  0  0  0  0
    0.8680    1.5138    0.0000 C   0  0  0  0  0  0  0  0  0  0  0  0
    0.8675   -1.4978    0.0000 O   0  0  0  0  0  0  0  0  0  0  0  0
    1.7332   -1.9983    0.0000 C   0  0  0  0  0  0  0  0  0  0  0  0
  1  2  1  0  0  0  0
  2  3  1  0  0  0  0
  2  4  1  0  0  0  0
  4  5  1  0  0  0  0
  5  9  1  0  0  0  0
  5  6  2  0  0  0  0
  6  7  1  0  0  0  0
  7  8  1  0  0  0  0
  8 13  2  0  0  0  0
  8  9  1  0  0  0  0
  9 10  2  0  0  0  0
 10 11  1  0  0  0  0
 11 12  2  0  0  0  0
 12 13  1  0  0  0  0
 10 14  1  0  0  0  0
 14 15  1  0  0  0  0
M  CHG  1   2   1
M  END
$$$$
s_22____13025516____13040272
  -OEChem-03222016482D

 21 22  0     0  0  0  0  0  0999 V2000
    0.0012   -1.9973    0.0000 C   0  0  0  0  0  0  0  0  0  0  0  0
    0.8675   -1.4978    0.0000 O   0  0  0  0  0  0  0  0  0  0  0  0
    0.8680   -0.4978    0.0000 C   0  0  0  0  0  0  0  0  0  0  0  0
    0.0000    0.0000    0.0000 C   0  0  0  0  0  0  0  0  0  0  0  0
   -0.0000    1.0058    0.0000 C   0  0  0  0  0  0  0  0  0  0  0  0
    0.8680    1.5138    0.0000 C   0  0  0  0  0  0  0  0  0  0  0  0
    1.7360    1.0058    0.0000 C   0  0  0  0  0  0  0  0  0  0  0  0
    1.7360   -0.0012    0.0000 C   0  0  0  0  0  0  0  0  0  0  0  0
    2.6938   -0.3125    0.0000 C   0  0  0  0  0  0  0  0  0  0  0  0
    3.2858    0.5023    0.0000 C   0  0  0  0  0  0  0  0  0  0  0  0
    2.6938    1.3169    0.0000 N   0  0  0  0  0  0  0  0  0  0  0  0
    3.0028   -1.2636    0.0000 C   0  0  0  0  0  0  0  0  0  0  0  0
    3.9809   -1.4715    0.0000 C   0  0  0  0  0  0  0  0  0  0  0  0
    4.2899   -2.4226    0.0000 N   0  0  0  0  0  0  0  0  0  0  0  0
    5.2680   -2.6306    0.0000 C   0  0  0  0  0  0  0  0  0  0  0  0
    5.9372   -1.8874    0.0000 O   0  0  0  0  0  0  0  0  0  0  0  0
    5.5770   -3.5816    0.0000 C   0  0  0  0  0  0  0  0  0  0  0  0
    6.5551   -3.7896    0.0000 S   0  0  0  0  0  0  0  0  0  0  0  0
    6.8641   -4.7407    0.0000 C   0  0  0  0  0  0  0  0  0  0  0  0
    7.8422   -4.9486    0.0000 C   0  0  0  0  0  0  0  0  0  0  0  0
    8.8204   -5.1566    0.0000 C   0  0  0  0  0  0  0  0  0  0  0  0
  1  2  1  0  0  0  0
  2  3  1  0  0  0  0
  3  8  2  0  0  0  0
  3  4  1  0  0  0  0
  4  5  2  0  0  0  0
  5  6  1  0  0  0  0
  6  7  2  0  0  0  0
  7 11  1  0  0  0  0
  7  8  1  0  0  0  0
  8  9  1  0  0  0  0
  9 10  2  0  0  0  0
 10 11  1  0  0  0  0
  9 12  1  0  0  0  0
 12 13  1  0  0  0  0
 13 14  1  0  0  0  0
 14 15  1  0  0  0  0
 15 16  2  0  0  0  0
 15 17  1  0  0  0  0
 17 18  1  0  0  0  0
 18 19  1  0  0  0  0
 19 20  1  0  0  0  0
 20 21  3  0  0  0  0
M  END
$$$$
s_22____13596594____60364
  -OEChem-03222016482D

 17 18  0     0  0  0  0  0  0999 V2000
    6.8884   -4.7050    0.0000 C   0  0  0  0  0  0  0  0  0  0  0  0
    6.5743   -3.7557    0.0000 S   0  0  0  0  0  0  0  0  0  0  0  0
    5.5950   -3.5530    0.0000 C   0  0  0  0  0  0  0  0  0  0  0  0
    5.2808   -2.6037    0.0000 C   0  0  0  0  0  0  0  0  0  0  0  0
    5.9459   -1.8569    0.0000 O   0  0  0  0  0  0  0  0  0  0  0  0
    4.3016   -2.4011    0.0000 N   0  0  0  0  0  0  0  0  0  0  0  0
    3.9874   -1.4517    0.0000 C   0  0  0  0  0  0  0  0  0  0  0  0
    3.0082   -1.2491    0.0000 C   0  0  0  0  0  0  0  0  0  0  0  0
    2.6940   -0.2997    0.0000 C   0  0  0  0  0  0  0  0  0  0  0  0
    3.2780    0.5133    0.0000 C   0  0  0  0  0  0  0  0  0  0  0  0
    2.6851    1.3196    0.0000 N   0  0  0  0  0  0  0  0  0  0  0  0
    1.7350    1.0052    0.0000 C   0  0  0  0  0  0  0  0  0  0  0  0
    1.7405    0.0044    0.0000 C   0  0  0  0  0  0  0  0  0  0  0  0
    0.8675   -0.4975    0.0000 C   0  0  0  0  0  0  0  0  0  0  0  0
    0.0000    0.0000    0.0000 C   0  0  0  0  0  0  0  0  0  0  0  0
   -0.0000    1.0052    0.0000 C   0  0  0  0  0  0  0  0  0  0  0  0
    0.8675    1.5129    0.0000 N   0  0  0  0  0  0  0  0  0  0  0  0
  1  2  1  0  0  0  0
  2  3  1  0  0  0  0
  3  4  1  0  0  0  0
  4  5  2  0  0  0  0
  4  6  1  0  0  0  0
  6  7  1  0  0  0  0
  7  8  1  0  0  0  0
  8  9  1  0  0  0  0
  9 13  1  0  0  0  0
  9 10  2  0  0  0  0
 10 11  1  0  0  0  0
 11 12  1  0  0  0  0
 12 17  2  0  0  0  0
 12 13  1  0  0  0  0
 13 14  2  0  0  0  0
 14 15  1  0  0  0  0
 15 16  2  0  0  0  0
 16 17  1  0  0  0  0
M  END
$$$$
s_270004____8350024____16621896
  -OEChem-03222016482D

 19 20  0     1  0  0  0  0  0999 V2000
    8.7856    3.1007    0.0000 C   0  0  0  0  0  0  0  0  0  0  0  0
    7.7856    3.1006    0.0000 C   0  0  0  0  0  0  0  0  0  0  0  0
    7.2857    2.2346    0.0000 O   0  0  0  0  0  0  0  0  0  0  0  0
    6.2857    2.2345    0.0000 C   0  0  3  0  0  0  0  0  0  0  0  0
    5.7856    3.1005    0.0000 C   0  0  0  0  0  0  0  0  0  0  0  0
    5.7857    1.3685    0.0000 C   0  0  0  0  0  0  0  0  0  0  0  0
    4.7857    1.3684    0.0000 N   0  3  0  0  0  0  0  0  0  0  0  0
    4.2858    0.5024    0.0000 C   0  0  0  0  0  0  0  0  0  0  0  0
    3.2858    0.5023    0.0000 C   0  0  0  0  0  0  0  0  0  0  0  0
    2.6938   -0.3125    0.0000 C   0  0  0  0  0  0  0  0  0  0  0  0
    1.7360   -0.0012    0.0000 C   0  0  0  0  0  0  0  0  0  0  0  0
    0.8680   -0.4978    0.0000 C   0  0  0  0  0  0  0  0  0  0  0  0
    0.0000    0.0000    0.0000 C   0  0  0  0  0  0  0  0  0  0  0  0
    0.0000    1.0058    0.0000 C   0  0  0  0  0  0  0  0  0  0  0  0
    0.8680    1.5138    0.0000 C   0  0  0  0  0  0  0  0  0  0  0  0
    1.7360    1.0058    0.0000 C   0  0  0  0  0  0  0  0  0  0  0  0
    2.6938    1.3169    0.0000 N   0  0  0  0  0  0  0  0  0  0  0  0
   -0.8653   -0.5013    0.0000 O   0  0  0  0  0  0  0  0  0  0  0  0
   -0.8639   -1.5013    0.0000 C   0  0  0  0  0  0  0  0  0  0  0  0
  1  2  1  0  0  0  0
  2  3  1  0  0  0  0
  3  4  1  0  0  0  0
  4  5  1  0  0  0  0
  4  6  1  0  0  0  0
  6  7  1  0  0  0  0
  7  8  1  0  0  0  0
  8  9  1  0  0  0  0
  9 17  1  0  0  0  0
  9 10  2  0  0  0  0
 10 11  1  0  0  0  0
 11 16  2  0  0  0  0
 11 12  1  0  0  0  0
 12 13  2  0  0  0  0
 13 14  1  0  0  0  0
 14 15  2  0  0  0  0
 15 16  1  0  0  0  0
 16 17  1  0  0  0  0
 13 18  1  0  0  0  0
 18 19  1  0  0  0  0
M  CHG  1   7   1
M  END
$$$$
s_240690b____15506692____3025680
  -OEChem-03222016482D

 19 20  0     0  0  0  0  0  0999 V2000
    1.7340    3.0138    0.0000 C   0  0  0  0  0  0  0  0  0  0  0  0
    0.8680    2.5138    0.0000 O   0  0  0  0  0  0  0  0  0  0  0  0
    0.8680    1.5138    0.0000 C   0  0  0  0  0  0  0  0  0  0  0  0
    0.0000    1.0058    0.0000 C   0  0  0  0  0  0  0  0  0  0  0  0
    0.0000    0.0000    0.0000 C   0  0  0  0  0  0  0  0  0  0  0  0
    0.8680   -0.4978    0.0000 C   0  0  0  0  0  0  0  0  0  0  0  0
    1.7360   -0.0012    0.0000 C   0  0  0  0  0  0  0  0  0  0  0  0
    1.7360    1.0058    0.0000 C   0  0  0  0  0  0  0  0  0  0  0  0
    2.6938    1.3169    0.0000 N   0  0  0  0  0  0  0  0  0  0  0  0
    3.2858    0.5023    0.0000 C   0  0  0  0  0  0  0  0  0  0  0  0
    2.6938   -0.3125    0.0000 C   0  0  0  0  0  0  0  0  0  0  0  0
    3.0028   -1.2636    0.0000 C   0  0  0  0  0  0  0  0  0  0  0  0
    3.9809   -1.4715    0.0000 C   0  0  0  0  0  0  0  0  0  0  0  0
    4.2899   -2.4226    0.0000 N   0  0  0  0  0  0  0  0  0  0  0  0
    5.2680   -2.6306    0.0000 C   0  0  0  0  0  0  0  0  0  0  0  0
    5.9372   -1.8874    0.0000 O   0  0  0  0  0  0  0  0  0  0  0  0
    5.5770   -3.5816    0.0000 C   0  0  0  0  0  0  0  0  0  0  0  0
    6.5551   -3.7896    0.0000 C   0  0  0  0  0  0  0  0  0  0  0  0
    6.8641   -4.7407    0.0000 N   0  3  0  0  0  0  0  0  0  0  0  0
  1  2  1  0  0  0  0
  2  3  1  0  0  0  0
  3  8  2  0  0  0  0
  3  4  1  0  0  0  0
  4  5  2  0  0  0  0
  5  6  1  0  0  0  0
  6  7  2  0  0  0  0
  7 11  1  0  0  0  0
  7  8  1  0  0  0  0
  8  9  1  0  0  0  0
  9 10  1  0  0  0  0
 10 11  2  0  0  0  0
 11 12  1  0  0  0  0
 12 13  1  0  0  0  0
 13 14  1  0  0  0  0
 14 15  1  0  0  0  0
 15 16  2  0  0  0  0
 15 17  1  0  0  0  0
 17 18  1  0  0  0  0
 18 19  1  0  0  0  0
M  CHG  1  19   1
M  END
$$$$
s_22____13909752____7941800
  -OEChem-03222016482D

 17 18  0     0  0  0  0  0  0999 V2000
   -0.0000    1.0058    0.0000 C   0  0  0  0  0  0  0  0  0  0  0  0
    0.8680    1.5138    0.0000 C   0  0  0  0  0  0  0  0  0  0  0  0
    1.7360    1.0058    0.0000 C   0  0  0  0  0  0  0  0  0  0  0  0
    1.7360   -0.0012    0.0000 C   0  0  0  0  0  0  0  0  0  0  0  0
    0.8680   -0.4978    0.0000 C   0  0  0  0  0  0  0  0  0  0  0  0
    0.0000    0.0000    0.0000 C   0  0  0  0  0  0  0  0  0  0  0  0
   -0.8653   -0.5013    0.0000 O   0  0  0  0  0  0  0  0  0  0  0  0
    2.6938   -0.3125    0.0000 C   0  0  0  0  0  0  0  0  0  0  0  0
    3.2858    0.5023    0.0000 C   0  0  0  0  0  0  0  0  0  0  0  0
    2.6938    1.3169    0.0000 N   0  0  0  0  0  0  0  0  0  0  0  0
    3.0028   -1.2636    0.0000 C   0  0  0  0  0  0  0  0  0  0  0  0
    3.9809   -1.4715    0.0000 C   0  0  0  0  0  0  0  0  0  0  0  0
    4.2899   -2.4226    0.0000 N   0  0  0  0  0  0  0  0  0  0  0  0
    5.2680   -2.6306    0.0000 C   0  0  0  0  0  0  0  0  0  0  0  0
    5.9372   -1.8874    0.0000 O   0  0  0  0  0  0  0  0  0  0  0  0
    5.5770   -3.5816    0.0000 C   0  0  0  0  0  0  0  0  0  0  0  0
    6.5551   -3.7896    0.0000 O   0  0  0  0  0  0  0  0  0  0  0  0
  1  6  2  0  0  0  0
  1  2  1  0  0  0  0
  2  3  2  0  0  0  0
  3 10  1  0  0  0  0
  3  4  1  0  0  0  0
  4  5  2  0  0  0  0
  5  6  1  0  0  0  0
  6  7  1  0  0  0  0
  4  8  1  0  0  0  0
  8  9  2  0  0  0  0
  9 10  1  0  0  0  0
  8 11  1  0  0  0  0
 11 12  1  0  0  0  0
 12 13  1  0  0  0  0
 13 14  1  0  0  0  0
 14 15  2  0  0  0  0
 14 16  1  0  0  0  0
 16 17  1  0  0  0  0
M  END
$$$$
s_270004____8296166____15269820
  -OEChem-03222016482D

 18 19  0     0  0  0  0  0  0999 V2000
    7.1519   -0.7295    0.0000 C   0  0  0  0  0  0  0  0  0  0  0  0
    6.2859   -1.2296    0.0000 C   0  0  0  0  0  0  0  0  0  0  0  0
    6.7860   -2.0956    0.0000 C   0  0  0  0  0  0  0  0  0  0  0  0
    5.7859   -0.3636    0.0000 C   0  0  0  0  0  0  0  0  0  0  0  0
    4.7859   -0.3636    0.0000 N   0  3  0  0  0  0  0  0  0  0  0  0
    4.2858    0.5024    0.0000 C   0  0  0  0  0  0  0  0  0  0  0  0
    3.2858    0.5023    0.0000 C   0  0  0  0  0  0  0  0  0  0  0  0
    2.6938   -0.3125    0.0000 C   0  0  0  0  0  0  0  0  0  0  0  0
    1.7360   -0.0012    0.0000 C   0  0  0  0  0  0  0  0  0  0  0  0
    1.7360    1.0058    0.0000 C   0  0  0  0  0  0  0  0  0  0  0  0
    2.6938    1.3169    0.0000 N   0  0  0  0  0  0  0  0  0  0  0  0
    0.8680    1.5138    0.0000 C   0  0  0  0  0  0  0  0  0  0  0  0
    0.0000    1.0058    0.0000 C   0  0  0  0  0  0  0  0  0  0  0  0
    0.0000    0.0000    0.0000 C   0  0  0  0  0  0  0  0  0  0  0  0
    0.8680   -0.4978    0.0000 C   0  0  0  0  0  0  0  0  0  0  0  0
    0.8675   -1.4978    0.0000 O   0  0  0  0  0  0  0  0  0  0  0  0
    1.7332   -1.9983    0.0000 C   0  0  0  0  0  0  0  0  0  0  0  0
    5.4199   -1.7296    0.0000 O   0  0  0  0  0  0  0  0  0  0  0  0
  1  2  1  0  0  0  0
  2  3  1  0  0  0  0
  2  4  1  0  0  0  0
  4  5  1  0  0  0  0
  5  6  1  0  0  0  0
  6  7  1  0  0  0  0
  7 11  1  0  0  0  0
  7  8  2  0  0  0  0
  8  9  1  0  0  0  0
  9 15  2  0  0  0  0
  9 10  1  0  0  0  0
 10 11  1  0  0  0  0
 10 12  2  0  0  0  0
 12 13  1  0  0  0  0
 13 14  2  0  0  0  0
 14 15  1  0  0  0  0
 15 16  1  0  0  0  0
 16 17  1  0  0  0  0
  2 18  1  0  0  0  0
M  CHG  1   5   1
M  END
$$$$
s_22____4839448____10475936
  -OEChem-03222016482D

 20 21  0     1  0  0  0  0  0999 V2000
   -1.7320   -0.0025    0.0000 C   0  0  0  0  0  0  0  0  0  0  0  0
   -0.8653   -0.5013    0.0000 O   0  0  0  0  0  0  0  0  0  0  0  0
    0.0000    0.0000    0.0000 C   0  0  0  0  0  0  0  0  0  0  0  0
   -0.0000    1.0058    0.0000 C   0  0  0  0  0  0  0  0  0  0  0  0
    0.8680    1.5138    0.0000 C   0  0  0  0  0  0  0  0  0  0  0  0
    1.7360    1.0058    0.0000 C   0  0  0  0  0  0  0  0  0  0  0  0
    1.7360   -0.0012    0.0000 C   0  0  0  0  0  0  0  0  0  0  0  0
    0.8680   -0.4978    0.0000 C   0  0  0  0  0  0  0  0  0  0  0  0
    2.6938   -0.3125    0.0000 C   0  0  0  0  0  0  0  0  0  0  0  0
    3.2858    0.5023    0.0000 C   0  0  0  0  0  0  0  0  0  0  0  0
    2.6938    1.3169    0.0000 N   0  0  0  0  0  0  0  0  0  0  0  0
    3.0028   -1.2636    0.0000 C   0  0  0  0  0  0  0  0  0  0  0  0
    3.9809   -1.4715    0.0000 C   0  0  0  0  0  0  0  0  0  0  0  0
    4.2899   -2.4226    0.0000 N   0  0  0  0  0  0  0  0  0  0  0  0
    5.2680   -2.6306    0.0000 C   0  0  0  0  0  0  0  0  0  0  0  0
    5.9372   -1.8874    0.0000 O   0  0  0  0  0  0  0  0  0  0  0  0
    5.5770   -3.5816    0.0000 C   0  0  3  0  0  0  0  0  0  0  0  0
    6.5551   -3.7896    0.0000 C   0  0  0  0  0  0  0  0  0  0  0  0
    6.8641   -4.7407    0.0000 C   0  0  0  0  0  0  0  0  0  0  0  0
    4.9078   -4.3247    0.0000 O   0  0  0  0  0  0  0  0  0  0  0  0
  1  2  1  0  0  0  0
  2  3  1  0  0  0  0
  3  8  2  0  0  0  0
  3  4  1  0  0  0  0
  4  5  2  0  0  0  0
  5  6  1  0  0  0  0
  6 11  1  0  0  0  0
  6  7  2  0  0  0  0
  7  8  1  0  0  0  0
  7  9  1  0  0  0  0
  9 10  2  0  0  0  0
 10 11  1  0  0  0  0
  9 12  1  0  0  0  0
 12 13  1  0  0  0  0
 13 14  1  0  0  0  0
 14 15  1  0  0  0  0
 15 16  2  0  0  0  0
 15 17  1  0  0  0  0
 17 18  1  0  0  0  0
 18 19  2  0  0  0  0
 17 20  1  0  0  0  0
M  END
$$$$
s_22____13596594____9296322
  -OEChem-03222016482D

 17 18  0     0  0  0  0  0  0999 V2000
    6.2233   -5.4518    0.0000 C   0  0  0  0  0  0  0  0  0  0  0  0
    5.9092   -4.5024    0.0000 C   0  0  0  0  0  0  0  0  0  0  0  0
    5.5950   -3.5530    0.0000 C   0  0  0  0  0  0  0  0  0  0  0  0
    5.2808   -2.6037    0.0000 C   0  0  0  0  0  0  0  0  0  0  0  0
    5.9459   -1.8569    0.0000 O   0  0  0  0  0  0  0  0  0  0  0  0
    4.3016   -2.4011    0.0000 N   0  0  0  0  0  0  0  0  0  0  0  0
    3.9874   -1.4517    0.0000 C   0  0  0  0  0  0  0  0  0  0  0  0
    3.0082   -1.2491    0.0000 C   0  0  0  0  0  0  0  0  0  0  0  0
    2.6940   -0.2997    0.0000 C   0  0  0  0  0  0  0  0  0  0  0  0
    3.2780    0.5133    0.0000 C   0  0  0  0  0  0  0  0  0  0  0  0
    2.6851    1.3196    0.0000 N   0  0  0  0  0  0  0  0  0  0  0  0
    1.7350    1.0052    0.0000 C   0  0  0  0  0  0  0  0  0  0  0  0
    1.7405    0.0044    0.0000 C   0  0  0  0  0  0  0  0  0  0  0  0
    0.8675   -0.4975    0.0000 C   0  0  0  0  0  0  0  0  0  0  0  0
    0.0000    0.0000    0.0000 C   0  0  0  0  0  0  0  0  0  0  0  0
   -0.0000    1.0052    0.0000 C   0  0  0  0  0  0  0  0  0  0  0  0
    0.8675    1.5129    0.0000 N   0  0  0  0  0  0  0  0  0  0  0  0
  1  2  1  0  0  0  0
  2  3  3  0  0  0  0
  3  4  1  0  0  0  0
  4  5  2  0  0  0  0
  4  6  1  0  0  0  0
  6  7  1  0  0  0  0
  7  8  1  0  0  0  0
  8  9  1  0  0  0  0
  9 13  1  0  0  0  0
  9 10  2  0  0  0  0
 10 11  1  0  0  0  0
 11 12  1  0  0  0  0
 12 17  2  0  0  0  0
 12 13  1  0  0  0  0
 13 14  2  0  0  0  0
 14 15  1  0  0  0  0
 15 16  2  0  0  0  0
 16 17  1  0  0  0  0
M  END
$$$$
s_512____9045016____15506628
  -OEChem-03222016482D

 21 22  0     0  0  0  0  0  0999 V2000
    1.2530   -7.0892    0.0000 C   0  0  0  0  0  0  0  0  0  0  0  0
    1.9222   -6.3461    0.0000 C   0  0  0  0  0  0  0  0  0  0  0  0
    2.9003   -6.5541    0.0000 C   0  0  0  0  0  0  0  0  0  0  0  0
    1.6132   -5.3951    0.0000 C   0  0  0  0  0  0  0  0  0  0  0  0
    2.2824   -4.6519    0.0000 N   0  0  0  0  0  0  0  0  0  0  0  0
    1.9734   -3.7009    0.0000 C   0  0  0  0  0  0  0  0  0  0  0  0
    0.9953   -3.4929    0.0000 O   0  0  0  0  0  0  0  0  0  0  0  0
    2.6426   -2.9578    0.0000 N   0  0  0  0  0  0  0  0  0  0  0  0
    2.3336   -2.0067    0.0000 C   0  0  0  0  0  0  0  0  0  0  0  0
    3.0028   -1.2636    0.0000 C   0  0  0  0  0  0  0  0  0  0  0  0
    2.6938   -0.3125    0.0000 C   0  0  0  0  0  0  0  0  0  0  0  0
    3.2858    0.5023    0.0000 C   0  0  0  0  0  0  0  0  0  0  0  0
    2.6938    1.3169    0.0000 N   0  0  0  0  0  0  0  0  0  0  0  0
    1.7360    1.0058    0.0000 C   0  0  0  0  0  0  0  0  0  0  0  0
    1.7360   -0.0012    0.0000 C   0  0  0  0  0  0  0  0  0  0  0  0
    0.8680   -0.4978    0.0000 C   0  0  0  0  0  0  0  0  0  0  0  0
    0.0000    0.0000    0.0000 C   0  0  0  0  0  0  0  0  0  0  0  0
   -0.0000    1.0058    0.0000 C   0  0  0  0  0  0  0  0  0  0  0  0
    0.8680    1.5138    0.0000 C   0  0  0  0  0  0  0  0  0  0  0  0
    0.8680    2.5138    0.0000 O   0  0  0  0  0  0  0  0  0  0  0  0
    0.0020    3.0138    0.0000 C   0  0  0  0  0  0  0  0  0  0  0  0
  1  2  1  0  0  0  0
  2  3  2  0  0  0  0
  2  4  1  0  0  0  0
  4  5  1  0  0  0  0
  5  6  1  0  0  0  0
  6  7  2  0  0  0  0
  6  8  1  0  0  0  0
  8  9  1  0  0  0  0
  9 10  1  0  0  0  0
 10 11  1  0  0  0  0
 11 15  1  0  0  0  0
 11 12  2  0  0  0  0
 12 13  1  0  0  0  0
 13 14  1  0  0  0  0
 14 19  2  0  0  0  0
 14 15  1  0  0  0  0
 15 16  2  0  0  0  0
 16 17  1  0  0  0  0
 17 18  2  0  0  0  0
 18 19  1  0  0  0  0
 19 20  1  0  0  0  0
 20 21  1  0  0  0  0
M  END
$$$$
s_22____15506616____58844
  -OEChem-03222016482D

 17 18  0     0  0  0  0  0  0999 V2000
    5.5770   -3.5816    0.0000 C   0  0  0  0  0  0  0  0  0  0  0  0
    5.2680   -2.6306    0.0000 C   0  0  0  0  0  0  0  0  0  0  0  0
    5.9372   -1.8874    0.0000 O   0  0  0  0  0  0  0  0  0  0  0  0
    4.2899   -2.4226    0.0000 N   0  0  0  0  0  0  0  0  0  0  0  0
    3.9809   -1.4715    0.0000 C   0  0  0  0  0  0  0  0  0  0  0  0
    3.0028   -1.2636    0.0000 C   0  0  0  0  0  0  0  0  0  0  0  0
    2.6938   -0.3125    0.0000 C   0  0  0  0  0  0  0  0  0  0  0  0
    3.2858    0.5023    0.0000 C   0  0  0  0  0  0  0  0  0  0  0  0
    2.6938    1.3169    0.0000 N   0  0  0  0  0  0  0  0  0  0  0  0
    1.7360    1.0058    0.0000 C   0  0  0  0  0  0  0  0  0  0  0  0
    1.7360   -0.0012    0.0000 C   0  0  0  0  0  0  0  0  0  0  0  0
    0.8680   -0.4978    0.0000 C   0  0  0  0  0  0  0  0  0  0  0  0
    0.0000    0.0000    0.0000 C   0  0  0  0  0  0  0  0  0  0  0  0
   -0.0000    1.0058    0.0000 C   0  0  0  0  0  0  0  0  0  0  0  0
    0.8680    1.5138    0.0000 C   0  0  0  0  0  0  0  0  0  0  0  0
    0.8680    2.5138    0.0000 O   0  0  0  0  0  0  0  0  0  0  0  0
    0.0020    3.0138    0.0000 C   0  0  0  0  0  0  0  0  0  0  0  0
  1  2  1  0  0  0  0
  2  3  2  0  0  0  0
  2  4  1  0  0  0  0
  4  5  1  0  0  0  0
  5  6  1  0  0  0  0
  6  7  1  0  0  0  0
  7 11  1  0  0  0  0
  7  8  2  0  0  0  0
  8  9  1  0  0  0  0
  9 10  1  0  0  0  0
 10 15  2  0  0  0  0
 10 11  1  0  0  0  0
 11 12  2  0  0  0  0
 12 13  1  0  0  0  0
 13 14  2  0  0  0  0
 14 15  1  0  0  0  0
 15 16  1  0  0  0  0
 16 17  1  0  0  0  0
M  END
$$$$
s_512____158561____13978836
  -OEChem-03222016482D

 21 22  0     0  0  0  0  0  0999 V2000
    7.8422   -4.9486    0.0000 C   0  0  0  0  0  0  0  0  0  0  0  0
    6.8641   -4.7407    0.0000 C   0  0  0  0  0  0  0  0  0  0  0  0
    6.1949   -5.4838    0.0000 C   0  0  0  0  0  0  0  0  0  0  0  0
    6.5551   -3.7896    0.0000 C   0  0  0  0  0  0  0  0  0  0  0  0
    5.5770   -3.5816    0.0000 N   0  0  0  0  0  0  0  0  0  0  0  0
    5.2680   -2.6306    0.0000 C   0  0  0  0  0  0  0  0  0  0  0  0
    5.9372   -1.8874    0.0000 O   0  0  0  0  0  0  0  0  0  0  0  0
    4.2899   -2.4226    0.0000 N   0  0  0  0  0  0  0  0  0  0  0  0
    3.9809   -1.4715    0.0000 C   0  0  0  0  0  0  0  0  0  0  0  0
    3.0028   -1.2636    0.0000 C   0  0  0  0  0  0  0  0  0  0  0  0
    2.6938   -0.3125    0.0000 C   0  0  0  0  0  0  0  0  0  0  0  0
    3.2858    0.5023    0.0000 C   0  0  0  0  0  0  0  0  0  0  0  0
    2.6938    1.3169    0.0000 N   0  0  0  0  0  0  0  0  0  0  0  0
    1.7360    1.0058    0.0000 C   0  0  0  0  0  0  0  0  0  0  0  0
    1.7360   -0.0012    0.0000 C   0  0  0  0  0  0  0  0  0  0  0  0
    0.8680   -0.4978    0.0000 C   0  0  0  0  0  0  0  0  0  0  0  0
    0.0000    0.0000    0.0000 C   0  0  0  0  0  0  0  0  0  0  0  0
   -0.0000    1.0058    0.0000 C   0  0  0  0  0  0  0  0  0  0  0  0
    0.8680    1.5138    0.0000 C   0  0  0  0  0  0  0  0  0  0  0  0
   -0.8675    1.5032    0.0000 O   0  0  0  0  0  0  0  0  0  0  0  0
   -1.7320    1.0007    0.0000 C   0  0  0  0  0  0  0  0  0  0  0  0
  1  2  1  0  0  0  0
  2  3  1  0  0  0  0
  2  4  1  0  0  0  0
  4  5  1  0  0  0  0
  5  6  1  0  0  0  0
  6  7  2  0  0  0  0
  6  8  1  0  0  0  0
  8  9  1  0  0  0  0
  9 10  1  0  0  0  0
 10 11  1  0  0  0  0
 11 15  1  0  0  0  0
 11 12  2  0  0  0  0
 12 13  1  0  0  0  0
 13 14  1  0  0  0  0
 14 19  2  0  0  0  0
 14 15  1  0  0  0  0
 15 16  2  0  0  0  0
 16 17  1  0  0  0  0
 17 18  2  0  0  0  0
 18 19  1  0  0  0  0
 18 20  1  0  0  0  0
 20 21  1  0  0  0  0
M  END
$$$$
s_512____5136592____15506628
  -OEChem-03222016482D

 21 22  0     0  0  0  0  0  0999 V2000
    1.7340    3.0138    0.0000 C   0  0  0  0  0  0  0  0  0  0  0  0
    0.8680    2.5138    0.0000 O   0  0  0  0  0  0  0  0  0  0  0  0
    0.8680    1.5138    0.0000 C   0  0  0  0  0  0  0  0  0  0  0  0
    0.0000    1.0058    0.0000 C   0  0  0  0  0  0  0  0  0  0  0  0
    0.0000    0.0000    0.0000 C   0  0  0  0  0  0  0  0  0  0  0  0
    0.8680   -0.4978    0.0000 C   0  0  0  0  0  0  0  0  0  0  0  0
    1.7360   -0.0012    0.0000 C   0  0  0  0  0  0  0  0  0  0  0  0
    1.7360    1.0058    0.0000 C   0  0  0  0  0  0  0  0  0  0  0  0
    2.6938    1.3169    0.0000 N   0  0  0  0  0  0  0  0  0  0  0  0
    3.2858    0.5023    0.0000 C   0  0  0  0  0  0  0  0  0  0  0  0
    2.6938   -0.3125    0.0000 C   0  0  0  0  0  0  0  0  0  0  0  0
    3.0028   -1.2636    0.0000 C   0  0  0  0  0  0  0  0  0  0  0  0
    3.9809   -1.4715    0.0000 C   0  0  0  0  0  0  0  0  0  0  0  0
    4.2899   -2.4226    0.0000 N   0  0  0  0  0  0  0  0  0  0  0  0
    5.2680   -2.6306    0.0000 C   0  0  0  0  0  0  0  0  0  0  0  0
    5.9372   -1.8874    0.0000 O   0  0  0  0  0  0  0  0  0  0  0  0
    5.5770   -3.5816    0.0000 N   0  0  0  0  0  0  0  0  0  0  0  0
    6.5551   -3.7896    0.0000 C   0  0  0  0  0  0  0  0  0  0  0  0
    6.8641   -4.7407    0.0000 C   0  0  0  0  0  0  0  0  0  0  0  0
    6.1949   -5.4838    0.0000 C   0  0  0  0  0  0  0  0  0  0  0  0
    7.8422   -4.9486    0.0000 Cl  0  0  0  0  0  0  0  0  0  0  0  0
  1  2  1  0  0  0  0
  2  3  1  0  0  0  0
  3  8  2  0  0  0  0
  3  4  1  0  0  0  0
  4  5  2  0  0  0  0
  5  6  1  0  0  0  0
  6  7  2  0  0  0  0
  7 11  1  0  0  0  0
  7  8  1  0  0  0  0
  8  9  1  0  0  0  0
  9 10  1  0  0  0  0
 10 11  2  0  0  0  0
 11 12  1  0  0  0  0
 12 13  1  0  0  0  0
 13 14  1  0  0  0  0
 14 15  1  0  0  0  0
 15 16  2  0  0  0  0
 15 17  1  0  0  0  0
 17 18  1  0  0  0  0
 18 19  1  0  0  0  0
 19 20  2  0  0  0  0
 19 21  1  0  0  0  0
M  END
$$$$
s_207____13973878____14949000
  -OEChem-03222016482D

 17 18  0     0  0  0  0  0  0999 V2000
    7.7857    0.3627    0.0000 C   0  0  0  0  0  0  0  0  0  0  0  0
    7.2857    1.2287    0.0000 N   0  0  0  0  0  0  0  0  0  0  0  0
    6.2857    1.2286    0.0000 C   0  0  0  0  0  0  0  0  0  0  0  0
    5.7856    2.0946    0.0000 O   0  0  0  0  0  0  0  0  0  0  0  0
    5.7857    0.3626    0.0000 C   0  0  0  0  0  0  0  0  0  0  0  0
    4.7857    0.3625    0.0000 N   0  3  0  0  0  0  0  0  0  0  0  0
    4.2858   -0.5035    0.0000 C   0  0  0  0  0  0  0  0  0  0  0  0
    3.2858   -0.5036    0.0000 C   0  0  0  0  0  0  0  0  0  0  0  0
    2.6938    0.3110    0.0000 C   0  0  0  0  0  0  0  0  0  0  0  0
    1.7360   -0.0000    0.0000 C   0  0  0  0  0  0  0  0  0  0  0  0
    0.8680    0.5079    0.0000 C   0  0  0  0  0  0  0  0  0  0  0  0
    0.0000    0.0000    0.0000 N   0  0  0  0  0  0  0  0  0  0  0  0
   -0.0000   -1.0058    0.0000 C   0  0  0  0  0  0  0  0  0  0  0  0
    0.8680   -1.5037    0.0000 C   0  0  0  0  0  0  0  0  0  0  0  0
    1.7360   -1.0071    0.0000 C   0  0  0  0  0  0  0  0  0  0  0  0
    2.6938   -1.3184    0.0000 N   0  0  0  0  0  0  0  0  0  0  0  0
    7.7856    2.0947    0.0000 O   0  0  0  0  0  0  0  0  0  0  0  0
  1  2  1  0  0  0  0
  2  3  1  0  0  0  0
  3  4  2  0  0  0  0
  3  5  1  0  0  0  0
  5  6  1  0  0  0  0
  6  7  1  0  0  0  0
  7  8  1  0  0  0  0
  8 16  1  0  0  0  0
  8  9  2  0  0  0  0
  9 10  1  0  0  0  0
 10 15  2  0  0  0  0
 10 11  1  0  0  0  0
 11 12  2  0  0  0  0
 12 13  1  0  0  0  0
 13 14  2  0  0  0  0
 14 15  1  0  0  0  0
 15 16  1  0  0  0  0
  2 17  1  0  0  0  0
M  CHG  1   6   1
M  END
$$$$
s_22____15754586____12053348
  -OEChem-03222016482D

 20 21  0     1  0  0  0  0  0999 V2000
    3.9809   -1.4715    0.0000 C   0  0  0  0  0  0  0  0  0  0  0  0
    3.0028   -1.2636    0.0000 C   0  0  3  0  0  0  0  0  0  0  0  0
    2.3336   -2.0067    0.0000 C   0  0  0  0  0  0  0  0  0  0  0  0
    2.6426   -2.9578    0.0000 N   0  0  0  0  0  0  0  0  0  0  0  0
    1.9734   -3.7009    0.0000 C   0  0  0  0  0  0  0  0  0  0  0  0
    0.9953   -3.4929    0.0000 O   0  0  0  0  0  0  0  0  0  0  0  0
    2.2824   -4.6519    0.0000 C   0  0  0  0  0  0  0  0  0  0  0  0
    3.2605   -4.8599    0.0000 O   0  0  0  0  0  0  0  0  0  0  0  0
    1.6132   -5.3951    0.0000 N   0  0  0  0  0  0  0  0  0  0  0  0
    2.6938   -0.3125    0.0000 C   0  0  0  0  0  0  0  0  0  0  0  0
    3.2858    0.5023    0.0000 C   0  0  0  0  0  0  0  0  0  0  0  0
    2.6938    1.3169    0.0000 N   0  0  0  0  0  0  0  0  0  0  0  0
    1.7360    1.0058    0.0000 C   0  0  0  0  0  0  0  0  0  0  0  0
    1.7360   -0.0012    0.0000 C   0  0  0  0  0  0  0  0  0  0  0  0
    0.8680   -0.4978    0.0000 C   0  0  0  0  0  0  0  0  0  0  0  0
    0.0000    0.0000    0.0000 C   0  0  0  0  0  0  0  0  0  0  0  0
   -0.0000    1.0058    0.0000 C   0  0  0  0  0  0  0  0  0  0  0  0
    0.8680    1.5138    0.0000 C   0  0  0  0  0  0  0  0  0  0  0  0
   -0.8653   -0.5013    0.0000 O   0  0  0  0  0  0  0  0  0  0  0  0
   -0.8639   -1.5013    0.0000 C   0  0  0  0  0  0  0  0  0  0  0  0
  1  2  1  0  0  0  0
  2  3  1  0  0  0  0
  3  4  1  0  0  0  0
  4  5  1  0  0  0  0
  5  6  2  0  0  0  0
  5  7  1  0  0  0  0
  7  8  2  0  0  0  0
  7  9  1  0  0  0  0
  2 10  1  0  0  0  0
 10 14  1  0  0  0  0
 10 11  2  0  0  0  0
 11 12  1  0  0  0  0
 12 13  1  0  0  0  0
 13 18  2  0  0  0  0
 13 14  1  0  0  0  0
 14 15  2  0  0  0  0
 15 16  1  0  0  0  0
 16 17  2  0  0  0  0
 17 18  1  0  0  0  0
 16 19  1  0  0  0  0
 19 20  1  0  0  0  0
M  END
$$$$
s_22____12346432____7941096
  -OEChem-03222016482D

 18 19  0     1  0  0  0  0  0999 V2000
    4.9078   -4.3247    0.0000 C   0  0  0  0  0  0  0  0  0  0  0  0
    5.5770   -3.5816    0.0000 C   0  0  3  0  0  0  0  0  0  0  0  0
    5.2680   -2.6306    0.0000 C   0  0  0  0  0  0  0  0  0  0  0  0
    5.9372   -1.8874    0.0000 O   0  0  0  0  0  0  0  0  0  0  0  0
    4.2899   -2.4226    0.0000 N   0  0  0  0  0  0  0  0  0  0  0  0
    3.9809   -1.4715    0.0000 C   0  0  0  0  0  0  0  0  0  0  0  0
    3.0028   -1.2636    0.0000 C   0  0  0  0  0  0  0  0  0  0  0  0
    2.6938   -0.3125    0.0000 C   0  0  0  0  0  0  0  0  0  0  0  0
    3.2858    0.5023    0.0000 C   0  0  0  0  0  0  0  0  0  0  0  0
    2.6938    1.3169    0.0000 N   0  0  0  0  0  0  0  0  0  0  0  0
    1.7360    1.0058    0.0000 C   0  0  0  0  0  0  0  0  0  0  0  0
    1.7360   -0.0012    0.0000 C   0  0  0  0  0  0  0  0  0  0  0  0
    0.8680   -0.4978    0.0000 C   0  0  0  0  0  0  0  0  0  0  0  0
    0.0000    0.0000    0.0000 C   0  0  0  0  0  0  0  0  0  0  0  0
   -0.0000    1.0058    0.0000 C   0  0  0  0  0  0  0  0  0  0  0  0
    0.8680    1.5138    0.0000 C   0  0  0  0  0  0  0  0  0  0  0  0
    0.8680    2.5138    0.0000 Cl  0  0  0  0  0  0  0  0  0  0  0  0
    6.5551   -3.7896    0.0000 O   0  0  0  0  0  0  0  0  0  0  0  0
  1  2  1  0  0  0  0
  2  3  1  0  0  0  0
  3  4  2  0  0  0  0
  3  5  1  0  0  0  0
  5  6  1  0  0  0  0
  6  7  1  0  0  0  0
  7  8  1  0  0  0  0
  8 12  1  0  0  0  0
  8  9  2  0  0  0  0
  9 10  1  0  0  0  0
 10 11  1  0  0  0  0
 11 16  2  0  0  0  0
 11 12  1  0  0  0  0
 12 13  2  0  0  0  0
 13 14  1  0  0  0  0
 14 15  2  0  0  0  0
 15 16  1  0  0  0  0
 16 17  1  0  0  0  0
  2 18  1  0  0  0  0
M  END
$$$$
s_270006b____8394006____11615938
  -OEChem-03222016482D

 21 22  0     1  0  0  0  0  0999 V2000
    0.6351   -5.1871    0.0000 C   0  0  0  0  0  0  0  0  0  0  0  0
    1.6132   -5.3951    0.0000 C   0  0  3  0  0  0  0  0  0  0  0  0
    2.2824   -4.6519    0.0000 C   0  0  0  0  0  0  0  0  0  0  0  0
    1.9734   -3.7009    0.0000 C   0  0  0  0  0  0  0  0  0  0  0  0
    0.9953   -3.4929    0.0000 O   0  0  0  0  0  0  0  0  0  0  0  0
    2.6426   -2.9578    0.0000 N   0  0  0  0  0  0  0  0  0  0  0  0
    2.3336   -2.0067    0.0000 C   0  0  0  0  0  0  0  0  0  0  0  0
    3.0028   -1.2636    0.0000 C   0  0  0  0  0  0  0  0  0  0  0  0
    2.6938   -0.3125    0.0000 C   0  0  0  0  0  0  0  0  0  0  0  0
    3.2858    0.5023    0.0000 C   0  0  0  0  0  0  0  0  0  0  0  0
    2.6938    1.3169    0.0000 N   0  0  0  0  0  0  0  0  0  0  0  0
    1.7360    1.0058    0.0000 C   0  0  0  0  0  0  0  0  0  0  0  0
    1.7360   -0.0012    0.0000 C   0  0  0  0  0  0  0  0  0  0  0  0
    0.8680   -0.4978    0.0000 C   0  0  0  0  0  0  0  0  0  0  0  0
    0.0000    0.0000    0.0000 C   0  0  0  0  0  0  0  0  0  0  0  0
   -0.0000    1.0058    0.0000 C   0  0  0  0  0  0  0  0  0  0  0  0
    0.8680    1.5138    0.0000 C   0  0  0  0  0  0  0  0  0  0  0  0
   -0.8653   -0.5013    0.0000 O   0  0  0  0  0  0  0  0  0  0  0  0
   -0.8639   -1.5013    0.0000 C   0  0  0  0  0  0  0  0  0  0  0  0
    1.9222   -6.3461    0.0000 C   0  0  0  0  0  0  0  0  0  0  0  0
    1.2530   -7.0892    0.0000 N   0  3  0  0  0  0  0  0  0  0  0  0
  1  2  1  0  0  0  0
  2  3  1  0  0  0  0
  3  4  1  0  0  0  0
  4  5  2  0  0  0  0
  4  6  1  0  0  0  0
  6  7  1  0  0  0  0
  7  8  1  0  0  0  0
  8  9  1  0  0  0  0
  9 13  1  0  0  0  0
  9 10  2  0  0  0  0
 10 11  1  0  0  0  0
 11 12  1  0  0  0  0
 12 17  2  0  0  0  0
 12 13  1  0  0  0  0
 13 14  2  0  0  0  0
 14 15  1  0  0  0  0
 15 16  2  0  0  0  0
 16 17  1  0  0  0  0
 15 18  1  0  0  0  0
 18 19  1  0  0  0  0
  2 20  1  0  0  0  0
 20 21  1  0  0  0  0
M  CHG  1  21   1
M  END
$$$$
s_270006b____8394006____11988994
  -OEChem-03222016482D

 20 21  0     1  0  0  0  0  0999 V2000
    4.9078   -4.3247    0.0000 C   0  0  0  0  0  0  0  0  0  0  0  0
    5.5770   -3.5816    0.0000 C   0  0  3  0  0  0  0  0  0  0  0  0
    5.2680   -2.6306    0.0000 C   0  0  0  0  0  0  0  0  0  0  0  0
    5.9372   -1.8874    0.0000 O   0  0  0  0  0  0  0  0  0  0  0  0
    4.2899   -2.4226    0.0000 N   0  0  0  0  0  0  0  0  0  0  0  0
    3.9809   -1.4715    0.0000 C   0  0  0  0  0  0  0  0  0  0  0  0
    3.0028   -1.2636    0.0000 C   0  0  0  0  0  0  0  0  0  0  0  0
    2.6938   -0.3125    0.0000 C   0  0  0  0  0  0  0  0  0  0  0  0
    3.2858    0.5023    0.0000 C   0  0  0  0  0  0  0  0  0  0  0  0
    2.6938    1.3169    0.0000 N   0  0  0  0  0  0  0  0  0  0  0  0
    1.7360    1.0058    0.0000 C   0  0  0  0  0  0  0  0  0  0  0  0
    1.7360   -0.0012    0.0000 C   0  0  0  0  0  0  0  0  0  0  0  0
    0.8680   -0.4978    0.0000 C   0  0  0  0  0  0  0  0  0  0  0  0
    0.0000    0.0000    0.0000 C   0  0  0  0  0  0  0  0  0  0  0  0
   -0.0000    1.0058    0.0000 C   0  0  0  0  0  0  0  0  0  0  0  0
    0.8680    1.5138    0.0000 C   0  0  0  0  0  0  0  0  0  0  0  0
   -0.8653   -0.5013    0.0000 O   0  0  0  0  0  0  0  0  0  0  0  0
   -0.8639   -1.5013    0.0000 C   0  0  0  0  0  0  0  0  0  0  0  0
    6.5551   -3.7896    0.0000 N   0  3  0  0  0  0  0  0  0  0  0  0
    6.8641   -4.7407    0.0000 C   0  0  0  0  0  0  0  0  0  0  0  0
  1  2  1  0  0  0  0
  2  3  1  0  0  0  0
  3  4  2  0  0  0  0
  3  5  1  0  0  0  0
  5  6  1  0  0  0  0
  6  7  1  0  0  0  0
  7  8  1  0  0  0  0
  8 12  1  0  0  0  0
  8  9  2  0  0  0  0
  9 10  1  0  0  0  0
 10 11  1  0  0  0  0
 11 16  2  0  0  0  0
 11 12  1  0  0  0  0
 12 13  2  0  0  0  0
 13 14  1  0  0  0  0
 14 15  2  0  0  0  0
 15 16  1  0  0  0  0
 14 17  1  0  0  0  0
 17 18  1  0  0  0  0
  2 19  1  0  0  0  0
 19 20  1  0  0  0  0
M  CHG  1  19   1
M  END
$$$$
s_270004____12856480____15269820
  -OEChem-03222016482D

 21 22  0     0  0  0  0  0  0999 V2000
    8.7856    3.1007    0.0000 C   0  0  0  0  0  0  0  0  0  0  0  0
    7.7856    3.1006    0.0000 C   0  0  0  0  0  0  0  0  0  0  0  0
    7.2857    2.2346    0.0000 N   0  0  0  0  0  0  0  0  0  0  0  0
    7.7858    1.3686    0.0000 C   0  0  0  0  0  0  0  0  0  0  0  0
    8.7858    1.3686    0.0000 C   0  0  0  0  0  0  0  0  0  0  0  0
    6.2857    2.2345    0.0000 C   0  0  0  0  0  0  0  0  0  0  0  0
    5.7856    3.1005    0.0000 O   0  0  0  0  0  0  0  0  0  0  0  0
    5.7858    1.3685    0.0000 C   0  0  0  0  0  0  0  0  0  0  0  0
    4.7858    1.3684    0.0000 N   0  3  0  0  0  0  0  0  0  0  0  0
    4.2858    0.5024    0.0000 C   0  0  0  0  0  0  0  0  0  0  0  0
    3.2858    0.5023    0.0000 C   0  0  0  0  0  0  0  0  0  0  0  0
    2.6938   -0.3125    0.0000 C   0  0  0  0  0  0  0  0  0  0  0  0
    1.7360   -0.0012    0.0000 C   0  0  0  0  0  0  0  0  0  0  0  0
    1.7360    1.0058    0.0000 C   0  0  0  0  0  0  0  0  0  0  0  0
    2.6938    1.3169    0.0000 N   0  0  0  0  0  0  0  0  0  0  0  0
    0.8680    1.5138    0.0000 C   0  0  0  0  0  0  0  0  0  0  0  0
    0.0000    1.0058    0.0000 C   0  0  0  0  0  0  0  0  0  0  0  0
    0.0000    0.0000    0.0000 C   0  0  0  0  0  0  0  0  0  0  0  0
    0.8680   -0.4978    0.0000 C   0  0  0  0  0  0  0  0  0  0  0  0
    0.8675   -1.4978    0.0000 O   0  0  0  0  0  0  0  0  0  0  0  0
    1.7332   -1.9983    0.0000 C   0  0  0  0  0  0  0  0  0  0  0  0
  1  2  1  0  0  0  0
  2  3  1  0  0  0  0
  3  4  1  0  0  0  0
  4  5  1  0  0  0  0
  3  6  1  0  0  0  0
  6  7  2  0  0  0  0
  6  8  1  0  0  0  0
  8  9  1  0  0  0  0
  9 10  1  0  0  0  0
 10 11  1  0  0  0  0
 11 15  1  0  0  0  0
 11 12  2  0  0  0  0
 12 13  1  0  0  0  0
 13 19  2  0  0  0  0
 13 14  1  0  0  0  0
 14 15  1  0  0  0  0
 14 16  2  0  0  0  0
 16 17  1  0  0  0  0
 17 18  2  0  0  0  0
 18 19  1  0  0  0  0
 19 20  1  0  0  0  0
 20 21  1  0  0  0  0
M  CHG  1   9   1
M  END
$$$$
s_22____13025516____58866
  -OEChem-03222016482D

 19 20  0     0  0  0  0  0  0999 V2000
    6.8641   -4.7407    0.0000 C   0  0  0  0  0  0  0  0  0  0  0  0
    6.5551   -3.7896    0.0000 C   0  0  0  0  0  0  0  0  0  0  0  0
    5.5770   -3.5816    0.0000 C   0  0  0  0  0  0  0  0  0  0  0  0
    5.2680   -2.6306    0.0000 C   0  0  0  0  0  0  0  0  0  0  0  0
    5.9372   -1.8874    0.0000 O   0  0  0  0  0  0  0  0  0  0  0  0
    4.2899   -2.4226    0.0000 N   0  0  0  0  0  0  0  0  0  0  0  0
    3.9809   -1.4715    0.0000 C   0  0  0  0  0  0  0  0  0  0  0  0
    3.0028   -1.2636    0.0000 C   0  0  0  0  0  0  0  0  0  0  0  0
    2.6938   -0.3125    0.0000 C   0  0  0  0  0  0  0  0  0  0  0  0
    3.2858    0.5023    0.0000 C   0  0  0  0  0  0  0  0  0  0  0  0
    2.6938    1.3169    0.0000 N   0  0  0  0  0  0  0  0  0  0  0  0
    1.7360    1.0058    0.0000 C   0  0  0  0  0  0  0  0  0  0  0  0
    1.7360   -0.0012    0.0000 C   0  0  0  0  0  0  0  0  0  0  0  0
    0.8680   -0.4978    0.0000 C   0  0  0  0  0  0  0  0  0  0  0  0
    0.0000    0.0000    0.0000 C   0  0  0  0  0  0  0  0  0  0  0  0
   -0.0000    1.0058    0.0000 C   0  0  0  0  0  0  0  0  0  0  0  0
    0.8680    1.5138    0.0000 C   0  0  0  0  0  0  0  0  0  0  0  0
    0.8675   -1.4978    0.0000 O   0  0  0  0  0  0  0  0  0  0  0  0
    1.7332   -1.9983    0.0000 C   0  0  0  0  0  0  0  0  0  0  0  0
  1  2  1  0  0  0  0
  2  3  1  0  0  0  0
  3  4  1  0  0  0  0
  4  5  2  0  0  0  0
  4  6  1  0  0  0  0
  6  7  1  0  0  0  0
  7  8  1  0  0  0  0
  8  9  1  0  0  0  0
  9 13  1  0  0  0  0
  9 10  2  0  0  0  0
 10 11  1  0  0  0  0
 11 12  1  0  0  0  0
 12 17  2  0  0  0  0
 12 13  1  0  0  0  0
 13 14  2  0  0  0  0
 14 15  1  0  0  0  0
 15 16  2  0  0  0  0
 16 17  1  0  0  0  0
 14 18  1  0  0  0  0
 18 19  1  0  0  0  0
M  END
$$$$
s_240690b____7360096____3025680
  -OEChem-03222016482D

 18 19  0     0  0  0  0  0  0999 V2000
    0.0000    0.0000    0.0000 C   0  0  0  0  0  0  0  0  0  0  0  0
    0.8680   -0.4978    0.0000 C   0  0  0  0  0  0  0  0  0  0  0  0
    1.7360   -0.0012    0.0000 C   0  0  0  0  0  0  0  0  0  0  0  0
    1.7360    1.0058    0.0000 C   0  0  0  0  0  0  0  0  0  0  0  0
    0.8680    1.5138    0.0000 C   0  0  0  0  0  0  0  0  0  0  0  0
    0.0000    1.0058    0.0000 C   0  0  0  0  0  0  0  0  0  0  0  0
   -0.8675    1.5032    0.0000 Cl  0  0  0  0  0  0  0  0  0  0  0  0
    2.6938    1.3169    0.0000 N   0  0  0  0  0  0  0  0  0  0  0  0
    3.2858    0.5023    0.0000 C   0  0  0  0  0  0  0  0  0  0  0  0
    2.6938   -0.3125    0.0000 C   0  0  0  0  0  0  0  0  0  0  0  0
    3.0028   -1.2636    0.0000 C   0  0  0  0  0  0  0  0  0  0  0  0
    3.9809   -1.4715    0.0000 C   0  0  0  0  0  0  0  0  0  0  0  0
    4.2899   -2.4226    0.0000 N   0  0  0  0  0  0  0  0  0  0  0  0
    5.2680   -2.6306    0.0000 C   0  0  0  0  0  0  0  0  0  0  0  0
    5.9372   -1.8874    0.0000 O   0  0  0  0  0  0  0  0  0  0  0  0
    5.5770   -3.5816    0.0000 C   0  0  0  0  0  0  0  0  0  0  0  0
    6.5551   -3.7896    0.0000 C   0  0  0  0  0  0  0  0  0  0  0  0
    6.8641   -4.7407    0.0000 N   0  3  0  0  0  0  0  0  0  0  0  0
  1  6  2  0  0  0  0
  1  2  1  0  0  0  0
  2  3  2  0  0  0  0
  3 10  1  0  0  0  0
  3  4  1  0  0  0  0
  4  5  2  0  0  0  0
  5  6  1  0  0  0  0
  6  7  1  0  0  0  0
  4  8  1  0  0  0  0
  8  9  1  0  0  0  0
  9 10  2  0  0  0  0
 10 11  1  0  0  0  0
 11 12  1  0  0  0  0
 12 13  1  0  0  0  0
 13 14  1  0  0  0  0
 14 15  2  0  0  0  0
 14 16  1  0  0  0  0
 16 17  1  0  0  0  0
 17 18  1  0  0  0  0
M  CHG  1  18   1
M  END
$$$$
s_22____13951486____58844
  -OEChem-03222016482D

 23 25  0     0  0  0  0  0  0999 V2000
    5.5770   -3.5816    0.0000 C   0  0  0  0  0  0  0  0  0  0  0  0
    5.2680   -2.6306    0.0000 C   0  0  0  0  0  0  0  0  0  0  0  0
    5.9372   -1.8874    0.0000 O   0  0  0  0  0  0  0  0  0  0  0  0
    4.2899   -2.4226    0.0000 N   0  0  0  0  0  0  0  0  0  0  0  0
    3.9809   -1.4715    0.0000 C   0  0  0  0  0  0  0  0  0  0  0  0
    3.0028   -1.2636    0.0000 C   0  0  0  0  0  0  0  0  0  0  0  0
    2.6938   -0.3125    0.0000 C   0  0  0  0  0  0  0  0  0  0  0  0
    3.2858    0.5023    0.0000 C   0  0  0  0  0  0  0  0  0  0  0  0
    2.6938    1.3169    0.0000 N   0  0  0  0  0  0  0  0  0  0  0  0
    1.7360    1.0058    0.0000 C   0  0  0  0  0  0  0  0  0  0  0  0
    1.7360   -0.0012    0.0000 C   0  0  0  0  0  0  0  0  0  0  0  0
    0.8680   -0.4978    0.0000 C   0  0  0  0  0  0  0  0  0  0  0  0
    0.0000    0.0000    0.0000 C   0  0  0  0  0  0  0  0  0  0  0  0
   -0.0000    1.0058    0.0000 C   0  0  0  0  0  0  0  0  0  0  0  0
    0.8680    1.5138    0.0000 C   0  0  0  0  0  0  0  0  0  0  0  0
   -0.8653   -0.5013    0.0000 O   0  0  0  0  0  0  0  0  0  0  0  0
   -0.8639   -1.5013    0.0000 C   0  0  0  0  0  0  0  0  0  0  0  0
   -1.7292   -2.0025    0.0000 C   0  0  0  0  0  0  0  0  0  0  0  0
   -1.7247   -3.0077    0.0000 C   0  0  0  0  0  0  0  0  0  0  0  0
   -2.5900   -3.5090    0.0000 C   0  0  0  0  0  0  0  0  0  0  0  0
   -3.4597   -3.0153    0.0000 C   0  0  0  0  0  0  0  0  0  0  0  0
   -3.4641   -2.0101    0.0000 C   0  0  0  0  0  0  0  0  0  0  0  0
   -2.5989   -1.4986    0.0000 C   0  0  0  0  0  0  0  0  0  0  0  0
  1  2  1  0  0  0  0
  2  3  2  0  0  0  0
  2  4  1  0  0  0  0
  4  5  1  0  0  0  0
  5  6  1  0  0  0  0
  6  7  1  0  0  0  0
  7 11  1  0  0  0  0
  7  8  2  0  0  0  0
  8  9  1  0  0  0  0
  9 10  1  0  0  0  0
 10 15  2  0  0  0  0
 10 11  1  0  0  0  0
 11 12  2  0  0  0  0
 12 13  1  0  0  0  0
 13 14  2  0  0  0  0
 14 15  1  0  0  0  0
 13 16  1  0  0  0  0
 16 17  1  0  0  0  0
 17 18  1  0  0  0  0
 18 23  2  0  0  0  0
 18 19  1  0  0  0  0
 19 20  2  0  0  0  0
 20 21  1  0  0  0  0
 21 22  2  0  0  0  0
 22 23  1  0  0  0  0
M  END
$$$$
s_22____6079110____58866
  -OEChem-03222016482D

 18 19  0     0  0  0  0  0  0999 V2000
    6.8641   -4.7407    0.0000 C   0  0  0  0  0  0  0  0  0  0  0  0
    6.5551   -3.7896    0.0000 C   0  0  0  0  0  0  0  0  0  0  0  0
    5.5770   -3.5816    0.0000 C   0  0  0  0  0  0  0  0  0  0  0  0
    5.2680   -2.6306    0.0000 C   0  0  0  0  0  0  0  0  0  0  0  0
    5.9372   -1.8874    0.0000 O   0  0  0  0  0  0  0  0  0  0  0  0
    4.2899   -2.4226    0.0000 N   0  0  0  0  0  0  0  0  0  0  0  0
    3.9809   -1.4715    0.0000 C   0  0  0  0  0  0  0  0  0  0  0  0
    3.0028   -1.2636    0.0000 C   0  0  0  0  0  0  0  0  0  0  0  0
    2.6938   -0.3125    0.0000 C   0  0  0  0  0  0  0  0  0  0  0  0
    3.2858    0.5023    0.0000 C   0  0  0  0  0  0  0  0  0  0  0  0
    2.6938    1.3169    0.0000 N   0  0  0  0  0  0  0  0  0  0  0  0
    1.7360    1.0058    0.0000 C   0  0  0  0  0  0  0  0  0  0  0  0
    1.7360   -0.0012    0.0000 C   0  0  0  0  0  0  0  0  0  0  0  0
    0.8680   -0.4978    0.0000 C   0  0  0  0  0  0  0  0  0  0  0  0
    0.0000    0.0000    0.0000 C   0  0  0  0  0  0  0  0  0  0  0  0
   -0.0000    1.0058    0.0000 C   0  0  0  0  0  0  0  0  0  0  0  0
    0.8680    1.5138    0.0000 C   0  0  0  0  0  0  0  0  0  0  0  0
   -0.8653   -0.5013    0.0000 Cl  0  0  0  0  0  0  0  0  0  0  0  0
  1  2  1  0  0  0  0
  2  3  1  0  0  0  0
  3  4  1  0  0  0  0
  4  5  2  0  0  0  0
  4  6  1  0  0  0  0
  6  7  1  0  0  0  0
  7  8  1  0  0  0  0
  8  9  1  0  0  0  0
  9 13  1  0  0  0  0
  9 10  2  0  0  0  0
 10 11  1  0  0  0  0
 11 12  1  0  0  0  0
 12 17  2  0  0  0  0
 12 13  1  0  0  0  0
 13 14  2  0  0  0  0
 14 15  1  0  0  0  0
 15 16  2  0  0  0  0
 16 17  1  0  0  0  0
 15 18  1  0  0  0  0
M  END
$$$$
s_22____13978824____303718
  -OEChem-03222016482D

 20 21  0     0  0  0  0  0  0999 V2000
    1.2530   -7.0892    0.0000 C   0  0  0  0  0  0  0  0  0  0  0  0
    1.9222   -6.3461    0.0000 C   0  0  0  0  0  0  0  0  0  0  0  0
    1.6132   -5.3951    0.0000 C   0  0  0  0  0  0  0  0  0  0  0  0
    2.2824   -4.6519    0.0000 C   0  0  0  0  0  0  0  0  0  0  0  0
    1.9734   -3.7009    0.0000 C   0  0  0  0  0  0  0  0  0  0  0  0
    0.9953   -3.4929    0.0000 O   0  0  0  0  0  0  0  0  0  0  0  0
    2.6426   -2.9578    0.0000 N   0  0  0  0  0  0  0  0  0  0  0  0
    2.3336   -2.0067    0.0000 C   0  0  0  0  0  0  0  0  0  0  0  0
    3.0028   -1.2636    0.0000 C   0  0  0  0  0  0  0  0  0  0  0  0
    2.6938   -0.3125    0.0000 C   0  0  0  0  0  0  0  0  0  0  0  0
    3.2858    0.5023    0.0000 C   0  0  0  0  0  0  0  0  0  0  0  0
    2.6938    1.3169    0.0000 N   0  0  0  0  0  0  0  0  0  0  0  0
    1.7360    1.0058    0.0000 C   0  0  0  0  0  0  0  0  0  0  0  0
    1.7360   -0.0012    0.0000 C   0  0  0  0  0  0  0  0  0  0  0  0
    0.8680   -0.4978    0.0000 C   0  0  0  0  0  0  0  0  0  0  0  0
    0.0000    0.0000    0.0000 C   0  0  0  0  0  0  0  0  0  0  0  0
   -0.0000    1.0058    0.0000 C   0  0  0  0  0  0  0  0  0  0  0  0
    0.8680    1.5138    0.0000 C   0  0  0  0  0  0  0  0  0  0  0  0
   -0.8675    1.5032    0.0000 O   0  0  0  0  0  0  0  0  0  0  0  0
   -1.7320    1.0007    0.0000 C   0  0  0  0  0  0  0  0  0  0  0  0
  1  2  1  0  0  0  0
  2  3  1  0  0  0  0
  3  4  1  0  0  0  0
  4  5  1  0  0  0  0
  5  6  2  0  0  0  0
  5  7  1  0  0  0  0
  7  8  1  0  0  0  0
  8  9  1  0  0  0  0
  9 10  1  0  0  0  0
 10 14  1  0  0  0  0
 10 11  2  0  0  0  0
 11 12  1  0  0  0  0
 12 13  1  0  0  0  0
 13 18  2  0  0  0  0
 13 14  1  0  0  0  0
 14 15  2  0  0  0  0
 15 16  1  0  0  0  0
 16 17  2  0  0  0  0
 17 18  1  0  0  0  0
 17 19  1  0  0  0  0
 19 20  1  0  0  0  0
M  END
$$$$
s_22____15506616____9156240
  -OEChem-03222016482D

 21 22  0     1  0  0  0  0  0999 V2000
    1.9222   -6.3461    0.0000 C   0  0  0  0  0  0  0  0  0  0  0  0
    1.6132   -5.3951    0.0000 C   0  0  0  0  0  0  0  0  0  0  0  0
    0.6351   -5.1871    0.0000 C   0  0  0  0  0  0  0  0  0  0  0  0
    2.2824   -4.6519    0.0000 C   0  0  3  0  0  0  0  0  0  0  0  0
    1.9734   -3.7009    0.0000 C   0  0  0  0  0  0  0  0  0  0  0  0
    0.9953   -3.4929    0.0000 O   0  0  0  0  0  0  0  0  0  0  0  0
    2.6426   -2.9578    0.0000 N   0  0  0  0  0  0  0  0  0  0  0  0
    2.3336   -2.0067    0.0000 C   0  0  0  0  0  0  0  0  0  0  0  0
    3.0028   -1.2636    0.0000 C   0  0  0  0  0  0  0  0  0  0  0  0
    2.6938   -0.3125    0.0000 C   0  0  0  0  0  0  0  0  0  0  0  0
    3.2858    0.5023    0.0000 C   0  0  0  0  0  0  0  0  0  0  0  0
    2.6938    1.3169    0.0000 N   0  0  0  0  0  0  0  0  0  0  0  0
    1.7360    1.0058    0.0000 C   0  0  0  0  0  0  0  0  0  0  0  0
    1.7360   -0.0012    0.0000 C   0  0  0  0  0  0  0  0  0  0  0  0
    0.8680   -0.4978    0.0000 C   0  0  0  0  0  0  0  0  0  0  0  0
    0.0000    0.0000    0.0000 C   0  0  0  0  0  0  0  0  0  0  0  0
   -0.0000    1.0058    0.0000 C   0  0  0  0  0  0  0  0  0  0  0  0
    0.8680    1.5138    0.0000 C   0  0  0  0  0  0  0  0  0  0  0  0
    0.8680    2.5138    0.0000 O   0  0  0  0  0  0  0  0  0  0  0  0
    0.0020    3.0138    0.0000 C   0  0  0  0  0  0  0  0  0  0  0  0
    3.2605   -4.8599    0.0000 F   0  0  0  0  0  0  0  0  0  0  0  0
  1  2  1  0  0  0  0
  2  3  1  0  0  0  0
  2  4  1  0  0  0  0
  4  5  1  0  0  0  0
  5  6  2  0  0  0  0
  5  7  1  0  0  0  0
  7  8  1  0  0  0  0
  8  9  1  0  0  0  0
  9 10  1  0  0  0  0
 10 14  1  0  0  0  0
 10 11  2  0  0  0  0
 11 12  1  0  0  0  0
 12 13  1  0  0  0  0
 13 18  2  0  0  0  0
 13 14  1  0  0  0  0
 14 15  2  0  0  0  0
 15 16  1  0  0  0  0
 16 17  2  0  0  0  0
 17 18  1  0  0  0  0
 18 19  1  0  0  0  0
 19 20  1  0  0  0  0
  4 21  1  0  0  0  0
M  END
$$$$
s_240690b____7363756____3025698
  -OEChem-03222016482D

 17 18  0     0  0  0  0  0  0999 V2000
    0.8680    2.5138    0.0000 C   0  0  0  0  0  0  0  0  0  0  0  0
    0.8680    1.5138    0.0000 C   0  0  0  0  0  0  0  0  0  0  0  0
    0.0000    1.0058    0.0000 C   0  0  0  0  0  0  0  0  0  0  0  0
    0.0000    0.0000    0.0000 C   0  0  0  0  0  0  0  0  0  0  0  0
    0.8680   -0.4978    0.0000 C   0  0  0  0  0  0  0  0  0  0  0  0
    1.7360   -0.0012    0.0000 C   0  0  0  0  0  0  0  0  0  0  0  0
    1.7360    1.0058    0.0000 C   0  0  0  0  0  0  0  0  0  0  0  0
    2.6938    1.3169    0.0000 N   0  0  0  0  0  0  0  0  0  0  0  0
    3.2858    0.5023    0.0000 C   0  0  0  0  0  0  0  0  0  0  0  0
    2.6938   -0.3125    0.0000 C   0  0  0  0  0  0  0  0  0  0  0  0
    3.0028   -1.2636    0.0000 C   0  0  0  0  0  0  0  0  0  0  0  0
    3.9809   -1.4715    0.0000 C   0  0  0  0  0  0  0  0  0  0  0  0
    4.2899   -2.4226    0.0000 N   0  0  0  0  0  0  0  0  0  0  0  0
    5.2680   -2.6306    0.0000 C   0  0  0  0  0  0  0  0  0  0  0  0
    5.9372   -1.8874    0.0000 O   0  0  0  0  0  0  0  0  0  0  0  0
    5.5770   -3.5816    0.0000 C   0  0  0  0  0  0  0  0  0  0  0  0
    6.5551   -3.7896    0.0000 N   0  3  0  0  0  0  0  0  0  0  0  0
  1  2  1  0  0  0  0
  2  7  2  0  0  0  0
  2  3  1  0  0  0  0
  3  4  2  0  0  0  0
  4  5  1  0  0  0  0
  5  6  2  0  0  0  0
  6 10  1  0  0  0  0
  6  7  1  0  0  0  0
  7  8  1  0  0  0  0
  8  9  1  0  0  0  0
  9 10  2  0  0  0  0
 10 11  1  0  0  0  0
 11 12  1  0  0  0  0
 12 13  1  0  0  0  0
 13 14  1  0  0  0  0
 14 15  2  0  0  0  0
 14 16  1  0  0  0  0
 16 17  1  0  0  0  0
M  CHG  1  17   1
M  END
$$$$
s_240690b____15506692____3025692
  -OEChem-03222016482D

 19 20  0     1  0  0  0  0  0999 V2000
    4.9078   -4.3247    0.0000 C   0  0  0  0  0  0  0  0  0  0  0  0
    5.5770   -3.5816    0.0000 C   0  0  3  0  0  0  0  0  0  0  0  0
    5.2680   -2.6306    0.0000 C   0  0  0  0  0  0  0  0  0  0  0  0
    5.9372   -1.8874    0.0000 O   0  0  0  0  0  0  0  0  0  0  0  0
    4.2899   -2.4226    0.0000 N   0  0  0  0  0  0  0  0  0  0  0  0
    3.9809   -1.4715    0.0000 C   0  0  0  0  0  0  0  0  0  0  0  0
    3.0028   -1.2636    0.0000 C   0  0  0  0  0  0  0  0  0  0  0  0
    2.6938   -0.3125    0.0000 C   0  0  0  0  0  0  0  0  0  0  0  0
    3.2858    0.5023    0.0000 C   0  0  0  0  0  0  0  0  0  0  0  0
    2.6938    1.3169    0.0000 N   0  0  0  0  0  0  0  0  0  0  0  0
    1.7360    1.0058    0.0000 C   0  0  0  0  0  0  0  0  0  0  0  0
    1.7360   -0.0012    0.0000 C   0  0  0  0  0  0  0  0  0  0  0  0
    0.8680   -0.4978    0.0000 C   0  0  0  0  0  0  0  0  0  0  0  0
    0.0000    0.0000    0.0000 C   0  0  0  0  0  0  0  0  0  0  0  0
   -0.0000    1.0058    0.0000 C   0  0  0  0  0  0  0  0  0  0  0  0
    0.8680    1.5138    0.0000 C   0  0  0  0  0  0  0  0  0  0  0  0
    0.8680    2.5138    0.0000 O   0  0  0  0  0  0  0  0  0  0  0  0
    0.0020    3.0138    0.0000 C   0  0  0  0  0  0  0  0  0  0  0  0
    6.5551   -3.7896    0.0000 N   0  3  0  0  0  0  0  0  0  0  0  0
  1  2  1  0  0  0  0
  2  3  1  0  0  0  0
  3  4  2  0  0  0  0
  3  5  1  0  0  0  0
  5  6  1  0  0  0  0
  6  7  1  0  0  0  0
  7  8  1  0  0  0  0
  8 12  1  0  0  0  0
  8  9  2  0  0  0  0
  9 10  1  0  0  0  0
 10 11  1  0  0  0  0
 11 16  2  0  0  0  0
 11 12  1  0  0  0  0
 12 13  2  0  0  0  0
 13 14  1  0  0  0  0
 14 15  2  0  0  0  0
 15 16  1  0  0  0  0
 16 17  1  0  0  0  0
 17 18  1  0  0  0  0
  2 19  1  0  0  0  0
M  CHG  1  19   1
M  END
$$$$
s_22____13025516____60364
  -OEChem-03222016482D

 19 20  0     0  0  0  0  0  0999 V2000
    0.0012   -1.9973    0.0000 C   0  0  0  0  0  0  0  0  0  0  0  0
    0.8675   -1.4978    0.0000 O   0  0  0  0  0  0  0  0  0  0  0  0
    0.8680   -0.4978    0.0000 C   0  0  0  0  0  0  0  0  0  0  0  0
    0.0000    0.0000    0.0000 C   0  0  0  0  0  0  0  0  0  0  0  0
   -0.0000    1.0058    0.0000 C   0  0  0  0  0  0  0  0  0  0  0  0
    0.8680    1.5138    0.0000 C   0  0  0  0  0  0  0  0  0  0  0  0
    1.7360    1.0058    0.0000 C   0  0  0  0  0  0  0  0  0  0  0  0
    1.7360   -0.0012    0.0000 C   0  0  0  0  0  0  0  0  0  0  0  0
    2.6938   -0.3125    0.0000 C   0  0  0  0  0  0  0  0  0  0  0  0
    3.2858    0.5023    0.0000 C   0  0  0  0  0  0  0  0  0  0  0  0
    2.6938    1.3169    0.0000 N   0  0  0  0  0  0  0  0  0  0  0  0
    3.0028   -1.2636    0.0000 C   0  0  0  0  0  0  0  0  0  0  0  0
    3.9809   -1.4715    0.0000 C   0  0  0  0  0  0  0  0  0  0  0  0
    4.2899   -2.4226    0.0000 N   0  0  0  0  0  0  0  0  0  0  0  0
    5.2680   -2.6306    0.0000 C   0  0  0  0  0  0  0  0  0  0  0  0
    5.9372   -1.8874    0.0000 O   0  0  0  0  0  0  0  0  0  0  0  0
    5.5770   -3.5816    0.0000 C   0  0  0  0  0  0  0  0  0  0  0  0
    6.5551   -3.7896    0.0000 S   0  0  0  0  0  0  0  0  0  0  0  0
    6.8641   -4.7407    0.0000 C   0  0  0  0  0  0  0  0  0  0  0  0
  1  2  1  0  0  0  0
  2  3  1  0  0  0  0
  3  8  2  0  0  0  0
  3  4  1  0  0  0  0
  4  5  2  0  0  0  0
  5  6  1  0  0  0  0
  6  7  2  0  0  0  0
  7 11  1  0  0  0  0
  7  8  1  0  0  0  0
  8  9  1  0  0  0  0
  9 10  2  0  0  0  0
 10 11  1  0  0  0  0
  9 12  1  0  0  0  0
 12 13  1  0  0  0  0
 13 14  1  0  0  0  0
 14 15  1  0  0  0  0
 15 16  2  0  0  0  0
 15 17  1  0  0  0  0
 17 18  1  0  0  0  0
 18 19  1  0  0  0  0
M  END
$$$$
s_22____15506616____9322364
  -OEChem-03222016482D

 21 22  0     0  0  0  0  0  0999 V2000
    1.7340    3.0138    0.0000 C   0  0  0  0  0  0  0  0  0  0  0  0
    0.8680    2.5138    0.0000 O   0  0  0  0  0  0  0  0  0  0  0  0
    0.8680    1.5138    0.0000 C   0  0  0  0  0  0  0  0  0  0  0  0
    0.0000    1.0058    0.0000 C   0  0  0  0  0  0  0  0  0  0  0  0
    0.0000    0.0000    0.0000 C   0  0  0  0  0  0  0  0  0  0  0  0
    0.8680   -0.4978    0.0000 C   0  0  0  0  0  0  0  0  0  0  0  0
    1.7360   -0.0012    0.0000 C   0  0  0  0  0  0  0  0  0  0  0  0
    1.7360    1.0058    0.0000 C   0  0  0  0  0  0  0  0  0  0  0  0
    2.6938    1.3169    0.0000 N   0  0  0  0  0  0  0  0  0  0  0  0
    3.2858    0.5023    0.0000 C   0  0  0  0  0  0  0  0  0  0  0  0
    2.6938   -0.3125    0.0000 C   0  0  0  0  0  0  0  0  0  0  0  0
    3.0028   -1.2636    0.0000 C   0  0  0  0  0  0  0  0  0  0  0  0
    3.9809   -1.4715    0.0000 C   0  0  0  0  0  0  0  0  0  0  0  0
    4.2899   -2.4226    0.0000 N   0  0  0  0  0  0  0  0  0  0  0  0
    5.2680   -2.6306    0.0000 C   0  0  0  0  0  0  0  0  0  0  0  0
    5.9372   -1.8874    0.0000 O   0  0  0  0  0  0  0  0  0  0  0  0
    5.5770   -3.5816    0.0000 C   0  0  0  0  0  0  0  0  0  0  0  0
    6.5551   -3.7896    0.0000 C   0  0  0  0  0  0  0  0  0  0  0  0
    6.8641   -4.7407    0.0000 C   0  0  0  0  0  0  0  0  0  0  0  0
    7.8422   -4.9486    0.0000 C   0  0  0  0  0  0  0  0  0  0  0  0
    8.8204   -5.1566    0.0000 C   0  0  0  0  0  0  0  0  0  0  0  0
  1  2  1  0  0  0  0
  2  3  1  0  0  0  0
  3  8  2  0  0  0  0
  3  4  1  0  0  0  0
  4  5  2  0  0  0  0
  5  6  1  0  0  0  0
  6  7  2  0  0  0  0
  7 11  1  0  0  0  0
  7  8  1  0  0  0  0
  8  9  1  0  0  0  0
  9 10  1  0  0  0  0
 10 11  2  0  0  0  0
 11 12  1  0  0  0  0
 12 13  1  0  0  0  0
 13 14  1  0  0  0  0
 14 15  1  0  0  0  0
 15 16  2  0  0  0  0
 15 17  1  0  0  0  0
 17 18  1  0  0  0  0
 18 19  1  0  0  0  0
 19 20  1  0  0  0  0
 20 21  3  0  0  0  0
M  END
$$$$
s_270062____15561760____12409802
  -OEChem-03222016482D

 21 22  0     0  0  0  0  0  0999 V2000
    1.6132   -5.3951    0.0000 C   0  0  0  0  0  0  0  0  0  0  0  0
    1.3042   -4.4440    0.0000 C   0  0  0  0  0  0  0  0  0  0  0  0
    0.3261   -4.2360    0.0000 C   0  0  0  0  0  0  0  0  0  0  0  0
    1.9734   -3.7009    0.0000 C   0  0  0  0  0  0  0  0  0  0  0  0
    2.9515   -3.9088    0.0000 O   0  0  0  0  0  0  0  0  0  0  0  0
    1.6644   -2.7498    0.0000 N   0  0  0  0  0  0  0  0  0  0  0  0
    2.3336   -2.0067    0.0000 C   0  0  0  0  0  0  0  0  0  0  0  0
    1.5905   -1.3375    0.0000 C   0  0  0  0  0  0  0  0  0  0  0  0
    3.0767   -2.6759    0.0000 C   0  0  0  0  0  0  0  0  0  0  0  0
    3.0028   -1.2636    0.0000 C   0  0  0  0  0  0  0  0  0  0  0  0
    2.6938   -0.3125    0.0000 C   0  0  0  0  0  0  0  0  0  0  0  0
    3.2858    0.5023    0.0000 C   0  0  0  0  0  0  0  0  0  0  0  0
    2.6938    1.3169    0.0000 N   0  0  0  0  0  0  0  0  0  0  0  0
    1.7360    1.0058    0.0000 C   0  0  0  0  0  0  0  0  0  0  0  0
    1.7360   -0.0012    0.0000 C   0  0  0  0  0  0  0  0  0  0  0  0
    0.8680   -0.4978    0.0000 C   0  0  0  0  0  0  0  0  0  0  0  0
    0.0000    0.0000    0.0000 C   0  0  0  0  0  0  0  0  0  0  0  0
   -0.0000    1.0058    0.0000 C   0  0  0  0  0  0  0  0  0  0  0  0
    0.8680    1.5138    0.0000 C   0  0  0  0  0  0  0  0  0  0  0  0
   -0.8675    1.5032    0.0000 O   0  0  0  0  0  0  0  0  0  0  0  0
   -1.7320    1.0007    0.0000 C   0  0  0  0  0  0  0  0  0  0  0  0
  1  2  1  0  0  0  0
  2  3  1  0  0  0  0
  2  4  1  0  0  0  0
  4  5  2  0  0  0  0
  4  6  1  0  0  0  0
  6  7  1  0  0  0  0
  7  8  1  0  0  0  0
  7  9  1  0  0  0  0
  7 10  1  0  0  0  0
 10 11  1  0  0  0  0
 11 15  1  0  0  0  0
 11 12  2  0  0  0  0
 12 13  1  0  0  0  0
 13 14  1  0  0  0  0
 14 19  2  0  0  0  0
 14 15  1  0  0  0  0
 15 16  2  0  0  0  0
 16 17  1  0  0  0  0
 17 18  2  0  0  0  0
 18 19  1  0  0  0  0
 18 20  1  0  0  0  0
 20 21  1  0  0  0  0
M  END
$$$$
s_22____9156166____58887
  -OEChem-03222016482D

 17 18  0     0  0  0  0  0  0999 V2000
    1.6132   -5.3951    0.0000 C   0  0  0  0  0  0  0  0  0  0  0  0
    2.2824   -4.6519    0.0000 C   0  0  0  0  0  0  0  0  0  0  0  0
    1.9734   -3.7009    0.0000 C   0  0  0  0  0  0  0  0  0  0  0  0
    0.9953   -3.4929    0.0000 O   0  0  0  0  0  0  0  0  0  0  0  0
    2.6426   -2.9578    0.0000 N   0  0  0  0  0  0  0  0  0  0  0  0
    2.3336   -2.0067    0.0000 C   0  0  0  0  0  0  0  0  0  0  0  0
    3.0028   -1.2636    0.0000 C   0  0  0  0  0  0  0  0  0  0  0  0
    2.6938   -0.3125    0.0000 C   0  0  0  0  0  0  0  0  0  0  0  0
    3.2858    0.5023    0.0000 C   0  0  0  0  0  0  0  0  0  0  0  0
    2.6938    1.3169    0.0000 N   0  0  0  0  0  0  0  0  0  0  0  0
    1.7360    1.0058    0.0000 C   0  0  0  0  0  0  0  0  0  0  0  0
    1.7360   -0.0012    0.0000 C   0  0  0  0  0  0  0  0  0  0  0  0
    0.8680   -0.4978    0.0000 C   0  0  0  0  0  0  0  0  0  0  0  0
    0.0000    0.0000    0.0000 C   0  0  0  0  0  0  0  0  0  0  0  0
   -0.0000    1.0058    0.0000 C   0  0  0  0  0  0  0  0  0  0  0  0
    0.8680    1.5138    0.0000 C   0  0  0  0  0  0  0  0  0  0  0  0
   -0.8675    1.5032    0.0000 C   0  0  0  0  0  0  0  0  0  0  0  0
  1  2  1  0  0  0  0
  2  3  1  0  0  0  0
  3  4  2  0  0  0  0
  3  5  1  0  0  0  0
  5  6  1  0  0  0  0
  6  7  1  0  0  0  0
  7  8  1  0  0  0  0
  8 12  1  0  0  0  0
  8  9  2  0  0  0  0
  9 10  1  0  0  0  0
 10 11  1  0  0  0  0
 11 16  2  0  0  0  0
 11 12  1  0  0  0  0
 12 13  2  0  0  0  0
 13 14  1  0  0  0  0
 14 15  2  0  0  0  0
 15 16  1  0  0  0  0
 15 17  1  0  0  0  0
M  END
$$$$
s_240690b____15754670____3025698
  -OEChem-03222016482D

 19 20  0     1  0  0  0  0  0999 V2000
    3.9809   -1.4715    0.0000 C   0  0  0  0  0  0  0  0  0  0  0  0
    3.0028   -1.2636    0.0000 C   0  0  3  0  0  0  0  0  0  0  0  0
    2.3336   -2.0067    0.0000 C   0  0  0  0  0  0  0  0  0  0  0  0
    2.6426   -2.9578    0.0000 N   0  0  0  0  0  0  0  0  0  0  0  0
    1.9734   -3.7009    0.0000 C   0  0  0  0  0  0  0  0  0  0  0  0
    0.9953   -3.4929    0.0000 O   0  0  0  0  0  0  0  0  0  0  0  0
    2.2824   -4.6519    0.0000 C   0  0  0  0  0  0  0  0  0  0  0  0
    1.6132   -5.3951    0.0000 N   0  3  0  0  0  0  0  0  0  0  0  0
    2.6938   -0.3125    0.0000 C   0  0  0  0  0  0  0  0  0  0  0  0
    3.2858    0.5023    0.0000 C   0  0  0  0  0  0  0  0  0  0  0  0
    2.6938    1.3169    0.0000 N   0  0  0  0  0  0  0  0  0  0  0  0
    1.7360    1.0058    0.0000 C   0  0  0  0  0  0  0  0  0  0  0  0
    1.7360   -0.0012    0.0000 C   0  0  0  0  0  0  0  0  0  0  0  0
    0.8680   -0.4978    0.0000 C   0  0  0  0  0  0  0  0  0  0  0  0
    0.0000    0.0000    0.0000 C   0  0  0  0  0  0  0  0  0  0  0  0
   -0.0000    1.0058    0.0000 C   0  0  0  0  0  0  0  0  0  0  0  0
    0.8680    1.5138    0.0000 C   0  0  0  0  0  0  0  0  0  0  0  0
   -0.8653   -0.5013    0.0000 O   0  0  0  0  0  0  0  0  0  0  0  0
   -0.8639   -1.5013    0.0000 C   0  0  0  0  0  0  0  0  0  0  0  0
  1  2  1  0  0  0  0
  2  3  1  0  0  0  0
  3  4  1  0  0  0  0
  4  5  1  0  0  0  0
  5  6  2  0  0  0  0
  5  7  1  0  0  0  0
  7  8  1  0  0  0  0
  2  9  1  0  0  0  0
  9 13  1  0  0  0  0
  9 10  2  0  0  0  0
 10 11  1  0  0  0  0
 11 12  1  0  0  0  0
 12 17  2  0  0  0  0
 12 13  1  0  0  0  0
 13 14  2  0  0  0  0
 14 15  1  0  0  0  0
 15 16  2  0  0  0  0
 16 17  1  0  0  0  0
 15 18  1  0  0  0  0
 18 19  1  0  0  0  0
M  CHG  1   8   1
M  END
$$$$
s_22____13025516____16890190
  -OEChem-03222016482D

 20 21  0     1  0  0  0  0  0999 V2000
    7.2243   -3.0465    0.0000 C   0  0  0  0  0  0  0  0  0  0  0  0
    6.5551   -3.7896    0.0000 C   0  0  3  0  0  0  0  0  0  0  0  0
    5.5770   -3.5816    0.0000 C   0  0  0  0  0  0  0  0  0  0  0  0
    5.2680   -2.6306    0.0000 C   0  0  0  0  0  0  0  0  0  0  0  0
    5.9372   -1.8874    0.0000 O   0  0  0  0  0  0  0  0  0  0  0  0
    4.2899   -2.4226    0.0000 N   0  0  0  0  0  0  0  0  0  0  0  0
    3.9809   -1.4715    0.0000 C   0  0  0  0  0  0  0  0  0  0  0  0
    3.0028   -1.2636    0.0000 C   0  0  0  0  0  0  0  0  0  0  0  0
    2.6938   -0.3125    0.0000 C   0  0  0  0  0  0  0  0  0  0  0  0
    3.2858    0.5023    0.0000 C   0  0  0  0  0  0  0  0  0  0  0  0
    2.6938    1.3169    0.0000 N   0  0  0  0  0  0  0  0  0  0  0  0
    1.7360    1.0058    0.0000 C   0  0  0  0  0  0  0  0  0  0  0  0
    1.7360   -0.0012    0.0000 C   0  0  0  0  0  0  0  0  0  0  0  0
    0.8680   -0.4978    0.0000 C   0  0  0  0  0  0  0  0  0  0  0  0
    0.0000    0.0000    0.0000 C   0  0  0  0  0  0  0  0  0  0  0  0
   -0.0000    1.0058    0.0000 C   0  0  0  0  0  0  0  0  0  0  0  0
    0.8680    1.5138    0.0000 C   0  0  0  0  0  0  0  0  0  0  0  0
    0.8675   -1.4978    0.0000 O   0  0  0  0  0  0  0  0  0  0  0  0
    1.7332   -1.9983    0.0000 C   0  0  0  0  0  0  0  0  0  0  0  0
    6.8641   -4.7407    0.0000 F   0  0  0  0  0  0  0  0  0  0  0  0
  1  2  1  0  0  0  0
  2  3  1  0  0  0  0
  3  4  1  0  0  0  0
  4  5  2  0  0  0  0
  4  6  1  0  0  0  0
  6  7  1  0  0  0  0
  7  8  1  0  0  0  0
  8  9  1  0  0  0  0
  9 13  1  0  0  0  0
  9 10  2  0  0  0  0
 10 11  1  0  0  0  0
 11 12  1  0  0  0  0
 12 17  2  0  0  0  0
 12 13  1  0  0  0  0
 13 14  2  0  0  0  0
 14 15  1  0  0  0  0
 15 16  2  0  0  0  0
 16 17  1  0  0  0  0
 14 18  1  0  0  0  0
 18 19  1  0  0  0  0
  2 20  1  0  0  0  0
M  END
$$$$
s_240690b____7363756____13151248
  -OEChem-03222016482D

 18 19  0     0  0  0  0  0  0999 V2000
    0.8680    2.5138    0.0000 C   0  0  0  0  0  0  0  0  0  0  0  0
    0.8680    1.5138    0.0000 C   0  0  0  0  0  0  0  0  0  0  0  0
    0.0000    1.0058    0.0000 C   0  0  0  0  0  0  0  0  0  0  0  0
    0.0000    0.0000    0.0000 C   0  0  0  0  0  0  0  0  0  0  0  0
    0.8680   -0.4978    0.0000 C   0  0  0  0  0  0  0  0  0  0  0  0
    1.7360   -0.0012    0.0000 C   0  0  0  0  0  0  0  0  0  0  0  0
    1.7360    1.0058    0.0000 C   0  0  0  0  0  0  0  0  0  0  0  0
    2.6938    1.3169    0.0000 N   0  0  0  0  0  0  0  0  0  0  0  0
    3.2858    0.5023    0.0000 C   0  0  0  0  0  0  0  0  0  0  0  0
    2.6938   -0.3125    0.0000 C   0  0  0  0  0  0  0  0  0  0  0  0
    3.0028   -1.2636    0.0000 C   0  0  0  0  0  0  0  0  0  0  0  0
    3.9809   -1.4715    0.0000 C   0  0  0  0  0  0  0  0  0  0  0  0
    4.2899   -2.4226    0.0000 N   0  0  0  0  0  0  0  0  0  0  0  0
    5.2680   -2.6306    0.0000 C   0  0  0  0  0  0  0  0  0  0  0  0
    5.9372   -1.8874    0.0000 O   0  0  0  0  0  0  0  0  0  0  0  0
    5.5770   -3.5816    0.0000 C   0  0  0  0  0  0  0  0  0  0  0  0
    6.5551   -3.7896    0.0000 O   0  0  0  0  0  0  0  0  0  0  0  0
    6.8641   -4.7407    0.0000 N   0  0  0  0  0  0  0  0  0  0  0  0
  1  2  1  0  0  0  0
  2  7  2  0  0  0  0
  2  3  1  0  0  0  0
  3  4  2  0  0  0  0
  4  5  1  0  0  0  0
  5  6  2  0  0  0  0
  6 10  1  0  0  0  0
  6  7  1  0  0  0  0
  7  8  1  0  0  0  0
  8  9  1  0  0  0  0
  9 10  2  0  0  0  0
 10 11  1  0  0  0  0
 11 12  1  0  0  0  0
 12 13  1  0  0  0  0
 13 14  1  0  0  0  0
 14 15  2  0  0  0  0
 14 16  1  0  0  0  0
 16 17  1  0  0  0  0
 17 18  1  0  0  0  0
M  END
$$$$
s_22____4602506____58887
  -OEChem-03222016482D

 18 19  0     0  0  0  0  0  0999 V2000
    1.7340    3.0138    0.0000 C   0  0  0  0  0  0  0  0  0  0  0  0
    0.8680    2.5138    0.0000 C   0  0  0  0  0  0  0  0  0  0  0  0
    0.8680    1.5138    0.0000 C   0  0  0  0  0  0  0  0  0  0  0  0
    0.0000    1.0058    0.0000 C   0  0  0  0  0  0  0  0  0  0  0  0
    0.0000    0.0000    0.0000 C   0  0  0  0  0  0  0  0  0  0  0  0
    0.8680   -0.4978    0.0000 C   0  0  0  0  0  0  0  0  0  0  0  0
    1.7360   -0.0012    0.0000 C   0  0  0  0  0  0  0  0  0  0  0  0
    1.7360    1.0058    0.0000 C   0  0  0  0  0  0  0  0  0  0  0  0
    2.6938    1.3169    0.0000 N   0  0  0  0  0  0  0  0  0  0  0  0
    3.2858    0.5023    0.0000 C   0  0  0  0  0  0  0  0  0  0  0  0
    2.6938   -0.3125    0.0000 C   0  0  0  0  0  0  0  0  0  0  0  0
    3.0028   -1.2636    0.0000 C   0  0  0  0  0  0  0  0  0  0  0  0
    3.9809   -1.4715    0.0000 C   0  0  0  0  0  0  0  0  0  0  0  0
    4.2899   -2.4226    0.0000 N   0  0  0  0  0  0  0  0  0  0  0  0
    5.2680   -2.6306    0.0000 C   0  0  0  0  0  0  0  0  0  0  0  0
    5.9372   -1.8874    0.0000 O   0  0  0  0  0  0  0  0  0  0  0  0
    5.5770   -3.5816    0.0000 C   0  0  0  0  0  0  0  0  0  0  0  0
    6.5551   -3.7896    0.0000 C   0  0  0  0  0  0  0  0  0  0  0  0
  1  2  1  0  0  0  0
  2  3  1  0  0  0  0
  3  8  2  0  0  0  0
  3  4  1  0  0  0  0
  4  5  2  0  0  0  0
  5  6  1  0  0  0  0
  6  7  2  0  0  0  0
  7 11  1  0  0  0  0
  7  8  1  0  0  0  0
  8  9  1  0  0  0  0
  9 10  1  0  0  0  0
 10 11  2  0  0  0  0
 11 12  1  0  0  0  0
 12 13  1  0  0  0  0
 13 14  1  0  0  0  0
 14 15  1  0  0  0  0
 15 16  2  0  0  0  0
 15 17  1  0  0  0  0
 17 18  1  0  0  0  0
M  END
$$$$
s_22____15506616____59017
  -OEChem-03222016482D

 21 22  0     0  0  0  0  0  0999 V2000
    1.2530   -7.0892    0.0000 C   0  0  0  0  0  0  0  0  0  0  0  0
    1.9222   -6.3461    0.0000 C   0  0  0  0  0  0  0  0  0  0  0  0
    2.9003   -6.5541    0.0000 O   0  0  0  0  0  0  0  0  0  0  0  0
    1.6132   -5.3951    0.0000 C   0  0  0  0  0  0  0  0  0  0  0  0
    2.2824   -4.6519    0.0000 C   0  0  0  0  0  0  0  0  0  0  0  0
    1.9734   -3.7009    0.0000 C   0  0  0  0  0  0  0  0  0  0  0  0
    0.9953   -3.4929    0.0000 O   0  0  0  0  0  0  0  0  0  0  0  0
    2.6426   -2.9578    0.0000 N   0  0  0  0  0  0  0  0  0  0  0  0
    2.3336   -2.0067    0.0000 C   0  0  0  0  0  0  0  0  0  0  0  0
    3.0028   -1.2636    0.0000 C   0  0  0  0  0  0  0  0  0  0  0  0
    2.6938   -0.3125    0.0000 C   0  0  0  0  0  0  0  0  0  0  0  0
    3.2858    0.5023    0.0000 C   0  0  0  0  0  0  0  0  0  0  0  0
    2.6938    1.3169    0.0000 N   0  0  0  0  0  0  0  0  0  0  0  0
    1.7360    1.0058    0.0000 C   0  0  0  0  0  0  0  0  0  0  0  0
    1.7360   -0.0012    0.0000 C   0  0  0  0  0  0  0  0  0  0  0  0
    0.8680   -0.4978    0.0000 C   0  0  0  0  0  0  0  0  0  0  0  0
    0.0000    0.0000    0.0000 C   0  0  0  0  0  0  0  0  0  0  0  0
   -0.0000    1.0058    0.0000 C   0  0  0  0  0  0  0  0  0  0  0  0
    0.8680    1.5138    0.0000 C   0  0  0  0  0  0  0  0  0  0  0  0
    0.8680    2.5138    0.0000 O   0  0  0  0  0  0  0  0  0  0  0  0
    0.0020    3.0138    0.0000 C   0  0  0  0  0  0  0  0  0  0  0  0
  1  2  1  0  0  0  0
  2  3  2  0  0  0  0
  2  4  1  0  0  0  0
  4  5  1  0  0  0  0
  5  6  1  0  0  0  0
  6  7  2  0  0  0  0
  6  8  1  0  0  0  0
  8  9  1  0  0  0  0
  9 10  1  0  0  0  0
 10 11  1  0  0  0  0
 11 15  1  0  0  0  0
 11 12  2  0  0  0  0
 12 13  1  0  0  0  0
 13 14  1  0  0  0  0
 14 19  2  0  0  0  0
 14 15  1  0  0  0  0
 15 16  2  0  0  0  0
 16 17  1  0  0  0  0
 17 18  2  0  0  0  0
 18 19  1  0  0  0  0
 19 20  1  0  0  0  0
 20 21  1  0  0  0  0
M  END
$$$$
s_2554____13025538____951600
  -OEChem-03222016482D

 19 20  0     0  0  0  0  0  0999 V2000
    6.8641   -4.7407    0.0000 C   0  0  0  0  0  0  0  0  0  0  0  0
    6.5551   -3.7896    0.0000 C   0  0  0  0  0  0  0  0  0  0  0  0
    5.5770   -3.5816    0.0000 N   0  0  0  0  0  0  0  0  0  0  0  0
    5.2680   -2.6306    0.0000 C   0  0  0  0  0  0  0  0  0  0  0  0
    5.9372   -1.8874    0.0000 O   0  0  0  0  0  0  0  0  0  0  0  0
    4.2899   -2.4226    0.0000 N   0  0  0  0  0  0  0  0  0  0  0  0
    3.9809   -1.4715    0.0000 C   0  0  0  0  0  0  0  0  0  0  0  0
    3.0028   -1.2636    0.0000 C   0  0  0  0  0  0  0  0  0  0  0  0
    2.6938   -0.3125    0.0000 C   0  0  0  0  0  0  0  0  0  0  0  0
    3.2858    0.5023    0.0000 C   0  0  0  0  0  0  0  0  0  0  0  0
    2.6938    1.3169    0.0000 N   0  0  0  0  0  0  0  0  0  0  0  0
    1.7360    1.0058    0.0000 C   0  0  0  0  0  0  0  0  0  0  0  0
    1.7360   -0.0012    0.0000 C   0  0  0  0  0  0  0  0  0  0  0  0
    0.8680   -0.4978    0.0000 C   0  0  0  0  0  0  0  0  0  0  0  0
    0.0000    0.0000    0.0000 C   0  0  0  0  0  0  0  0  0  0  0  0
   -0.0000    1.0058    0.0000 C   0  0  0  0  0  0  0  0  0  0  0  0
    0.8680    1.5138    0.0000 C   0  0  0  0  0  0  0  0  0  0  0  0
    0.8675   -1.4978    0.0000 O   0  0  0  0  0  0  0  0  0  0  0  0
    1.7332   -1.9983    0.0000 C   0  0  0  0  0  0  0  0  0  0  0  0
  1  2  1  0  0  0  0
  2  3  1  0  0  0  0
  3  4  1  0  0  0  0
  4  5  2  0  0  0  0
  4  6  1  0  0  0  0
  6  7  1  0  0  0  0
  7  8  1  0  0  0  0
  8  9  1  0  0  0  0
  9 13  1  0  0  0  0
  9 10  2  0  0  0  0
 10 11  1  0  0  0  0
 11 12  1  0  0  0  0
 12 17  2  0  0  0  0
 12 13  1  0  0  0  0
 13 14  2  0  0  0  0
 14 15  1  0  0  0  0
 15 16  2  0  0  0  0
 16 17  1  0  0  0  0
 14 18  1  0  0  0  0
 18 19  1  0  0  0  0
M  END
$$$$
s_22____13978824____2757558
  -OEChem-03222016482D

 20 21  0     0  0  0  0  0  0999 V2000
   -0.8705    2.5032    0.0000 C   0  0  0  0  0  0  0  0  0  0  0  0
   -0.8675    1.5032    0.0000 O   0  0  0  0  0  0  0  0  0  0  0  0
    0.0000    1.0058    0.0000 C   0  0  0  0  0  0  0  0  0  0  0  0
    0.0000    0.0000    0.0000 C   0  0  0  0  0  0  0  0  0  0  0  0
    0.8680   -0.4978    0.0000 C   0  0  0  0  0  0  0  0  0  0  0  0
    1.7360   -0.0012    0.0000 C   0  0  0  0  0  0  0  0  0  0  0  0
    1.7360    1.0058    0.0000 C   0  0  0  0  0  0  0  0  0  0  0  0
    0.8680    1.5138    0.0000 C   0  0  0  0  0  0  0  0  0  0  0  0
    2.6938    1.3169    0.0000 N   0  0  0  0  0  0  0  0  0  0  0  0
    3.2858    0.5023    0.0000 C   0  0  0  0  0  0  0  0  0  0  0  0
    2.6938   -0.3125    0.0000 C   0  0  0  0  0  0  0  0  0  0  0  0
    3.0028   -1.2636    0.0000 C   0  0  0  0  0  0  0  0  0  0  0  0
    3.9809   -1.4715    0.0000 C   0  0  0  0  0  0  0  0  0  0  0  0
    4.2899   -2.4226    0.0000 N   0  0  0  0  0  0  0  0  0  0  0  0
    5.2680   -2.6306    0.0000 C   0  0  0  0  0  0  0  0  0  0  0  0
    5.9372   -1.8874    0.0000 O   0  0  0  0  0  0  0  0  0  0  0  0
    5.5770   -3.5816    0.0000 C   0  0  0  0  0  0  0  0  0  0  0  0
    6.5551   -3.7896    0.0000 C   0  0  0  0  0  0  0  0  0  0  0  0
    6.8641   -4.7407    0.0000 C   0  0  0  0  0  0  0  0  0  0  0  0
    7.8422   -4.9486    0.0000 C   0  0  0  0  0  0  0  0  0  0  0  0
  1  2  1  0  0  0  0
  2  3  1  0  0  0  0
  3  8  2  0  0  0  0
  3  4  1  0  0  0  0
  4  5  2  0  0  0  0
  5  6  1  0  0  0  0
  6 11  1  0  0  0  0
  6  7  2  0  0  0  0
  7  8  1  0  0  0  0
  7  9  1  0  0  0  0
  9 10  1  0  0  0  0
 10 11  2  0  0  0  0
 11 12  1  0  0  0  0
 12 13  1  0  0  0  0
 13 14  1  0  0  0  0
 14 15  1  0  0  0  0
 15 16  2  0  0  0  0
 15 17  1  0  0  0  0
 17 18  1  0  0  0  0
 18 19  1  0  0  0  0
 19 20  2  0  0  0  0
M  END
$$$$
s_240690b____17638974____3025698
  -OEChem-03222016482D

 18 19  0     1  0  0  0  0  0999 V2000
    4.7859   -0.3636    0.0000 C   0  0  0  0  0  0  0  0  0  0  0  0
    4.2858    0.5024    0.0000 C   0  0  3  0  0  0  0  0  0  0  0  0
    3.2858    0.5023    0.0000 C   0  0  0  0  0  0  0  0  0  0  0  0
    2.6938   -0.3125    0.0000 C   0  0  0  0  0  0  0  0  0  0  0  0
    1.7360   -0.0012    0.0000 C   0  0  0  0  0  0  0  0  0  0  0  0
    0.8680   -0.4978    0.0000 C   0  0  0  0  0  0  0  0  0  0  0  0
    0.0000    0.0000    0.0000 C   0  0  0  0  0  0  0  0  0  0  0  0
    0.0000    1.0058    0.0000 C   0  0  0  0  0  0  0  0  0  0  0  0
    0.8680    1.5138    0.0000 C   0  0  0  0  0  0  0  0  0  0  0  0
    1.7360    1.0058    0.0000 C   0  0  0  0  0  0  0  0  0  0  0  0
    2.6938    1.3169    0.0000 O   0  0  0  0  0  0  0  0  0  0  0  0
    0.8680    2.5138    0.0000 O   0  0  0  0  0  0  0  0  0  0  0  0
    0.0020    3.0138    0.0000 C   0  0  0  0  0  0  0  0  0  0  0  0
    4.7857    1.3684    0.0000 N   0  0  0  0  0  0  0  0  0  0  0  0
    5.7857    1.3685    0.0000 C   0  0  0  0  0  0  0  0  0  0  0  0
    6.2858    0.5025    0.0000 O   0  0  0  0  0  0  0  0  0  0  0  0
    6.2857    2.2345    0.0000 C   0  0  0  0  0  0  0  0  0  0  0  0
    7.2857    2.2346    0.0000 N   0  3  0  0  0  0  0  0  0  0  0  0
  1  2  1  0  0  0  0
  2  3  1  0  0  0  0
  3 11  1  0  0  0  0
  3  4  2  0  0  0  0
  4  5  1  0  0  0  0
  5 10  2  0  0  0  0
  5  6  1  0  0  0  0
  6  7  2  0  0  0  0
  7  8  1  0  0  0  0
  8  9  2  0  0  0  0
  9 10  1  0  0  0  0
 10 11  1  0  0  0  0
  9 12  1  0  0  0  0
 12 13  1  0  0  0  0
  2 14  1  0  0  0  0
 14 15  1  0  0  0  0
 15 16  2  0  0  0  0
 15 17  1  0  0  0  0
 17 18  1  0  0  0  0
M  CHG  1  18   1
M  END
$$$$
s_270062____16411674____8147258
  -OEChem-03222016482D

 17 18  0     0  0  0  0  0  0999 V2000
   -0.0000    1.0058    0.0000 C   0  0  0  0  0  0  0  0  0  0  0  0
    0.8680    1.5138    0.0000 C   0  0  0  0  0  0  0  0  0  0  0  0
    1.7360    1.0058    0.0000 C   0  0  0  0  0  0  0  0  0  0  0  0
    1.7360   -0.0012    0.0000 C   0  0  0  0  0  0  0  0  0  0  0  0
    0.8680   -0.4978    0.0000 C   0  0  0  0  0  0  0  0  0  0  0  0
    0.0000    0.0000    0.0000 C   0  0  0  0  0  0  0  0  0  0  0  0
   -0.8653   -0.5013    0.0000 F   0  0  0  0  0  0  0  0  0  0  0  0
    2.6938   -0.3125    0.0000 C   0  0  0  0  0  0  0  0  0  0  0  0
    3.2858    0.5023    0.0000 C   0  0  0  0  0  0  0  0  0  0  0  0
    2.6938    1.3169    0.0000 N   0  0  0  0  0  0  0  0  0  0  0  0
    3.0028   -1.2636    0.0000 C   0  0  0  0  0  0  0  0  0  0  0  0
    3.9809   -1.4715    0.0000 C   0  0  0  0  0  0  0  0  0  0  0  0
    4.2899   -2.4226    0.0000 N   0  0  0  0  0  0  0  0  0  0  0  0
    5.2680   -2.6306    0.0000 C   0  0  0  0  0  0  0  0  0  0  0  0
    5.9372   -1.8874    0.0000 O   0  0  0  0  0  0  0  0  0  0  0  0
    5.5770   -3.5816    0.0000 C   0  0  0  0  0  0  0  0  0  0  0  0
    6.5551   -3.7896    0.0000 Cl  0  0  0  0  0  0  0  0  0  0  0  0
  1  6  2  0  0  0  0
  1  2  1  0  0  0  0
  2  3  2  0  0  0  0
  3 10  1  0  0  0  0
  3  4  1  0  0  0  0
  4  5  2  0  0  0  0
  5  6  1  0  0  0  0
  6  7  1  0  0  0  0
  4  8  1  0  0  0  0
  8  9  2  0  0  0  0
  9 10  1  0  0  0  0
  8 11  1  0  0  0  0
 11 12  1  0  0  0  0
 12 13  1  0  0  0  0
 13 14  1  0  0  0  0
 14 15  2  0  0  0  0
 14 16  1  0  0  0  0
 16 17  1  0  0  0  0
M  END
$$$$
s_240690b____7354134____7368582
  -OEChem-03222016482D

 18 19  0     0  0  0  0  0  0999 V2000
    6.8641   -4.7407    0.0000 C   0  0  0  0  0  0  0  0  0  0  0  0
    6.5551   -3.7896    0.0000 N   0  3  0  0  0  0  0  0  0  0  0  0
    5.5770   -3.5816    0.0000 C   0  0  0  0  0  0  0  0  0  0  0  0
    5.2680   -2.6306    0.0000 C   0  0  0  0  0  0  0  0  0  0  0  0
    5.9372   -1.8874    0.0000 O   0  0  0  0  0  0  0  0  0  0  0  0
    4.2899   -2.4226    0.0000 N   0  0  0  0  0  0  0  0  0  0  0  0
    3.9809   -1.4715    0.0000 C   0  0  0  0  0  0  0  0  0  0  0  0
    3.0028   -1.2636    0.0000 C   0  0  0  0  0  0  0  0  0  0  0  0
    2.6938   -0.3125    0.0000 C   0  0  0  0  0  0  0  0  0  0  0  0
    3.2858    0.5023    0.0000 C   0  0  0  0  0  0  0  0  0  0  0  0
    2.6938    1.3169    0.0000 N   0  0  0  0  0  0  0  0  0  0  0  0
    1.7360    1.0058    0.0000 C   0  0  0  0  0  0  0  0  0  0  0  0
    1.7360   -0.0012    0.0000 C   0  0  0  0  0  0  0  0  0  0  0  0
    0.8680   -0.4978    0.0000 C   0  0  0  0  0  0  0  0  0  0  0  0
    0.0000    0.0000    0.0000 C   0  0  0  0  0  0  0  0  0  0  0  0
   -0.0000    1.0058    0.0000 C   0  0  0  0  0  0  0  0  0  0  0  0
    0.8680    1.5138    0.0000 C   0  0  0  0  0  0  0  0  0  0  0  0
   -0.8653   -0.5013    0.0000 Cl  0  0  0  0  0  0  0  0  0  0  0  0
  1  2  1  0  0  0  0
  2  3  1  0  0  0  0
  3  4  1  0  0  0  0
  4  5  2  0  0  0  0
  4  6  1  0  0  0  0
  6  7  1  0  0  0  0
  7  8  1  0  0  0  0
  8  9  1  0  0  0  0
  9 13  1  0  0  0  0
  9 10  2  0  0  0  0
 10 11  1  0  0  0  0
 11 12  1  0  0  0  0
 12 17  2  0  0  0  0
 12 13  1  0  0  0  0
 13 14  2  0  0  0  0
 14 15  1  0  0  0  0
 15 16  2  0  0  0  0
 16 17  1  0  0  0  0
 15 18  1  0  0  0  0
M  CHG  1   2   1
M  END
$$$$
s_8____15506612____83696
  -OEChem-03222016482D

 19 20  0     0  0  0  0  0  0999 V2000
    6.8641   -4.7407    0.0000 C   0  0  0  0  0  0  0  0  0  0  0  0
    6.5551   -3.7896    0.0000 C   0  0  0  0  0  0  0  0  0  0  0  0
    5.5770   -3.5816    0.0000 N   0  0  0  0  0  0  0  0  0  0  0  0
    5.2680   -2.6306    0.0000 C   0  0  0  0  0  0  0  0  0  0  0  0
    5.9372   -1.8874    0.0000 S   0  0  0  0  0  0  0  0  0  0  0  0
    4.2899   -2.4226    0.0000 N   0  0  0  0  0  0  0  0  0  0  0  0
    3.9809   -1.4715    0.0000 C   0  0  0  0  0  0  0  0  0  0  0  0
    3.0028   -1.2636    0.0000 C   0  0  0  0  0  0  0  0  0  0  0  0
    2.6938   -0.3125    0.0000 C   0  0  0  0  0  0  0  0  0  0  0  0
    3.2858    0.5023    0.0000 C   0  0  0  0  0  0  0  0  0  0  0  0
    2.6938    1.3169    0.0000 N   0  0  0  0  0  0  0  0  0  0  0  0
    1.7360    1.0058    0.0000 C   0  0  0  0  0  0  0  0  0  0  0  0
    1.7360   -0.0012    0.0000 C   0  0  0  0  0  0  0  0  0  0  0  0
    0.8680   -0.4978    0.0000 C   0  0  0  0  0  0  0  0  0  0  0  0
    0.0000    0.0000    0.0000 C   0  0  0  0  0  0  0  0  0  0  0  0
   -0.0000    1.0058    0.0000 C   0  0  0  0  0  0  0  0  0  0  0  0
    0.8680    1.5138    0.0000 C   0  0  0  0  0  0  0  0  0  0  0  0
    0.8680    2.5138    0.0000 O   0  0  0  0  0  0  0  0  0  0  0  0
    0.0020    3.0138    0.0000 C   0  0  0  0  0  0  0  0  0  0  0  0
  1  2  1  0  0  0  0
  2  3  1  0  0  0  0
  3  4  1  0  0  0  0
  4  5  2  0  0  0  0
  4  6  1  0  0  0  0
  6  7  1  0  0  0  0
  7  8  1  0  0  0  0
  8  9  1  0  0  0  0
  9 13  1  0  0  0  0
  9 10  2  0  0  0  0
 10 11  1  0  0  0  0
 11 12  1  0  0  0  0
 12 17  2  0  0  0  0
 12 13  1  0  0  0  0
 13 14  2  0  0  0  0
 14 15  1  0  0  0  0
 15 16  2  0  0  0  0
 16 17  1  0  0  0  0
 17 18  1  0  0  0  0
 18 19  1  0  0  0  0
M  END
$$$$
s_240690b____16900534____13151248
  -OEChem-03222016482D

 18 19  0     0  0  0  0  0  0999 V2000
   -0.0000    1.0058    0.0000 C   0  0  0  0  0  0  0  0  0  0  0  0
    0.8680    1.5138    0.0000 C   0  0  0  0  0  0  0  0  0  0  0  0
    1.7360    1.0058    0.0000 C   0  0  0  0  0  0  0  0  0  0  0  0
    1.7360   -0.0012    0.0000 C   0  0  0  0  0  0  0  0  0  0  0  0
    0.8680   -0.4978    0.0000 C   0  0  0  0  0  0  0  0  0  0  0  0
    0.0000    0.0000    0.0000 C   0  0  0  0  0  0  0  0  0  0  0  0
    0.8675   -1.4978    0.0000 F   0  0  0  0  0  0  0  0  0  0  0  0
    2.6938   -0.3125    0.0000 C   0  0  0  0  0  0  0  0  0  0  0  0
    3.2858    0.5023    0.0000 C   0  0  0  0  0  0  0  0  0  0  0  0
    2.6938    1.3169    0.0000 N   0  0  0  0  0  0  0  0  0  0  0  0
    3.0028   -1.2636    0.0000 C   0  0  0  0  0  0  0  0  0  0  0  0
    3.9809   -1.4715    0.0000 C   0  0  0  0  0  0  0  0  0  0  0  0
    4.2899   -2.4226    0.0000 N   0  0  0  0  0  0  0  0  0  0  0  0
    5.2680   -2.6306    0.0000 C   0  0  0  0  0  0  0  0  0  0  0  0
    5.9372   -1.8874    0.0000 O   0  0  0  0  0  0  0  0  0  0  0  0
    5.5770   -3.5816    0.0000 C   0  0  0  0  0  0  0  0  0  0  0  0
    6.5551   -3.7896    0.0000 O   0  0  0  0  0  0  0  0  0  0  0  0
    6.8641   -4.7407    0.0000 N   0  0  0  0  0  0  0  0  0  0  0  0
  1  6  2  0  0  0  0
  1  2  1  0  0  0  0
  2  3  2  0  0  0  0
  3 10  1  0  0  0  0
  3  4  1  0  0  0  0
  4  5  2  0  0  0  0
  5  6  1  0  0  0  0
  5  7  1  0  0  0  0
  4  8  1  0  0  0  0
  8  9  2  0  0  0  0
  9 10  1  0  0  0  0
  8 11  1  0  0  0  0
 11 12  1  0  0  0  0
 12 13  1  0  0  0  0
 13 14  1  0  0  0  0
 14 15  2  0  0  0  0
 14 16  1  0  0  0  0
 16 17  1  0  0  0  0
 17 18  1  0  0  0  0
M  END
$$$$
s_2708____4839472____8988634
  -OEChem-03222016482D

 19 20  0     0  0  0  0  0  0999 V2000
   -1.7320   -0.0025    0.0000 C   0  0  0  0  0  0  0  0  0  0  0  0
   -0.8653   -0.5013    0.0000 O   0  0  0  0  0  0  0  0  0  0  0  0
    0.0000    0.0000    0.0000 C   0  0  0  0  0  0  0  0  0  0  0  0
   -0.0000    1.0058    0.0000 C   0  0  0  0  0  0  0  0  0  0  0  0
    0.8680    1.5138    0.0000 C   0  0  0  0  0  0  0  0  0  0  0  0
    1.7360    1.0058    0.0000 C   0  0  0  0  0  0  0  0  0  0  0  0
    1.7360   -0.0012    0.0000 C   0  0  0  0  0  0  0  0  0  0  0  0
    0.8680   -0.4978    0.0000 C   0  0  0  0  0  0  0  0  0  0  0  0
    2.6938   -0.3125    0.0000 C   0  0  0  0  0  0  0  0  0  0  0  0
    3.2858    0.5023    0.0000 C   0  0  0  0  0  0  0  0  0  0  0  0
    2.6938    1.3169    0.0000 N   0  0  0  0  0  0  0  0  0  0  0  0
    3.0028   -1.2636    0.0000 C   0  0  0  0  0  0  0  0  0  0  0  0
    3.9809   -1.4715    0.0000 C   0  0  0  0  0  0  0  0  0  0  0  0
    4.2899   -2.4226    0.0000 N   0  0  0  0  0  0  0  0  0  0  0  0
    5.2680   -2.6306    0.0000 C   0  0  0  0  0  0  0  0  0  0  0  0
    5.9372   -1.8874    0.0000 O   0  0  0  0  0  0  0  0  0  0  0  0
    5.5770   -3.5816    0.0000 N   0  0  0  0  0  0  0  0  0  0  0  0
    6.5551   -3.7896    0.0000 O   0  0  0  0  0  0  0  0  0  0  0  0
    6.8641   -4.7407    0.0000 C   0  0  0  0  0  0  0  0  0  0  0  0
  1  2  1  0  0  0  0
  2  3  1  0  0  0  0
  3  8  2  0  0  0  0
  3  4  1  0  0  0  0
  4  5  2  0  0  0  0
  5  6  1  0  0  0  0
  6 11  1  0  0  0  0
  6  7  2  0  0  0  0
  7  8  1  0  0  0  0
  7  9  1  0  0  0  0
  9 10  2  0  0  0  0
 10 11  1  0  0  0  0
  9 12  1  0  0  0  0
 12 13  1  0  0  0  0
 13 14  1  0  0  0  0
 14 15  1  0  0  0  0
 15 16  2  0  0  0  0
 15 17  1  0  0  0  0
 17 18  1  0  0  0  0
 18 19  1  0  0  0  0
M  END
$$$$
s_512____7344786____13025528
  -OEChem-03222016482D

 21 22  0     0  0  0  0  0  0999 V2000
    0.0012   -1.9973    0.0000 C   0  0  0  0  0  0  0  0  0  0  0  0
    0.8675   -1.4978    0.0000 O   0  0  0  0  0  0  0  0  0  0  0  0
    0.8680   -0.4978    0.0000 C   0  0  0  0  0  0  0  0  0  0  0  0
    0.0000    0.0000    0.0000 C   0  0  0  0  0  0  0  0  0  0  0  0
   -0.0000    1.0058    0.0000 C   0  0  0  0  0  0  0  0  0  0  0  0
    0.8680    1.5138    0.0000 C   0  0  0  0  0  0  0  0  0  0  0  0
    1.7360    1.0058    0.0000 C   0  0  0  0  0  0  0  0  0  0  0  0
    1.7360   -0.0012    0.0000 C   0  0  0  0  0  0  0  0  0  0  0  0
    2.6938   -0.3125    0.0000 C   0  0  0  0  0  0  0  0  0  0  0  0
    3.2858    0.5023    0.0000 C   0  0  0  0  0  0  0  0  0  0  0  0
    2.6938    1.3169    0.0000 N   0  0  0  0  0  0  0  0  0  0  0  0
    3.0028   -1.2636    0.0000 C   0  0  0  0  0  0  0  0  0  0  0  0
    3.9809   -1.4715    0.0000 C   0  0  0  0  0  0  0  0  0  0  0  0
    4.2899   -2.4226    0.0000 N   0  0  0  0  0  0  0  0  0  0  0  0
    5.2680   -2.6306    0.0000 C   0  0  0  0  0  0  0  0  0  0  0  0
    5.9372   -1.8874    0.0000 O   0  0  0  0  0  0  0  0  0  0  0  0
    5.5770   -3.5816    0.0000 N   0  0  0  0  0  0  0  0  0  0  0  0
    6.5551   -3.7896    0.0000 C   0  0  0  0  0  0  0  0  0  0  0  0
    6.8641   -4.7407    0.0000 C   0  0  0  0  0  0  0  0  0  0  0  0
    7.8422   -4.9486    0.0000 C   0  0  0  0  0  0  0  0  0  0  0  0
    8.1512   -5.8997    0.0000 F   0  0  0  0  0  0  0  0  0  0  0  0
  1  2  1  0  0  0  0
  2  3  1  0  0  0  0
  3  8  2  0  0  0  0
  3  4  1  0  0  0  0
  4  5  2  0  0  0  0
  5  6  1  0  0  0  0
  6  7  2  0  0  0  0
  7 11  1  0  0  0  0
  7  8  1  0  0  0  0
  8  9  1  0  0  0  0
  9 10  2  0  0  0  0
 10 11  1  0  0  0  0
  9 12  1  0  0  0  0
 12 13  1  0  0  0  0
 13 14  1  0  0  0  0
 14 15  1  0  0  0  0
 15 16  2  0  0  0  0
 15 17  1  0  0  0  0
 17 18  1  0  0  0  0
 18 19  1  0  0  0  0
 19 20  1  0  0  0  0
 20 21  1  0  0  0  0
M  END
$$$$
s_22____4839448____58886
  -OEChem-03222016482D

 19 20  0     0  0  0  0  0  0999 V2000
   -1.7320   -0.0025    0.0000 C   0  0  0  0  0  0  0  0  0  0  0  0
   -0.8653   -0.5013    0.0000 O   0  0  0  0  0  0  0  0  0  0  0  0
    0.0000    0.0000    0.0000 C   0  0  0  0  0  0  0  0  0  0  0  0
   -0.0000    1.0058    0.0000 C   0  0  0  0  0  0  0  0  0  0  0  0
    0.8680    1.5138    0.0000 C   0  0  0  0  0  0  0  0  0  0  0  0
    1.7360    1.0058    0.0000 C   0  0  0  0  0  0  0  0  0  0  0  0
    1.7360   -0.0012    0.0000 C   0  0  0  0  0  0  0  0  0  0  0  0
    0.8680   -0.4978    0.0000 C   0  0  0  0  0  0  0  0  0  0  0  0
    2.6938   -0.3125    0.0000 C   0  0  0  0  0  0  0  0  0  0  0  0
    3.2858    0.5023    0.0000 C   0  0  0  0  0  0  0  0  0  0  0  0
    2.6938    1.3169    0.0000 N   0  0  0  0  0  0  0  0  0  0  0  0
    3.0028   -1.2636    0.0000 C   0  0  0  0  0  0  0  0  0  0  0  0
    3.9809   -1.4715    0.0000 C   0  0  0  0  0  0  0  0  0  0  0  0
    4.2899   -2.4226    0.0000 N   0  0  0  0  0  0  0  0  0  0  0  0
    5.2680   -2.6306    0.0000 C   0  0  0  0  0  0  0  0  0  0  0  0
    5.9372   -1.8874    0.0000 O   0  0  0  0  0  0  0  0  0  0  0  0
    5.5770   -3.5816    0.0000 C   0  0  0  0  0  0  0  0  0  0  0  0
    6.5551   -3.7896    0.0000 F   0  0  0  0  0  0  0  0  0  0  0  0
    4.9078   -4.3247    0.0000 F   0  0  0  0  0  0  0  0  0  0  0  0
  1  2  1  0  0  0  0
  2  3  1  0  0  0  0
  3  8  2  0  0  0  0
  3  4  1  0  0  0  0
  4  5  2  0  0  0  0
  5  6  1  0  0  0  0
  6 11  1  0  0  0  0
  6  7  2  0  0  0  0
  7  8  1  0  0  0  0
  7  9  1  0  0  0  0
  9 10  2  0  0  0  0
 10 11  1  0  0  0  0
  9 12  1  0  0  0  0
 12 13  1  0  0  0  0
 13 14  1  0  0  0  0
 14 15  1  0  0  0  0
 15 16  2  0  0  0  0
 15 17  1  0  0  0  0
 17 18  1  0  0  0  0
 17 19  1  0  0  0  0
M  END
$$$$
s_2708____13978848____8988634
  -OEChem-03222016482D

 19 20  0     0  0  0  0  0  0999 V2000
   -0.8705    2.5032    0.0000 C   0  0  0  0  0  0  0  0  0  0  0  0
   -0.8675    1.5032    0.0000 O   0  0  0  0  0  0  0  0  0  0  0  0
    0.0000    1.0058    0.0000 C   0  0  0  0  0  0  0  0  0  0  0  0
    0.0000    0.0000    0.0000 C   0  0  0  0  0  0  0  0  0  0  0  0
    0.8680   -0.4978    0.0000 C   0  0  0  0  0  0  0  0  0  0  0  0
    1.7360   -0.0012    0.0000 C   0  0  0  0  0  0  0  0  0  0  0  0
    1.7360    1.0058    0.0000 C   0  0  0  0  0  0  0  0  0  0  0  0
    0.8680    1.5138    0.0000 C   0  0  0  0  0  0  0  0  0  0  0  0
    2.6938    1.3169    0.0000 N   0  0  0  0  0  0  0  0  0  0  0  0
    3.2858    0.5023    0.0000 C   0  0  0  0  0  0  0  0  0  0  0  0
    2.6938   -0.3125    0.0000 C   0  0  0  0  0  0  0  0  0  0  0  0
    3.0028   -1.2636    0.0000 C   0  0  0  0  0  0  0  0  0  0  0  0
    3.9809   -1.4715    0.0000 C   0  0  0  0  0  0  0  0  0  0  0  0
    4.2899   -2.4226    0.0000 N   0  0  0  0  0  0  0  0  0  0  0  0
    5.2680   -2.6306    0.0000 C   0  0  0  0  0  0  0  0  0  0  0  0
    5.9372   -1.8874    0.0000 O   0  0  0  0  0  0  0  0  0  0  0  0
    5.5770   -3.5816    0.0000 N   0  0  0  0  0  0  0  0  0  0  0  0
    6.5551   -3.7896    0.0000 O   0  0  0  0  0  0  0  0  0  0  0  0
    6.8641   -4.7407    0.0000 C   0  0  0  0  0  0  0  0  0  0  0  0
  1  2  1  0  0  0  0
  2  3  1  0  0  0  0
  3  8  2  0  0  0  0
  3  4  1  0  0  0  0
  4  5  2  0  0  0  0
  5  6  1  0  0  0  0
  6 11  1  0  0  0  0
  6  7  2  0  0  0  0
  7  8  1  0  0  0  0
  7  9  1  0  0  0  0
  9 10  1  0  0  0  0
 10 11  2  0  0  0  0
 11 12  1  0  0  0  0
 12 13  1  0  0  0  0
 13 14  1  0  0  0  0
 14 15  1  0  0  0  0
 15 16  2  0  0  0  0
 15 17  1  0  0  0  0
 17 18  1  0  0  0  0
 18 19  1  0  0  0  0
M  END
$$$$
s_2554____9226558____788524
  -OEChem-03222016482D

 18 19  0     0  0  0  0  0  0999 V2000
    1.7327   -2.9983    0.0000 C   0  0  0  0  0  0  0  0  0  0  0  0
    1.7332   -1.9983    0.0000 C   0  0  0  0  0  0  0  0  0  0  0  0
    0.8675   -1.4978    0.0000 O   0  0  0  0  0  0  0  0  0  0  0  0
    0.8680   -0.4978    0.0000 C   0  0  0  0  0  0  0  0  0  0  0  0
    0.0000    0.0000    0.0000 C   0  0  0  0  0  0  0  0  0  0  0  0
   -0.0000    1.0058    0.0000 C   0  0  0  0  0  0  0  0  0  0  0  0
    0.8680    1.5138    0.0000 C   0  0  0  0  0  0  0  0  0  0  0  0
    1.7360    1.0058    0.0000 C   0  0  0  0  0  0  0  0  0  0  0  0
    1.7360   -0.0012    0.0000 C   0  0  0  0  0  0  0  0  0  0  0  0
    2.6938   -0.3125    0.0000 C   0  0  0  0  0  0  0  0  0  0  0  0
    3.2858    0.5023    0.0000 C   0  0  0  0  0  0  0  0  0  0  0  0
    2.6938    1.3169    0.0000 N   0  0  0  0  0  0  0  0  0  0  0  0
    3.0028   -1.2636    0.0000 C   0  0  0  0  0  0  0  0  0  0  0  0
    3.9809   -1.4715    0.0000 C   0  0  0  0  0  0  0  0  0  0  0  0
    4.2899   -2.4226    0.0000 N   0  0  0  0  0  0  0  0  0  0  0  0
    5.2680   -2.6306    0.0000 C   0  0  0  0  0  0  0  0  0  0  0  0
    5.9372   -1.8874    0.0000 O   0  0  0  0  0  0  0  0  0  0  0  0
    5.5770   -3.5816    0.0000 N   0  0  0  0  0  0  0  0  0  0  0  0
  1  2  1  0  0  0  0
  2  3  1  0  0  0  0
  3  4  1  0  0  0  0
  4  9  2  0  0  0  0
  4  5  1  0  0  0  0
  5  6  2  0  0  0  0
  6  7  1  0  0  0  0
  7  8  2  0  0  0  0
  8 12  1  0  0  0  0
  8  9  1  0  0  0  0
  9 10  1  0  0  0  0
 10 11  2  0  0  0  0
 11 12  1  0  0  0  0
 10 13  1  0  0  0  0
 13 14  1  0  0  0  0
 14 15  1  0  0  0  0
 15 16  1  0  0  0  0
 16 17  2  0  0  0  0
 16 18  1  0  0  0  0
M  END
$$$$
s_240690b____7362722____13151248
  -OEChem-03222016482D

 18 19  0     0  0  0  0  0  0999 V2000
    0.8675   -1.4978    0.0000 C   0  0  0  0  0  0  0  0  0  0  0  0
    0.8680   -0.4978    0.0000 C   0  0  0  0  0  0  0  0  0  0  0  0
    0.0000    0.0000    0.0000 C   0  0  0  0  0  0  0  0  0  0  0  0
   -0.0000    1.0058    0.0000 C   0  0  0  0  0  0  0  0  0  0  0  0
    0.8680    1.5138    0.0000 C   0  0  0  0  0  0  0  0  0  0  0  0
    1.7360    1.0058    0.0000 C   0  0  0  0  0  0  0  0  0  0  0  0
    1.7360   -0.0012    0.0000 C   0  0  0  0  0  0  0  0  0  0  0  0
    2.6938   -0.3125    0.0000 C   0  0  0  0  0  0  0  0  0  0  0  0
    3.2858    0.5023    0.0000 C   0  0  0  0  0  0  0  0  0  0  0  0
    2.6938    1.3169    0.0000 N   0  0  0  0  0  0  0  0  0  0  0  0
    3.0028   -1.2636    0.0000 C   0  0  0  0  0  0  0  0  0  0  0  0
    3.9809   -1.4715    0.0000 C   0  0  0  0  0  0  0  0  0  0  0  0
    4.2899   -2.4226    0.0000 N   0  0  0  0  0  0  0  0  0  0  0  0
    5.2680   -2.6306    0.0000 C   0  0  0  0  0  0  0  0  0  0  0  0
    5.9372   -1.8874    0.0000 O   0  0  0  0  0  0  0  0  0  0  0  0
    5.5770   -3.5816    0.0000 C   0  0  0  0  0  0  0  0  0  0  0  0
    6.5551   -3.7896    0.0000 O   0  0  0  0  0  0  0  0  0  0  0  0
    6.8641   -4.7407    0.0000 N   0  0  0  0  0  0  0  0  0  0  0  0
  1  2  1  0  0  0  0
  2  7  2  0  0  0  0
  2  3  1  0  0  0  0
  3  4  2  0  0  0  0
  4  5  1  0  0  0  0
  5  6  2  0  0  0  0
  6 10  1  0  0  0  0
  6  7  1  0  0  0  0
  7  8  1  0  0  0  0
  8  9  2  0  0  0  0
  9 10  1  0  0  0  0
  8 11  1  0  0  0  0
 11 12  1  0  0  0  0
 12 13  1  0  0  0  0
 13 14  1  0  0  0  0
 14 15  2  0  0  0  0
 14 16  1  0  0  0  0
 16 17  1  0  0  0  0
 17 18  1  0  0  0  0
M  END
$$$$
s_22____16720780____58844
  -OEChem-03222016482D

 17 18  0     0  0  0  0  0  0999 V2000
    0.8680    2.5138    0.0000 C   0  0  0  0  0  0  0  0  0  0  0  0
    0.8680    1.5138    0.0000 C   0  0  0  0  0  0  0  0  0  0  0  0
    0.0000    1.0058    0.0000 C   0  0  0  0  0  0  0  0  0  0  0  0
    0.0000    0.0000    0.0000 C   0  0  0  0  0  0  0  0  0  0  0  0
    0.8680   -0.4978    0.0000 C   0  0  0  0  0  0  0  0  0  0  0  0
    1.7360   -0.0012    0.0000 C   0  0  0  0  0  0  0  0  0  0  0  0
    1.7360    1.0058    0.0000 C   0  0  0  0  0  0  0  0  0  0  0  0
    2.6938    1.3169    0.0000 N   0  0  0  0  0  0  0  0  0  0  0  0
    3.2858    0.5023    0.0000 C   0  0  0  0  0  0  0  0  0  0  0  0
    2.6938   -0.3125    0.0000 C   0  0  0  0  0  0  0  0  0  0  0  0
    3.0028   -1.2636    0.0000 C   0  0  0  0  0  0  0  0  0  0  0  0
    3.9809   -1.4715    0.0000 C   0  0  0  0  0  0  0  0  0  0  0  0
    4.2899   -2.4226    0.0000 N   0  0  0  0  0  0  0  0  0  0  0  0
    5.2680   -2.6306    0.0000 C   0  0  0  0  0  0  0  0  0  0  0  0
    5.9372   -1.8874    0.0000 O   0  0  0  0  0  0  0  0  0  0  0  0
    5.5770   -3.5816    0.0000 C   0  0  0  0  0  0  0  0  0  0  0  0
    4.2858    0.5024    0.0000 C   0  0  0  0  0  0  0  0  0  0  0  0
  1  2  1  0  0  0  0
  2  7  2  0  0  0  0
  2  3  1  0  0  0  0
  3  4  2  0  0  0  0
  4  5  1  0  0  0  0
  5  6  2  0  0  0  0
  6 10  1  0  0  0  0
  6  7  1  0  0  0  0
  7  8  1  0  0  0  0
  8  9  1  0  0  0  0
  9 10  2  0  0  0  0
 10 11  1  0  0  0  0
 11 12  1  0  0  0  0
 12 13  1  0  0  0  0
 13 14  1  0  0  0  0
 14 15  2  0  0  0  0
 14 16  1  0  0  0  0
  9 17  1  0  0  0  0
M  END
$$$$
s_11a____14724372____53470
  -OEChem-03222016482D

 23 24  0     1  0  0  0  0  0999 V2000
    7.2755   -0.4012    0.0000 C   0  0  0  0  0  0  0  0  0  0  0  0
    6.2974   -0.1933    0.0000 C   0  0  0  0  0  0  0  0  0  0  0  0
    5.9884    0.7578    0.0000 C   0  0  0  0  0  0  0  0  0  0  0  0
    5.6282   -0.9364    0.0000 C   0  0  0  0  0  0  0  0  0  0  0  0
    5.9372   -1.8874    0.0000 O   0  0  0  0  0  0  0  0  0  0  0  0
    4.6501   -0.7284    0.0000 N   0  0  0  0  0  0  0  0  0  0  0  0
    3.9809   -1.4715    0.0000 C   0  0  3  0  0  0  0  0  0  0  0  0
    3.0028   -1.2636    0.0000 C   0  0  0  0  0  0  0  0  0  0  0  0
    2.6938   -0.3125    0.0000 C   0  0  0  0  0  0  0  0  0  0  0  0
    3.2858    0.5023    0.0000 C   0  0  0  0  0  0  0  0  0  0  0  0
    2.6938    1.3169    0.0000 N   0  0  0  0  0  0  0  0  0  0  0  0
    1.7360    1.0058    0.0000 C   0  0  0  0  0  0  0  0  0  0  0  0
    1.7360   -0.0012    0.0000 C   0  0  0  0  0  0  0  0  0  0  0  0
    0.8680   -0.4978    0.0000 C   0  0  0  0  0  0  0  0  0  0  0  0
    0.0000    0.0000    0.0000 C   0  0  0  0  0  0  0  0  0  0  0  0
   -0.0000    1.0058    0.0000 C   0  0  0  0  0  0  0  0  0  0  0  0
    0.8680    1.5138    0.0000 C   0  0  0  0  0  0  0  0  0  0  0  0
   -0.8653   -0.5013    0.0000 O   0  0  0  0  0  0  0  0  0  0  0  0
   -0.8639   -1.5013    0.0000 C   0  0  0  0  0  0  0  0  0  0  0  0
    4.2899   -2.4226    0.0000 C   0  0  0  0  0  0  0  0  0  0  0  0
    5.2680   -2.6306    0.0000 O   0  0  0  0  0  0  0  0  0  0  0  0
    3.6207   -3.1657    0.0000 O   0  0  0  0  0  0  0  0  0  0  0  0
    3.9297   -4.1168    0.0000 C   0  0  0  0  0  0  0  0  0  0  0  0
  1  2  1  0  0  0  0
  2  3  1  0  0  0  0
  2  4  1  0  0  0  0
  4  5  2  0  0  0  0
  4  6  1  0  0  0  0
  6  7  1  0  0  0  0
  7  8  1  0  0  0  0
  8  9  1  0  0  0  0
  9 13  1  0  0  0  0
  9 10  2  0  0  0  0
 10 11  1  0  0  0  0
 11 12  1  0  0  0  0
 12 17  2  0  0  0  0
 12 13  1  0  0  0  0
 13 14  2  0  0  0  0
 14 15  1  0  0  0  0
 15 16  2  0  0  0  0
 16 17  1  0  0  0  0
 15 18  1  0  0  0  0
 18 19  1  0  0  0  0
  7 20  1  0  0  0  0
 20 21  2  0  0  0  0
 20 22  1  0  0  0  0
 22 23  1  0  0  0  0
M  END
$$$$
s_275532____13829784____16621902
  -OEChem-03222016482D

 18 19  0     1  0  0  0  0  0999 V2000
    4.2859   -1.2297    0.0000 C   0  0  0  0  0  0  0  0  0  0  0  0
    4.7859   -0.3636    0.0000 N   0  3  3  0  0  0  0  0  0  0  0  0
    4.2858    0.5024    0.0000 C   0  0  0  0  0  0  0  0  0  0  0  0
    3.2858    0.5023    0.0000 C   0  0  0  0  0  0  0  0  0  0  0  0
    2.6938   -0.3125    0.0000 C   0  0  0  0  0  0  0  0  0  0  0  0
    1.7360   -0.0012    0.0000 C   0  0  0  0  0  0  0  0  0  0  0  0
    0.8680   -0.4978    0.0000 C   0  0  0  0  0  0  0  0  0  0  0  0
    0.0000    0.0000    0.0000 C   0  0  0  0  0  0  0  0  0  0  0  0
    0.0000    1.0058    0.0000 C   0  0  0  0  0  0  0  0  0  0  0  0
    0.8680    1.5138    0.0000 C   0  0  0  0  0  0  0  0  0  0  0  0
    1.7360    1.0058    0.0000 C   0  0  0  0  0  0  0  0  0  0  0  0
    2.6938    1.3169    0.0000 N   0  0  0  0  0  0  0  0  0  0  0  0
   -0.8653   -0.5013    0.0000 O   0  0  0  0  0  0  0  0  0  0  0  0
   -0.8639   -1.5013    0.0000 C   0  0  0  0  0  0  0  0  0  0  0  0
    5.7859   -0.3636    0.0000 C   0  0  0  0  0  0  0  0  0  0  0  0
    6.2859   -1.2296    0.0000 C   0  0  0  0  0  0  0  0  0  0  0  0
    5.7860   -2.0956    0.0000 O   0  0  0  0  0  0  0  0  0  0  0  0
    7.2859   -1.2295    0.0000 O   0  5  0  0  0  0  0  0  0  0  0  0
  1  2  1  0  0  0  0
  2  3  1  0  0  0  0
  3  4  1  0  0  0  0
  4 12  1  0  0  0  0
  4  5  2  0  0  0  0
  5  6  1  0  0  0  0
  6 11  2  0  0  0  0
  6  7  1  0  0  0  0
  7  8  2  0  0  0  0
  8  9  1  0  0  0  0
  9 10  2  0  0  0  0
 10 11  1  0  0  0  0
 11 12  1  0  0  0  0
  8 13  1  0  0  0  0
 13 14  1  0  0  0  0
  2 15  1  0  0  0  0
 15 16  1  0  0  0  0
 16 17  2  0  0  0  0
 16 18  1  0  0  0  0
M  CHG  2   2   1  18  -1
M  END
$$$$
s_512____11946682____13025528
  -OEChem-03222016482D

 21 22  0     0  0  0  0  0  0999 V2000
    0.0012   -1.9973    0.0000 C   0  0  0  0  0  0  0  0  0  0  0  0
    0.8675   -1.4978    0.0000 O   0  0  0  0  0  0  0  0  0  0  0  0
    0.8680   -0.4978    0.0000 C   0  0  0  0  0  0  0  0  0  0  0  0
    0.0000    0.0000    0.0000 C   0  0  0  0  0  0  0  0  0  0  0  0
   -0.0000    1.0058    0.0000 C   0  0  0  0  0  0  0  0  0  0  0  0
    0.8680    1.5138    0.0000 C   0  0  0  0  0  0  0  0  0  0  0  0
    1.7360    1.0058    0.0000 C   0  0  0  0  0  0  0  0  0  0  0  0
    1.7360   -0.0012    0.0000 C   0  0  0  0  0  0  0  0  0  0  0  0
    2.6938   -0.3125    0.0000 C   0  0  0  0  0  0  0  0  0  0  0  0
    3.2858    0.5023    0.0000 C   0  0  0  0  0  0  0  0  0  0  0  0
    2.6938    1.3169    0.0000 N   0  0  0  0  0  0  0  0  0  0  0  0
    3.0028   -1.2636    0.0000 C   0  0  0  0  0  0  0  0  0  0  0  0
    3.9809   -1.4715    0.0000 C   0  0  0  0  0  0  0  0  0  0  0  0
    4.2899   -2.4226    0.0000 N   0  0  0  0  0  0  0  0  0  0  0  0
    5.2680   -2.6306    0.0000 C   0  0  0  0  0  0  0  0  0  0  0  0
    5.9372   -1.8874    0.0000 O   0  0  0  0  0  0  0  0  0  0  0  0
    5.5770   -3.5816    0.0000 N   0  0  0  0  0  0  0  0  0  0  0  0
    6.5551   -3.7896    0.0000 C   0  0  0  0  0  0  0  0  0  0  0  0
    6.8641   -4.7407    0.0000 C   0  0  0  0  0  0  0  0  0  0  0  0
    7.8422   -4.9486    0.0000 S   0  0  0  0  0  0  0  0  0  0  0  0
    8.1512   -5.8997    0.0000 C   0  0  0  0  0  0  0  0  0  0  0  0
  1  2  1  0  0  0  0
  2  3  1  0  0  0  0
  3  8  2  0  0  0  0
  3  4  1  0  0  0  0
  4  5  2  0  0  0  0
  5  6  1  0  0  0  0
  6  7  2  0  0  0  0
  7 11  1  0  0  0  0
  7  8  1  0  0  0  0
  8  9  1  0  0  0  0
  9 10  2  0  0  0  0
 10 11  1  0  0  0  0
  9 12  1  0  0  0  0
 12 13  1  0  0  0  0
 13 14  1  0  0  0  0
 14 15  1  0  0  0  0
 15 16  2  0  0  0  0
 15 17  1  0  0  0  0
 17 18  1  0  0  0  0
 18 19  1  0  0  0  0
 19 20  1  0  0  0  0
 20 21  1  0  0  0  0
M  END
$$$$
s_22____13025516____294126
  -OEChem-03222016482D

 21 22  0     0  0  0  0  0  0999 V2000
    7.5333   -3.9976    0.0000 C   0  0  0  0  0  0  0  0  0  0  0  0
    6.5551   -3.7896    0.0000 C   0  0  0  0  0  0  0  0  0  0  0  0
    6.7631   -2.8115    0.0000 C   0  0  0  0  0  0  0  0  0  0  0  0
    6.3472   -4.7677    0.0000 C   0  0  0  0  0  0  0  0  0  0  0  0
    5.5770   -3.5816    0.0000 C   0  0  0  0  0  0  0  0  0  0  0  0
    5.2680   -2.6306    0.0000 C   0  0  0  0  0  0  0  0  0  0  0  0
    5.9372   -1.8874    0.0000 O   0  0  0  0  0  0  0  0  0  0  0  0
    4.2899   -2.4226    0.0000 N   0  0  0  0  0  0  0  0  0  0  0  0
    3.9809   -1.4715    0.0000 C   0  0  0  0  0  0  0  0  0  0  0  0
    3.0028   -1.2636    0.0000 C   0  0  0  0  0  0  0  0  0  0  0  0
    2.6938   -0.3125    0.0000 C   0  0  0  0  0  0  0  0  0  0  0  0
    3.2858    0.5023    0.0000 C   0  0  0  0  0  0  0  0  0  0  0  0
    2.6938    1.3169    0.0000 N   0  0  0  0  0  0  0  0  0  0  0  0
    1.7360    1.0058    0.0000 C   0  0  0  0  0  0  0  0  0  0  0  0
    1.7360   -0.0012    0.0000 C   0  0  0  0  0  0  0  0  0  0  0  0
    0.8680   -0.4978    0.0000 C   0  0  0  0  0  0  0  0  0  0  0  0
    0.0000    0.0000    0.0000 C   0  0  0  0  0  0  0  0  0  0  0  0
   -0.0000    1.0058    0.0000 C   0  0  0  0  0  0  0  0  0  0  0  0
    0.8680    1.5138    0.0000 C   0  0  0  0  0  0  0  0  0  0  0  0
    0.8675   -1.4978    0.0000 O   0  0  0  0  0  0  0  0  0  0  0  0
    1.7332   -1.9983    0.0000 C   0  0  0  0  0  0  0  0  0  0  0  0
  1  2  1  0  0  0  0
  2  3  1  0  0  0  0
  2  4  1  0  0  0  0
  2  5  1  0  0  0  0
  5  6  1  0  0  0  0
  6  7  2  0  0  0  0
  6  8  1  0  0  0  0
  8  9  1  0  0  0  0
  9 10  1  0  0  0  0
 10 11  1  0  0  0  0
 11 15  1  0  0  0  0
 11 12  2  0  0  0  0
 12 13  1  0  0  0  0
 13 14  1  0  0  0  0
 14 19  2  0  0  0  0
 14 15  1  0  0  0  0
 15 16  2  0  0  0  0
 16 17  1  0  0  0  0
 17 18  2  0  0  0  0
 18 19  1  0  0  0  0
 16 20  1  0  0  0  0
 20 21  1  0  0  0  0
M  END
$$$$
s_270062____15507212____8147258
  -OEChem-03222016482D

 19 20  0     0  0  0  0  0  0999 V2000
   -0.8675    1.5032    0.0000 C   0  0  0  0  0  0  0  0  0  0  0  0
    0.0000    1.0058    0.0000 C   0  0  0  0  0  0  0  0  0  0  0  0
    0.0000    0.0000    0.0000 C   0  0  0  0  0  0  0  0  0  0  0  0
    0.8680   -0.4978    0.0000 C   0  0  0  0  0  0  0  0  0  0  0  0
    1.7360   -0.0012    0.0000 C   0  0  0  0  0  0  0  0  0  0  0  0
    1.7360    1.0058    0.0000 C   0  0  0  0  0  0  0  0  0  0  0  0
    0.8680    1.5138    0.0000 C   0  0  0  0  0  0  0  0  0  0  0  0
    2.6938    1.3169    0.0000 N   0  0  0  0  0  0  0  0  0  0  0  0
    3.2858    0.5023    0.0000 C   0  0  0  0  0  0  0  0  0  0  0  0
    2.6938   -0.3125    0.0000 C   0  0  0  0  0  0  0  0  0  0  0  0
    3.0028   -1.2636    0.0000 C   0  0  0  0  0  0  0  0  0  0  0  0
    3.9809   -1.4715    0.0000 C   0  0  0  0  0  0  0  0  0  0  0  0
    4.1889   -0.4934    0.0000 C   0  0  0  0  0  0  0  0  0  0  0  0
    3.7729   -2.4497    0.0000 C   0  0  0  0  0  0  0  0  0  0  0  0
    4.9590   -1.6795    0.0000 N   0  0  0  0  0  0  0  0  0  0  0  0
    5.6282   -0.9364    0.0000 C   0  0  0  0  0  0  0  0  0  0  0  0
    5.3192    0.0147    0.0000 O   0  0  0  0  0  0  0  0  0  0  0  0
    6.6064   -1.1443    0.0000 C   0  0  0  0  0  0  0  0  0  0  0  0
    7.2755   -0.4012    0.0000 Cl  0  0  0  0  0  0  0  0  0  0  0  0
  1  2  1  0  0  0  0
  2  7  2  0  0  0  0
  2  3  1  0  0  0  0
  3  4  2  0  0  0  0
  4  5  1  0  0  0  0
  5 10  1  0  0  0  0
  5  6  2  0  0  0  0
  6  7  1  0  0  0  0
  6  8  1  0  0  0  0
  8  9  1  0  0  0  0
  9 10  2  0  0  0  0
 10 11  1  0  0  0  0
 11 12  1  0  0  0  0
 12 13  1  0  0  0  0
 12 14  1  0  0  0  0
 12 15  1  0  0  0  0
 15 16  1  0  0  0  0
 16 17  2  0  0  0  0
 16 18  1  0  0  0  0
 18 19  1  0  0  0  0
M  END
$$$$
s_22____8929618____9296322
  -OEChem-03222016482D

 19 20  0     1  0  0  0  0  0999 V2000
    7.2860   -2.9617    0.0000 C   0  0  0  0  0  0  0  0  0  0  0  0
    6.7860   -2.0957    0.0000 C   0  0  0  0  0  0  0  0  0  0  0  0
    6.2859   -1.2297    0.0000 C   0  0  0  0  0  0  0  0  0  0  0  0
    5.7859   -0.3637    0.0000 C   0  0  0  0  0  0  0  0  0  0  0  0
    6.2858    0.5024    0.0000 O   0  0  0  0  0  0  0  0  0  0  0  0
    4.7859   -0.3637    0.0000 N   0  0  0  0  0  0  0  0  0  0  0  0
    4.2858    0.5023    0.0000 C   0  0  3  0  0  0  0  0  0  0  0  0
    4.7857    1.3683    0.0000 C   0  0  0  0  0  0  0  0  0  0  0  0
    3.2858    0.5022    0.0000 C   0  0  0  0  0  0  0  0  0  0  0  0
    2.6938   -0.3126    0.0000 N   0  0  0  0  0  0  0  0  0  0  0  0
    1.7360   -0.0013    0.0000 C   0  0  0  0  0  0  0  0  0  0  0  0
    0.8680   -0.4979    0.0000 C   0  0  0  0  0  0  0  0  0  0  0  0
    0.0000    0.0000    0.0000 C   0  0  0  0  0  0  0  0  0  0  0  0
    0.0000    1.0058    0.0000 C   0  0  0  0  0  0  0  0  0  0  0  0
    0.8680    1.5137    0.0000 C   0  0  0  0  0  0  0  0  0  0  0  0
    1.7360    1.0058    0.0000 C   0  0  0  0  0  0  0  0  0  0  0  0
    2.6938    1.3168    0.0000 N   0  0  0  0  0  0  0  0  0  0  0  0
   -0.8675    1.5033    0.0000 O   0  0  0  0  0  0  0  0  0  0  0  0
   -1.7320    1.0008    0.0000 C   0  0  0  0  0  0  0  0  0  0  0  0
  1  2  1  0  0  0  0
  2  3  3  0  0  0  0
  3  4  1  0  0  0  0
  4  5  2  0  0  0  0
  4  6  1  0  0  0  0
  6  7  1  0  0  0  0
  7  8  1  0  0  0  0
  7  9  1  0  0  0  0
  9 17  2  0  0  0  0
  9 10  1  0  0  0  0
 10 11  1  0  0  0  0
 11 16  2  0  0  0  0
 11 12  1  0  0  0  0
 12 13  2  0  0  0  0
 13 14  1  0  0  0  0
 14 15  2  0  0  0  0
 15 16  1  0  0  0  0
 16 17  1  0  0  0  0
 14 18  1  0  0  0  0
 18 19  1  0  0  0  0
M  END
$$$$
s_240690b____13771088____3025698
  -OEChem-03222016482D

 20 21  0     0  0  0  0  0  0999 V2000
   -3.4641   -0.0050    0.0000 C   0  0  0  0  0  0  0  0  0  0  0  0
   -2.5974   -0.5038    0.0000 C   0  0  0  0  0  0  0  0  0  0  0  0
   -1.7320   -0.0025    0.0000 C   0  0  0  0  0  0  0  0  0  0  0  0
   -0.8653   -0.5013    0.0000 O   0  0  0  0  0  0  0  0  0  0  0  0
    0.0000    0.0000    0.0000 C   0  0  0  0  0  0  0  0  0  0  0  0
   -0.0000    1.0058    0.0000 C   0  0  0  0  0  0  0  0  0  0  0  0
    0.8680    1.5138    0.0000 C   0  0  0  0  0  0  0  0  0  0  0  0
    1.7360    1.0058    0.0000 C   0  0  0  0  0  0  0  0  0  0  0  0
    1.7360   -0.0012    0.0000 C   0  0  0  0  0  0  0  0  0  0  0  0
    0.8680   -0.4978    0.0000 C   0  0  0  0  0  0  0  0  0  0  0  0
    2.6938   -0.3125    0.0000 C   0  0  0  0  0  0  0  0  0  0  0  0
    3.2858    0.5023    0.0000 C   0  0  0  0  0  0  0  0  0  0  0  0
    2.6938    1.3169    0.0000 N   0  0  0  0  0  0  0  0  0  0  0  0
    3.0028   -1.2636    0.0000 C   0  0  0  0  0  0  0  0  0  0  0  0
    3.9809   -1.4715    0.0000 C   0  0  0  0  0  0  0  0  0  0  0  0
    4.2899   -2.4226    0.0000 N   0  0  0  0  0  0  0  0  0  0  0  0
    5.2680   -2.6306    0.0000 C   0  0  0  0  0  0  0  0  0  0  0  0
    5.9372   -1.8874    0.0000 O   0  0  0  0  0  0  0  0  0  0  0  0
    5.5770   -3.5816    0.0000 C   0  0  0  0  0  0  0  0  0  0  0  0
    6.5551   -3.7896    0.0000 N   0  3  0  0  0  0  0  0  0  0  0  0
  1  2  1  0  0  0  0
  2  3  1  0  0  0  0
  3  4  1  0  0  0  0
  4  5  1  0  0  0  0
  5 10  2  0  0  0  0
  5  6  1  0  0  0  0
  6  7  2  0  0  0  0
  7  8  1  0  0  0  0
  8 13  1  0  0  0  0
  8  9  2  0  0  0  0
  9 10  1  0  0  0  0
  9 11  1  0  0  0  0
 11 12  2  0  0  0  0
 12 13  1  0  0  0  0
 11 14  1  0  0  0  0
 14 15  1  0  0  0  0
 15 16  1  0  0  0  0
 16 17  1  0  0  0  0
 17 18  2  0  0  0  0
 17 19  1  0  0  0  0
 19 20  1  0  0  0  0
M  CHG  1  20   1
M  END
$$$$
s_2554____9631380____951600
  -OEChem-03222016482D

 18 19  0     0  0  0  0  0  0999 V2000
    6.8641   -4.7407    0.0000 C   0  0  0  0  0  0  0  0  0  0  0  0
    6.5551   -3.7896    0.0000 C   0  0  0  0  0  0  0  0  0  0  0  0
    5.5770   -3.5816    0.0000 N   0  0  0  0  0  0  0  0  0  0  0  0
    5.2680   -2.6306    0.0000 C   0  0  0  0  0  0  0  0  0  0  0  0
    5.9372   -1.8874    0.0000 O   0  0  0  0  0  0  0  0  0  0  0  0
    4.2899   -2.4226    0.0000 N   0  0  0  0  0  0  0  0  0  0  0  0
    3.9809   -1.4715    0.0000 C   0  0  0  0  0  0  0  0  0  0  0  0
    3.0028   -1.2636    0.0000 C   0  0  0  0  0  0  0  0  0  0  0  0
    2.6938   -0.3125    0.0000 C   0  0  0  0  0  0  0  0  0  0  0  0
    3.2858    0.5023    0.0000 C   0  0  0  0  0  0  0  0  0  0  0  0
    2.6938    1.3169    0.0000 N   0  0  0  0  0  0  0  0  0  0  0  0
    1.7360    1.0058    0.0000 C   0  0  0  0  0  0  0  0  0  0  0  0
    1.7360   -0.0012    0.0000 C   0  0  0  0  0  0  0  0  0  0  0  0
    0.8680   -0.4978    0.0000 C   0  0  0  0  0  0  0  0  0  0  0  0
    0.0000    0.0000    0.0000 C   0  0  0  0  0  0  0  0  0  0  0  0
   -0.0000    1.0058    0.0000 C   0  0  0  0  0  0  0  0  0  0  0  0
    0.8680    1.5138    0.0000 C   0  0  0  0  0  0  0  0  0  0  0  0
   -0.8653   -0.5013    0.0000 F   0  0  0  0  0  0  0  0  0  0  0  0
  1  2  1  0  0  0  0
  2  3  1  0  0  0  0
  3  4  1  0  0  0  0
  4  5  2  0  0  0  0
  4  6  1  0  0  0  0
  6  7  1  0  0  0  0
  7  8  1  0  0  0  0
  8  9  1  0  0  0  0
  9 13  1  0  0  0  0
  9 10  2  0  0  0  0
 10 11  1  0  0  0  0
 11 12  1  0  0  0  0
 12 17  2  0  0  0  0
 12 13  1  0  0  0  0
 13 14  2  0  0  0  0
 14 15  1  0  0  0  0
 15 16  2  0  0  0  0
 16 17  1  0  0  0  0
 15 18  1  0  0  0  0
M  END
$$$$
s_22____13771018____9296322
  -OEChem-03222016482D

 21 22  0     0  0  0  0  0  0999 V2000
   -3.4641   -0.0050    0.0000 C   0  0  0  0  0  0  0  0  0  0  0  0
   -2.5974   -0.5038    0.0000 C   0  0  0  0  0  0  0  0  0  0  0  0
   -1.7320   -0.0025    0.0000 C   0  0  0  0  0  0  0  0  0  0  0  0
   -0.8653   -0.5013    0.0000 O   0  0  0  0  0  0  0  0  0  0  0  0
    0.0000    0.0000    0.0000 C   0  0  0  0  0  0  0  0  0  0  0  0
   -0.0000    1.0058    0.0000 C   0  0  0  0  0  0  0  0  0  0  0  0
    0.8680    1.5138    0.0000 C   0  0  0  0  0  0  0  0  0  0  0  0
    1.7360    1.0058    0.0000 C   0  0  0  0  0  0  0  0  0  0  0  0
    1.7360   -0.0012    0.0000 C   0  0  0  0  0  0  0  0  0  0  0  0
    0.8680   -0.4978    0.0000 C   0  0  0  0  0  0  0  0  0  0  0  0
    2.6938   -0.3125    0.0000 C   0  0  0  0  0  0  0  0  0  0  0  0
    3.2858    0.5023    0.0000 C   0  0  0  0  0  0  0  0  0  0  0  0
    2.6938    1.3169    0.0000 N   0  0  0  0  0  0  0  0  0  0  0  0
    3.0028   -1.2636    0.0000 C   0  0  0  0  0  0  0  0  0  0  0  0
    3.9809   -1.4715    0.0000 C   0  0  0  0  0  0  0  0  0  0  0  0
    4.2899   -2.4226    0.0000 N   0  0  0  0  0  0  0  0  0  0  0  0
    5.2680   -2.6306    0.0000 C   0  0  0  0  0  0  0  0  0  0  0  0
    5.9372   -1.8874    0.0000 O   0  0  0  0  0  0  0  0  0  0  0  0
    5.5770   -3.5816    0.0000 C   0  0  0  0  0  0  0  0  0  0  0  0
    5.8860   -4.5327    0.0000 C   0  0  0  0  0  0  0  0  0  0  0  0
    6.1949   -5.4838    0.0000 C   0  0  0  0  0  0  0  0  0  0  0  0
  1  2  1  0  0  0  0
  2  3  1  0  0  0  0
  3  4  1  0  0  0  0
  4  5  1  0  0  0  0
  5 10  2  0  0  0  0
  5  6  1  0  0  0  0
  6  7  2  0  0  0  0
  7  8  1  0  0  0  0
  8 13  1  0  0  0  0
  8  9  2  0  0  0  0
  9 10  1  0  0  0  0
  9 11  1  0  0  0  0
 11 12  2  0  0  0  0
 12 13  1  0  0  0  0
 11 14  1  0  0  0  0
 14 15  1  0  0  0  0
 15 16  1  0  0  0  0
 16 17  1  0  0  0  0
 17 18  2  0  0  0  0
 17 19  1  0  0  0  0
 19 20  3  0  0  0  0
 20 21  1  0  0  0  0
M  END
$$$$
s_270004____8349722____16621896
  -OEChem-03222016482D

 18 19  0     0  0  0  0  0  0999 V2000
    8.7856    3.1007    0.0000 C   0  0  0  0  0  0  0  0  0  0  0  0
    7.7856    3.1006    0.0000 C   0  0  0  0  0  0  0  0  0  0  0  0
    7.2857    2.2346    0.0000 O   0  0  0  0  0  0  0  0  0  0  0  0
    6.2857    2.2345    0.0000 C   0  0  0  0  0  0  0  0  0  0  0  0
    5.7857    1.3685    0.0000 C   0  0  0  0  0  0  0  0  0  0  0  0
    4.7857    1.3684    0.0000 N   0  3  0  0  0  0  0  0  0  0  0  0
    4.2858    0.5024    0.0000 C   0  0  0  0  0  0  0  0  0  0  0  0
    3.2858    0.5023    0.0000 C   0  0  0  0  0  0  0  0  0  0  0  0
    2.6938   -0.3125    0.0000 C   0  0  0  0  0  0  0  0  0  0  0  0
    1.7360   -0.0012    0.0000 C   0  0  0  0  0  0  0  0  0  0  0  0
    0.8680   -0.4978    0.0000 C   0  0  0  0  0  0  0  0  0  0  0  0
    0.0000    0.0000    0.0000 C   0  0  0  0  0  0  0  0  0  0  0  0
    0.0000    1.0058    0.0000 C   0  0  0  0  0  0  0  0  0  0  0  0
    0.8680    1.5138    0.0000 C   0  0  0  0  0  0  0  0  0  0  0  0
    1.7360    1.0058    0.0000 C   0  0  0  0  0  0  0  0  0  0  0  0
    2.6938    1.3169    0.0000 N   0  0  0  0  0  0  0  0  0  0  0  0
   -0.8653   -0.5013    0.0000 O   0  0  0  0  0  0  0  0  0  0  0  0
   -0.8639   -1.5013    0.0000 C   0  0  0  0  0  0  0  0  0  0  0  0
  1  2  1  0  0  0  0
  2  3  1  0  0  0  0
  3  4  1  0  0  0  0
  4  5  1  0  0  0  0
  5  6  1  0  0  0  0
  6  7  1  0  0  0  0
  7  8  1  0  0  0  0
  8 16  1  0  0  0  0
  8  9  2  0  0  0  0
  9 10  1  0  0  0  0
 10 15  2  0  0  0  0
 10 11  1  0  0  0  0
 11 12  2  0  0  0  0
 12 13  1  0  0  0  0
 13 14  2  0  0  0  0
 14 15  1  0  0  0  0
 15 16  1  0  0  0  0
 12 17  1  0  0  0  0
 17 18  1  0  0  0  0
M  CHG  1   6   1
M  END
$$$$
s_22____13978824____58886
  -OEChem-03222016482D

 19 20  0     0  0  0  0  0  0999 V2000
   -0.8705    2.5032    0.0000 C   0  0  0  0  0  0  0  0  0  0  0  0
   -0.8675    1.5032    0.0000 O   0  0  0  0  0  0  0  0  0  0  0  0
    0.0000    1.0058    0.0000 C   0  0  0  0  0  0  0  0  0  0  0  0
    0.0000    0.0000    0.0000 C   0  0  0  0  0  0  0  0  0  0  0  0
    0.8680   -0.4978    0.0000 C   0  0  0  0  0  0  0  0  0  0  0  0
    1.7360   -0.0012    0.0000 C   0  0  0  0  0  0  0  0  0  0  0  0
    1.7360    1.0058    0.0000 C   0  0  0  0  0  0  0  0  0  0  0  0
    0.8680    1.5138    0.0000 C   0  0  0  0  0  0  0  0  0  0  0  0
    2.6938    1.3169    0.0000 N   0  0  0  0  0  0  0  0  0  0  0  0
    3.2858    0.5023    0.0000 C   0  0  0  0  0  0  0  0  0  0  0  0
    2.6938   -0.3125    0.0000 C   0  0  0  0  0  0  0  0  0  0  0  0
    3.0028   -1.2636    0.0000 C   0  0  0  0  0  0  0  0  0  0  0  0
    3.9809   -1.4715    0.0000 C   0  0  0  0  0  0  0  0  0  0  0  0
    4.2899   -2.4226    0.0000 N   0  0  0  0  0  0  0  0  0  0  0  0
    5.2680   -2.6306    0.0000 C   0  0  0  0  0  0  0  0  0  0  0  0
    5.9372   -1.8874    0.0000 O   0  0  0  0  0  0  0  0  0  0  0  0
    5.5770   -3.5816    0.0000 C   0  0  0  0  0  0  0  0  0  0  0  0
    6.5551   -3.7896    0.0000 F   0  0  0  0  0  0  0  0  0  0  0  0
    4.9078   -4.3247    0.0000 F   0  0  0  0  0  0  0  0  0  0  0  0
  1  2  1  0  0  0  0
  2  3  1  0  0  0  0
  3  8  2  0  0  0  0
  3  4  1  0  0  0  0
  4  5  2  0  0  0  0
  5  6  1  0  0  0  0
  6 11  1  0  0  0  0
  6  7  2  0  0  0  0
  7  8  1  0  0  0  0
  7  9  1  0  0  0  0
  9 10  1  0  0  0  0
 10 11  2  0  0  0  0
 11 12  1  0  0  0  0
 12 13  1  0  0  0  0
 13 14  1  0  0  0  0
 14 15  1  0  0  0  0
 15 16  2  0  0  0  0
 15 17  1  0  0  0  0
 17 18  1  0  0  0  0
 17 19  1  0  0  0  0
M  END
$$$$
s_22____17596642____58844
  -OEChem-03222016482D

 17 18  0     0  0  0  0  0  0999 V2000
    4.2858    0.5024    0.0000 C   0  0  0  0  0  0  0  0  0  0  0  0
    3.2858    0.5023    0.0000 C   0  0  0  0  0  0  0  0  0  0  0  0
    2.6938   -0.3125    0.0000 C   0  0  0  0  0  0  0  0  0  0  0  0
    1.7360   -0.0012    0.0000 C   0  0  0  0  0  0  0  0  0  0  0  0
    0.8680   -0.4978    0.0000 C   0  0  0  0  0  0  0  0  0  0  0  0
    0.0000    0.0000    0.0000 C   0  0  0  0  0  0  0  0  0  0  0  0
    0.0000    1.0058    0.0000 C   0  0  0  0  0  0  0  0  0  0  0  0
    0.8680    1.5138    0.0000 C   0  0  0  0  0  0  0  0  0  0  0  0
    1.7360    1.0058    0.0000 C   0  0  0  0  0  0  0  0  0  0  0  0
    2.6938    1.3169    0.0000 N   0  0  0  0  0  0  0  0  0  0  0  0
    0.8680    2.5138    0.0000 F   0  0  0  0  0  0  0  0  0  0  0  0
    3.0028   -1.2636    0.0000 C   0  0  0  0  0  0  0  0  0  0  0  0
    3.9809   -1.4715    0.0000 C   0  0  0  0  0  0  0  0  0  0  0  0
    4.2899   -2.4226    0.0000 N   0  0  0  0  0  0  0  0  0  0  0  0
    5.2680   -2.6306    0.0000 C   0  0  0  0  0  0  0  0  0  0  0  0
    5.9372   -1.8874    0.0000 O   0  0  0  0  0  0  0  0  0  0  0  0
    5.5770   -3.5816    0.0000 C   0  0  0  0  0  0  0  0  0  0  0  0
  1  2  1  0  0  0  0
  2 10  1  0  0  0  0
  2  3  2  0  0  0  0
  3  4  1  0  0  0  0
  4  9  2  0  0  0  0
  4  5  1  0  0  0  0
  5  6  2  0  0  0  0
  6  7  1  0  0  0  0
  7  8  2  0  0  0  0
  8  9  1  0  0  0  0
  9 10  1  0  0  0  0
  8 11  1  0  0  0  0
  3 12  1  0  0  0  0
 12 13  1  0  0  0  0
 13 14  1  0  0  0  0
 14 15  1  0  0  0  0
 15 16  2  0  0  0  0
 15 17  1  0  0  0  0
M  END
$$$$
s_240690b____7354100____3025698
  -OEChem-03222016482D

 17 18  0     0  0  0  0  0  0999 V2000
    0.0000    0.0000    0.0000 C   0  0  0  0  0  0  0  0  0  0  0  0
    0.8680   -0.4978    0.0000 C   0  0  0  0  0  0  0  0  0  0  0  0
    1.7360   -0.0012    0.0000 C   0  0  0  0  0  0  0  0  0  0  0  0
    1.7360    1.0058    0.0000 C   0  0  0  0  0  0  0  0  0  0  0  0
    0.8680    1.5138    0.0000 C   0  0  0  0  0  0  0  0  0  0  0  0
    0.0000    1.0058    0.0000 C   0  0  0  0  0  0  0  0  0  0  0  0
   -0.8675    1.5032    0.0000 F   0  0  0  0  0  0  0  0  0  0  0  0
    2.6938    1.3169    0.0000 N   0  0  0  0  0  0  0  0  0  0  0  0
    3.2858    0.5023    0.0000 C   0  0  0  0  0  0  0  0  0  0  0  0
    2.6938   -0.3125    0.0000 C   0  0  0  0  0  0  0  0  0  0  0  0
    3.0028   -1.2636    0.0000 C   0  0  0  0  0  0  0  0  0  0  0  0
    3.9809   -1.4715    0.0000 C   0  0  0  0  0  0  0  0  0  0  0  0
    4.2899   -2.4226    0.0000 N   0  0  0  0  0  0  0  0  0  0  0  0
    5.2680   -2.6306    0.0000 C   0  0  0  0  0  0  0  0  0  0  0  0
    5.9372   -1.8874    0.0000 O   0  0  0  0  0  0  0  0  0  0  0  0
    5.5770   -3.5816    0.0000 C   0  0  0  0  0  0  0  0  0  0  0  0
    6.5551   -3.7896    0.0000 N   0  3  0  0  0  0  0  0  0  0  0  0
  1  6  2  0  0  0  0
  1  2  1  0  0  0  0
  2  3  2  0  0  0  0
  3 10  1  0  0  0  0
  3  4  1  0  0  0  0
  4  5  2  0  0  0  0
  5  6  1  0  0  0  0
  6  7  1  0  0  0  0
  4  8  1  0  0  0  0
  8  9  1  0  0  0  0
  9 10  2  0  0  0  0
 10 11  1  0  0  0  0
 11 12  1  0  0  0  0
 12 13  1  0  0  0  0
 13 14  1  0  0  0  0
 14 15  2  0  0  0  0
 14 16  1  0  0  0  0
 16 17  1  0  0  0  0
M  CHG  1  17   1
M  END
$$$$
s_22____2228922____8794444
  -OEChem-03222016482D

 18 19  0     0  0  0  0  0  0999 V2000
    0.0000    0.0000    0.0000 C   0  0  0  0  0  0  0  0  0  0  0  0
    0.8680   -0.4978    0.0000 C   0  0  0  0  0  0  0  0  0  0  0  0
    1.7360   -0.0012    0.0000 C   0  0  0  0  0  0  0  0  0  0  0  0
    1.7360    1.0058    0.0000 C   0  0  0  0  0  0  0  0  0  0  0  0
    0.8680    1.5138    0.0000 C   0  0  0  0  0  0  0  0  0  0  0  0
    0.0000    1.0058    0.0000 C   0  0  0  0  0  0  0  0  0  0  0  0
   -0.8675    1.5032    0.0000 Cl  0  0  0  0  0  0  0  0  0  0  0  0
    2.6938    1.3169    0.0000 N   0  0  0  0  0  0  0  0  0  0  0  0
    3.2858    0.5023    0.0000 C   0  0  0  0  0  0  0  0  0  0  0  0
    2.6938   -0.3125    0.0000 C   0  0  0  0  0  0  0  0  0  0  0  0
    3.0028   -1.2636    0.0000 C   0  0  0  0  0  0  0  0  0  0  0  0
    3.9809   -1.4715    0.0000 C   0  0  0  0  0  0  0  0  0  0  0  0
    4.2899   -2.4226    0.0000 N   0  0  0  0  0  0  0  0  0  0  0  0
    5.2680   -2.6306    0.0000 C   0  0  0  0  0  0  0  0  0  0  0  0
    5.9372   -1.8874    0.0000 O   0  0  0  0  0  0  0  0  0  0  0  0
    5.5770   -3.5816    0.0000 C   0  0  0  0  0  0  0  0  0  0  0  0
    6.5551   -3.7896    0.0000 C   0  0  0  0  0  0  0  0  0  0  0  0
    7.5333   -3.9976    0.0000 N   0  0  0  0  0  0  0  0  0  0  0  0
  1  6  2  0  0  0  0
  1  2  1  0  0  0  0
  2  3  2  0  0  0  0
  3 10  1  0  0  0  0
  3  4  1  0  0  0  0
  4  5  2  0  0  0  0
  5  6  1  0  0  0  0
  6  7  1  0  0  0  0
  4  8  1  0  0  0  0
  8  9  1  0  0  0  0
  9 10  2  0  0  0  0
 10 11  1  0  0  0  0
 11 12  1  0  0  0  0
 12 13  1  0  0  0  0
 13 14  1  0  0  0  0
 14 15  2  0  0  0  0
 14 16  1  0  0  0  0
 16 17  1  0  0  0  0
 17 18  3  0  0  0  0
M  END
$$$$
s_22____13025516____15789270
  -OEChem-03222016482D

 20 21  0     0  0  0  0  0  0999 V2000
    0.0012   -1.9973    0.0000 C   0  0  0  0  0  0  0  0  0  0  0  0
    0.8675   -1.4978    0.0000 O   0  0  0  0  0  0  0  0  0  0  0  0
    0.8680   -0.4978    0.0000 C   0  0  0  0  0  0  0  0  0  0  0  0
    0.0000    0.0000    0.0000 C   0  0  0  0  0  0  0  0  0  0  0  0
   -0.0000    1.0058    0.0000 C   0  0  0  0  0  0  0  0  0  0  0  0
    0.8680    1.5138    0.0000 C   0  0  0  0  0  0  0  0  0  0  0  0
    1.7360    1.0058    0.0000 C   0  0  0  0  0  0  0  0  0  0  0  0
    1.7360   -0.0012    0.0000 C   0  0  0  0  0  0  0  0  0  0  0  0
    2.6938   -0.3125    0.0000 C   0  0  0  0  0  0  0  0  0  0  0  0
    3.2858    0.5023    0.0000 C   0  0  0  0  0  0  0  0  0  0  0  0
    2.6938    1.3169    0.0000 N   0  0  0  0  0  0  0  0  0  0  0  0
    3.0028   -1.2636    0.0000 C   0  0  0  0  0  0  0  0  0  0  0  0
    3.9809   -1.4715    0.0000 C   0  0  0  0  0  0  0  0  0  0  0  0
    4.2899   -2.4226    0.0000 N   0  0  0  0  0  0  0  0  0  0  0  0
    5.2680   -2.6306    0.0000 C   0  0  0  0  0  0  0  0  0  0  0  0
    5.9372   -1.8874    0.0000 O   0  0  0  0  0  0  0  0  0  0  0  0
    5.5770   -3.5816    0.0000 C   0  0  0  0  0  0  0  0  0  0  0  0
    6.5551   -3.7896    0.0000 N   0  0  0  0  0  0  0  0  0  0  0  0
    6.8641   -4.7407    0.0000 N   0  3  0  0  0  0  0  0  0  0  0  0
    7.1731   -5.6917    0.0000 N   0  5  0  0  0  0  0  0  0  0  0  0
  1  2  1  0  0  0  0
  2  3  1  0  0  0  0
  3  8  2  0  0  0  0
  3  4  1  0  0  0  0
  4  5  2  0  0  0  0
  5  6  1  0  0  0  0
  6  7  2  0  0  0  0
  7 11  1  0  0  0  0
  7  8  1  0  0  0  0
  8  9  1  0  0  0  0
  9 10  2  0  0  0  0
 10 11  1  0  0  0  0
  9 12  1  0  0  0  0
 12 13  1  0  0  0  0
 13 14  1  0  0  0  0
 14 15  1  0  0  0  0
 15 16  2  0  0  0  0
 15 17  1  0  0  0  0
 17 18  1  0  0  0  0
 18 19  2  0  0  0  0
 19 20  2  0  0  0  0
M  CHG  2  19   1  20  -1
M  END
$$$$
s_272164____14971778____17347350
  -OEChem-03222016482D

 21 22  0     0  0  0  0  0  0999 V2000
    3.2605   -4.8599    0.0000 C   0  0  0  0  0  0  0  0  0  0  0  0
    2.2824   -4.6519    0.0000 N   0  0  0  0  0  0  0  0  0  0  0  0
    1.6132   -5.3951    0.0000 C   0  0  0  0  0  0  0  0  0  0  0  0
    1.9222   -6.3461    0.0000 C   0  0  0  0  0  0  0  0  0  0  0  0
    2.2312   -7.2972    0.0000 C   0  0  0  0  0  0  0  0  0  0  0  0
    1.9734   -3.7009    0.0000 C   0  0  0  0  0  0  0  0  0  0  0  0
    0.9953   -3.4929    0.0000 O   0  0  0  0  0  0  0  0  0  0  0  0
    2.6426   -2.9578    0.0000 N   0  0  0  0  0  0  0  0  0  0  0  0
    2.3336   -2.0067    0.0000 C   0  0  0  0  0  0  0  0  0  0  0  0
    3.0028   -1.2636    0.0000 C   0  0  0  0  0  0  0  0  0  0  0  0
    2.6938   -0.3125    0.0000 C   0  0  0  0  0  0  0  0  0  0  0  0
    3.2858    0.5023    0.0000 C   0  0  0  0  0  0  0  0  0  0  0  0
    2.6938    1.3169    0.0000 N   0  0  0  0  0  0  0  0  0  0  0  0
    1.7360    1.0058    0.0000 C   0  0  0  0  0  0  0  0  0  0  0  0
    1.7360   -0.0012    0.0000 C   0  0  0  0  0  0  0  0  0  0  0  0
    0.8680   -0.4978    0.0000 C   0  0  0  0  0  0  0  0  0  0  0  0
    0.0000    0.0000    0.0000 C   0  0  0  0  0  0  0  0  0  0  0  0
   -0.0000    1.0058    0.0000 C   0  0  0  0  0  0  0  0  0  0  0  0
    0.8680    1.5138    0.0000 C   0  0  0  0  0  0  0  0  0  0  0  0
    0.8680    2.5138    0.0000 O   0  0  0  0  0  0  0  0  0  0  0  0
    0.0020    3.0138    0.0000 C   0  0  0  0  0  0  0  0  0  0  0  0
  1  2  1  0  0  0  0
  2  3  1  0  0  0  0
  3  4  1  0  0  0  0
  4  5  3  0  0  0  0
  2  6  1  0  0  0  0
  6  7  2  0  0  0  0
  6  8  1  0  0  0  0
  8  9  1  0  0  0  0
  9 10  1  0  0  0  0
 10 11  1  0  0  0  0
 11 15  1  0  0  0  0
 11 12  2  0  0  0  0
 12 13  1  0  0  0  0
 13 14  1  0  0  0  0
 14 19  2  0  0  0  0
 14 15  1  0  0  0  0
 15 16  2  0  0  0  0
 16 17  1  0  0  0  0
 17 18  2  0  0  0  0
 18 19  1  0  0  0  0
 19 20  1  0  0  0  0
 20 21  1  0  0  0  0
M  END
$$$$
s_22____13978824____12105272
  -OEChem-03222016482D

 20 21  0     0  0  0  0  0  0999 V2000
   -0.8705    2.5032    0.0000 C   0  0  0  0  0  0  0  0  0  0  0  0
   -0.8675    1.5032    0.0000 O   0  0  0  0  0  0  0  0  0  0  0  0
    0.0000    1.0058    0.0000 C   0  0  0  0  0  0  0  0  0  0  0  0
    0.0000    0.0000    0.0000 C   0  0  0  0  0  0  0  0  0  0  0  0
    0.8680   -0.4978    0.0000 C   0  0  0  0  0  0  0  0  0  0  0  0
    1.7360   -0.0012    0.0000 C   0  0  0  0  0  0  0  0  0  0  0  0
    1.7360    1.0058    0.0000 C   0  0  0  0  0  0  0  0  0  0  0  0
    0.8680    1.5138    0.0000 C   0  0  0  0  0  0  0  0  0  0  0  0
    2.6938    1.3169    0.0000 N   0  0  0  0  0  0  0  0  0  0  0  0
    3.2858    0.5023    0.0000 C   0  0  0  0  0  0  0  0  0  0  0  0
    2.6938   -0.3125    0.0000 C   0  0  0  0  0  0  0  0  0  0  0  0
    3.0028   -1.2636    0.0000 C   0  0  0  0  0  0  0  0  0  0  0  0
    3.9809   -1.4715    0.0000 C   0  0  0  0  0  0  0  0  0  0  0  0
    4.2899   -2.4226    0.0000 N   0  0  0  0  0  0  0  0  0  0  0  0
    5.2680   -2.6306    0.0000 C   0  0  0  0  0  0  0  0  0  0  0  0
    5.9372   -1.8874    0.0000 O   0  0  0  0  0  0  0  0  0  0  0  0
    5.5770   -3.5816    0.0000 C   0  0  0  0  0  0  0  0  0  0  0  0
    6.5551   -3.7896    0.0000 C   0  0  0  0  0  0  0  0  0  0  0  0
    6.8641   -4.7407    0.0000 C   0  0  0  0  0  0  0  0  0  0  0  0
    7.8422   -4.9486    0.0000 F   0  0  0  0  0  0  0  0  0  0  0  0
  1  2  1  0  0  0  0
  2  3  1  0  0  0  0
  3  8  2  0  0  0  0
  3  4  1  0  0  0  0
  4  5  2  0  0  0  0
  5  6  1  0  0  0  0
  6 11  1  0  0  0  0
  6  7  2  0  0  0  0
  7  8  1  0  0  0  0
  7  9  1  0  0  0  0
  9 10  1  0  0  0  0
 10 11  2  0  0  0  0
 11 12  1  0  0  0  0
 12 13  1  0  0  0  0
 13 14  1  0  0  0  0
 14 15  1  0  0  0  0
 15 16  2  0  0  0  0
 15 17  1  0  0  0  0
 17 18  1  0  0  0  0
 18 19  1  0  0  0  0
 19 20  1  0  0  0  0
M  END
$$$$
s_22____2228922____60364
  -OEChem-03222016482D

 18 19  0     0  0  0  0  0  0999 V2000
    6.8641   -4.7407    0.0000 C   0  0  0  0  0  0  0  0  0  0  0  0
    6.5551   -3.7896    0.0000 S   0  0  0  0  0  0  0  0  0  0  0  0
    5.5770   -3.5816    0.0000 C   0  0  0  0  0  0  0  0  0  0  0  0
    5.2680   -2.6306    0.0000 C   0  0  0  0  0  0  0  0  0  0  0  0
    5.9372   -1.8874    0.0000 O   0  0  0  0  0  0  0  0  0  0  0  0
    4.2899   -2.4226    0.0000 N   0  0  0  0  0  0  0  0  0  0  0  0
    3.9809   -1.4715    0.0000 C   0  0  0  0  0  0  0  0  0  0  0  0
    3.0028   -1.2636    0.0000 C   0  0  0  0  0  0  0  0  0  0  0  0
    2.6938   -0.3125    0.0000 C   0  0  0  0  0  0  0  0  0  0  0  0
    3.2858    0.5023    0.0000 C   0  0  0  0  0  0  0  0  0  0  0  0
    2.6938    1.3169    0.0000 N   0  0  0  0  0  0  0  0  0  0  0  0
    1.7360    1.0058    0.0000 C   0  0  0  0  0  0  0  0  0  0  0  0
    1.7360   -0.0012    0.0000 C   0  0  0  0  0  0  0  0  0  0  0  0
    0.8680   -0.4978    0.0000 C   0  0  0  0  0  0  0  0  0  0  0  0
    0.0000    0.0000    0.0000 C   0  0  0  0  0  0  0  0  0  0  0  0
   -0.0000    1.0058    0.0000 C   0  0  0  0  0  0  0  0  0  0  0  0
    0.8680    1.5138    0.0000 C   0  0  0  0  0  0  0  0  0  0  0  0
   -0.8675    1.5032    0.0000 Cl  0  0  0  0  0  0  0  0  0  0  0  0
  1  2  1  0  0  0  0
  2  3  1  0  0  0  0
  3  4  1  0  0  0  0
  4  5  2  0  0  0  0
  4  6  1  0  0  0  0
  6  7  1  0  0  0  0
  7  8  1  0  0  0  0
  8  9  1  0  0  0  0
  9 13  1  0  0  0  0
  9 10  2  0  0  0  0
 10 11  1  0  0  0  0
 11 12  1  0  0  0  0
 12 17  2  0  0  0  0
 12 13  1  0  0  0  0
 13 14  2  0  0  0  0
 14 15  1  0  0  0  0
 15 16  2  0  0  0  0
 16 17  1  0  0  0  0
 16 18  1  0  0  0  0
M  END
$$$$
s_22____12346432____8794444
  -OEChem-03222016482D

 18 19  0     0  0  0  0  0  0999 V2000
    0.0000    0.0000    0.0000 C   0  0  0  0  0  0  0  0  0  0  0  0
    0.8680   -0.4978    0.0000 C   0  0  0  0  0  0  0  0  0  0  0  0
    1.7360   -0.0012    0.0000 C   0  0  0  0  0  0  0  0  0  0  0  0
    2.6938   -0.3125    0.0000 C   0  0  0  0  0  0  0  0  0  0  0  0
    3.2858    0.5023    0.0000 C   0  0  0  0  0  0  0  0  0  0  0  0
    2.6938    1.3169    0.0000 N   0  0  0  0  0  0  0  0  0  0  0  0
    1.7360    1.0058    0.0000 C   0  0  0  0  0  0  0  0  0  0  0  0
    0.8680    1.5138    0.0000 C   0  0  0  0  0  0  0  0  0  0  0  0
    0.0000    1.0058    0.0000 C   0  0  0  0  0  0  0  0  0  0  0  0
    0.8680    2.5138    0.0000 Cl  0  0  0  0  0  0  0  0  0  0  0  0
    3.0028   -1.2636    0.0000 C   0  0  0  0  0  0  0  0  0  0  0  0
    3.9809   -1.4715    0.0000 C   0  0  0  0  0  0  0  0  0  0  0  0
    4.2899   -2.4226    0.0000 N   0  0  0  0  0  0  0  0  0  0  0  0
    5.2680   -2.6306    0.0000 C   0  0  0  0  0  0  0  0  0  0  0  0
    5.9372   -1.8874    0.0000 O   0  0  0  0  0  0  0  0  0  0  0  0
    5.5770   -3.5816    0.0000 C   0  0  0  0  0  0  0  0  0  0  0  0
    6.5551   -3.7896    0.0000 C   0  0  0  0  0  0  0  0  0  0  0  0
    7.5333   -3.9976    0.0000 N   0  0  0  0  0  0  0  0  0  0  0  0
  1  9  2  0  0  0  0
  1  2  1  0  0  0  0
  2  3  2  0  0  0  0
  3  7  1  0  0  0  0
  3  4  1  0  0  0  0
  4  5  2  0  0  0  0
  5  6  1  0  0  0  0
  6  7  1  0  0  0  0
  7  8  2  0  0  0  0
  8  9  1  0  0  0  0
  8 10  1  0  0  0  0
  4 11  1  0  0  0  0
 11 12  1  0  0  0  0
 12 13  1  0  0  0  0
 13 14  1  0  0  0  0
 14 15  2  0  0  0  0
 14 16  1  0  0  0  0
 16 17  1  0  0  0  0
 17 18  3  0  0  0  0
M  END
$$$$
s_2708____13025540____8739002
  -OEChem-03222016482D

 20 21  0     0  0  0  0  0  0999 V2000
    4.9078   -4.3247    0.0000 C   0  0  0  0  0  0  0  0  0  0  0  0
    5.5770   -3.5816    0.0000 N   0  0  0  0  0  0  0  0  0  0  0  0
    5.2680   -2.6306    0.0000 C   0  0  0  0  0  0  0  0  0  0  0  0
    5.9372   -1.8874    0.0000 O   0  0  0  0  0  0  0  0  0  0  0  0
    4.2899   -2.4226    0.0000 N   0  0  0  0  0  0  0  0  0  0  0  0
    3.9809   -1.4715    0.0000 C   0  0  0  0  0  0  0  0  0  0  0  0
    3.0028   -1.2636    0.0000 C   0  0  0  0  0  0  0  0  0  0  0  0
    2.6938   -0.3125    0.0000 C   0  0  0  0  0  0  0  0  0  0  0  0
    3.2858    0.5023    0.0000 C   0  0  0  0  0  0  0  0  0  0  0  0
    2.6938    1.3169    0.0000 N   0  0  0  0  0  0  0  0  0  0  0  0
    1.7360    1.0058    0.0000 C   0  0  0  0  0  0  0  0  0  0  0  0
    1.7360   -0.0012    0.0000 C   0  0  0  0  0  0  0  0  0  0  0  0
    0.8680   -0.4978    0.0000 C   0  0  0  0  0  0  0  0  0  0  0  0
    0.0000    0.0000    0.0000 C   0  0  0  0  0  0  0  0  0  0  0  0
   -0.0000    1.0058    0.0000 C   0  0  0  0  0  0  0  0  0  0  0  0
    0.8680    1.5138    0.0000 C   0  0  0  0  0  0  0  0  0  0  0  0
    0.8675   -1.4978    0.0000 O   0  0  0  0  0  0  0  0  0  0  0  0
    1.7332   -1.9983    0.0000 C   0  0  0  0  0  0  0  0  0  0  0  0
    6.5551   -3.7896    0.0000 O   0  0  0  0  0  0  0  0  0  0  0  0
    6.8641   -4.7407    0.0000 C   0  0  0  0  0  0  0  0  0  0  0  0
  1  2  1  0  0  0  0
  2  3  1  0  0  0  0
  3  4  2  0  0  0  0
  3  5  1  0  0  0  0
  5  6  1  0  0  0  0
  6  7  1  0  0  0  0
  7  8  1  0  0  0  0
  8 12  1  0  0  0  0
  8  9  2  0  0  0  0
  9 10  1  0  0  0  0
 10 11  1  0  0  0  0
 11 16  2  0  0  0  0
 11 12  1  0  0  0  0
 12 13  2  0  0  0  0
 13 14  1  0  0  0  0
 14 15  2  0  0  0  0
 15 16  1  0  0  0  0
 13 17  1  0  0  0  0
 17 18  1  0  0  0  0
  2 19  1  0  0  0  0
 19 20  1  0  0  0  0
M  END
$$$$
s_2554____4839470____788524
  -OEChem-03222016482D

 17 18  0     0  0  0  0  0  0999 V2000
   -1.7320   -0.0025    0.0000 C   0  0  0  0  0  0  0  0  0  0  0  0
   -0.8653   -0.5013    0.0000 O   0  0  0  0  0  0  0  0  0  0  0  0
    0.0000    0.0000    0.0000 C   0  0  0  0  0  0  0  0  0  0  0  0
   -0.0000    1.0058    0.0000 C   0  0  0  0  0  0  0  0  0  0  0  0
    0.8680    1.5138    0.0000 C   0  0  0  0  0  0  0  0  0  0  0  0
    1.7360    1.0058    0.0000 C   0  0  0  0  0  0  0  0  0  0  0  0
    1.7360   -0.0012    0.0000 C   0  0  0  0  0  0  0  0  0  0  0  0
    0.8680   -0.4978    0.0000 C   0  0  0  0  0  0  0  0  0  0  0  0
    2.6938   -0.3125    0.0000 C   0  0  0  0  0  0  0  0  0  0  0  0
    3.2858    0.5023    0.0000 C   0  0  0  0  0  0  0  0  0  0  0  0
    2.6938    1.3169    0.0000 N   0  0  0  0  0  0  0  0  0  0  0  0
    3.0028   -1.2636    0.0000 C   0  0  0  0  0  0  0  0  0  0  0  0
    3.9809   -1.4715    0.0000 C   0  0  0  0  0  0  0  0  0  0  0  0
    4.2899   -2.4226    0.0000 N   0  0  0  0  0  0  0  0  0  0  0  0
    5.2680   -2.6306    0.0000 C   0  0  0  0  0  0  0  0  0  0  0  0
    5.9372   -1.8874    0.0000 O   0  0  0  0  0  0  0  0  0  0  0  0
    5.5770   -3.5816    0.0000 N   0  0  0  0  0  0  0  0  0  0  0  0
  1  2  1  0  0  0  0
  2  3  1  0  0  0  0
  3  8  2  0  0  0  0
  3  4  1  0  0  0  0
  4  5  2  0  0  0  0
  5  6  1  0  0  0  0
  6 11  1  0  0  0  0
  6  7  2  0  0  0  0
  7  8  1  0  0  0  0
  7  9  1  0  0  0  0
  9 10  2  0  0  0  0
 10 11  1  0  0  0  0
  9 12  1  0  0  0  0
 12 13  1  0  0  0  0
 13 14  1  0  0  0  0
 14 15  1  0  0  0  0
 15 16  2  0  0  0  0
 15 17  1  0  0  0  0
M  END
$$$$
s_272164____14971778____17338548
  -OEChem-03222016482D

 21 22  0     0  0  0  0  0  0999 V2000
    4.9078   -4.3247    0.0000 C   0  0  0  0  0  0  0  0  0  0  0  0
    5.5770   -3.5816    0.0000 N   0  0  0  0  0  0  0  0  0  0  0  0
    6.5551   -3.7896    0.0000 C   0  0  0  0  0  0  0  0  0  0  0  0
    6.8641   -4.7407    0.0000 C   0  0  0  0  0  0  0  0  0  0  0  0
    7.1731   -5.6917    0.0000 C   0  0  0  0  0  0  0  0  0  0  0  0
    5.2680   -2.6306    0.0000 C   0  0  0  0  0  0  0  0  0  0  0  0
    5.9372   -1.8874    0.0000 O   0  0  0  0  0  0  0  0  0  0  0  0
    4.2899   -2.4226    0.0000 N   0  0  0  0  0  0  0  0  0  0  0  0
    3.9809   -1.4715    0.0000 C   0  0  0  0  0  0  0  0  0  0  0  0
    3.0028   -1.2636    0.0000 C   0  0  0  0  0  0  0  0  0  0  0  0
    2.6938   -0.3125    0.0000 C   0  0  0  0  0  0  0  0  0  0  0  0
    3.2858    0.5023    0.0000 C   0  0  0  0  0  0  0  0  0  0  0  0
    2.6938    1.3169    0.0000 N   0  0  0  0  0  0  0  0  0  0  0  0
    1.7360    1.0058    0.0000 C   0  0  0  0  0  0  0  0  0  0  0  0
    1.7360   -0.0012    0.0000 C   0  0  0  0  0  0  0  0  0  0  0  0
    0.8680   -0.4978    0.0000 C   0  0  0  0  0  0  0  0  0  0  0  0
    0.0000    0.0000    0.0000 C   0  0  0  0  0  0  0  0  0  0  0  0
   -0.0000    1.0058    0.0000 C   0  0  0  0  0  0  0  0  0  0  0  0
    0.8680    1.5138    0.0000 C   0  0  0  0  0  0  0  0  0  0  0  0
    0.8675   -1.4978    0.0000 O   0  0  0  0  0  0  0  0  0  0  0  0
    1.7332   -1.9983    0.0000 C   0  0  0  0  0  0  0  0  0  0  0  0
  1  2  1  0  0  0  0
  2  3  1  0  0  0  0
  3  4  1  0  0  0  0
  4  5  3  0  0  0  0
  2  6  1  0  0  0  0
  6  7  2  0  0  0  0
  6  8  1  0  0  0  0
  8  9  1  0  0  0  0
  9 10  1  0  0  0  0
 10 11  1  0  0  0  0
 11 15  1  0  0  0  0
 11 12  2  0  0  0  0
 12 13  1  0  0  0  0
 13 14  1  0  0  0  0
 14 19  2  0  0  0  0
 14 15  1  0  0  0  0
 15 16  2  0  0  0  0
 16 17  1  0  0  0  0
 17 18  2  0  0  0  0
 18 19  1  0  0  0  0
 16 20  1  0  0  0  0
 20 21  1  0  0  0  0
M  END
$$$$
s_273270____15547820____10884640
  -OEChem-03222016482D

 18 19  0     0  0  0  0  0  0999 V2000
    0.0012   -1.9973    0.0000 C   0  0  0  0  0  0  0  0  0  0  0  0
    0.8675   -1.4978    0.0000 O   0  0  0  0  0  0  0  0  0  0  0  0
    0.8680   -0.4978    0.0000 C   0  0  0  0  0  0  0  0  0  0  0  0
    0.0000    0.0000    0.0000 C   0  0  0  0  0  0  0  0  0  0  0  0
   -0.0000    1.0058    0.0000 C   0  0  0  0  0  0  0  0  0  0  0  0
    0.8680    1.5138    0.0000 C   0  0  0  0  0  0  0  0  0  0  0  0
    1.7360    1.0058    0.0000 C   0  0  0  0  0  0  0  0  0  0  0  0
    1.7360   -0.0012    0.0000 C   0  0  0  0  0  0  0  0  0  0  0  0
    2.6938   -0.3125    0.0000 C   0  0  0  0  0  0  0  0  0  0  0  0
    3.2858    0.5023    0.0000 C   0  0  0  0  0  0  0  0  0  0  0  0
    2.6938    1.3169    0.0000 N   0  0  0  0  0  0  0  0  0  0  0  0
    3.0028   -1.2636    0.0000 C   0  0  0  0  0  0  0  0  0  0  0  0
    3.9809   -1.4715    0.0000 C   0  0  0  0  0  0  0  0  0  0  0  0
    4.2899   -2.4226    0.0000 N   0  0  0  0  0  0  0  0  0  0  0  0
    5.2680   -2.6306    0.0000 C   0  0  0  0  0  0  0  0  0  0  0  0
    5.9372   -1.8874    0.0000 O   0  0  0  0  0  0  0  0  0  0  0  0
    5.5770   -3.5816    0.0000 C   0  0  0  0  0  0  0  0  0  0  0  0
    6.5551   -3.7896    0.0000 C   0  0  0  0  0  0  0  0  0  0  0  0
  1  2  1  0  0  0  0
  2  3  1  0  0  0  0
  3  8  2  0  0  0  0
  3  4  1  0  0  0  0
  4  5  2  0  0  0  0
  5  6  1  0  0  0  0
  6  7  2  0  0  0  0
  7 11  1  0  0  0  0
  7  8  1  0  0  0  0
  8  9  1  0  0  0  0
  9 10  2  0  0  0  0
 10 11  1  0  0  0  0
  9 12  1  0  0  0  0
 12 13  1  0  0  0  0
 13 14  1  0  0  0  0
 14 15  1  0  0  0  0
 15 16  2  0  0  0  0
 15 17  1  0  0  0  0
 17 18  2  0  0  0  0
M  END
$$$$
s_22____7533902____60364
  -OEChem-03222016482D

 17 18  0     0  0  0  0  0  0999 V2000
    8.7856    3.1007    0.0000 C   0  0  0  0  0  0  0  0  0  0  0  0
    7.7856    3.1006    0.0000 S   0  0  0  0  0  0  0  0  0  0  0  0
    7.2857    2.2346    0.0000 C   0  0  0  0  0  0  0  0  0  0  0  0
    6.2857    2.2345    0.0000 C   0  0  0  0  0  0  0  0  0  0  0  0
    5.7856    3.1005    0.0000 O   0  0  0  0  0  0  0  0  0  0  0  0
    5.7857    1.3685    0.0000 N   0  0  0  0  0  0  0  0  0  0  0  0
    4.7857    1.3684    0.0000 C   0  0  0  0  0  0  0  0  0  0  0  0
    4.2858    0.5024    0.0000 C   0  0  0  0  0  0  0  0  0  0  0  0
    3.2858    0.5023    0.0000 C   0  0  0  0  0  0  0  0  0  0  0  0
    2.6938   -0.3125    0.0000 C   0  0  0  0  0  0  0  0  0  0  0  0
    1.7360   -0.0012    0.0000 C   0  0  0  0  0  0  0  0  0  0  0  0
    0.8680   -0.4978    0.0000 C   0  0  0  0  0  0  0  0  0  0  0  0
    0.0000    0.0000    0.0000 C   0  0  0  0  0  0  0  0  0  0  0  0
    0.0000    1.0058    0.0000 C   0  0  0  0  0  0  0  0  0  0  0  0
    0.8680    1.5138    0.0000 C   0  0  0  0  0  0  0  0  0  0  0  0
    1.7360    1.0058    0.0000 C   0  0  0  0  0  0  0  0  0  0  0  0
    2.6938    1.3169    0.0000 N   0  0  0  0  0  0  0  0  0  0  0  0
  1  2  1  0  0  0  0
  2  3  1  0  0  0  0
  3  4  1  0  0  0  0
  4  5  2  0  0  0  0
  4  6  1  0  0  0  0
  6  7  1  0  0  0  0
  7  8  1  0  0  0  0
  8  9  1  0  0  0  0
  9 17  1  0  0  0  0
  9 10  2  0  0  0  0
 10 11  1  0  0  0  0
 11 16  2  0  0  0  0
 11 12  1  0  0  0  0
 12 13  2  0  0  0  0
 13 14  1  0  0  0  0
 14 15  2  0  0  0  0
 15 16  1  0  0  0  0
 16 17  1  0  0  0  0
M  END
$$$$
s_22____13978824____925054
  -OEChem-03222016482D

 21 22  0     0  0  0  0  0  0999 V2000
   -0.8705    2.5032    0.0000 C   0  0  0  0  0  0  0  0  0  0  0  0
   -0.8675    1.5032    0.0000 O   0  0  0  0  0  0  0  0  0  0  0  0
    0.0000    1.0058    0.0000 C   0  0  0  0  0  0  0  0  0  0  0  0
    0.0000    0.0000    0.0000 C   0  0  0  0  0  0  0  0  0  0  0  0
    0.8680   -0.4978    0.0000 C   0  0  0  0  0  0  0  0  0  0  0  0
    1.7360   -0.0012    0.0000 C   0  0  0  0  0  0  0  0  0  0  0  0
    1.7360    1.0058    0.0000 C   0  0  0  0  0  0  0  0  0  0  0  0
    0.8680    1.5138    0.0000 C   0  0  0  0  0  0  0  0  0  0  0  0
    2.6938    1.3169    0.0000 N   0  0  0  0  0  0  0  0  0  0  0  0
    3.2858    0.5023    0.0000 C   0  0  0  0  0  0  0  0  0  0  0  0
    2.6938   -0.3125    0.0000 C   0  0  0  0  0  0  0  0  0  0  0  0
    3.0028   -1.2636    0.0000 C   0  0  0  0  0  0  0  0  0  0  0  0
    3.9809   -1.4715    0.0000 C   0  0  0  0  0  0  0  0  0  0  0  0
    4.2899   -2.4226    0.0000 N   0  0  0  0  0  0  0  0  0  0  0  0
    5.2680   -2.6306    0.0000 C   0  0  0  0  0  0  0  0  0  0  0  0
    5.9372   -1.8874    0.0000 O   0  0  0  0  0  0  0  0  0  0  0  0
    5.5770   -3.5816    0.0000 C   0  0  0  0  0  0  0  0  0  0  0  0
    6.5551   -3.7896    0.0000 S   0  0  0  0  0  0  0  0  0  0  0  0
    6.8641   -4.7407    0.0000 C   0  0  0  0  0  0  0  0  0  0  0  0
    7.8422   -4.9486    0.0000 C   0  0  0  0  0  0  0  0  0  0  0  0
    8.1512   -5.8997    0.0000 C   0  0  0  0  0  0  0  0  0  0  0  0
  1  2  1  0  0  0  0
  2  3  1  0  0  0  0
  3  8  2  0  0  0  0
  3  4  1  0  0  0  0
  4  5  2  0  0  0  0
  5  6  1  0  0  0  0
  6 11  1  0  0  0  0
  6  7  2  0  0  0  0
  7  8  1  0  0  0  0
  7  9  1  0  0  0  0
  9 10  1  0  0  0  0
 10 11  2  0  0  0  0
 11 12  1  0  0  0  0
 12 13  1  0  0  0  0
 13 14  1  0  0  0  0
 14 15  1  0  0  0  0
 15 16  2  0  0  0  0
 15 17  1  0  0  0  0
 17 18  1  0  0  0  0
 18 19  1  0  0  0  0
 19 20  1  0  0  0  0
 20 21  2  0  0  0  0
M  END
$$$$
s_22____15754586____58902
  -OEChem-03222016482D

 20 22  0     1  0  0  0  0  0999 V2000
    3.9809   -1.4715    0.0000 C   0  0  0  0  0  0  0  0  0  0  0  0
    3.0028   -1.2636    0.0000 C   0  0  3  0  0  0  0  0  0  0  0  0
    2.3336   -2.0067    0.0000 C   0  0  0  0  0  0  0  0  0  0  0  0
    2.6426   -2.9578    0.0000 N   0  0  0  0  0  0  0  0  0  0  0  0
    1.9734   -3.7009    0.0000 C   0  0  0  0  0  0  0  0  0  0  0  0
    0.9953   -3.4929    0.0000 O   0  0  0  0  0  0  0  0  0  0  0  0
    2.2824   -4.6519    0.0000 C   0  0  0  0  0  0  0  0  0  0  0  0
    2.0751   -5.6321    0.0000 C   0  0  0  0  0  0  0  0  0  0  0  0
    3.0262   -5.3232    0.0000 C   0  0  0  0  0  0  0  0  0  0  0  0
    2.6938   -0.3125    0.0000 C   0  0  0  0  0  0  0  0  0  0  0  0
    3.2858    0.5023    0.0000 C   0  0  0  0  0  0  0  0  0  0  0  0
    2.6938    1.3169    0.0000 N   0  0  0  0  0  0  0  0  0  0  0  0
    1.7360    1.0058    0.0000 C   0  0  0  0  0  0  0  0  0  0  0  0
    1.7360   -0.0012    0.0000 C   0  0  0  0  0  0  0  0  0  0  0  0
    0.8680   -0.4978    0.0000 C   0  0  0  0  0  0  0  0  0  0  0  0
    0.0000    0.0000    0.0000 C   0  0  0  0  0  0  0  0  0  0  0  0
   -0.0000    1.0058    0.0000 C   0  0  0  0  0  0  0  0  0  0  0  0
    0.8680    1.5138    0.0000 C   0  0  0  0  0  0  0  0  0  0  0  0
   -0.8653   -0.5013    0.0000 O   0  0  0  0  0  0  0  0  0  0  0  0
   -0.8639   -1.5013    0.0000 C   0  0  0  0  0  0  0  0  0  0  0  0
  1  2  1  0  0  0  0
  2  3  1  0  0  0  0
  3  4  1  0  0  0  0
  4  5  1  0  0  0  0
  5  6  2  0  0  0  0
  5  7  1  0  0  0  0
  7  9  1  0  0  0  0
  7  8  1  0  0  0  0
  8  9  1  0  0  0  0
  2 10  1  0  0  0  0
 10 14  1  0  0  0  0
 10 11  2  0  0  0  0
 11 12  1  0  0  0  0
 12 13  1  0  0  0  0
 13 18  2  0  0  0  0
 13 14  1  0  0  0  0
 14 15  2  0  0  0  0
 15 16  1  0  0  0  0
 16 17  2  0  0  0  0
 17 18  1  0  0  0  0
 16 19  1  0  0  0  0
 19 20  1  0  0  0  0
M  END
$$$$
s_22____9226532____9156240
  -OEChem-03222016482D

 22 23  0     1  0  0  0  0  0999 V2000
    1.7327   -2.9983    0.0000 C   0  0  0  0  0  0  0  0  0  0  0  0
    1.7332   -1.9983    0.0000 C   0  0  0  0  0  0  0  0  0  0  0  0
    0.8675   -1.4978    0.0000 O   0  0  0  0  0  0  0  0  0  0  0  0
    0.8680   -0.4978    0.0000 C   0  0  0  0  0  0  0  0  0  0  0  0
    0.0000    0.0000    0.0000 C   0  0  0  0  0  0  0  0  0  0  0  0
   -0.0000    1.0058    0.0000 C   0  0  0  0  0  0  0  0  0  0  0  0
    0.8680    1.5138    0.0000 C   0  0  0  0  0  0  0  0  0  0  0  0
    1.7360    1.0058    0.0000 C   0  0  0  0  0  0  0  0  0  0  0  0
    1.7360   -0.0012    0.0000 C   0  0  0  0  0  0  0  0  0  0  0  0
    2.6938   -0.3125    0.0000 C   0  0  0  0  0  0  0  0  0  0  0  0
    3.2858    0.5023    0.0000 C   0  0  0  0  0  0  0  0  0  0  0  0
    2.6938    1.3169    0.0000 N   0  0  0  0  0  0  0  0  0  0  0  0
    3.0028   -1.2636    0.0000 C   0  0  0  0  0  0  0  0  0  0  0  0
    3.9809   -1.4715    0.0000 C   0  0  0  0  0  0  0  0  0  0  0  0
    4.2899   -2.4226    0.0000 N   0  0  0  0  0  0  0  0  0  0  0  0
    5.2680   -2.6306    0.0000 C   0  0  0  0  0  0  0  0  0  0  0  0
    5.9372   -1.8874    0.0000 O   0  0  0  0  0  0  0  0  0  0  0  0
    5.5770   -3.5816    0.0000 C   0  0  3  0  0  0  0  0  0  0  0  0
    6.5551   -3.7896    0.0000 C   0  0  0  0  0  0  0  0  0  0  0  0
    7.2243   -3.0465    0.0000 C   0  0  0  0  0  0  0  0  0  0  0  0
    6.8641   -4.7407    0.0000 C   0  0  0  0  0  0  0  0  0  0  0  0
    4.9078   -4.3247    0.0000 F   0  0  0  0  0  0  0  0  0  0  0  0
  1  2  1  0  0  0  0
  2  3  1  0  0  0  0
  3  4  1  0  0  0  0
  4  9  2  0  0  0  0
  4  5  1  0  0  0  0
  5  6  2  0  0  0  0
  6  7  1  0  0  0  0
  7  8  2  0  0  0  0
  8 12  1  0  0  0  0
  8  9  1  0  0  0  0
  9 10  1  0  0  0  0
 10 11  2  0  0  0  0
 11 12  1  0  0  0  0
 10 13  1  0  0  0  0
 13 14  1  0  0  0  0
 14 15  1  0  0  0  0
 15 16  1  0  0  0  0
 16 17  2  0  0  0  0
 16 18  1  0  0  0  0
 18 19  1  0  0  0  0
 19 20  1  0  0  0  0
 19 21  1  0  0  0  0
 18 22  1  0  0  0  0
M  END
$$$$
s_22____13978824____17543248
  -OEChem-03222016482D

 19 20  0     0  0  0  0  0  0999 V2000
   -0.8705    2.5032    0.0000 C   0  0  0  0  0  0  0  0  0  0  0  0
   -0.8675    1.5032    0.0000 O   0  0  0  0  0  0  0  0  0  0  0  0
    0.0000    1.0058    0.0000 C   0  0  0  0  0  0  0  0  0  0  0  0
    0.0000    0.0000    0.0000 C   0  0  0  0  0  0  0  0  0  0  0  0
    0.8680   -0.4978    0.0000 C   0  0  0  0  0  0  0  0  0  0  0  0
    1.7360   -0.0012    0.0000 C   0  0  0  0  0  0  0  0  0  0  0  0
    1.7360    1.0058    0.0000 C   0  0  0  0  0  0  0  0  0  0  0  0
    0.8680    1.5138    0.0000 C   0  0  0  0  0  0  0  0  0  0  0  0
    2.6938    1.3169    0.0000 N   0  0  0  0  0  0  0  0  0  0  0  0
    3.2858    0.5023    0.0000 C   0  0  0  0  0  0  0  0  0  0  0  0
    2.6938   -0.3125    0.0000 C   0  0  0  0  0  0  0  0  0  0  0  0
    3.0028   -1.2636    0.0000 C   0  0  0  0  0  0  0  0  0  0  0  0
    3.9809   -1.4715    0.0000 C   0  0  0  0  0  0  0  0  0  0  0  0
    4.2899   -2.4226    0.0000 N   0  0  0  0  0  0  0  0  0  0  0  0
    5.2680   -2.6306    0.0000 C   0  0  0  0  0  0  0  0  0  0  0  0
    5.9372   -1.8874    0.0000 O   0  0  0  0  0  0  0  0  0  0  0  0
    5.5770   -3.5816    0.0000 C   0  0  0  0  0  0  0  0  0  0  0  0
    6.5551   -3.7896    0.0000 C   0  0  0  0  0  0  0  0  0  0  0  0
    7.5333   -3.9976    0.0000 C   0  0  0  0  0  0  0  0  0  0  0  0
  1  2  1  0  0  0  0
  2  3  1  0  0  0  0
  3  8  2  0  0  0  0
  3  4  1  0  0  0  0
  4  5  2  0  0  0  0
  5  6  1  0  0  0  0
  6 11  1  0  0  0  0
  6  7  2  0  0  0  0
  7  8  1  0  0  0  0
  7  9  1  0  0  0  0
  9 10  1  0  0  0  0
 10 11  2  0  0  0  0
 11 12  1  0  0  0  0
 12 13  1  0  0  0  0
 13 14  1  0  0  0  0
 14 15  1  0  0  0  0
 15 16  2  0  0  0  0
 15 17  1  0  0  0  0
 17 18  2  0  0  0  0
 18 19  2  0  0  0  0
M  END
$$$$
s_240690b____13978894____3025682
  -OEChem-03222016482D

 20 21  0     0  0  0  0  0  0999 V2000
   -0.8705    2.5032    0.0000 C   0  0  0  0  0  0  0  0  0  0  0  0
   -0.8675    1.5032    0.0000 O   0  0  0  0  0  0  0  0  0  0  0  0
    0.0000    1.0058    0.0000 C   0  0  0  0  0  0  0  0  0  0  0  0
    0.0000    0.0000    0.0000 C   0  0  0  0  0  0  0  0  0  0  0  0
    0.8680   -0.4978    0.0000 C   0  0  0  0  0  0  0  0  0  0  0  0
    1.7360   -0.0012    0.0000 C   0  0  0  0  0  0  0  0  0  0  0  0
    1.7360    1.0058    0.0000 C   0  0  0  0  0  0  0  0  0  0  0  0
    0.8680    1.5138    0.0000 C   0  0  0  0  0  0  0  0  0  0  0  0
    2.6938    1.3169    0.0000 N   0  0  0  0  0  0  0  0  0  0  0  0
    3.2858    0.5023    0.0000 C   0  0  0  0  0  0  0  0  0  0  0  0
    2.6938   -0.3125    0.0000 C   0  0  0  0  0  0  0  0  0  0  0  0
    3.0028   -1.2636    0.0000 C   0  0  0  0  0  0  0  0  0  0  0  0
    3.9809   -1.4715    0.0000 C   0  0  0  0  0  0  0  0  0  0  0  0
    4.2899   -2.4226    0.0000 N   0  0  0  0  0  0  0  0  0  0  0  0
    5.2680   -2.6306    0.0000 C   0  0  0  0  0  0  0  0  0  0  0  0
    5.9372   -1.8874    0.0000 O   0  0  0  0  0  0  0  0  0  0  0  0
    5.5770   -3.5816    0.0000 C   0  0  0  0  0  0  0  0  0  0  0  0
    6.5551   -3.7896    0.0000 C   0  0  0  0  0  0  0  0  0  0  0  0
    6.8641   -4.7407    0.0000 C   0  0  0  0  0  0  0  0  0  0  0  0
    7.8422   -4.9486    0.0000 N   0  3  0  0  0  0  0  0  0  0  0  0
  1  2  1  0  0  0  0
  2  3  1  0  0  0  0
  3  8  2  0  0  0  0
  3  4  1  0  0  0  0
  4  5  2  0  0  0  0
  5  6  1  0  0  0  0
  6 11  1  0  0  0  0
  6  7  2  0  0  0  0
  7  8  1  0  0  0  0
  7  9  1  0  0  0  0
  9 10  1  0  0  0  0
 10 11  2  0  0  0  0
 11 12  1  0  0  0  0
 12 13  1  0  0  0  0
 13 14  1  0  0  0  0
 14 15  1  0  0  0  0
 15 16  2  0  0  0  0
 15 17  1  0  0  0  0
 17 18  1  0  0  0  0
 18 19  1  0  0  0  0
 19 20  1  0  0  0  0
M  CHG  1  20   1
M  END
$$$$
s_22____4602506____7941800
  -OEChem-03222016482D

 18 19  0     0  0  0  0  0  0999 V2000
    1.7340    3.0138    0.0000 C   0  0  0  0  0  0  0  0  0  0  0  0
    0.8680    2.5138    0.0000 C   0  0  0  0  0  0  0  0  0  0  0  0
    0.8680    1.5138    0.0000 C   0  0  0  0  0  0  0  0  0  0  0  0
    0.0000    1.0058    0.0000 C   0  0  0  0  0  0  0  0  0  0  0  0
    0.0000    0.0000    0.0000 C   0  0  0  0  0  0  0  0  0  0  0  0
    0.8680   -0.4978    0.0000 C   0  0  0  0  0  0  0  0  0  0  0  0
    1.7360   -0.0012    0.0000 C   0  0  0  0  0  0  0  0  0  0  0  0
    1.7360    1.0058    0.0000 C   0  0  0  0  0  0  0  0  0  0  0  0
    2.6938    1.3169    0.0000 N   0  0  0  0  0  0  0  0  0  0  0  0
    3.2858    0.5023    0.0000 C   0  0  0  0  0  0  0  0  0  0  0  0
    2.6938   -0.3125    0.0000 C   0  0  0  0  0  0  0  0  0  0  0  0
    3.0028   -1.2636    0.0000 C   0  0  0  0  0  0  0  0  0  0  0  0
    3.9809   -1.4715    0.0000 C   0  0  0  0  0  0  0  0  0  0  0  0
    4.2899   -2.4226    0.0000 N   0  0  0  0  0  0  0  0  0  0  0  0
    5.2680   -2.6306    0.0000 C   0  0  0  0  0  0  0  0  0  0  0  0
    5.9372   -1.8874    0.0000 O   0  0  0  0  0  0  0  0  0  0  0  0
    5.5770   -3.5816    0.0000 C   0  0  0  0  0  0  0  0  0  0  0  0
    6.5551   -3.7896    0.0000 O   0  0  0  0  0  0  0  0  0  0  0  0
  1  2  1  0  0  0  0
  2  3  1  0  0  0  0
  3  8  2  0  0  0  0
  3  4  1  0  0  0  0
  4  5  2  0  0  0  0
  5  6  1  0  0  0  0
  6  7  2  0  0  0  0
  7 11  1  0  0  0  0
  7  8  1  0  0  0  0
  8  9  1  0  0  0  0
  9 10  1  0  0  0  0
 10 11  2  0  0  0  0
 11 12  1  0  0  0  0
 12 13  1  0  0  0  0
 13 14  1  0  0  0  0
 14 15  1  0  0  0  0
 15 16  2  0  0  0  0
 15 17  1  0  0  0  0
 17 18  1  0  0  0  0
M  END
$$$$
s_22____13596594____58866
  -OEChem-03222016482D

 17 18  0     0  0  0  0  0  0999 V2000
    6.8884   -4.7050    0.0000 C   0  0  0  0  0  0  0  0  0  0  0  0
    6.5743   -3.7557    0.0000 C   0  0  0  0  0  0  0  0  0  0  0  0
    5.5950   -3.5530    0.0000 C   0  0  0  0  0  0  0  0  0  0  0  0
    5.2808   -2.6037    0.0000 C   0  0  0  0  0  0  0  0  0  0  0  0
    5.9459   -1.8569    0.0000 O   0  0  0  0  0  0  0  0  0  0  0  0
    4.3016   -2.4011    0.0000 N   0  0  0  0  0  0  0  0  0  0  0  0
    3.9874   -1.4517    0.0000 C   0  0  0  0  0  0  0  0  0  0  0  0
    3.0082   -1.2491    0.0000 C   0  0  0  0  0  0  0  0  0  0  0  0
    2.6940   -0.2997    0.0000 C   0  0  0  0  0  0  0  0  0  0  0  0
    3.2780    0.5133    0.0000 C   0  0  0  0  0  0  0  0  0  0  0  0
    2.6851    1.3196    0.0000 N   0  0  0  0  0  0  0  0  0  0  0  0
    1.7350    1.0052    0.0000 C   0  0  0  0  0  0  0  0  0  0  0  0
    1.7405    0.0044    0.0000 C   0  0  0  0  0  0  0  0  0  0  0  0
    0.8675   -0.4975    0.0000 C   0  0  0  0  0  0  0  0  0  0  0  0
    0.0000    0.0000    0.0000 C   0  0  0  0  0  0  0  0  0  0  0  0
   -0.0000    1.0052    0.0000 C   0  0  0  0  0  0  0  0  0  0  0  0
    0.8675    1.5129    0.0000 N   0  0  0  0  0  0  0  0  0  0  0  0
  1  2  1  0  0  0  0
  2  3  1  0  0  0  0
  3  4  1  0  0  0  0
  4  5  2  0  0  0  0
  4  6  1  0  0  0  0
  6  7  1  0  0  0  0
  7  8  1  0  0  0  0
  8  9  1  0  0  0  0
  9 13  1  0  0  0  0
  9 10  2  0  0  0  0
 10 11  1  0  0  0  0
 11 12  1  0  0  0  0
 12 17  2  0  0  0  0
 12 13  1  0  0  0  0
 13 14  2  0  0  0  0
 14 15  1  0  0  0  0
 15 16  2  0  0  0  0
 16 17  1  0  0  0  0
M  END
$$$$
s_22____13978824____60364
  -OEChem-03222016482D

 19 20  0     0  0  0  0  0  0999 V2000
   -0.8705    2.5032    0.0000 C   0  0  0  0  0  0  0  0  0  0  0  0
   -0.8675    1.5032    0.0000 O   0  0  0  0  0  0  0  0  0  0  0  0
    0.0000    1.0058    0.0000 C   0  0  0  0  0  0  0  0  0  0  0  0
    0.0000    0.0000    0.0000 C   0  0  0  0  0  0  0  0  0  0  0  0
    0.8680   -0.4978    0.0000 C   0  0  0  0  0  0  0  0  0  0  0  0
    1.7360   -0.0012    0.0000 C   0  0  0  0  0  0  0  0  0  0  0  0
    1.7360    1.0058    0.0000 C   0  0  0  0  0  0  0  0  0  0  0  0
    0.8680    1.5138    0.0000 C   0  0  0  0  0  0  0  0  0  0  0  0
    2.6938    1.3169    0.0000 N   0  0  0  0  0  0  0  0  0  0  0  0
    3.2858    0.5023    0.0000 C   0  0  0  0  0  0  0  0  0  0  0  0
    2.6938   -0.3125    0.0000 C   0  0  0  0  0  0  0  0  0  0  0  0
    3.0028   -1.2636    0.0000 C   0  0  0  0  0  0  0  0  0  0  0  0
    3.9809   -1.4715    0.0000 C   0  0  0  0  0  0  0  0  0  0  0  0
    4.2899   -2.4226    0.0000 N   0  0  0  0  0  0  0  0  0  0  0  0
    5.2680   -2.6306    0.0000 C   0  0  0  0  0  0  0  0  0  0  0  0
    5.9372   -1.8874    0.0000 O   0  0  0  0  0  0  0  0  0  0  0  0
    5.5770   -3.5816    0.0000 C   0  0  0  0  0  0  0  0  0  0  0  0
    6.5551   -3.7896    0.0000 S   0  0  0  0  0  0  0  0  0  0  0  0
    6.8641   -4.7407    0.0000 C   0  0  0  0  0  0  0  0  0  0  0  0
  1  2  1  0  0  0  0
  2  3  1  0  0  0  0
  3  8  2  0  0  0  0
  3  4  1  0  0  0  0
  4  5  2  0  0  0  0
  5  6  1  0  0  0  0
  6 11  1  0  0  0  0
  6  7  2  0  0  0  0
  7  8  1  0  0  0  0
  7  9  1  0  0  0  0
  9 10  1  0  0  0  0
 10 11  2  0  0  0  0
 11 12  1  0  0  0  0
 12 13  1  0  0  0  0
 13 14  1  0  0  0  0
 14 15  1  0  0  0  0
 15 16  2  0  0  0  0
 15 17  1  0  0  0  0
 17 18  1  0  0  0  0
 18 19  1  0  0  0  0
M  END
$$$$
s_22____4839448____4832482
  -OEChem-03222016482D

 20 21  0     1  0  0  0  0  0999 V2000
    3.2605   -4.8599    0.0000 C   0  0  0  0  0  0  0  0  0  0  0  0
    2.2824   -4.6519    0.0000 C   0  0  3  0  0  0  0  0  0  0  0  0
    1.6132   -5.3951    0.0000 C   0  0  0  0  0  0  0  0  0  0  0  0
    0.9440   -6.1382    0.0000 N   0  0  0  0  0  0  0  0  0  0  0  0
    1.9734   -3.7009    0.0000 C   0  0  0  0  0  0  0  0  0  0  0  0
    0.9953   -3.4929    0.0000 O   0  0  0  0  0  0  0  0  0  0  0  0
    2.6426   -2.9578    0.0000 N   0  0  0  0  0  0  0  0  0  0  0  0
    2.3336   -2.0067    0.0000 C   0  0  0  0  0  0  0  0  0  0  0  0
    3.0028   -1.2636    0.0000 C   0  0  0  0  0  0  0  0  0  0  0  0
    2.6938   -0.3125    0.0000 C   0  0  0  0  0  0  0  0  0  0  0  0
    3.2858    0.5023    0.0000 C   0  0  0  0  0  0  0  0  0  0  0  0
    2.6938    1.3169    0.0000 N   0  0  0  0  0  0  0  0  0  0  0  0
    1.7360    1.0058    0.0000 C   0  0  0  0  0  0  0  0  0  0  0  0
    1.7360   -0.0012    0.0000 C   0  0  0  0  0  0  0  0  0  0  0  0
    0.8680   -0.4978    0.0000 C   0  0  0  0  0  0  0  0  0  0  0  0
    0.0000    0.0000    0.0000 C   0  0  0  0  0  0  0  0  0  0  0  0
   -0.0000    1.0058    0.0000 C   0  0  0  0  0  0  0  0  0  0  0  0
    0.8680    1.5138    0.0000 C   0  0  0  0  0  0  0  0  0  0  0  0
   -0.8653   -0.5013    0.0000 O   0  0  0  0  0  0  0  0  0  0  0  0
   -0.8639   -1.5013    0.0000 C   0  0  0  0  0  0  0  0  0  0  0  0
  1  2  1  0  0  0  0
  2  3  1  0  0  0  0
  3  4  3  0  0  0  0
  2  5  1  0  0  0  0
  5  6  2  0  0  0  0
  5  7  1  0  0  0  0
  7  8  1  0  0  0  0
  8  9  1  0  0  0  0
  9 10  1  0  0  0  0
 10 14  1  0  0  0  0
 10 11  2  0  0  0  0
 11 12  1  0  0  0  0
 12 13  1  0  0  0  0
 13 18  2  0  0  0  0
 13 14  1  0  0  0  0
 14 15  2  0  0  0  0
 15 16  1  0  0  0  0
 16 17  2  0  0  0  0
 17 18  1  0  0  0  0
 16 19  1  0  0  0  0
 19 20  1  0  0  0  0
M  END
$$$$
s_240690b____7354388____10126850
  -OEChem-03222016482D

 20 21  0     0  0  0  0  0  0999 V2000
    1.2530   -7.0892    0.0000 C   0  0  0  0  0  0  0  0  0  0  0  0
    1.9222   -6.3461    0.0000 N   0  3  0  0  0  0  0  0  0  0  0  0
    1.6132   -5.3951    0.0000 C   0  0  0  0  0  0  0  0  0  0  0  0
    2.2824   -4.6519    0.0000 C   0  0  0  0  0  0  0  0  0  0  0  0
    1.9734   -3.7009    0.0000 C   0  0  0  0  0  0  0  0  0  0  0  0
    0.9953   -3.4929    0.0000 O   0  0  0  0  0  0  0  0  0  0  0  0
    2.6426   -2.9578    0.0000 N   0  0  0  0  0  0  0  0  0  0  0  0
    2.3336   -2.0067    0.0000 C   0  0  0  0  0  0  0  0  0  0  0  0
    3.0028   -1.2636    0.0000 C   0  0  0  0  0  0  0  0  0  0  0  0
    2.6938   -0.3125    0.0000 C   0  0  0  0  0  0  0  0  0  0  0  0
    3.2858    0.5023    0.0000 C   0  0  0  0  0  0  0  0  0  0  0  0
    2.6938    1.3169    0.0000 N   0  0  0  0  0  0  0  0  0  0  0  0
    1.7360    1.0058    0.0000 C   0  0  0  0  0  0  0  0  0  0  0  0
    1.7360   -0.0012    0.0000 C   0  0  0  0  0  0  0  0  0  0  0  0
    0.8680   -0.4978    0.0000 C   0  0  0  0  0  0  0  0  0  0  0  0
    0.0000    0.0000    0.0000 C   0  0  0  0  0  0  0  0  0  0  0  0
   -0.0000    1.0058    0.0000 C   0  0  0  0  0  0  0  0  0  0  0  0
    0.8680    1.5138    0.0000 C   0  0  0  0  0  0  0  0  0  0  0  0
   -0.8653   -0.5013    0.0000 O   0  0  0  0  0  0  0  0  0  0  0  0
   -0.8639   -1.5013    0.0000 C   0  0  0  0  0  0  0  0  0  0  0  0
  1  2  1  0  0  0  0
  2  3  1  0  0  0  0
  3  4  1  0  0  0  0
  4  5  1  0  0  0  0
  5  6  2  0  0  0  0
  5  7  1  0  0  0  0
  7  8  1  0  0  0  0
  8  9  1  0  0  0  0
  9 10  1  0  0  0  0
 10 14  1  0  0  0  0
 10 11  2  0  0  0  0
 11 12  1  0  0  0  0
 12 13  1  0  0  0  0
 13 18  2  0  0  0  0
 13 14  1  0  0  0  0
 14 15  2  0  0  0  0
 15 16  1  0  0  0  0
 16 17  2  0  0  0  0
 17 18  1  0  0  0  0
 16 19  1  0  0  0  0
 19 20  1  0  0  0  0
M  CHG  1   2   1
M  END
$$$$
s_240690b____13978894____7368582
  -OEChem-03222016482D

 19 20  0     0  0  0  0  0  0999 V2000
    6.8641   -4.7407    0.0000 C   0  0  0  0  0  0  0  0  0  0  0  0
    6.5551   -3.7896    0.0000 N   0  3  0  0  0  0  0  0  0  0  0  0
    5.5770   -3.5816    0.0000 C   0  0  0  0  0  0  0  0  0  0  0  0
    5.2680   -2.6306    0.0000 C   0  0  0  0  0  0  0  0  0  0  0  0
    5.9372   -1.8874    0.0000 O   0  0  0  0  0  0  0  0  0  0  0  0
    4.2899   -2.4226    0.0000 N   0  0  0  0  0  0  0  0  0  0  0  0
    3.9809   -1.4715    0.0000 C   0  0  0  0  0  0  0  0  0  0  0  0
    3.0028   -1.2636    0.0000 C   0  0  0  0  0  0  0  0  0  0  0  0
    2.6938   -0.3125    0.0000 C   0  0  0  0  0  0  0  0  0  0  0  0
    3.2858    0.5023    0.0000 C   0  0  0  0  0  0  0  0  0  0  0  0
    2.6938    1.3169    0.0000 N   0  0  0  0  0  0  0  0  0  0  0  0
    1.7360    1.0058    0.0000 C   0  0  0  0  0  0  0  0  0  0  0  0
    1.7360   -0.0012    0.0000 C   0  0  0  0  0  0  0  0  0  0  0  0
    0.8680   -0.4978    0.0000 C   0  0  0  0  0  0  0  0  0  0  0  0
    0.0000    0.0000    0.0000 C   0  0  0  0  0  0  0  0  0  0  0  0
   -0.0000    1.0058    0.0000 C   0  0  0  0  0  0  0  0  0  0  0  0
    0.8680    1.5138    0.0000 C   0  0  0  0  0  0  0  0  0  0  0  0
   -0.8675    1.5032    0.0000 O   0  0  0  0  0  0  0  0  0  0  0  0
   -1.7320    1.0007    0.0000 C   0  0  0  0  0  0  0  0  0  0  0  0
  1  2  1  0  0  0  0
  2  3  1  0  0  0  0
  3  4  1  0  0  0  0
  4  5  2  0  0  0  0
  4  6  1  0  0  0  0
  6  7  1  0  0  0  0
  7  8  1  0  0  0  0
  8  9  1  0  0  0  0
  9 13  1  0  0  0  0
  9 10  2  0  0  0  0
 10 11  1  0  0  0  0
 11 12  1  0  0  0  0
 12 17  2  0  0  0  0
 12 13  1  0  0  0  0
 13 14  2  0  0  0  0
 14 15  1  0  0  0  0
 15 16  2  0  0  0  0
 16 17  1  0  0  0  0
 16 18  1  0  0  0  0
 18 19  1  0  0  0  0
M  CHG  1   2   1
M  END
$$$$
s_22____13978824____58844
  -OEChem-03222016482D

 17 18  0     0  0  0  0  0  0999 V2000
    5.5770   -3.5816    0.0000 C   0  0  0  0  0  0  0  0  0  0  0  0
    5.2680   -2.6306    0.0000 C   0  0  0  0  0  0  0  0  0  0  0  0
    5.9372   -1.8874    0.0000 O   0  0  0  0  0  0  0  0  0  0  0  0
    4.2899   -2.4226    0.0000 N   0  0  0  0  0  0  0  0  0  0  0  0
    3.9809   -1.4715    0.0000 C   0  0  0  0  0  0  0  0  0  0  0  0
    3.0028   -1.2636    0.0000 C   0  0  0  0  0  0  0  0  0  0  0  0
    2.6938   -0.3125    0.0000 C   0  0  0  0  0  0  0  0  0  0  0  0
    3.2858    0.5023    0.0000 C   0  0  0  0  0  0  0  0  0  0  0  0
    2.6938    1.3169    0.0000 N   0  0  0  0  0  0  0  0  0  0  0  0
    1.7360    1.0058    0.0000 C   0  0  0  0  0  0  0  0  0  0  0  0
    1.7360   -0.0012    0.0000 C   0  0  0  0  0  0  0  0  0  0  0  0
    0.8680   -0.4978    0.0000 C   0  0  0  0  0  0  0  0  0  0  0  0
    0.0000    0.0000    0.0000 C   0  0  0  0  0  0  0  0  0  0  0  0
   -0.0000    1.0058    0.0000 C   0  0  0  0  0  0  0  0  0  0  0  0
    0.8680    1.5138    0.0000 C   0  0  0  0  0  0  0  0  0  0  0  0
   -0.8675    1.5032    0.0000 O   0  0  0  0  0  0  0  0  0  0  0  0
   -1.7320    1.0007    0.0000 C   0  0  0  0  0  0  0  0  0  0  0  0
  1  2  1  0  0  0  0
  2  3  2  0  0  0  0
  2  4  1  0  0  0  0
  4  5  1  0  0  0  0
  5  6  1  0  0  0  0
  6  7  1  0  0  0  0
  7 11  1  0  0  0  0
  7  8  2  0  0  0  0
  8  9  1  0  0  0  0
  9 10  1  0  0  0  0
 10 15  2  0  0  0  0
 10 11  1  0  0  0  0
 11 12  2  0  0  0  0
 12 13  1  0  0  0  0
 13 14  2  0  0  0  0
 14 15  1  0  0  0  0
 14 16  1  0  0  0  0
 16 17  1  0  0  0  0
M  END
$$$$
s_22____13025516____58916
  -OEChem-03222016482D

 20 21  0     0  0  0  0  0  0999 V2000
    6.8641   -4.7407    0.0000 C   0  0  0  0  0  0  0  0  0  0  0  0
    6.5551   -3.7896    0.0000 C   0  0  0  0  0  0  0  0  0  0  0  0
    7.2243   -3.0465    0.0000 C   0  0  0  0  0  0  0  0  0  0  0  0
    5.5770   -3.5816    0.0000 C   0  0  0  0  0  0  0  0  0  0  0  0
    5.2680   -2.6306    0.0000 C   0  0  0  0  0  0  0  0  0  0  0  0
    5.9372   -1.8874    0.0000 O   0  0  0  0  0  0  0  0  0  0  0  0
    4.2899   -2.4226    0.0000 N   0  0  0  0  0  0  0  0  0  0  0  0
    3.9809   -1.4715    0.0000 C   0  0  0  0  0  0  0  0  0  0  0  0
    3.0028   -1.2636    0.0000 C   0  0  0  0  0  0  0  0  0  0  0  0
    2.6938   -0.3125    0.0000 C   0  0  0  0  0  0  0  0  0  0  0  0
    3.2858    0.5023    0.0000 C   0  0  0  0  0  0  0  0  0  0  0  0
    2.6938    1.3169    0.0000 N   0  0  0  0  0  0  0  0  0  0  0  0
    1.7360    1.0058    0.0000 C   0  0  0  0  0  0  0  0  0  0  0  0
    1.7360   -0.0012    0.0000 C   0  0  0  0  0  0  0  0  0  0  0  0
    0.8680   -0.4978    0.0000 C   0  0  0  0  0  0  0  0  0  0  0  0
    0.0000    0.0000    0.0000 C   0  0  0  0  0  0  0  0  0  0  0  0
   -0.0000    1.0058    0.0000 C   0  0  0  0  0  0  0  0  0  0  0  0
    0.8680    1.5138    0.0000 C   0  0  0  0  0  0  0  0  0  0  0  0
    0.8675   -1.4978    0.0000 O   0  0  0  0  0  0  0  0  0  0  0  0
    1.7332   -1.9983    0.0000 C   0  0  0  0  0  0  0  0  0  0  0  0
  1  2  1  0  0  0  0
  2  3  1  0  0  0  0
  2  4  1  0  0  0  0
  4  5  1  0  0  0  0
  5  6  2  0  0  0  0
  5  7  1  0  0  0  0
  7  8  1  0  0  0  0
  8  9  1  0  0  0  0
  9 10  1  0  0  0  0
 10 14  1  0  0  0  0
 10 11  2  0  0  0  0
 11 12  1  0  0  0  0
 12 13  1  0  0  0  0
 13 18  2  0  0  0  0
 13 14  1  0  0  0  0
 14 15  2  0  0  0  0
 15 16  1  0  0  0  0
 16 17  2  0  0  0  0
 17 18  1  0  0  0  0
 15 19  1  0  0  0  0
 19 20  1  0  0  0  0
M  END
$$$$
s_22____15775312____9296322
  -OEChem-03222016482D

 25 27  0     0  0  0  0  0  0999 V2000
    6.1949   -5.4838    0.0000 C   0  0  0  0  0  0  0  0  0  0  0  0
    5.8860   -4.5327    0.0000 C   0  0  0  0  0  0  0  0  0  0  0  0
    5.5770   -3.5816    0.0000 C   0  0  0  0  0  0  0  0  0  0  0  0
    5.2680   -2.6306    0.0000 C   0  0  0  0  0  0  0  0  0  0  0  0
    5.9372   -1.8874    0.0000 O   0  0  0  0  0  0  0  0  0  0  0  0
    4.2899   -2.4226    0.0000 N   0  0  0  0  0  0  0  0  0  0  0  0
    3.9809   -1.4715    0.0000 C   0  0  0  0  0  0  0  0  0  0  0  0
    3.0028   -1.2636    0.0000 C   0  0  0  0  0  0  0  0  0  0  0  0
    2.6938   -0.3125    0.0000 C   0  0  0  0  0  0  0  0  0  0  0  0
    3.2858    0.5023    0.0000 C   0  0  0  0  0  0  0  0  0  0  0  0
    2.6938    1.3169    0.0000 N   0  0  0  0  0  0  0  0  0  0  0  0
    1.7360    1.0058    0.0000 C   0  0  0  0  0  0  0  0  0  0  0  0
    1.7360   -0.0012    0.0000 C   0  0  0  0  0  0  0  0  0  0  0  0
    0.8680   -0.4978    0.0000 C   0  0  0  0  0  0  0  0  0  0  0  0
    0.0000    0.0000    0.0000 C   0  0  0  0  0  0  0  0  0  0  0  0
   -0.0000    1.0058    0.0000 C   0  0  0  0  0  0  0  0  0  0  0  0
    0.8680    1.5138    0.0000 C   0  0  0  0  0  0  0  0  0  0  0  0
    0.8675   -1.4978    0.0000 O   0  0  0  0  0  0  0  0  0  0  0  0
    1.7332   -1.9983    0.0000 C   0  0  0  0  0  0  0  0  0  0  0  0
    1.7327   -2.9983    0.0000 C   0  0  0  0  0  0  0  0  0  0  0  0
    2.6045   -3.4987    0.0000 C   0  0  0  0  0  0  0  0  0  0  0  0
    2.6040   -4.4988    0.0000 C   0  0  0  0  0  0  0  0  0  0  0  0
    1.7406   -5.0034    0.0000 C   0  0  0  0  0  0  0  0  0  0  0  0
    0.8689   -4.5029    0.0000 C   0  0  0  0  0  0  0  0  0  0  0  0
    0.8605   -3.4978    0.0000 C   0  0  0  0  0  0  0  0  0  0  0  0
  1  2  1  0  0  0  0
  2  3  3  0  0  0  0
  3  4  1  0  0  0  0
  4  5  2  0  0  0  0
  4  6  1  0  0  0  0
  6  7  1  0  0  0  0
  7  8  1  0  0  0  0
  8  9  1  0  0  0  0
  9 13  1  0  0  0  0
  9 10  2  0  0  0  0
 10 11  1  0  0  0  0
 11 12  1  0  0  0  0
 12 17  2  0  0  0  0
 12 13  1  0  0  0  0
 13 14  2  0  0  0  0
 14 15  1  0  0  0  0
 15 16  2  0  0  0  0
 16 17  1  0  0  0  0
 14 18  1  0  0  0  0
 18 19  1  0  0  0  0
 19 20  1  0  0  0  0
 20 25  2  0  0  0  0
 20 21  1  0  0  0  0
 21 22  2  0  0  0  0
 22 23  1  0  0  0  0
 23 24  2  0  0  0  0
 24 25  1  0  0  0  0
M  END
$$$$
s_22____4839448____16726278
  -OEChem-03222016482D

 21 22  0     0  0  0  0  0  0999 V2000
    8.1512   -5.8997    0.0000 C   0  0  0  0  0  0  0  0  0  0  0  0
    7.8422   -4.9486    0.0000 C   0  0  0  0  0  0  0  0  0  0  0  0
    6.8641   -4.7407    0.0000 C   0  0  0  0  0  0  0  0  0  0  0  0
    6.5551   -3.7896    0.0000 C   0  0  0  0  0  0  0  0  0  0  0  0
    5.5770   -3.5816    0.0000 C   0  0  0  0  0  0  0  0  0  0  0  0
    5.2680   -2.6306    0.0000 C   0  0  0  0  0  0  0  0  0  0  0  0
    5.9372   -1.8874    0.0000 O   0  0  0  0  0  0  0  0  0  0  0  0
    4.2899   -2.4226    0.0000 N   0  0  0  0  0  0  0  0  0  0  0  0
    3.9809   -1.4715    0.0000 C   0  0  0  0  0  0  0  0  0  0  0  0
    3.0028   -1.2636    0.0000 C   0  0  0  0  0  0  0  0  0  0  0  0
    2.6938   -0.3125    0.0000 C   0  0  0  0  0  0  0  0  0  0  0  0
    3.2858    0.5023    0.0000 C   0  0  0  0  0  0  0  0  0  0  0  0
    2.6938    1.3169    0.0000 N   0  0  0  0  0  0  0  0  0  0  0  0
    1.7360    1.0058    0.0000 C   0  0  0  0  0  0  0  0  0  0  0  0
    1.7360   -0.0012    0.0000 C   0  0  0  0  0  0  0  0  0  0  0  0
    0.8680   -0.4978    0.0000 C   0  0  0  0  0  0  0  0  0  0  0  0
    0.0000    0.0000    0.0000 C   0  0  0  0  0  0  0  0  0  0  0  0
   -0.0000    1.0058    0.0000 C   0  0  0  0  0  0  0  0  0  0  0  0
    0.8680    1.5138    0.0000 C   0  0  0  0  0  0  0  0  0  0  0  0
   -0.8653   -0.5013    0.0000 O   0  0  0  0  0  0  0  0  0  0  0  0
   -0.8639   -1.5013    0.0000 C   0  0  0  0  0  0  0  0  0  0  0  0
  1  2  1  0  0  0  0
  2  3  2  3  0  0  0
  3  4  1  0  0  0  0
  4  5  1  0  0  0  0
  5  6  1  0  0  0  0
  6  7  2  0  0  0  0
  6  8  1  0  0  0  0
  8  9  1  0  0  0  0
  9 10  1  0  0  0  0
 10 11  1  0  0  0  0
 11 15  1  0  0  0  0
 11 12  2  0  0  0  0
 12 13  1  0  0  0  0
 13 14  1  0  0  0  0
 14 19  2  0  0  0  0
 14 15  1  0  0  0  0
 15 16  2  0  0  0  0
 16 17  1  0  0  0  0
 17 18  2  0  0  0  0
 18 19  1  0  0  0  0
 17 20  1  0  0  0  0
 20 21  1  0  0  0  0
M  END
$$$$
s_22____12346432____58887
  -OEChem-03222016482D

 17 18  0     0  0  0  0  0  0999 V2000
    1.6132   -5.3951    0.0000 C   0  0  0  0  0  0  0  0  0  0  0  0
    2.2824   -4.6519    0.0000 C   0  0  0  0  0  0  0  0  0  0  0  0
    1.9734   -3.7009    0.0000 C   0  0  0  0  0  0  0  0  0  0  0  0
    0.9953   -3.4929    0.0000 O   0  0  0  0  0  0  0  0  0  0  0  0
    2.6426   -2.9578    0.0000 N   0  0  0  0  0  0  0  0  0  0  0  0
    2.3336   -2.0067    0.0000 C   0  0  0  0  0  0  0  0  0  0  0  0
    3.0028   -1.2636    0.0000 C   0  0  0  0  0  0  0  0  0  0  0  0
    2.6938   -0.3125    0.0000 C   0  0  0  0  0  0  0  0  0  0  0  0
    3.2858    0.5023    0.0000 C   0  0  0  0  0  0  0  0  0  0  0  0
    2.6938    1.3169    0.0000 N   0  0  0  0  0  0  0  0  0  0  0  0
    1.7360    1.0058    0.0000 C   0  0  0  0  0  0  0  0  0  0  0  0
    1.7360   -0.0012    0.0000 C   0  0  0  0  0  0  0  0  0  0  0  0
    0.8680   -0.4978    0.0000 C   0  0  0  0  0  0  0  0  0  0  0  0
    0.0000    0.0000    0.0000 C   0  0  0  0  0  0  0  0  0  0  0  0
   -0.0000    1.0058    0.0000 C   0  0  0  0  0  0  0  0  0  0  0  0
    0.8680    1.5138    0.0000 C   0  0  0  0  0  0  0  0  0  0  0  0
    0.8680    2.5138    0.0000 Cl  0  0  0  0  0  0  0  0  0  0  0  0
  1  2  1  0  0  0  0
  2  3  1  0  0  0  0
  3  4  2  0  0  0  0
  3  5  1  0  0  0  0
  5  6  1  0  0  0  0
  6  7  1  0  0  0  0
  7  8  1  0  0  0  0
  8 12  1  0  0  0  0
  8  9  2  0  0  0  0
  9 10  1  0  0  0  0
 10 11  1  0  0  0  0
 11 16  2  0  0  0  0
 11 12  1  0  0  0  0
 12 13  2  0  0  0  0
 13 14  1  0  0  0  0
 14 15  2  0  0  0  0
 15 16  1  0  0  0  0
 16 17  1  0  0  0  0
M  END
$$$$
s_270004____8334182____15269820
  -OEChem-03222016482D

 20 21  0     0  0  0  0  0  0999 V2000
    0.0012   -1.9973    0.0000 C   0  0  0  0  0  0  0  0  0  0  0  0
    0.8675   -1.4978    0.0000 O   0  0  0  0  0  0  0  0  0  0  0  0
    0.8680   -0.4978    0.0000 C   0  0  0  0  0  0  0  0  0  0  0  0
    0.0000    0.0000    0.0000 C   0  0  0  0  0  0  0  0  0  0  0  0
   -0.0000    1.0058    0.0000 C   0  0  0  0  0  0  0  0  0  0  0  0
    0.8680    1.5138    0.0000 C   0  0  0  0  0  0  0  0  0  0  0  0
    1.7360    1.0058    0.0000 C   0  0  0  0  0  0  0  0  0  0  0  0
    1.7360   -0.0012    0.0000 C   0  0  0  0  0  0  0  0  0  0  0  0
    2.6938   -0.3125    0.0000 C   0  0  0  0  0  0  0  0  0  0  0  0
    3.2858    0.5023    0.0000 C   0  0  0  0  0  0  0  0  0  0  0  0
    2.6938    1.3169    0.0000 N   0  0  0  0  0  0  0  0  0  0  0  0
    4.2858    0.5024    0.0000 C   0  0  0  0  0  0  0  0  0  0  0  0
    4.7857    1.3684    0.0000 N   0  3  0  0  0  0  0  0  0  0  0  0
    5.7857    1.3685    0.0000 C   0  0  0  0  0  0  0  0  0  0  0  0
    6.2857    2.2345    0.0000 C   0  0  0  0  0  0  0  0  0  0  0  0
    5.7856    3.1005    0.0000 O   0  0  0  0  0  0  0  0  0  0  0  0
    7.2857    2.2346    0.0000 N   0  0  0  0  0  0  0  0  0  0  0  0
    7.7856    3.1006    0.0000 C   0  0  0  0  0  0  0  0  0  0  0  0
    8.7856    3.1007    0.0000 C   0  0  0  0  0  0  0  0  0  0  0  0
    9.2856    3.9668    0.0000 C   0  0  0  0  0  0  0  0  0  0  0  0
  1  2  1  0  0  0  0
  2  3  1  0  0  0  0
  3  8  2  0  0  0  0
  3  4  1  0  0  0  0
  4  5  2  0  0  0  0
  5  6  1  0  0  0  0
  6  7  2  0  0  0  0
  7 11  1  0  0  0  0
  7  8  1  0  0  0  0
  8  9  1  0  0  0  0
  9 10  2  0  0  0  0
 10 11  1  0  0  0  0
 10 12  1  0  0  0  0
 12 13  1  0  0  0  0
 13 14  1  0  0  0  0
 14 15  1  0  0  0  0
 15 16  2  0  0  0  0
 15 17  1  0  0  0  0
 17 18  1  0  0  0  0
 18 19  1  0  0  0  0
 19 20  2  0  0  0  0
M  CHG  1  13   1
M  END
$$$$
s_22____13771018____60364
  -OEChem-03222016482D

 21 22  0     0  0  0  0  0  0999 V2000
   -3.4641   -0.0050    0.0000 C   0  0  0  0  0  0  0  0  0  0  0  0
   -2.5974   -0.5038    0.0000 C   0  0  0  0  0  0  0  0  0  0  0  0
   -1.7320   -0.0025    0.0000 C   0  0  0  0  0  0  0  0  0  0  0  0
   -0.8653   -0.5013    0.0000 O   0  0  0  0  0  0  0  0  0  0  0  0
    0.0000    0.0000    0.0000 C   0  0  0  0  0  0  0  0  0  0  0  0
   -0.0000    1.0058    0.0000 C   0  0  0  0  0  0  0  0  0  0  0  0
    0.8680    1.5138    0.0000 C   0  0  0  0  0  0  0  0  0  0  0  0
    1.7360    1.0058    0.0000 C   0  0  0  0  0  0  0  0  0  0  0  0
    1.7360   -0.0012    0.0000 C   0  0  0  0  0  0  0  0  0  0  0  0
    0.8680   -0.4978    0.0000 C   0  0  0  0  0  0  0  0  0  0  0  0
    2.6938   -0.3125    0.0000 C   0  0  0  0  0  0  0  0  0  0  0  0
    3.2858    0.5023    0.0000 C   0  0  0  0  0  0  0  0  0  0  0  0
    2.6938    1.3169    0.0000 N   0  0  0  0  0  0  0  0  0  0  0  0
    3.0028   -1.2636    0.0000 C   0  0  0  0  0  0  0  0  0  0  0  0
    3.9809   -1.4715    0.0000 C   0  0  0  0  0  0  0  0  0  0  0  0
    4.2899   -2.4226    0.0000 N   0  0  0  0  0  0  0  0  0  0  0  0
    5.2680   -2.6306    0.0000 C   0  0  0  0  0  0  0  0  0  0  0  0
    5.9372   -1.8874    0.0000 O   0  0  0  0  0  0  0  0  0  0  0  0
    5.5770   -3.5816    0.0000 C   0  0  0  0  0  0  0  0  0  0  0  0
    6.5551   -3.7896    0.0000 S   0  0  0  0  0  0  0  0  0  0  0  0
    6.8641   -4.7407    0.0000 C   0  0  0  0  0  0  0  0  0  0  0  0
  1  2  1  0  0  0  0
  2  3  1  0  0  0  0
  3  4  1  0  0  0  0
  4  5  1  0  0  0  0
  5 10  2  0  0  0  0
  5  6  1  0  0  0  0
  6  7  2  0  0  0  0
  7  8  1  0  0  0  0
  8 13  1  0  0  0  0
  8  9  2  0  0  0  0
  9 10  1  0  0  0  0
  9 11  1  0  0  0  0
 11 12  2  0  0  0  0
 12 13  1  0  0  0  0
 11 14  1  0  0  0  0
 14 15  1  0  0  0  0
 15 16  1  0  0  0  0
 16 17  1  0  0  0  0
 17 18  2  0  0  0  0
 17 19  1  0  0  0  0
 19 20  1  0  0  0  0
 20 21  1  0  0  0  0
M  END
$$$$
s_270062____12854466____8147258
  -OEChem-03222016482D

 18 19  0     0  0  0  0  0  0999 V2000
    4.2858    0.5024    0.0000 C   0  0  0  0  0  0  0  0  0  0  0  0
    3.2858    0.5023    0.0000 C   0  0  0  0  0  0  0  0  0  0  0  0
    2.6938   -0.3125    0.0000 C   0  0  0  0  0  0  0  0  0  0  0  0
    1.7360   -0.0012    0.0000 C   0  0  0  0  0  0  0  0  0  0  0  0
    0.8680   -0.4978    0.0000 C   0  0  0  0  0  0  0  0  0  0  0  0
    0.0000    0.0000    0.0000 C   0  0  0  0  0  0  0  0  0  0  0  0
    0.0000    1.0058    0.0000 C   0  0  0  0  0  0  0  0  0  0  0  0
    0.8680    1.5138    0.0000 C   0  0  0  0  0  0  0  0  0  0  0  0
    1.7360    1.0058    0.0000 C   0  0  0  0  0  0  0  0  0  0  0  0
    2.6938    1.3169    0.0000 N   0  0  0  0  0  0  0  0  0  0  0  0
   -0.8675    1.5032    0.0000 F   0  0  0  0  0  0  0  0  0  0  0  0
    3.0028   -1.2636    0.0000 C   0  0  0  0  0  0  0  0  0  0  0  0
    3.9809   -1.4715    0.0000 C   0  0  0  0  0  0  0  0  0  0  0  0
    4.2899   -2.4226    0.0000 N   0  0  0  0  0  0  0  0  0  0  0  0
    5.2680   -2.6306    0.0000 C   0  0  0  0  0  0  0  0  0  0  0  0
    5.9372   -1.8874    0.0000 O   0  0  0  0  0  0  0  0  0  0  0  0
    5.5770   -3.5816    0.0000 C   0  0  0  0  0  0  0  0  0  0  0  0
    6.5551   -3.7896    0.0000 Cl  0  0  0  0  0  0  0  0  0  0  0  0
  1  2  1  0  0  0  0
  2 10  1  0  0  0  0
  2  3  2  0  0  0  0
  3  4  1  0  0  0  0
  4  9  2  0  0  0  0
  4  5  1  0  0  0  0
  5  6  2  0  0  0  0
  6  7  1  0  0  0  0
  7  8  2  0  0  0  0
  8  9  1  0  0  0  0
  9 10  1  0  0  0  0
  7 11  1  0  0  0  0
  3 12  1  0  0  0  0
 12 13  1  0  0  0  0
 13 14  1  0  0  0  0
 14 15  1  0  0  0  0
 15 16  2  0  0  0  0
 15 17  1  0  0  0  0
 17 18  1  0  0  0  0
M  END
$$$$
s_22____15144084____58887
  -OEChem-03222016482D

 18 19  0     0  0  0  0  0  0999 V2000
    1.6132   -5.3951    0.0000 C   0  0  0  0  0  0  0  0  0  0  0  0
    2.2824   -4.6519    0.0000 C   0  0  0  0  0  0  0  0  0  0  0  0
    1.9734   -3.7009    0.0000 C   0  0  0  0  0  0  0  0  0  0  0  0
    0.9953   -3.4929    0.0000 O   0  0  0  0  0  0  0  0  0  0  0  0
    2.6426   -2.9578    0.0000 N   0  0  0  0  0  0  0  0  0  0  0  0
    2.3336   -2.0067    0.0000 C   0  0  0  0  0  0  0  0  0  0  0  0
    3.0028   -1.2636    0.0000 C   0  0  0  0  0  0  0  0  0  0  0  0
    2.6938   -0.3125    0.0000 C   0  0  0  0  0  0  0  0  0  0  0  0
    3.2858    0.5023    0.0000 C   0  0  0  0  0  0  0  0  0  0  0  0
    2.6938    1.3169    0.0000 N   0  0  0  0  0  0  0  0  0  0  0  0
    1.7360    1.0058    0.0000 C   0  0  0  0  0  0  0  0  0  0  0  0
    1.7360   -0.0012    0.0000 C   0  0  0  0  0  0  0  0  0  0  0  0
    0.8680   -0.4978    0.0000 C   0  0  0  0  0  0  0  0  0  0  0  0
    0.0000    0.0000    0.0000 C   0  0  0  0  0  0  0  0  0  0  0  0
   -0.0000    1.0058    0.0000 C   0  0  0  0  0  0  0  0  0  0  0  0
    0.8680    1.5138    0.0000 C   0  0  0  0  0  0  0  0  0  0  0  0
   -0.8675    1.5032    0.0000 F   0  0  0  0  0  0  0  0  0  0  0  0
    0.8675   -1.4978    0.0000 F   0  0  0  0  0  0  0  0  0  0  0  0
  1  2  1  0  0  0  0
  2  3  1  0  0  0  0
  3  4  2  0  0  0  0
  3  5  1  0  0  0  0
  5  6  1  0  0  0  0
  6  7  1  0  0  0  0
  7  8  1  0  0  0  0
  8 12  1  0  0  0  0
  8  9  2  0  0  0  0
  9 10  1  0  0  0  0
 10 11  1  0  0  0  0
 11 16  2  0  0  0  0
 11 12  1  0  0  0  0
 12 13  2  0  0  0  0
 13 14  1  0  0  0  0
 14 15  2  0  0  0  0
 15 16  1  0  0  0  0
 15 17  1  0  0  0  0
 13 18  1  0  0  0  0
M  END
$$$$
s_22____4839448____7941096
  -OEChem-03222016482D

 19 20  0     1  0  0  0  0  0999 V2000
    4.9078   -4.3247    0.0000 C   0  0  0  0  0  0  0  0  0  0  0  0
    5.5770   -3.5816    0.0000 C   0  0  3  0  0  0  0  0  0  0  0  0
    5.2680   -2.6306    0.0000 C   0  0  0  0  0  0  0  0  0  0  0  0
    5.9372   -1.8874    0.0000 O   0  0  0  0  0  0  0  0  0  0  0  0
    4.2899   -2.4226    0.0000 N   0  0  0  0  0  0  0  0  0  0  0  0
    3.9809   -1.4715    0.0000 C   0  0  0  0  0  0  0  0  0  0  0  0
    3.0028   -1.2636    0.0000 C   0  0  0  0  0  0  0  0  0  0  0  0
    2.6938   -0.3125    0.0000 C   0  0  0  0  0  0  0  0  0  0  0  0
    3.2858    0.5023    0.0000 C   0  0  0  0  0  0  0  0  0  0  0  0
    2.6938    1.3169    0.0000 N   0  0  0  0  0  0  0  0  0  0  0  0
    1.7360    1.0058    0.0000 C   0  0  0  0  0  0  0  0  0  0  0  0
    1.7360   -0.0012    0.0000 C   0  0  0  0  0  0  0  0  0  0  0  0
    0.8680   -0.4978    0.0000 C   0  0  0  0  0  0  0  0  0  0  0  0
    0.0000    0.0000    0.0000 C   0  0  0  0  0  0  0  0  0  0  0  0
   -0.0000    1.0058    0.0000 C   0  0  0  0  0  0  0  0  0  0  0  0
    0.8680    1.5138    0.0000 C   0  0  0  0  0  0  0  0  0  0  0  0
   -0.8653   -0.5013    0.0000 O   0  0  0  0  0  0  0  0  0  0  0  0
   -0.8639   -1.5013    0.0000 C   0  0  0  0  0  0  0  0  0  0  0  0
    6.5551   -3.7896    0.0000 O   0  0  0  0  0  0  0  0  0  0  0  0
  1  2  1  0  0  0  0
  2  3  1  0  0  0  0
  3  4  2  0  0  0  0
  3  5  1  0  0  0  0
  5  6  1  0  0  0  0
  6  7  1  0  0  0  0
  7  8  1  0  0  0  0
  8 12  1  0  0  0  0
  8  9  2  0  0  0  0
  9 10  1  0  0  0  0
 10 11  1  0  0  0  0
 11 16  2  0  0  0  0
 11 12  1  0  0  0  0
 12 13  2  0  0  0  0
 13 14  1  0  0  0  0
 14 15  2  0  0  0  0
 15 16  1  0  0  0  0
 14 17  1  0  0  0  0
 17 18  1  0  0  0  0
  2 19  1  0  0  0  0
M  END
$$$$
s_22____15506616____59039
  -OEChem-03222016482D

 19 20  0     0  0  0  0  0  0999 V2000
    6.8641   -4.7407    0.0000 C   0  0  0  0  0  0  0  0  0  0  0  0
    6.5551   -3.7896    0.0000 O   0  0  0  0  0  0  0  0  0  0  0  0
    5.5770   -3.5816    0.0000 C   0  0  0  0  0  0  0  0  0  0  0  0
    5.2680   -2.6306    0.0000 C   0  0  0  0  0  0  0  0  0  0  0  0
    5.9372   -1.8874    0.0000 O   0  0  0  0  0  0  0  0  0  0  0  0
    4.2899   -2.4226    0.0000 N   0  0  0  0  0  0  0  0  0  0  0  0
    3.9809   -1.4715    0.0000 C   0  0  0  0  0  0  0  0  0  0  0  0
    3.0028   -1.2636    0.0000 C   0  0  0  0  0  0  0  0  0  0  0  0
    2.6938   -0.3125    0.0000 C   0  0  0  0  0  0  0  0  0  0  0  0
    3.2858    0.5023    0.0000 C   0  0  0  0  0  0  0  0  0  0  0  0
    2.6938    1.3169    0.0000 N   0  0  0  0  0  0  0  0  0  0  0  0
    1.7360    1.0058    0.0000 C   0  0  0  0  0  0  0  0  0  0  0  0
    1.7360   -0.0012    0.0000 C   0  0  0  0  0  0  0  0  0  0  0  0
    0.8680   -0.4978    0.0000 C   0  0  0  0  0  0  0  0  0  0  0  0
    0.0000    0.0000    0.0000 C   0  0  0  0  0  0  0  0  0  0  0  0
   -0.0000    1.0058    0.0000 C   0  0  0  0  0  0  0  0  0  0  0  0
    0.8680    1.5138    0.0000 C   0  0  0  0  0  0  0  0  0  0  0  0
    0.8680    2.5138    0.0000 O   0  0  0  0  0  0  0  0  0  0  0  0
    0.0020    3.0138    0.0000 C   0  0  0  0  0  0  0  0  0  0  0  0
  1  2  1  0  0  0  0
  2  3  1  0  0  0  0
  3  4  1  0  0  0  0
  4  5  2  0  0  0  0
  4  6  1  0  0  0  0
  6  7  1  0  0  0  0
  7  8  1  0  0  0  0
  8  9  1  0  0  0  0
  9 13  1  0  0  0  0
  9 10  2  0  0  0  0
 10 11  1  0  0  0  0
 11 12  1  0  0  0  0
 12 17  2  0  0  0  0
 12 13  1  0  0  0  0
 13 14  2  0  0  0  0
 14 15  1  0  0  0  0
 15 16  2  0  0  0  0
 16 17  1  0  0  0  0
 17 18  1  0  0  0  0
 18 19  1  0  0  0  0
M  END
$$$$
s_270004____8299360____15269820
  -OEChem-03222016482D

 21 22  0     0  0  0  0  0  0999 V2000
    5.4199   -1.7296    0.0000 C   0  0  0  0  0  0  0  0  0  0  0  0
    6.2859   -1.2296    0.0000 C   0  0  0  0  0  0  0  0  0  0  0  0
    7.1519   -0.7295    0.0000 C   0  0  0  0  0  0  0  0  0  0  0  0
    5.7859   -0.3636    0.0000 C   0  0  0  0  0  0  0  0  0  0  0  0
    4.7859   -0.3636    0.0000 N   0  3  0  0  0  0  0  0  0  0  0  0
    4.2858    0.5024    0.0000 C   0  0  0  0  0  0  0  0  0  0  0  0
    3.2858    0.5023    0.0000 C   0  0  0  0  0  0  0  0  0  0  0  0
    2.6938   -0.3125    0.0000 C   0  0  0  0  0  0  0  0  0  0  0  0
    1.7360   -0.0012    0.0000 C   0  0  0  0  0  0  0  0  0  0  0  0
    1.7360    1.0058    0.0000 C   0  0  0  0  0  0  0  0  0  0  0  0
    2.6938    1.3169    0.0000 N   0  0  0  0  0  0  0  0  0  0  0  0
    0.8680    1.5138    0.0000 C   0  0  0  0  0  0  0  0  0  0  0  0
    0.0000    1.0058    0.0000 C   0  0  0  0  0  0  0  0  0  0  0  0
    0.0000    0.0000    0.0000 C   0  0  0  0  0  0  0  0  0  0  0  0
    0.8680   -0.4978    0.0000 C   0  0  0  0  0  0  0  0  0  0  0  0
    0.8675   -1.4978    0.0000 O   0  0  0  0  0  0  0  0  0  0  0  0
    1.7332   -1.9983    0.0000 C   0  0  0  0  0  0  0  0  0  0  0  0
    6.7860   -2.0956    0.0000 C   0  0  0  0  0  0  0  0  0  0  0  0
    6.2860   -2.9616    0.0000 O   0  0  0  0  0  0  0  0  0  0  0  0
    7.7860   -2.0955    0.0000 N   0  0  0  0  0  0  0  0  0  0  0  0
    8.2860   -2.9615    0.0000 C   0  0  0  0  0  0  0  0  0  0  0  0
  1  2  1  0  0  0  0
  2  3  1  0  0  0  0
  2  4  1  0  0  0  0
  4  5  1  0  0  0  0
  5  6  1  0  0  0  0
  6  7  1  0  0  0  0
  7 11  1  0  0  0  0
  7  8  2  0  0  0  0
  8  9  1  0  0  0  0
  9 15  2  0  0  0  0
  9 10  1  0  0  0  0
 10 11  1  0  0  0  0
 10 12  2  0  0  0  0
 12 13  1  0  0  0  0
 13 14  2  0  0  0  0
 14 15  1  0  0  0  0
 15 16  1  0  0  0  0
 16 17  1  0  0  0  0
  2 18  1  0  0  0  0
 18 19  2  0  0  0  0
 18 20  1  0  0  0  0
 20 21  1  0  0  0  0
M  CHG  1   5   1
M  END
$$$$
s_240690b____13612076____3025680
  -OEChem-03222016482D

 18 19  0     0  0  0  0  0  0999 V2000
   -0.8653   -0.5013    0.0000 C   0  0  0  0  0  0  0  0  0  0  0  0
    0.0000    0.0000    0.0000 C   0  0  0  0  0  0  0  0  0  0  0  0
   -0.0000    1.0058    0.0000 C   0  0  0  0  0  0  0  0  0  0  0  0
    0.8680    1.5138    0.0000 C   0  0  0  0  0  0  0  0  0  0  0  0
    1.7360    1.0058    0.0000 C   0  0  0  0  0  0  0  0  0  0  0  0
    1.7360   -0.0012    0.0000 C   0  0  0  0  0  0  0  0  0  0  0  0
    0.8680   -0.4978    0.0000 C   0  0  0  0  0  0  0  0  0  0  0  0
    2.6938   -0.3125    0.0000 C   0  0  0  0  0  0  0  0  0  0  0  0
    3.2858    0.5023    0.0000 C   0  0  0  0  0  0  0  0  0  0  0  0
    2.6938    1.3169    0.0000 N   0  0  0  0  0  0  0  0  0  0  0  0
    3.0028   -1.2636    0.0000 C   0  0  0  0  0  0  0  0  0  0  0  0
    3.9809   -1.4715    0.0000 C   0  0  0  0  0  0  0  0  0  0  0  0
    4.2899   -2.4226    0.0000 N   0  0  0  0  0  0  0  0  0  0  0  0
    5.2680   -2.6306    0.0000 C   0  0  0  0  0  0  0  0  0  0  0  0
    5.9372   -1.8874    0.0000 O   0  0  0  0  0  0  0  0  0  0  0  0
    5.5770   -3.5816    0.0000 C   0  0  0  0  0  0  0  0  0  0  0  0
    6.5551   -3.7896    0.0000 C   0  0  0  0  0  0  0  0  0  0  0  0
    6.8641   -4.7407    0.0000 N   0  3  0  0  0  0  0  0  0  0  0  0
  1  2  1  0  0  0  0
  2  7  2  0  0  0  0
  2  3  1  0  0  0  0
  3  4  2  0  0  0  0
  4  5  1  0  0  0  0
  5 10  1  0  0  0  0
  5  6  2  0  0  0  0
  6  7  1  0  0  0  0
  6  8  1  0  0  0  0
  8  9  2  0  0  0  0
  9 10  1  0  0  0  0
  8 11  1  0  0  0  0
 11 12  1  0  0  0  0
 12 13  1  0  0  0  0
 13 14  1  0  0  0  0
 14 15  2  0  0  0  0
 14 16  1  0  0  0  0
 16 17  1  0  0  0  0
 17 18  1  0  0  0  0
M  CHG  1  18   1
M  END
$$$$
s_527a____17548202____156031
  -OEChem-03222016482D

 17 18  0     0  0  0  0  0  0999 V2000
    4.2858    0.5024    0.0000 C   0  0  0  0  0  0  0  0  0  0  0  0
    3.2858    0.5023    0.0000 C   0  0  0  0  0  0  0  0  0  0  0  0
    2.6938   -0.3125    0.0000 C   0  0  0  0  0  0  0  0  0  0  0  0
    1.7360   -0.0012    0.0000 C   0  0  0  0  0  0  0  0  0  0  0  0
    0.8680   -0.4978    0.0000 C   0  0  0  0  0  0  0  0  0  0  0  0
    0.0000    0.0000    0.0000 C   0  0  0  0  0  0  0  0  0  0  0  0
    0.0000    1.0058    0.0000 C   0  0  0  0  0  0  0  0  0  0  0  0
    0.8680    1.5138    0.0000 C   0  0  0  0  0  0  0  0  0  0  0  0
    1.7360    1.0058    0.0000 C   0  0  0  0  0  0  0  0  0  0  0  0
    2.6938    1.3169    0.0000 N   0  0  0  0  0  0  0  0  0  0  0  0
   -0.8653   -0.5013    0.0000 Br  0  0  0  0  0  0  0  0  0  0  0  0
    3.0028   -1.2636    0.0000 C   0  0  0  0  0  0  0  0  0  0  0  0
    3.9809   -1.4715    0.0000 C   0  0  0  0  0  0  0  0  0  0  0  0
    4.2899   -2.4226    0.0000 N   0  0  0  0  0  0  0  0  0  0  0  0
    5.2680   -2.6306    0.0000 C   0  0  0  0  0  0  0  0  0  0  0  0
    5.9372   -1.8874    0.0000 O   0  0  0  0  0  0  0  0  0  0  0  0
    5.5770   -3.5816    0.0000 C   0  0  0  0  0  0  0  0  0  0  0  0
  1  2  1  0  0  0  0
  2 10  1  0  0  0  0
  2  3  2  0  0  0  0
  3  4  1  0  0  0  0
  4  9  2  0  0  0  0
  4  5  1  0  0  0  0
  5  6  2  0  0  0  0
  6  7  1  0  0  0  0
  7  8  2  0  0  0  0
  8  9  1  0  0  0  0
  9 10  1  0  0  0  0
  6 11  1  0  0  0  0
  3 12  1  0  0  0  0
 12 13  1  0  0  0  0
 13 14  1  0  0  0  0
 14 15  1  0  0  0  0
 15 16  2  0  0  0  0
 15 17  1  0  0  0  0
M  END
$$$$
s_22____4839448____58866
  -OEChem-03222016482D

 19 20  0     0  0  0  0  0  0999 V2000
    6.8641   -4.7407    0.0000 C   0  0  0  0  0  0  0  0  0  0  0  0
    6.5551   -3.7896    0.0000 C   0  0  0  0  0  0  0  0  0  0  0  0
    5.5770   -3.5816    0.0000 C   0  0  0  0  0  0  0  0  0  0  0  0
    5.2680   -2.6306    0.0000 C   0  0  0  0  0  0  0  0  0  0  0  0
    5.9372   -1.8874    0.0000 O   0  0  0  0  0  0  0  0  0  0  0  0
    4.2899   -2.4226    0.0000 N   0  0  0  0  0  0  0  0  0  0  0  0
    3.9809   -1.4715    0.0000 C   0  0  0  0  0  0  0  0  0  0  0  0
    3.0028   -1.2636    0.0000 C   0  0  0  0  0  0  0  0  0  0  0  0
    2.6938   -0.3125    0.0000 C   0  0  0  0  0  0  0  0  0  0  0  0
    3.2858    0.5023    0.0000 C   0  0  0  0  0  0  0  0  0  0  0  0
    2.6938    1.3169    0.0000 N   0  0  0  0  0  0  0  0  0  0  0  0
    1.7360    1.0058    0.0000 C   0  0  0  0  0  0  0  0  0  0  0  0
    1.7360   -0.0012    0.0000 C   0  0  0  0  0  0  0  0  0  0  0  0
    0.8680   -0.4978    0.0000 C   0  0  0  0  0  0  0  0  0  0  0  0
    0.0000    0.0000    0.0000 C   0  0  0  0  0  0  0  0  0  0  0  0
   -0.0000    1.0058    0.0000 C   0  0  0  0  0  0  0  0  0  0  0  0
    0.8680    1.5138    0.0000 C   0  0  0  0  0  0  0  0  0  0  0  0
   -0.8653   -0.5013    0.0000 O   0  0  0  0  0  0  0  0  0  0  0  0
   -0.8639   -1.5013    0.0000 C   0  0  0  0  0  0  0  0  0  0  0  0
  1  2  1  0  0  0  0
  2  3  1  0  0  0  0
  3  4  1  0  0  0  0
  4  5  2  0  0  0  0
  4  6  1  0  0  0  0
  6  7  1  0  0  0  0
  7  8  1  0  0  0  0
  8  9  1  0  0  0  0
  9 13  1  0  0  0  0
  9 10  2  0  0  0  0
 10 11  1  0  0  0  0
 11 12  1  0  0  0  0
 12 17  2  0  0  0  0
 12 13  1  0  0  0  0
 13 14  2  0  0  0  0
 14 15  1  0  0  0  0
 15 16  2  0  0  0  0
 16 17  1  0  0  0  0
 15 18  1  0  0  0  0
 18 19  1  0  0  0  0
M  END
$$$$
s_22____15506616____12111294
  -OEChem-03222016482D

 20 21  0     1  0  0  0  0  0999 V2000
    3.2605   -4.8599    0.0000 C   0  0  0  0  0  0  0  0  0  0  0  0
    2.2824   -4.6519    0.0000 C   0  0  3  0  0  0  0  0  0  0  0  0
    1.6132   -5.3951    0.0000 C   0  0  0  0  0  0  0  0  0  0  0  0
    1.9222   -6.3461    0.0000 F   0  0  0  0  0  0  0  0  0  0  0  0
    1.9734   -3.7009    0.0000 C   0  0  0  0  0  0  0  0  0  0  0  0
    0.9953   -3.4929    0.0000 O   0  0  0  0  0  0  0  0  0  0  0  0
    2.6426   -2.9578    0.0000 N   0  0  0  0  0  0  0  0  0  0  0  0
    2.3336   -2.0067    0.0000 C   0  0  0  0  0  0  0  0  0  0  0  0
    3.0028   -1.2636    0.0000 C   0  0  0  0  0  0  0  0  0  0  0  0
    2.6938   -0.3125    0.0000 C   0  0  0  0  0  0  0  0  0  0  0  0
    3.2858    0.5023    0.0000 C   0  0  0  0  0  0  0  0  0  0  0  0
    2.6938    1.3169    0.0000 N   0  0  0  0  0  0  0  0  0  0  0  0
    1.7360    1.0058    0.0000 C   0  0  0  0  0  0  0  0  0  0  0  0
    1.7360   -0.0012    0.0000 C   0  0  0  0  0  0  0  0  0  0  0  0
    0.8680   -0.4978    0.0000 C   0  0  0  0  0  0  0  0  0  0  0  0
    0.0000    0.0000    0.0000 C   0  0  0  0  0  0  0  0  0  0  0  0
   -0.0000    1.0058    0.0000 C   0  0  0  0  0  0  0  0  0  0  0  0
    0.8680    1.5138    0.0000 C   0  0  0  0  0  0  0  0  0  0  0  0
    0.8680    2.5138    0.0000 O   0  0  0  0  0  0  0  0  0  0  0  0
    0.0020    3.0138    0.0000 C   0  0  0  0  0  0  0  0  0  0  0  0
  1  2  1  0  0  0  0
  2  3  1  0  0  0  0
  3  4  1  0  0  0  0
  2  5  1  0  0  0  0
  5  6  2  0  0  0  0
  5  7  1  0  0  0  0
  7  8  1  0  0  0  0
  8  9  1  0  0  0  0
  9 10  1  0  0  0  0
 10 14  1  0  0  0  0
 10 11  2  0  0  0  0
 11 12  1  0  0  0  0
 12 13  1  0  0  0  0
 13 18  2  0  0  0  0
 13 14  1  0  0  0  0
 14 15  2  0  0  0  0
 15 16  1  0  0  0  0
 16 17  2  0  0  0  0
 17 18  1  0  0  0  0
 18 19  1  0  0  0  0
 19 20  1  0  0  0  0
M  END
$$$$
s_22____10303762____58887
  -OEChem-03222016482D

 17 18  0     0  0  0  0  0  0999 V2000
    1.6132   -5.3951    0.0000 C   0  0  0  0  0  0  0  0  0  0  0  0
    2.2824   -4.6519    0.0000 C   0  0  0  0  0  0  0  0  0  0  0  0
    1.9734   -3.7009    0.0000 C   0  0  0  0  0  0  0  0  0  0  0  0
    0.9953   -3.4929    0.0000 O   0  0  0  0  0  0  0  0  0  0  0  0
    2.6426   -2.9578    0.0000 N   0  0  0  0  0  0  0  0  0  0  0  0
    2.3336   -2.0067    0.0000 C   0  0  0  0  0  0  0  0  0  0  0  0
    3.0028   -1.2636    0.0000 C   0  0  0  0  0  0  0  0  0  0  0  0
    2.6938   -0.3125    0.0000 C   0  0  0  0  0  0  0  0  0  0  0  0
    3.2858    0.5023    0.0000 C   0  0  0  0  0  0  0  0  0  0  0  0
    2.6938    1.3169    0.0000 N   0  0  0  0  0  0  0  0  0  0  0  0
    1.7360    1.0058    0.0000 C   0  0  0  0  0  0  0  0  0  0  0  0
    1.7360   -0.0012    0.0000 C   0  0  0  0  0  0  0  0  0  0  0  0
    0.8680   -0.4978    0.0000 C   0  0  0  0  0  0  0  0  0  0  0  0
    0.0000    0.0000    0.0000 C   0  0  0  0  0  0  0  0  0  0  0  0
   -0.0000    1.0058    0.0000 C   0  0  0  0  0  0  0  0  0  0  0  0
    0.8680    1.5138    0.0000 C   0  0  0  0  0  0  0  0  0  0  0  0
    0.8675   -1.4978    0.0000 Br  0  0  0  0  0  0  0  0  0  0  0  0
  1  2  1  0  0  0  0
  2  3  1  0  0  0  0
  3  4  2  0  0  0  0
  3  5  1  0  0  0  0
  5  6  1  0  0  0  0
  6  7  1  0  0  0  0
  7  8  1  0  0  0  0
  8 12  1  0  0  0  0
  8  9  2  0  0  0  0
  9 10  1  0  0  0  0
 10 11  1  0  0  0  0
 11 16  2  0  0  0  0
 11 12  1  0  0  0  0
 12 13  2  0  0  0  0
 13 14  1  0  0  0  0
 14 15  2  0  0  0  0
 15 16  1  0  0  0  0
 13 17  1  0  0  0  0
M  END
$$$$
s_240690b____7362722____7368582
  -OEChem-03222016482D

 18 19  0     0  0  0  0  0  0999 V2000
    0.8675   -1.4978    0.0000 C   0  0  0  0  0  0  0  0  0  0  0  0
    0.8680   -0.4978    0.0000 C   0  0  0  0  0  0  0  0  0  0  0  0
    0.0000    0.0000    0.0000 C   0  0  0  0  0  0  0  0  0  0  0  0
   -0.0000    1.0058    0.0000 C   0  0  0  0  0  0  0  0  0  0  0  0
    0.8680    1.5138    0.0000 C   0  0  0  0  0  0  0  0  0  0  0  0
    1.7360    1.0058    0.0000 C   0  0  0  0  0  0  0  0  0  0  0  0
    1.7360   -0.0012    0.0000 C   0  0  0  0  0  0  0  0  0  0  0  0
    2.6938   -0.3125    0.0000 C   0  0  0  0  0  0  0  0  0  0  0  0
    3.2858    0.5023    0.0000 C   0  0  0  0  0  0  0  0  0  0  0  0
    2.6938    1.3169    0.0000 N   0  0  0  0  0  0  0  0  0  0  0  0
    3.0028   -1.2636    0.0000 C   0  0  0  0  0  0  0  0  0  0  0  0
    3.9809   -1.4715    0.0000 C   0  0  0  0  0  0  0  0  0  0  0  0
    4.2899   -2.4226    0.0000 N   0  0  0  0  0  0  0  0  0  0  0  0
    5.2680   -2.6306    0.0000 C   0  0  0  0  0  0  0  0  0  0  0  0
    5.9372   -1.8874    0.0000 O   0  0  0  0  0  0  0  0  0  0  0  0
    5.5770   -3.5816    0.0000 C   0  0  0  0  0  0  0  0  0  0  0  0
    6.5551   -3.7896    0.0000 N   0  3  0  0  0  0  0  0  0  0  0  0
    6.8641   -4.7407    0.0000 C   0  0  0  0  0  0  0  0  0  0  0  0
  1  2  1  0  0  0  0
  2  7  2  0  0  0  0
  2  3  1  0  0  0  0
  3  4  2  0  0  0  0
  4  5  1  0  0  0  0
  5  6  2  0  0  0  0
  6 10  1  0  0  0  0
  6  7  1  0  0  0  0
  7  8  1  0  0  0  0
  8  9  2  0  0  0  0
  9 10  1  0  0  0  0
  8 11  1  0  0  0  0
 11 12  1  0  0  0  0
 12 13  1  0  0  0  0
 13 14  1  0  0  0  0
 14 15  2  0  0  0  0
 14 16  1  0  0  0  0
 16 17  1  0  0  0  0
 17 18  1  0  0  0  0
M  CHG  1  17   1
M  END
$$$$
s_240690b____13612076____3025698
  -OEChem-03222016482D

 17 18  0     0  0  0  0  0  0999 V2000
   -0.8653   -0.5013    0.0000 C   0  0  0  0  0  0  0  0  0  0  0  0
    0.0000    0.0000    0.0000 C   0  0  0  0  0  0  0  0  0  0  0  0
   -0.0000    1.0058    0.0000 C   0  0  0  0  0  0  0  0  0  0  0  0
    0.8680    1.5138    0.0000 C   0  0  0  0  0  0  0  0  0  0  0  0
    1.7360    1.0058    0.0000 C   0  0  0  0  0  0  0  0  0  0  0  0
    1.7360   -0.0012    0.0000 C   0  0  0  0  0  0  0  0  0  0  0  0
    0.8680   -0.4978    0.0000 C   0  0  0  0  0  0  0  0  0  0  0  0
    2.6938   -0.3125    0.0000 C   0  0  0  0  0  0  0  0  0  0  0  0
    3.2858    0.5023    0.0000 C   0  0  0  0  0  0  0  0  0  0  0  0
    2.6938    1.3169    0.0000 N   0  0  0  0  0  0  0  0  0  0  0  0
    3.0028   -1.2636    0.0000 C   0  0  0  0  0  0  0  0  0  0  0  0
    3.9809   -1.4715    0.0000 C   0  0  0  0  0  0  0  0  0  0  0  0
    4.2899   -2.4226    0.0000 N   0  0  0  0  0  0  0  0  0  0  0  0
    5.2680   -2.6306    0.0000 C   0  0  0  0  0  0  0  0  0  0  0  0
    5.9372   -1.8874    0.0000 O   0  0  0  0  0  0  0  0  0  0  0  0
    5.5770   -3.5816    0.0000 C   0  0  0  0  0  0  0  0  0  0  0  0
    6.5551   -3.7896    0.0000 N   0  3  0  0  0  0  0  0  0  0  0  0
  1  2  1  0  0  0  0
  2  7  2  0  0  0  0
  2  3  1  0  0  0  0
  3  4  2  0  0  0  0
  4  5  1  0  0  0  0
  5 10  1  0  0  0  0
  5  6  2  0  0  0  0
  6  7  1  0  0  0  0
  6  8  1  0  0  0  0
  8  9  2  0  0  0  0
  9 10  1  0  0  0  0
  8 11  1  0  0  0  0
 11 12  1  0  0  0  0
 12 13  1  0  0  0  0
 13 14  1  0  0  0  0
 14 15  2  0  0  0  0
 14 16  1  0  0  0  0
 16 17  1  0  0  0  0
M  CHG  1  17   1
M  END
$$$$
s_270062____13978860____12187078
  -OEChem-03222016482D

 21 22  0     0  0  0  0  0  0999 V2000
    6.5281   -3.2727    0.0000 C   0  0  0  0  0  0  0  0  0  0  0  0
    5.5770   -3.5816    0.0000 C   0  0  0  0  0  0  0  0  0  0  0  0
    4.6259   -3.8906    0.0000 C   0  0  0  0  0  0  0  0  0  0  0  0
    5.8860   -4.5327    0.0000 C   0  0  0  0  0  0  0  0  0  0  0  0
    6.8641   -4.7407    0.0000 Cl  0  0  0  0  0  0  0  0  0  0  0  0
    5.2680   -2.6306    0.0000 C   0  0  0  0  0  0  0  0  0  0  0  0
    5.9372   -1.8874    0.0000 O   0  0  0  0  0  0  0  0  0  0  0  0
    4.2899   -2.4226    0.0000 N   0  0  0  0  0  0  0  0  0  0  0  0
    3.9809   -1.4715    0.0000 C   0  0  0  0  0  0  0  0  0  0  0  0
    3.0028   -1.2636    0.0000 C   0  0  0  0  0  0  0  0  0  0  0  0
    2.6938   -0.3125    0.0000 C   0  0  0  0  0  0  0  0  0  0  0  0
    3.2858    0.5023    0.0000 C   0  0  0  0  0  0  0  0  0  0  0  0
    2.6938    1.3169    0.0000 N   0  0  0  0  0  0  0  0  0  0  0  0
    1.7360    1.0058    0.0000 C   0  0  0  0  0  0  0  0  0  0  0  0
    1.7360   -0.0012    0.0000 C   0  0  0  0  0  0  0  0  0  0  0  0
    0.8680   -0.4978    0.0000 C   0  0  0  0  0  0  0  0  0  0  0  0
    0.0000    0.0000    0.0000 C   0  0  0  0  0  0  0  0  0  0  0  0
   -0.0000    1.0058    0.0000 C   0  0  0  0  0  0  0  0  0  0  0  0
    0.8680    1.5138    0.0000 C   0  0  0  0  0  0  0  0  0  0  0  0
   -0.8675    1.5032    0.0000 O   0  0  0  0  0  0  0  0  0  0  0  0
   -1.7320    1.0007    0.0000 C   0  0  0  0  0  0  0  0  0  0  0  0
  1  2  1  0  0  0  0
  2  3  1  0  0  0  0
  2  4  1  0  0  0  0
  4  5  1  0  0  0  0
  2  6  1  0  0  0  0
  6  7  2  0  0  0  0
  6  8  1  0  0  0  0
  8  9  1  0  0  0  0
  9 10  1  0  0  0  0
 10 11  1  0  0  0  0
 11 15  1  0  0  0  0
 11 12  2  0  0  0  0
 12 13  1  0  0  0  0
 13 14  1  0  0  0  0
 14 19  2  0  0  0  0
 14 15  1  0  0  0  0
 15 16  2  0  0  0  0
 16 17  1  0  0  0  0
 17 18  2  0  0  0  0
 18 19  1  0  0  0  0
 18 20  1  0  0  0  0
 20 21  1  0  0  0  0
M  END
$$$$
s_22____13025516____2757558
  -OEChem-03222016482D

 20 21  0     0  0  0  0  0  0999 V2000
    0.0012   -1.9973    0.0000 C   0  0  0  0  0  0  0  0  0  0  0  0
    0.8675   -1.4978    0.0000 O   0  0  0  0  0  0  0  0  0  0  0  0
    0.8680   -0.4978    0.0000 C   0  0  0  0  0  0  0  0  0  0  0  0
    0.0000    0.0000    0.0000 C   0  0  0  0  0  0  0  0  0  0  0  0
   -0.0000    1.0058    0.0000 C   0  0  0  0  0  0  0  0  0  0  0  0
    0.8680    1.5138    0.0000 C   0  0  0  0  0  0  0  0  0  0  0  0
    1.7360    1.0058    0.0000 C   0  0  0  0  0  0  0  0  0  0  0  0
    1.7360   -0.0012    0.0000 C   0  0  0  0  0  0  0  0  0  0  0  0
    2.6938   -0.3125    0.0000 C   0  0  0  0  0  0  0  0  0  0  0  0
    3.2858    0.5023    0.0000 C   0  0  0  0  0  0  0  0  0  0  0  0
    2.6938    1.3169    0.0000 N   0  0  0  0  0  0  0  0  0  0  0  0
    3.0028   -1.2636    0.0000 C   0  0  0  0  0  0  0  0  0  0  0  0
    3.9809   -1.4715    0.0000 C   0  0  0  0  0  0  0  0  0  0  0  0
    4.2899   -2.4226    0.0000 N   0  0  0  0  0  0  0  0  0  0  0  0
    5.2680   -2.6306    0.0000 C   0  0  0  0  0  0  0  0  0  0  0  0
    5.9372   -1.8874    0.0000 O   0  0  0  0  0  0  0  0  0  0  0  0
    5.5770   -3.5816    0.0000 C   0  0  0  0  0  0  0  0  0  0  0  0
    6.5551   -3.7896    0.0000 C   0  0  0  0  0  0  0  0  0  0  0  0
    6.8641   -4.7407    0.0000 C   0  0  0  0  0  0  0  0  0  0  0  0
    7.8422   -4.9486    0.0000 C   0  0  0  0  0  0  0  0  0  0  0  0
  1  2  1  0  0  0  0
  2  3  1  0  0  0  0
  3  8  2  0  0  0  0
  3  4  1  0  0  0  0
  4  5  2  0  0  0  0
  5  6  1  0  0  0  0
  6  7  2  0  0  0  0
  7 11  1  0  0  0  0
  7  8  1  0  0  0  0
  8  9  1  0  0  0  0
  9 10  2  0  0  0  0
 10 11  1  0  0  0  0
  9 12  1  0  0  0  0
 12 13  1  0  0  0  0
 13 14  1  0  0  0  0
 14 15  1  0  0  0  0
 15 16  2  0  0  0  0
 15 17  1  0  0  0  0
 17 18  1  0  0  0  0
 18 19  1  0  0  0  0
 19 20  2  0  0  0  0
M  END
$$$$
s_273464b____11201130____11234894
  -OEChem-03222016482D

 18 19  0     0  0  0  0  0  0999 V2000
   -1.7320   -0.0025    0.0000 C   0  0  0  0  0  0  0  0  0  0  0  0
   -0.8653   -0.5013    0.0000 O   0  0  0  0  0  0  0  0  0  0  0  0
    0.0000    0.0000    0.0000 C   0  0  0  0  0  0  0  0  0  0  0  0
   -0.0000    1.0058    0.0000 C   0  0  0  0  0  0  0  0  0  0  0  0
    0.8680    1.5138    0.0000 C   0  0  0  0  0  0  0  0  0  0  0  0
    1.7360    1.0058    0.0000 C   0  0  0  0  0  0  0  0  0  0  0  0
    1.7360   -0.0012    0.0000 C   0  0  0  0  0  0  0  0  0  0  0  0
    0.8680   -0.4978    0.0000 C   0  0  0  0  0  0  0  0  0  0  0  0
    2.6938   -0.3125    0.0000 C   0  0  0  0  0  0  0  0  0  0  0  0
    3.2858    0.5023    0.0000 C   0  0  0  0  0  0  0  0  0  0  0  0
    2.6938    1.3169    0.0000 N   0  0  0  0  0  0  0  0  0  0  0  0
    3.0028   -1.2636    0.0000 C   0  0  0  0  0  0  0  0  0  0  0  0
    3.9809   -1.4715    0.0000 C   0  0  0  0  0  0  0  0  0  0  0  0
    4.2899   -2.4226    0.0000 N   0  0  0  0  0  0  0  0  0  0  0  0
    5.2680   -2.6306    0.0000 C   0  0  0  0  0  0  0  0  0  0  0  0
    5.9372   -1.8874    0.0000 O   0  0  0  0  0  0  0  0  0  0  0  0
    5.5770   -3.5816    0.0000 N   0  0  0  0  0  0  0  0  0  0  0  0
    6.5551   -3.7896    0.0000 N   0  0  0  0  0  0  0  0  0  0  0  0
  1  2  1  0  0  0  0
  2  3  1  0  0  0  0
  3  8  2  0  0  0  0
  3  4  1  0  0  0  0
  4  5  2  0  0  0  0
  5  6  1  0  0  0  0
  6 11  1  0  0  0  0
  6  7  2  0  0  0  0
  7  8  1  0  0  0  0
  7  9  1  0  0  0  0
  9 10  2  0  0  0  0
 10 11  1  0  0  0  0
  9 12  1  0  0  0  0
 12 13  1  0  0  0  0
 13 14  1  0  0  0  0
 14 15  1  0  0  0  0
 15 16  2  0  0  0  0
 15 17  1  0  0  0  0
 17 18  1  0  0  0  0
M  END
$$$$
s_270062____14724382____8147258
  -OEChem-03222016482D

 22 23  0     1  0  0  0  0  0999 V2000
   -1.7320   -0.0025    0.0000 C   0  0  0  0  0  0  0  0  0  0  0  0
   -0.8653   -0.5013    0.0000 O   0  0  0  0  0  0  0  0  0  0  0  0
    0.0000    0.0000    0.0000 C   0  0  0  0  0  0  0  0  0  0  0  0
   -0.0000    1.0058    0.0000 C   0  0  0  0  0  0  0  0  0  0  0  0
    0.8680    1.5138    0.0000 C   0  0  0  0  0  0  0  0  0  0  0  0
    1.7360    1.0058    0.0000 C   0  0  0  0  0  0  0  0  0  0  0  0
    1.7360   -0.0012    0.0000 C   0  0  0  0  0  0  0  0  0  0  0  0
    0.8680   -0.4978    0.0000 C   0  0  0  0  0  0  0  0  0  0  0  0
    2.6938   -0.3125    0.0000 C   0  0  0  0  0  0  0  0  0  0  0  0
    3.2858    0.5023    0.0000 C   0  0  0  0  0  0  0  0  0  0  0  0
    2.6938    1.3169    0.0000 N   0  0  0  0  0  0  0  0  0  0  0  0
    3.0028   -1.2636    0.0000 C   0  0  0  0  0  0  0  0  0  0  0  0
    3.9809   -1.4715    0.0000 C   0  0  3  0  0  0  0  0  0  0  0  0
    4.6501   -0.7284    0.0000 C   0  0  0  0  0  0  0  0  0  0  0  0
    5.6282   -0.9364    0.0000 O   0  0  0  0  0  0  0  0  0  0  0  0
    4.3411    0.2227    0.0000 O   0  0  0  0  0  0  0  0  0  0  0  0
    5.0103    0.9658    0.0000 C   0  0  0  0  0  0  0  0  0  0  0  0
    4.2899   -2.4226    0.0000 N   0  0  0  0  0  0  0  0  0  0  0  0
    5.2680   -2.6306    0.0000 C   0  0  0  0  0  0  0  0  0  0  0  0
    5.9372   -1.8874    0.0000 O   0  0  0  0  0  0  0  0  0  0  0  0
    5.5770   -3.5816    0.0000 C   0  0  0  0  0  0  0  0  0  0  0  0
    6.5551   -3.7896    0.0000 Cl  0  0  0  0  0  0  0  0  0  0  0  0
  1  2  1  0  0  0  0
  2  3  1  0  0  0  0
  3  8  2  0  0  0  0
  3  4  1  0  0  0  0
  4  5  2  0  0  0  0
  5  6  1  0  0  0  0
  6 11  1  0  0  0  0
  6  7  2  0  0  0  0
  7  8  1  0  0  0  0
  7  9  1  0  0  0  0
  9 10  2  0  0  0  0
 10 11  1  0  0  0  0
  9 12  1  0  0  0  0
 12 13  1  0  0  0  0
 13 14  1  0  0  0  0
 14 15  2  0  0  0  0
 14 16  1  0  0  0  0
 16 17  1  0  0  0  0
 13 18  1  0  0  0  0
 18 19  1  0  0  0  0
 19 20  2  0  0  0  0
 19 21  1  0  0  0  0
 21 22  1  0  0  0  0
M  END
$$$$
s_22____13025516____58887
  -OEChem-03222016482D

 18 19  0     0  0  0  0  0  0999 V2000
    6.5551   -3.7896    0.0000 C   0  0  0  0  0  0  0  0  0  0  0  0
    5.5770   -3.5816    0.0000 C   0  0  0  0  0  0  0  0  0  0  0  0
    5.2680   -2.6306    0.0000 C   0  0  0  0  0  0  0  0  0  0  0  0
    5.9372   -1.8874    0.0000 O   0  0  0  0  0  0  0  0  0  0  0  0
    4.2899   -2.4226    0.0000 N   0  0  0  0  0  0  0  0  0  0  0  0
    3.9809   -1.4715    0.0000 C   0  0  0  0  0  0  0  0  0  0  0  0
    3.0028   -1.2636    0.0000 C   0  0  0  0  0  0  0  0  0  0  0  0
    2.6938   -0.3125    0.0000 C   0  0  0  0  0  0  0  0  0  0  0  0
    3.2858    0.5023    0.0000 C   0  0  0  0  0  0  0  0  0  0  0  0
    2.6938    1.3169    0.0000 N   0  0  0  0  0  0  0  0  0  0  0  0
    1.7360    1.0058    0.0000 C   0  0  0  0  0  0  0  0  0  0  0  0
    1.7360   -0.0012    0.0000 C   0  0  0  0  0  0  0  0  0  0  0  0
    0.8680   -0.4978    0.0000 C   0  0  0  0  0  0  0  0  0  0  0  0
    0.0000    0.0000    0.0000 C   0  0  0  0  0  0  0  0  0  0  0  0
   -0.0000    1.0058    0.0000 C   0  0  0  0  0  0  0  0  0  0  0  0
    0.8680    1.5138    0.0000 C   0  0  0  0  0  0  0  0  0  0  0  0
    0.8675   -1.4978    0.0000 O   0  0  0  0  0  0  0  0  0  0  0  0
    1.7332   -1.9983    0.0000 C   0  0  0  0  0  0  0  0  0  0  0  0
  1  2  1  0  0  0  0
  2  3  1  0  0  0  0
  3  4  2  0  0  0  0
  3  5  1  0  0  0  0
  5  6  1  0  0  0  0
  6  7  1  0  0  0  0
  7  8  1  0  0  0  0
  8 12  1  0  0  0  0
  8  9  2  0  0  0  0
  9 10  1  0  0  0  0
 10 11  1  0  0  0  0
 11 16  2  0  0  0  0
 11 12  1  0  0  0  0
 12 13  2  0  0  0  0
 13 14  1  0  0  0  0
 14 15  2  0  0  0  0
 15 16  1  0  0  0  0
 13 17  1  0  0  0  0
 17 18  1  0  0  0  0
M  END
$$$$
s_22____9226532____13756276
  -OEChem-03222016482D

 21 22  0     1  0  0  0  0  0999 V2000
    6.8641   -4.7407    0.0000 C   0  0  0  0  0  0  0  0  0  0  0  0
    6.5551   -3.7896    0.0000 C   0  0  0  0  0  0  0  0  0  0  0  0
    5.5770   -3.5816    0.0000 C   0  0  3  0  0  0  0  0  0  0  0  0
    5.2680   -2.6306    0.0000 C   0  0  0  0  0  0  0  0  0  0  0  0
    5.9372   -1.8874    0.0000 O   0  0  0  0  0  0  0  0  0  0  0  0
    4.2899   -2.4226    0.0000 N   0  0  0  0  0  0  0  0  0  0  0  0
    3.9809   -1.4715    0.0000 C   0  0  0  0  0  0  0  0  0  0  0  0
    3.0028   -1.2636    0.0000 C   0  0  0  0  0  0  0  0  0  0  0  0
    2.6938   -0.3125    0.0000 C   0  0  0  0  0  0  0  0  0  0  0  0
    3.2858    0.5023    0.0000 C   0  0  0  0  0  0  0  0  0  0  0  0
    2.6938    1.3169    0.0000 N   0  0  0  0  0  0  0  0  0  0  0  0
    1.7360    1.0058    0.0000 C   0  0  0  0  0  0  0  0  0  0  0  0
    1.7360   -0.0012    0.0000 C   0  0  0  0  0  0  0  0  0  0  0  0
    0.8680   -0.4978    0.0000 C   0  0  0  0  0  0  0  0  0  0  0  0
    0.0000    0.0000    0.0000 C   0  0  0  0  0  0  0  0  0  0  0  0
   -0.0000    1.0058    0.0000 C   0  0  0  0  0  0  0  0  0  0  0  0
    0.8680    1.5138    0.0000 C   0  0  0  0  0  0  0  0  0  0  0  0
    0.8675   -1.4978    0.0000 O   0  0  0  0  0  0  0  0  0  0  0  0
    1.7332   -1.9983    0.0000 C   0  0  0  0  0  0  0  0  0  0  0  0
    1.7327   -2.9983    0.0000 C   0  0  0  0  0  0  0  0  0  0  0  0
    4.9078   -4.3247    0.0000 F   0  0  0  0  0  0  0  0  0  0  0  0
  1  2  1  0  0  0  0
  2  3  1  0  0  0  0
  3  4  1  0  0  0  0
  4  5  2  0  0  0  0
  4  6  1  0  0  0  0
  6  7  1  0  0  0  0
  7  8  1  0  0  0  0
  8  9  1  0  0  0  0
  9 13  1  0  0  0  0
  9 10  2  0  0  0  0
 10 11  1  0  0  0  0
 11 12  1  0  0  0  0
 12 17  2  0  0  0  0
 12 13  1  0  0  0  0
 13 14  2  0  0  0  0
 14 15  1  0  0  0  0
 15 16  2  0  0  0  0
 16 17  1  0  0  0  0
 14 18  1  0  0  0  0
 18 19  1  0  0  0  0
 19 20  1  0  0  0  0
  3 21  1  0  0  0  0
M  END
$$$$
s_22____15144084____58866
  -OEChem-03222016482D

 19 20  0     0  0  0  0  0  0999 V2000
    6.8641   -4.7407    0.0000 C   0  0  0  0  0  0  0  0  0  0  0  0
    6.5551   -3.7896    0.0000 C   0  0  0  0  0  0  0  0  0  0  0  0
    5.5770   -3.5816    0.0000 C   0  0  0  0  0  0  0  0  0  0  0  0
    5.2680   -2.6306    0.0000 C   0  0  0  0  0  0  0  0  0  0  0  0
    5.9372   -1.8874    0.0000 O   0  0  0  0  0  0  0  0  0  0  0  0
    4.2899   -2.4226    0.0000 N   0  0  0  0  0  0  0  0  0  0  0  0
    3.9809   -1.4715    0.0000 C   0  0  0  0  0  0  0  0  0  0  0  0
    3.0028   -1.2636    0.0000 C   0  0  0  0  0  0  0  0  0  0  0  0
    2.6938   -0.3125    0.0000 C   0  0  0  0  0  0  0  0  0  0  0  0
    3.2858    0.5023    0.0000 C   0  0  0  0  0  0  0  0  0  0  0  0
    2.6938    1.3169    0.0000 N   0  0  0  0  0  0  0  0  0  0  0  0
    1.7360    1.0058    0.0000 C   0  0  0  0  0  0  0  0  0  0  0  0
    1.7360   -0.0012    0.0000 C   0  0  0  0  0  0  0  0  0  0  0  0
    0.8680   -0.4978    0.0000 C   0  0  0  0  0  0  0  0  0  0  0  0
    0.0000    0.0000    0.0000 C   0  0  0  0  0  0  0  0  0  0  0  0
   -0.0000    1.0058    0.0000 C   0  0  0  0  0  0  0  0  0  0  0  0
    0.8680    1.5138    0.0000 C   0  0  0  0  0  0  0  0  0  0  0  0
   -0.8675    1.5032    0.0000 F   0  0  0  0  0  0  0  0  0  0  0  0
    0.8675   -1.4978    0.0000 F   0  0  0  0  0  0  0  0  0  0  0  0
  1  2  1  0  0  0  0
  2  3  1  0  0  0  0
  3  4  1  0  0  0  0
  4  5  2  0  0  0  0
  4  6  1  0  0  0  0
  6  7  1  0  0  0  0
  7  8  1  0  0  0  0
  8  9  1  0  0  0  0
  9 13  1  0  0  0  0
  9 10  2  0  0  0  0
 10 11  1  0  0  0  0
 11 12  1  0  0  0  0
 12 17  2  0  0  0  0
 12 13  1  0  0  0  0
 13 14  2  0  0  0  0
 14 15  1  0  0  0  0
 15 16  2  0  0  0  0
 16 17  1  0  0  0  0
 16 18  1  0  0  0  0
 14 19  1  0  0  0  0
M  END
$$$$
s_270062____15422294____15585492
  -OEChem-03222016482D

 17 18  0     0  0  0  0  0  0999 V2000
    1.3042   -4.4440    0.0000 C   0  0  0  0  0  0  0  0  0  0  0  0
    1.9734   -3.7009    0.0000 C   0  0  0  0  0  0  0  0  0  0  0  0
    2.9515   -3.9088    0.0000 O   0  0  0  0  0  0  0  0  0  0  0  0
    1.6644   -2.7498    0.0000 N   0  0  0  0  0  0  0  0  0  0  0  0
    2.3336   -2.0067    0.0000 C   0  0  0  0  0  0  0  0  0  0  0  0
    1.5905   -1.3375    0.0000 C   0  0  0  0  0  0  0  0  0  0  0  0
    3.0767   -2.6759    0.0000 C   0  0  0  0  0  0  0  0  0  0  0  0
    3.0028   -1.2636    0.0000 C   0  0  0  0  0  0  0  0  0  0  0  0
    2.6938   -0.3125    0.0000 C   0  0  0  0  0  0  0  0  0  0  0  0
    3.2858    0.5023    0.0000 C   0  0  0  0  0  0  0  0  0  0  0  0
    2.6938    1.3169    0.0000 N   0  0  0  0  0  0  0  0  0  0  0  0
    1.7360    1.0058    0.0000 C   0  0  0  0  0  0  0  0  0  0  0  0
    1.7360   -0.0012    0.0000 C   0  0  0  0  0  0  0  0  0  0  0  0
    0.8680   -0.4978    0.0000 C   0  0  0  0  0  0  0  0  0  0  0  0
    0.0000    0.0000    0.0000 C   0  0  0  0  0  0  0  0  0  0  0  0
   -0.0000    1.0058    0.0000 C   0  0  0  0  0  0  0  0  0  0  0  0
    0.8680    1.5138    0.0000 C   0  0  0  0  0  0  0  0  0  0  0  0
  1  2  1  0  0  0  0
  2  3  2  0  0  0  0
  2  4  1  0  0  0  0
  4  5  1  0  0  0  0
  5  6  1  0  0  0  0
  5  7  1  0  0  0  0
  5  8  1  0  0  0  0
  8  9  1  0  0  0  0
  9 13  1  0  0  0  0
  9 10  2  0  0  0  0
 10 11  1  0  0  0  0
 11 12  1  0  0  0  0
 12 17  2  0  0  0  0
 12 13  1  0  0  0  0
 13 14  2  0  0  0  0
 14 15  1  0  0  0  0
 15 16  2  0  0  0  0
 16 17  1  0  0  0  0
M  END
$$$$
s_22____15506616____58902
  -OEChem-03222016482D

 19 21  0     0  0  0  0  0  0999 V2000
    1.7340    3.0138    0.0000 C   0  0  0  0  0  0  0  0  0  0  0  0
    0.8680    2.5138    0.0000 O   0  0  0  0  0  0  0  0  0  0  0  0
    0.8680    1.5138    0.0000 C   0  0  0  0  0  0  0  0  0  0  0  0
    0.0000    1.0058    0.0000 C   0  0  0  0  0  0  0  0  0  0  0  0
    0.0000    0.0000    0.0000 C   0  0  0  0  0  0  0  0  0  0  0  0
    0.8680   -0.4978    0.0000 C   0  0  0  0  0  0  0  0  0  0  0  0
    1.7360   -0.0012    0.0000 C   0  0  0  0  0  0  0  0  0  0  0  0
    1.7360    1.0058    0.0000 C   0  0  0  0  0  0  0  0  0  0  0  0
    2.6938    1.3169    0.0000 N   0  0  0  0  0  0  0  0  0  0  0  0
    3.2858    0.5023    0.0000 C   0  0  0  0  0  0  0  0  0  0  0  0
    2.6938   -0.3125    0.0000 C   0  0  0  0  0  0  0  0  0  0  0  0
    3.0028   -1.2636    0.0000 C   0  0  0  0  0  0  0  0  0  0  0  0
    3.9809   -1.4715    0.0000 C   0  0  0  0  0  0  0  0  0  0  0  0
    4.2899   -2.4226    0.0000 N   0  0  0  0  0  0  0  0  0  0  0  0
    5.2680   -2.6306    0.0000 C   0  0  0  0  0  0  0  0  0  0  0  0
    5.9372   -1.8874    0.0000 O   0  0  0  0  0  0  0  0  0  0  0  0
    5.5770   -3.5816    0.0000 C   0  0  0  0  0  0  0  0  0  0  0  0
    5.3697   -4.5618    0.0000 C   0  0  0  0  0  0  0  0  0  0  0  0
    6.3208   -4.2529    0.0000 C   0  0  0  0  0  0  0  0  0  0  0  0
  1  2  1  0  0  0  0
  2  3  1  0  0  0  0
  3  8  2  0  0  0  0
  3  4  1  0  0  0  0
  4  5  2  0  0  0  0
  5  6  1  0  0  0  0
  6  7  2  0  0  0  0
  7 11  1  0  0  0  0
  7  8  1  0  0  0  0
  8  9  1  0  0  0  0
  9 10  1  0  0  0  0
 10 11  2  0  0  0  0
 11 12  1  0  0  0  0
 12 13  1  0  0  0  0
 13 14  1  0  0  0  0
 14 15  1  0  0  0  0
 15 16  2  0  0  0  0
 15 17  1  0  0  0  0
 17 19  1  0  0  0  0
 17 18  1  0  0  0  0
 18 19  1  0  0  0  0
M  END
$$$$
s_22____4839448____13206548
  -OEChem-03222016482D

 20 21  0     0  0  0  0  0  0999 V2000
    6.8641   -4.7407    0.0000 C   0  0  0  0  0  0  0  0  0  0  0  0
    6.5551   -3.7896    0.0000 C   0  0  0  0  0  0  0  0  0  0  0  0
    5.5770   -3.5816    0.0000 C   0  0  0  0  0  0  0  0  0  0  0  0
    4.9078   -4.3247    0.0000 C   0  0  0  0  0  0  0  0  0  0  0  0
    5.2680   -2.6306    0.0000 C   0  0  0  0  0  0  0  0  0  0  0  0
    5.9372   -1.8874    0.0000 O   0  0  0  0  0  0  0  0  0  0  0  0
    4.2899   -2.4226    0.0000 N   0  0  0  0  0  0  0  0  0  0  0  0
    3.9809   -1.4715    0.0000 C   0  0  0  0  0  0  0  0  0  0  0  0
    3.0028   -1.2636    0.0000 C   0  0  0  0  0  0  0  0  0  0  0  0
    2.6938   -0.3125    0.0000 C   0  0  0  0  0  0  0  0  0  0  0  0
    3.2858    0.5023    0.0000 C   0  0  0  0  0  0  0  0  0  0  0  0
    2.6938    1.3169    0.0000 N   0  0  0  0  0  0  0  0  0  0  0  0
    1.7360    1.0058    0.0000 C   0  0  0  0  0  0  0  0  0  0  0  0
    1.7360   -0.0012    0.0000 C   0  0  0  0  0  0  0  0  0  0  0  0
    0.8680   -0.4978    0.0000 C   0  0  0  0  0  0  0  0  0  0  0  0
    0.0000    0.0000    0.0000 C   0  0  0  0  0  0  0  0  0  0  0  0
   -0.0000    1.0058    0.0000 C   0  0  0  0  0  0  0  0  0  0  0  0
    0.8680    1.5138    0.0000 C   0  0  0  0  0  0  0  0  0  0  0  0
   -0.8653   -0.5013    0.0000 O   0  0  0  0  0  0  0  0  0  0  0  0
   -0.8639   -1.5013    0.0000 C   0  0  0  0  0  0  0  0  0  0  0  0
  1  2  1  0  0  0  0
  2  3  1  0  0  0  0
  3  4  2  0  0  0  0
  3  5  1  0  0  0  0
  5  6  2  0  0  0  0
  5  7  1  0  0  0  0
  7  8  1  0  0  0  0
  8  9  1  0  0  0  0
  9 10  1  0  0  0  0
 10 14  1  0  0  0  0
 10 11  2  0  0  0  0
 11 12  1  0  0  0  0
 12 13  1  0  0  0  0
 13 18  2  0  0  0  0
 13 14  1  0  0  0  0
 14 15  2  0  0  0  0
 15 16  1  0  0  0  0
 16 17  2  0  0  0  0
 17 18  1  0  0  0  0
 16 19  1  0  0  0  0
 19 20  1  0  0  0  0
M  END
$$$$
s_22____9226532____58902
  -OEChem-03222016482D

 20 22  0     0  0  0  0  0  0999 V2000
    1.7327   -2.9983    0.0000 C   0  0  0  0  0  0  0  0  0  0  0  0
    1.7332   -1.9983    0.0000 C   0  0  0  0  0  0  0  0  0  0  0  0
    0.8675   -1.4978    0.0000 O   0  0  0  0  0  0  0  0  0  0  0  0
    0.8680   -0.4978    0.0000 C   0  0  0  0  0  0  0  0  0  0  0  0
    0.0000    0.0000    0.0000 C   0  0  0  0  0  0  0  0  0  0  0  0
   -0.0000    1.0058    0.0000 C   0  0  0  0  0  0  0  0  0  0  0  0
    0.8680    1.5138    0.0000 C   0  0  0  0  0  0  0  0  0  0  0  0
    1.7360    1.0058    0.0000 C   0  0  0  0  0  0  0  0  0  0  0  0
    1.7360   -0.0012    0.0000 C   0  0  0  0  0  0  0  0  0  0  0  0
    2.6938   -0.3125    0.0000 C   0  0  0  0  0  0  0  0  0  0  0  0
    3.2858    0.5023    0.0000 C   0  0  0  0  0  0  0  0  0  0  0  0
    2.6938    1.3169    0.0000 N   0  0  0  0  0  0  0  0  0  0  0  0
    3.0028   -1.2636    0.0000 C   0  0  0  0  0  0  0  0  0  0  0  0
    3.9809   -1.4715    0.0000 C   0  0  0  0  0  0  0  0  0  0  0  0
    4.2899   -2.4226    0.0000 N   0  0  0  0  0  0  0  0  0  0  0  0
    5.2680   -2.6306    0.0000 C   0  0  0  0  0  0  0  0  0  0  0  0
    5.9372   -1.8874    0.0000 O   0  0  0  0  0  0  0  0  0  0  0  0
    5.5770   -3.5816    0.0000 C   0  0  0  0  0  0  0  0  0  0  0  0
    5.3697   -4.5618    0.0000 C   0  0  0  0  0  0  0  0  0  0  0  0
    6.3208   -4.2529    0.0000 C   0  0  0  0  0  0  0  0  0  0  0  0
  1  2  1  0  0  0  0
  2  3  1  0  0  0  0
  3  4  1  0  0  0  0
  4  9  2  0  0  0  0
  4  5  1  0  0  0  0
  5  6  2  0  0  0  0
  6  7  1  0  0  0  0
  7  8  2  0  0  0  0
  8 12  1  0  0  0  0
  8  9  1  0  0  0  0
  9 10  1  0  0  0  0
 10 11  2  0  0  0  0
 11 12  1  0  0  0  0
 10 13  1  0  0  0  0
 13 14  1  0  0  0  0
 14 15  1  0  0  0  0
 15 16  1  0  0  0  0
 16 17  2  0  0  0  0
 16 18  1  0  0  0  0
 18 20  1  0  0  0  0
 18 19  1  0  0  0  0
 19 20  1  0  0  0  0
M  END
$$$$
s_270004____16631050____16621896
  -OEChem-03222016482D

 22 23  0     1  0  0  0  0  0999 V2000
    6.2856    3.9666    0.0000 C   0  0  0  0  0  0  0  0  0  0  0  0
    5.7856    3.1005    0.0000 C   0  0  0  0  0  0  0  0  0  0  0  0
    6.2857    2.2345    0.0000 C   0  0  0  0  0  0  0  0  0  0  0  0
    5.7857    1.3685    0.0000 C   0  0  3  0  0  0  0  0  0  0  0  0
    6.2858    0.5025    0.0000 C   0  0  0  0  0  0  0  0  0  0  0  0
    5.7859   -0.3636    0.0000 O   0  0  0  0  0  0  0  0  0  0  0  0
    7.2858    0.5025    0.0000 N   0  0  0  0  0  0  0  0  0  0  0  0
    7.7857    1.3686    0.0000 C   0  0  0  0  0  0  0  0  0  0  0  0
    7.7859   -0.3635    0.0000 C   0  0  0  0  0  0  0  0  0  0  0  0
    4.7857    1.3684    0.0000 N   0  3  0  0  0  0  0  0  0  0  0  0
    4.2858    0.5024    0.0000 C   0  0  0  0  0  0  0  0  0  0  0  0
    3.2858    0.5023    0.0000 C   0  0  0  0  0  0  0  0  0  0  0  0
    2.6938   -0.3125    0.0000 C   0  0  0  0  0  0  0  0  0  0  0  0
    1.7360   -0.0012    0.0000 C   0  0  0  0  0  0  0  0  0  0  0  0
    0.8680   -0.4978    0.0000 C   0  0  0  0  0  0  0  0  0  0  0  0
    0.0000    0.0000    0.0000 C   0  0  0  0  0  0  0  0  0  0  0  0
    0.0000    1.0058    0.0000 C   0  0  0  0  0  0  0  0  0  0  0  0
    0.8680    1.5138    0.0000 C   0  0  0  0  0  0  0  0  0  0  0  0
    1.7360    1.0058    0.0000 C   0  0  0  0  0  0  0  0  0  0  0  0
    2.6938    1.3169    0.0000 N   0  0  0  0  0  0  0  0  0  0  0  0
   -0.8653   -0.5013    0.0000 O   0  0  0  0  0  0  0  0  0  0  0  0
   -0.8639   -1.5013    0.0000 C   0  0  0  0  0  0  0  0  0  0  0  0
  1  2  1  0  0  0  0
  2  3  1  0  0  0  0
  3  4  1  0  0  0  0
  4  5  1  0  0  0  0
  5  6  2  0  0  0  0
  5  7  1  0  0  0  0
  7  8  1  0  0  0  0
  7  9  1  0  0  0  0
  4 10  1  0  0  0  0
 10 11  1  0  0  0  0
 11 12  1  0  0  0  0
 12 20  1  0  0  0  0
 12 13  2  0  0  0  0
 13 14  1  0  0  0  0
 14 19  2  0  0  0  0
 14 15  1  0  0  0  0
 15 16  2  0  0  0  0
 16 17  1  0  0  0  0
 17 18  2  0  0  0  0
 18 19  1  0  0  0  0
 19 20  1  0  0  0  0
 16 21  1  0  0  0  0
 21 22  1  0  0  0  0
M  CHG  1  10   1
M  END
$$$$
s_22____4839448____58878
  -OEChem-03222016482D

 21 22  0     0  0  0  0  0  0999 V2000
    1.2530   -7.0892    0.0000 C   0  0  0  0  0  0  0  0  0  0  0  0
    1.9222   -6.3461    0.0000 C   0  0  0  0  0  0  0  0  0  0  0  0
    2.9003   -6.5541    0.0000 O   0  0  0  0  0  0  0  0  0  0  0  0
    1.6132   -5.3951    0.0000 N   0  0  0  0  0  0  0  0  0  0  0  0
    2.2824   -4.6519    0.0000 C   0  0  0  0  0  0  0  0  0  0  0  0
    1.9734   -3.7009    0.0000 C   0  0  0  0  0  0  0  0  0  0  0  0
    0.9953   -3.4929    0.0000 O   0  0  0  0  0  0  0  0  0  0  0  0
    2.6426   -2.9578    0.0000 N   0  0  0  0  0  0  0  0  0  0  0  0
    2.3336   -2.0067    0.0000 C   0  0  0  0  0  0  0  0  0  0  0  0
    3.0028   -1.2636    0.0000 C   0  0  0  0  0  0  0  0  0  0  0  0
    2.6938   -0.3125    0.0000 C   0  0  0  0  0  0  0  0  0  0  0  0
    3.2858    0.5023    0.0000 C   0  0  0  0  0  0  0  0  0  0  0  0
    2.6938    1.3169    0.0000 N   0  0  0  0  0  0  0  0  0  0  0  0
    1.7360    1.0058    0.0000 C   0  0  0  0  0  0  0  0  0  0  0  0
    1.7360   -0.0012    0.0000 C   0  0  0  0  0  0  0  0  0  0  0  0
    0.8680   -0.4978    0.0000 C   0  0  0  0  0  0  0  0  0  0  0  0
    0.0000    0.0000    0.0000 C   0  0  0  0  0  0  0  0  0  0  0  0
   -0.0000    1.0058    0.0000 C   0  0  0  0  0  0  0  0  0  0  0  0
    0.8680    1.5138    0.0000 C   0  0  0  0  0  0  0  0  0  0  0  0
   -0.8653   -0.5013    0.0000 O   0  0  0  0  0  0  0  0  0  0  0  0
   -0.8639   -1.5013    0.0000 C   0  0  0  0  0  0  0  0  0  0  0  0
  1  2  1  0  0  0  0
  2  3  2  0  0  0  0
  2  4  1  0  0  0  0
  4  5  1  0  0  0  0
  5  6  1  0  0  0  0
  6  7  2  0  0  0  0
  6  8  1  0  0  0  0
  8  9  1  0  0  0  0
  9 10  1  0  0  0  0
 10 11  1  0  0  0  0
 11 15  1  0  0  0  0
 11 12  2  0  0  0  0
 12 13  1  0  0  0  0
 13 14  1  0  0  0  0
 14 19  2  0  0  0  0
 14 15  1  0  0  0  0
 15 16  2  0  0  0  0
 16 17  1  0  0  0  0
 17 18  2  0  0  0  0
 18 19  1  0  0  0  0
 17 20  1  0  0  0  0
 20 21  1  0  0  0  0
M  END
$$$$
s_22____13978824____58902
  -OEChem-03222016482D

 19 21  0     0  0  0  0  0  0999 V2000
   -0.8705    2.5032    0.0000 C   0  0  0  0  0  0  0  0  0  0  0  0
   -0.8675    1.5032    0.0000 O   0  0  0  0  0  0  0  0  0  0  0  0
    0.0000    1.0058    0.0000 C   0  0  0  0  0  0  0  0  0  0  0  0
    0.0000    0.0000    0.0000 C   0  0  0  0  0  0  0  0  0  0  0  0
    0.8680   -0.4978    0.0000 C   0  0  0  0  0  0  0  0  0  0  0  0
    1.7360   -0.0012    0.0000 C   0  0  0  0  0  0  0  0  0  0  0  0
    1.7360    1.0058    0.0000 C   0  0  0  0  0  0  0  0  0  0  0  0
    0.8680    1.5138    0.0000 C   0  0  0  0  0  0  0  0  0  0  0  0
    2.6938    1.3169    0.0000 N   0  0  0  0  0  0  0  0  0  0  0  0
    3.2858    0.5023    0.0000 C   0  0  0  0  0  0  0  0  0  0  0  0
    2.6938   -0.3125    0.0000 C   0  0  0  0  0  0  0  0  0  0  0  0
    3.0028   -1.2636    0.0000 C   0  0  0  0  0  0  0  0  0  0  0  0
    3.9809   -1.4715    0.0000 C   0  0  0  0  0  0  0  0  0  0  0  0
    4.2899   -2.4226    0.0000 N   0  0  0  0  0  0  0  0  0  0  0  0
    5.2680   -2.6306    0.0000 C   0  0  0  0  0  0  0  0  0  0  0  0
    5.9372   -1.8874    0.0000 O   0  0  0  0  0  0  0  0  0  0  0  0
    5.5770   -3.5816    0.0000 C   0  0  0  0  0  0  0  0  0  0  0  0
    5.3697   -4.5618    0.0000 C   0  0  0  0  0  0  0  0  0  0  0  0
    6.3208   -4.2529    0.0000 C   0  0  0  0  0  0  0  0  0  0  0  0
  1  2  1  0  0  0  0
  2  3  1  0  0  0  0
  3  8  2  0  0  0  0
  3  4  1  0  0  0  0
  4  5  2  0  0  0  0
  5  6  1  0  0  0  0
  6 11  1  0  0  0  0
  6  7  2  0  0  0  0
  7  8  1  0  0  0  0
  7  9  1  0  0  0  0
  9 10  1  0  0  0  0
 10 11  2  0  0  0  0
 11 12  1  0  0  0  0
 12 13  1  0  0  0  0
 13 14  1  0  0  0  0
 14 15  1  0  0  0  0
 15 16  2  0  0  0  0
 15 17  1  0  0  0  0
 17 19  1  0  0  0  0
 17 18  1  0  0  0  0
 18 19  1  0  0  0  0
M  END
$$$$
s_22____12346432____59039
  -OEChem-03222016482D

 18 19  0     0  0  0  0  0  0999 V2000
    6.8641   -4.7407    0.0000 C   0  0  0  0  0  0  0  0  0  0  0  0
    6.5551   -3.7896    0.0000 O   0  0  0  0  0  0  0  0  0  0  0  0
    5.5770   -3.5816    0.0000 C   0  0  0  0  0  0  0  0  0  0  0  0
    5.2680   -2.6306    0.0000 C   0  0  0  0  0  0  0  0  0  0  0  0
    5.9372   -1.8874    0.0000 O   0  0  0  0  0  0  0  0  0  0  0  0
    4.2899   -2.4226    0.0000 N   0  0  0  0  0  0  0  0  0  0  0  0
    3.9809   -1.4715    0.0000 C   0  0  0  0  0  0  0  0  0  0  0  0
    3.0028   -1.2636    0.0000 C   0  0  0  0  0  0  0  0  0  0  0  0
    2.6938   -0.3125    0.0000 C   0  0  0  0  0  0  0  0  0  0  0  0
    3.2858    0.5023    0.0000 C   0  0  0  0  0  0  0  0  0  0  0  0
    2.6938    1.3169    0.0000 N   0  0  0  0  0  0  0  0  0  0  0  0
    1.7360    1.0058    0.0000 C   0  0  0  0  0  0  0  0  0  0  0  0
    1.7360   -0.0012    0.0000 C   0  0  0  0  0  0  0  0  0  0  0  0
    0.8680   -0.4978    0.0000 C   0  0  0  0  0  0  0  0  0  0  0  0
    0.0000    0.0000    0.0000 C   0  0  0  0  0  0  0  0  0  0  0  0
   -0.0000    1.0058    0.0000 C   0  0  0  0  0  0  0  0  0  0  0  0
    0.8680    1.5138    0.0000 C   0  0  0  0  0  0  0  0  0  0  0  0
    0.8680    2.5138    0.0000 Cl  0  0  0  0  0  0  0  0  0  0  0  0
  1  2  1  0  0  0  0
  2  3  1  0  0  0  0
  3  4  1  0  0  0  0
  4  5  2  0  0  0  0
  4  6  1  0  0  0  0
  6  7  1  0  0  0  0
  7  8  1  0  0  0  0
  8  9  1  0  0  0  0
  9 13  1  0  0  0  0
  9 10  2  0  0  0  0
 10 11  1  0  0  0  0
 11 12  1  0  0  0  0
 12 17  2  0  0  0  0
 12 13  1  0  0  0  0
 13 14  2  0  0  0  0
 14 15  1  0  0  0  0
 15 16  2  0  0  0  0
 16 17  1  0  0  0  0
 17 18  1  0  0  0  0
M  END
$$$$
s_270062____15561812____15585492
  -OEChem-03222016482D

 18 19  0     0  0  0  0  0  0999 V2000
    1.3042   -4.4440    0.0000 C   0  0  0  0  0  0  0  0  0  0  0  0
    1.9734   -3.7009    0.0000 C   0  0  0  0  0  0  0  0  0  0  0  0
    2.9515   -3.9088    0.0000 O   0  0  0  0  0  0  0  0  0  0  0  0
    1.6644   -2.7498    0.0000 N   0  0  0  0  0  0  0  0  0  0  0  0
    2.3336   -2.0067    0.0000 C   0  0  0  0  0  0  0  0  0  0  0  0
    1.5905   -1.3375    0.0000 C   0  0  0  0  0  0  0  0  0  0  0  0
    3.0767   -2.6759    0.0000 C   0  0  0  0  0  0  0  0  0  0  0  0
    3.0028   -1.2636    0.0000 C   0  0  0  0  0  0  0  0  0  0  0  0
    2.6938   -0.3125    0.0000 C   0  0  0  0  0  0  0  0  0  0  0  0
    3.2858    0.5023    0.0000 C   0  0  0  0  0  0  0  0  0  0  0  0
    2.6938    1.3169    0.0000 N   0  0  0  0  0  0  0  0  0  0  0  0
    1.7360    1.0058    0.0000 C   0  0  0  0  0  0  0  0  0  0  0  0
    1.7360   -0.0012    0.0000 C   0  0  0  0  0  0  0  0  0  0  0  0
    0.8680   -0.4978    0.0000 C   0  0  0  0  0  0  0  0  0  0  0  0
    0.0000    0.0000    0.0000 C   0  0  0  0  0  0  0  0  0  0  0  0
   -0.0000    1.0058    0.0000 C   0  0  0  0  0  0  0  0  0  0  0  0
    0.8680    1.5138    0.0000 C   0  0  0  0  0  0  0  0  0  0  0  0
   -0.8675    1.5032    0.0000 Br  0  0  0  0  0  0  0  0  0  0  0  0
  1  2  1  0  0  0  0
  2  3  2  0  0  0  0
  2  4  1  0  0  0  0
  4  5  1  0  0  0  0
  5  6  1  0  0  0  0
  5  7  1  0  0  0  0
  5  8  1  0  0  0  0
  8  9  1  0  0  0  0
  9 13  1  0  0  0  0
  9 10  2  0  0  0  0
 10 11  1  0  0  0  0
 11 12  1  0  0  0  0
 12 17  2  0  0  0  0
 12 13  1  0  0  0  0
 13 14  2  0  0  0  0
 14 15  1  0  0  0  0
 15 16  2  0  0  0  0
 16 17  1  0  0  0  0
 16 18  1  0  0  0  0
M  END
$$$$
s_240690b____17036622____3025698
  -OEChem-03222016482D

 17 18  0     0  0  0  0  0  0999 V2000
    0.0000    0.0000    0.0000 C   0  0  0  0  0  0  0  0  0  0  0  0
    0.8780    0.4964    0.0000 C   0  0  0  0  0  0  0  0  0  0  0  0
    1.8332    0.1849    0.0000 C   0  0  0  0  0  0  0  0  0  0  0  0
    2.4247    0.9971    0.0000 C   0  0  0  0  0  0  0  0  0  0  0  0
    1.8349    1.8105    0.0000 N   0  0  0  0  0  0  0  0  0  0  0  0
    0.8791    1.5011    0.0000 C   0  0  0  0  0  0  0  0  0  0  0  0
    0.0101    2.0110    0.0000 C   0  0  0  0  0  0  0  0  0  0  0  0
   -0.8584    1.5098    0.0000 N   0  0  0  0  0  0  0  0  0  0  0  0
   -0.8635    0.5043    0.0000 C   0  0  0  0  0  0  0  0  0  0  0  0
   -1.7320    0.0087    0.0000 Cl  0  0  0  0  0  0  0  0  0  0  0  0
    2.1412   -0.7665    0.0000 C   0  0  0  0  0  0  0  0  0  0  0  0
    3.1191   -0.9755    0.0000 C   0  0  0  0  0  0  0  0  0  0  0  0
    3.4271   -1.9269    0.0000 N   0  0  0  0  0  0  0  0  0  0  0  0
    4.4050   -2.1359    0.0000 C   0  0  0  0  0  0  0  0  0  0  0  0
    5.0749   -1.3935    0.0000 O   0  0  0  0  0  0  0  0  0  0  0  0
    4.7129   -3.0873    0.0000 C   0  0  0  0  0  0  0  0  0  0  0  0
    5.6909   -3.2963    0.0000 N   0  3  0  0  0  0  0  0  0  0  0  0
  1  9  2  0  0  0  0
  1  2  1  0  0  0  0
  2  6  2  0  0  0  0
  2  3  1  0  0  0  0
  3  4  2  0  0  0  0
  4  5  1  0  0  0  0
  5  6  1  0  0  0  0
  6  7  1  0  0  0  0
  7  8  2  0  0  0  0
  8  9  1  0  0  0  0
  9 10  1  0  0  0  0
  3 11  1  0  0  0  0
 11 12  1  0  0  0  0
 12 13  1  0  0  0  0
 13 14  1  0  0  0  0
 14 15  2  0  0  0  0
 14 16  1  0  0  0  0
 16 17  1  0  0  0  0
M  CHG  1  17   1
M  END
$$$$
s_22____6079110____58844
  -OEChem-03222016482D

 16 17  0     0  0  0  0  0  0999 V2000
    5.5770   -3.5816    0.0000 C   0  0  0  0  0  0  0  0  0  0  0  0
    5.2680   -2.6306    0.0000 C   0  0  0  0  0  0  0  0  0  0  0  0
    5.9372   -1.8874    0.0000 O   0  0  0  0  0  0  0  0  0  0  0  0
    4.2899   -2.4226    0.0000 N   0  0  0  0  0  0  0  0  0  0  0  0
    3.9809   -1.4715    0.0000 C   0  0  0  0  0  0  0  0  0  0  0  0
    3.0028   -1.2636    0.0000 C   0  0  0  0  0  0  0  0  0  0  0  0
    2.6938   -0.3125    0.0000 C   0  0  0  0  0  0  0  0  0  0  0  0
    3.2858    0.5023    0.0000 C   0  0  0  0  0  0  0  0  0  0  0  0
    2.6938    1.3169    0.0000 N   0  0  0  0  0  0  0  0  0  0  0  0
    1.7360    1.0058    0.0000 C   0  0  0  0  0  0  0  0  0  0  0  0
    1.7360   -0.0012    0.0000 C   0  0  0  0  0  0  0  0  0  0  0  0
    0.8680   -0.4978    0.0000 C   0  0  0  0  0  0  0  0  0  0  0  0
    0.0000    0.0000    0.0000 C   0  0  0  0  0  0  0  0  0  0  0  0
   -0.0000    1.0058    0.0000 C   0  0  0  0  0  0  0  0  0  0  0  0
    0.8680    1.5138    0.0000 C   0  0  0  0  0  0  0  0  0  0  0  0
   -0.8653   -0.5013    0.0000 Cl  0  0  0  0  0  0  0  0  0  0  0  0
  1  2  1  0  0  0  0
  2  3  2  0  0  0  0
  2  4  1  0  0  0  0
  4  5  1  0  0  0  0
  5  6  1  0  0  0  0
  6  7  1  0  0  0  0
  7 11  1  0  0  0  0
  7  8  2  0  0  0  0
  8  9  1  0  0  0  0
  9 10  1  0  0  0  0
 10 15  2  0  0  0  0
 10 11  1  0  0  0  0
 11 12  2  0  0  0  0
 12 13  1  0  0  0  0
 13 14  2  0  0  0  0
 14 15  1  0  0  0  0
 13 16  1  0  0  0  0
M  END
$$$$
s_22____13913040____58887
  -OEChem-03222016482D

 18 19  0     1  0  0  0  0  0999 V2000
    1.6132   -5.3951    0.0000 C   0  0  0  0  0  0  0  0  0  0  0  0
    2.2824   -4.6519    0.0000 C   0  0  0  0  0  0  0  0  0  0  0  0
    1.9734   -3.7009    0.0000 C   0  0  0  0  0  0  0  0  0  0  0  0
    0.9953   -3.4929    0.0000 O   0  0  0  0  0  0  0  0  0  0  0  0
    2.6426   -2.9578    0.0000 N   0  0  0  0  0  0  0  0  0  0  0  0
    2.3336   -2.0067    0.0000 C   0  0  3  0  0  0  0  0  0  0  0  0
    1.3555   -1.7987    0.0000 C   0  0  0  0  0  0  0  0  0  0  0  0
    3.0028   -1.2636    0.0000 C   0  0  0  0  0  0  0  0  0  0  0  0
    2.6938   -0.3125    0.0000 C   0  0  0  0  0  0  0  0  0  0  0  0
    3.2858    0.5023    0.0000 C   0  0  0  0  0  0  0  0  0  0  0  0
    2.6938    1.3169    0.0000 N   0  0  0  0  0  0  0  0  0  0  0  0
    1.7360    1.0058    0.0000 C   0  0  0  0  0  0  0  0  0  0  0  0
    1.7360   -0.0012    0.0000 C   0  0  0  0  0  0  0  0  0  0  0  0
    0.8680   -0.4978    0.0000 C   0  0  0  0  0  0  0  0  0  0  0  0
    0.0000    0.0000    0.0000 C   0  0  0  0  0  0  0  0  0  0  0  0
   -0.0000    1.0058    0.0000 C   0  0  0  0  0  0  0  0  0  0  0  0
    0.8680    1.5138    0.0000 C   0  0  0  0  0  0  0  0  0  0  0  0
   -0.8653   -0.5013    0.0000 F   0  0  0  0  0  0  0  0  0  0  0  0
  1  2  1  0  0  0  0
  2  3  1  0  0  0  0
  3  4  2  0  0  0  0
  3  5  1  0  0  0  0
  5  6  1  0  0  0  0
  6  7  1  0  0  0  0
  6  8  1  0  0  0  0
  8  9  1  0  0  0  0
  9 13  1  0  0  0  0
  9 10  2  0  0  0  0
 10 11  1  0  0  0  0
 11 12  1  0  0  0  0
 12 17  2  0  0  0  0
 12 13  1  0  0  0  0
 13 14  2  0  0  0  0
 14 15  1  0  0  0  0
 15 16  2  0  0  0  0
 16 17  1  0  0  0  0
 15 18  1  0  0  0  0
M  END
$$$$
s_270004____12856480____16621896
  -OEChem-03222016482D

 21 22  0     0  0  0  0  0  0999 V2000
    8.7856    3.1007    0.0000 C   0  0  0  0  0  0  0  0  0  0  0  0
    7.7856    3.1006    0.0000 C   0  0  0  0  0  0  0  0  0  0  0  0
    7.2857    2.2346    0.0000 N   0  0  0  0  0  0  0  0  0  0  0  0
    7.7857    1.3686    0.0000 C   0  0  0  0  0  0  0  0  0  0  0  0
    8.7857    1.3686    0.0000 C   0  0  0  0  0  0  0  0  0  0  0  0
    6.2857    2.2345    0.0000 C   0  0  0  0  0  0  0  0  0  0  0  0
    5.7856    3.1005    0.0000 O   0  0  0  0  0  0  0  0  0  0  0  0
    5.7857    1.3685    0.0000 C   0  0  0  0  0  0  0  0  0  0  0  0
    4.7857    1.3684    0.0000 N   0  3  0  0  0  0  0  0  0  0  0  0
    4.2858    0.5024    0.0000 C   0  0  0  0  0  0  0  0  0  0  0  0
    3.2858    0.5023    0.0000 C   0  0  0  0  0  0  0  0  0  0  0  0
    2.6938   -0.3125    0.0000 C   0  0  0  0  0  0  0  0  0  0  0  0
    1.7360   -0.0012    0.0000 C   0  0  0  0  0  0  0  0  0  0  0  0
    0.8680   -0.4978    0.0000 C   0  0  0  0  0  0  0  0  0  0  0  0
    0.0000    0.0000    0.0000 C   0  0  0  0  0  0  0  0  0  0  0  0
    0.0000    1.0058    0.0000 C   0  0  0  0  0  0  0  0  0  0  0  0
    0.8680    1.5138    0.0000 C   0  0  0  0  0  0  0  0  0  0  0  0
    1.7360    1.0058    0.0000 C   0  0  0  0  0  0  0  0  0  0  0  0
    2.6938    1.3169    0.0000 N   0  0  0  0  0  0  0  0  0  0  0  0
   -0.8653   -0.5013    0.0000 O   0  0  0  0  0  0  0  0  0  0  0  0
   -0.8639   -1.5013    0.0000 C   0  0  0  0  0  0  0  0  0  0  0  0
  1  2  1  0  0  0  0
  2  3  1  0  0  0  0
  3  4  1  0  0  0  0
  4  5  1  0  0  0  0
  3  6  1  0  0  0  0
  6  7  2  0  0  0  0
  6  8  1  0  0  0  0
  8  9  1  0  0  0  0
  9 10  1  0  0  0  0
 10 11  1  0  0  0  0
 11 19  1  0  0  0  0
 11 12  2  0  0  0  0
 12 13  1  0  0  0  0
 13 18  2  0  0  0  0
 13 14  1  0  0  0  0
 14 15  2  0  0  0  0
 15 16  1  0  0  0  0
 16 17  2  0  0  0  0
 17 18  1  0  0  0  0
 18 19  1  0  0  0  0
 15 20  1  0  0  0  0
 20 21  1  0  0  0  0
M  CHG  1   9   1
M  END
$$$$
s_22____9156166____8794444
  -OEChem-03222016482D

 18 19  0     0  0  0  0  0  0999 V2000
   -0.8675    1.5032    0.0000 C   0  0  0  0  0  0  0  0  0  0  0  0
    0.0000    1.0058    0.0000 C   0  0  0  0  0  0  0  0  0  0  0  0
    0.0000    0.0000    0.0000 C   0  0  0  0  0  0  0  0  0  0  0  0
    0.8680   -0.4978    0.0000 C   0  0  0  0  0  0  0  0  0  0  0  0
    1.7360   -0.0012    0.0000 C   0  0  0  0  0  0  0  0  0  0  0  0
    1.7360    1.0058    0.0000 C   0  0  0  0  0  0  0  0  0  0  0  0
    0.8680    1.5138    0.0000 C   0  0  0  0  0  0  0  0  0  0  0  0
    2.6938    1.3169    0.0000 N   0  0  0  0  0  0  0  0  0  0  0  0
    3.2858    0.5023    0.0000 C   0  0  0  0  0  0  0  0  0  0  0  0
    2.6938   -0.3125    0.0000 C   0  0  0  0  0  0  0  0  0  0  0  0
    3.0028   -1.2636    0.0000 C   0  0  0  0  0  0  0  0  0  0  0  0
    3.9809   -1.4715    0.0000 C   0  0  0  0  0  0  0  0  0  0  0  0
    4.2899   -2.4226    0.0000 N   0  0  0  0  0  0  0  0  0  0  0  0
    5.2680   -2.6306    0.0000 C   0  0  0  0  0  0  0  0  0  0  0  0
    5.9372   -1.8874    0.0000 O   0  0  0  0  0  0  0  0  0  0  0  0
    5.5770   -3.5816    0.0000 C   0  0  0  0  0  0  0  0  0  0  0  0
    6.5551   -3.7896    0.0000 C   0  0  0  0  0  0  0  0  0  0  0  0
    7.5333   -3.9976    0.0000 N   0  0  0  0  0  0  0  0  0  0  0  0
  1  2  1  0  0  0  0
  2  7  2  0  0  0  0
  2  3  1  0  0  0  0
  3  4  2  0  0  0  0
  4  5  1  0  0  0  0
  5 10  1  0  0  0  0
  5  6  2  0  0  0  0
  6  7  1  0  0  0  0
  6  8  1  0  0  0  0
  8  9  1  0  0  0  0
  9 10  2  0  0  0  0
 10 11  1  0  0  0  0
 11 12  1  0  0  0  0
 12 13  1  0  0  0  0
 13 14  1  0  0  0  0
 14 15  2  0  0  0  0
 14 16  1  0  0  0  0
 16 17  1  0  0  0  0
 17 18  3  0  0  0  0
M  END
$$$$
s_8____4839444____83693
  -OEChem-03222016482D

 18 19  0     0  0  0  0  0  0999 V2000
    1.6132   -5.3951    0.0000 C   0  0  0  0  0  0  0  0  0  0  0  0
    2.2824   -4.6519    0.0000 N   0  0  0  0  0  0  0  0  0  0  0  0
    1.9734   -3.7009    0.0000 C   0  0  0  0  0  0  0  0  0  0  0  0
    0.9953   -3.4929    0.0000 S   0  0  0  0  0  0  0  0  0  0  0  0
    2.6426   -2.9578    0.0000 N   0  0  0  0  0  0  0  0  0  0  0  0
    2.3336   -2.0067    0.0000 C   0  0  0  0  0  0  0  0  0  0  0  0
    3.0028   -1.2636    0.0000 C   0  0  0  0  0  0  0  0  0  0  0  0
    2.6938   -0.3125    0.0000 C   0  0  0  0  0  0  0  0  0  0  0  0
    3.2858    0.5023    0.0000 C   0  0  0  0  0  0  0  0  0  0  0  0
    2.6938    1.3169    0.0000 N   0  0  0  0  0  0  0  0  0  0  0  0
    1.7360    1.0058    0.0000 C   0  0  0  0  0  0  0  0  0  0  0  0
    1.7360   -0.0012    0.0000 C   0  0  0  0  0  0  0  0  0  0  0  0
    0.8680   -0.4978    0.0000 C   0  0  0  0  0  0  0  0  0  0  0  0
    0.0000    0.0000    0.0000 C   0  0  0  0  0  0  0  0  0  0  0  0
   -0.0000    1.0058    0.0000 C   0  0  0  0  0  0  0  0  0  0  0  0
    0.8680    1.5138    0.0000 C   0  0  0  0  0  0  0  0  0  0  0  0
   -0.8653   -0.5013    0.0000 O   0  0  0  0  0  0  0  0  0  0  0  0
   -0.8639   -1.5013    0.0000 C   0  0  0  0  0  0  0  0  0  0  0  0
  1  2  1  0  0  0  0
  2  3  1  0  0  0  0
  3  4  2  0  0  0  0
  3  5  1  0  0  0  0
  5  6  1  0  0  0  0
  6  7  1  0  0  0  0
  7  8  1  0  0  0  0
  8 12  1  0  0  0  0
  8  9  2  0  0  0  0
  9 10  1  0  0  0  0
 10 11  1  0  0  0  0
 11 16  2  0  0  0  0
 11 12  1  0  0  0  0
 12 13  2  0  0  0  0
 13 14  1  0  0  0  0
 14 15  2  0  0  0  0
 15 16  1  0  0  0  0
 14 17  1  0  0  0  0
 17 18  1  0  0  0  0
M  END
$$$$
s_22____15506616____10389864
  -OEChem-03222016482D

 21 22  0     0  0  0  0  0  0999 V2000
    1.7340    3.0138    0.0000 C   0  0  0  0  0  0  0  0  0  0  0  0
    0.8680    2.5138    0.0000 O   0  0  0  0  0  0  0  0  0  0  0  0
    0.8680    1.5138    0.0000 C   0  0  0  0  0  0  0  0  0  0  0  0
    0.0000    1.0058    0.0000 C   0  0  0  0  0  0  0  0  0  0  0  0
    0.0000    0.0000    0.0000 C   0  0  0  0  0  0  0  0  0  0  0  0
    0.8680   -0.4978    0.0000 C   0  0  0  0  0  0  0  0  0  0  0  0
    1.7360   -0.0012    0.0000 C   0  0  0  0  0  0  0  0  0  0  0  0
    1.7360    1.0058    0.0000 C   0  0  0  0  0  0  0  0  0  0  0  0
    2.6938    1.3169    0.0000 N   0  0  0  0  0  0  0  0  0  0  0  0
    3.2858    0.5023    0.0000 C   0  0  0  0  0  0  0  0  0  0  0  0
    2.6938   -0.3125    0.0000 C   0  0  0  0  0  0  0  0  0  0  0  0
    3.0028   -1.2636    0.0000 C   0  0  0  0  0  0  0  0  0  0  0  0
    3.9809   -1.4715    0.0000 C   0  0  0  0  0  0  0  0  0  0  0  0
    4.2899   -2.4226    0.0000 N   0  0  0  0  0  0  0  0  0  0  0  0
    5.2680   -2.6306    0.0000 C   0  0  0  0  0  0  0  0  0  0  0  0
    5.9372   -1.8874    0.0000 O   0  0  0  0  0  0  0  0  0  0  0  0
    5.5770   -3.5816    0.0000 C   0  0  0  0  0  0  0  0  0  0  0  0
    6.5551   -3.7896    0.0000 C   0  0  0  0  0  0  0  0  0  0  0  0
    6.8641   -4.7407    0.0000 C   0  0  0  0  0  0  0  0  0  0  0  0
    7.8422   -4.9486    0.0000 C   0  0  0  0  0  0  0  0  0  0  0  0
    8.8204   -5.1566    0.0000 N   0  0  0  0  0  0  0  0  0  0  0  0
  1  2  1  0  0  0  0
  2  3  1  0  0  0  0
  3  8  2  0  0  0  0
  3  4  1  0  0  0  0
  4  5  2  0  0  0  0
  5  6  1  0  0  0  0
  6  7  2  0  0  0  0
  7 11  1  0  0  0  0
  7  8  1  0  0  0  0
  8  9  1  0  0  0  0
  9 10  1  0  0  0  0
 10 11  2  0  0  0  0
 11 12  1  0  0  0  0
 12 13  1  0  0  0  0
 13 14  1  0  0  0  0
 14 15  1  0  0  0  0
 15 16  2  0  0  0  0
 15 17  1  0  0  0  0
 17 18  1  0  0  0  0
 18 19  1  0  0  0  0
 19 20  1  0  0  0  0
 20 21  3  0  0  0  0
M  END
$$$$
s_240690b____13025580____3025692
  -OEChem-03222016482D

 19 20  0     1  0  0  0  0  0999 V2000
    4.9078   -4.3247    0.0000 C   0  0  0  0  0  0  0  0  0  0  0  0
    5.5770   -3.5816    0.0000 C   0  0  3  0  0  0  0  0  0  0  0  0
    5.2680   -2.6306    0.0000 C   0  0  0  0  0  0  0  0  0  0  0  0
    5.9372   -1.8874    0.0000 O   0  0  0  0  0  0  0  0  0  0  0  0
    4.2899   -2.4226    0.0000 N   0  0  0  0  0  0  0  0  0  0  0  0
    3.9809   -1.4715    0.0000 C   0  0  0  0  0  0  0  0  0  0  0  0
    3.0028   -1.2636    0.0000 C   0  0  0  0  0  0  0  0  0  0  0  0
    2.6938   -0.3125    0.0000 C   0  0  0  0  0  0  0  0  0  0  0  0
    3.2858    0.5023    0.0000 C   0  0  0  0  0  0  0  0  0  0  0  0
    2.6938    1.3169    0.0000 N   0  0  0  0  0  0  0  0  0  0  0  0
    1.7360    1.0058    0.0000 C   0  0  0  0  0  0  0  0  0  0  0  0
    1.7360   -0.0012    0.0000 C   0  0  0  0  0  0  0  0  0  0  0  0
    0.8680   -0.4978    0.0000 C   0  0  0  0  0  0  0  0  0  0  0  0
    0.0000    0.0000    0.0000 C   0  0  0  0  0  0  0  0  0  0  0  0
   -0.0000    1.0058    0.0000 C   0  0  0  0  0  0  0  0  0  0  0  0
    0.8680    1.5138    0.0000 C   0  0  0  0  0  0  0  0  0  0  0  0
    0.8675   -1.4978    0.0000 O   0  0  0  0  0  0  0  0  0  0  0  0
    1.7332   -1.9983    0.0000 C   0  0  0  0  0  0  0  0  0  0  0  0
    6.5551   -3.7896    0.0000 N   0  3  0  0  0  0  0  0  0  0  0  0
  1  2  1  0  0  0  0
  2  3  1  0  0  0  0
  3  4  2  0  0  0  0
  3  5  1  0  0  0  0
  5  6  1  0  0  0  0
  6  7  1  0  0  0  0
  7  8  1  0  0  0  0
  8 12  1  0  0  0  0
  8  9  2  0  0  0  0
  9 10  1  0  0  0  0
 10 11  1  0  0  0  0
 11 16  2  0  0  0  0
 11 12  1  0  0  0  0
 12 13  2  0  0  0  0
 13 14  1  0  0  0  0
 14 15  2  0  0  0  0
 15 16  1  0  0  0  0
 13 17  1  0  0  0  0
 17 18  1  0  0  0  0
  2 19  1  0  0  0  0
M  CHG  1  19   1
M  END
$$$$
s_207____3310404____15501800
  -OEChem-03222016482D

 21 22  0     0  0  0  0  0  0999 V2000
    7.7856    3.1006    0.0000 C   0  0  0  0  0  0  0  0  0  0  0  0
    7.2857    2.2346    0.0000 N   0  0  0  0  0  0  0  0  0  0  0  0
    7.7858    1.3686    0.0000 C   0  0  0  0  0  0  0  0  0  0  0  0
    6.2857    2.2345    0.0000 C   0  0  0  0  0  0  0  0  0  0  0  0
    5.7856    3.1005    0.0000 O   0  0  0  0  0  0  0  0  0  0  0  0
    5.7858    1.3685    0.0000 C   0  0  0  0  0  0  0  0  0  0  0  0
    4.7858    1.3684    0.0000 N   0  3  0  0  0  0  0  0  0  0  0  0
    4.2858    0.5024    0.0000 C   0  0  0  0  0  0  0  0  0  0  0  0
    3.2858    0.5023    0.0000 C   0  0  0  0  0  0  0  0  0  0  0  0
    2.6938   -0.3125    0.0000 C   0  0  0  0  0  0  0  0  0  0  0  0
    1.7360   -0.0012    0.0000 C   0  0  0  0  0  0  0  0  0  0  0  0
    1.7360    1.0058    0.0000 C   0  0  0  0  0  0  0  0  0  0  0  0
    2.6938    1.3169    0.0000 N   0  0  0  0  0  0  0  0  0  0  0  0
    0.8680    1.5138    0.0000 C   0  0  0  0  0  0  0  0  0  0  0  0
    0.0000    1.0058    0.0000 C   0  0  0  0  0  0  0  0  0  0  0  0
    0.0000    0.0000    0.0000 C   0  0  0  0  0  0  0  0  0  0  0  0
    0.8680   -0.4978    0.0000 C   0  0  0  0  0  0  0  0  0  0  0  0
    0.8675   -1.4978    0.0000 O   0  0  0  0  0  0  0  0  0  0  0  0
    1.7332   -1.9983    0.0000 C   0  0  0  0  0  0  0  0  0  0  0  0
   -0.8675    1.5032    0.0000 O   0  0  0  0  0  0  0  0  0  0  0  0
   -1.7320    1.0007    0.0000 C   0  0  0  0  0  0  0  0  0  0  0  0
  1  2  1  0  0  0  0
  2  3  1  0  0  0  0
  2  4  1  0  0  0  0
  4  5  2  0  0  0  0
  4  6  1  0  0  0  0
  6  7  1  0  0  0  0
  7  8  1  0  0  0  0
  8  9  1  0  0  0  0
  9 13  1  0  0  0  0
  9 10  2  0  0  0  0
 10 11  1  0  0  0  0
 11 17  2  0  0  0  0
 11 12  1  0  0  0  0
 12 13  1  0  0  0  0
 12 14  2  0  0  0  0
 14 15  1  0  0  0  0
 15 16  2  0  0  0  0
 16 17  1  0  0  0  0
 17 18  1  0  0  0  0
 18 19  1  0  0  0  0
 15 20  1  0  0  0  0
 20 21  1  0  0  0  0
M  CHG  1   7   1
M  END
$$$$
s_22____13612008____58844
  -OEChem-03222016482D

 16 17  0     0  0  0  0  0  0999 V2000
   -0.8653   -0.5013    0.0000 C   0  0  0  0  0  0  0  0  0  0  0  0
    0.0000    0.0000    0.0000 C   0  0  0  0  0  0  0  0  0  0  0  0
   -0.0000    1.0058    0.0000 C   0  0  0  0  0  0  0  0  0  0  0  0
    0.8680    1.5138    0.0000 C   0  0  0  0  0  0  0  0  0  0  0  0
    1.7360    1.0058    0.0000 C   0  0  0  0  0  0  0  0  0  0  0  0
    1.7360   -0.0012    0.0000 C   0  0  0  0  0  0  0  0  0  0  0  0
    0.8680   -0.4978    0.0000 C   0  0  0  0  0  0  0  0  0  0  0  0
    2.6938   -0.3125    0.0000 C   0  0  0  0  0  0  0  0  0  0  0  0
    3.2858    0.5023    0.0000 C   0  0  0  0  0  0  0  0  0  0  0  0
    2.6938    1.3169    0.0000 N   0  0  0  0  0  0  0  0  0  0  0  0
    3.0028   -1.2636    0.0000 C   0  0  0  0  0  0  0  0  0  0  0  0
    3.9809   -1.4715    0.0000 C   0  0  0  0  0  0  0  0  0  0  0  0
    4.2899   -2.4226    0.0000 N   0  0  0  0  0  0  0  0  0  0  0  0
    5.2680   -2.6306    0.0000 C   0  0  0  0  0  0  0  0  0  0  0  0
    5.9372   -1.8874    0.0000 O   0  0  0  0  0  0  0  0  0  0  0  0
    5.5770   -3.5816    0.0000 C   0  0  0  0  0  0  0  0  0  0  0  0
  1  2  1  0  0  0  0
  2  7  2  0  0  0  0
  2  3  1  0  0  0  0
  3  4  2  0  0  0  0
  4  5  1  0  0  0  0
  5 10  1  0  0  0  0
  5  6  2  0  0  0  0
  6  7  1  0  0  0  0
  6  8  1  0  0  0  0
  8  9  2  0  0  0  0
  9 10  1  0  0  0  0
  8 11  1  0  0  0  0
 11 12  1  0  0  0  0
 12 13  1  0  0  0  0
 13 14  1  0  0  0  0
 14 15  2  0  0  0  0
 14 16  1  0  0  0  0
M  END
$$$$
s_270004____8334182____16621896
  -OEChem-03222016482D

 20 21  0     0  0  0  0  0  0999 V2000
   -1.7320   -0.0025    0.0000 C   0  0  0  0  0  0  0  0  0  0  0  0
   -0.8653   -0.5013    0.0000 O   0  0  0  0  0  0  0  0  0  0  0  0
    0.0000    0.0000    0.0000 C   0  0  0  0  0  0  0  0  0  0  0  0
   -0.0000    1.0058    0.0000 C   0  0  0  0  0  0  0  0  0  0  0  0
    0.8680    1.5138    0.0000 C   0  0  0  0  0  0  0  0  0  0  0  0
    1.7360    1.0058    0.0000 C   0  0  0  0  0  0  0  0  0  0  0  0
    1.7360   -0.0012    0.0000 C   0  0  0  0  0  0  0  0  0  0  0  0
    0.8680   -0.4978    0.0000 C   0  0  0  0  0  0  0  0  0  0  0  0
    2.6938   -0.3125    0.0000 C   0  0  0  0  0  0  0  0  0  0  0  0
    3.2858    0.5023    0.0000 C   0  0  0  0  0  0  0  0  0  0  0  0
    2.6938    1.3169    0.0000 N   0  0  0  0  0  0  0  0  0  0  0  0
    4.2858    0.5024    0.0000 C   0  0  0  0  0  0  0  0  0  0  0  0
    4.7857    1.3684    0.0000 N   0  3  0  0  0  0  0  0  0  0  0  0
    5.7857    1.3685    0.0000 C   0  0  0  0  0  0  0  0  0  0  0  0
    6.2857    2.2345    0.0000 C   0  0  0  0  0  0  0  0  0  0  0  0
    5.7856    3.1005    0.0000 O   0  0  0  0  0  0  0  0  0  0  0  0
    7.2857    2.2346    0.0000 N   0  0  0  0  0  0  0  0  0  0  0  0
    7.7856    3.1006    0.0000 C   0  0  0  0  0  0  0  0  0  0  0  0
    8.7856    3.1007    0.0000 C   0  0  0  0  0  0  0  0  0  0  0  0
    9.2856    3.9668    0.0000 C   0  0  0  0  0  0  0  0  0  0  0  0
  1  2  1  0  0  0  0
  2  3  1  0  0  0  0
  3  8  2  0  0  0  0
  3  4  1  0  0  0  0
  4  5  2  0  0  0  0
  5  6  1  0  0  0  0
  6 11  1  0  0  0  0
  6  7  2  0  0  0  0
  7  8  1  0  0  0  0
  7  9  1  0  0  0  0
  9 10  2  0  0  0  0
 10 11  1  0  0  0  0
 10 12  1  0  0  0  0
 12 13  1  0  0  0  0
 13 14  1  0  0  0  0
 14 15  1  0  0  0  0
 15 16  2  0  0  0  0
 15 17  1  0  0  0  0
 17 18  1  0  0  0  0
 18 19  1  0  0  0  0
 19 20  2  0  0  0  0
M  CHG  1  13   1
M  END
$$$$
s_270062____15561812____8147258
  -OEChem-03222016482D

 19 20  0     0  0  0  0  0  0999 V2000
    1.5905   -1.3375    0.0000 C   0  0  0  0  0  0  0  0  0  0  0  0
    2.3336   -2.0067    0.0000 C   0  0  0  0  0  0  0  0  0  0  0  0
    3.0767   -2.6759    0.0000 C   0  0  0  0  0  0  0  0  0  0  0  0
    3.0028   -1.2636    0.0000 C   0  0  0  0  0  0  0  0  0  0  0  0
    2.6938   -0.3125    0.0000 C   0  0  0  0  0  0  0  0  0  0  0  0
    3.2858    0.5023    0.0000 C   0  0  0  0  0  0  0  0  0  0  0  0
    2.6938    1.3169    0.0000 N   0  0  0  0  0  0  0  0  0  0  0  0
    1.7360    1.0058    0.0000 C   0  0  0  0  0  0  0  0  0  0  0  0
    1.7360   -0.0012    0.0000 C   0  0  0  0  0  0  0  0  0  0  0  0
    0.8680   -0.4978    0.0000 C   0  0  0  0  0  0  0  0  0  0  0  0
    0.0000    0.0000    0.0000 C   0  0  0  0  0  0  0  0  0  0  0  0
   -0.0000    1.0058    0.0000 C   0  0  0  0  0  0  0  0  0  0  0  0
    0.8680    1.5138    0.0000 C   0  0  0  0  0  0  0  0  0  0  0  0
   -0.8675    1.5032    0.0000 Br  0  0  0  0  0  0  0  0  0  0  0  0
    1.6644   -2.7498    0.0000 N   0  0  0  0  0  0  0  0  0  0  0  0
    1.9734   -3.7009    0.0000 C   0  0  0  0  0  0  0  0  0  0  0  0
    2.9515   -3.9088    0.0000 O   0  0  0  0  0  0  0  0  0  0  0  0
    1.3042   -4.4440    0.0000 C   0  0  0  0  0  0  0  0  0  0  0  0
    1.6132   -5.3951    0.0000 Cl  0  0  0  0  0  0  0  0  0  0  0  0
  1  2  1  0  0  0  0
  2  3  1  0  0  0  0
  2  4  1  0  0  0  0
  4  5  1  0  0  0  0
  5  9  1  0  0  0  0
  5  6  2  0  0  0  0
  6  7  1  0  0  0  0
  7  8  1  0  0  0  0
  8 13  2  0  0  0  0
  8  9  1  0  0  0  0
  9 10  2  0  0  0  0
 10 11  1  0  0  0  0
 11 12  2  0  0  0  0
 12 13  1  0  0  0  0
 12 14  1  0  0  0  0
  2 15  1  0  0  0  0
 15 16  1  0  0  0  0
 16 17  2  0  0  0  0
 16 18  1  0  0  0  0
 18 19  1  0  0  0  0
M  END
$$$$
s_240690b____12346500____7368582
  -OEChem-03222016482D

 18 19  0     0  0  0  0  0  0999 V2000
    6.8641   -4.7407    0.0000 C   0  0  0  0  0  0  0  0  0  0  0  0
    6.5551   -3.7896    0.0000 N   0  3  0  0  0  0  0  0  0  0  0  0
    5.5770   -3.5816    0.0000 C   0  0  0  0  0  0  0  0  0  0  0  0
    5.2680   -2.6306    0.0000 C   0  0  0  0  0  0  0  0  0  0  0  0
    5.9372   -1.8874    0.0000 O   0  0  0  0  0  0  0  0  0  0  0  0
    4.2899   -2.4226    0.0000 N   0  0  0  0  0  0  0  0  0  0  0  0
    3.9809   -1.4715    0.0000 C   0  0  0  0  0  0  0  0  0  0  0  0
    3.0028   -1.2636    0.0000 C   0  0  0  0  0  0  0  0  0  0  0  0
    2.6938   -0.3125    0.0000 C   0  0  0  0  0  0  0  0  0  0  0  0
    3.2858    0.5023    0.0000 C   0  0  0  0  0  0  0  0  0  0  0  0
    2.6938    1.3169    0.0000 N   0  0  0  0  0  0  0  0  0  0  0  0
    1.7360    1.0058    0.0000 C   0  0  0  0  0  0  0  0  0  0  0  0
    1.7360   -0.0012    0.0000 C   0  0  0  0  0  0  0  0  0  0  0  0
    0.8680   -0.4978    0.0000 C   0  0  0  0  0  0  0  0  0  0  0  0
    0.0000    0.0000    0.0000 C   0  0  0  0  0  0  0  0  0  0  0  0
   -0.0000    1.0058    0.0000 C   0  0  0  0  0  0  0  0  0  0  0  0
    0.8680    1.5138    0.0000 C   0  0  0  0  0  0  0  0  0  0  0  0
    0.8680    2.5138    0.0000 Cl  0  0  0  0  0  0  0  0  0  0  0  0
  1  2  1  0  0  0  0
  2  3  1  0  0  0  0
  3  4  1  0  0  0  0
  4  5  2  0  0  0  0
  4  6  1  0  0  0  0
  6  7  1  0  0  0  0
  7  8  1  0  0  0  0
  8  9  1  0  0  0  0
  9 13  1  0  0  0  0
  9 10  2  0  0  0  0
 10 11  1  0  0  0  0
 11 12  1  0  0  0  0
 12 17  2  0  0  0  0
 12 13  1  0  0  0  0
 13 14  2  0  0  0  0
 14 15  1  0  0  0  0
 15 16  2  0  0  0  0
 16 17  1  0  0  0  0
 17 18  1  0  0  0  0
M  CHG  1   2   1
M  END
$$$$
s_240690b____17027970____3025698
  -OEChem-03222016482D

 19 20  0     0  0  0  0  0  0999 V2000
    1.7327   -2.9983    0.0000 C   0  0  0  0  0  0  0  0  0  0  0  0
    1.7332   -1.9983    0.0000 C   0  0  0  0  0  0  0  0  0  0  0  0
    0.8675   -1.4978    0.0000 O   0  0  0  0  0  0  0  0  0  0  0  0
    0.8680   -0.4978    0.0000 C   0  0  0  0  0  0  0  0  0  0  0  0
    0.0000    0.0000    0.0000 C   0  0  0  0  0  0  0  0  0  0  0  0
   -0.0000    1.0058    0.0000 C   0  0  0  0  0  0  0  0  0  0  0  0
    0.8680    1.5138    0.0000 C   0  0  0  0  0  0  0  0  0  0  0  0
    1.7360    1.0058    0.0000 C   0  0  0  0  0  0  0  0  0  0  0  0
    1.7360   -0.0012    0.0000 C   0  0  0  0  0  0  0  0  0  0  0  0
    2.6938   -0.3125    0.0000 C   0  0  0  0  0  0  0  0  0  0  0  0
    3.2858    0.5023    0.0000 C   0  0  0  0  0  0  0  0  0  0  0  0
    2.6938    1.3169    0.0000 N   0  0  0  0  0  0  0  0  0  0  0  0
    3.0028   -1.2636    0.0000 C   0  0  0  0  0  0  0  0  0  0  0  0
    3.9809   -1.4715    0.0000 C   0  0  0  0  0  0  0  0  0  0  0  0
    4.2899   -2.4226    0.0000 N   0  0  0  0  0  0  0  0  0  0  0  0
    5.2680   -2.6306    0.0000 C   0  0  0  0  0  0  0  0  0  0  0  0
    5.9372   -1.8874    0.0000 O   0  0  0  0  0  0  0  0  0  0  0  0
    5.5770   -3.5816    0.0000 C   0  0  0  0  0  0  0  0  0  0  0  0
    6.5551   -3.7896    0.0000 N   0  3  0  0  0  0  0  0  0  0  0  0
  1  2  1  0  0  0  0
  2  3  1  0  0  0  0
  3  4  1  0  0  0  0
  4  9  2  0  0  0  0
  4  5  1  0  0  0  0
  5  6  2  0  0  0  0
  6  7  1  0  0  0  0
  7  8  2  0  0  0  0
  8 12  1  0  0  0  0
  8  9  1  0  0  0  0
  9 10  1  0  0  0  0
 10 11  2  0  0  0  0
 11 12  1  0  0  0  0
 10 13  1  0  0  0  0
 13 14  1  0  0  0  0
 14 15  1  0  0  0  0
 15 16  1  0  0  0  0
 16 17  2  0  0  0  0
 16 18  1  0  0  0  0
 18 19  1  0  0  0  0
M  CHG  1  19   1
M  END
$$$$
s_22____13978824____58866
  -OEChem-03222016482D

 19 20  0     0  0  0  0  0  0999 V2000
    6.8641   -4.7407    0.0000 C   0  0  0  0  0  0  0  0  0  0  0  0
    6.5551   -3.7896    0.0000 C   0  0  0  0  0  0  0  0  0  0  0  0
    5.5770   -3.5816    0.0000 C   0  0  0  0  0  0  0  0  0  0  0  0
    5.2680   -2.6306    0.0000 C   0  0  0  0  0  0  0  0  0  0  0  0
    5.9372   -1.8874    0.0000 O   0  0  0  0  0  0  0  0  0  0  0  0
    4.2899   -2.4226    0.0000 N   0  0  0  0  0  0  0  0  0  0  0  0
    3.9809   -1.4715    0.0000 C   0  0  0  0  0  0  0  0  0  0  0  0
    3.0028   -1.2636    0.0000 C   0  0  0  0  0  0  0  0  0  0  0  0
    2.6938   -0.3125    0.0000 C   0  0  0  0  0  0  0  0  0  0  0  0
    3.2858    0.5023    0.0000 C   0  0  0  0  0  0  0  0  0  0  0  0
    2.6938    1.3169    0.0000 N   0  0  0  0  0  0  0  0  0  0  0  0
    1.7360    1.0058    0.0000 C   0  0  0  0  0  0  0  0  0  0  0  0
    1.7360   -0.0012    0.0000 C   0  0  0  0  0  0  0  0  0  0  0  0
    0.8680   -0.4978    0.0000 C   0  0  0  0  0  0  0  0  0  0  0  0
    0.0000    0.0000    0.0000 C   0  0  0  0  0  0  0  0  0  0  0  0
   -0.0000    1.0058    0.0000 C   0  0  0  0  0  0  0  0  0  0  0  0
    0.8680    1.5138    0.0000 C   0  0  0  0  0  0  0  0  0  0  0  0
   -0.8675    1.5032    0.0000 O   0  0  0  0  0  0  0  0  0  0  0  0
   -1.7320    1.0007    0.0000 C   0  0  0  0  0  0  0  0  0  0  0  0
  1  2  1  0  0  0  0
  2  3  1  0  0  0  0
  3  4  1  0  0  0  0
  4  5  2  0  0  0  0
  4  6  1  0  0  0  0
  6  7  1  0  0  0  0
  7  8  1  0  0  0  0
  8  9  1  0  0  0  0
  9 13  1  0  0  0  0
  9 10  2  0  0  0  0
 10 11  1  0  0  0  0
 11 12  1  0  0  0  0
 12 17  2  0  0  0  0
 12 13  1  0  0  0  0
 13 14  2  0  0  0  0
 14 15  1  0  0  0  0
 15 16  2  0  0  0  0
 16 17  1  0  0  0  0
 16 18  1  0  0  0  0
 18 19  1  0  0  0  0
M  END
$$$$
s_22____4839448____11560700
  -OEChem-03222016482D

 21 23  0     0  0  0  0  0  0999 V2000
   -1.7320   -0.0025    0.0000 C   0  0  0  0  0  0  0  0  0  0  0  0
   -0.8653   -0.5013    0.0000 O   0  0  0  0  0  0  0  0  0  0  0  0
    0.0000    0.0000    0.0000 C   0  0  0  0  0  0  0  0  0  0  0  0
   -0.0000    1.0058    0.0000 C   0  0  0  0  0  0  0  0  0  0  0  0
    0.8680    1.5138    0.0000 C   0  0  0  0  0  0  0  0  0  0  0  0
    1.7360    1.0058    0.0000 C   0  0  0  0  0  0  0  0  0  0  0  0
    1.7360   -0.0012    0.0000 C   0  0  0  0  0  0  0  0  0  0  0  0
    0.8680   -0.4978    0.0000 C   0  0  0  0  0  0  0  0  0  0  0  0
    2.6938   -0.3125    0.0000 C   0  0  0  0  0  0  0  0  0  0  0  0
    3.2858    0.5023    0.0000 C   0  0  0  0  0  0  0  0  0  0  0  0
    2.6938    1.3169    0.0000 N   0  0  0  0  0  0  0  0  0  0  0  0
    3.0028   -1.2636    0.0000 C   0  0  0  0  0  0  0  0  0  0  0  0
    3.9809   -1.4715    0.0000 C   0  0  0  0  0  0  0  0  0  0  0  0
    4.2899   -2.4226    0.0000 N   0  0  0  0  0  0  0  0  0  0  0  0
    5.2680   -2.6306    0.0000 C   0  0  0  0  0  0  0  0  0  0  0  0
    5.9372   -1.8874    0.0000 O   0  0  0  0  0  0  0  0  0  0  0  0
    5.5770   -3.5816    0.0000 C   0  0  0  0  0  0  0  0  0  0  0  0
    6.5551   -3.7896    0.0000 C   0  0  0  0  0  0  0  0  0  0  0  0
    7.3937   -3.2450    0.0000 C   0  0  0  0  0  0  0  0  0  0  0  0
    7.9383   -4.0837    0.0000 S   0  0  0  0  0  0  0  0  0  0  0  0
    7.0997   -4.6282    0.0000 C   0  0  0  0  0  0  0  0  0  0  0  0
  1  2  1  0  0  0  0
  2  3  1  0  0  0  0
  3  8  2  0  0  0  0
  3  4  1  0  0  0  0
  4  5  2  0  0  0  0
  5  6  1  0  0  0  0
  6 11  1  0  0  0  0
  6  7  2  0  0  0  0
  7  8  1  0  0  0  0
  7  9  1  0  0  0  0
  9 10  2  0  0  0  0
 10 11  1  0  0  0  0
  9 12  1  0  0  0  0
 12 13  1  0  0  0  0
 13 14  1  0  0  0  0
 14 15  1  0  0  0  0
 15 16  2  0  0  0  0
 15 17  1  0  0  0  0
 17 18  1  0  0  0  0
 18 21  1  0  0  0  0
 18 19  1  0  0  0  0
 19 20  1  0  0  0  0
 20 21  1  0  0  0  0
M  END
$$$$
s_22____13025516____59118
  -OEChem-03222016482D

 20 21  0     0  0  0  0  0  0999 V2000
    7.8422   -4.9486    0.0000 C   0  0  0  0  0  0  0  0  0  0  0  0
    6.8641   -4.7407    0.0000 C   0  0  0  0  0  0  0  0  0  0  0  0
    6.5551   -3.7896    0.0000 O   0  0  0  0  0  0  0  0  0  0  0  0
    5.5770   -3.5816    0.0000 C   0  0  0  0  0  0  0  0  0  0  0  0
    5.2680   -2.6306    0.0000 C   0  0  0  0  0  0  0  0  0  0  0  0
    5.9372   -1.8874    0.0000 O   0  0  0  0  0  0  0  0  0  0  0  0
    4.2899   -2.4226    0.0000 N   0  0  0  0  0  0  0  0  0  0  0  0
    3.9809   -1.4715    0.0000 C   0  0  0  0  0  0  0  0  0  0  0  0
    3.0028   -1.2636    0.0000 C   0  0  0  0  0  0  0  0  0  0  0  0
    2.6938   -0.3125    0.0000 C   0  0  0  0  0  0  0  0  0  0  0  0
    3.2858    0.5023    0.0000 C   0  0  0  0  0  0  0  0  0  0  0  0
    2.6938    1.3169    0.0000 N   0  0  0  0  0  0  0  0  0  0  0  0
    1.7360    1.0058    0.0000 C   0  0  0  0  0  0  0  0  0  0  0  0
    1.7360   -0.0012    0.0000 C   0  0  0  0  0  0  0  0  0  0  0  0
    0.8680   -0.4978    0.0000 C   0  0  0  0  0  0  0  0  0  0  0  0
    0.0000    0.0000    0.0000 C   0  0  0  0  0  0  0  0  0  0  0  0
   -0.0000    1.0058    0.0000 C   0  0  0  0  0  0  0  0  0  0  0  0
    0.8680    1.5138    0.0000 C   0  0  0  0  0  0  0  0  0  0  0  0
    0.8675   -1.4978    0.0000 O   0  0  0  0  0  0  0  0  0  0  0  0
    1.7332   -1.9983    0.0000 C   0  0  0  0  0  0  0  0  0  0  0  0
  1  2  1  0  0  0  0
  2  3  1  0  0  0  0
  3  4  1  0  0  0  0
  4  5  1  0  0  0  0
  5  6  2  0  0  0  0
  5  7  1  0  0  0  0
  7  8  1  0  0  0  0
  8  9  1  0  0  0  0
  9 10  1  0  0  0  0
 10 14  1  0  0  0  0
 10 11  2  0  0  0  0
 11 12  1  0  0  0  0
 12 13  1  0  0  0  0
 13 18  2  0  0  0  0
 13 14  1  0  0  0  0
 14 15  2  0  0  0  0
 15 16  1  0  0  0  0
 16 17  2  0  0  0  0
 17 18  1  0  0  0  0
 15 19  1  0  0  0  0
 19 20  1  0  0  0  0
M  END
$$$$
s_22____13771018____8794444
  -OEChem-03222016482D

 21 22  0     0  0  0  0  0  0999 V2000
   -3.4641   -0.0050    0.0000 C   0  0  0  0  0  0  0  0  0  0  0  0
   -2.5974   -0.5038    0.0000 C   0  0  0  0  0  0  0  0  0  0  0  0
   -1.7320   -0.0025    0.0000 C   0  0  0  0  0  0  0  0  0  0  0  0
   -0.8653   -0.5013    0.0000 O   0  0  0  0  0  0  0  0  0  0  0  0
    0.0000    0.0000    0.0000 C   0  0  0  0  0  0  0  0  0  0  0  0
   -0.0000    1.0058    0.0000 C   0  0  0  0  0  0  0  0  0  0  0  0
    0.8680    1.5138    0.0000 C   0  0  0  0  0  0  0  0  0  0  0  0
    1.7360    1.0058    0.0000 C   0  0  0  0  0  0  0  0  0  0  0  0
    1.7360   -0.0012    0.0000 C   0  0  0  0  0  0  0  0  0  0  0  0
    0.8680   -0.4978    0.0000 C   0  0  0  0  0  0  0  0  0  0  0  0
    2.6938   -0.3125    0.0000 C   0  0  0  0  0  0  0  0  0  0  0  0
    3.2858    0.5023    0.0000 C   0  0  0  0  0  0  0  0  0  0  0  0
    2.6938    1.3169    0.0000 N   0  0  0  0  0  0  0  0  0  0  0  0
    3.0028   -1.2636    0.0000 C   0  0  0  0  0  0  0  0  0  0  0  0
    3.9809   -1.4715    0.0000 C   0  0  0  0  0  0  0  0  0  0  0  0
    4.2899   -2.4226    0.0000 N   0  0  0  0  0  0  0  0  0  0  0  0
    5.2680   -2.6306    0.0000 C   0  0  0  0  0  0  0  0  0  0  0  0
    5.9372   -1.8874    0.0000 O   0  0  0  0  0  0  0  0  0  0  0  0
    5.5770   -3.5816    0.0000 C   0  0  0  0  0  0  0  0  0  0  0  0
    6.5551   -3.7896    0.0000 C   0  0  0  0  0  0  0  0  0  0  0  0
    7.5333   -3.9976    0.0000 N   0  0  0  0  0  0  0  0  0  0  0  0
  1  2  1  0  0  0  0
  2  3  1  0  0  0  0
  3  4  1  0  0  0  0
  4  5  1  0  0  0  0
  5 10  2  0  0  0  0
  5  6  1  0  0  0  0
  6  7  2  0  0  0  0
  7  8  1  0  0  0  0
  8 13  1  0  0  0  0
  8  9  2  0  0  0  0
  9 10  1  0  0  0  0
  9 11  1  0  0  0  0
 11 12  2  0  0  0  0
 12 13  1  0  0  0  0
 11 14  1  0  0  0  0
 14 15  1  0  0  0  0
 15 16  1  0  0  0  0
 16 17  1  0  0  0  0
 17 18  2  0  0  0  0
 17 19  1  0  0  0  0
 19 20  1  0  0  0  0
 20 21  3  0  0  0  0
M  END
$$$$
s_240690b____7354388____3025682
  -OEChem-03222016482D

 20 21  0     0  0  0  0  0  0999 V2000
   -1.7320   -0.0025    0.0000 C   0  0  0  0  0  0  0  0  0  0  0  0
   -0.8653   -0.5013    0.0000 O   0  0  0  0  0  0  0  0  0  0  0  0
    0.0000    0.0000    0.0000 C   0  0  0  0  0  0  0  0  0  0  0  0
   -0.0000    1.0058    0.0000 C   0  0  0  0  0  0  0  0  0  0  0  0
    0.8680    1.5138    0.0000 C   0  0  0  0  0  0  0  0  0  0  0  0
    1.7360    1.0058    0.0000 C   0  0  0  0  0  0  0  0  0  0  0  0
    1.7360   -0.0012    0.0000 C   0  0  0  0  0  0  0  0  0  0  0  0
    0.8680   -0.4978    0.0000 C   0  0  0  0  0  0  0  0  0  0  0  0
    2.6938   -0.3125    0.0000 C   0  0  0  0  0  0  0  0  0  0  0  0
    3.2858    0.5023    0.0000 C   0  0  0  0  0  0  0  0  0  0  0  0
    2.6938    1.3169    0.0000 N   0  0  0  0  0  0  0  0  0  0  0  0
    3.0028   -1.2636    0.0000 C   0  0  0  0  0  0  0  0  0  0  0  0
    3.9809   -1.4715    0.0000 C   0  0  0  0  0  0  0  0  0  0  0  0
    4.2899   -2.4226    0.0000 N   0  0  0  0  0  0  0  0  0  0  0  0
    5.2680   -2.6306    0.0000 C   0  0  0  0  0  0  0  0  0  0  0  0
    5.9372   -1.8874    0.0000 O   0  0  0  0  0  0  0  0  0  0  0  0
    5.5770   -3.5816    0.0000 C   0  0  0  0  0  0  0  0  0  0  0  0
    6.5551   -3.7896    0.0000 C   0  0  0  0  0  0  0  0  0  0  0  0
    6.8641   -4.7407    0.0000 C   0  0  0  0  0  0  0  0  0  0  0  0
    7.8422   -4.9486    0.0000 N   0  3  0  0  0  0  0  0  0  0  0  0
  1  2  1  0  0  0  0
  2  3  1  0  0  0  0
  3  8  2  0  0  0  0
  3  4  1  0  0  0  0
  4  5  2  0  0  0  0
  5  6  1  0  0  0  0
  6 11  1  0  0  0  0
  6  7  2  0  0  0  0
  7  8  1  0  0  0  0
  7  9  1  0  0  0  0
  9 10  2  0  0  0  0
 10 11  1  0  0  0  0
  9 12  1  0  0  0  0
 12 13  1  0  0  0  0
 13 14  1  0  0  0  0
 14 15  1  0  0  0  0
 15 16  2  0  0  0  0
 15 17  1  0  0  0  0
 17 18  1  0  0  0  0
 18 19  1  0  0  0  0
 19 20  1  0  0  0  0
M  CHG  1  20   1
M  END
$$$$
s_527a____12637914____156097
  -OEChem-03222016482D

 20 21  0     0  0  0  0  0  0999 V2000
    1.9222   -6.3461    0.0000 C   0  0  0  0  0  0  0  0  0  0  0  0
    2.5914   -5.6030    0.0000 C   0  0  0  0  0  0  0  0  0  0  0  0
    2.2824   -4.6519    0.0000 C   0  0  0  0  0  0  0  0  0  0  0  0
    2.9515   -3.9088    0.0000 C   0  0  0  0  0  0  0  0  0  0  0  0
    3.9297   -4.1168    0.0000 O   0  0  0  0  0  0  0  0  0  0  0  0
    2.6426   -2.9578    0.0000 N   0  0  0  0  0  0  0  0  0  0  0  0
    3.3117   -2.2146    0.0000 C   0  0  0  0  0  0  0  0  0  0  0  0
    3.0028   -1.2636    0.0000 C   0  0  0  0  0  0  0  0  0  0  0  0
    2.0517   -1.5725    0.0000 C   0  0  0  0  0  0  0  0  0  0  0  0
    3.9538   -0.9546    0.0000 C   0  0  0  0  0  0  0  0  0  0  0  0
    2.6938   -0.3125    0.0000 C   0  0  0  0  0  0  0  0  0  0  0  0
    3.2858    0.5023    0.0000 C   0  0  0  0  0  0  0  0  0  0  0  0
    2.6938    1.3169    0.0000 N   0  0  0  0  0  0  0  0  0  0  0  0
    1.7360    1.0058    0.0000 C   0  0  0  0  0  0  0  0  0  0  0  0
    1.7360   -0.0012    0.0000 C   0  0  0  0  0  0  0  0  0  0  0  0
    0.8680   -0.4978    0.0000 C   0  0  0  0  0  0  0  0  0  0  0  0
    0.0000    0.0000    0.0000 C   0  0  0  0  0  0  0  0  0  0  0  0
   -0.0000    1.0058    0.0000 C   0  0  0  0  0  0  0  0  0  0  0  0
    0.8680    1.5138    0.0000 C   0  0  0  0  0  0  0  0  0  0  0  0
   -0.8675    1.5032    0.0000 F   0  0  0  0  0  0  0  0  0  0  0  0
  1  2  1  0  0  0  0
  2  3  1  0  0  0  0
  3  4  1  0  0  0  0
  4  5  2  0  0  0  0
  4  6  1  0  0  0  0
  6  7  1  0  0  0  0
  7  8  1  0  0  0  0
  8  9  1  0  0  0  0
  8 10  1  0  0  0  0
  8 11  1  0  0  0  0
 11 15  1  0  0  0  0
 11 12  2  0  0  0  0
 12 13  1  0  0  0  0
 13 14  1  0  0  0  0
 14 19  2  0  0  0  0
 14 15  1  0  0  0  0
 15 16  2  0  0  0  0
 16 17  1  0  0  0  0
 17 18  2  0  0  0  0
 18 19  1  0  0  0  0
 18 20  1  0  0  0  0
M  END
$$$$
s_22____13612008____337030
  -OEChem-03222016482D

 18 19  0     0  0  0  0  0  0999 V2000
   -0.8653   -0.5013    0.0000 C   0  0  0  0  0  0  0  0  0  0  0  0
    0.0000    0.0000    0.0000 C   0  0  0  0  0  0  0  0  0  0  0  0
   -0.0000    1.0058    0.0000 C   0  0  0  0  0  0  0  0  0  0  0  0
    0.8680    1.5138    0.0000 C   0  0  0  0  0  0  0  0  0  0  0  0
    1.7360    1.0058    0.0000 C   0  0  0  0  0  0  0  0  0  0  0  0
    1.7360   -0.0012    0.0000 C   0  0  0  0  0  0  0  0  0  0  0  0
    0.8680   -0.4978    0.0000 C   0  0  0  0  0  0  0  0  0  0  0  0
    2.6938   -0.3125    0.0000 C   0  0  0  0  0  0  0  0  0  0  0  0
    3.2858    0.5023    0.0000 C   0  0  0  0  0  0  0  0  0  0  0  0
    2.6938    1.3169    0.0000 N   0  0  0  0  0  0  0  0  0  0  0  0
    3.0028   -1.2636    0.0000 C   0  0  0  0  0  0  0  0  0  0  0  0
    3.9809   -1.4715    0.0000 C   0  0  0  0  0  0  0  0  0  0  0  0
    4.2899   -2.4226    0.0000 N   0  0  0  0  0  0  0  0  0  0  0  0
    5.2680   -2.6306    0.0000 C   0  0  0  0  0  0  0  0  0  0  0  0
    5.9372   -1.8874    0.0000 O   0  0  0  0  0  0  0  0  0  0  0  0
    5.5770   -3.5816    0.0000 C   0  0  0  0  0  0  0  0  0  0  0  0
    6.5551   -3.7896    0.0000 C   0  0  0  0  0  0  0  0  0  0  0  0
    4.9078   -4.3247    0.0000 C   0  0  0  0  0  0  0  0  0  0  0  0
  1  2  1  0  0  0  0
  2  7  2  0  0  0  0
  2  3  1  0  0  0  0
  3  4  2  0  0  0  0
  4  5  1  0  0  0  0
  5 10  1  0  0  0  0
  5  6  2  0  0  0  0
  6  7  1  0  0  0  0
  6  8  1  0  0  0  0
  8  9  2  0  0  0  0
  9 10  1  0  0  0  0
  8 11  1  0  0  0  0
 11 12  1  0  0  0  0
 12 13  1  0  0  0  0
 13 14  1  0  0  0  0
 14 15  2  0  0  0  0
 14 16  1  0  0  0  0
 16 17  1  0  0  0  0
 16 18  1  0  0  0  0
M  END
$$$$
s_22____2366540____58844
  -OEChem-03222016482D

 16 17  0     0  0  0  0  0  0999 V2000
    5.5770   -3.5816    0.0000 C   0  0  0  0  0  0  0  0  0  0  0  0
    5.2680   -2.6306    0.0000 C   0  0  0  0  0  0  0  0  0  0  0  0
    5.9372   -1.8874    0.0000 O   0  0  0  0  0  0  0  0  0  0  0  0
    4.2899   -2.4226    0.0000 N   0  0  0  0  0  0  0  0  0  0  0  0
    3.9809   -1.4715    0.0000 C   0  0  0  0  0  0  0  0  0  0  0  0
    3.0028   -1.2636    0.0000 C   0  0  0  0  0  0  0  0  0  0  0  0
    2.6938   -0.3125    0.0000 C   0  0  0  0  0  0  0  0  0  0  0  0
    3.2858    0.5023    0.0000 C   0  0  0  0  0  0  0  0  0  0  0  0
    2.6938    1.3169    0.0000 N   0  0  0  0  0  0  0  0  0  0  0  0
    1.7360    1.0058    0.0000 C   0  0  0  0  0  0  0  0  0  0  0  0
    1.7360   -0.0012    0.0000 C   0  0  0  0  0  0  0  0  0  0  0  0
    0.8680   -0.4978    0.0000 C   0  0  0  0  0  0  0  0  0  0  0  0
    0.0000    0.0000    0.0000 C   0  0  0  0  0  0  0  0  0  0  0  0
   -0.0000    1.0058    0.0000 C   0  0  0  0  0  0  0  0  0  0  0  0
    0.8680    1.5138    0.0000 C   0  0  0  0  0  0  0  0  0  0  0  0
   -0.8675    1.5032    0.0000 F   0  0  0  0  0  0  0  0  0  0  0  0
  1  2  1  0  0  0  0
  2  3  2  0  0  0  0
  2  4  1  0  0  0  0
  4  5  1  0  0  0  0
  5  6  1  0  0  0  0
  6  7  1  0  0  0  0
  7 11  1  0  0  0  0
  7  8  2  0  0  0  0
  8  9  1  0  0  0  0
  9 10  1  0  0  0  0
 10 15  2  0  0  0  0
 10 11  1  0  0  0  0
 11 12  2  0  0  0  0
 12 13  1  0  0  0  0
 13 14  2  0  0  0  0
 14 15  1  0  0  0  0
 14 16  1  0  0  0  0
M  END
$$$$
s_22____8929618____7941800
  -OEChem-03222016482D

 18 19  0     1  0  0  0  0  0999 V2000
    4.7859   -0.3637    0.0000 C   0  0  0  0  0  0  0  0  0  0  0  0
    4.2858    0.5023    0.0000 C   0  0  3  0  0  0  0  0  0  0  0  0
    3.2858    0.5022    0.0000 C   0  0  0  0  0  0  0  0  0  0  0  0
    2.6938   -0.3126    0.0000 N   0  0  0  0  0  0  0  0  0  0  0  0
    1.7360   -0.0013    0.0000 C   0  0  0  0  0  0  0  0  0  0  0  0
    0.8680   -0.4979    0.0000 C   0  0  0  0  0  0  0  0  0  0  0  0
    0.0000    0.0000    0.0000 C   0  0  0  0  0  0  0  0  0  0  0  0
    0.0000    1.0058    0.0000 C   0  0  0  0  0  0  0  0  0  0  0  0
    0.8680    1.5137    0.0000 C   0  0  0  0  0  0  0  0  0  0  0  0
    1.7360    1.0058    0.0000 C   0  0  0  0  0  0  0  0  0  0  0  0
    2.6938    1.3168    0.0000 N   0  0  0  0  0  0  0  0  0  0  0  0
   -0.8675    1.5033    0.0000 O   0  0  0  0  0  0  0  0  0  0  0  0
   -1.7320    1.0008    0.0000 C   0  0  0  0  0  0  0  0  0  0  0  0
    4.7857    1.3683    0.0000 N   0  0  0  0  0  0  0  0  0  0  0  0
    5.7857    1.3684    0.0000 C   0  0  0  0  0  0  0  0  0  0  0  0
    6.2858    0.5024    0.0000 O   0  0  0  0  0  0  0  0  0  0  0  0
    6.2857    2.2344    0.0000 C   0  0  0  0  0  0  0  0  0  0  0  0
    7.2857    2.2345    0.0000 O   0  0  0  0  0  0  0  0  0  0  0  0
  1  2  1  0  0  0  0
  2  3  1  0  0  0  0
  3 11  2  0  0  0  0
  3  4  1  0  0  0  0
  4  5  1  0  0  0  0
  5 10  2  0  0  0  0
  5  6  1  0  0  0  0
  6  7  2  0  0  0  0
  7  8  1  0  0  0  0
  8  9  2  0  0  0  0
  9 10  1  0  0  0  0
 10 11  1  0  0  0  0
  8 12  1  0  0  0  0
 12 13  1  0  0  0  0
  2 14  1  0  0  0  0
 14 15  1  0  0  0  0
 15 16  2  0  0  0  0
 15 17  1  0  0  0  0
 17 18  1  0  0  0  0
M  END
$$$$
s_22____15506616____59118
  -OEChem-03222016482D

 20 21  0     0  0  0  0  0  0999 V2000
    1.2530   -7.0892    0.0000 C   0  0  0  0  0  0  0  0  0  0  0  0
    1.9222   -6.3461    0.0000 C   0  0  0  0  0  0  0  0  0  0  0  0
    1.6132   -5.3951    0.0000 O   0  0  0  0  0  0  0  0  0  0  0  0
    2.2824   -4.6519    0.0000 C   0  0  0  0  0  0  0  0  0  0  0  0
    1.9734   -3.7009    0.0000 C   0  0  0  0  0  0  0  0  0  0  0  0
    0.9953   -3.4929    0.0000 O   0  0  0  0  0  0  0  0  0  0  0  0
    2.6426   -2.9578    0.0000 N   0  0  0  0  0  0  0  0  0  0  0  0
    2.3336   -2.0067    0.0000 C   0  0  0  0  0  0  0  0  0  0  0  0
    3.0028   -1.2636    0.0000 C   0  0  0  0  0  0  0  0  0  0  0  0
    2.6938   -0.3125    0.0000 C   0  0  0  0  0  0  0  0  0  0  0  0
    3.2858    0.5023    0.0000 C   0  0  0  0  0  0  0  0  0  0  0  0
    2.6938    1.3169    0.0000 N   0  0  0  0  0  0  0  0  0  0  0  0
    1.7360    1.0058    0.0000 C   0  0  0  0  0  0  0  0  0  0  0  0
    1.7360   -0.0012    0.0000 C   0  0  0  0  0  0  0  0  0  0  0  0
    0.8680   -0.4978    0.0000 C   0  0  0  0  0  0  0  0  0  0  0  0
    0.0000    0.0000    0.0000 C   0  0  0  0  0  0  0  0  0  0  0  0
   -0.0000    1.0058    0.0000 C   0  0  0  0  0  0  0  0  0  0  0  0
    0.8680    1.5138    0.0000 C   0  0  0  0  0  0  0  0  0  0  0  0
    0.8680    2.5138    0.0000 O   0  0  0  0  0  0  0  0  0  0  0  0
    0.0020    3.0138    0.0000 C   0  0  0  0  0  0  0  0  0  0  0  0
  1  2  1  0  0  0  0
  2  3  1  0  0  0  0
  3  4  1  0  0  0  0
  4  5  1  0  0  0  0
  5  6  2  0  0  0  0
  5  7  1  0  0  0  0
  7  8  1  0  0  0  0
  8  9  1  0  0  0  0
  9 10  1  0  0  0  0
 10 14  1  0  0  0  0
 10 11  2  0  0  0  0
 11 12  1  0  0  0  0
 12 13  1  0  0  0  0
 13 18  2  0  0  0  0
 13 14  1  0  0  0  0
 14 15  2  0  0  0  0
 15 16  1  0  0  0  0
 16 17  2  0  0  0  0
 17 18  1  0  0  0  0
 18 19  1  0  0  0  0
 19 20  1  0  0  0  0
M  END
$$$$
s_22____13612008____58887
  -OEChem-03222016482D

 17 18  0     0  0  0  0  0  0999 V2000
    1.6132   -5.3951    0.0000 C   0  0  0  0  0  0  0  0  0  0  0  0
    2.2824   -4.6519    0.0000 C   0  0  0  0  0  0  0  0  0  0  0  0
    1.9734   -3.7009    0.0000 C   0  0  0  0  0  0  0  0  0  0  0  0
    0.9953   -3.4929    0.0000 O   0  0  0  0  0  0  0  0  0  0  0  0
    2.6426   -2.9578    0.0000 N   0  0  0  0  0  0  0  0  0  0  0  0
    2.3336   -2.0067    0.0000 C   0  0  0  0  0  0  0  0  0  0  0  0
    3.0028   -1.2636    0.0000 C   0  0  0  0  0  0  0  0  0  0  0  0
    2.6938   -0.3125    0.0000 C   0  0  0  0  0  0  0  0  0  0  0  0
    3.2858    0.5023    0.0000 C   0  0  0  0  0  0  0  0  0  0  0  0
    2.6938    1.3169    0.0000 N   0  0  0  0  0  0  0  0  0  0  0  0
    1.7360    1.0058    0.0000 C   0  0  0  0  0  0  0  0  0  0  0  0
    1.7360   -0.0012    0.0000 C   0  0  0  0  0  0  0  0  0  0  0  0
    0.8680   -0.4978    0.0000 C   0  0  0  0  0  0  0  0  0  0  0  0
    0.0000    0.0000    0.0000 C   0  0  0  0  0  0  0  0  0  0  0  0
   -0.0000    1.0058    0.0000 C   0  0  0  0  0  0  0  0  0  0  0  0
    0.8680    1.5138    0.0000 C   0  0  0  0  0  0  0  0  0  0  0  0
   -0.8653   -0.5013    0.0000 C   0  0  0  0  0  0  0  0  0  0  0  0
  1  2  1  0  0  0  0
  2  3  1  0  0  0  0
  3  4  2  0  0  0  0
  3  5  1  0  0  0  0
  5  6  1  0  0  0  0
  6  7  1  0  0  0  0
  7  8  1  0  0  0  0
  8 12  1  0  0  0  0
  8  9  2  0  0  0  0
  9 10  1  0  0  0  0
 10 11  1  0  0  0  0
 11 16  2  0  0  0  0
 11 12  1  0  0  0  0
 12 13  2  0  0  0  0
 13 14  1  0  0  0  0
 14 15  2  0  0  0  0
 15 16  1  0  0  0  0
 14 17  1  0  0  0  0
M  END
$$$$
s_240690b____7354388____13151248
  -OEChem-03222016482D

 19 20  0     0  0  0  0  0  0999 V2000
   -1.7320   -0.0025    0.0000 C   0  0  0  0  0  0  0  0  0  0  0  0
   -0.8653   -0.5013    0.0000 O   0  0  0  0  0  0  0  0  0  0  0  0
    0.0000    0.0000    0.0000 C   0  0  0  0  0  0  0  0  0  0  0  0
   -0.0000    1.0058    0.0000 C   0  0  0  0  0  0  0  0  0  0  0  0
    0.8680    1.5138    0.0000 C   0  0  0  0  0  0  0  0  0  0  0  0
    1.7360    1.0058    0.0000 C   0  0  0  0  0  0  0  0  0  0  0  0
    1.7360   -0.0012    0.0000 C   0  0  0  0  0  0  0  0  0  0  0  0
    0.8680   -0.4978    0.0000 C   0  0  0  0  0  0  0  0  0  0  0  0
    2.6938   -0.3125    0.0000 C   0  0  0  0  0  0  0  0  0  0  0  0
    3.2858    0.5023    0.0000 C   0  0  0  0  0  0  0  0  0  0  0  0
    2.6938    1.3169    0.0000 N   0  0  0  0  0  0  0  0  0  0  0  0
    3.0028   -1.2636    0.0000 C   0  0  0  0  0  0  0  0  0  0  0  0
    3.9809   -1.4715    0.0000 C   0  0  0  0  0  0  0  0  0  0  0  0
    4.2899   -2.4226    0.0000 N   0  0  0  0  0  0  0  0  0  0  0  0
    5.2680   -2.6306    0.0000 C   0  0  0  0  0  0  0  0  0  0  0  0
    5.9372   -1.8874    0.0000 O   0  0  0  0  0  0  0  0  0  0  0  0
    5.5770   -3.5816    0.0000 C   0  0  0  0  0  0  0  0  0  0  0  0
    6.5551   -3.7896    0.0000 O   0  0  0  0  0  0  0  0  0  0  0  0
    6.8641   -4.7407    0.0000 N   0  0  0  0  0  0  0  0  0  0  0  0
  1  2  1  0  0  0  0
  2  3  1  0  0  0  0
  3  8  2  0  0  0  0
  3  4  1  0  0  0  0
  4  5  2  0  0  0  0
  5  6  1  0  0  0  0
  6 11  1  0  0  0  0
  6  7  2  0  0  0  0
  7  8  1  0  0  0  0
  7  9  1  0  0  0  0
  9 10  2  0  0  0  0
 10 11  1  0  0  0  0
  9 12  1  0  0  0  0
 12 13  1  0  0  0  0
 13 14  1  0  0  0  0
 14 15  1  0  0  0  0
 15 16  2  0  0  0  0
 15 17  1  0  0  0  0
 17 18  1  0  0  0  0
 18 19  1  0  0  0  0
M  END
$$$$
s_240690b____13612076____7368582
  -OEChem-03222016482D

 18 19  0     0  0  0  0  0  0999 V2000
   -0.8653   -0.5013    0.0000 C   0  0  0  0  0  0  0  0  0  0  0  0
    0.0000    0.0000    0.0000 C   0  0  0  0  0  0  0  0  0  0  0  0
   -0.0000    1.0058    0.0000 C   0  0  0  0  0  0  0  0  0  0  0  0
    0.8680    1.5138    0.0000 C   0  0  0  0  0  0  0  0  0  0  0  0
    1.7360    1.0058    0.0000 C   0  0  0  0  0  0  0  0  0  0  0  0
    1.7360   -0.0012    0.0000 C   0  0  0  0  0  0  0  0  0  0  0  0
    0.8680   -0.4978    0.0000 C   0  0  0  0  0  0  0  0  0  0  0  0
    2.6938   -0.3125    0.0000 C   0  0  0  0  0  0  0  0  0  0  0  0
    3.2858    0.5023    0.0000 C   0  0  0  0  0  0  0  0  0  0  0  0
    2.6938    1.3169    0.0000 N   0  0  0  0  0  0  0  0  0  0  0  0
    3.0028   -1.2636    0.0000 C   0  0  0  0  0  0  0  0  0  0  0  0
    3.9809   -1.4715    0.0000 C   0  0  0  0  0  0  0  0  0  0  0  0
    4.2899   -2.4226    0.0000 N   0  0  0  0  0  0  0  0  0  0  0  0
    5.2680   -2.6306    0.0000 C   0  0  0  0  0  0  0  0  0  0  0  0
    5.9372   -1.8874    0.0000 O   0  0  0  0  0  0  0  0  0  0  0  0
    5.5770   -3.5816    0.0000 C   0  0  0  0  0  0  0  0  0  0  0  0
    6.5551   -3.7896    0.0000 N   0  3  0  0  0  0  0  0  0  0  0  0
    6.8641   -4.7407    0.0000 C   0  0  0  0  0  0  0  0  0  0  0  0
  1  2  1  0  0  0  0
  2  7  2  0  0  0  0
  2  3  1  0  0  0  0
  3  4  2  0  0  0  0
  4  5  1  0  0  0  0
  5 10  1  0  0  0  0
  5  6  2  0  0  0  0
  6  7  1  0  0  0  0
  6  8  1  0  0  0  0
  8  9  2  0  0  0  0
  9 10  1  0  0  0  0
  8 11  1  0  0  0  0
 11 12  1  0  0  0  0
 12 13  1  0  0  0  0
 13 14  1  0  0  0  0
 14 15  2  0  0  0  0
 14 16  1  0  0  0  0
 16 17  1  0  0  0  0
 17 18  1  0  0  0  0
M  CHG  1  17   1
M  END
$$$$
s_22____9631354____8794444
  -OEChem-03222016482D

 18 19  0     0  0  0  0  0  0999 V2000
   -0.0000    1.0058    0.0000 C   0  0  0  0  0  0  0  0  0  0  0  0
    0.8680    1.5138    0.0000 C   0  0  0  0  0  0  0  0  0  0  0  0
    1.7360    1.0058    0.0000 C   0  0  0  0  0  0  0  0  0  0  0  0
    1.7360   -0.0012    0.0000 C   0  0  0  0  0  0  0  0  0  0  0  0
    0.8680   -0.4978    0.0000 C   0  0  0  0  0  0  0  0  0  0  0  0
    0.0000    0.0000    0.0000 C   0  0  0  0  0  0  0  0  0  0  0  0
   -0.8653   -0.5013    0.0000 F   0  0  0  0  0  0  0  0  0  0  0  0
    2.6938   -0.3125    0.0000 C   0  0  0  0  0  0  0  0  0  0  0  0
    3.2858    0.5023    0.0000 C   0  0  0  0  0  0  0  0  0  0  0  0
    2.6938    1.3169    0.0000 N   0  0  0  0  0  0  0  0  0  0  0  0
    3.0028   -1.2636    0.0000 C   0  0  0  0  0  0  0  0  0  0  0  0
    3.9809   -1.4715    0.0000 C   0  0  0  0  0  0  0  0  0  0  0  0
    4.2899   -2.4226    0.0000 N   0  0  0  0  0  0  0  0  0  0  0  0
    5.2680   -2.6306    0.0000 C   0  0  0  0  0  0  0  0  0  0  0  0
    5.9372   -1.8874    0.0000 O   0  0  0  0  0  0  0  0  0  0  0  0
    5.5770   -3.5816    0.0000 C   0  0  0  0  0  0  0  0  0  0  0  0
    6.5551   -3.7896    0.0000 C   0  0  0  0  0  0  0  0  0  0  0  0
    7.5333   -3.9976    0.0000 N   0  0  0  0  0  0  0  0  0  0  0  0
  1  6  2  0  0  0  0
  1  2  1  0  0  0  0
  2  3  2  0  0  0  0
  3 10  1  0  0  0  0
  3  4  1  0  0  0  0
  4  5  2  0  0  0  0
  5  6  1  0  0  0  0
  6  7  1  0  0  0  0
  4  8  1  0  0  0  0
  8  9  2  0  0  0  0
  9 10  1  0  0  0  0
  8 11  1  0  0  0  0
 11 12  1  0  0  0  0
 12 13  1  0  0  0  0
 13 14  1  0  0  0  0
 14 15  2  0  0  0  0
 14 16  1  0  0  0  0
 16 17  1  0  0  0  0
 17 18  3  0  0  0  0
M  END
$$$$
s_22____15506616____58887
  -OEChem-03222016482D

 18 19  0     0  0  0  0  0  0999 V2000
    1.6132   -5.3951    0.0000 C   0  0  0  0  0  0  0  0  0  0  0  0
    2.2824   -4.6519    0.0000 C   0  0  0  0  0  0  0  0  0  0  0  0
    1.9734   -3.7009    0.0000 C   0  0  0  0  0  0  0  0  0  0  0  0
    0.9953   -3.4929    0.0000 O   0  0  0  0  0  0  0  0  0  0  0  0
    2.6426   -2.9578    0.0000 N   0  0  0  0  0  0  0  0  0  0  0  0
    2.3336   -2.0067    0.0000 C   0  0  0  0  0  0  0  0  0  0  0  0
    3.0028   -1.2636    0.0000 C   0  0  0  0  0  0  0  0  0  0  0  0
    2.6938   -0.3125    0.0000 C   0  0  0  0  0  0  0  0  0  0  0  0
    3.2858    0.5023    0.0000 C   0  0  0  0  0  0  0  0  0  0  0  0
    2.6938    1.3169    0.0000 N   0  0  0  0  0  0  0  0  0  0  0  0
    1.7360    1.0058    0.0000 C   0  0  0  0  0  0  0  0  0  0  0  0
    1.7360   -0.0012    0.0000 C   0  0  0  0  0  0  0  0  0  0  0  0
    0.8680   -0.4978    0.0000 C   0  0  0  0  0  0  0  0  0  0  0  0
    0.0000    0.0000    0.0000 C   0  0  0  0  0  0  0  0  0  0  0  0
   -0.0000    1.0058    0.0000 C   0  0  0  0  0  0  0  0  0  0  0  0
    0.8680    1.5138    0.0000 C   0  0  0  0  0  0  0  0  0  0  0  0
    0.8680    2.5138    0.0000 O   0  0  0  0  0  0  0  0  0  0  0  0
    0.0020    3.0138    0.0000 C   0  0  0  0  0  0  0  0  0  0  0  0
  1  2  1  0  0  0  0
  2  3  1  0  0  0  0
  3  4  2  0  0  0  0
  3  5  1  0  0  0  0
  5  6  1  0  0  0  0
  6  7  1  0  0  0  0
  7  8  1  0  0  0  0
  8 12  1  0  0  0  0
  8  9  2  0  0  0  0
  9 10  1  0  0  0  0
 10 11  1  0  0  0  0
 11 16  2  0  0  0  0
 11 12  1  0  0  0  0
 12 13  2  0  0  0  0
 13 14  1  0  0  0  0
 14 15  2  0  0  0  0
 15 16  1  0  0  0  0
 16 17  1  0  0  0  0
 17 18  1  0  0  0  0
M  END
$$$$
s_22____13909752____337030
  -OEChem-03222016482D

 18 19  0     0  0  0  0  0  0999 V2000
    6.5551   -3.7896    0.0000 C   0  0  0  0  0  0  0  0  0  0  0  0
    5.5770   -3.5816    0.0000 C   0  0  0  0  0  0  0  0  0  0  0  0
    4.9078   -4.3247    0.0000 C   0  0  0  0  0  0  0  0  0  0  0  0
    5.2680   -2.6306    0.0000 C   0  0  0  0  0  0  0  0  0  0  0  0
    5.9372   -1.8874    0.0000 O   0  0  0  0  0  0  0  0  0  0  0  0
    4.2899   -2.4226    0.0000 N   0  0  0  0  0  0  0  0  0  0  0  0
    3.9809   -1.4715    0.0000 C   0  0  0  0  0  0  0  0  0  0  0  0
    3.0028   -1.2636    0.0000 C   0  0  0  0  0  0  0  0  0  0  0  0
    2.6938   -0.3125    0.0000 C   0  0  0  0  0  0  0  0  0  0  0  0
    3.2858    0.5023    0.0000 C   0  0  0  0  0  0  0  0  0  0  0  0
    2.6938    1.3169    0.0000 N   0  0  0  0  0  0  0  0  0  0  0  0
    1.7360    1.0058    0.0000 C   0  0  0  0  0  0  0  0  0  0  0  0
    1.7360   -0.0012    0.0000 C   0  0  0  0  0  0  0  0  0  0  0  0
    0.8680   -0.4978    0.0000 C   0  0  0  0  0  0  0  0  0  0  0  0
    0.0000    0.0000    0.0000 C   0  0  0  0  0  0  0  0  0  0  0  0
   -0.0000    1.0058    0.0000 C   0  0  0  0  0  0  0  0  0  0  0  0
    0.8680    1.5138    0.0000 C   0  0  0  0  0  0  0  0  0  0  0  0
   -0.8653   -0.5013    0.0000 O   0  0  0  0  0  0  0  0  0  0  0  0
  1  2  1  0  0  0  0
  2  3  1  0  0  0  0
  2  4  1  0  0  0  0
  4  5  2  0  0  0  0
  4  6  1  0  0  0  0
  6  7  1  0  0  0  0
  7  8  1  0  0  0  0
  8  9  1  0  0  0  0
  9 13  1  0  0  0  0
  9 10  2  0  0  0  0
 10 11  1  0  0  0  0
 11 12  1  0  0  0  0
 12 17  2  0  0  0  0
 12 13  1  0  0  0  0
 13 14  2  0  0  0  0
 14 15  1  0  0  0  0
 15 16  2  0  0  0  0
 16 17  1  0  0  0  0
 15 18  1  0  0  0  0
M  END
$$$$
s_22____15754586____58844
  -OEChem-03222016482D

 18 19  0     1  0  0  0  0  0999 V2000
    3.9809   -1.4715    0.0000 C   0  0  0  0  0  0  0  0  0  0  0  0
    3.0028   -1.2636    0.0000 C   0  0  3  0  0  0  0  0  0  0  0  0
    2.3336   -2.0067    0.0000 C   0  0  0  0  0  0  0  0  0  0  0  0
    2.6426   -2.9578    0.0000 N   0  0  0  0  0  0  0  0  0  0  0  0
    1.9734   -3.7009    0.0000 C   0  0  0  0  0  0  0  0  0  0  0  0
    0.9953   -3.4929    0.0000 O   0  0  0  0  0  0  0  0  0  0  0  0
    2.2824   -4.6519    0.0000 C   0  0  0  0  0  0  0  0  0  0  0  0
    2.6938   -0.3125    0.0000 C   0  0  0  0  0  0  0  0  0  0  0  0
    3.2858    0.5023    0.0000 C   0  0  0  0  0  0  0  0  0  0  0  0
    2.6938    1.3169    0.0000 N   0  0  0  0  0  0  0  0  0  0  0  0
    1.7360    1.0058    0.0000 C   0  0  0  0  0  0  0  0  0  0  0  0
    1.7360   -0.0012    0.0000 C   0  0  0  0  0  0  0  0  0  0  0  0
    0.8680   -0.4978    0.0000 C   0  0  0  0  0  0  0  0  0  0  0  0
    0.0000    0.0000    0.0000 C   0  0  0  0  0  0  0  0  0  0  0  0
   -0.0000    1.0058    0.0000 C   0  0  0  0  0  0  0  0  0  0  0  0
    0.8680    1.5138    0.0000 C   0  0  0  0  0  0  0  0  0  0  0  0
   -0.8653   -0.5013    0.0000 O   0  0  0  0  0  0  0  0  0  0  0  0
   -0.8639   -1.5013    0.0000 C   0  0  0  0  0  0  0  0  0  0  0  0
  1  2  1  0  0  0  0
  2  3  1  0  0  0  0
  3  4  1  0  0  0  0
  4  5  1  0  0  0  0
  5  6  2  0  0  0  0
  5  7  1  0  0  0  0
  2  8  1  0  0  0  0
  8 12  1  0  0  0  0
  8  9  2  0  0  0  0
  9 10  1  0  0  0  0
 10 11  1  0  0  0  0
 11 16  2  0  0  0  0
 11 12  1  0  0  0  0
 12 13  2  0  0  0  0
 13 14  1  0  0  0  0
 14 15  2  0  0  0  0
 15 16  1  0  0  0  0
 14 17  1  0  0  0  0
 17 18  1  0  0  0  0
M  END
$$$$
s_240690b____17027970____3025680
  -OEChem-03222016482D

 20 21  0     0  0  0  0  0  0999 V2000
    1.7327   -2.9983    0.0000 C   0  0  0  0  0  0  0  0  0  0  0  0
    1.7332   -1.9983    0.0000 C   0  0  0  0  0  0  0  0  0  0  0  0
    0.8675   -1.4978    0.0000 O   0  0  0  0  0  0  0  0  0  0  0  0
    0.8680   -0.4978    0.0000 C   0  0  0  0  0  0  0  0  0  0  0  0
    0.0000    0.0000    0.0000 C   0  0  0  0  0  0  0  0  0  0  0  0
   -0.0000    1.0058    0.0000 C   0  0  0  0  0  0  0  0  0  0  0  0
    0.8680    1.5138    0.0000 C   0  0  0  0  0  0  0  0  0  0  0  0
    1.7360    1.0058    0.0000 C   0  0  0  0  0  0  0  0  0  0  0  0
    1.7360   -0.0012    0.0000 C   0  0  0  0  0  0  0  0  0  0  0  0
    2.6938   -0.3125    0.0000 C   0  0  0  0  0  0  0  0  0  0  0  0
    3.2858    0.5023    0.0000 C   0  0  0  0  0  0  0  0  0  0  0  0
    2.6938    1.3169    0.0000 N   0  0  0  0  0  0  0  0  0  0  0  0
    3.0028   -1.2636    0.0000 C   0  0  0  0  0  0  0  0  0  0  0  0
    3.9809   -1.4715    0.0000 C   0  0  0  0  0  0  0  0  0  0  0  0
    4.2899   -2.4226    0.0000 N   0  0  0  0  0  0  0  0  0  0  0  0
    5.2680   -2.6306    0.0000 C   0  0  0  0  0  0  0  0  0  0  0  0
    5.9372   -1.8874    0.0000 O   0  0  0  0  0  0  0  0  0  0  0  0
    5.5770   -3.5816    0.0000 C   0  0  0  0  0  0  0  0  0  0  0  0
    6.5551   -3.7896    0.0000 C   0  0  0  0  0  0  0  0  0  0  0  0
    6.8641   -4.7407    0.0000 N   0  3  0  0  0  0  0  0  0  0  0  0
  1  2  1  0  0  0  0
  2  3  1  0  0  0  0
  3  4  1  0  0  0  0
  4  9  2  0  0  0  0
  4  5  1  0  0  0  0
  5  6  2  0  0  0  0
  6  7  1  0  0  0  0
  7  8  2  0  0  0  0
  8 12  1  0  0  0  0
  8  9  1  0  0  0  0
  9 10  1  0  0  0  0
 10 11  2  0  0  0  0
 11 12  1  0  0  0  0
 10 13  1  0  0  0  0
 13 14  1  0  0  0  0
 14 15  1  0  0  0  0
 15 16  1  0  0  0  0
 16 17  2  0  0  0  0
 16 18  1  0  0  0  0
 18 19  1  0  0  0  0
 19 20  1  0  0  0  0
M  CHG  1  20   1
M  END
$$$$
s_512____4862204____4839458
  -OEChem-03222016482D

 21 22  0     0  0  0  0  0  0999 V2000
   -1.7320   -0.0025    0.0000 C   0  0  0  0  0  0  0  0  0  0  0  0
   -0.8653   -0.5013    0.0000 O   0  0  0  0  0  0  0  0  0  0  0  0
    0.0000    0.0000    0.0000 C   0  0  0  0  0  0  0  0  0  0  0  0
   -0.0000    1.0058    0.0000 C   0  0  0  0  0  0  0  0  0  0  0  0
    0.8680    1.5138    0.0000 C   0  0  0  0  0  0  0  0  0  0  0  0
    1.7360    1.0058    0.0000 C   0  0  0  0  0  0  0  0  0  0  0  0
    1.7360   -0.0012    0.0000 C   0  0  0  0  0  0  0  0  0  0  0  0
    0.8680   -0.4978    0.0000 C   0  0  0  0  0  0  0  0  0  0  0  0
    2.6938   -0.3125    0.0000 C   0  0  0  0  0  0  0  0  0  0  0  0
    3.2858    0.5023    0.0000 C   0  0  0  0  0  0  0  0  0  0  0  0
    2.6938    1.3169    0.0000 N   0  0  0  0  0  0  0  0  0  0  0  0
    3.0028   -1.2636    0.0000 C   0  0  0  0  0  0  0  0  0  0  0  0
    3.9809   -1.4715    0.0000 C   0  0  0  0  0  0  0  0  0  0  0  0
    4.2899   -2.4226    0.0000 N   0  0  0  0  0  0  0  0  0  0  0  0
    5.2680   -2.6306    0.0000 C   0  0  0  0  0  0  0  0  0  0  0  0
    5.9372   -1.8874    0.0000 O   0  0  0  0  0  0  0  0  0  0  0  0
    5.5770   -3.5816    0.0000 N   0  0  0  0  0  0  0  0  0  0  0  0
    6.5551   -3.7896    0.0000 C   0  0  0  0  0  0  0  0  0  0  0  0
    6.8641   -4.7407    0.0000 C   0  0  0  0  0  0  0  0  0  0  0  0
    7.8422   -4.9486    0.0000 C   0  0  0  0  0  0  0  0  0  0  0  0
    8.8204   -5.1566    0.0000 C   0  0  0  0  0  0  0  0  0  0  0  0
  1  2  1  0  0  0  0
  2  3  1  0  0  0  0
  3  8  2  0  0  0  0
  3  4  1  0  0  0  0
  4  5  2  0  0  0  0
  5  6  1  0  0  0  0
  6 11  1  0  0  0  0
  6  7  2  0  0  0  0
  7  8  1  0  0  0  0
  7  9  1  0  0  0  0
  9 10  2  0  0  0  0
 10 11  1  0  0  0  0
  9 12  1  0  0  0  0
 12 13  1  0  0  0  0
 13 14  1  0  0  0  0
 14 15  1  0  0  0  0
 15 16  2  0  0  0  0
 15 17  1  0  0  0  0
 17 18  1  0  0  0  0
 18 19  1  0  0  0  0
 19 20  1  0  0  0  0
 20 21  3  0  0  0  0
M  END
$$$$
s_22____3219394____7941800
  -OEChem-03222016482D

 17 18  0     0  0  0  0  0  0999 V2000
    0.8675   -1.4978    0.0000 C   0  0  0  0  0  0  0  0  0  0  0  0
    0.8680   -0.4978    0.0000 C   0  0  0  0  0  0  0  0  0  0  0  0
    0.0000    0.0000    0.0000 C   0  0  0  0  0  0  0  0  0  0  0  0
   -0.0000    1.0058    0.0000 C   0  0  0  0  0  0  0  0  0  0  0  0
    0.8680    1.5138    0.0000 C   0  0  0  0  0  0  0  0  0  0  0  0
    1.7360    1.0058    0.0000 C   0  0  0  0  0  0  0  0  0  0  0  0
    1.7360   -0.0012    0.0000 C   0  0  0  0  0  0  0  0  0  0  0  0
    2.6938   -0.3125    0.0000 C   0  0  0  0  0  0  0  0  0  0  0  0
    3.2858    0.5023    0.0000 C   0  0  0  0  0  0  0  0  0  0  0  0
    2.6938    1.3169    0.0000 N   0  0  0  0  0  0  0  0  0  0  0  0
    3.0028   -1.2636    0.0000 C   0  0  0  0  0  0  0  0  0  0  0  0
    3.9809   -1.4715    0.0000 C   0  0  0  0  0  0  0  0  0  0  0  0
    4.2899   -2.4226    0.0000 N   0  0  0  0  0  0  0  0  0  0  0  0
    5.2680   -2.6306    0.0000 C   0  0  0  0  0  0  0  0  0  0  0  0
    5.9372   -1.8874    0.0000 O   0  0  0  0  0  0  0  0  0  0  0  0
    5.5770   -3.5816    0.0000 C   0  0  0  0  0  0  0  0  0  0  0  0
    6.5551   -3.7896    0.0000 O   0  0  0  0  0  0  0  0  0  0  0  0
  1  2  1  0  0  0  0
  2  7  2  0  0  0  0
  2  3  1  0  0  0  0
  3  4  2  0  0  0  0
  4  5  1  0  0  0  0
  5  6  2  0  0  0  0
  6 10  1  0  0  0  0
  6  7  1  0  0  0  0
  7  8  1  0  0  0  0
  8  9  2  0  0  0  0
  9 10  1  0  0  0  0
  8 11  1  0  0  0  0
 11 12  1  0  0  0  0
 12 13  1  0  0  0  0
 13 14  1  0  0  0  0
 14 15  2  0  0  0  0
 14 16  1  0  0  0  0
 16 17  1  0  0  0  0
M  END
$$$$
s_22____15506616____10687876
  -OEChem-03222016482D

 21 23  0     0  0  0  0  0  0999 V2000
    1.7340    3.0138    0.0000 C   0  0  0  0  0  0  0  0  0  0  0  0
    0.8680    2.5138    0.0000 O   0  0  0  0  0  0  0  0  0  0  0  0
    0.8680    1.5138    0.0000 C   0  0  0  0  0  0  0  0  0  0  0  0
    0.0000    1.0058    0.0000 C   0  0  0  0  0  0  0  0  0  0  0  0
    0.0000    0.0000    0.0000 C   0  0  0  0  0  0  0  0  0  0  0  0
    0.8680   -0.4978    0.0000 C   0  0  0  0  0  0  0  0  0  0  0  0
    1.7360   -0.0012    0.0000 C   0  0  0  0  0  0  0  0  0  0  0  0
    1.7360    1.0058    0.0000 C   0  0  0  0  0  0  0  0  0  0  0  0
    2.6938    1.3169    0.0000 N   0  0  0  0  0  0  0  0  0  0  0  0
    3.2858    0.5023    0.0000 C   0  0  0  0  0  0  0  0  0  0  0  0
    2.6938   -0.3125    0.0000 C   0  0  0  0  0  0  0  0  0  0  0  0
    3.0028   -1.2636    0.0000 C   0  0  0  0  0  0  0  0  0  0  0  0
    3.9809   -1.4715    0.0000 C   0  0  0  0  0  0  0  0  0  0  0  0
    4.2899   -2.4226    0.0000 N   0  0  0  0  0  0  0  0  0  0  0  0
    5.2680   -2.6306    0.0000 C   0  0  0  0  0  0  0  0  0  0  0  0
    5.9372   -1.8874    0.0000 O   0  0  0  0  0  0  0  0  0  0  0  0
    5.5770   -3.5816    0.0000 C   0  0  0  0  0  0  0  0  0  0  0  0
    6.5551   -3.7896    0.0000 S   0  0  0  0  0  0  0  0  0  0  0  0
    6.8641   -4.7407    0.0000 C   0  0  0  0  0  0  0  0  0  0  0  0
    6.6568   -5.7209    0.0000 C   0  0  0  0  0  0  0  0  0  0  0  0
    7.6079   -5.4119    0.0000 C   0  0  0  0  0  0  0  0  0  0  0  0
  1  2  1  0  0  0  0
  2  3  1  0  0  0  0
  3  8  2  0  0  0  0
  3  4  1  0  0  0  0
  4  5  2  0  0  0  0
  5  6  1  0  0  0  0
  6  7  2  0  0  0  0
  7 11  1  0  0  0  0
  7  8  1  0  0  0  0
  8  9  1  0  0  0  0
  9 10  1  0  0  0  0
 10 11  2  0  0  0  0
 11 12  1  0  0  0  0
 12 13  1  0  0  0  0
 13 14  1  0  0  0  0
 14 15  1  0  0  0  0
 15 16  2  0  0  0  0
 15 17  1  0  0  0  0
 17 18  1  0  0  0  0
 18 19  1  0  0  0  0
 19 21  1  0  0  0  0
 19 20  1  0  0  0  0
 20 21  1  0  0  0  0
M  END
$$$$
s_487a____13909760____16733542
  -OEChem-03222016482D

 18 19  0     0  0  0  0  0  0999 V2000
    6.8641   -4.7407    0.0000 C   0  0  0  0  0  0  0  0  0  0  0  0
    6.5551   -3.7896    0.0000 C   0  0  0  0  0  0  0  0  0  0  0  0
    5.5770   -3.5816    0.0000 N   0  0  0  0  0  0  0  0  0  0  0  0
    5.2680   -2.6306    0.0000 C   0  0  0  0  0  0  0  0  0  0  0  0
    5.9372   -1.8874    0.0000 O   0  0  0  0  0  0  0  0  0  0  0  0
    4.2899   -2.4226    0.0000 N   0  0  0  0  0  0  0  0  0  0  0  0
    3.9809   -1.4715    0.0000 C   0  0  0  0  0  0  0  0  0  0  0  0
    3.0028   -1.2636    0.0000 C   0  0  0  0  0  0  0  0  0  0  0  0
    2.6938   -0.3125    0.0000 C   0  0  0  0  0  0  0  0  0  0  0  0
    3.2858    0.5023    0.0000 C   0  0  0  0  0  0  0  0  0  0  0  0
    2.6938    1.3169    0.0000 N   0  0  0  0  0  0  0  0  0  0  0  0
    1.7360    1.0058    0.0000 C   0  0  0  0  0  0  0  0  0  0  0  0
    1.7360   -0.0012    0.0000 C   0  0  0  0  0  0  0  0  0  0  0  0
    0.8680   -0.4978    0.0000 C   0  0  0  0  0  0  0  0  0  0  0  0
    0.0000    0.0000    0.0000 C   0  0  0  0  0  0  0  0  0  0  0  0
   -0.0000    1.0058    0.0000 C   0  0  0  0  0  0  0  0  0  0  0  0
    0.8680    1.5138    0.0000 C   0  0  0  0  0  0  0  0  0  0  0  0
   -0.8653   -0.5013    0.0000 O   0  0  0  0  0  0  0  0  0  0  0  0
  1  2  1  0  0  0  0
  2  3  1  0  0  0  0
  3  4  1  0  0  0  0
  4  5  2  0  0  0  0
  4  6  1  0  0  0  0
  6  7  1  0  0  0  0
  7  8  1  0  0  0  0
  8  9  1  0  0  0  0
  9 13  1  0  0  0  0
  9 10  2  0  0  0  0
 10 11  1  0  0  0  0
 11 12  1  0  0  0  0
 12 17  2  0  0  0  0
 12 13  1  0  0  0  0
 13 14  2  0  0  0  0
 14 15  1  0  0  0  0
 15 16  2  0  0  0  0
 16 17  1  0  0  0  0
 15 18  1  0  0  0  0
M  END
$$$$
s_240690b____13025580____10126850
  -OEChem-03222016482D

 20 21  0     0  0  0  0  0  0999 V2000
    7.8422   -4.9486    0.0000 C   0  0  0  0  0  0  0  0  0  0  0  0
    6.8641   -4.7407    0.0000 N   0  3  0  0  0  0  0  0  0  0  0  0
    6.5551   -3.7896    0.0000 C   0  0  0  0  0  0  0  0  0  0  0  0
    5.5770   -3.5816    0.0000 C   0  0  0  0  0  0  0  0  0  0  0  0
    5.2680   -2.6306    0.0000 C   0  0  0  0  0  0  0  0  0  0  0  0
    5.9372   -1.8874    0.0000 O   0  0  0  0  0  0  0  0  0  0  0  0
    4.2899   -2.4226    0.0000 N   0  0  0  0  0  0  0  0  0  0  0  0
    3.9809   -1.4715    0.0000 C   0  0  0  0  0  0  0  0  0  0  0  0
    3.0028   -1.2636    0.0000 C   0  0  0  0  0  0  0  0  0  0  0  0
    2.6938   -0.3125    0.0000 C   0  0  0  0  0  0  0  0  0  0  0  0
    3.2858    0.5023    0.0000 C   0  0  0  0  0  0  0  0  0  0  0  0
    2.6938    1.3169    0.0000 N   0  0  0  0  0  0  0  0  0  0  0  0
    1.7360    1.0058    0.0000 C   0  0  0  0  0  0  0  0  0  0  0  0
    1.7360   -0.0012    0.0000 C   0  0  0  0  0  0  0  0  0  0  0  0
    0.8680   -0.4978    0.0000 C   0  0  0  0  0  0  0  0  0  0  0  0
    0.0000    0.0000    0.0000 C   0  0  0  0  0  0  0  0  0  0  0  0
   -0.0000    1.0058    0.0000 C   0  0  0  0  0  0  0  0  0  0  0  0
    0.8680    1.5138    0.0000 C   0  0  0  0  0  0  0  0  0  0  0  0
    0.8675   -1.4978    0.0000 O   0  0  0  0  0  0  0  0  0  0  0  0
    1.7332   -1.9983    0.0000 C   0  0  0  0  0  0  0  0  0  0  0  0
  1  2  1  0  0  0  0
  2  3  1  0  0  0  0
  3  4  1  0  0  0  0
  4  5  1  0  0  0  0
  5  6  2  0  0  0  0
  5  7  1  0  0  0  0
  7  8  1  0  0  0  0
  8  9  1  0  0  0  0
  9 10  1  0  0  0  0
 10 14  1  0  0  0  0
 10 11  2  0  0  0  0
 11 12  1  0  0  0  0
 12 13  1  0  0  0  0
 13 18  2  0  0  0  0
 13 14  1  0  0  0  0
 14 15  2  0  0  0  0
 15 16  1  0  0  0  0
 16 17  2  0  0  0  0
 17 18  1  0  0  0  0
 15 19  1  0  0  0  0
 19 20  1  0  0  0  0
M  CHG  1   2   1
M  END
$$$$
s_22____13612008____7941800
  -OEChem-03222016482D

 17 18  0     0  0  0  0  0  0999 V2000
   -0.8653   -0.5013    0.0000 C   0  0  0  0  0  0  0  0  0  0  0  0
    0.0000    0.0000    0.0000 C   0  0  0  0  0  0  0  0  0  0  0  0
   -0.0000    1.0058    0.0000 C   0  0  0  0  0  0  0  0  0  0  0  0
    0.8680    1.5138    0.0000 C   0  0  0  0  0  0  0  0  0  0  0  0
    1.7360    1.0058    0.0000 C   0  0  0  0  0  0  0  0  0  0  0  0
    1.7360   -0.0012    0.0000 C   0  0  0  0  0  0  0  0  0  0  0  0
    0.8680   -0.4978    0.0000 C   0  0  0  0  0  0  0  0  0  0  0  0
    2.6938   -0.3125    0.0000 C   0  0  0  0  0  0  0  0  0  0  0  0
    3.2858    0.5023    0.0000 C   0  0  0  0  0  0  0  0  0  0  0  0
    2.6938    1.3169    0.0000 N   0  0  0  0  0  0  0  0  0  0  0  0
    3.0028   -1.2636    0.0000 C   0  0  0  0  0  0  0  0  0  0  0  0
    3.9809   -1.4715    0.0000 C   0  0  0  0  0  0  0  0  0  0  0  0
    4.2899   -2.4226    0.0000 N   0  0  0  0  0  0  0  0  0  0  0  0
    5.2680   -2.6306    0.0000 C   0  0  0  0  0  0  0  0  0  0  0  0
    5.9372   -1.8874    0.0000 O   0  0  0  0  0  0  0  0  0  0  0  0
    5.5770   -3.5816    0.0000 C   0  0  0  0  0  0  0  0  0  0  0  0
    6.5551   -3.7896    0.0000 O   0  0  0  0  0  0  0  0  0  0  0  0
  1  2  1  0  0  0  0
  2  7  2  0  0  0  0
  2  3  1  0  0  0  0
  3  4  2  0  0  0  0
  4  5  1  0  0  0  0
  5 10  1  0  0  0  0
  5  6  2  0  0  0  0
  6  7  1  0  0  0  0
  6  8  1  0  0  0  0
  8  9  2  0  0  0  0
  9 10  1  0  0  0  0
  8 11  1  0  0  0  0
 11 12  1  0  0  0  0
 12 13  1  0  0  0  0
 13 14  1  0  0  0  0
 14 15  2  0  0  0  0
 14 16  1  0  0  0  0
 16 17  1  0  0  0  0
M  END
$$$$
s_240690b____7362722____3025692
  -OEChem-03222016482D

 18 19  0     1  0  0  0  0  0999 V2000
    0.8675   -1.4978    0.0000 C   0  0  0  0  0  0  0  0  0  0  0  0
    0.8680   -0.4978    0.0000 C   0  0  0  0  0  0  0  0  0  0  0  0
    0.0000    0.0000    0.0000 C   0  0  0  0  0  0  0  0  0  0  0  0
   -0.0000    1.0058    0.0000 C   0  0  0  0  0  0  0  0  0  0  0  0
    0.8680    1.5138    0.0000 C   0  0  0  0  0  0  0  0  0  0  0  0
    1.7360    1.0058    0.0000 C   0  0  0  0  0  0  0  0  0  0  0  0
    1.7360   -0.0012    0.0000 C   0  0  0  0  0  0  0  0  0  0  0  0
    2.6938   -0.3125    0.0000 C   0  0  0  0  0  0  0  0  0  0  0  0
    3.2858    0.5023    0.0000 C   0  0  0  0  0  0  0  0  0  0  0  0
    2.6938    1.3169    0.0000 N   0  0  0  0  0  0  0  0  0  0  0  0
    3.0028   -1.2636    0.0000 C   0  0  0  0  0  0  0  0  0  0  0  0
    3.9809   -1.4715    0.0000 C   0  0  0  0  0  0  0  0  0  0  0  0
    4.2899   -2.4226    0.0000 N   0  0  0  0  0  0  0  0  0  0  0  0
    5.2680   -2.6306    0.0000 C   0  0  0  0  0  0  0  0  0  0  0  0
    5.9372   -1.8874    0.0000 O   0  0  0  0  0  0  0  0  0  0  0  0
    5.5770   -3.5816    0.0000 C   0  0  3  0  0  0  0  0  0  0  0  0
    6.5551   -3.7896    0.0000 C   0  0  0  0  0  0  0  0  0  0  0  0
    4.9078   -4.3247    0.0000 N   0  3  0  0  0  0  0  0  0  0  0  0
  1  2  1  0  0  0  0
  2  7  2  0  0  0  0
  2  3  1  0  0  0  0
  3  4  2  0  0  0  0
  4  5  1  0  0  0  0
  5  6  2  0  0  0  0
  6 10  1  0  0  0  0
  6  7  1  0  0  0  0
  7  8  1  0  0  0  0
  8  9  2  0  0  0  0
  9 10  1  0  0  0  0
  8 11  1  0  0  0  0
 11 12  1  0  0  0  0
 12 13  1  0  0  0  0
 13 14  1  0  0  0  0
 14 15  2  0  0  0  0
 14 16  1  0  0  0  0
 16 17  1  0  0  0  0
 16 18  1  0  0  0  0
M  CHG  1  18   1
M  END
$$$$
s_22____3219394____8794444
  -OEChem-03222016482D

 18 19  0     0  0  0  0  0  0999 V2000
    0.8675   -1.4978    0.0000 C   0  0  0  0  0  0  0  0  0  0  0  0
    0.8680   -0.4978    0.0000 C   0  0  0  0  0  0  0  0  0  0  0  0
    0.0000    0.0000    0.0000 C   0  0  0  0  0  0  0  0  0  0  0  0
   -0.0000    1.0058    0.0000 C   0  0  0  0  0  0  0  0  0  0  0  0
    0.8680    1.5138    0.0000 C   0  0  0  0  0  0  0  0  0  0  0  0
    1.7360    1.0058    0.0000 C   0  0  0  0  0  0  0  0  0  0  0  0
    1.7360   -0.0012    0.0000 C   0  0  0  0  0  0  0  0  0  0  0  0
    2.6938   -0.3125    0.0000 C   0  0  0  0  0  0  0  0  0  0  0  0
    3.2858    0.5023    0.0000 C   0  0  0  0  0  0  0  0  0  0  0  0
    2.6938    1.3169    0.0000 N   0  0  0  0  0  0  0  0  0  0  0  0
    3.0028   -1.2636    0.0000 C   0  0  0  0  0  0  0  0  0  0  0  0
    3.9809   -1.4715    0.0000 C   0  0  0  0  0  0  0  0  0  0  0  0
    4.2899   -2.4226    0.0000 N   0  0  0  0  0  0  0  0  0  0  0  0
    5.2680   -2.6306    0.0000 C   0  0  0  0  0  0  0  0  0  0  0  0
    5.9372   -1.8874    0.0000 O   0  0  0  0  0  0  0  0  0  0  0  0
    5.5770   -3.5816    0.0000 C   0  0  0  0  0  0  0  0  0  0  0  0
    6.5551   -3.7896    0.0000 C   0  0  0  0  0  0  0  0  0  0  0  0
    7.5333   -3.9976    0.0000 N   0  0  0  0  0  0  0  0  0  0  0  0
  1  2  1  0  0  0  0
  2  7  2  0  0  0  0
  2  3  1  0  0  0  0
  3  4  2  0  0  0  0
  4  5  1  0  0  0  0
  5  6  2  0  0  0  0
  6 10  1  0  0  0  0
  6  7  1  0  0  0  0
  7  8  1  0  0  0  0
  8  9  2  0  0  0  0
  9 10  1  0  0  0  0
  8 11  1  0  0  0  0
 11 12  1  0  0  0  0
 12 13  1  0  0  0  0
 13 14  1  0  0  0  0
 14 15  2  0  0  0  0
 14 16  1  0  0  0  0
 16 17  1  0  0  0  0
 17 18  3  0  0  0  0
M  END
$$$$
s_272164____14971778____17342478
  -OEChem-03222016482D

 21 22  0     0  0  0  0  0  0999 V2000
    3.2605   -4.8599    0.0000 C   0  0  0  0  0  0  0  0  0  0  0  0
    2.2824   -4.6519    0.0000 N   0  0  0  0  0  0  0  0  0  0  0  0
    1.6132   -5.3951    0.0000 C   0  0  0  0  0  0  0  0  0  0  0  0
    1.9222   -6.3461    0.0000 C   0  0  0  0  0  0  0  0  0  0  0  0
    2.2312   -7.2972    0.0000 C   0  0  0  0  0  0  0  0  0  0  0  0
    1.9734   -3.7009    0.0000 C   0  0  0  0  0  0  0  0  0  0  0  0
    0.9953   -3.4929    0.0000 O   0  0  0  0  0  0  0  0  0  0  0  0
    2.6426   -2.9578    0.0000 N   0  0  0  0  0  0  0  0  0  0  0  0
    2.3336   -2.0067    0.0000 C   0  0  0  0  0  0  0  0  0  0  0  0
    3.0028   -1.2636    0.0000 C   0  0  0  0  0  0  0  0  0  0  0  0
    2.6938   -0.3125    0.0000 C   0  0  0  0  0  0  0  0  0  0  0  0
    3.2858    0.5023    0.0000 C   0  0  0  0  0  0  0  0  0  0  0  0
    2.6938    1.3169    0.0000 N   0  0  0  0  0  0  0  0  0  0  0  0
    1.7360    1.0058    0.0000 C   0  0  0  0  0  0  0  0  0  0  0  0
    1.7360   -0.0012    0.0000 C   0  0  0  0  0  0  0  0  0  0  0  0
    0.8680   -0.4978    0.0000 C   0  0  0  0  0  0  0  0  0  0  0  0
    0.0000    0.0000    0.0000 C   0  0  0  0  0  0  0  0  0  0  0  0
   -0.0000    1.0058    0.0000 C   0  0  0  0  0  0  0  0  0  0  0  0
    0.8680    1.5138    0.0000 C   0  0  0  0  0  0  0  0  0  0  0  0
   -0.8675    1.5032    0.0000 O   0  0  0  0  0  0  0  0  0  0  0  0
   -1.7320    1.0007    0.0000 C   0  0  0  0  0  0  0  0  0  0  0  0
  1  2  1  0  0  0  0
  2  3  1  0  0  0  0
  3  4  1  0  0  0  0
  4  5  3  0  0  0  0
  2  6  1  0  0  0  0
  6  7  2  0  0  0  0
  6  8  1  0  0  0  0
  8  9  1  0  0  0  0
  9 10  1  0  0  0  0
 10 11  1  0  0  0  0
 11 15  1  0  0  0  0
 11 12  2  0  0  0  0
 12 13  1  0  0  0  0
 13 14  1  0  0  0  0
 14 19  2  0  0  0  0
 14 15  1  0  0  0  0
 15 16  2  0  0  0  0
 16 17  1  0  0  0  0
 17 18  2  0  0  0  0
 18 19  1  0  0  0  0
 18 20  1  0  0  0  0
 20 21  1  0  0  0  0
M  END
$$$$
s_270062____16428268____8147258
  -OEChem-03222016482D

 19 20  0     0  0  0  0  0  0999 V2000
    1.7327   -2.9983    0.0000 C   0  0  0  0  0  0  0  0  0  0  0  0
    1.7332   -1.9983    0.0000 C   0  0  0  0  0  0  0  0  0  0  0  0
    0.8675   -1.4978    0.0000 O   0  0  0  0  0  0  0  0  0  0  0  0
    0.8680   -0.4978    0.0000 C   0  0  0  0  0  0  0  0  0  0  0  0
    0.0000    0.0000    0.0000 C   0  0  0  0  0  0  0  0  0  0  0  0
   -0.0000    1.0058    0.0000 C   0  0  0  0  0  0  0  0  0  0  0  0
    0.8680    1.5138    0.0000 C   0  0  0  0  0  0  0  0  0  0  0  0
    1.7360    1.0058    0.0000 C   0  0  0  0  0  0  0  0  0  0  0  0
    1.7360   -0.0012    0.0000 C   0  0  0  0  0  0  0  0  0  0  0  0
    2.6938   -0.3125    0.0000 C   0  0  0  0  0  0  0  0  0  0  0  0
    3.2858    0.5023    0.0000 C   0  0  0  0  0  0  0  0  0  0  0  0
    2.6938    1.3169    0.0000 N   0  0  0  0  0  0  0  0  0  0  0  0
    3.0028   -1.2636    0.0000 C   0  0  0  0  0  0  0  0  0  0  0  0
    3.9809   -1.4715    0.0000 C   0  0  0  0  0  0  0  0  0  0  0  0
    4.2899   -2.4226    0.0000 N   0  0  0  0  0  0  0  0  0  0  0  0
    5.2680   -2.6306    0.0000 C   0  0  0  0  0  0  0  0  0  0  0  0
    5.9372   -1.8874    0.0000 O   0  0  0  0  0  0  0  0  0  0  0  0
    5.5770   -3.5816    0.0000 C   0  0  0  0  0  0  0  0  0  0  0  0
    6.5551   -3.7896    0.0000 Cl  0  0  0  0  0  0  0  0  0  0  0  0
  1  2  1  0  0  0  0
  2  3  1  0  0  0  0
  3  4  1  0  0  0  0
  4  9  2  0  0  0  0
  4  5  1  0  0  0  0
  5  6  2  0  0  0  0
  6  7  1  0  0  0  0
  7  8  2  0  0  0  0
  8 12  1  0  0  0  0
  8  9  1  0  0  0  0
  9 10  1  0  0  0  0
 10 11  2  0  0  0  0
 11 12  1  0  0  0  0
 10 13  1  0  0  0  0
 13 14  1  0  0  0  0
 14 15  1  0  0  0  0
 15 16  1  0  0  0  0
 16 17  2  0  0  0  0
 16 18  1  0  0  0  0
 18 19  1  0  0  0  0
M  END
$$$$
s_22____4839448____1290374
  -OEChem-03222016482D

 21 22  0     0  0  0  0  0  0999 V2000
   -1.7320   -0.0025    0.0000 C   0  0  0  0  0  0  0  0  0  0  0  0
   -0.8653   -0.5013    0.0000 O   0  0  0  0  0  0  0  0  0  0  0  0
    0.0000    0.0000    0.0000 C   0  0  0  0  0  0  0  0  0  0  0  0
   -0.0000    1.0058    0.0000 C   0  0  0  0  0  0  0  0  0  0  0  0
    0.8680    1.5138    0.0000 C   0  0  0  0  0  0  0  0  0  0  0  0
    1.7360    1.0058    0.0000 C   0  0  0  0  0  0  0  0  0  0  0  0
    1.7360   -0.0012    0.0000 C   0  0  0  0  0  0  0  0  0  0  0  0
    0.8680   -0.4978    0.0000 C   0  0  0  0  0  0  0  0  0  0  0  0
    2.6938   -0.3125    0.0000 C   0  0  0  0  0  0  0  0  0  0  0  0
    3.2858    0.5023    0.0000 C   0  0  0  0  0  0  0  0  0  0  0  0
    2.6938    1.3169    0.0000 N   0  0  0  0  0  0  0  0  0  0  0  0
    3.0028   -1.2636    0.0000 C   0  0  0  0  0  0  0  0  0  0  0  0
    3.9809   -1.4715    0.0000 C   0  0  0  0  0  0  0  0  0  0  0  0
    4.2899   -2.4226    0.0000 N   0  0  0  0  0  0  0  0  0  0  0  0
    5.2680   -2.6306    0.0000 C   0  0  0  0  0  0  0  0  0  0  0  0
    5.9372   -1.8874    0.0000 O   0  0  0  0  0  0  0  0  0  0  0  0
    5.5770   -3.5816    0.0000 C   0  0  0  0  0  0  0  0  0  0  0  0
    6.5551   -3.7896    0.0000 S   0  0  0  0  0  0  0  0  0  0  0  0
    6.7631   -2.8115    0.0000 O   0  0  0  0  0  0  0  0  0  0  0  0
    6.3472   -4.7677    0.0000 O   0  0  0  0  0  0  0  0  0  0  0  0
    7.5333   -3.9976    0.0000 C   0  0  0  0  0  0  0  0  0  0  0  0
  1  2  1  0  0  0  0
  2  3  1  0  0  0  0
  3  8  2  0  0  0  0
  3  4  1  0  0  0  0
  4  5  2  0  0  0  0
  5  6  1  0  0  0  0
  6 11  1  0  0  0  0
  6  7  2  0  0  0  0
  7  8  1  0  0  0  0
  7  9  1  0  0  0  0
  9 10  2  0  0  0  0
 10 11  1  0  0  0  0
  9 12  1  0  0  0  0
 12 13  1  0  0  0  0
 13 14  1  0  0  0  0
 14 15  1  0  0  0  0
 15 16  2  0  0  0  0
 15 17  1  0  0  0  0
 17 18  1  0  0  0  0
 18 19  2  0  0  0  0
 18 20  2  0  0  0  0
 18 21  1  0  0  0  0
M  END
$$$$
s_22____15506616____60462
  -OEChem-03222016482D

 20 21  0     0  0  0  0  0  0999 V2000
    1.7340    3.0138    0.0000 C   0  0  0  0  0  0  0  0  0  0  0  0
    0.8680    2.5138    0.0000 O   0  0  0  0  0  0  0  0  0  0  0  0
    0.8680    1.5138    0.0000 C   0  0  0  0  0  0  0  0  0  0  0  0
    0.0000    1.0058    0.0000 C   0  0  0  0  0  0  0  0  0  0  0  0
    0.0000    0.0000    0.0000 C   0  0  0  0  0  0  0  0  0  0  0  0
    0.8680   -0.4978    0.0000 C   0  0  0  0  0  0  0  0  0  0  0  0
    1.7360   -0.0012    0.0000 C   0  0  0  0  0  0  0  0  0  0  0  0
    1.7360    1.0058    0.0000 C   0  0  0  0  0  0  0  0  0  0  0  0
    2.6938    1.3169    0.0000 N   0  0  0  0  0  0  0  0  0  0  0  0
    3.2858    0.5023    0.0000 C   0  0  0  0  0  0  0  0  0  0  0  0
    2.6938   -0.3125    0.0000 C   0  0  0  0  0  0  0  0  0  0  0  0
    3.0028   -1.2636    0.0000 C   0  0  0  0  0  0  0  0  0  0  0  0
    3.9809   -1.4715    0.0000 C   0  0  0  0  0  0  0  0  0  0  0  0
    4.2899   -2.4226    0.0000 N   0  0  0  0  0  0  0  0  0  0  0  0
    5.2680   -2.6306    0.0000 C   0  0  0  0  0  0  0  0  0  0  0  0
    5.9372   -1.8874    0.0000 O   0  0  0  0  0  0  0  0  0  0  0  0
    5.5770   -3.5816    0.0000 C   0  0  0  0  0  0  0  0  0  0  0  0
    6.5551   -3.7896    0.0000 C   0  0  0  0  0  0  0  0  0  0  0  0
    6.8641   -4.7407    0.0000 S   0  0  0  0  0  0  0  0  0  0  0  0
    7.8422   -4.9486    0.0000 C   0  0  0  0  0  0  0  0  0  0  0  0
  1  2  1  0  0  0  0
  2  3  1  0  0  0  0
  3  8  2  0  0  0  0
  3  4  1  0  0  0  0
  4  5  2  0  0  0  0
  5  6  1  0  0  0  0
  6  7  2  0  0  0  0
  7 11  1  0  0  0  0
  7  8  1  0  0  0  0
  8  9  1  0  0  0  0
  9 10  1  0  0  0  0
 10 11  2  0  0  0  0
 11 12  1  0  0  0  0
 12 13  1  0  0  0  0
 13 14  1  0  0  0  0
 14 15  1  0  0  0  0
 15 16  2  0  0  0  0
 15 17  1  0  0  0  0
 17 18  1  0  0  0  0
 18 19  1  0  0  0  0
 19 20  1  0  0  0  0
M  END
$$$$
s_240690b____15144160____7368582
  -OEChem-03222016482D

 19 20  0     0  0  0  0  0  0999 V2000
    6.8641   -4.7407    0.0000 C   0  0  0  0  0  0  0  0  0  0  0  0
    6.5551   -3.7896    0.0000 N   0  3  0  0  0  0  0  0  0  0  0  0
    5.5770   -3.5816    0.0000 C   0  0  0  0  0  0  0  0  0  0  0  0
    5.2680   -2.6306    0.0000 C   0  0  0  0  0  0  0  0  0  0  0  0
    5.9372   -1.8874    0.0000 O   0  0  0  0  0  0  0  0  0  0  0  0
    4.2899   -2.4226    0.0000 N   0  0  0  0  0  0  0  0  0  0  0  0
    3.9809   -1.4715    0.0000 C   0  0  0  0  0  0  0  0  0  0  0  0
    3.0028   -1.2636    0.0000 C   0  0  0  0  0  0  0  0  0  0  0  0
    2.6938   -0.3125    0.0000 C   0  0  0  0  0  0  0  0  0  0  0  0
    3.2858    0.5023    0.0000 C   0  0  0  0  0  0  0  0  0  0  0  0
    2.6938    1.3169    0.0000 N   0  0  0  0  0  0  0  0  0  0  0  0
    1.7360    1.0058    0.0000 C   0  0  0  0  0  0  0  0  0  0  0  0
    1.7360   -0.0012    0.0000 C   0  0  0  0  0  0  0  0  0  0  0  0
    0.8680   -0.4978    0.0000 C   0  0  0  0  0  0  0  0  0  0  0  0
    0.0000    0.0000    0.0000 C   0  0  0  0  0  0  0  0  0  0  0  0
   -0.0000    1.0058    0.0000 C   0  0  0  0  0  0  0  0  0  0  0  0
    0.8680    1.5138    0.0000 C   0  0  0  0  0  0  0  0  0  0  0  0
   -0.8675    1.5032    0.0000 F   0  0  0  0  0  0  0  0  0  0  0  0
    0.8675   -1.4978    0.0000 F   0  0  0  0  0  0  0  0  0  0  0  0
  1  2  1  0  0  0  0
  2  3  1  0  0  0  0
  3  4  1  0  0  0  0
  4  5  2  0  0  0  0
  4  6  1  0  0  0  0
  6  7  1  0  0  0  0
  7  8  1  0  0  0  0
  8  9  1  0  0  0  0
  9 13  1  0  0  0  0
  9 10  2  0  0  0  0
 10 11  1  0  0  0  0
 11 12  1  0  0  0  0
 12 17  2  0  0  0  0
 12 13  1  0  0  0  0
 13 14  2  0  0  0  0
 14 15  1  0  0  0  0
 15 16  2  0  0  0  0
 16 17  1  0  0  0  0
 16 18  1  0  0  0  0
 14 19  1  0  0  0  0
M  CHG  1   2   1
M  END
$$$$
s_22____13570824____7941096
  -OEChem-03222016482D

 18 19  0     1  0  0  0  0  0999 V2000
    4.0430   -3.8297    0.0000 C   0  0  0  0  0  0  0  0  0  0  0  0
    4.7129   -3.0873    0.0000 C   0  0  3  0  0  0  0  0  0  0  0  0
    4.4050   -2.1359    0.0000 C   0  0  0  0  0  0  0  0  0  0  0  0
    5.0749   -1.3935    0.0000 O   0  0  0  0  0  0  0  0  0  0  0  0
    3.4271   -1.9269    0.0000 N   0  0  0  0  0  0  0  0  0  0  0  0
    3.1191   -0.9755    0.0000 C   0  0  0  0  0  0  0  0  0  0  0  0
    2.1412   -0.7665    0.0000 C   0  0  0  0  0  0  0  0  0  0  0  0
    1.8332    0.1849    0.0000 C   0  0  0  0  0  0  0  0  0  0  0  0
    2.4247    0.9971    0.0000 C   0  0  0  0  0  0  0  0  0  0  0  0
    1.8349    1.8105    0.0000 N   0  0  0  0  0  0  0  0  0  0  0  0
    0.8791    1.5011    0.0000 C   0  0  0  0  0  0  0  0  0  0  0  0
    0.8780    0.4964    0.0000 C   0  0  0  0  0  0  0  0  0  0  0  0
    0.0000    0.0000    0.0000 C   0  0  0  0  0  0  0  0  0  0  0  0
   -0.8635    0.5043    0.0000 C   0  0  0  0  0  0  0  0  0  0  0  0
   -0.8584    1.5098    0.0000 N   0  0  0  0  0  0  0  0  0  0  0  0
    0.0101    2.0110    0.0000 C   0  0  0  0  0  0  0  0  0  0  0  0
   -1.7320    0.0087    0.0000 Cl  0  0  0  0  0  0  0  0  0  0  0  0
    5.6909   -3.2963    0.0000 O   0  0  0  0  0  0  0  0  0  0  0  0
  1  2  1  0  0  0  0
  2  3  1  0  0  0  0
  3  4  2  0  0  0  0
  3  5  1  0  0  0  0
  5  6  1  0  0  0  0
  6  7  1  0  0  0  0
  7  8  1  0  0  0  0
  8 12  1  0  0  0  0
  8  9  2  0  0  0  0
  9 10  1  0  0  0  0
 10 11  1  0  0  0  0
 11 16  2  0  0  0  0
 11 12  1  0  0  0  0
 12 13  2  0  0  0  0
 13 14  1  0  0  0  0
 14 15  2  0  0  0  0
 15 16  1  0  0  0  0
 14 17  1  0  0  0  0
  2 18  1  0  0  0  0
M  END
$$$$
s_512____11969934____4839458
  -OEChem-03222016482D

 21 22  0     0  0  0  0  0  0999 V2000
   -1.7320   -0.0025    0.0000 C   0  0  0  0  0  0  0  0  0  0  0  0
   -0.8653   -0.5013    0.0000 O   0  0  0  0  0  0  0  0  0  0  0  0
    0.0000    0.0000    0.0000 C   0  0  0  0  0  0  0  0  0  0  0  0
   -0.0000    1.0058    0.0000 C   0  0  0  0  0  0  0  0  0  0  0  0
    0.8680    1.5138    0.0000 C   0  0  0  0  0  0  0  0  0  0  0  0
    1.7360    1.0058    0.0000 C   0  0  0  0  0  0  0  0  0  0  0  0
    1.7360   -0.0012    0.0000 C   0  0  0  0  0  0  0  0  0  0  0  0
    0.8680   -0.4978    0.0000 C   0  0  0  0  0  0  0  0  0  0  0  0
    2.6938   -0.3125    0.0000 C   0  0  0  0  0  0  0  0  0  0  0  0
    3.2858    0.5023    0.0000 C   0  0  0  0  0  0  0  0  0  0  0  0
    2.6938    1.3169    0.0000 N   0  0  0  0  0  0  0  0  0  0  0  0
    3.0028   -1.2636    0.0000 C   0  0  0  0  0  0  0  0  0  0  0  0
    3.9809   -1.4715    0.0000 C   0  0  0  0  0  0  0  0  0  0  0  0
    4.2899   -2.4226    0.0000 N   0  0  0  0  0  0  0  0  0  0  0  0
    5.2680   -2.6306    0.0000 C   0  0  0  0  0  0  0  0  0  0  0  0
    5.9372   -1.8874    0.0000 O   0  0  0  0  0  0  0  0  0  0  0  0
    5.5770   -3.5816    0.0000 N   0  0  0  0  0  0  0  0  0  0  0  0
    6.5551   -3.7896    0.0000 C   0  0  0  0  0  0  0  0  0  0  0  0
    6.8641   -4.7407    0.0000 C   0  0  0  0  0  0  0  0  0  0  0  0
    7.8422   -4.9486    0.0000 C   0  0  0  0  0  0  0  0  0  0  0  0
    8.1512   -5.8997    0.0000 C   0  0  0  0  0  0  0  0  0  0  0  0
  1  2  1  0  0  0  0
  2  3  1  0  0  0  0
  3  8  2  0  0  0  0
  3  4  1  0  0  0  0
  4  5  2  0  0  0  0
  5  6  1  0  0  0  0
  6 11  1  0  0  0  0
  6  7  2  0  0  0  0
  7  8  1  0  0  0  0
  7  9  1  0  0  0  0
  9 10  2  0  0  0  0
 10 11  1  0  0  0  0
  9 12  1  0  0  0  0
 12 13  1  0  0  0  0
 13 14  1  0  0  0  0
 14 15  1  0  0  0  0
 15 16  2  0  0  0  0
 15 17  1  0  0  0  0
 17 18  1  0  0  0  0
 18 19  1  0  0  0  0
 19 20  1  0  0  0  0
 20 21  2  0  0  0  0
M  END
$$$$
s_270004____8350024____15269820
  -OEChem-03222016482D

 19 20  0     1  0  0  0  0  0999 V2000
    8.7857    3.1007    0.0000 C   0  0  0  0  0  0  0  0  0  0  0  0
    7.7856    3.1006    0.0000 C   0  0  0  0  0  0  0  0  0  0  0  0
    7.2857    2.2346    0.0000 O   0  0  0  0  0  0  0  0  0  0  0  0
    6.2857    2.2345    0.0000 C   0  0  3  0  0  0  0  0  0  0  0  0
    5.7856    3.1005    0.0000 C   0  0  0  0  0  0  0  0  0  0  0  0
    5.7858    1.3685    0.0000 C   0  0  0  0  0  0  0  0  0  0  0  0
    4.7858    1.3684    0.0000 N   0  3  0  0  0  0  0  0  0  0  0  0
    4.2858    0.5024    0.0000 C   0  0  0  0  0  0  0  0  0  0  0  0
    3.2858    0.5023    0.0000 C   0  0  0  0  0  0  0  0  0  0  0  0
    2.6938   -0.3125    0.0000 C   0  0  0  0  0  0  0  0  0  0  0  0
    1.7360   -0.0012    0.0000 C   0  0  0  0  0  0  0  0  0  0  0  0
    1.7360    1.0058    0.0000 C   0  0  0  0  0  0  0  0  0  0  0  0
    2.6938    1.3169    0.0000 N   0  0  0  0  0  0  0  0  0  0  0  0
    0.8680    1.5138    0.0000 C   0  0  0  0  0  0  0  0  0  0  0  0
    0.0000    1.0058    0.0000 C   0  0  0  0  0  0  0  0  0  0  0  0
    0.0000    0.0000    0.0000 C   0  0  0  0  0  0  0  0  0  0  0  0
    0.8680   -0.4978    0.0000 C   0  0  0  0  0  0  0  0  0  0  0  0
    0.8675   -1.4978    0.0000 O   0  0  0  0  0  0  0  0  0  0  0  0
    1.7332   -1.9983    0.0000 C   0  0  0  0  0  0  0  0  0  0  0  0
  1  2  1  0  0  0  0
  2  3  1  0  0  0  0
  3  4  1  0  0  0  0
  4  5  1  0  0  0  0
  4  6  1  0  0  0  0
  6  7  1  0  0  0  0
  7  8  1  0  0  0  0
  8  9  1  0  0  0  0
  9 13  1  0  0  0  0
  9 10  2  0  0  0  0
 10 11  1  0  0  0  0
 11 17  2  0  0  0  0
 11 12  1  0  0  0  0
 12 13  1  0  0  0  0
 12 14  2  0  0  0  0
 14 15  1  0  0  0  0
 15 16  2  0  0  0  0
 16 17  1  0  0  0  0
 17 18  1  0  0  0  0
 18 19  1  0  0  0  0
M  CHG  1   7   1
M  END
$$$$
s_22____4839448____12053348
  -OEChem-03222016482D

 19 20  0     0  0  0  0  0  0999 V2000
   -1.7320   -0.0025    0.0000 C   0  0  0  0  0  0  0  0  0  0  0  0
   -0.8653   -0.5013    0.0000 O   0  0  0  0  0  0  0  0  0  0  0  0
    0.0000    0.0000    0.0000 C   0  0  0  0  0  0  0  0  0  0  0  0
   -0.0000    1.0058    0.0000 C   0  0  0  0  0  0  0  0  0  0  0  0
    0.8680    1.5138    0.0000 C   0  0  0  0  0  0  0  0  0  0  0  0
    1.7360    1.0058    0.0000 C   0  0  0  0  0  0  0  0  0  0  0  0
    1.7360   -0.0012    0.0000 C   0  0  0  0  0  0  0  0  0  0  0  0
    0.8680   -0.4978    0.0000 C   0  0  0  0  0  0  0  0  0  0  0  0
    2.6938   -0.3125    0.0000 C   0  0  0  0  0  0  0  0  0  0  0  0
    3.2858    0.5023    0.0000 C   0  0  0  0  0  0  0  0  0  0  0  0
    2.6938    1.3169    0.0000 N   0  0  0  0  0  0  0  0  0  0  0  0
    3.0028   -1.2636    0.0000 C   0  0  0  0  0  0  0  0  0  0  0  0
    3.9809   -1.4715    0.0000 C   0  0  0  0  0  0  0  0  0  0  0  0
    4.2899   -2.4226    0.0000 N   0  0  0  0  0  0  0  0  0  0  0  0
    5.2680   -2.6306    0.0000 C   0  0  0  0  0  0  0  0  0  0  0  0
    5.9372   -1.8874    0.0000 O   0  0  0  0  0  0  0  0  0  0  0  0
    5.5770   -3.5816    0.0000 C   0  0  0  0  0  0  0  0  0  0  0  0
    4.9078   -4.3247    0.0000 O   0  0  0  0  0  0  0  0  0  0  0  0
    6.5551   -3.7896    0.0000 N   0  0  0  0  0  0  0  0  0  0  0  0
  1  2  1  0  0  0  0
  2  3  1  0  0  0  0
  3  8  2  0  0  0  0
  3  4  1  0  0  0  0
  4  5  2  0  0  0  0
  5  6  1  0  0  0  0
  6 11  1  0  0  0  0
  6  7  2  0  0  0  0
  7  8  1  0  0  0  0
  7  9  1  0  0  0  0
  9 10  2  0  0  0  0
 10 11  1  0  0  0  0
  9 12  1  0  0  0  0
 12 13  1  0  0  0  0
 13 14  1  0  0  0  0
 14 15  1  0  0  0  0
 15 16  2  0  0  0  0
 15 17  1  0  0  0  0
 17 18  2  0  0  0  0
 17 19  1  0  0  0  0
M  END
$$$$
s_240690b____16900534____3025692
  -OEChem-03222016482D

 18 19  0     1  0  0  0  0  0999 V2000
    4.9078   -4.3247    0.0000 C   0  0  0  0  0  0  0  0  0  0  0  0
    5.5770   -3.5816    0.0000 C   0  0  3  0  0  0  0  0  0  0  0  0
    5.2680   -2.6306    0.0000 C   0  0  0  0  0  0  0  0  0  0  0  0
    5.9372   -1.8874    0.0000 O   0  0  0  0  0  0  0  0  0  0  0  0
    4.2899   -2.4226    0.0000 N   0  0  0  0  0  0  0  0  0  0  0  0
    3.9809   -1.4715    0.0000 C   0  0  0  0  0  0  0  0  0  0  0  0
    3.0028   -1.2636    0.0000 C   0  0  0  0  0  0  0  0  0  0  0  0
    2.6938   -0.3125    0.0000 C   0  0  0  0  0  0  0  0  0  0  0  0
    3.2858    0.5023    0.0000 C   0  0  0  0  0  0  0  0  0  0  0  0
    2.6938    1.3169    0.0000 N   0  0  0  0  0  0  0  0  0  0  0  0
    1.7360    1.0058    0.0000 C   0  0  0  0  0  0  0  0  0  0  0  0
    1.7360   -0.0012    0.0000 C   0  0  0  0  0  0  0  0  0  0  0  0
    0.8680   -0.4978    0.0000 C   0  0  0  0  0  0  0  0  0  0  0  0
    0.0000    0.0000    0.0000 C   0  0  0  0  0  0  0  0  0  0  0  0
   -0.0000    1.0058    0.0000 C   0  0  0  0  0  0  0  0  0  0  0  0
    0.8680    1.5138    0.0000 C   0  0  0  0  0  0  0  0  0  0  0  0
    0.8675   -1.4978    0.0000 F   0  0  0  0  0  0  0  0  0  0  0  0
    6.5551   -3.7896    0.0000 N   0  3  0  0  0  0  0  0  0  0  0  0
  1  2  1  0  0  0  0
  2  3  1  0  0  0  0
  3  4  2  0  0  0  0
  3  5  1  0  0  0  0
  5  6  1  0  0  0  0
  6  7  1  0  0  0  0
  7  8  1  0  0  0  0
  8 12  1  0  0  0  0
  8  9  2  0  0  0  0
  9 10  1  0  0  0  0
 10 11  1  0  0  0  0
 11 16  2  0  0  0  0
 11 12  1  0  0  0  0
 12 13  2  0  0  0  0
 13 14  1  0  0  0  0
 14 15  2  0  0  0  0
 15 16  1  0  0  0  0
 13 17  1  0  0  0  0
  2 18  1  0  0  0  0
M  CHG  1  18   1
M  END
$$$$
s_22____15506616____58878
  -OEChem-03222016482D

 21 22  0     0  0  0  0  0  0999 V2000
    1.2530   -7.0892    0.0000 C   0  0  0  0  0  0  0  0  0  0  0  0
    1.9222   -6.3461    0.0000 C   0  0  0  0  0  0  0  0  0  0  0  0
    2.9003   -6.5541    0.0000 O   0  0  0  0  0  0  0  0  0  0  0  0
    1.6132   -5.3951    0.0000 N   0  0  0  0  0  0  0  0  0  0  0  0
    2.2824   -4.6519    0.0000 C   0  0  0  0  0  0  0  0  0  0  0  0
    1.9734   -3.7009    0.0000 C   0  0  0  0  0  0  0  0  0  0  0  0
    0.9953   -3.4929    0.0000 O   0  0  0  0  0  0  0  0  0  0  0  0
    2.6426   -2.9578    0.0000 N   0  0  0  0  0  0  0  0  0  0  0  0
    2.3336   -2.0067    0.0000 C   0  0  0  0  0  0  0  0  0  0  0  0
    3.0028   -1.2636    0.0000 C   0  0  0  0  0  0  0  0  0  0  0  0
    2.6938   -0.3125    0.0000 C   0  0  0  0  0  0  0  0  0  0  0  0
    3.2858    0.5023    0.0000 C   0  0  0  0  0  0  0  0  0  0  0  0
    2.6938    1.3169    0.0000 N   0  0  0  0  0  0  0  0  0  0  0  0
    1.7360    1.0058    0.0000 C   0  0  0  0  0  0  0  0  0  0  0  0
    1.7360   -0.0012    0.0000 C   0  0  0  0  0  0  0  0  0  0  0  0
    0.8680   -0.4978    0.0000 C   0  0  0  0  0  0  0  0  0  0  0  0
    0.0000    0.0000    0.0000 C   0  0  0  0  0  0  0  0  0  0  0  0
   -0.0000    1.0058    0.0000 C   0  0  0  0  0  0  0  0  0  0  0  0
    0.8680    1.5138    0.0000 C   0  0  0  0  0  0  0  0  0  0  0  0
    0.8680    2.5138    0.0000 O   0  0  0  0  0  0  0  0  0  0  0  0
    0.0020    3.0138    0.0000 C   0  0  0  0  0  0  0  0  0  0  0  0
  1  2  1  0  0  0  0
  2  3  2  0  0  0  0
  2  4  1  0  0  0  0
  4  5  1  0  0  0  0
  5  6  1  0  0  0  0
  6  7  2  0  0  0  0
  6  8  1  0  0  0  0
  8  9  1  0  0  0  0
  9 10  1  0  0  0  0
 10 11  1  0  0  0  0
 11 15  1  0  0  0  0
 11 12  2  0  0  0  0
 12 13  1  0  0  0  0
 13 14  1  0  0  0  0
 14 19  2  0  0  0  0
 14 15  1  0  0  0  0
 15 16  2  0  0  0  0
 16 17  1  0  0  0  0
 17 18  2  0  0  0  0
 18 19  1  0  0  0  0
 19 20  1  0  0  0  0
 20 21  1  0  0  0  0
M  END
$$$$
s_207____13973878____9293594
  -OEChem-03222016482D

 18 19  0     0  0  0  0  0  0999 V2000
    7.7857    1.3686    0.0000 C   0  0  0  0  0  0  0  0  0  0  0  0
    7.2857    2.2346    0.0000 N   0  0  0  0  0  0  0  0  0  0  0  0
    6.2857    2.2345    0.0000 C   0  0  0  0  0  0  0  0  0  0  0  0
    5.7856    3.1005    0.0000 O   0  0  0  0  0  0  0  0  0  0  0  0
    5.7857    1.3685    0.0000 C   0  0  0  0  0  0  0  0  0  0  0  0
    4.7857    1.3684    0.0000 N   0  3  0  0  0  0  0  0  0  0  0  0
    4.2858    0.5024    0.0000 C   0  0  0  0  0  0  0  0  0  0  0  0
    3.2858    0.5023    0.0000 C   0  0  0  0  0  0  0  0  0  0  0  0
    2.6938   -0.3125    0.0000 C   0  0  0  0  0  0  0  0  0  0  0  0
    1.7360   -0.0012    0.0000 C   0  0  0  0  0  0  0  0  0  0  0  0
    0.8680   -0.4978    0.0000 C   0  0  0  0  0  0  0  0  0  0  0  0
    0.0000    0.0000    0.0000 C   0  0  0  0  0  0  0  0  0  0  0  0
    0.0000    1.0058    0.0000 C   0  0  0  0  0  0  0  0  0  0  0  0
    0.8680    1.5138    0.0000 C   0  0  0  0  0  0  0  0  0  0  0  0
    1.7360    1.0058    0.0000 C   0  0  0  0  0  0  0  0  0  0  0  0
    2.6938    1.3169    0.0000 N   0  0  0  0  0  0  0  0  0  0  0  0
   -0.8675    1.5032    0.0000 F   0  0  0  0  0  0  0  0  0  0  0  0
    7.7856    3.1006    0.0000 O   0  0  0  0  0  0  0  0  0  0  0  0
  1  2  1  0  0  0  0
  2  3  1  0  0  0  0
  3  4  2  0  0  0  0
  3  5  1  0  0  0  0
  5  6  1  0  0  0  0
  6  7  1  0  0  0  0
  7  8  1  0  0  0  0
  8 16  1  0  0  0  0
  8  9  2  0  0  0  0
  9 10  1  0  0  0  0
 10 15  2  0  0  0  0
 10 11  1  0  0  0  0
 11 12  2  0  0  0  0
 12 13  1  0  0  0  0
 13 14  2  0  0  0  0
 14 15  1  0  0  0  0
 15 16  1  0  0  0  0
 13 17  1  0  0  0  0
  2 18  1  0  0  0  0
M  CHG  1   6   1
M  END
$$$$
s_2554____15561754____788524
  -OEChem-03222016482D

 19 20  0     0  0  0  0  0  0999 V2000
    1.5905   -1.3375    0.0000 C   0  0  0  0  0  0  0  0  0  0  0  0
    2.3336   -2.0067    0.0000 C   0  0  0  0  0  0  0  0  0  0  0  0
    3.0767   -2.6759    0.0000 C   0  0  0  0  0  0  0  0  0  0  0  0
    3.0028   -1.2636    0.0000 C   0  0  0  0  0  0  0  0  0  0  0  0
    2.6938   -0.3125    0.0000 C   0  0  0  0  0  0  0  0  0  0  0  0
    3.2858    0.5023    0.0000 C   0  0  0  0  0  0  0  0  0  0  0  0
    2.6938    1.3169    0.0000 N   0  0  0  0  0  0  0  0  0  0  0  0
    1.7360    1.0058    0.0000 C   0  0  0  0  0  0  0  0  0  0  0  0
    1.7360   -0.0012    0.0000 C   0  0  0  0  0  0  0  0  0  0  0  0
    0.8680   -0.4978    0.0000 C   0  0  0  0  0  0  0  0  0  0  0  0
    0.0000    0.0000    0.0000 C   0  0  0  0  0  0  0  0  0  0  0  0
   -0.0000    1.0058    0.0000 C   0  0  0  0  0  0  0  0  0  0  0  0
    0.8680    1.5138    0.0000 C   0  0  0  0  0  0  0  0  0  0  0  0
   -0.8675    1.5032    0.0000 O   0  0  0  0  0  0  0  0  0  0  0  0
   -1.7320    1.0007    0.0000 C   0  0  0  0  0  0  0  0  0  0  0  0
    1.6644   -2.7498    0.0000 N   0  0  0  0  0  0  0  0  0  0  0  0
    1.9734   -3.7009    0.0000 C   0  0  0  0  0  0  0  0  0  0  0  0
    2.9515   -3.9088    0.0000 O   0  0  0  0  0  0  0  0  0  0  0  0
    1.3042   -4.4440    0.0000 N   0  0  0  0  0  0  0  0  0  0  0  0
  1  2  1  0  0  0  0
  2  3  1  0  0  0  0
  2  4  1  0  0  0  0
  4  5  1  0  0  0  0
  5  9  1  0  0  0  0
  5  6  2  0  0  0  0
  6  7  1  0  0  0  0
  7  8  1  0  0  0  0
  8 13  2  0  0  0  0
  8  9  1  0  0  0  0
  9 10  2  0  0  0  0
 10 11  1  0  0  0  0
 11 12  2  0  0  0  0
 12 13  1  0  0  0  0
 12 14  1  0  0  0  0
 14 15  1  0  0  0  0
  2 16  1  0  0  0  0
 16 17  1  0  0  0  0
 17 18  2  0  0  0  0
 17 19  1  0  0  0  0
M  END
$$$$
s_270004____11573550____15269820
  -OEChem-03222016482D

 21 22  0     0  0  0  0  0  0999 V2000
    7.2858    0.5025    0.0000 C   0  0  0  0  0  0  0  0  0  0  0  0
    7.7858    1.3686    0.0000 C   0  0  0  0  0  0  0  0  0  0  0  0
    7.2857    2.2346    0.0000 N   0  0  0  0  0  0  0  0  0  0  0  0
    6.2857    2.2345    0.0000 C   0  0  0  0  0  0  0  0  0  0  0  0
    5.7856    3.1005    0.0000 O   0  0  0  0  0  0  0  0  0  0  0  0
    5.7858    1.3685    0.0000 C   0  0  0  0  0  0  0  0  0  0  0  0
    4.7858    1.3684    0.0000 N   0  3  0  0  0  0  0  0  0  0  0  0
    4.2858    0.5024    0.0000 C   0  0  0  0  0  0  0  0  0  0  0  0
    3.2858    0.5023    0.0000 C   0  0  0  0  0  0  0  0  0  0  0  0
    2.6938   -0.3125    0.0000 C   0  0  0  0  0  0  0  0  0  0  0  0
    1.7360   -0.0012    0.0000 C   0  0  0  0  0  0  0  0  0  0  0  0
    1.7360    1.0058    0.0000 C   0  0  0  0  0  0  0  0  0  0  0  0
    2.6938    1.3169    0.0000 N   0  0  0  0  0  0  0  0  0  0  0  0
    0.8680    1.5138    0.0000 C   0  0  0  0  0  0  0  0  0  0  0  0
    0.0000    1.0058    0.0000 C   0  0  0  0  0  0  0  0  0  0  0  0
    0.0000    0.0000    0.0000 C   0  0  0  0  0  0  0  0  0  0  0  0
    0.8680   -0.4978    0.0000 C   0  0  0  0  0  0  0  0  0  0  0  0
    0.8675   -1.4978    0.0000 O   0  0  0  0  0  0  0  0  0  0  0  0
    1.7332   -1.9983    0.0000 C   0  0  0  0  0  0  0  0  0  0  0  0
    7.7856    3.1006    0.0000 O   0  0  0  0  0  0  0  0  0  0  0  0
    7.2856    3.9666    0.0000 C   0  0  0  0  0  0  0  0  0  0  0  0
  1  2  1  0  0  0  0
  2  3  1  0  0  0  0
  3  4  1  0  0  0  0
  4  5  2  0  0  0  0
  4  6  1  0  0  0  0
  6  7  1  0  0  0  0
  7  8  1  0  0  0  0
  8  9  1  0  0  0  0
  9 13  1  0  0  0  0
  9 10  2  0  0  0  0
 10 11  1  0  0  0  0
 11 17  2  0  0  0  0
 11 12  1  0  0  0  0
 12 13  1  0  0  0  0
 12 14  2  0  0  0  0
 14 15  1  0  0  0  0
 15 16  2  0  0  0  0
 16 17  1  0  0  0  0
 17 18  1  0  0  0  0
 18 19  1  0  0  0  0
  3 20  1  0  0  0  0
 20 21  1  0  0  0  0
M  CHG  1   7   1
M  END
$$$$
s_22____4839448____575700
  -OEChem-03222016482D

 21 22  0     0  0  0  0  0  0999 V2000
   -1.7320   -0.0025    0.0000 C   0  0  0  0  0  0  0  0  0  0  0  0
   -0.8653   -0.5013    0.0000 O   0  0  0  0  0  0  0  0  0  0  0  0
    0.0000    0.0000    0.0000 C   0  0  0  0  0  0  0  0  0  0  0  0
   -0.0000    1.0058    0.0000 C   0  0  0  0  0  0  0  0  0  0  0  0
    0.8680    1.5138    0.0000 C   0  0  0  0  0  0  0  0  0  0  0  0
    1.7360    1.0058    0.0000 C   0  0  0  0  0  0  0  0  0  0  0  0
    1.7360   -0.0012    0.0000 C   0  0  0  0  0  0  0  0  0  0  0  0
    0.8680   -0.4978    0.0000 C   0  0  0  0  0  0  0  0  0  0  0  0
    2.6938   -0.3125    0.0000 C   0  0  0  0  0  0  0  0  0  0  0  0
    3.2858    0.5023    0.0000 C   0  0  0  0  0  0  0  0  0  0  0  0
    2.6938    1.3169    0.0000 N   0  0  0  0  0  0  0  0  0  0  0  0
    3.0028   -1.2636    0.0000 C   0  0  0  0  0  0  0  0  0  0  0  0
    3.9809   -1.4715    0.0000 C   0  0  0  0  0  0  0  0  0  0  0  0
    4.2899   -2.4226    0.0000 N   0  0  0  0  0  0  0  0  0  0  0  0
    5.2680   -2.6306    0.0000 C   0  0  0  0  0  0  0  0  0  0  0  0
    5.9372   -1.8874    0.0000 O   0  0  0  0  0  0  0  0  0  0  0  0
    5.5770   -3.5816    0.0000 C   0  0  0  0  0  0  0  0  0  0  0  0
    6.5551   -3.7896    0.0000 S   0  0  0  0  0  0  0  0  0  0  0  0
    6.8641   -4.7407    0.0000 C   0  0  0  0  0  0  0  0  0  0  0  0
    7.8422   -4.9486    0.0000 C   0  0  0  0  0  0  0  0  0  0  0  0
    8.8204   -5.1566    0.0000 N   0  0  0  0  0  0  0  0  0  0  0  0
  1  2  1  0  0  0  0
  2  3  1  0  0  0  0
  3  8  2  0  0  0  0
  3  4  1  0  0  0  0
  4  5  2  0  0  0  0
  5  6  1  0  0  0  0
  6 11  1  0  0  0  0
  6  7  2  0  0  0  0
  7  8  1  0  0  0  0
  7  9  1  0  0  0  0
  9 10  2  0  0  0  0
 10 11  1  0  0  0  0
  9 12  1  0  0  0  0
 12 13  1  0  0  0  0
 13 14  1  0  0  0  0
 14 15  1  0  0  0  0
 15 16  2  0  0  0  0
 15 17  1  0  0  0  0
 17 18  1  0  0  0  0
 18 19  1  0  0  0  0
 19 20  1  0  0  0  0
 20 21  3  0  0  0  0
M  END
$$$$
s_527a____153889____156097
  -OEChem-03222016482D

 17 18  0     0  0  0  0  0  0999 V2000
    6.8641   -4.7407    0.0000 C   0  0  0  0  0  0  0  0  0  0  0  0
    6.5551   -3.7896    0.0000 C   0  0  0  0  0  0  0  0  0  0  0  0
    5.5770   -3.5816    0.0000 C   0  0  0  0  0  0  0  0  0  0  0  0
    5.2680   -2.6306    0.0000 C   0  0  0  0  0  0  0  0  0  0  0  0
    5.9372   -1.8874    0.0000 O   0  0  0  0  0  0  0  0  0  0  0  0
    4.2899   -2.4226    0.0000 N   0  0  0  0  0  0  0  0  0  0  0  0
    3.9809   -1.4715    0.0000 C   0  0  0  0  0  0  0  0  0  0  0  0
    3.0028   -1.2636    0.0000 C   0  0  0  0  0  0  0  0  0  0  0  0
    2.6938   -0.3125    0.0000 C   0  0  0  0  0  0  0  0  0  0  0  0
    3.2858    0.5023    0.0000 C   0  0  0  0  0  0  0  0  0  0  0  0
    2.6938    1.3169    0.0000 N   0  0  0  0  0  0  0  0  0  0  0  0
    1.7360    1.0058    0.0000 C   0  0  0  0  0  0  0  0  0  0  0  0
    1.7360   -0.0012    0.0000 C   0  0  0  0  0  0  0  0  0  0  0  0
    0.8680   -0.4978    0.0000 C   0  0  0  0  0  0  0  0  0  0  0  0
    0.0000    0.0000    0.0000 C   0  0  0  0  0  0  0  0  0  0  0  0
   -0.0000    1.0058    0.0000 C   0  0  0  0  0  0  0  0  0  0  0  0
    0.8680    1.5138    0.0000 C   0  0  0  0  0  0  0  0  0  0  0  0
  1  2  1  0  0  0  0
  2  3  1  0  0  0  0
  3  4  1  0  0  0  0
  4  5  2  0  0  0  0
  4  6  1  0  0  0  0
  6  7  1  0  0  0  0
  7  8  1  0  0  0  0
  8  9  1  0  0  0  0
  9 13  1  0  0  0  0
  9 10  2  0  0  0  0
 10 11  1  0  0  0  0
 11 12  1  0  0  0  0
 12 17  2  0  0  0  0
 12 13  1  0  0  0  0
 13 14  2  0  0  0  0
 14 15  1  0  0  0  0
 15 16  2  0  0  0  0
 16 17  1  0  0  0  0
M  END
$$$$
s_22____9631354____337030
  -OEChem-03222016482D

 18 19  0     0  0  0  0  0  0999 V2000
    6.5551   -3.7896    0.0000 C   0  0  0  0  0  0  0  0  0  0  0  0
    5.5770   -3.5816    0.0000 C   0  0  0  0  0  0  0  0  0  0  0  0
    4.9078   -4.3247    0.0000 C   0  0  0  0  0  0  0  0  0  0  0  0
    5.2680   -2.6306    0.0000 C   0  0  0  0  0  0  0  0  0  0  0  0
    5.9372   -1.8874    0.0000 O   0  0  0  0  0  0  0  0  0  0  0  0
    4.2899   -2.4226    0.0000 N   0  0  0  0  0  0  0  0  0  0  0  0
    3.9809   -1.4715    0.0000 C   0  0  0  0  0  0  0  0  0  0  0  0
    3.0028   -1.2636    0.0000 C   0  0  0  0  0  0  0  0  0  0  0  0
    2.6938   -0.3125    0.0000 C   0  0  0  0  0  0  0  0  0  0  0  0
    3.2858    0.5023    0.0000 C   0  0  0  0  0  0  0  0  0  0  0  0
    2.6938    1.3169    0.0000 N   0  0  0  0  0  0  0  0  0  0  0  0
    1.7360    1.0058    0.0000 C   0  0  0  0  0  0  0  0  0  0  0  0
    1.7360   -0.0012    0.0000 C   0  0  0  0  0  0  0  0  0  0  0  0
    0.8680   -0.4978    0.0000 C   0  0  0  0  0  0  0  0  0  0  0  0
    0.0000    0.0000    0.0000 C   0  0  0  0  0  0  0  0  0  0  0  0
   -0.0000    1.0058    0.0000 C   0  0  0  0  0  0  0  0  0  0  0  0
    0.8680    1.5138    0.0000 C   0  0  0  0  0  0  0  0  0  0  0  0
   -0.8653   -0.5013    0.0000 F   0  0  0  0  0  0  0  0  0  0  0  0
  1  2  1  0  0  0  0
  2  3  1  0  0  0  0
  2  4  1  0  0  0  0
  4  5  2  0  0  0  0
  4  6  1  0  0  0  0
  6  7  1  0  0  0  0
  7  8  1  0  0  0  0
  8  9  1  0  0  0  0
  9 13  1  0  0  0  0
  9 10  2  0  0  0  0
 10 11  1  0  0  0  0
 11 12  1  0  0  0  0
 12 17  2  0  0  0  0
 12 13  1  0  0  0  0
 13 14  2  0  0  0  0
 14 15  1  0  0  0  0
 15 16  2  0  0  0  0
 16 17  1  0  0  0  0
 15 18  1  0  0  0  0
M  END
$$$$
s_22____13978824____294126
  -OEChem-03222016482D

 21 22  0     0  0  0  0  0  0999 V2000
    0.9440   -6.1382    0.0000 C   0  0  0  0  0  0  0  0  0  0  0  0
    1.6132   -5.3951    0.0000 C   0  0  0  0  0  0  0  0  0  0  0  0
    0.8701   -4.7259    0.0000 C   0  0  0  0  0  0  0  0  0  0  0  0
    2.3563   -6.0642    0.0000 C   0  0  0  0  0  0  0  0  0  0  0  0
    2.2824   -4.6519    0.0000 C   0  0  0  0  0  0  0  0  0  0  0  0
    1.9734   -3.7009    0.0000 C   0  0  0  0  0  0  0  0  0  0  0  0
    0.9953   -3.4929    0.0000 O   0  0  0  0  0  0  0  0  0  0  0  0
    2.6426   -2.9578    0.0000 N   0  0  0  0  0  0  0  0  0  0  0  0
    2.3336   -2.0067    0.0000 C   0  0  0  0  0  0  0  0  0  0  0  0
    3.0028   -1.2636    0.0000 C   0  0  0  0  0  0  0  0  0  0  0  0
    2.6938   -0.3125    0.0000 C   0  0  0  0  0  0  0  0  0  0  0  0
    3.2858    0.5023    0.0000 C   0  0  0  0  0  0  0  0  0  0  0  0
    2.6938    1.3169    0.0000 N   0  0  0  0  0  0  0  0  0  0  0  0
    1.7360    1.0058    0.0000 C   0  0  0  0  0  0  0  0  0  0  0  0
    1.7360   -0.0012    0.0000 C   0  0  0  0  0  0  0  0  0  0  0  0
    0.8680   -0.4978    0.0000 C   0  0  0  0  0  0  0  0  0  0  0  0
    0.0000    0.0000    0.0000 C   0  0  0  0  0  0  0  0  0  0  0  0
   -0.0000    1.0058    0.0000 C   0  0  0  0  0  0  0  0  0  0  0  0
    0.8680    1.5138    0.0000 C   0  0  0  0  0  0  0  0  0  0  0  0
   -0.8675    1.5032    0.0000 O   0  0  0  0  0  0  0  0  0  0  0  0
   -1.7320    1.0007    0.0000 C   0  0  0  0  0  0  0  0  0  0  0  0
  1  2  1  0  0  0  0
  2  3  1  0  0  0  0
  2  4  1  0  0  0  0
  2  5  1  0  0  0  0
  5  6  1  0  0  0  0
  6  7  2  0  0  0  0
  6  8  1  0  0  0  0
  8  9  1  0  0  0  0
  9 10  1  0  0  0  0
 10 11  1  0  0  0  0
 11 15  1  0  0  0  0
 11 12  2  0  0  0  0
 12 13  1  0  0  0  0
 13 14  1  0  0  0  0
 14 19  2  0  0  0  0
 14 15  1  0  0  0  0
 15 16  2  0  0  0  0
 16 17  1  0  0  0  0
 17 18  2  0  0  0  0
 18 19  1  0  0  0  0
 18 20  1  0  0  0  0
 20 21  1  0  0  0  0
M  END
$$$$
s_22____15506616____4970170
  -OEChem-03222016482D

 21 23  0     0  0  0  0  0  0999 V2000
    1.7340    3.0138    0.0000 C   0  0  0  0  0  0  0  0  0  0  0  0
    0.8680    2.5138    0.0000 O   0  0  0  0  0  0  0  0  0  0  0  0
    0.8680    1.5138    0.0000 C   0  0  0  0  0  0  0  0  0  0  0  0
    0.0000    1.0058    0.0000 C   0  0  0  0  0  0  0  0  0  0  0  0
    0.0000    0.0000    0.0000 C   0  0  0  0  0  0  0  0  0  0  0  0
    0.8680   -0.4978    0.0000 C   0  0  0  0  0  0  0  0  0  0  0  0
    1.7360   -0.0012    0.0000 C   0  0  0  0  0  0  0  0  0  0  0  0
    1.7360    1.0058    0.0000 C   0  0  0  0  0  0  0  0  0  0  0  0
    2.6938    1.3169    0.0000 N   0  0  0  0  0  0  0  0  0  0  0  0
    3.2858    0.5023    0.0000 C   0  0  0  0  0  0  0  0  0  0  0  0
    2.6938   -0.3125    0.0000 C   0  0  0  0  0  0  0  0  0  0  0  0
    3.0028   -1.2636    0.0000 C   0  0  0  0  0  0  0  0  0  0  0  0
    3.9809   -1.4715    0.0000 C   0  0  0  0  0  0  0  0  0  0  0  0
    4.2899   -2.4226    0.0000 N   0  0  0  0  0  0  0  0  0  0  0  0
    5.2680   -2.6306    0.0000 C   0  0  0  0  0  0  0  0  0  0  0  0
    5.9372   -1.8874    0.0000 O   0  0  0  0  0  0  0  0  0  0  0  0
    5.5770   -3.5816    0.0000 C   0  0  0  0  0  0  0  0  0  0  0  0
    6.5551   -3.7896    0.0000 C   0  0  0  0  0  0  0  0  0  0  0  0
    6.8641   -4.7407    0.0000 C   0  0  0  0  0  0  0  0  0  0  0  0
    6.6568   -5.7209    0.0000 C   0  0  0  0  0  0  0  0  0  0  0  0
    7.6079   -5.4119    0.0000 C   0  0  0  0  0  0  0  0  0  0  0  0
  1  2  1  0  0  0  0
  2  3  1  0  0  0  0
  3  8  2  0  0  0  0
  3  4  1  0  0  0  0
  4  5  2  0  0  0  0
  5  6  1  0  0  0  0
  6  7  2  0  0  0  0
  7 11  1  0  0  0  0
  7  8  1  0  0  0  0
  8  9  1  0  0  0  0
  9 10  1  0  0  0  0
 10 11  2  0  0  0  0
 11 12  1  0  0  0  0
 12 13  1  0  0  0  0
 13 14  1  0  0  0  0
 14 15  1  0  0  0  0
 15 16  2  0  0  0  0
 15 17  1  0  0  0  0
 17 18  1  0  0  0  0
 18 19  1  0  0  0  0
 19 21  1  0  0  0  0
 19 20  1  0  0  0  0
 20 21  1  0  0  0  0
M  END
$$$$
s_22____13913040____58866
  -OEChem-03222016482D

 19 20  0     1  0  0  0  0  0999 V2000
    6.8641   -4.7407    0.0000 C   0  0  0  0  0  0  0  0  0  0  0  0
    6.5551   -3.7896    0.0000 C   0  0  0  0  0  0  0  0  0  0  0  0
    5.5770   -3.5816    0.0000 C   0  0  0  0  0  0  0  0  0  0  0  0
    5.2680   -2.6306    0.0000 C   0  0  0  0  0  0  0  0  0  0  0  0
    5.9372   -1.8874    0.0000 O   0  0  0  0  0  0  0  0  0  0  0  0
    4.2899   -2.4226    0.0000 N   0  0  0  0  0  0  0  0  0  0  0  0
    3.9809   -1.4715    0.0000 C   0  0  3  0  0  0  0  0  0  0  0  0
    4.6501   -0.7284    0.0000 C   0  0  0  0  0  0  0  0  0  0  0  0
    3.0028   -1.2636    0.0000 C   0  0  0  0  0  0  0  0  0  0  0  0
    2.6938   -0.3125    0.0000 C   0  0  0  0  0  0  0  0  0  0  0  0
    3.2858    0.5023    0.0000 C   0  0  0  0  0  0  0  0  0  0  0  0
    2.6938    1.3169    0.0000 N   0  0  0  0  0  0  0  0  0  0  0  0
    1.7360    1.0058    0.0000 C   0  0  0  0  0  0  0  0  0  0  0  0
    1.7360   -0.0012    0.0000 C   0  0  0  0  0  0  0  0  0  0  0  0
    0.8680   -0.4978    0.0000 C   0  0  0  0  0  0  0  0  0  0  0  0
    0.0000    0.0000    0.0000 C   0  0  0  0  0  0  0  0  0  0  0  0
   -0.0000    1.0058    0.0000 C   0  0  0  0  0  0  0  0  0  0  0  0
    0.8680    1.5138    0.0000 C   0  0  0  0  0  0  0  0  0  0  0  0
   -0.8653   -0.5013    0.0000 F   0  0  0  0  0  0  0  0  0  0  0  0
  1  2  1  0  0  0  0
  2  3  1  0  0  0  0
  3  4  1  0  0  0  0
  4  5  2  0  0  0  0
  4  6  1  0  0  0  0
  6  7  1  0  0  0  0
  7  8  1  0  0  0  0
  7  9  1  0  0  0  0
  9 10  1  0  0  0  0
 10 14  1  0  0  0  0
 10 11  2  0  0  0  0
 11 12  1  0  0  0  0
 12 13  1  0  0  0  0
 13 18  2  0  0  0  0
 13 14  1  0  0  0  0
 14 15  2  0  0  0  0
 15 16  1  0  0  0  0
 16 17  2  0  0  0  0
 17 18  1  0  0  0  0
 16 19  1  0  0  0  0
M  END
$$$$
s_22____6079110____60364
  -OEChem-03222016482D

 18 19  0     0  0  0  0  0  0999 V2000
    6.8641   -4.7407    0.0000 C   0  0  0  0  0  0  0  0  0  0  0  0
    6.5551   -3.7896    0.0000 S   0  0  0  0  0  0  0  0  0  0  0  0
    5.5770   -3.5816    0.0000 C   0  0  0  0  0  0  0  0  0  0  0  0
    5.2680   -2.6306    0.0000 C   0  0  0  0  0  0  0  0  0  0  0  0
    5.9372   -1.8874    0.0000 O   0  0  0  0  0  0  0  0  0  0  0  0
    4.2899   -2.4226    0.0000 N   0  0  0  0  0  0  0  0  0  0  0  0
    3.9809   -1.4715    0.0000 C   0  0  0  0  0  0  0  0  0  0  0  0
    3.0028   -1.2636    0.0000 C   0  0  0  0  0  0  0  0  0  0  0  0
    2.6938   -0.3125    0.0000 C   0  0  0  0  0  0  0  0  0  0  0  0
    3.2858    0.5023    0.0000 C   0  0  0  0  0  0  0  0  0  0  0  0
    2.6938    1.3169    0.0000 N   0  0  0  0  0  0  0  0  0  0  0  0
    1.7360    1.0058    0.0000 C   0  0  0  0  0  0  0  0  0  0  0  0
    1.7360   -0.0012    0.0000 C   0  0  0  0  0  0  0  0  0  0  0  0
    0.8680   -0.4978    0.0000 C   0  0  0  0  0  0  0  0  0  0  0  0
    0.0000    0.0000    0.0000 C   0  0  0  0  0  0  0  0  0  0  0  0
   -0.0000    1.0058    0.0000 C   0  0  0  0  0  0  0  0  0  0  0  0
    0.8680    1.5138    0.0000 C   0  0  0  0  0  0  0  0  0  0  0  0
   -0.8653   -0.5013    0.0000 Cl  0  0  0  0  0  0  0  0  0  0  0  0
  1  2  1  0  0  0  0
  2  3  1  0  0  0  0
  3  4  1  0  0  0  0
  4  5  2  0  0  0  0
  4  6  1  0  0  0  0
  6  7  1  0  0  0  0
  7  8  1  0  0  0  0
  8  9  1  0  0  0  0
  9 13  1  0  0  0  0
  9 10  2  0  0  0  0
 10 11  1  0  0  0  0
 11 12  1  0  0  0  0
 12 17  2  0  0  0  0
 12 13  1  0  0  0  0
 13 14  2  0  0  0  0
 14 15  1  0  0  0  0
 15 16  2  0  0  0  0
 16 17  1  0  0  0  0
 15 18  1  0  0  0  0
M  END
$$$$
s_22____6079110____337030
  -OEChem-03222016482D

 18 19  0     0  0  0  0  0  0999 V2000
    6.5551   -3.7896    0.0000 C   0  0  0  0  0  0  0  0  0  0  0  0
    5.5770   -3.5816    0.0000 C   0  0  0  0  0  0  0  0  0  0  0  0
    4.9078   -4.3247    0.0000 C   0  0  0  0  0  0  0  0  0  0  0  0
    5.2680   -2.6306    0.0000 C   0  0  0  0  0  0  0  0  0  0  0  0
    5.9372   -1.8874    0.0000 O   0  0  0  0  0  0  0  0  0  0  0  0
    4.2899   -2.4226    0.0000 N   0  0  0  0  0  0  0  0  0  0  0  0
    3.9809   -1.4715    0.0000 C   0  0  0  0  0  0  0  0  0  0  0  0
    3.0028   -1.2636    0.0000 C   0  0  0  0  0  0  0  0  0  0  0  0
    2.6938   -0.3125    0.0000 C   0  0  0  0  0  0  0  0  0  0  0  0
    3.2858    0.5023    0.0000 C   0  0  0  0  0  0  0  0  0  0  0  0
    2.6938    1.3169    0.0000 N   0  0  0  0  0  0  0  0  0  0  0  0
    1.7360    1.0058    0.0000 C   0  0  0  0  0  0  0  0  0  0  0  0
    1.7360   -0.0012    0.0000 C   0  0  0  0  0  0  0  0  0  0  0  0
    0.8680   -0.4978    0.0000 C   0  0  0  0  0  0  0  0  0  0  0  0
    0.0000    0.0000    0.0000 C   0  0  0  0  0  0  0  0  0  0  0  0
   -0.0000    1.0058    0.0000 C   0  0  0  0  0  0  0  0  0  0  0  0
    0.8680    1.5138    0.0000 C   0  0  0  0  0  0  0  0  0  0  0  0
   -0.8653   -0.5013    0.0000 Cl  0  0  0  0  0  0  0  0  0  0  0  0
  1  2  1  0  0  0  0
  2  3  1  0  0  0  0
  2  4  1  0  0  0  0
  4  5  2  0  0  0  0
  4  6  1  0  0  0  0
  6  7  1  0  0  0  0
  7  8  1  0  0  0  0
  8  9  1  0  0  0  0
  9 13  1  0  0  0  0
  9 10  2  0  0  0  0
 10 11  1  0  0  0  0
 11 12  1  0  0  0  0
 12 17  2  0  0  0  0
 12 13  1  0  0  0  0
 13 14  2  0  0  0  0
 14 15  1  0  0  0  0
 15 16  2  0  0  0  0
 16 17  1  0  0  0  0
 15 18  1  0  0  0  0
M  END
$$$$
s_22____16720536____58866
  -OEChem-03222016482D

 18 19  0     0  0  0  0  0  0999 V2000
    6.8641   -4.7407    0.0000 C   0  0  0  0  0  0  0  0  0  0  0  0
    6.5551   -3.7896    0.0000 C   0  0  0  0  0  0  0  0  0  0  0  0
    5.5770   -3.5816    0.0000 C   0  0  0  0  0  0  0  0  0  0  0  0
    5.2680   -2.6306    0.0000 C   0  0  0  0  0  0  0  0  0  0  0  0
    5.9372   -1.8874    0.0000 O   0  0  0  0  0  0  0  0  0  0  0  0
    4.2899   -2.4226    0.0000 N   0  0  0  0  0  0  0  0  0  0  0  0
    3.9809   -1.4715    0.0000 C   0  0  0  0  0  0  0  0  0  0  0  0
    3.0028   -1.2636    0.0000 C   0  0  0  0  0  0  0  0  0  0  0  0
    2.6938   -0.3125    0.0000 C   0  0  0  0  0  0  0  0  0  0  0  0
    3.2858    0.5023    0.0000 C   0  0  0  0  0  0  0  0  0  0  0  0
    2.6938    1.3169    0.0000 N   0  0  0  0  0  0  0  0  0  0  0  0
    1.7360    1.0058    0.0000 C   0  0  0  0  0  0  0  0  0  0  0  0
    1.7360   -0.0012    0.0000 C   0  0  0  0  0  0  0  0  0  0  0  0
    0.8680   -0.4978    0.0000 C   0  0  0  0  0  0  0  0  0  0  0  0
    0.0000    0.0000    0.0000 C   0  0  0  0  0  0  0  0  0  0  0  0
   -0.0000    1.0058    0.0000 C   0  0  0  0  0  0  0  0  0  0  0  0
    0.8680    1.5138    0.0000 C   0  0  0  0  0  0  0  0  0  0  0  0
    0.8680    2.5138    0.0000 Br  0  0  0  0  0  0  0  0  0  0  0  0
  1  2  1  0  0  0  0
  2  3  1  0  0  0  0
  3  4  1  0  0  0  0
  4  5  2  0  0  0  0
  4  6  1  0  0  0  0
  6  7  1  0  0  0  0
  7  8  1  0  0  0  0
  8  9  1  0  0  0  0
  9 13  1  0  0  0  0
  9 10  2  0  0  0  0
 10 11  1  0  0  0  0
 11 12  1  0  0  0  0
 12 17  2  0  0  0  0
 12 13  1  0  0  0  0
 13 14  2  0  0  0  0
 14 15  1  0  0  0  0
 15 16  2  0  0  0  0
 16 17  1  0  0  0  0
 17 18  1  0  0  0  0
M  END
$$$$
s_22____6079110____8794444
  -OEChem-03222016482D

 18 19  0     0  0  0  0  0  0999 V2000
   -0.0000    1.0058    0.0000 C   0  0  0  0  0  0  0  0  0  0  0  0
    0.8680    1.5138    0.0000 C   0  0  0  0  0  0  0  0  0  0  0  0
    1.7360    1.0058    0.0000 C   0  0  0  0  0  0  0  0  0  0  0  0
    1.7360   -0.0012    0.0000 C   0  0  0  0  0  0  0  0  0  0  0  0
    0.8680   -0.4978    0.0000 C   0  0  0  0  0  0  0  0  0  0  0  0
    0.0000    0.0000    0.0000 C   0  0  0  0  0  0  0  0  0  0  0  0
   -0.8653   -0.5013    0.0000 Cl  0  0  0  0  0  0  0  0  0  0  0  0
    2.6938   -0.3125    0.0000 C   0  0  0  0  0  0  0  0  0  0  0  0
    3.2858    0.5023    0.0000 C   0  0  0  0  0  0  0  0  0  0  0  0
    2.6938    1.3169    0.0000 N   0  0  0  0  0  0  0  0  0  0  0  0
    3.0028   -1.2636    0.0000 C   0  0  0  0  0  0  0  0  0  0  0  0
    3.9809   -1.4715    0.0000 C   0  0  0  0  0  0  0  0  0  0  0  0
    4.2899   -2.4226    0.0000 N   0  0  0  0  0  0  0  0  0  0  0  0
    5.2680   -2.6306    0.0000 C   0  0  0  0  0  0  0  0  0  0  0  0
    5.9372   -1.8874    0.0000 O   0  0  0  0  0  0  0  0  0  0  0  0
    5.5770   -3.5816    0.0000 C   0  0  0  0  0  0  0  0  0  0  0  0
    6.5551   -3.7896    0.0000 C   0  0  0  0  0  0  0  0  0  0  0  0
    7.5333   -3.9976    0.0000 N   0  0  0  0  0  0  0  0  0  0  0  0
  1  6  2  0  0  0  0
  1  2  1  0  0  0  0
  2  3  2  0  0  0  0
  3 10  1  0  0  0  0
  3  4  1  0  0  0  0
  4  5  2  0  0  0  0
  5  6  1  0  0  0  0
  6  7  1  0  0  0  0
  4  8  1  0  0  0  0
  8  9  2  0  0  0  0
  9 10  1  0  0  0  0
  8 11  1  0  0  0  0
 11 12  1  0  0  0  0
 12 13  1  0  0  0  0
 13 14  1  0  0  0  0
 14 15  2  0  0  0  0
 14 16  1  0  0  0  0
 16 17  1  0  0  0  0
 17 18  3  0  0  0  0
M  END
$$$$
s_22____13913040____9296322
  -OEChem-03222016482D

 19 20  0     1  0  0  0  0  0999 V2000
    6.1949   -5.4838    0.0000 C   0  0  0  0  0  0  0  0  0  0  0  0
    5.8860   -4.5327    0.0000 C   0  0  0  0  0  0  0  0  0  0  0  0
    5.5770   -3.5816    0.0000 C   0  0  0  0  0  0  0  0  0  0  0  0
    5.2680   -2.6306    0.0000 C   0  0  0  0  0  0  0  0  0  0  0  0
    5.9372   -1.8874    0.0000 O   0  0  0  0  0  0  0  0  0  0  0  0
    4.2899   -2.4226    0.0000 N   0  0  0  0  0  0  0  0  0  0  0  0
    3.9809   -1.4715    0.0000 C   0  0  3  0  0  0  0  0  0  0  0  0
    4.6501   -0.7284    0.0000 C   0  0  0  0  0  0  0  0  0  0  0  0
    3.0028   -1.2636    0.0000 C   0  0  0  0  0  0  0  0  0  0  0  0
    2.6938   -0.3125    0.0000 C   0  0  0  0  0  0  0  0  0  0  0  0
    3.2858    0.5023    0.0000 C   0  0  0  0  0  0  0  0  0  0  0  0
    2.6938    1.3169    0.0000 N   0  0  0  0  0  0  0  0  0  0  0  0
    1.7360    1.0058    0.0000 C   0  0  0  0  0  0  0  0  0  0  0  0
    1.7360   -0.0012    0.0000 C   0  0  0  0  0  0  0  0  0  0  0  0
    0.8680   -0.4978    0.0000 C   0  0  0  0  0  0  0  0  0  0  0  0
    0.0000    0.0000    0.0000 C   0  0  0  0  0  0  0  0  0  0  0  0
   -0.0000    1.0058    0.0000 C   0  0  0  0  0  0  0  0  0  0  0  0
    0.8680    1.5138    0.0000 C   0  0  0  0  0  0  0  0  0  0  0  0
   -0.8653   -0.5013    0.0000 F   0  0  0  0  0  0  0  0  0  0  0  0
  1  2  1  0  0  0  0
  2  3  3  0  0  0  0
  3  4  1  0  0  0  0
  4  5  2  0  0  0  0
  4  6  1  0  0  0  0
  6  7  1  0  0  0  0
  7  8  1  0  0  0  0
  7  9  1  0  0  0  0
  9 10  1  0  0  0  0
 10 14  1  0  0  0  0
 10 11  2  0  0  0  0
 11 12  1  0  0  0  0
 12 13  1  0  0  0  0
 13 18  2  0  0  0  0
 13 14  1  0  0  0  0
 14 15  2  0  0  0  0
 15 16  1  0  0  0  0
 16 17  2  0  0  0  0
 17 18  1  0  0  0  0
 16 19  1  0  0  0  0
M  END
$$$$
s_22____13596594____7941096
  -OEChem-03222016482D

 17 18  0     1  0  0  0  0  0999 V2000
    4.9299   -4.2998    0.0000 C   0  0  0  0  0  0  0  0  0  0  0  0
    5.5950   -3.5530    0.0000 C   0  0  3  0  0  0  0  0  0  0  0  0
    5.2808   -2.6037    0.0000 C   0  0  0  0  0  0  0  0  0  0  0  0
    5.9459   -1.8569    0.0000 O   0  0  0  0  0  0  0  0  0  0  0  0
    4.3016   -2.4011    0.0000 N   0  0  0  0  0  0  0  0  0  0  0  0
    3.9874   -1.4517    0.0000 C   0  0  0  0  0  0  0  0  0  0  0  0
    3.0082   -1.2491    0.0000 C   0  0  0  0  0  0  0  0  0  0  0  0
    2.6940   -0.2997    0.0000 C   0  0  0  0  0  0  0  0  0  0  0  0
    3.2780    0.5133    0.0000 C   0  0  0  0  0  0  0  0  0  0  0  0
    2.6851    1.3196    0.0000 N   0  0  0  0  0  0  0  0  0  0  0  0
    1.7350    1.0052    0.0000 C   0  0  0  0  0  0  0  0  0  0  0  0
    1.7405    0.0044    0.0000 C   0  0  0  0  0  0  0  0  0  0  0  0
    0.8675   -0.4975    0.0000 C   0  0  0  0  0  0  0  0  0  0  0  0
    0.0000    0.0000    0.0000 C   0  0  0  0  0  0  0  0  0  0  0  0
   -0.0000    1.0052    0.0000 C   0  0  0  0  0  0  0  0  0  0  0  0
    0.8675    1.5129    0.0000 N   0  0  0  0  0  0  0  0  0  0  0  0
    6.5743   -3.7557    0.0000 O   0  0  0  0  0  0  0  0  0  0  0  0
  1  2  1  0  0  0  0
  2  3  1  0  0  0  0
  3  4  2  0  0  0  0
  3  5  1  0  0  0  0
  5  6  1  0  0  0  0
  6  7  1  0  0  0  0
  7  8  1  0  0  0  0
  8 12  1  0  0  0  0
  8  9  2  0  0  0  0
  9 10  1  0  0  0  0
 10 11  1  0  0  0  0
 11 16  2  0  0  0  0
 11 12  1  0  0  0  0
 12 13  2  0  0  0  0
 13 14  1  0  0  0  0
 14 15  2  0  0  0  0
 15 16  1  0  0  0  0
  2 17  1  0  0  0  0
M  END
$$$$
s_273270____16383058____10884640
  -OEChem-03222016482D

 19 20  0     0  0  0  0  0  0999 V2000
    1.7327   -2.9983    0.0000 C   0  0  0  0  0  0  0  0  0  0  0  0
    1.7332   -1.9983    0.0000 C   0  0  0  0  0  0  0  0  0  0  0  0
    0.8675   -1.4978    0.0000 O   0  0  0  0  0  0  0  0  0  0  0  0
    0.8680   -0.4978    0.0000 C   0  0  0  0  0  0  0  0  0  0  0  0
    0.0000    0.0000    0.0000 C   0  0  0  0  0  0  0  0  0  0  0  0
   -0.0000    1.0058    0.0000 C   0  0  0  0  0  0  0  0  0  0  0  0
    0.8680    1.5138    0.0000 C   0  0  0  0  0  0  0  0  0  0  0  0
    1.7360    1.0058    0.0000 C   0  0  0  0  0  0  0  0  0  0  0  0
    1.7360   -0.0012    0.0000 C   0  0  0  0  0  0  0  0  0  0  0  0
    2.6938   -0.3125    0.0000 C   0  0  0  0  0  0  0  0  0  0  0  0
    3.2858    0.5023    0.0000 C   0  0  0  0  0  0  0  0  0  0  0  0
    2.6938    1.3169    0.0000 N   0  0  0  0  0  0  0  0  0  0  0  0
    3.0028   -1.2636    0.0000 C   0  0  0  0  0  0  0  0  0  0  0  0
    3.9809   -1.4715    0.0000 C   0  0  0  0  0  0  0  0  0  0  0  0
    4.2899   -2.4226    0.0000 N   0  0  0  0  0  0  0  0  0  0  0  0
    5.2680   -2.6306    0.0000 C   0  0  0  0  0  0  0  0  0  0  0  0
    5.9372   -1.8874    0.0000 O   0  0  0  0  0  0  0  0  0  0  0  0
    5.5770   -3.5816    0.0000 C   0  0  0  0  0  0  0  0  0  0  0  0
    6.5551   -3.7896    0.0000 C   0  0  0  0  0  0  0  0  0  0  0  0
  1  2  1  0  0  0  0
  2  3  1  0  0  0  0
  3  4  1  0  0  0  0
  4  9  2  0  0  0  0
  4  5  1  0  0  0  0
  5  6  2  0  0  0  0
  6  7  1  0  0  0  0
  7  8  2  0  0  0  0
  8 12  1  0  0  0  0
  8  9  1  0  0  0  0
  9 10  1  0  0  0  0
 10 11  2  0  0  0  0
 11 12  1  0  0  0  0
 10 13  1  0  0  0  0
 13 14  1  0  0  0  0
 14 15  1  0  0  0  0
 15 16  1  0  0  0  0
 16 17  2  0  0  0  0
 16 18  1  0  0  0  0
 18 19  2  0  0  0  0
M  END
$$$$
s_22____13025516____12105272
  -OEChem-03222016482D

 20 21  0     0  0  0  0  0  0999 V2000
    0.0012   -1.9973    0.0000 C   0  0  0  0  0  0  0  0  0  0  0  0
    0.8675   -1.4978    0.0000 O   0  0  0  0  0  0  0  0  0  0  0  0
    0.8680   -0.4978    0.0000 C   0  0  0  0  0  0  0  0  0  0  0  0
    0.0000    0.0000    0.0000 C   0  0  0  0  0  0  0  0  0  0  0  0
   -0.0000    1.0058    0.0000 C   0  0  0  0  0  0  0  0  0  0  0  0
    0.8680    1.5138    0.0000 C   0  0  0  0  0  0  0  0  0  0  0  0
    1.7360    1.0058    0.0000 C   0  0  0  0  0  0  0  0  0  0  0  0
    1.7360   -0.0012    0.0000 C   0  0  0  0  0  0  0  0  0  0  0  0
    2.6938   -0.3125    0.0000 C   0  0  0  0  0  0  0  0  0  0  0  0
    3.2858    0.5023    0.0000 C   0  0  0  0  0  0  0  0  0  0  0  0
    2.6938    1.3169    0.0000 N   0  0  0  0  0  0  0  0  0  0  0  0
    3.0028   -1.2636    0.0000 C   0  0  0  0  0  0  0  0  0  0  0  0
    3.9809   -1.4715    0.0000 C   0  0  0  0  0  0  0  0  0  0  0  0
    4.2899   -2.4226    0.0000 N   0  0  0  0  0  0  0  0  0  0  0  0
    5.2680   -2.6306    0.0000 C   0  0  0  0  0  0  0  0  0  0  0  0
    5.9372   -1.8874    0.0000 O   0  0  0  0  0  0  0  0  0  0  0  0
    5.5770   -3.5816    0.0000 C   0  0  0  0  0  0  0  0  0  0  0  0
    6.5551   -3.7896    0.0000 C   0  0  0  0  0  0  0  0  0  0  0  0
    6.8641   -4.7407    0.0000 C   0  0  0  0  0  0  0  0  0  0  0  0
    7.8422   -4.9486    0.0000 F   0  0  0  0  0  0  0  0  0  0  0  0
  1  2  1  0  0  0  0
  2  3  1  0  0  0  0
  3  8  2  0  0  0  0
  3  4  1  0  0  0  0
  4  5  2  0  0  0  0
  5  6  1  0  0  0  0
  6  7  2  0  0  0  0
  7 11  1  0  0  0  0
  7  8  1  0  0  0  0
  8  9  1  0  0  0  0
  9 10  2  0  0  0  0
 10 11  1  0  0  0  0
  9 12  1  0  0  0  0
 12 13  1  0  0  0  0
 13 14  1  0  0  0  0
 14 15  1  0  0  0  0
 15 16  2  0  0  0  0
 15 17  1  0  0  0  0
 17 18  1  0  0  0  0
 18 19  1  0  0  0  0
 19 20  1  0  0  0  0
M  END
$$$$
s_22____16900452____58887
  -OEChem-03222016482D

 17 18  0     0  0  0  0  0  0999 V2000
    1.6132   -5.3951    0.0000 C   0  0  0  0  0  0  0  0  0  0  0  0
    2.2824   -4.6519    0.0000 C   0  0  0  0  0  0  0  0  0  0  0  0
    1.9734   -3.7009    0.0000 C   0  0  0  0  0  0  0  0  0  0  0  0
    0.9953   -3.4929    0.0000 O   0  0  0  0  0  0  0  0  0  0  0  0
    2.6426   -2.9578    0.0000 N   0  0  0  0  0  0  0  0  0  0  0  0
    2.3336   -2.0067    0.0000 C   0  0  0  0  0  0  0  0  0  0  0  0
    3.0028   -1.2636    0.0000 C   0  0  0  0  0  0  0  0  0  0  0  0
    2.6938   -0.3125    0.0000 C   0  0  0  0  0  0  0  0  0  0  0  0
    3.2858    0.5023    0.0000 C   0  0  0  0  0  0  0  0  0  0  0  0
    2.6938    1.3169    0.0000 N   0  0  0  0  0  0  0  0  0  0  0  0
    1.7360    1.0058    0.0000 C   0  0  0  0  0  0  0  0  0  0  0  0
    1.7360   -0.0012    0.0000 C   0  0  0  0  0  0  0  0  0  0  0  0
    0.8680   -0.4978    0.0000 C   0  0  0  0  0  0  0  0  0  0  0  0
    0.0000    0.0000    0.0000 C   0  0  0  0  0  0  0  0  0  0  0  0
   -0.0000    1.0058    0.0000 C   0  0  0  0  0  0  0  0  0  0  0  0
    0.8680    1.5138    0.0000 C   0  0  0  0  0  0  0  0  0  0  0  0
    0.8675   -1.4978    0.0000 F   0  0  0  0  0  0  0  0  0  0  0  0
  1  2  1  0  0  0  0
  2  3  1  0  0  0  0
  3  4  2  0  0  0  0
  3  5  1  0  0  0  0
  5  6  1  0  0  0  0
  6  7  1  0  0  0  0
  7  8  1  0  0  0  0
  8 12  1  0  0  0  0
  8  9  2  0  0  0  0
  9 10  1  0  0  0  0
 10 11  1  0  0  0  0
 11 16  2  0  0  0  0
 11 12  1  0  0  0  0
 12 13  2  0  0  0  0
 13 14  1  0  0  0  0
 14 15  2  0  0  0  0
 15 16  1  0  0  0  0
 13 17  1  0  0  0  0
M  END
$$$$
s_270062____15507212____15585492
  -OEChem-03222016482D

 18 19  0     0  0  0  0  0  0999 V2000
   -0.8675    1.5032    0.0000 C   0  0  0  0  0  0  0  0  0  0  0  0
    0.0000    1.0058    0.0000 C   0  0  0  0  0  0  0  0  0  0  0  0
    0.0000    0.0000    0.0000 C   0  0  0  0  0  0  0  0  0  0  0  0
    0.8680   -0.4978    0.0000 C   0  0  0  0  0  0  0  0  0  0  0  0
    1.7360   -0.0012    0.0000 C   0  0  0  0  0  0  0  0  0  0  0  0
    1.7360    1.0058    0.0000 C   0  0  0  0  0  0  0  0  0  0  0  0
    0.8680    1.5138    0.0000 C   0  0  0  0  0  0  0  0  0  0  0  0
    2.6938    1.3169    0.0000 N   0  0  0  0  0  0  0  0  0  0  0  0
    3.2858    0.5023    0.0000 C   0  0  0  0  0  0  0  0  0  0  0  0
    2.6938   -0.3125    0.0000 C   0  0  0  0  0  0  0  0  0  0  0  0
    3.0028   -1.2636    0.0000 C   0  0  0  0  0  0  0  0  0  0  0  0
    3.9809   -1.4715    0.0000 C   0  0  0  0  0  0  0  0  0  0  0  0
    4.1889   -0.4934    0.0000 C   0  0  0  0  0  0  0  0  0  0  0  0
    3.7729   -2.4497    0.0000 C   0  0  0  0  0  0  0  0  0  0  0  0
    4.9590   -1.6795    0.0000 N   0  0  0  0  0  0  0  0  0  0  0  0
    5.6282   -0.9364    0.0000 C   0  0  0  0  0  0  0  0  0  0  0  0
    5.3192    0.0147    0.0000 O   0  0  0  0  0  0  0  0  0  0  0  0
    6.6064   -1.1443    0.0000 C   0  0  0  0  0  0  0  0  0  0  0  0
  1  2  1  0  0  0  0
  2  7  2  0  0  0  0
  2  3  1  0  0  0  0
  3  4  2  0  0  0  0
  4  5  1  0  0  0  0
  5 10  1  0  0  0  0
  5  6  2  0  0  0  0
  6  7  1  0  0  0  0
  6  8  1  0  0  0  0
  8  9  1  0  0  0  0
  9 10  2  0  0  0  0
 10 11  1  0  0  0  0
 11 12  1  0  0  0  0
 12 13  1  0  0  0  0
 12 14  1  0  0  0  0
 12 15  1  0  0  0  0
 15 16  1  0  0  0  0
 16 17  2  0  0  0  0
 16 18  1  0  0  0  0
M  END
$$$$
s_22____13978824____15789270
  -OEChem-03222016482D

 20 21  0     0  0  0  0  0  0999 V2000
   -0.8705    2.5032    0.0000 C   0  0  0  0  0  0  0  0  0  0  0  0
   -0.8675    1.5032    0.0000 O   0  0  0  0  0  0  0  0  0  0  0  0
    0.0000    1.0058    0.0000 C   0  0  0  0  0  0  0  0  0  0  0  0
    0.0000    0.0000    0.0000 C   0  0  0  0  0  0  0  0  0  0  0  0
    0.8680   -0.4978    0.0000 C   0  0  0  0  0  0  0  0  0  0  0  0
    1.7360   -0.0012    0.0000 C   0  0  0  0  0  0  0  0  0  0  0  0
    1.7360    1.0058    0.0000 C   0  0  0  0  0  0  0  0  0  0  0  0
    0.8680    1.5138    0.0000 C   0  0  0  0  0  0  0  0  0  0  0  0
    2.6938    1.3169    0.0000 N   0  0  0  0  0  0  0  0  0  0  0  0
    3.2858    0.5023    0.0000 C   0  0  0  0  0  0  0  0  0  0  0  0
    2.6938   -0.3125    0.0000 C   0  0  0  0  0  0  0  0  0  0  0  0
    3.0028   -1.2636    0.0000 C   0  0  0  0  0  0  0  0  0  0  0  0
    3.9809   -1.4715    0.0000 C   0  0  0  0  0  0  0  0  0  0  0  0
    4.2899   -2.4226    0.0000 N   0  0  0  0  0  0  0  0  0  0  0  0
    5.2680   -2.6306    0.0000 C   0  0  0  0  0  0  0  0  0  0  0  0
    5.9372   -1.8874    0.0000 O   0  0  0  0  0  0  0  0  0  0  0  0
    5.5770   -3.5816    0.0000 C   0  0  0  0  0  0  0  0  0  0  0  0
    6.5551   -3.7896    0.0000 N   0  0  0  0  0  0  0  0  0  0  0  0
    6.8641   -4.7407    0.0000 N   0  3  0  0  0  0  0  0  0  0  0  0
    7.1731   -5.6917    0.0000 N   0  5  0  0  0  0  0  0  0  0  0  0
  1  2  1  0  0  0  0
  2  3  1  0  0  0  0
  3  8  2  0  0  0  0
  3  4  1  0  0  0  0
  4  5  2  0  0  0  0
  5  6  1  0  0  0  0
  6 11  1  0  0  0  0
  6  7  2  0  0  0  0
  7  8  1  0  0  0  0
  7  9  1  0  0  0  0
  9 10  1  0  0  0  0
 10 11  2  0  0  0  0
 11 12  1  0  0  0  0
 12 13  1  0  0  0  0
 13 14  1  0  0  0  0
 14 15  1  0  0  0  0
 15 16  2  0  0  0  0
 15 17  1  0  0  0  0
 17 18  1  0  0  0  0
 18 19  2  0  0  0  0
 19 20  2  0  0  0  0
M  CHG  2  19   1  20  -1
M  END
$$$$
s_240690b____17027970____3025692
  -OEChem-03222016482D

 20 21  0     1  0  0  0  0  0999 V2000
    1.7327   -2.9983    0.0000 C   0  0  0  0  0  0  0  0  0  0  0  0
    1.7332   -1.9983    0.0000 C   0  0  0  0  0  0  0  0  0  0  0  0
    0.8675   -1.4978    0.0000 O   0  0  0  0  0  0  0  0  0  0  0  0
    0.8680   -0.4978    0.0000 C   0  0  0  0  0  0  0  0  0  0  0  0
    0.0000    0.0000    0.0000 C   0  0  0  0  0  0  0  0  0  0  0  0
   -0.0000    1.0058    0.0000 C   0  0  0  0  0  0  0  0  0  0  0  0
    0.8680    1.5138    0.0000 C   0  0  0  0  0  0  0  0  0  0  0  0
    1.7360    1.0058    0.0000 C   0  0  0  0  0  0  0  0  0  0  0  0
    1.7360   -0.0012    0.0000 C   0  0  0  0  0  0  0  0  0  0  0  0
    2.6938   -0.3125    0.0000 C   0  0  0  0  0  0  0  0  0  0  0  0
    3.2858    0.5023    0.0000 C   0  0  0  0  0  0  0  0  0  0  0  0
    2.6938    1.3169    0.0000 N   0  0  0  0  0  0  0  0  0  0  0  0
    3.0028   -1.2636    0.0000 C   0  0  0  0  0  0  0  0  0  0  0  0
    3.9809   -1.4715    0.0000 C   0  0  0  0  0  0  0  0  0  0  0  0
    4.2899   -2.4226    0.0000 N   0  0  0  0  0  0  0  0  0  0  0  0
    5.2680   -2.6306    0.0000 C   0  0  0  0  0  0  0  0  0  0  0  0
    5.9372   -1.8874    0.0000 O   0  0  0  0  0  0  0  0  0  0  0  0
    5.5770   -3.5816    0.0000 C   0  0  3  0  0  0  0  0  0  0  0  0
    6.5551   -3.7896    0.0000 C   0  0  0  0  0  0  0  0  0  0  0  0
    4.9078   -4.3247    0.0000 N   0  3  0  0  0  0  0  0  0  0  0  0
  1  2  1  0  0  0  0
  2  3  1  0  0  0  0
  3  4  1  0  0  0  0
  4  9  2  0  0  0  0
  4  5  1  0  0  0  0
  5  6  2  0  0  0  0
  6  7  1  0  0  0  0
  7  8  2  0  0  0  0
  8 12  1  0  0  0  0
  8  9  1  0  0  0  0
  9 10  1  0  0  0  0
 10 11  2  0  0  0  0
 11 12  1  0  0  0  0
 10 13  1  0  0  0  0
 13 14  1  0  0  0  0
 14 15  1  0  0  0  0
 15 16  1  0  0  0  0
 16 17  2  0  0  0  0
 16 18  1  0  0  0  0
 18 19  1  0  0  0  0
 18 20  1  0  0  0  0
M  CHG  1  20   1
M  END
$$$$
s_2554____16900474____788524
  -OEChem-03222016482D

 16 17  0     0  0  0  0  0  0999 V2000
   -0.0000    1.0058    0.0000 C   0  0  0  0  0  0  0  0  0  0  0  0
    0.8680    1.5138    0.0000 C   0  0  0  0  0  0  0  0  0  0  0  0
    1.7360    1.0058    0.0000 C   0  0  0  0  0  0  0  0  0  0  0  0
    1.7360   -0.0012    0.0000 C   0  0  0  0  0  0  0  0  0  0  0  0
    0.8680   -0.4978    0.0000 C   0  0  0  0  0  0  0  0  0  0  0  0
    0.0000    0.0000    0.0000 C   0  0  0  0  0  0  0  0  0  0  0  0
    0.8675   -1.4978    0.0000 F   0  0  0  0  0  0  0  0  0  0  0  0
    2.6938   -0.3125    0.0000 C   0  0  0  0  0  0  0  0  0  0  0  0
    3.2858    0.5023    0.0000 C   0  0  0  0  0  0  0  0  0  0  0  0
    2.6938    1.3169    0.0000 N   0  0  0  0  0  0  0  0  0  0  0  0
    3.0028   -1.2636    0.0000 C   0  0  0  0  0  0  0  0  0  0  0  0
    3.9809   -1.4715    0.0000 C   0  0  0  0  0  0  0  0  0  0  0  0
    4.2899   -2.4226    0.0000 N   0  0  0  0  0  0  0  0  0  0  0  0
    5.2680   -2.6306    0.0000 C   0  0  0  0  0  0  0  0  0  0  0  0
    5.9372   -1.8874    0.0000 O   0  0  0  0  0  0  0  0  0  0  0  0
    5.5770   -3.5816    0.0000 N   0  0  0  0  0  0  0  0  0  0  0  0
  1  6  2  0  0  0  0
  1  2  1  0  0  0  0
  2  3  2  0  0  0  0
  3 10  1  0  0  0  0
  3  4  1  0  0  0  0
  4  5  2  0  0  0  0
  5  6  1  0  0  0  0
  5  7  1  0  0  0  0
  4  8  1  0  0  0  0
  8  9  2  0  0  0  0
  9 10  1  0  0  0  0
  8 11  1  0  0  0  0
 11 12  1  0  0  0  0
 12 13  1  0  0  0  0
 13 14  1  0  0  0  0
 14 15  2  0  0  0  0
 14 16  1  0  0  0  0
M  END
$$$$
s_275532____13829784____15269824
  -OEChem-03222016482D

 18 19  0     1  0  0  0  0  0999 V2000
    4.2859   -1.2297    0.0000 C   0  0  0  0  0  0  0  0  0  0  0  0
    4.7859   -0.3636    0.0000 N   0  3  3  0  0  0  0  0  0  0  0  0
    4.2858    0.5024    0.0000 C   0  0  0  0  0  0  0  0  0  0  0  0
    3.2858    0.5023    0.0000 C   0  0  0  0  0  0  0  0  0  0  0  0
    2.6938   -0.3125    0.0000 C   0  0  0  0  0  0  0  0  0  0  0  0
    1.7360   -0.0012    0.0000 C   0  0  0  0  0  0  0  0  0  0  0  0
    1.7360    1.0058    0.0000 C   0  0  0  0  0  0  0  0  0  0  0  0
    2.6938    1.3169    0.0000 N   0  0  0  0  0  0  0  0  0  0  0  0
    0.8680    1.5138    0.0000 C   0  0  0  0  0  0  0  0  0  0  0  0
    0.0000    1.0058    0.0000 C   0  0  0  0  0  0  0  0  0  0  0  0
    0.0000    0.0000    0.0000 C   0  0  0  0  0  0  0  0  0  0  0  0
    0.8680   -0.4978    0.0000 C   0  0  0  0  0  0  0  0  0  0  0  0
    0.8675   -1.4978    0.0000 O   0  0  0  0  0  0  0  0  0  0  0  0
    1.7332   -1.9983    0.0000 C   0  0  0  0  0  0  0  0  0  0  0  0
    5.7859   -0.3636    0.0000 C   0  0  0  0  0  0  0  0  0  0  0  0
    6.2859   -1.2296    0.0000 C   0  0  0  0  0  0  0  0  0  0  0  0
    5.7860   -2.0956    0.0000 O   0  0  0  0  0  0  0  0  0  0  0  0
    7.2859   -1.2295    0.0000 O   0  5  0  0  0  0  0  0  0  0  0  0
  1  2  1  0  0  0  0
  2  3  1  0  0  0  0
  3  4  1  0  0  0  0
  4  8  1  0  0  0  0
  4  5  2  0  0  0  0
  5  6  1  0  0  0  0
  6 12  2  0  0  0  0
  6  7  1  0  0  0  0
  7  8  1  0  0  0  0
  7  9  2  0  0  0  0
  9 10  1  0  0  0  0
 10 11  2  0  0  0  0
 11 12  1  0  0  0  0
 12 13  1  0  0  0  0
 13 14  1  0  0  0  0
  2 15  1  0  0  0  0
 15 16  1  0  0  0  0
 16 17  2  0  0  0  0
 16 18  1  0  0  0  0
M  CHG  2   2   1  18  -1
M  END
$$$$
s_22____17638894____58887
  -OEChem-03222016482D

 18 19  0     1  0  0  0  0  0999 V2000
    7.2857    2.2346    0.0000 C   0  0  0  0  0  0  0  0  0  0  0  0
    6.2857    2.2345    0.0000 C   0  0  0  0  0  0  0  0  0  0  0  0
    5.7857    1.3685    0.0000 C   0  0  0  0  0  0  0  0  0  0  0  0
    6.2858    0.5025    0.0000 O   0  0  0  0  0  0  0  0  0  0  0  0
    4.7857    1.3684    0.0000 N   0  0  0  0  0  0  0  0  0  0  0  0
    4.2858    0.5024    0.0000 C   0  0  3  0  0  0  0  0  0  0  0  0
    4.7859   -0.3636    0.0000 C   0  0  0  0  0  0  0  0  0  0  0  0
    3.2858    0.5023    0.0000 C   0  0  0  0  0  0  0  0  0  0  0  0
    2.6938   -0.3125    0.0000 C   0  0  0  0  0  0  0  0  0  0  0  0
    1.7360   -0.0012    0.0000 C   0  0  0  0  0  0  0  0  0  0  0  0
    0.8680   -0.4978    0.0000 C   0  0  0  0  0  0  0  0  0  0  0  0
    0.0000    0.0000    0.0000 C   0  0  0  0  0  0  0  0  0  0  0  0
    0.0000    1.0058    0.0000 C   0  0  0  0  0  0  0  0  0  0  0  0
    0.8680    1.5138    0.0000 C   0  0  0  0  0  0  0  0  0  0  0  0
    1.7360    1.0058    0.0000 C   0  0  0  0  0  0  0  0  0  0  0  0
    2.6938    1.3169    0.0000 O   0  0  0  0  0  0  0  0  0  0  0  0
    0.8680    2.5138    0.0000 O   0  0  0  0  0  0  0  0  0  0  0  0
    0.0020    3.0138    0.0000 C   0  0  0  0  0  0  0  0  0  0  0  0
  1  2  1  0  0  0  0
  2  3  1  0  0  0  0
  3  4  2  0  0  0  0
  3  5  1  0  0  0  0
  5  6  1  0  0  0  0
  6  7  1  0  0  0  0
  6  8  1  0  0  0  0
  8 16  1  0  0  0  0
  8  9  2  0  0  0  0
  9 10  1  0  0  0  0
 10 15  2  0  0  0  0
 10 11  1  0  0  0  0
 11 12  2  0  0  0  0
 12 13  1  0  0  0  0
 13 14  2  0  0  0  0
 14 15  1  0  0  0  0
 15 16  1  0  0  0  0
 14 17  1  0  0  0  0
 17 18  1  0  0  0  0
M  END
$$$$
s_22____5635330____58844
  -OEChem-03222016482D

 16 17  0     0  0  0  0  0  0999 V2000
    0.8680    2.5138    0.0000 C   0  0  0  0  0  0  0  0  0  0  0  0
    0.8680    1.5138    0.0000 C   0  0  0  0  0  0  0  0  0  0  0  0
    0.0000    1.0058    0.0000 C   0  0  0  0  0  0  0  0  0  0  0  0
    0.0000    0.0000    0.0000 C   0  0  0  0  0  0  0  0  0  0  0  0
    0.8680   -0.4978    0.0000 C   0  0  0  0  0  0  0  0  0  0  0  0
    1.7360   -0.0012    0.0000 C   0  0  0  0  0  0  0  0  0  0  0  0
    1.7360    1.0058    0.0000 C   0  0  0  0  0  0  0  0  0  0  0  0
    2.6938    1.3169    0.0000 N   0  0  0  0  0  0  0  0  0  0  0  0
    3.2858    0.5023    0.0000 C   0  0  0  0  0  0  0  0  0  0  0  0
    2.6938   -0.3125    0.0000 C   0  0  0  0  0  0  0  0  0  0  0  0
    3.0028   -1.2636    0.0000 C   0  0  0  0  0  0  0  0  0  0  0  0
    3.9809   -1.4715    0.0000 C   0  0  0  0  0  0  0  0  0  0  0  0
    4.2899   -2.4226    0.0000 N   0  0  0  0  0  0  0  0  0  0  0  0
    5.2680   -2.6306    0.0000 C   0  0  0  0  0  0  0  0  0  0  0  0
    5.9372   -1.8874    0.0000 O   0  0  0  0  0  0  0  0  0  0  0  0
    5.5770   -3.5816    0.0000 C   0  0  0  0  0  0  0  0  0  0  0  0
  1  2  1  0  0  0  0
  2  7  2  0  0  0  0
  2  3  1  0  0  0  0
  3  4  2  0  0  0  0
  4  5  1  0  0  0  0
  5  6  2  0  0  0  0
  6 10  1  0  0  0  0
  6  7  1  0  0  0  0
  7  8  1  0  0  0  0
  8  9  1  0  0  0  0
  9 10  2  0  0  0  0
 10 11  1  0  0  0  0
 11 12  1  0  0  0  0
 12 13  1  0  0  0  0
 13 14  1  0  0  0  0
 14 15  2  0  0  0  0
 14 16  1  0  0  0  0
M  END
$$$$
s_22____2228922____337030
  -OEChem-03222016482D

 18 19  0     0  0  0  0  0  0999 V2000
    6.5551   -3.7896    0.0000 C   0  0  0  0  0  0  0  0  0  0  0  0
    5.5770   -3.5816    0.0000 C   0  0  0  0  0  0  0  0  0  0  0  0
    4.9078   -4.3247    0.0000 C   0  0  0  0  0  0  0  0  0  0  0  0
    5.2680   -2.6306    0.0000 C   0  0  0  0  0  0  0  0  0  0  0  0
    5.9372   -1.8874    0.0000 O   0  0  0  0  0  0  0  0  0  0  0  0
    4.2899   -2.4226    0.0000 N   0  0  0  0  0  0  0  0  0  0  0  0
    3.9809   -1.4715    0.0000 C   0  0  0  0  0  0  0  0  0  0  0  0
    3.0028   -1.2636    0.0000 C   0  0  0  0  0  0  0  0  0  0  0  0
    2.6938   -0.3125    0.0000 C   0  0  0  0  0  0  0  0  0  0  0  0
    3.2858    0.5023    0.0000 C   0  0  0  0  0  0  0  0  0  0  0  0
    2.6938    1.3169    0.0000 N   0  0  0  0  0  0  0  0  0  0  0  0
    1.7360    1.0058    0.0000 C   0  0  0  0  0  0  0  0  0  0  0  0
    1.7360   -0.0012    0.0000 C   0  0  0  0  0  0  0  0  0  0  0  0
    0.8680   -0.4978    0.0000 C   0  0  0  0  0  0  0  0  0  0  0  0
    0.0000    0.0000    0.0000 C   0  0  0  0  0  0  0  0  0  0  0  0
   -0.0000    1.0058    0.0000 C   0  0  0  0  0  0  0  0  0  0  0  0
    0.8680    1.5138    0.0000 C   0  0  0  0  0  0  0  0  0  0  0  0
   -0.8675    1.5032    0.0000 Cl  0  0  0  0  0  0  0  0  0  0  0  0
  1  2  1  0  0  0  0
  2  3  1  0  0  0  0
  2  4  1  0  0  0  0
  4  5  2  0  0  0  0
  4  6  1  0  0  0  0
  6  7  1  0  0  0  0
  7  8  1  0  0  0  0
  8  9  1  0  0  0  0
  9 13  1  0  0  0  0
  9 10  2  0  0  0  0
 10 11  1  0  0  0  0
 11 12  1  0  0  0  0
 12 17  2  0  0  0  0
 12 13  1  0  0  0  0
 13 14  2  0  0  0  0
 14 15  1  0  0  0  0
 15 16  2  0  0  0  0
 16 17  1  0  0  0  0
 16 18  1  0  0  0  0
M  END
$$$$
s_512____9045016____13978836
  -OEChem-03222016482D

 21 22  0     0  0  0  0  0  0999 V2000
    1.2530   -7.0892    0.0000 C   0  0  0  0  0  0  0  0  0  0  0  0
    1.9222   -6.3461    0.0000 C   0  0  0  0  0  0  0  0  0  0  0  0
    2.9003   -6.5541    0.0000 C   0  0  0  0  0  0  0  0  0  0  0  0
    1.6132   -5.3951    0.0000 C   0  0  0  0  0  0  0  0  0  0  0  0
    2.2824   -4.6519    0.0000 N   0  0  0  0  0  0  0  0  0  0  0  0
    1.9734   -3.7009    0.0000 C   0  0  0  0  0  0  0  0  0  0  0  0
    0.9953   -3.4929    0.0000 O   0  0  0  0  0  0  0  0  0  0  0  0
    2.6426   -2.9578    0.0000 N   0  0  0  0  0  0  0  0  0  0  0  0
    2.3336   -2.0067    0.0000 C   0  0  0  0  0  0  0  0  0  0  0  0
    3.0028   -1.2636    0.0000 C   0  0  0  0  0  0  0  0  0  0  0  0
    2.6938   -0.3125    0.0000 C   0  0  0  0  0  0  0  0  0  0  0  0
    3.2858    0.5023    0.0000 C   0  0  0  0  0  0  0  0  0  0  0  0
    2.6938    1.3169    0.0000 N   0  0  0  0  0  0  0  0  0  0  0  0
    1.7360    1.0058    0.0000 C   0  0  0  0  0  0  0  0  0  0  0  0
    1.7360   -0.0012    0.0000 C   0  0  0  0  0  0  0  0  0  0  0  0
    0.8680   -0.4978    0.0000 C   0  0  0  0  0  0  0  0  0  0  0  0
    0.0000    0.0000    0.0000 C   0  0  0  0  0  0  0  0  0  0  0  0
   -0.0000    1.0058    0.0000 C   0  0  0  0  0  0  0  0  0  0  0  0
    0.8680    1.5138    0.0000 C   0  0  0  0  0  0  0  0  0  0  0  0
   -0.8675    1.5032    0.0000 O   0  0  0  0  0  0  0  0  0  0  0  0
   -1.7320    1.0007    0.0000 C   0  0  0  0  0  0  0  0  0  0  0  0
  1  2  1  0  0  0  0
  2  3  2  0  0  0  0
  2  4  1  0  0  0  0
  4  5  1  0  0  0  0
  5  6  1  0  0  0  0
  6  7  2  0  0  0  0
  6  8  1  0  0  0  0
  8  9  1  0  0  0  0
  9 10  1  0  0  0  0
 10 11  1  0  0  0  0
 11 15  1  0  0  0  0
 11 12  2  0  0  0  0
 12 13  1  0  0  0  0
 13 14  1  0  0  0  0
 14 19  2  0  0  0  0
 14 15  1  0  0  0  0
 15 16  2  0  0  0  0
 16 17  1  0  0  0  0
 17 18  2  0  0  0  0
 18 19  1  0  0  0  0
 18 20  1  0  0  0  0
 20 21  1  0  0  0  0
M  END
$$$$
s_22____15754586____12103014
  -OEChem-03222016482D

 20 21  0     1  0  0  0  0  0999 V2000
    6.8641   -4.7407    0.0000 C   0  0  0  0  0  0  0  0  0  0  0  0
    6.5551   -3.7896    0.0000 C   0  0  0  0  0  0  0  0  0  0  0  0
    5.5770   -3.5816    0.0000 C   0  0  0  0  0  0  0  0  0  0  0  0
    5.2680   -2.6306    0.0000 C   0  0  0  0  0  0  0  0  0  0  0  0
    5.9372   -1.8874    0.0000 O   0  0  0  0  0  0  0  0  0  0  0  0
    4.2899   -2.4226    0.0000 N   0  0  0  0  0  0  0  0  0  0  0  0
    3.9809   -1.4715    0.0000 C   0  0  0  0  0  0  0  0  0  0  0  0
    3.0028   -1.2636    0.0000 C   0  0  3  0  0  0  0  0  0  0  0  0
    2.3336   -2.0067    0.0000 C   0  0  0  0  0  0  0  0  0  0  0  0
    2.6938   -0.3125    0.0000 C   0  0  0  0  0  0  0  0  0  0  0  0
    3.2858    0.5023    0.0000 C   0  0  0  0  0  0  0  0  0  0  0  0
    2.6938    1.3169    0.0000 N   0  0  0  0  0  0  0  0  0  0  0  0
    1.7360    1.0058    0.0000 C   0  0  0  0  0  0  0  0  0  0  0  0
    1.7360   -0.0012    0.0000 C   0  0  0  0  0  0  0  0  0  0  0  0
    0.8680   -0.4978    0.0000 C   0  0  0  0  0  0  0  0  0  0  0  0
    0.0000    0.0000    0.0000 C   0  0  0  0  0  0  0  0  0  0  0  0
   -0.0000    1.0058    0.0000 C   0  0  0  0  0  0  0  0  0  0  0  0
    0.8680    1.5138    0.0000 C   0  0  0  0  0  0  0  0  0  0  0  0
   -0.8653   -0.5013    0.0000 O   0  0  0  0  0  0  0  0  0  0  0  0
   -0.8639   -1.5013    0.0000 C   0  0  0  0  0  0  0  0  0  0  0  0
  1  2  1  0  0  0  0
  2  3  2  3  0  0  0
  3  4  1  0  0  0  0
  4  5  2  0  0  0  0
  4  6  1  0  0  0  0
  6  7  1  0  0  0  0
  7  8  1  0  0  0  0
  8  9  1  0  0  0  0
  8 10  1  0  0  0  0
 10 14  1  0  0  0  0
 10 11  2  0  0  0  0
 11 12  1  0  0  0  0
 12 13  1  0  0  0  0
 13 18  2  0  0  0  0
 13 14  1  0  0  0  0
 14 15  2  0  0  0  0
 15 16  1  0  0  0  0
 16 17  2  0  0  0  0
 17 18  1  0  0  0  0
 16 19  1  0  0  0  0
 19 20  1  0  0  0  0
M  END
$$$$
s_22____16900452____9296322
  -OEChem-03222016482D

 18 19  0     0  0  0  0  0  0999 V2000
    6.1949   -5.4838    0.0000 C   0  0  0  0  0  0  0  0  0  0  0  0
    5.8860   -4.5327    0.0000 C   0  0  0  0  0  0  0  0  0  0  0  0
    5.5770   -3.5816    0.0000 C   0  0  0  0  0  0  0  0  0  0  0  0
    5.2680   -2.6306    0.0000 C   0  0  0  0  0  0  0  0  0  0  0  0
    5.9372   -1.8874    0.0000 O   0  0  0  0  0  0  0  0  0  0  0  0
    4.2899   -2.4226    0.0000 N   0  0  0  0  0  0  0  0  0  0  0  0
    3.9809   -1.4715    0.0000 C   0  0  0  0  0  0  0  0  0  0  0  0
    3.0028   -1.2636    0.0000 C   0  0  0  0  0  0  0  0  0  0  0  0
    2.6938   -0.3125    0.0000 C   0  0  0  0  0  0  0  0  0  0  0  0
    3.2858    0.5023    0.0000 C   0  0  0  0  0  0  0  0  0  0  0  0
    2.6938    1.3169    0.0000 N   0  0  0  0  0  0  0  0  0  0  0  0
    1.7360    1.0058    0.0000 C   0  0  0  0  0  0  0  0  0  0  0  0
    1.7360   -0.0012    0.0000 C   0  0  0  0  0  0  0  0  0  0  0  0
    0.8680   -0.4978    0.0000 C   0  0  0  0  0  0  0  0  0  0  0  0
    0.0000    0.0000    0.0000 C   0  0  0  0  0  0  0  0  0  0  0  0
   -0.0000    1.0058    0.0000 C   0  0  0  0  0  0  0  0  0  0  0  0
    0.8680    1.5138    0.0000 C   0  0  0  0  0  0  0  0  0  0  0  0
    0.8675   -1.4978    0.0000 F   0  0  0  0  0  0  0  0  0  0  0  0
  1  2  1  0  0  0  0
  2  3  3  0  0  0  0
  3  4  1  0  0  0  0
  4  5  2  0  0  0  0
  4  6  1  0  0  0  0
  6  7  1  0  0  0  0
  7  8  1  0  0  0  0
  8  9  1  0  0  0  0
  9 13  1  0  0  0  0
  9 10  2  0  0  0  0
 10 11  1  0  0  0  0
 11 12  1  0  0  0  0
 12 17  2  0  0  0  0
 12 13  1  0  0  0  0
 13 14  2  0  0  0  0
 14 15  1  0  0  0  0
 15 16  2  0  0  0  0
 16 17  1  0  0  0  0
 14 18  1  0  0  0  0
M  END
$$$$
s_240690b____17029356____7368582
  -OEChem-03222016482D

 18 19  0     0  0  0  0  0  0999 V2000
    6.8641   -4.7407    0.0000 C   0  0  0  0  0  0  0  0  0  0  0  0
    6.5551   -3.7896    0.0000 N   0  3  0  0  0  0  0  0  0  0  0  0
    5.5770   -3.5816    0.0000 C   0  0  0  0  0  0  0  0  0  0  0  0
    5.2680   -2.6306    0.0000 C   0  0  0  0  0  0  0  0  0  0  0  0
    5.9372   -1.8874    0.0000 O   0  0  0  0  0  0  0  0  0  0  0  0
    4.2899   -2.4226    0.0000 N   0  0  0  0  0  0  0  0  0  0  0  0
    3.9809   -1.4715    0.0000 C   0  0  0  0  0  0  0  0  0  0  0  0
    3.0028   -1.2636    0.0000 C   0  0  0  0  0  0  0  0  0  0  0  0
    2.6938   -0.3125    0.0000 C   0  0  0  0  0  0  0  0  0  0  0  0
    3.2858    0.5023    0.0000 C   0  0  0  0  0  0  0  0  0  0  0  0
    2.6938    1.3169    0.0000 N   0  0  0  0  0  0  0  0  0  0  0  0
    1.7360    1.0058    0.0000 C   0  0  0  0  0  0  0  0  0  0  0  0
    1.7360   -0.0012    0.0000 C   0  0  0  0  0  0  0  0  0  0  0  0
    0.8680   -0.4978    0.0000 C   0  0  0  0  0  0  0  0  0  0  0  0
    0.0000    0.0000    0.0000 C   0  0  0  0  0  0  0  0  0  0  0  0
   -0.0000    1.0058    0.0000 C   0  0  0  0  0  0  0  0  0  0  0  0
    0.8680    1.5138    0.0000 C   0  0  0  0  0  0  0  0  0  0  0  0
   -0.8653   -0.5013    0.0000 F   0  0  0  0  0  0  0  0  0  0  0  0
  1  2  1  0  0  0  0
  2  3  1  0  0  0  0
  3  4  1  0  0  0  0
  4  5  2  0  0  0  0
  4  6  1  0  0  0  0
  6  7  1  0  0  0  0
  7  8  1  0  0  0  0
  8  9  1  0  0  0  0
  9 13  1  0  0  0  0
  9 10  2  0  0  0  0
 10 11  1  0  0  0  0
 11 12  1  0  0  0  0
 12 17  2  0  0  0  0
 12 13  1  0  0  0  0
 13 14  2  0  0  0  0
 14 15  1  0  0  0  0
 15 16  2  0  0  0  0
 16 17  1  0  0  0  0
 15 18  1  0  0  0  0
M  CHG  1   2   1
M  END
$$$$
s_22____15506616____575700
  -OEChem-03222016482D

 21 22  0     0  0  0  0  0  0999 V2000
    1.7340    3.0138    0.0000 C   0  0  0  0  0  0  0  0  0  0  0  0
    0.8680    2.5138    0.0000 O   0  0  0  0  0  0  0  0  0  0  0  0
    0.8680    1.5138    0.0000 C   0  0  0  0  0  0  0  0  0  0  0  0
    0.0000    1.0058    0.0000 C   0  0  0  0  0  0  0  0  0  0  0  0
    0.0000    0.0000    0.0000 C   0  0  0  0  0  0  0  0  0  0  0  0
    0.8680   -0.4978    0.0000 C   0  0  0  0  0  0  0  0  0  0  0  0
    1.7360   -0.0012    0.0000 C   0  0  0  0  0  0  0  0  0  0  0  0
    1.7360    1.0058    0.0000 C   0  0  0  0  0  0  0  0  0  0  0  0
    2.6938    1.3169    0.0000 N   0  0  0  0  0  0  0  0  0  0  0  0
    3.2858    0.5023    0.0000 C   0  0  0  0  0  0  0  0  0  0  0  0
    2.6938   -0.3125    0.0000 C   0  0  0  0  0  0  0  0  0  0  0  0
    3.0028   -1.2636    0.0000 C   0  0  0  0  0  0  0  0  0  0  0  0
    3.9809   -1.4715    0.0000 C   0  0  0  0  0  0  0  0  0  0  0  0
    4.2899   -2.4226    0.0000 N   0  0  0  0  0  0  0  0  0  0  0  0
    5.2680   -2.6306    0.0000 C   0  0  0  0  0  0  0  0  0  0  0  0
    5.9372   -1.8874    0.0000 O   0  0  0  0  0  0  0  0  0  0  0  0
    5.5770   -3.5816    0.0000 C   0  0  0  0  0  0  0  0  0  0  0  0
    6.5551   -3.7896    0.0000 S   0  0  0  0  0  0  0  0  0  0  0  0
    6.8641   -4.7407    0.0000 C   0  0  0  0  0  0  0  0  0  0  0  0
    7.8422   -4.9486    0.0000 C   0  0  0  0  0  0  0  0  0  0  0  0
    8.8204   -5.1566    0.0000 N   0  0  0  0  0  0  0  0  0  0  0  0
  1  2  1  0  0  0  0
  2  3  1  0  0  0  0
  3  8  2  0  0  0  0
  3  4  1  0  0  0  0
  4  5  2  0  0  0  0
  5  6  1  0  0  0  0
  6  7  2  0  0  0  0
  7 11  1  0  0  0  0
  7  8  1  0  0  0  0
  8  9  1  0  0  0  0
  9 10  1  0  0  0  0
 10 11  2  0  0  0  0
 11 12  1  0  0  0  0
 12 13  1  0  0  0  0
 13 14  1  0  0  0  0
 14 15  1  0  0  0  0
 15 16  2  0  0  0  0
 15 17  1  0  0  0  0
 17 18  1  0  0  0  0
 18 19  1  0  0  0  0
 19 20  1  0  0  0  0
 20 21  3  0  0  0  0
M  END
$$$$
s_22____13025516____3489590
  -OEChem-03222016482D

 21 22  0     0  0  0  0  0  0999 V2000
    0.0012   -1.9973    0.0000 C   0  0  0  0  0  0  0  0  0  0  0  0
    0.8675   -1.4978    0.0000 O   0  0  0  0  0  0  0  0  0  0  0  0
    0.8680   -0.4978    0.0000 C   0  0  0  0  0  0  0  0  0  0  0  0
    0.0000    0.0000    0.0000 C   0  0  0  0  0  0  0  0  0  0  0  0
   -0.0000    1.0058    0.0000 C   0  0  0  0  0  0  0  0  0  0  0  0
    0.8680    1.5138    0.0000 C   0  0  0  0  0  0  0  0  0  0  0  0
    1.7360    1.0058    0.0000 C   0  0  0  0  0  0  0  0  0  0  0  0
    1.7360   -0.0012    0.0000 C   0  0  0  0  0  0  0  0  0  0  0  0
    2.6938   -0.3125    0.0000 C   0  0  0  0  0  0  0  0  0  0  0  0
    3.2858    0.5023    0.0000 C   0  0  0  0  0  0  0  0  0  0  0  0
    2.6938    1.3169    0.0000 N   0  0  0  0  0  0  0  0  0  0  0  0
    3.0028   -1.2636    0.0000 C   0  0  0  0  0  0  0  0  0  0  0  0
    3.9809   -1.4715    0.0000 C   0  0  0  0  0  0  0  0  0  0  0  0
    4.2899   -2.4226    0.0000 N   0  0  0  0  0  0  0  0  0  0  0  0
    5.2680   -2.6306    0.0000 C   0  0  0  0  0  0  0  0  0  0  0  0
    5.9372   -1.8874    0.0000 O   0  0  0  0  0  0  0  0  0  0  0  0
    5.5770   -3.5816    0.0000 C   0  0  0  0  0  0  0  0  0  0  0  0
    6.5551   -3.7896    0.0000 O   0  0  0  0  0  0  0  0  0  0  0  0
    6.8641   -4.7407    0.0000 C   0  0  0  0  0  0  0  0  0  0  0  0
    7.8422   -4.9486    0.0000 C   0  0  0  0  0  0  0  0  0  0  0  0
    8.1512   -5.8997    0.0000 C   0  0  0  0  0  0  0  0  0  0  0  0
  1  2  1  0  0  0  0
  2  3  1  0  0  0  0
  3  8  2  0  0  0  0
  3  4  1  0  0  0  0
  4  5  2  0  0  0  0
  5  6  1  0  0  0  0
  6  7  2  0  0  0  0
  7 11  1  0  0  0  0
  7  8  1  0  0  0  0
  8  9  1  0  0  0  0
  9 10  2  0  0  0  0
 10 11  1  0  0  0  0
  9 12  1  0  0  0  0
 12 13  1  0  0  0  0
 13 14  1  0  0  0  0
 14 15  1  0  0  0  0
 15 16  2  0  0  0  0
 15 17  1  0  0  0  0
 17 18  1  0  0  0  0
 18 19  1  0  0  0  0
 19 20  1  0  0  0  0
 20 21  2  0  0  0  0
M  END
$$$$
s_240690b____17036658____3025698
  -OEChem-03222016482D

 16 17  0     0  0  0  0  0  0999 V2000
    0.0000    0.0000    0.0000 C   0  0  0  0  0  0  0  0  0  0  0  0
    0.8675   -0.4975    0.0000 C   0  0  0  0  0  0  0  0  0  0  0  0
    1.7405    0.0044    0.0000 C   0  0  0  0  0  0  0  0  0  0  0  0
    2.6940   -0.2997    0.0000 C   0  0  0  0  0  0  0  0  0  0  0  0
    3.2780    0.5133    0.0000 C   0  0  0  0  0  0  0  0  0  0  0  0
    2.6851    1.3196    0.0000 N   0  0  0  0  0  0  0  0  0  0  0  0
    1.7350    1.0052    0.0000 C   0  0  0  0  0  0  0  0  0  0  0  0
    0.8675    1.5129    0.0000 N   0  0  0  0  0  0  0  0  0  0  0  0
    0.0000    1.0052    0.0000 C   0  0  0  0  0  0  0  0  0  0  0  0
    3.0082   -1.2491    0.0000 C   0  0  0  0  0  0  0  0  0  0  0  0
    3.9874   -1.4517    0.0000 C   0  0  0  0  0  0  0  0  0  0  0  0
    4.3016   -2.4011    0.0000 N   0  0  0  0  0  0  0  0  0  0  0  0
    5.2808   -2.6037    0.0000 C   0  0  0  0  0  0  0  0  0  0  0  0
    5.9459   -1.8569    0.0000 O   0  0  0  0  0  0  0  0  0  0  0  0
    5.5950   -3.5530    0.0000 C   0  0  0  0  0  0  0  0  0  0  0  0
    6.5743   -3.7557    0.0000 N   0  3  0  0  0  0  0  0  0  0  0  0
  1  9  2  0  0  0  0
  1  2  1  0  0  0  0
  2  3  2  0  0  0  0
  3  7  1  0  0  0  0
  3  4  1  0  0  0  0
  4  5  2  0  0  0  0
  5  6  1  0  0  0  0
  6  7  1  0  0  0  0
  7  8  2  0  0  0  0
  8  9  1  0  0  0  0
  4 10  1  0  0  0  0
 10 11  1  0  0  0  0
 11 12  1  0  0  0  0
 12 13  1  0  0  0  0
 13 14  2  0  0  0  0
 13 15  1  0  0  0  0
 15 16  1  0  0  0  0
M  CHG  1  16   1
M  END
$$$$
s_207____13973878____15565042
  -OEChem-03222016482D

 20 21  0     0  0  0  0  0  0999 V2000
    0.8675   -1.4978    0.0000 C   0  0  0  0  0  0  0  0  0  0  0  0
    0.8680   -0.4978    0.0000 C   0  0  0  0  0  0  0  0  0  0  0  0
    0.0000    0.0000    0.0000 C   0  0  0  0  0  0  0  0  0  0  0  0
   -0.0000    1.0058    0.0000 C   0  0  0  0  0  0  0  0  0  0  0  0
    0.8680    1.5138    0.0000 C   0  0  0  0  0  0  0  0  0  0  0  0
    1.7360    1.0058    0.0000 C   0  0  0  0  0  0  0  0  0  0  0  0
    1.7360   -0.0012    0.0000 C   0  0  0  0  0  0  0  0  0  0  0  0
    2.6938   -0.3125    0.0000 C   0  0  0  0  0  0  0  0  0  0  0  0
    3.2858    0.5023    0.0000 C   0  0  0  0  0  0  0  0  0  0  0  0
    2.6938    1.3169    0.0000 N   0  0  0  0  0  0  0  0  0  0  0  0
    4.2858    0.5024    0.0000 C   0  0  0  0  0  0  0  0  0  0  0  0
    4.7857    1.3684    0.0000 N   0  3  0  0  0  0  0  0  0  0  0  0
    5.7857    1.3685    0.0000 C   0  0  0  0  0  0  0  0  0  0  0  0
    6.2857    2.2345    0.0000 C   0  0  0  0  0  0  0  0  0  0  0  0
    5.7856    3.1005    0.0000 O   0  0  0  0  0  0  0  0  0  0  0  0
    7.2857    2.2346    0.0000 N   0  0  0  0  0  0  0  0  0  0  0  0
    7.7856    3.1006    0.0000 C   0  0  0  0  0  0  0  0  0  0  0  0
    7.7857    1.3686    0.0000 O   0  0  0  0  0  0  0  0  0  0  0  0
   -0.8675    1.5032    0.0000 O   0  0  0  0  0  0  0  0  0  0  0  0
   -1.7320    1.0007    0.0000 C   0  0  0  0  0  0  0  0  0  0  0  0
  1  2  1  0  0  0  0
  2  7  2  0  0  0  0
  2  3  1  0  0  0  0
  3  4  2  0  0  0  0
  4  5  1  0  0  0  0
  5  6  2  0  0  0  0
  6 10  1  0  0  0  0
  6  7  1  0  0  0  0
  7  8  1  0  0  0  0
  8  9  2  0  0  0  0
  9 10  1  0  0  0  0
  9 11  1  0  0  0  0
 11 12  1  0  0  0  0
 12 13  1  0  0  0  0
 13 14  1  0  0  0  0
 14 15  2  0  0  0  0
 14 16  1  0  0  0  0
 16 17  1  0  0  0  0
 16 18  1  0  0  0  0
  4 19  1  0  0  0  0
 19 20  1  0  0  0  0
M  CHG  1  12   1
M  END
$$$$
s_512____6389034____15506628
  -OEChem-03222016482D

 21 22  0     0  0  0  0  0  0999 V2000
    1.7340    3.0138    0.0000 C   0  0  0  0  0  0  0  0  0  0  0  0
    0.8680    2.5138    0.0000 O   0  0  0  0  0  0  0  0  0  0  0  0
    0.8680    1.5138    0.0000 C   0  0  0  0  0  0  0  0  0  0  0  0
    0.0000    1.0058    0.0000 C   0  0  0  0  0  0  0  0  0  0  0  0
    0.0000    0.0000    0.0000 C   0  0  0  0  0  0  0  0  0  0  0  0
    0.8680   -0.4978    0.0000 C   0  0  0  0  0  0  0  0  0  0  0  0
    1.7360   -0.0012    0.0000 C   0  0  0  0  0  0  0  0  0  0  0  0
    1.7360    1.0058    0.0000 C   0  0  0  0  0  0  0  0  0  0  0  0
    2.6938    1.3169    0.0000 N   0  0  0  0  0  0  0  0  0  0  0  0
    3.2858    0.5023    0.0000 C   0  0  0  0  0  0  0  0  0  0  0  0
    2.6938   -0.3125    0.0000 C   0  0  0  0  0  0  0  0  0  0  0  0
    3.0028   -1.2636    0.0000 C   0  0  0  0  0  0  0  0  0  0  0  0
    3.9809   -1.4715    0.0000 C   0  0  0  0  0  0  0  0  0  0  0  0
    4.2899   -2.4226    0.0000 N   0  0  0  0  0  0  0  0  0  0  0  0
    5.2680   -2.6306    0.0000 C   0  0  0  0  0  0  0  0  0  0  0  0
    5.9372   -1.8874    0.0000 O   0  0  0  0  0  0  0  0  0  0  0  0
    5.5770   -3.5816    0.0000 N   0  0  0  0  0  0  0  0  0  0  0  0
    6.5551   -3.7896    0.0000 C   0  0  0  0  0  0  0  0  0  0  0  0
    6.8641   -4.7407    0.0000 C   0  0  0  0  0  0  0  0  0  0  0  0
    7.8422   -4.9486    0.0000 F   0  0  0  0  0  0  0  0  0  0  0  0
    6.1949   -5.4838    0.0000 F   0  0  0  0  0  0  0  0  0  0  0  0
  1  2  1  0  0  0  0
  2  3  1  0  0  0  0
  3  8  2  0  0  0  0
  3  4  1  0  0  0  0
  4  5  2  0  0  0  0
  5  6  1  0  0  0  0
  6  7  2  0  0  0  0
  7 11  1  0  0  0  0
  7  8  1  0  0  0  0
  8  9  1  0  0  0  0
  9 10  1  0  0  0  0
 10 11  2  0  0  0  0
 11 12  1  0  0  0  0
 12 13  1  0  0  0  0
 13 14  1  0  0  0  0
 14 15  1  0  0  0  0
 15 16  2  0  0  0  0
 15 17  1  0  0  0  0
 17 18  1  0  0  0  0
 18 19  1  0  0  0  0
 19 20  1  0  0  0  0
 19 21  1  0  0  0  0
M  END
$$$$
s_22____9192330____9296322
  -OEChem-03222016482D

 20 21  0     0  0  0  0  0  0999 V2000
    0.6351   -5.1871    0.0000 C   0  0  0  0  0  0  0  0  0  0  0  0
    1.3042   -4.4440    0.0000 C   0  0  0  0  0  0  0  0  0  0  0  0
    1.9734   -3.7009    0.0000 C   0  0  0  0  0  0  0  0  0  0  0  0
    2.6426   -2.9578    0.0000 C   0  0  0  0  0  0  0  0  0  0  0  0
    3.6207   -3.1657    0.0000 O   0  0  0  0  0  0  0  0  0  0  0  0
    2.3336   -2.0067    0.0000 N   0  0  0  0  0  0  0  0  0  0  0  0
    3.0028   -1.2636    0.0000 C   0  0  0  0  0  0  0  0  0  0  0  0
    2.6938   -0.3125    0.0000 C   0  0  0  0  0  0  0  0  0  0  0  0
    3.2858    0.5023    0.0000 C   0  0  0  0  0  0  0  0  0  0  0  0
    2.6938    1.3169    0.0000 N   0  0  0  0  0  0  0  0  0  0  0  0
    1.7360    1.0058    0.0000 C   0  0  0  0  0  0  0  0  0  0  0  0
    1.7360   -0.0012    0.0000 C   0  0  0  0  0  0  0  0  0  0  0  0
    0.8680   -0.4978    0.0000 C   0  0  0  0  0  0  0  0  0  0  0  0
    0.0000    0.0000    0.0000 C   0  0  0  0  0  0  0  0  0  0  0  0
   -0.0000    1.0058    0.0000 C   0  0  0  0  0  0  0  0  0  0  0  0
    0.8680    1.5138    0.0000 C   0  0  0  0  0  0  0  0  0  0  0  0
   -0.8653   -0.5013    0.0000 O   0  0  0  0  0  0  0  0  0  0  0  0
   -0.8639   -1.5013    0.0000 C   0  0  0  0  0  0  0  0  0  0  0  0
    0.0029   -2.0000    0.0000 C   0  0  0  0  0  0  0  0  0  0  0  0
   -1.7292   -2.0025    0.0000 C   0  0  0  0  0  0  0  0  0  0  0  0
  1  2  1  0  0  0  0
  2  3  3  0  0  0  0
  3  4  1  0  0  0  0
  4  5  2  0  0  0  0
  4  6  1  0  0  0  0
  6  7  1  0  0  0  0
  7  8  1  0  0  0  0
  8 12  1  0  0  0  0
  8  9  2  0  0  0  0
  9 10  1  0  0  0  0
 10 11  1  0  0  0  0
 11 16  2  0  0  0  0
 11 12  1  0  0  0  0
 12 13  2  0  0  0  0
 13 14  1  0  0  0  0
 14 15  2  0  0  0  0
 15 16  1  0  0  0  0
 14 17  1  0  0  0  0
 17 18  1  0  0  0  0
 18 19  1  0  0  0  0
 18 20  1  0  0  0  0
M  END
$$$$
s_207____3310404____16621894
  -OEChem-03222016482D

 19 20  0     0  0  0  0  0  0999 V2000
    7.7856    3.1006    0.0000 C   0  0  0  0  0  0  0  0  0  0  0  0
    7.2857    2.2346    0.0000 N   0  0  0  0  0  0  0  0  0  0  0  0
    7.7857    1.3686    0.0000 C   0  0  0  0  0  0  0  0  0  0  0  0
    6.2857    2.2345    0.0000 C   0  0  0  0  0  0  0  0  0  0  0  0
    5.7856    3.1005    0.0000 O   0  0  0  0  0  0  0  0  0  0  0  0
    5.7857    1.3685    0.0000 C   0  0  0  0  0  0  0  0  0  0  0  0
    4.7857    1.3684    0.0000 N   0  3  0  0  0  0  0  0  0  0  0  0
    4.2858    0.5024    0.0000 C   0  0  0  0  0  0  0  0  0  0  0  0
    3.2858    0.5023    0.0000 C   0  0  0  0  0  0  0  0  0  0  0  0
    2.6938   -0.3125    0.0000 C   0  0  0  0  0  0  0  0  0  0  0  0
    1.7360   -0.0012    0.0000 C   0  0  0  0  0  0  0  0  0  0  0  0
    0.8680   -0.4978    0.0000 C   0  0  0  0  0  0  0  0  0  0  0  0
    0.0000    0.0000    0.0000 C   0  0  0  0  0  0  0  0  0  0  0  0
    0.0000    1.0058    0.0000 C   0  0  0  0  0  0  0  0  0  0  0  0
    0.8680    1.5138    0.0000 C   0  0  0  0  0  0  0  0  0  0  0  0
    1.7360    1.0058    0.0000 C   0  0  0  0  0  0  0  0  0  0  0  0
    2.6938    1.3169    0.0000 N   0  0  0  0  0  0  0  0  0  0  0  0
   -0.8653   -0.5013    0.0000 O   0  0  0  0  0  0  0  0  0  0  0  0
   -0.8639   -1.5013    0.0000 C   0  0  0  0  0  0  0  0  0  0  0  0
  1  2  1  0  0  0  0
  2  3  1  0  0  0  0
  2  4  1  0  0  0  0
  4  5  2  0  0  0  0
  4  6  1  0  0  0  0
  6  7  1  0  0  0  0
  7  8  1  0  0  0  0
  8  9  1  0  0  0  0
  9 17  1  0  0  0  0
  9 10  2  0  0  0  0
 10 11  1  0  0  0  0
 11 16  2  0  0  0  0
 11 12  1  0  0  0  0
 12 13  2  0  0  0  0
 13 14  1  0  0  0  0
 14 15  2  0  0  0  0
 15 16  1  0  0  0  0
 16 17  1  0  0  0  0
 13 18  1  0  0  0  0
 18 19  1  0  0  0  0
M  CHG  1   7   1
M  END
$$$$
s_2554____13978846____951600
  -OEChem-03222016482D

 19 20  0     0  0  0  0  0  0999 V2000
    6.8641   -4.7407    0.0000 C   0  0  0  0  0  0  0  0  0  0  0  0
    6.5551   -3.7896    0.0000 C   0  0  0  0  0  0  0  0  0  0  0  0
    5.5770   -3.5816    0.0000 N   0  0  0  0  0  0  0  0  0  0  0  0
    5.2680   -2.6306    0.0000 C   0  0  0  0  0  0  0  0  0  0  0  0
    5.9372   -1.8874    0.0000 O   0  0  0  0  0  0  0  0  0  0  0  0
    4.2899   -2.4226    0.0000 N   0  0  0  0  0  0  0  0  0  0  0  0
    3.9809   -1.4715    0.0000 C   0  0  0  0  0  0  0  0  0  0  0  0
    3.0028   -1.2636    0.0000 C   0  0  0  0  0  0  0  0  0  0  0  0
    2.6938   -0.3125    0.0000 C   0  0  0  0  0  0  0  0  0  0  0  0
    3.2858    0.5023    0.0000 C   0  0  0  0  0  0  0  0  0  0  0  0
    2.6938    1.3169    0.0000 N   0  0  0  0  0  0  0  0  0  0  0  0
    1.7360    1.0058    0.0000 C   0  0  0  0  0  0  0  0  0  0  0  0
    1.7360   -0.0012    0.0000 C   0  0  0  0  0  0  0  0  0  0  0  0
    0.8680   -0.4978    0.0000 C   0  0  0  0  0  0  0  0  0  0  0  0
    0.0000    0.0000    0.0000 C   0  0  0  0  0  0  0  0  0  0  0  0
   -0.0000    1.0058    0.0000 C   0  0  0  0  0  0  0  0  0  0  0  0
    0.8680    1.5138    0.0000 C   0  0  0  0  0  0  0  0  0  0  0  0
   -0.8675    1.5032    0.0000 O   0  0  0  0  0  0  0  0  0  0  0  0
   -1.7320    1.0007    0.0000 C   0  0  0  0  0  0  0  0  0  0  0  0
  1  2  1  0  0  0  0
  2  3  1  0  0  0  0
  3  4  1  0  0  0  0
  4  5  2  0  0  0  0
  4  6  1  0  0  0  0
  6  7  1  0  0  0  0
  7  8  1  0  0  0  0
  8  9  1  0  0  0  0
  9 13  1  0  0  0  0
  9 10  2  0  0  0  0
 10 11  1  0  0  0  0
 11 12  1  0  0  0  0
 12 17  2  0  0  0  0
 12 13  1  0  0  0  0
 13 14  2  0  0  0  0
 14 15  1  0  0  0  0
 15 16  2  0  0  0  0
 16 17  1  0  0  0  0
 16 18  1  0  0  0  0
 18 19  1  0  0  0  0
M  END
$$$$
s_22____13612008____58866
  -OEChem-03222016482D

 18 19  0     0  0  0  0  0  0999 V2000
    6.8641   -4.7407    0.0000 C   0  0  0  0  0  0  0  0  0  0  0  0
    6.5551   -3.7896    0.0000 C   0  0  0  0  0  0  0  0  0  0  0  0
    5.5770   -3.5816    0.0000 C   0  0  0  0  0  0  0  0  0  0  0  0
    5.2680   -2.6306    0.0000 C   0  0  0  0  0  0  0  0  0  0  0  0
    5.9372   -1.8874    0.0000 O   0  0  0  0  0  0  0  0  0  0  0  0
    4.2899   -2.4226    0.0000 N   0  0  0  0  0  0  0  0  0  0  0  0
    3.9809   -1.4715    0.0000 C   0  0  0  0  0  0  0  0  0  0  0  0
    3.0028   -1.2636    0.0000 C   0  0  0  0  0  0  0  0  0  0  0  0
    2.6938   -0.3125    0.0000 C   0  0  0  0  0  0  0  0  0  0  0  0
    3.2858    0.5023    0.0000 C   0  0  0  0  0  0  0  0  0  0  0  0
    2.6938    1.3169    0.0000 N   0  0  0  0  0  0  0  0  0  0  0  0
    1.7360    1.0058    0.0000 C   0  0  0  0  0  0  0  0  0  0  0  0
    1.7360   -0.0012    0.0000 C   0  0  0  0  0  0  0  0  0  0  0  0
    0.8680   -0.4978    0.0000 C   0  0  0  0  0  0  0  0  0  0  0  0
    0.0000    0.0000    0.0000 C   0  0  0  0  0  0  0  0  0  0  0  0
   -0.0000    1.0058    0.0000 C   0  0  0  0  0  0  0  0  0  0  0  0
    0.8680    1.5138    0.0000 C   0  0  0  0  0  0  0  0  0  0  0  0
   -0.8653   -0.5013    0.0000 C   0  0  0  0  0  0  0  0  0  0  0  0
  1  2  1  0  0  0  0
  2  3  1  0  0  0  0
  3  4  1  0  0  0  0
  4  5  2  0  0  0  0
  4  6  1  0  0  0  0
  6  7  1  0  0  0  0
  7  8  1  0  0  0  0
  8  9  1  0  0  0  0
  9 13  1  0  0  0  0
  9 10  2  0  0  0  0
 10 11  1  0  0  0  0
 11 12  1  0  0  0  0
 12 17  2  0  0  0  0
 12 13  1  0  0  0  0
 13 14  2  0  0  0  0
 14 15  1  0  0  0  0
 15 16  2  0  0  0  0
 16 17  1  0  0  0  0
 15 18  1  0  0  0  0
M  END
$$$$
s_22____4839448____58902
  -OEChem-03222016482D

 19 21  0     0  0  0  0  0  0999 V2000
   -1.7320   -0.0025    0.0000 C   0  0  0  0  0  0  0  0  0  0  0  0
   -0.8653   -0.5013    0.0000 O   0  0  0  0  0  0  0  0  0  0  0  0
    0.0000    0.0000    0.0000 C   0  0  0  0  0  0  0  0  0  0  0  0
   -0.0000    1.0058    0.0000 C   0  0  0  0  0  0  0  0  0  0  0  0
    0.8680    1.5138    0.0000 C   0  0  0  0  0  0  0  0  0  0  0  0
    1.7360    1.0058    0.0000 C   0  0  0  0  0  0  0  0  0  0  0  0
    1.7360   -0.0012    0.0000 C   0  0  0  0  0  0  0  0  0  0  0  0
    0.8680   -0.4978    0.0000 C   0  0  0  0  0  0  0  0  0  0  0  0
    2.6938   -0.3125    0.0000 C   0  0  0  0  0  0  0  0  0  0  0  0
    3.2858    0.5023    0.0000 C   0  0  0  0  0  0  0  0  0  0  0  0
    2.6938    1.3169    0.0000 N   0  0  0  0  0  0  0  0  0  0  0  0
    3.0028   -1.2636    0.0000 C   0  0  0  0  0  0  0  0  0  0  0  0
    3.9809   -1.4715    0.0000 C   0  0  0  0  0  0  0  0  0  0  0  0
    4.2899   -2.4226    0.0000 N   0  0  0  0  0  0  0  0  0  0  0  0
    5.2680   -2.6306    0.0000 C   0  0  0  0  0  0  0  0  0  0  0  0
    5.9372   -1.8874    0.0000 O   0  0  0  0  0  0  0  0  0  0  0  0
    5.5770   -3.5816    0.0000 C   0  0  0  0  0  0  0  0  0  0  0  0
    5.3697   -4.5618    0.0000 C   0  0  0  0  0  0  0  0  0  0  0  0
    6.3208   -4.2529    0.0000 C   0  0  0  0  0  0  0  0  0  0  0  0
  1  2  1  0  0  0  0
  2  3  1  0  0  0  0
  3  8  2  0  0  0  0
  3  4  1  0  0  0  0
  4  5  2  0  0  0  0
  5  6  1  0  0  0  0
  6 11  1  0  0  0  0
  6  7  2  0  0  0  0
  7  8  1  0  0  0  0
  7  9  1  0  0  0  0
  9 10  2  0  0  0  0
 10 11  1  0  0  0  0
  9 12  1  0  0  0  0
 12 13  1  0  0  0  0
 13 14  1  0  0  0  0
 14 15  1  0  0  0  0
 15 16  2  0  0  0  0
 15 17  1  0  0  0  0
 17 19  1  0  0  0  0
 17 18  1  0  0  0  0
 18 19  1  0  0  0  0
M  END
$$$$
s_240690b____16900534____3025698
  -OEChem-03222016482D

 17 18  0     0  0  0  0  0  0999 V2000
   -0.0000    1.0058    0.0000 C   0  0  0  0  0  0  0  0  0  0  0  0
    0.8680    1.5138    0.0000 C   0  0  0  0  0  0  0  0  0  0  0  0
    1.7360    1.0058    0.0000 C   0  0  0  0  0  0  0  0  0  0  0  0
    1.7360   -0.0012    0.0000 C   0  0  0  0  0  0  0  0  0  0  0  0
    0.8680   -0.4978    0.0000 C   0  0  0  0  0  0  0  0  0  0  0  0
    0.0000    0.0000    0.0000 C   0  0  0  0  0  0  0  0  0  0  0  0
    0.8675   -1.4978    0.0000 F   0  0  0  0  0  0  0  0  0  0  0  0
    2.6938   -0.3125    0.0000 C   0  0  0  0  0  0  0  0  0  0  0  0
    3.2858    0.5023    0.0000 C   0  0  0  0  0  0  0  0  0  0  0  0
    2.6938    1.3169    0.0000 N   0  0  0  0  0  0  0  0  0  0  0  0
    3.0028   -1.2636    0.0000 C   0  0  0  0  0  0  0  0  0  0  0  0
    3.9809   -1.4715    0.0000 C   0  0  0  0  0  0  0  0  0  0  0  0
    4.2899   -2.4226    0.0000 N   0  0  0  0  0  0  0  0  0  0  0  0
    5.2680   -2.6306    0.0000 C   0  0  0  0  0  0  0  0  0  0  0  0
    5.9372   -1.8874    0.0000 O   0  0  0  0  0  0  0  0  0  0  0  0
    5.5770   -3.5816    0.0000 C   0  0  0  0  0  0  0  0  0  0  0  0
    6.5551   -3.7896    0.0000 N   0  3  0  0  0  0  0  0  0  0  0  0
  1  6  2  0  0  0  0
  1  2  1  0  0  0  0
  2  3  2  0  0  0  0
  3 10  1  0  0  0  0
  3  4  1  0  0  0  0
  4  5  2  0  0  0  0
  5  6  1  0  0  0  0
  5  7  1  0  0  0  0
  4  8  1  0  0  0  0
  8  9  2  0  0  0  0
  9 10  1  0  0  0  0
  8 11  1  0  0  0  0
 11 12  1  0  0  0  0
 12 13  1  0  0  0  0
 13 14  1  0  0  0  0
 14 15  2  0  0  0  0
 14 16  1  0  0  0  0
 16 17  1  0  0  0  0
M  CHG  1  17   1
M  END
$$$$
EN300-75859
  -OEChem-03222016482D

 14 15  0     0  0  0  0  0  0999 V2000
   -1.7320   -0.0025    0.0000 C   0  0  0  0  0  0  0  0  0  0  0  0
   -0.8653   -0.5013    0.0000 O   0  0  0  0  0  0  0  0  0  0  0  0
    0.0000    0.0000    0.0000 C   0  0  0  0  0  0  0  0  0  0  0  0
   -0.0000    1.0058    0.0000 C   0  0  0  0  0  0  0  0  0  0  0  0
    0.8680    1.5138    0.0000 C   0  0  0  0  0  0  0  0  0  0  0  0
    1.7360    1.0058    0.0000 C   0  0  0  0  0  0  0  0  0  0  0  0
    1.7360   -0.0012    0.0000 C   0  0  0  0  0  0  0  0  0  0  0  0
    0.8680   -0.4978    0.0000 C   0  0  0  0  0  0  0  0  0  0  0  0
    2.6938   -0.3125    0.0000 C   0  0  0  0  0  0  0  0  0  0  0  0
    3.2858    0.5023    0.0000 C   0  0  0  0  0  0  0  0  0  0  0  0
    2.6938    1.3169    0.0000 N   0  0  0  0  0  0  0  0  0  0  0  0
    3.0028   -1.2636    0.0000 C   0  0  0  0  0  0  0  0  0  0  0  0
    3.9809   -1.4715    0.0000 C   0  0  0  0  0  0  0  0  0  0  0  0
    4.2899   -2.4226    0.0000 N   0  3  0  0  0  0  0  0  0  0  0  0
  1  2  1  0  0  0  0
  2  3  1  0  0  0  0
  3  8  2  0  0  0  0
  3  4  1  0  0  0  0
  4  5  2  0  0  0  0
  5  6  1  0  0  0  0
  6 11  1  0  0  0  0
  6  7  2  0  0  0  0
  7  8  1  0  0  0  0
  7  9  1  0  0  0  0
  9 10  2  0  0  0  0
 10 11  1  0  0  0  0
  9 12  1  0  0  0  0
 12 13  1  0  0  0  0
 13 14  1  0  0  0  0
M  CHG  1  14   1
M  END
$$$$
s_270004____9164178____16621896
  -OEChem-03222016482D

 18 19  0     1  0  0  0  0  0999 V2000
    5.7860   -2.0956    0.0000 C   0  0  0  0  0  0  0  0  0  0  0  0
    6.2859   -1.2296    0.0000 C   0  0  3  0  0  0  0  0  0  0  0  0
    5.7859   -0.3636    0.0000 C   0  0  0  0  0  0  0  0  0  0  0  0
    4.7859   -0.3636    0.0000 N   0  3  0  0  0  0  0  0  0  0  0  0
    4.2858    0.5024    0.0000 C   0  0  0  0  0  0  0  0  0  0  0  0
    3.2858    0.5023    0.0000 C   0  0  0  0  0  0  0  0  0  0  0  0
    2.6938   -0.3125    0.0000 C   0  0  0  0  0  0  0  0  0  0  0  0
    1.7360   -0.0012    0.0000 C   0  0  0  0  0  0  0  0  0  0  0  0
    0.8680   -0.4978    0.0000 C   0  0  0  0  0  0  0  0  0  0  0  0
    0.0000    0.0000    0.0000 C   0  0  0  0  0  0  0  0  0  0  0  0
    0.0000    1.0058    0.0000 C   0  0  0  0  0  0  0  0  0  0  0  0
    0.8680    1.5138    0.0000 C   0  0  0  0  0  0  0  0  0  0  0  0
    1.7360    1.0058    0.0000 C   0  0  0  0  0  0  0  0  0  0  0  0
    2.6938    1.3169    0.0000 N   0  0  0  0  0  0  0  0  0  0  0  0
   -0.8653   -0.5013    0.0000 O   0  0  0  0  0  0  0  0  0  0  0  0
   -0.8639   -1.5013    0.0000 C   0  0  0  0  0  0  0  0  0  0  0  0
    7.2859   -1.2295    0.0000 O   0  0  0  0  0  0  0  0  0  0  0  0
    7.7860   -2.0955    0.0000 C   0  0  0  0  0  0  0  0  0  0  0  0
  1  2  1  0  0  0  0
  2  3  1  0  0  0  0
  3  4  1  0  0  0  0
  4  5  1  0  0  0  0
  5  6  1  0  0  0  0
  6 14  1  0  0  0  0
  6  7  2  0  0  0  0
  7  8  1  0  0  0  0
  8 13  2  0  0  0  0
  8  9  1  0  0  0  0
  9 10  2  0  0  0  0
 10 11  1  0  0  0  0
 11 12  2  0  0  0  0
 12 13  1  0  0  0  0
 13 14  1  0  0  0  0
 10 15  1  0  0  0  0
 15 16  1  0  0  0  0
  2 17  1  0  0  0  0
 17 18  1  0  0  0  0
M  CHG  1   4   1
M  END
$$$$
s_512____4862204____13025528
  -OEChem-03222016482D

 21 22  0     0  0  0  0  0  0999 V2000
    0.0012   -1.9973    0.0000 C   0  0  0  0  0  0  0  0  0  0  0  0
    0.8675   -1.4978    0.0000 O   0  0  0  0  0  0  0  0  0  0  0  0
    0.8680   -0.4978    0.0000 C   0  0  0  0  0  0  0  0  0  0  0  0
    0.0000    0.0000    0.0000 C   0  0  0  0  0  0  0  0  0  0  0  0
   -0.0000    1.0058    0.0000 C   0  0  0  0  0  0  0  0  0  0  0  0
    0.8680    1.5138    0.0000 C   0  0  0  0  0  0  0  0  0  0  0  0
    1.7360    1.0058    0.0000 C   0  0  0  0  0  0  0  0  0  0  0  0
    1.7360   -0.0012    0.0000 C   0  0  0  0  0  0  0  0  0  0  0  0
    2.6938   -0.3125    0.0000 C   0  0  0  0  0  0  0  0  0  0  0  0
    3.2858    0.5023    0.0000 C   0  0  0  0  0  0  0  0  0  0  0  0
    2.6938    1.3169    0.0000 N   0  0  0  0  0  0  0  0  0  0  0  0
    3.0028   -1.2636    0.0000 C   0  0  0  0  0  0  0  0  0  0  0  0
    3.9809   -1.4715    0.0000 C   0  0  0  0  0  0  0  0  0  0  0  0
    4.2899   -2.4226    0.0000 N   0  0  0  0  0  0  0  0  0  0  0  0
    5.2680   -2.6306    0.0000 C   0  0  0  0  0  0  0  0  0  0  0  0
    5.9372   -1.8874    0.0000 O   0  0  0  0  0  0  0  0  0  0  0  0
    5.5770   -3.5816    0.0000 N   0  0  0  0  0  0  0  0  0  0  0  0
    6.5551   -3.7896    0.0000 C   0  0  0  0  0  0  0  0  0  0  0  0
    6.8641   -4.7407    0.0000 C   0  0  0  0  0  0  0  0  0  0  0  0
    7.8422   -4.9486    0.0000 C   0  0  0  0  0  0  0  0  0  0  0  0
    8.8204   -5.1566    0.0000 C   0  0  0  0  0  0  0  0  0  0  0  0
  1  2  1  0  0  0  0
  2  3  1  0  0  0  0
  3  8  2  0  0  0  0
  3  4  1  0  0  0  0
  4  5  2  0  0  0  0
  5  6  1  0  0  0  0
  6  7  2  0  0  0  0
  7 11  1  0  0  0  0
  7  8  1  0  0  0  0
  8  9  1  0  0  0  0
  9 10  2  0  0  0  0
 10 11  1  0  0  0  0
  9 12  1  0  0  0  0
 12 13  1  0  0  0  0
 13 14  1  0  0  0  0
 14 15  1  0  0  0  0
 15 16  2  0  0  0  0
 15 17  1  0  0  0  0
 17 18  1  0  0  0  0
 18 19  1  0  0  0  0
 19 20  1  0  0  0  0
 20 21  3  0  0  0  0
M  END
$$$$
s_22____13025516____7941096
  -OEChem-03222016482D

 19 20  0     1  0  0  0  0  0999 V2000
    4.9078   -4.3247    0.0000 C   0  0  0  0  0  0  0  0  0  0  0  0
    5.5770   -3.5816    0.0000 C   0  0  3  0  0  0  0  0  0  0  0  0
    5.2680   -2.6306    0.0000 C   0  0  0  0  0  0  0  0  0  0  0  0
    5.9372   -1.8874    0.0000 O   0  0  0  0  0  0  0  0  0  0  0  0
    4.2899   -2.4226    0.0000 N   0  0  0  0  0  0  0  0  0  0  0  0
    3.9809   -1.4715    0.0000 C   0  0  0  0  0  0  0  0  0  0  0  0
    3.0028   -1.2636    0.0000 C   0  0  0  0  0  0  0  0  0  0  0  0
    2.6938   -0.3125    0.0000 C   0  0  0  0  0  0  0  0  0  0  0  0
    3.2858    0.5023    0.0000 C   0  0  0  0  0  0  0  0  0  0  0  0
    2.6938    1.3169    0.0000 N   0  0  0  0  0  0  0  0  0  0  0  0
    1.7360    1.0058    0.0000 C   0  0  0  0  0  0  0  0  0  0  0  0
    1.7360   -0.0012    0.0000 C   0  0  0  0  0  0  0  0  0  0  0  0
    0.8680   -0.4978    0.0000 C   0  0  0  0  0  0  0  0  0  0  0  0
    0.0000    0.0000    0.0000 C   0  0  0  0  0  0  0  0  0  0  0  0
   -0.0000    1.0058    0.0000 C   0  0  0  0  0  0  0  0  0  0  0  0
    0.8680    1.5138    0.0000 C   0  0  0  0  0  0  0  0  0  0  0  0
    0.8675   -1.4978    0.0000 O   0  0  0  0  0  0  0  0  0  0  0  0
    1.7332   -1.9983    0.0000 C   0  0  0  0  0  0  0  0  0  0  0  0
    6.5551   -3.7896    0.0000 O   0  0  0  0  0  0  0  0  0  0  0  0
  1  2  1  0  0  0  0
  2  3  1  0  0  0  0
  3  4  2  0  0  0  0
  3  5  1  0  0  0  0
  5  6  1  0  0  0  0
  6  7  1  0  0  0  0
  7  8  1  0  0  0  0
  8 12  1  0  0  0  0
  8  9  2  0  0  0  0
  9 10  1  0  0  0  0
 10 11  1  0  0  0  0
 11 16  2  0  0  0  0
 11 12  1  0  0  0  0
 12 13  2  0  0  0  0
 13 14  1  0  0  0  0
 14 15  2  0  0  0  0
 15 16  1  0  0  0  0
 13 17  1  0  0  0  0
 17 18  1  0  0  0  0
  2 19  1  0  0  0  0
M  END
$$$$
s_22____15506616____3124140
  -OEChem-03222016482D

 21 22  0     0  0  0  0  0  0999 V2000
    8.1512   -5.8997    0.0000 C   0  0  0  0  0  0  0  0  0  0  0  0
    7.8422   -4.9486    0.0000 C   0  0  0  0  0  0  0  0  0  0  0  0
    6.8641   -4.7407    0.0000 O   0  0  0  0  0  0  0  0  0  0  0  0
    6.5551   -3.7896    0.0000 C   0  0  0  0  0  0  0  0  0  0  0  0
    5.5770   -3.5816    0.0000 C   0  0  0  0  0  0  0  0  0  0  0  0
    5.2680   -2.6306    0.0000 C   0  0  0  0  0  0  0  0  0  0  0  0
    5.9372   -1.8874    0.0000 O   0  0  0  0  0  0  0  0  0  0  0  0
    4.2899   -2.4226    0.0000 N   0  0  0  0  0  0  0  0  0  0  0  0
    3.9809   -1.4715    0.0000 C   0  0  0  0  0  0  0  0  0  0  0  0
    3.0028   -1.2636    0.0000 C   0  0  0  0  0  0  0  0  0  0  0  0
    2.6938   -0.3125    0.0000 C   0  0  0  0  0  0  0  0  0  0  0  0
    3.2858    0.5023    0.0000 C   0  0  0  0  0  0  0  0  0  0  0  0
    2.6938    1.3169    0.0000 N   0  0  0  0  0  0  0  0  0  0  0  0
    1.7360    1.0058    0.0000 C   0  0  0  0  0  0  0  0  0  0  0  0
    1.7360   -0.0012    0.0000 C   0  0  0  0  0  0  0  0  0  0  0  0
    0.8680   -0.4978    0.0000 C   0  0  0  0  0  0  0  0  0  0  0  0
    0.0000    0.0000    0.0000 C   0  0  0  0  0  0  0  0  0  0  0  0
   -0.0000    1.0058    0.0000 C   0  0  0  0  0  0  0  0  0  0  0  0
    0.8680    1.5138    0.0000 C   0  0  0  0  0  0  0  0  0  0  0  0
    0.8680    2.5138    0.0000 O   0  0  0  0  0  0  0  0  0  0  0  0
    0.0020    3.0138    0.0000 C   0  0  0  0  0  0  0  0  0  0  0  0
  1  2  1  0  0  0  0
  2  3  1  0  0  0  0
  3  4  1  0  0  0  0
  4  5  1  0  0  0  0
  5  6  1  0  0  0  0
  6  7  2  0  0  0  0
  6  8  1  0  0  0  0
  8  9  1  0  0  0  0
  9 10  1  0  0  0  0
 10 11  1  0  0  0  0
 11 15  1  0  0  0  0
 11 12  2  0  0  0  0
 12 13  1  0  0  0  0
 13 14  1  0  0  0  0
 14 19  2  0  0  0  0
 14 15  1  0  0  0  0
 15 16  2  0  0  0  0
 16 17  1  0  0  0  0
 17 18  2  0  0  0  0
 18 19  1  0  0  0  0
 19 20  1  0  0  0  0
 20 21  1  0  0  0  0
M  END
$$$$
s_270062____15561864____8147258
  -OEChem-03222016482D

 19 20  0     0  0  0  0  0  0999 V2000
    4.1889   -0.4934    0.0000 C   0  0  0  0  0  0  0  0  0  0  0  0
    3.9809   -1.4715    0.0000 C   0  0  0  0  0  0  0  0  0  0  0  0
    3.7729   -2.4497    0.0000 C   0  0  0  0  0  0  0  0  0  0  0  0
    3.0028   -1.2636    0.0000 C   0  0  0  0  0  0  0  0  0  0  0  0
    2.6938   -0.3125    0.0000 C   0  0  0  0  0  0  0  0  0  0  0  0
    3.2858    0.5023    0.0000 C   0  0  0  0  0  0  0  0  0  0  0  0
    2.6938    1.3169    0.0000 N   0  0  0  0  0  0  0  0  0  0  0  0
    1.7360    1.0058    0.0000 C   0  0  0  0  0  0  0  0  0  0  0  0
    1.7360   -0.0012    0.0000 C   0  0  0  0  0  0  0  0  0  0  0  0
    0.8680   -0.4978    0.0000 C   0  0  0  0  0  0  0  0  0  0  0  0
    0.0000    0.0000    0.0000 C   0  0  0  0  0  0  0  0  0  0  0  0
   -0.0000    1.0058    0.0000 C   0  0  0  0  0  0  0  0  0  0  0  0
    0.8680    1.5138    0.0000 C   0  0  0  0  0  0  0  0  0  0  0  0
    0.8675   -1.4978    0.0000 Br  0  0  0  0  0  0  0  0  0  0  0  0
    4.9590   -1.6795    0.0000 N   0  0  0  0  0  0  0  0  0  0  0  0
    5.2680   -2.6306    0.0000 C   0  0  0  0  0  0  0  0  0  0  0  0
    4.5989   -3.3737    0.0000 O   0  0  0  0  0  0  0  0  0  0  0  0
    6.2462   -2.8385    0.0000 C   0  0  0  0  0  0  0  0  0  0  0  0
    6.5551   -3.7896    0.0000 Cl  0  0  0  0  0  0  0  0  0  0  0  0
  1  2  1  0  0  0  0
  2  3  1  0  0  0  0
  2  4  1  0  0  0  0
  4  5  1  0  0  0  0
  5  9  1  0  0  0  0
  5  6  2  0  0  0  0
  6  7  1  0  0  0  0
  7  8  1  0  0  0  0
  8 13  2  0  0  0  0
  8  9  1  0  0  0  0
  9 10  2  0  0  0  0
 10 11  1  0  0  0  0
 11 12  2  0  0  0  0
 12 13  1  0  0  0  0
 10 14  1  0  0  0  0
  2 15  1  0  0  0  0
 15 16  1  0  0  0  0
 16 17  2  0  0  0  0
 16 18  1  0  0  0  0
 18 19  1  0  0  0  0
M  END
$$$$
s_22____5635330____337030
  -OEChem-03222016482D

 18 19  0     0  0  0  0  0  0999 V2000
    0.8680    2.5138    0.0000 C   0  0  0  0  0  0  0  0  0  0  0  0
    0.8680    1.5138    0.0000 C   0  0  0  0  0  0  0  0  0  0  0  0
    0.0000    1.0058    0.0000 C   0  0  0  0  0  0  0  0  0  0  0  0
    0.0000    0.0000    0.0000 C   0  0  0  0  0  0  0  0  0  0  0  0
    0.8680   -0.4978    0.0000 C   0  0  0  0  0  0  0  0  0  0  0  0
    1.7360   -0.0012    0.0000 C   0  0  0  0  0  0  0  0  0  0  0  0
    1.7360    1.0058    0.0000 C   0  0  0  0  0  0  0  0  0  0  0  0
    2.6938    1.3169    0.0000 N   0  0  0  0  0  0  0  0  0  0  0  0
    3.2858    0.5023    0.0000 C   0  0  0  0  0  0  0  0  0  0  0  0
    2.6938   -0.3125    0.0000 C   0  0  0  0  0  0  0  0  0  0  0  0
    3.0028   -1.2636    0.0000 C   0  0  0  0  0  0  0  0  0  0  0  0
    3.9809   -1.4715    0.0000 C   0  0  0  0  0  0  0  0  0  0  0  0
    4.2899   -2.4226    0.0000 N   0  0  0  0  0  0  0  0  0  0  0  0
    5.2680   -2.6306    0.0000 C   0  0  0  0  0  0  0  0  0  0  0  0
    5.9372   -1.8874    0.0000 O   0  0  0  0  0  0  0  0  0  0  0  0
    5.5770   -3.5816    0.0000 C   0  0  0  0  0  0  0  0  0  0  0  0
    6.5551   -3.7896    0.0000 C   0  0  0  0  0  0  0  0  0  0  0  0
    4.9078   -4.3247    0.0000 C   0  0  0  0  0  0  0  0  0  0  0  0
  1  2  1  0  0  0  0
  2  7  2  0  0  0  0
  2  3  1  0  0  0  0
  3  4  2  0  0  0  0
  4  5  1  0  0  0  0
  5  6  2  0  0  0  0
  6 10  1  0  0  0  0
  6  7  1  0  0  0  0
  7  8  1  0  0  0  0
  8  9  1  0  0  0  0
  9 10  2  0  0  0  0
 10 11  1  0  0  0  0
 11 12  1  0  0  0  0
 12 13  1  0  0  0  0
 13 14  1  0  0  0  0
 14 15  2  0  0  0  0
 14 16  1  0  0  0  0
 16 17  1  0  0  0  0
 16 18  1  0  0  0  0
M  END
$$$$
s_22____4839448____15789270
  -OEChem-03222016482D

 20 21  0     0  0  0  0  0  0999 V2000
   -1.7320   -0.0025    0.0000 C   0  0  0  0  0  0  0  0  0  0  0  0
   -0.8653   -0.5013    0.0000 O   0  0  0  0  0  0  0  0  0  0  0  0
    0.0000    0.0000    0.0000 C   0  0  0  0  0  0  0  0  0  0  0  0
   -0.0000    1.0058    0.0000 C   0  0  0  0  0  0  0  0  0  0  0  0
    0.8680    1.5138    0.0000 C   0  0  0  0  0  0  0  0  0  0  0  0
    1.7360    1.0058    0.0000 C   0  0  0  0  0  0  0  0  0  0  0  0
    1.7360   -0.0012    0.0000 C   0  0  0  0  0  0  0  0  0  0  0  0
    0.8680   -0.4978    0.0000 C   0  0  0  0  0  0  0  0  0  0  0  0
    2.6938   -0.3125    0.0000 C   0  0  0  0  0  0  0  0  0  0  0  0
    3.2858    0.5023    0.0000 C   0  0  0  0  0  0  0  0  0  0  0  0
    2.6938    1.3169    0.0000 N   0  0  0  0  0  0  0  0  0  0  0  0
    3.0028   -1.2636    0.0000 C   0  0  0  0  0  0  0  0  0  0  0  0
    3.9809   -1.4715    0.0000 C   0  0  0  0  0  0  0  0  0  0  0  0
    4.2899   -2.4226    0.0000 N   0  0  0  0  0  0  0  0  0  0  0  0
    5.2680   -2.6306    0.0000 C   0  0  0  0  0  0  0  0  0  0  0  0
    5.9372   -1.8874    0.0000 O   0  0  0  0  0  0  0  0  0  0  0  0
    5.5770   -3.5816    0.0000 C   0  0  0  0  0  0  0  0  0  0  0  0
    6.5551   -3.7896    0.0000 N   0  0  0  0  0  0  0  0  0  0  0  0
    6.8641   -4.7407    0.0000 N   0  3  0  0  0  0  0  0  0  0  0  0
    7.1731   -5.6917    0.0000 N   0  5  0  0  0  0  0  0  0  0  0  0
  1  2  1  0  0  0  0
  2  3  1  0  0  0  0
  3  8  2  0  0  0  0
  3  4  1  0  0  0  0
  4  5  2  0  0  0  0
  5  6  1  0  0  0  0
  6 11  1  0  0  0  0
  6  7  2  0  0  0  0
  7  8  1  0  0  0  0
  7  9  1  0  0  0  0
  9 10  2  0  0  0  0
 10 11  1  0  0  0  0
  9 12  1  0  0  0  0
 12 13  1  0  0  0  0
 13 14  1  0  0  0  0
 14 15  1  0  0  0  0
 15 16  2  0  0  0  0
 15 17  1  0  0  0  0
 17 18  1  0  0  0  0
 18 19  2  0  0  0  0
 19 20  2  0  0  0  0
M  CHG  2  19   1  20  -1
M  END
$$$$
EN300-362556
  -OEChem-03222016482D

 14 15  0     1  0  0  0  0  0999 V2000
    3.6207   -3.1657    0.0000 C   0  0  0  0  0  0  0  0  0  0  0  0
    4.2899   -2.4226    0.0000 C   0  0  3  0  0  0  0  0  0  0  0  0
    3.9809   -1.4715    0.0000 C   0  0  0  0  0  0  0  0  0  0  0  0
    3.0028   -1.2636    0.0000 C   0  0  0  0  0  0  0  0  0  0  0  0
    2.6938   -0.3125    0.0000 C   0  0  0  0  0  0  0  0  0  0  0  0
    3.2858    0.5023    0.0000 C   0  0  0  0  0  0  0  0  0  0  0  0
    2.6938    1.3169    0.0000 N   0  0  0  0  0  0  0  0  0  0  0  0
    1.7360    1.0058    0.0000 C   0  0  0  0  0  0  0  0  0  0  0  0
    1.7360   -0.0012    0.0000 C   0  0  0  0  0  0  0  0  0  0  0  0
    0.8680   -0.4978    0.0000 C   0  0  0  0  0  0  0  0  0  0  0  0
    0.0000    0.0000    0.0000 C   0  0  0  0  0  0  0  0  0  0  0  0
   -0.0000    1.0058    0.0000 C   0  0  0  0  0  0  0  0  0  0  0  0
    0.8680    1.5138    0.0000 C   0  0  0  0  0  0  0  0  0  0  0  0
    5.2680   -2.6306    0.0000 O   0  0  0  0  0  0  0  0  0  0  0  0
  1  2  1  0  0  0  0
  2  3  1  0  0  0  0
  3  4  1  0  0  0  0
  4  5  1  0  0  0  0
  5  9  1  0  0  0  0
  5  6  2  0  0  0  0
  6  7  1  0  0  0  0
  7  8  1  0  0  0  0
  8 13  2  0  0  0  0
  8  9  1  0  0  0  0
  9 10  2  0  0  0  0
 10 11  1  0  0  0  0
 11 12  2  0  0  0  0
 12 13  1  0  0  0  0
  2 14  1  0  0  0  0
M  END
$$$$
s_22____4839448____8794444
  -OEChem-03222016482D

 19 20  0     0  0  0  0  0  0999 V2000
   -1.7320   -0.0025    0.0000 C   0  0  0  0  0  0  0  0  0  0  0  0
   -0.8653   -0.5013    0.0000 O   0  0  0  0  0  0  0  0  0  0  0  0
    0.0000    0.0000    0.0000 C   0  0  0  0  0  0  0  0  0  0  0  0
   -0.0000    1.0058    0.0000 C   0  0  0  0  0  0  0  0  0  0  0  0
    0.8680    1.5138    0.0000 C   0  0  0  0  0  0  0  0  0  0  0  0
    1.7360    1.0058    0.0000 C   0  0  0  0  0  0  0  0  0  0  0  0
    1.7360   -0.0012    0.0000 C   0  0  0  0  0  0  0  0  0  0  0  0
    0.8680   -0.4978    0.0000 C   0  0  0  0  0  0  0  0  0  0  0  0
    2.6938   -0.3125    0.0000 C   0  0  0  0  0  0  0  0  0  0  0  0
    3.2858    0.5023    0.0000 C   0  0  0  0  0  0  0  0  0  0  0  0
    2.6938    1.3169    0.0000 N   0  0  0  0  0  0  0  0  0  0  0  0
    3.0028   -1.2636    0.0000 C   0  0  0  0  0  0  0  0  0  0  0  0
    3.9809   -1.4715    0.0000 C   0  0  0  0  0  0  0  0  0  0  0  0
    4.2899   -2.4226    0.0000 N   0  0  0  0  0  0  0  0  0  0  0  0
    5.2680   -2.6306    0.0000 C   0  0  0  0  0  0  0  0  0  0  0  0
    5.9372   -1.8874    0.0000 O   0  0  0  0  0  0  0  0  0  0  0  0
    5.5770   -3.5816    0.0000 C   0  0  0  0  0  0  0  0  0  0  0  0
    6.5551   -3.7896    0.0000 C   0  0  0  0  0  0  0  0  0  0  0  0
    7.5333   -3.9976    0.0000 N   0  0  0  0  0  0  0  0  0  0  0  0
  1  2  1  0  0  0  0
  2  3  1  0  0  0  0
  3  8  2  0  0  0  0
  3  4  1  0  0  0  0
  4  5  2  0  0  0  0
  5  6  1  0  0  0  0
  6 11  1  0  0  0  0
  6  7  2  0  0  0  0
  7  8  1  0  0  0  0
  7  9  1  0  0  0  0
  9 10  2  0  0  0  0
 10 11  1  0  0  0  0
  9 12  1  0  0  0  0
 12 13  1  0  0  0  0
 13 14  1  0  0  0  0
 14 15  1  0  0  0  0
 15 16  2  0  0  0  0
 15 17  1  0  0  0  0
 17 18  1  0  0  0  0
 18 19  3  0  0  0  0
M  END
$$$$
s_512____7932012____15506628
  -OEChem-03222016482D

 21 22  0     0  0  0  0  0  0999 V2000
    7.4820   -6.6428    0.0000 C   0  0  0  0  0  0  0  0  0  0  0  0
    7.1731   -5.6917    0.0000 C   0  0  0  0  0  0  0  0  0  0  0  0
    6.8641   -4.7407    0.0000 C   0  0  0  0  0  0  0  0  0  0  0  0
    6.5551   -3.7896    0.0000 C   0  0  0  0  0  0  0  0  0  0  0  0
    5.5770   -3.5816    0.0000 N   0  0  0  0  0  0  0  0  0  0  0  0
    5.2680   -2.6306    0.0000 C   0  0  0  0  0  0  0  0  0  0  0  0
    5.9372   -1.8874    0.0000 O   0  0  0  0  0  0  0  0  0  0  0  0
    4.2899   -2.4226    0.0000 N   0  0  0  0  0  0  0  0  0  0  0  0
    3.9809   -1.4715    0.0000 C   0  0  0  0  0  0  0  0  0  0  0  0
    3.0028   -1.2636    0.0000 C   0  0  0  0  0  0  0  0  0  0  0  0
    2.6938   -0.3125    0.0000 C   0  0  0  0  0  0  0  0  0  0  0  0
    3.2858    0.5023    0.0000 C   0  0  0  0  0  0  0  0  0  0  0  0
    2.6938    1.3169    0.0000 N   0  0  0  0  0  0  0  0  0  0  0  0
    1.7360    1.0058    0.0000 C   0  0  0  0  0  0  0  0  0  0  0  0
    1.7360   -0.0012    0.0000 C   0  0  0  0  0  0  0  0  0  0  0  0
    0.8680   -0.4978    0.0000 C   0  0  0  0  0  0  0  0  0  0  0  0
    0.0000    0.0000    0.0000 C   0  0  0  0  0  0  0  0  0  0  0  0
   -0.0000    1.0058    0.0000 C   0  0  0  0  0  0  0  0  0  0  0  0
    0.8680    1.5138    0.0000 C   0  0  0  0  0  0  0  0  0  0  0  0
    0.8680    2.5138    0.0000 O   0  0  0  0  0  0  0  0  0  0  0  0
    0.0020    3.0138    0.0000 C   0  0  0  0  0  0  0  0  0  0  0  0
  1  2  1  0  0  0  0
  2  3  3  0  0  0  0
  3  4  1  0  0  0  0
  4  5  1  0  0  0  0
  5  6  1  0  0  0  0
  6  7  2  0  0  0  0
  6  8  1  0  0  0  0
  8  9  1  0  0  0  0
  9 10  1  0  0  0  0
 10 11  1  0  0  0  0
 11 15  1  0  0  0  0
 11 12  2  0  0  0  0
 12 13  1  0  0  0  0
 13 14  1  0  0  0  0
 14 19  2  0  0  0  0
 14 15  1  0  0  0  0
 15 16  2  0  0  0  0
 16 17  1  0  0  0  0
 17 18  2  0  0  0  0
 18 19  1  0  0  0  0
 19 20  1  0  0  0  0
 20 21  1  0  0  0  0
M  END
$$$$
s_22____15506616____58916
  -OEChem-03222016482D

 20 21  0     0  0  0  0  0  0999 V2000
    1.9222   -6.3461    0.0000 C   0  0  0  0  0  0  0  0  0  0  0  0
    1.6132   -5.3951    0.0000 C   0  0  0  0  0  0  0  0  0  0  0  0
    0.6351   -5.1871    0.0000 C   0  0  0  0  0  0  0  0  0  0  0  0
    2.2824   -4.6519    0.0000 C   0  0  0  0  0  0  0  0  0  0  0  0
    1.9734   -3.7009    0.0000 C   0  0  0  0  0  0  0  0  0  0  0  0
    0.9953   -3.4929    0.0000 O   0  0  0  0  0  0  0  0  0  0  0  0
    2.6426   -2.9578    0.0000 N   0  0  0  0  0  0  0  0  0  0  0  0
    2.3336   -2.0067    0.0000 C   0  0  0  0  0  0  0  0  0  0  0  0
    3.0028   -1.2636    0.0000 C   0  0  0  0  0  0  0  0  0  0  0  0
    2.6938   -0.3125    0.0000 C   0  0  0  0  0  0  0  0  0  0  0  0
    3.2858    0.5023    0.0000 C   0  0  0  0  0  0  0  0  0  0  0  0
    2.6938    1.3169    0.0000 N   0  0  0  0  0  0  0  0  0  0  0  0
    1.7360    1.0058    0.0000 C   0  0  0  0  0  0  0  0  0  0  0  0
    1.7360   -0.0012    0.0000 C   0  0  0  0  0  0  0  0  0  0  0  0
    0.8680   -0.4978    0.0000 C   0  0  0  0  0  0  0  0  0  0  0  0
    0.0000    0.0000    0.0000 C   0  0  0  0  0  0  0  0  0  0  0  0
   -0.0000    1.0058    0.0000 C   0  0  0  0  0  0  0  0  0  0  0  0
    0.8680    1.5138    0.0000 C   0  0  0  0  0  0  0  0  0  0  0  0
    0.8680    2.5138    0.0000 O   0  0  0  0  0  0  0  0  0  0  0  0
    0.0020    3.0138    0.0000 C   0  0  0  0  0  0  0  0  0  0  0  0
  1  2  1  0  0  0  0
  2  3  1  0  0  0  0
  2  4  1  0  0  0  0
  4  5  1  0  0  0  0
  5  6  2  0  0  0  0
  5  7  1  0  0  0  0
  7  8  1  0  0  0  0
  8  9  1  0  0  0  0
  9 10  1  0  0  0  0
 10 14  1  0  0  0  0
 10 11  2  0  0  0  0
 11 12  1  0  0  0  0
 12 13  1  0  0  0  0
 13 18  2  0  0  0  0
 13 14  1  0  0  0  0
 14 15  2  0  0  0  0
 15 16  1  0  0  0  0
 16 17  2  0  0  0  0
 17 18  1  0  0  0  0
 18 19  1  0  0  0  0
 19 20  1  0  0  0  0
M  END
$$$$
s_22____13909752____58887
  -OEChem-03222016482D

 17 18  0     0  0  0  0  0  0999 V2000
    1.6132   -5.3951    0.0000 C   0  0  0  0  0  0  0  0  0  0  0  0
    2.2824   -4.6519    0.0000 C   0  0  0  0  0  0  0  0  0  0  0  0
    1.9734   -3.7009    0.0000 C   0  0  0  0  0  0  0  0  0  0  0  0
    0.9953   -3.4929    0.0000 O   0  0  0  0  0  0  0  0  0  0  0  0
    2.6426   -2.9578    0.0000 N   0  0  0  0  0  0  0  0  0  0  0  0
    2.3336   -2.0067    0.0000 C   0  0  0  0  0  0  0  0  0  0  0  0
    3.0028   -1.2636    0.0000 C   0  0  0  0  0  0  0  0  0  0  0  0
    2.6938   -0.3125    0.0000 C   0  0  0  0  0  0  0  0  0  0  0  0
    3.2858    0.5023    0.0000 C   0  0  0  0  0  0  0  0  0  0  0  0
    2.6938    1.3169    0.0000 N   0  0  0  0  0  0  0  0  0  0  0  0
    1.7360    1.0058    0.0000 C   0  0  0  0  0  0  0  0  0  0  0  0
    1.7360   -0.0012    0.0000 C   0  0  0  0  0  0  0  0  0  0  0  0
    0.8680   -0.4978    0.0000 C   0  0  0  0  0  0  0  0  0  0  0  0
    0.0000    0.0000    0.0000 C   0  0  0  0  0  0  0  0  0  0  0  0
   -0.0000    1.0058    0.0000 C   0  0  0  0  0  0  0  0  0  0  0  0
    0.8680    1.5138    0.0000 C   0  0  0  0  0  0  0  0  0  0  0  0
   -0.8653   -0.5013    0.0000 O   0  0  0  0  0  0  0  0  0  0  0  0
  1  2  1  0  0  0  0
  2  3  1  0  0  0  0
  3  4  2  0  0  0  0
  3  5  1  0  0  0  0
  5  6  1  0  0  0  0
  6  7  1  0  0  0  0
  7  8  1  0  0  0  0
  8 12  1  0  0  0  0
  8  9  2  0  0  0  0
  9 10  1  0  0  0  0
 10 11  1  0  0  0  0
 11 16  2  0  0  0  0
 11 12  1  0  0  0  0
 12 13  2  0  0  0  0
 13 14  1  0  0  0  0
 14 15  2  0  0  0  0
 15 16  1  0  0  0  0
 14 17  1  0  0  0  0
M  END
$$$$
s_527a____12637914____237535
  -OEChem-03222016482D

 20 21  0     0  0  0  0  0  0999 V2000
    3.9538   -0.9546    0.0000 C   0  0  0  0  0  0  0  0  0  0  0  0
    3.0028   -1.2636    0.0000 C   0  0  0  0  0  0  0  0  0  0  0  0
    2.0517   -1.5725    0.0000 C   0  0  0  0  0  0  0  0  0  0  0  0
    3.3117   -2.2146    0.0000 C   0  0  0  0  0  0  0  0  0  0  0  0
    4.2899   -2.4226    0.0000 N   0  0  0  0  0  0  0  0  0  0  0  0
    4.5989   -3.3737    0.0000 C   0  0  0  0  0  0  0  0  0  0  0  0
    3.9297   -4.1168    0.0000 O   0  0  0  0  0  0  0  0  0  0  0  0
    5.5770   -3.5816    0.0000 C   0  0  0  0  0  0  0  0  0  0  0  0
    5.8860   -4.5327    0.0000 S   0  0  0  0  0  0  0  0  0  0  0  0
    6.8641   -4.7407    0.0000 C   0  0  0  0  0  0  0  0  0  0  0  0
    2.6938   -0.3125    0.0000 C   0  0  0  0  0  0  0  0  0  0  0  0
    3.2858    0.5023    0.0000 C   0  0  0  0  0  0  0  0  0  0  0  0
    2.6938    1.3169    0.0000 N   0  0  0  0  0  0  0  0  0  0  0  0
    1.7360    1.0058    0.0000 C   0  0  0  0  0  0  0  0  0  0  0  0
    1.7360   -0.0012    0.0000 C   0  0  0  0  0  0  0  0  0  0  0  0
    0.8680   -0.4978    0.0000 C   0  0  0  0  0  0  0  0  0  0  0  0
    0.0000    0.0000    0.0000 C   0  0  0  0  0  0  0  0  0  0  0  0
   -0.0000    1.0058    0.0000 C   0  0  0  0  0  0  0  0  0  0  0  0
    0.8680    1.5138    0.0000 C   0  0  0  0  0  0  0  0  0  0  0  0
   -0.8675    1.5032    0.0000 F   0  0  0  0  0  0  0  0  0  0  0  0
  1  2  1  0  0  0  0
  2  3  1  0  0  0  0
  2  4  1  0  0  0  0
  4  5  1  0  0  0  0
  5  6  1  0  0  0  0
  6  7  2  0  0  0  0
  6  8  1  0  0  0  0
  8  9  1  0  0  0  0
  9 10  1  0  0  0  0
  2 11  1  0  0  0  0
 11 15  1  0  0  0  0
 11 12  2  0  0  0  0
 12 13  1  0  0  0  0
 13 14  1  0  0  0  0
 14 19  2  0  0  0  0
 14 15  1  0  0  0  0
 15 16  2  0  0  0  0
 16 17  1  0  0  0  0
 17 18  2  0  0  0  0
 18 19  1  0  0  0  0
 18 20  1  0  0  0  0
M  END
$$$$
s_22____13909752____58866
  -OEChem-03222016482D

 18 19  0     0  0  0  0  0  0999 V2000
    6.8641   -4.7407    0.0000 C   0  0  0  0  0  0  0  0  0  0  0  0
    6.5551   -3.7896    0.0000 C   0  0  0  0  0  0  0  0  0  0  0  0
    5.5770   -3.5816    0.0000 C   0  0  0  0  0  0  0  0  0  0  0  0
    5.2680   -2.6306    0.0000 C   0  0  0  0  0  0  0  0  0  0  0  0
    5.9372   -1.8874    0.0000 O   0  0  0  0  0  0  0  0  0  0  0  0
    4.2899   -2.4226    0.0000 N   0  0  0  0  0  0  0  0  0  0  0  0
    3.9809   -1.4715    0.0000 C   0  0  0  0  0  0  0  0  0  0  0  0
    3.0028   -1.2636    0.0000 C   0  0  0  0  0  0  0  0  0  0  0  0
    2.6938   -0.3125    0.0000 C   0  0  0  0  0  0  0  0  0  0  0  0
    3.2858    0.5023    0.0000 C   0  0  0  0  0  0  0  0  0  0  0  0
    2.6938    1.3169    0.0000 N   0  0  0  0  0  0  0  0  0  0  0  0
    1.7360    1.0058    0.0000 C   0  0  0  0  0  0  0  0  0  0  0  0
    1.7360   -0.0012    0.0000 C   0  0  0  0  0  0  0  0  0  0  0  0
    0.8680   -0.4978    0.0000 C   0  0  0  0  0  0  0  0  0  0  0  0
    0.0000    0.0000    0.0000 C   0  0  0  0  0  0  0  0  0  0  0  0
   -0.0000    1.0058    0.0000 C   0  0  0  0  0  0  0  0  0  0  0  0
    0.8680    1.5138    0.0000 C   0  0  0  0  0  0  0  0  0  0  0  0
   -0.8653   -0.5013    0.0000 O   0  0  0  0  0  0  0  0  0  0  0  0
  1  2  1  0  0  0  0
  2  3  1  0  0  0  0
  3  4  1  0  0  0  0
  4  5  2  0  0  0  0
  4  6  1  0  0  0  0
  6  7  1  0  0  0  0
  7  8  1  0  0  0  0
  8  9  1  0  0  0  0
  9 13  1  0  0  0  0
  9 10  2  0  0  0  0
 10 11  1  0  0  0  0
 11 12  1  0  0  0  0
 12 17  2  0  0  0  0
 12 13  1  0  0  0  0
 13 14  2  0  0  0  0
 14 15  1  0  0  0  0
 15 16  2  0  0  0  0
 16 17  1  0  0  0  0
 15 18  1  0  0  0  0
M  END
$$$$
s_2554____2366562____788524
  -OEChem-03222016482D

 16 17  0     0  0  0  0  0  0999 V2000
    0.0000    0.0000    0.0000 C   0  0  0  0  0  0  0  0  0  0  0  0
    0.8680   -0.4978    0.0000 C   0  0  0  0  0  0  0  0  0  0  0  0
    1.7360   -0.0012    0.0000 C   0  0  0  0  0  0  0  0  0  0  0  0
    1.7360    1.0058    0.0000 C   0  0  0  0  0  0  0  0  0  0  0  0
    0.8680    1.5138    0.0000 C   0  0  0  0  0  0  0  0  0  0  0  0
    0.0000    1.0058    0.0000 C   0  0  0  0  0  0  0  0  0  0  0  0
   -0.8675    1.5032    0.0000 F   0  0  0  0  0  0  0  0  0  0  0  0
    2.6938    1.3169    0.0000 N   0  0  0  0  0  0  0  0  0  0  0  0
    3.2858    0.5023    0.0000 C   0  0  0  0  0  0  0  0  0  0  0  0
    2.6938   -0.3125    0.0000 C   0  0  0  0  0  0  0  0  0  0  0  0
    3.0028   -1.2636    0.0000 C   0  0  0  0  0  0  0  0  0  0  0  0
    3.9809   -1.4715    0.0000 C   0  0  0  0  0  0  0  0  0  0  0  0
    4.2899   -2.4226    0.0000 N   0  0  0  0  0  0  0  0  0  0  0  0
    5.2680   -2.6306    0.0000 C   0  0  0  0  0  0  0  0  0  0  0  0
    5.9372   -1.8874    0.0000 O   0  0  0  0  0  0  0  0  0  0  0  0
    5.5770   -3.5816    0.0000 N   0  0  0  0  0  0  0  0  0  0  0  0
  1  6  2  0  0  0  0
  1  2  1  0  0  0  0
  2  3  2  0  0  0  0
  3 10  1  0  0  0  0
  3  4  1  0  0  0  0
  4  5  2  0  0  0  0
  5  6  1  0  0  0  0
  6  7  1  0  0  0  0
  4  8  1  0  0  0  0
  8  9  1  0  0  0  0
  9 10  2  0  0  0  0
 10 11  1  0  0  0  0
 11 12  1  0  0  0  0
 12 13  1  0  0  0  0
 13 14  1  0  0  0  0
 14 15  2  0  0  0  0
 14 16  1  0  0  0  0
M  END
$$$$
s_22____13978824____15789276
  -OEChem-03222016482D

 21 22  0     0  0  0  0  0  0999 V2000
   -0.8705    2.5032    0.0000 C   0  0  0  0  0  0  0  0  0  0  0  0
   -0.8675    1.5032    0.0000 O   0  0  0  0  0  0  0  0  0  0  0  0
    0.0000    1.0058    0.0000 C   0  0  0  0  0  0  0  0  0  0  0  0
    0.0000    0.0000    0.0000 C   0  0  0  0  0  0  0  0  0  0  0  0
    0.8680   -0.4978    0.0000 C   0  0  0  0  0  0  0  0  0  0  0  0
    1.7360   -0.0012    0.0000 C   0  0  0  0  0  0  0  0  0  0  0  0
    1.7360    1.0058    0.0000 C   0  0  0  0  0  0  0  0  0  0  0  0
    0.8680    1.5138    0.0000 C   0  0  0  0  0  0  0  0  0  0  0  0
    2.6938    1.3169    0.0000 N   0  0  0  0  0  0  0  0  0  0  0  0
    3.2858    0.5023    0.0000 C   0  0  0  0  0  0  0  0  0  0  0  0
    2.6938   -0.3125    0.0000 C   0  0  0  0  0  0  0  0  0  0  0  0
    3.0028   -1.2636    0.0000 C   0  0  0  0  0  0  0  0  0  0  0  0
    3.9809   -1.4715    0.0000 C   0  0  0  0  0  0  0  0  0  0  0  0
    4.2899   -2.4226    0.0000 N   0  0  0  0  0  0  0  0  0  0  0  0
    5.2680   -2.6306    0.0000 C   0  0  0  0  0  0  0  0  0  0  0  0
    5.9372   -1.8874    0.0000 O   0  0  0  0  0  0  0  0  0  0  0  0
    5.5770   -3.5816    0.0000 C   0  0  0  0  0  0  0  0  0  0  0  0
    6.5551   -3.7896    0.0000 C   0  0  0  0  0  0  0  0  0  0  0  0
    6.8641   -4.7407    0.0000 N   0  0  0  0  0  0  0  0  0  0  0  0
    7.8422   -4.9486    0.0000 N   0  3  0  0  0  0  0  0  0  0  0  0
    8.8204   -5.1566    0.0000 N   0  5  0  0  0  0  0  0  0  0  0  0
  1  2  1  0  0  0  0
  2  3  1  0  0  0  0
  3  8  2  0  0  0  0
  3  4  1  0  0  0  0
  4  5  2  0  0  0  0
  5  6  1  0  0  0  0
  6 11  1  0  0  0  0
  6  7  2  0  0  0  0
  7  8  1  0  0  0  0
  7  9  1  0  0  0  0
  9 10  1  0  0  0  0
 10 11  2  0  0  0  0
 11 12  1  0  0  0  0
 12 13  1  0  0  0  0
 13 14  1  0  0  0  0
 14 15  1  0  0  0  0
 15 16  2  0  0  0  0
 15 17  1  0  0  0  0
 17 18  1  0  0  0  0
 18 19  1  0  0  0  0
 19 20  2  0  0  0  0
 20 21  2  0  0  0  0
M  CHG  2  20   1  21  -1
M  END
$$$$
s_22____13909752____60364
  -OEChem-03222016482D

 18 19  0     0  0  0  0  0  0999 V2000
    6.8641   -4.7407    0.0000 C   0  0  0  0  0  0  0  0  0  0  0  0
    6.5551   -3.7896    0.0000 S   0  0  0  0  0  0  0  0  0  0  0  0
    5.5770   -3.5816    0.0000 C   0  0  0  0  0  0  0  0  0  0  0  0
    5.2680   -2.6306    0.0000 C   0  0  0  0  0  0  0  0  0  0  0  0
    5.9372   -1.8874    0.0000 O   0  0  0  0  0  0  0  0  0  0  0  0
    4.2899   -2.4226    0.0000 N   0  0  0  0  0  0  0  0  0  0  0  0
    3.9809   -1.4715    0.0000 C   0  0  0  0  0  0  0  0  0  0  0  0
    3.0028   -1.2636    0.0000 C   0  0  0  0  0  0  0  0  0  0  0  0
    2.6938   -0.3125    0.0000 C   0  0  0  0  0  0  0  0  0  0  0  0
    3.2858    0.5023    0.0000 C   0  0  0  0  0  0  0  0  0  0  0  0
    2.6938    1.3169    0.0000 N   0  0  0  0  0  0  0  0  0  0  0  0
    1.7360    1.0058    0.0000 C   0  0  0  0  0  0  0  0  0  0  0  0
    1.7360   -0.0012    0.0000 C   0  0  0  0  0  0  0  0  0  0  0  0
    0.8680   -0.4978    0.0000 C   0  0  0  0  0  0  0  0  0  0  0  0
    0.0000    0.0000    0.0000 C   0  0  0  0  0  0  0  0  0  0  0  0
   -0.0000    1.0058    0.0000 C   0  0  0  0  0  0  0  0  0  0  0  0
    0.8680    1.5138    0.0000 C   0  0  0  0  0  0  0  0  0  0  0  0
   -0.8653   -0.5013    0.0000 O   0  0  0  0  0  0  0  0  0  0  0  0
  1  2  1  0  0  0  0
  2  3  1  0  0  0  0
  3  4  1  0  0  0  0
  4  5  2  0  0  0  0
  4  6  1  0  0  0  0
  6  7  1  0  0  0  0
  7  8  1  0  0  0  0
  8  9  1  0  0  0  0
  9 13  1  0  0  0  0
  9 10  2  0  0  0  0
 10 11  1  0  0  0  0
 11 12  1  0  0  0  0
 12 17  2  0  0  0  0
 12 13  1  0  0  0  0
 13 14  2  0  0  0  0
 14 15  1  0  0  0  0
 15 16  2  0  0  0  0
 16 17  1  0  0  0  0
 15 18  1  0  0  0  0
M  END
$$$$
s_270062____15428004____15585492
  -OEChem-03222016482D

 18 19  0     0  0  0  0  0  0999 V2000
    1.3042   -4.4440    0.0000 C   0  0  0  0  0  0  0  0  0  0  0  0
    1.9734   -3.7009    0.0000 C   0  0  0  0  0  0  0  0  0  0  0  0
    2.9515   -3.9088    0.0000 O   0  0  0  0  0  0  0  0  0  0  0  0
    1.6644   -2.7498    0.0000 N   0  0  0  0  0  0  0  0  0  0  0  0
    2.3336   -2.0067    0.0000 C   0  0  0  0  0  0  0  0  0  0  0  0
    1.5905   -1.3375    0.0000 C   0  0  0  0  0  0  0  0  0  0  0  0
    3.0767   -2.6759    0.0000 C   0  0  0  0  0  0  0  0  0  0  0  0
    3.0028   -1.2636    0.0000 C   0  0  0  0  0  0  0  0  0  0  0  0
    2.6938   -0.3125    0.0000 C   0  0  0  0  0  0  0  0  0  0  0  0
    3.2858    0.5023    0.0000 C   0  0  0  0  0  0  0  0  0  0  0  0
    2.6938    1.3169    0.0000 N   0  0  0  0  0  0  0  0  0  0  0  0
    1.7360    1.0058    0.0000 C   0  0  0  0  0  0  0  0  0  0  0  0
    1.7360   -0.0012    0.0000 C   0  0  0  0  0  0  0  0  0  0  0  0
    0.8680   -0.4978    0.0000 C   0  0  0  0  0  0  0  0  0  0  0  0
    0.0000    0.0000    0.0000 C   0  0  0  0  0  0  0  0  0  0  0  0
   -0.0000    1.0058    0.0000 C   0  0  0  0  0  0  0  0  0  0  0  0
    0.8680    1.5138    0.0000 C   0  0  0  0  0  0  0  0  0  0  0  0
   -0.8653   -0.5013    0.0000 Br  0  0  0  0  0  0  0  0  0  0  0  0
  1  2  1  0  0  0  0
  2  3  2  0  0  0  0
  2  4  1  0  0  0  0
  4  5  1  0  0  0  0
  5  6  1  0  0  0  0
  5  7  1  0  0  0  0
  5  8  1  0  0  0  0
  8  9  1  0  0  0  0
  9 13  1  0  0  0  0
  9 10  2  0  0  0  0
 10 11  1  0  0  0  0
 11 12  1  0  0  0  0
 12 17  2  0  0  0  0
 12 13  1  0  0  0  0
 13 14  2  0  0  0  0
 14 15  1  0  0  0  0
 15 16  2  0  0  0  0
 16 17  1  0  0  0  0
 15 18  1  0  0  0  0
M  END
$$$$
s_270062____7608398____8147258
  -OEChem-03222016482D

 17 18  0     0  0  0  0  0  0999 V2000
    0.0000    0.0000    0.0000 C   0  0  0  0  0  0  0  0  0  0  0  0
    0.8680   -0.4978    0.0000 C   0  0  0  0  0  0  0  0  0  0  0  0
    1.7360   -0.0012    0.0000 C   0  0  0  0  0  0  0  0  0  0  0  0
    1.7360    1.0058    0.0000 C   0  0  0  0  0  0  0  0  0  0  0  0
    0.8680    1.5138    0.0000 C   0  0  0  0  0  0  0  0  0  0  0  0
    0.0000    1.0058    0.0000 C   0  0  0  0  0  0  0  0  0  0  0  0
   -0.8675    1.5032    0.0000 Cl  0  0  0  0  0  0  0  0  0  0  0  0
    2.6938    1.3169    0.0000 N   0  0  0  0  0  0  0  0  0  0  0  0
    3.2858    0.5023    0.0000 C   0  0  0  0  0  0  0  0  0  0  0  0
    2.6938   -0.3125    0.0000 C   0  0  0  0  0  0  0  0  0  0  0  0
    3.0028   -1.2636    0.0000 C   0  0  0  0  0  0  0  0  0  0  0  0
    3.9809   -1.4715    0.0000 C   0  0  0  0  0  0  0  0  0  0  0  0
    4.2899   -2.4226    0.0000 N   0  0  0  0  0  0  0  0  0  0  0  0
    5.2680   -2.6306    0.0000 C   0  0  0  0  0  0  0  0  0  0  0  0
    5.9372   -1.8874    0.0000 O   0  0  0  0  0  0  0  0  0  0  0  0
    5.5770   -3.5816    0.0000 C   0  0  0  0  0  0  0  0  0  0  0  0
    6.5551   -3.7896    0.0000 Cl  0  0  0  0  0  0  0  0  0  0  0  0
  1  6  2  0  0  0  0
  1  2  1  0  0  0  0
  2  3  2  0  0  0  0
  3 10  1  0  0  0  0
  3  4  1  0  0  0  0
  4  5  2  0  0  0  0
  5  6  1  0  0  0  0
  6  7  1  0  0  0  0
  4  8  1  0  0  0  0
  8  9  1  0  0  0  0
  9 10  2  0  0  0  0
 10 11  1  0  0  0  0
 11 12  1  0  0  0  0
 12 13  1  0  0  0  0
 13 14  1  0  0  0  0
 14 15  2  0  0  0  0
 14 16  1  0  0  0  0
 16 17  1  0  0  0  0
M  END
$$$$
s_512____309924____13025528
  -OEChem-03222016482D

 21 23  0     0  0  0  0  0  0999 V2000
    0.0012   -1.9973    0.0000 C   0  0  0  0  0  0  0  0  0  0  0  0
    0.8675   -1.4978    0.0000 O   0  0  0  0  0  0  0  0  0  0  0  0
    0.8680   -0.4978    0.0000 C   0  0  0  0  0  0  0  0  0  0  0  0
    0.0000    0.0000    0.0000 C   0  0  0  0  0  0  0  0  0  0  0  0
   -0.0000    1.0058    0.0000 C   0  0  0  0  0  0  0  0  0  0  0  0
    0.8680    1.5138    0.0000 C   0  0  0  0  0  0  0  0  0  0  0  0
    1.7360    1.0058    0.0000 C   0  0  0  0  0  0  0  0  0  0  0  0
    1.7360   -0.0012    0.0000 C   0  0  0  0  0  0  0  0  0  0  0  0
    2.6938   -0.3125    0.0000 C   0  0  0  0  0  0  0  0  0  0  0  0
    3.2858    0.5023    0.0000 C   0  0  0  0  0  0  0  0  0  0  0  0
    2.6938    1.3169    0.0000 N   0  0  0  0  0  0  0  0  0  0  0  0
    3.0028   -1.2636    0.0000 C   0  0  0  0  0  0  0  0  0  0  0  0
    3.9809   -1.4715    0.0000 C   0  0  0  0  0  0  0  0  0  0  0  0
    4.2899   -2.4226    0.0000 N   0  0  0  0  0  0  0  0  0  0  0  0
    5.2680   -2.6306    0.0000 C   0  0  0  0  0  0  0  0  0  0  0  0
    5.9372   -1.8874    0.0000 O   0  0  0  0  0  0  0  0  0  0  0  0
    5.5770   -3.5816    0.0000 N   0  0  0  0  0  0  0  0  0  0  0  0
    6.5551   -3.7896    0.0000 C   0  0  0  0  0  0  0  0  0  0  0  0
    6.8641   -4.7407    0.0000 C   0  0  0  0  0  0  0  0  0  0  0  0
    6.6568   -5.7209    0.0000 C   0  0  0  0  0  0  0  0  0  0  0  0
    7.6079   -5.4119    0.0000 C   0  0  0  0  0  0  0  0  0  0  0  0
  1  2  1  0  0  0  0
  2  3  1  0  0  0  0
  3  8  2  0  0  0  0
  3  4  1  0  0  0  0
  4  5  2  0  0  0  0
  5  6  1  0  0  0  0
  6  7  2  0  0  0  0
  7 11  1  0  0  0  0
  7  8  1  0  0  0  0
  8  9  1  0  0  0  0
  9 10  2  0  0  0  0
 10 11  1  0  0  0  0
  9 12  1  0  0  0  0
 12 13  1  0  0  0  0
 13 14  1  0  0  0  0
 14 15  1  0  0  0  0
 15 16  2  0  0  0  0
 15 17  1  0  0  0  0
 17 18  1  0  0  0  0
 18 19  1  0  0  0  0
 19 21  1  0  0  0  0
 19 20  1  0  0  0  0
 20 21  1  0  0  0  0
M  END
$$$$
s_512____4862204____15506628
  -OEChem-03222016482D

 21 22  0     0  0  0  0  0  0999 V2000
    1.7340    3.0138    0.0000 C   0  0  0  0  0  0  0  0  0  0  0  0
    0.8680    2.5138    0.0000 O   0  0  0  0  0  0  0  0  0  0  0  0
    0.8680    1.5138    0.0000 C   0  0  0  0  0  0  0  0  0  0  0  0
    0.0000    1.0058    0.0000 C   0  0  0  0  0  0  0  0  0  0  0  0
    0.0000    0.0000    0.0000 C   0  0  0  0  0  0  0  0  0  0  0  0
    0.8680   -0.4978    0.0000 C   0  0  0  0  0  0  0  0  0  0  0  0
    1.7360   -0.0012    0.0000 C   0  0  0  0  0  0  0  0  0  0  0  0
    1.7360    1.0058    0.0000 C   0  0  0  0  0  0  0  0  0  0  0  0
    2.6938    1.3169    0.0000 N   0  0  0  0  0  0  0  0  0  0  0  0
    3.2858    0.5023    0.0000 C   0  0  0  0  0  0  0  0  0  0  0  0
    2.6938   -0.3125    0.0000 C   0  0  0  0  0  0  0  0  0  0  0  0
    3.0028   -1.2636    0.0000 C   0  0  0  0  0  0  0  0  0  0  0  0
    3.9809   -1.4715    0.0000 C   0  0  0  0  0  0  0  0  0  0  0  0
    4.2899   -2.4226    0.0000 N   0  0  0  0  0  0  0  0  0  0  0  0
    5.2680   -2.6306    0.0000 C   0  0  0  0  0  0  0  0  0  0  0  0
    5.9372   -1.8874    0.0000 O   0  0  0  0  0  0  0  0  0  0  0  0
    5.5770   -3.5816    0.0000 N   0  0  0  0  0  0  0  0  0  0  0  0
    6.5551   -3.7896    0.0000 C   0  0  0  0  0  0  0  0  0  0  0  0
    6.8641   -4.7407    0.0000 C   0  0  0  0  0  0  0  0  0  0  0  0
    7.8422   -4.9486    0.0000 C   0  0  0  0  0  0  0  0  0  0  0  0
    8.8204   -5.1566    0.0000 C   0  0  0  0  0  0  0  0  0  0  0  0
  1  2  1  0  0  0  0
  2  3  1  0  0  0  0
  3  8  2  0  0  0  0
  3  4  1  0  0  0  0
  4  5  2  0  0  0  0
  5  6  1  0  0  0  0
  6  7  2  0  0  0  0
  7 11  1  0  0  0  0
  7  8  1  0  0  0  0
  8  9  1  0  0  0  0
  9 10  1  0  0  0  0
 10 11  2  0  0  0  0
 11 12  1  0  0  0  0
 12 13  1  0  0  0  0
 13 14  1  0  0  0  0
 14 15  1  0  0  0  0
 15 16  2  0  0  0  0
 15 17  1  0  0  0  0
 17 18  1  0  0  0  0
 18 19  1  0  0  0  0
 19 20  1  0  0  0  0
 20 21  3  0  0  0  0
M  END
$$$$
s_22____13025516____10687876
  -OEChem-03222016482D

 21 23  0     0  0  0  0  0  0999 V2000
    0.0012   -1.9973    0.0000 C   0  0  0  0  0  0  0  0  0  0  0  0
    0.8675   -1.4978    0.0000 O   0  0  0  0  0  0  0  0  0  0  0  0
    0.8680   -0.4978    0.0000 C   0  0  0  0  0  0  0  0  0  0  0  0
    0.0000    0.0000    0.0000 C   0  0  0  0  0  0  0  0  0  0  0  0
   -0.0000    1.0058    0.0000 C   0  0  0  0  0  0  0  0  0  0  0  0
    0.8680    1.5138    0.0000 C   0  0  0  0  0  0  0  0  0  0  0  0
    1.7360    1.0058    0.0000 C   0  0  0  0  0  0  0  0  0  0  0  0
    1.7360   -0.0012    0.0000 C   0  0  0  0  0  0  0  0  0  0  0  0
    2.6938   -0.3125    0.0000 C   0  0  0  0  0  0  0  0  0  0  0  0
    3.2858    0.5023    0.0000 C   0  0  0  0  0  0  0  0  0  0  0  0
    2.6938    1.3169    0.0000 N   0  0  0  0  0  0  0  0  0  0  0  0
    3.0028   -1.2636    0.0000 C   0  0  0  0  0  0  0  0  0  0  0  0
    3.9809   -1.4715    0.0000 C   0  0  0  0  0  0  0  0  0  0  0  0
    4.2899   -2.4226    0.0000 N   0  0  0  0  0  0  0  0  0  0  0  0
    5.2680   -2.6306    0.0000 C   0  0  0  0  0  0  0  0  0  0  0  0
    5.9372   -1.8874    0.0000 O   0  0  0  0  0  0  0  0  0  0  0  0
    5.5770   -3.5816    0.0000 C   0  0  0  0  0  0  0  0  0  0  0  0
    6.5551   -3.7896    0.0000 S   0  0  0  0  0  0  0  0  0  0  0  0
    6.8641   -4.7407    0.0000 C   0  0  0  0  0  0  0  0  0  0  0  0
    6.6568   -5.7209    0.0000 C   0  0  0  0  0  0  0  0  0  0  0  0
    7.6079   -5.4119    0.0000 C   0  0  0  0  0  0  0  0  0  0  0  0
  1  2  1  0  0  0  0
  2  3  1  0  0  0  0
  3  8  2  0  0  0  0
  3  4  1  0  0  0  0
  4  5  2  0  0  0  0
  5  6  1  0  0  0  0
  6  7  2  0  0  0  0
  7 11  1  0  0  0  0
  7  8  1  0  0  0  0
  8  9  1  0  0  0  0
  9 10  2  0  0  0  0
 10 11  1  0  0  0  0
  9 12  1  0  0  0  0
 12 13  1  0  0  0  0
 13 14  1  0  0  0  0
 14 15  1  0  0  0  0
 15 16  2  0  0  0  0
 15 17  1  0  0  0  0
 17 18  1  0  0  0  0
 18 19  1  0  0  0  0
 19 21  1  0  0  0  0
 19 20  1  0  0  0  0
 20 21  1  0  0  0  0
M  END
$$$$
s_22____12346432____337030
  -OEChem-03222016482D

 18 19  0     0  0  0  0  0  0999 V2000
    6.5551   -3.7896    0.0000 C   0  0  0  0  0  0  0  0  0  0  0  0
    5.5770   -3.5816    0.0000 C   0  0  0  0  0  0  0  0  0  0  0  0
    4.9078   -4.3247    0.0000 C   0  0  0  0  0  0  0  0  0  0  0  0
    5.2680   -2.6306    0.0000 C   0  0  0  0  0  0  0  0  0  0  0  0
    5.9372   -1.8874    0.0000 O   0  0  0  0  0  0  0  0  0  0  0  0
    4.2899   -2.4226    0.0000 N   0  0  0  0  0  0  0  0  0  0  0  0
    3.9809   -1.4715    0.0000 C   0  0  0  0  0  0  0  0  0  0  0  0
    3.0028   -1.2636    0.0000 C   0  0  0  0  0  0  0  0  0  0  0  0
    2.6938   -0.3125    0.0000 C   0  0  0  0  0  0  0  0  0  0  0  0
    3.2858    0.5023    0.0000 C   0  0  0  0  0  0  0  0  0  0  0  0
    2.6938    1.3169    0.0000 N   0  0  0  0  0  0  0  0  0  0  0  0
    1.7360    1.0058    0.0000 C   0  0  0  0  0  0  0  0  0  0  0  0
    1.7360   -0.0012    0.0000 C   0  0  0  0  0  0  0  0  0  0  0  0
    0.8680   -0.4978    0.0000 C   0  0  0  0  0  0  0  0  0  0  0  0
    0.0000    0.0000    0.0000 C   0  0  0  0  0  0  0  0  0  0  0  0
   -0.0000    1.0058    0.0000 C   0  0  0  0  0  0  0  0  0  0  0  0
    0.8680    1.5138    0.0000 C   0  0  0  0  0  0  0  0  0  0  0  0
    0.8680    2.5138    0.0000 Cl  0  0  0  0  0  0  0  0  0  0  0  0
  1  2  1  0  0  0  0
  2  3  1  0  0  0  0
  2  4  1  0  0  0  0
  4  5  2  0  0  0  0
  4  6  1  0  0  0  0
  6  7  1  0  0  0  0
  7  8  1  0  0  0  0
  8  9  1  0  0  0  0
  9 13  1  0  0  0  0
  9 10  2  0  0  0  0
 10 11  1  0  0  0  0
 11 12  1  0  0  0  0
 12 17  2  0  0  0  0
 12 13  1  0  0  0  0
 13 14  2  0  0  0  0
 14 15  1  0  0  0  0
 15 16  2  0  0  0  0
 16 17  1  0  0  0  0
 17 18  1  0  0  0  0
M  END
$$$$
s_270004____16711614____16621896
  -OEChem-03222016482D

 18 20  0     0  0  0  0  0  0999 V2000
    5.5204   -1.8730    0.0000 C   0  0  0  0  0  0  0  0  0  0  0  0
    6.2859   -1.2296    0.0000 C   0  0  0  0  0  0  0  0  0  0  0  0
    7.0544   -1.8724    0.0000 N   0  0  0  0  0  0  0  0  0  0  0  0
    7.2276   -0.8875    0.0000 N   0  0  0  0  0  0  0  0  0  0  0  0
    5.7859   -0.3636    0.0000 C   0  0  0  0  0  0  0  0  0  0  0  0
    4.7859   -0.3636    0.0000 N   0  3  0  0  0  0  0  0  0  0  0  0
    4.2858    0.5024    0.0000 C   0  0  0  0  0  0  0  0  0  0  0  0
    3.2858    0.5023    0.0000 C   0  0  0  0  0  0  0  0  0  0  0  0
    2.6938   -0.3125    0.0000 C   0  0  0  0  0  0  0  0  0  0  0  0
    1.7360   -0.0012    0.0000 C   0  0  0  0  0  0  0  0  0  0  0  0
    0.8680   -0.4978    0.0000 C   0  0  0  0  0  0  0  0  0  0  0  0
    0.0000    0.0000    0.0000 C   0  0  0  0  0  0  0  0  0  0  0  0
    0.0000    1.0058    0.0000 C   0  0  0  0  0  0  0  0  0  0  0  0
    0.8680    1.5138    0.0000 C   0  0  0  0  0  0  0  0  0  0  0  0
    1.7360    1.0058    0.0000 C   0  0  0  0  0  0  0  0  0  0  0  0
    2.6938    1.3169    0.0000 N   0  0  0  0  0  0  0  0  0  0  0  0
   -0.8653   -0.5013    0.0000 O   0  0  0  0  0  0  0  0  0  0  0  0
   -0.8639   -1.5013    0.0000 C   0  0  0  0  0  0  0  0  0  0  0  0
  1  2  1  0  0  0  0
  2  4  1  0  0  0  0
  2  3  1  0  0  0  0
  3  4  2  0  0  0  0
  2  5  1  0  0  0  0
  5  6  1  0  0  0  0
  6  7  1  0  0  0  0
  7  8  1  0  0  0  0
  8 16  1  0  0  0  0
  8  9  2  0  0  0  0
  9 10  1  0  0  0  0
 10 15  2  0  0  0  0
 10 11  1  0  0  0  0
 11 12  2  0  0  0  0
 12 13  1  0  0  0  0
 13 14  2  0  0  0  0
 14 15  1  0  0  0  0
 15 16  1  0  0  0  0
 12 17  1  0  0  0  0
 17 18  1  0  0  0  0
M  CHG  1   6   1
M  END
$$$$
s_22____4839448____60462
  -OEChem-03222016482D

 20 21  0     0  0  0  0  0  0999 V2000
   -1.7320   -0.0025    0.0000 C   0  0  0  0  0  0  0  0  0  0  0  0
   -0.8653   -0.5013    0.0000 O   0  0  0  0  0  0  0  0  0  0  0  0
    0.0000    0.0000    0.0000 C   0  0  0  0  0  0  0  0  0  0  0  0
   -0.0000    1.0058    0.0000 C   0  0  0  0  0  0  0  0  0  0  0  0
    0.8680    1.5138    0.0000 C   0  0  0  0  0  0  0  0  0  0  0  0
    1.7360    1.0058    0.0000 C   0  0  0  0  0  0  0  0  0  0  0  0
    1.7360   -0.0012    0.0000 C   0  0  0  0  0  0  0  0  0  0  0  0
    0.8680   -0.4978    0.0000 C   0  0  0  0  0  0  0  0  0  0  0  0
    2.6938   -0.3125    0.0000 C   0  0  0  0  0  0  0  0  0  0  0  0
    3.2858    0.5023    0.0000 C   0  0  0  0  0  0  0  0  0  0  0  0
    2.6938    1.3169    0.0000 N   0  0  0  0  0  0  0  0  0  0  0  0
    3.0028   -1.2636    0.0000 C   0  0  0  0  0  0  0  0  0  0  0  0
    3.9809   -1.4715    0.0000 C   0  0  0  0  0  0  0  0  0  0  0  0
    4.2899   -2.4226    0.0000 N   0  0  0  0  0  0  0  0  0  0  0  0
    5.2680   -2.6306    0.0000 C   0  0  0  0  0  0  0  0  0  0  0  0
    5.9372   -1.8874    0.0000 O   0  0  0  0  0  0  0  0  0  0  0  0
    5.5770   -3.5816    0.0000 C   0  0  0  0  0  0  0  0  0  0  0  0
    6.5551   -3.7896    0.0000 C   0  0  0  0  0  0  0  0  0  0  0  0
    6.8641   -4.7407    0.0000 S   0  0  0  0  0  0  0  0  0  0  0  0
    7.8422   -4.9486    0.0000 C   0  0  0  0  0  0  0  0  0  0  0  0
  1  2  1  0  0  0  0
  2  3  1  0  0  0  0
  3  8  2  0  0  0  0
  3  4  1  0  0  0  0
  4  5  2  0  0  0  0
  5  6  1  0  0  0  0
  6 11  1  0  0  0  0
  6  7  2  0  0  0  0
  7  8  1  0  0  0  0
  7  9  1  0  0  0  0
  9 10  2  0  0  0  0
 10 11  1  0  0  0  0
  9 12  1  0  0  0  0
 12 13  1  0  0  0  0
 13 14  1  0  0  0  0
 14 15  1  0  0  0  0
 15 16  2  0  0  0  0
 15 17  1  0  0  0  0
 17 18  1  0  0  0  0
 18 19  1  0  0  0  0
 19 20  1  0  0  0  0
M  END
$$$$
s_240690b____7351080____3025680
  -OEChem-03222016482D

 17 18  0     0  0  0  0  0  0999 V2000
    0.0000    0.0000    0.0000 C   0  0  0  0  0  0  0  0  0  0  0  0
   -0.0000    1.0058    0.0000 C   0  0  0  0  0  0  0  0  0  0  0  0
    0.8680    1.5138    0.0000 C   0  0  0  0  0  0  0  0  0  0  0  0
    1.7360    1.0058    0.0000 C   0  0  0  0  0  0  0  0  0  0  0  0
    1.7360   -0.0012    0.0000 C   0  0  0  0  0  0  0  0  0  0  0  0
    0.8680   -0.4978    0.0000 C   0  0  0  0  0  0  0  0  0  0  0  0
    2.6938   -0.3125    0.0000 C   0  0  0  0  0  0  0  0  0  0  0  0
    3.2858    0.5023    0.0000 C   0  0  0  0  0  0  0  0  0  0  0  0
    2.6938    1.3169    0.0000 N   0  0  0  0  0  0  0  0  0  0  0  0
    3.0028   -1.2636    0.0000 C   0  0  0  0  0  0  0  0  0  0  0  0
    3.9809   -1.4715    0.0000 C   0  0  0  0  0  0  0  0  0  0  0  0
    4.2899   -2.4226    0.0000 N   0  0  0  0  0  0  0  0  0  0  0  0
    5.2680   -2.6306    0.0000 C   0  0  0  0  0  0  0  0  0  0  0  0
    5.9372   -1.8874    0.0000 O   0  0  0  0  0  0  0  0  0  0  0  0
    5.5770   -3.5816    0.0000 C   0  0  0  0  0  0  0  0  0  0  0  0
    6.5551   -3.7896    0.0000 C   0  0  0  0  0  0  0  0  0  0  0  0
    6.8641   -4.7407    0.0000 N   0  3  0  0  0  0  0  0  0  0  0  0
  1  6  2  0  0  0  0
  1  2  1  0  0  0  0
  2  3  2  0  0  0  0
  3  4  1  0  0  0  0
  4  9  1  0  0  0  0
  4  5  2  0  0  0  0
  5  6  1  0  0  0  0
  5  7  1  0  0  0  0
  7  8  2  0  0  0  0
  8  9  1  0  0  0  0
  7 10  1  0  0  0  0
 10 11  1  0  0  0  0
 11 12  1  0  0  0  0
 12 13  1  0  0  0  0
 13 14  2  0  0  0  0
 13 15  1  0  0  0  0
 15 16  1  0  0  0  0
 16 17  1  0  0  0  0
M  CHG  1  17   1
M  END
$$$$
s_22____13025516____13206548
  -OEChem-03222016482D

 20 21  0     0  0  0  0  0  0999 V2000
    6.8641   -4.7407    0.0000 C   0  0  0  0  0  0  0  0  0  0  0  0
    6.5551   -3.7896    0.0000 C   0  0  0  0  0  0  0  0  0  0  0  0
    5.5770   -3.5816    0.0000 C   0  0  0  0  0  0  0  0  0  0  0  0
    4.9078   -4.3247    0.0000 C   0  0  0  0  0  0  0  0  0  0  0  0
    5.2680   -2.6306    0.0000 C   0  0  0  0  0  0  0  0  0  0  0  0
    5.9372   -1.8874    0.0000 O   0  0  0  0  0  0  0  0  0  0  0  0
    4.2899   -2.4226    0.0000 N   0  0  0  0  0  0  0  0  0  0  0  0
    3.9809   -1.4715    0.0000 C   0  0  0  0  0  0  0  0  0  0  0  0
    3.0028   -1.2636    0.0000 C   0  0  0  0  0  0  0  0  0  0  0  0
    2.6938   -0.3125    0.0000 C   0  0  0  0  0  0  0  0  0  0  0  0
    3.2858    0.5023    0.0000 C   0  0  0  0  0  0  0  0  0  0  0  0
    2.6938    1.3169    0.0000 N   0  0  0  0  0  0  0  0  0  0  0  0
    1.7360    1.0058    0.0000 C   0  0  0  0  0  0  0  0  0  0  0  0
    1.7360   -0.0012    0.0000 C   0  0  0  0  0  0  0  0  0  0  0  0
    0.8680   -0.4978    0.0000 C   0  0  0  0  0  0  0  0  0  0  0  0
    0.0000    0.0000    0.0000 C   0  0  0  0  0  0  0  0  0  0  0  0
   -0.0000    1.0058    0.0000 C   0  0  0  0  0  0  0  0  0  0  0  0
    0.8680    1.5138    0.0000 C   0  0  0  0  0  0  0  0  0  0  0  0
    0.8675   -1.4978    0.0000 O   0  0  0  0  0  0  0  0  0  0  0  0
    1.7332   -1.9983    0.0000 C   0  0  0  0  0  0  0  0  0  0  0  0
  1  2  1  0  0  0  0
  2  3  1  0  0  0  0
  3  4  2  0  0  0  0
  3  5  1  0  0  0  0
  5  6  2  0  0  0  0
  5  7  1  0  0  0  0
  7  8  1  0  0  0  0
  8  9  1  0  0  0  0
  9 10  1  0  0  0  0
 10 14  1  0  0  0  0
 10 11  2  0  0  0  0
 11 12  1  0  0  0  0
 12 13  1  0  0  0  0
 13 18  2  0  0  0  0
 13 14  1  0  0  0  0
 14 15  2  0  0  0  0
 15 16  1  0  0  0  0
 16 17  2  0  0  0  0
 17 18  1  0  0  0  0
 15 19  1  0  0  0  0
 19 20  1  0  0  0  0
M  END
$$$$
s_22____13771018____59039
  -OEChem-03222016482D

 21 22  0     0  0  0  0  0  0999 V2000
   -3.4641   -0.0050    0.0000 C   0  0  0  0  0  0  0  0  0  0  0  0
   -2.5974   -0.5038    0.0000 C   0  0  0  0  0  0  0  0  0  0  0  0
   -1.7320   -0.0025    0.0000 C   0  0  0  0  0  0  0  0  0  0  0  0
   -0.8653   -0.5013    0.0000 O   0  0  0  0  0  0  0  0  0  0  0  0
    0.0000    0.0000    0.0000 C   0  0  0  0  0  0  0  0  0  0  0  0
   -0.0000    1.0058    0.0000 C   0  0  0  0  0  0  0  0  0  0  0  0
    0.8680    1.5138    0.0000 C   0  0  0  0  0  0  0  0  0  0  0  0
    1.7360    1.0058    0.0000 C   0  0  0  0  0  0  0  0  0  0  0  0
    1.7360   -0.0012    0.0000 C   0  0  0  0  0  0  0  0  0  0  0  0
    0.8680   -0.4978    0.0000 C   0  0  0  0  0  0  0  0  0  0  0  0
    2.6938   -0.3125    0.0000 C   0  0  0  0  0  0  0  0  0  0  0  0
    3.2858    0.5023    0.0000 C   0  0  0  0  0  0  0  0  0  0  0  0
    2.6938    1.3169    0.0000 N   0  0  0  0  0  0  0  0  0  0  0  0
    3.0028   -1.2636    0.0000 C   0  0  0  0  0  0  0  0  0  0  0  0
    3.9809   -1.4715    0.0000 C   0  0  0  0  0  0  0  0  0  0  0  0
    4.2899   -2.4226    0.0000 N   0  0  0  0  0  0  0  0  0  0  0  0
    5.2680   -2.6306    0.0000 C   0  0  0  0  0  0  0  0  0  0  0  0
    5.9372   -1.8874    0.0000 O   0  0  0  0  0  0  0  0  0  0  0  0
    5.5770   -3.5816    0.0000 C   0  0  0  0  0  0  0  0  0  0  0  0
    6.5551   -3.7896    0.0000 O   0  0  0  0  0  0  0  0  0  0  0  0
    6.8641   -4.7407    0.0000 C   0  0  0  0  0  0  0  0  0  0  0  0
  1  2  1  0  0  0  0
  2  3  1  0  0  0  0
  3  4  1  0  0  0  0
  4  5  1  0  0  0  0
  5 10  2  0  0  0  0
  5  6  1  0  0  0  0
  6  7  2  0  0  0  0
  7  8  1  0  0  0  0
  8 13  1  0  0  0  0
  8  9  2  0  0  0  0
  9 10  1  0  0  0  0
  9 11  1  0  0  0  0
 11 12  2  0  0  0  0
 12 13  1  0  0  0  0
 11 14  1  0  0  0  0
 14 15  1  0  0  0  0
 15 16  1  0  0  0  0
 16 17  1  0  0  0  0
 17 18  2  0  0  0  0
 17 19  1  0  0  0  0
 19 20  1  0  0  0  0
 20 21  1  0  0  0  0
M  END
$$$$
s_22____15754586____9296322
  -OEChem-03222016482D

 20 21  0     1  0  0  0  0  0999 V2000
    6.1949   -5.4838    0.0000 C   0  0  0  0  0  0  0  0  0  0  0  0
    5.8860   -4.5327    0.0000 C   0  0  0  0  0  0  0  0  0  0  0  0
    5.5770   -3.5816    0.0000 C   0  0  0  0  0  0  0  0  0  0  0  0
    5.2680   -2.6306    0.0000 C   0  0  0  0  0  0  0  0  0  0  0  0
    5.9372   -1.8874    0.0000 O   0  0  0  0  0  0  0  0  0  0  0  0
    4.2899   -2.4226    0.0000 N   0  0  0  0  0  0  0  0  0  0  0  0
    3.9809   -1.4715    0.0000 C   0  0  0  0  0  0  0  0  0  0  0  0
    3.0028   -1.2636    0.0000 C   0  0  3  0  0  0  0  0  0  0  0  0
    2.3336   -2.0067    0.0000 C   0  0  0  0  0  0  0  0  0  0  0  0
    2.6938   -0.3125    0.0000 C   0  0  0  0  0  0  0  0  0  0  0  0
    3.2858    0.5023    0.0000 C   0  0  0  0  0  0  0  0  0  0  0  0
    2.6938    1.3169    0.0000 N   0  0  0  0  0  0  0  0  0  0  0  0
    1.7360    1.0058    0.0000 C   0  0  0  0  0  0  0  0  0  0  0  0
    1.7360   -0.0012    0.0000 C   0  0  0  0  0  0  0  0  0  0  0  0
    0.8680   -0.4978    0.0000 C   0  0  0  0  0  0  0  0  0  0  0  0
    0.0000    0.0000    0.0000 C   0  0  0  0  0  0  0  0  0  0  0  0
   -0.0000    1.0058    0.0000 C   0  0  0  0  0  0  0  0  0  0  0  0
    0.8680    1.5138    0.0000 C   0  0  0  0  0  0  0  0  0  0  0  0
   -0.8653   -0.5013    0.0000 O   0  0  0  0  0  0  0  0  0  0  0  0
   -0.8639   -1.5013    0.0000 C   0  0  0  0  0  0  0  0  0  0  0  0
  1  2  1  0  0  0  0
  2  3  3  0  0  0  0
  3  4  1  0  0  0  0
  4  5  2  0  0  0  0
  4  6  1  0  0  0  0
  6  7  1  0  0  0  0
  7  8  1  0  0  0  0
  8  9  1  0  0  0  0
  8 10  1  0  0  0  0
 10 14  1  0  0  0  0
 10 11  2  0  0  0  0
 11 12  1  0  0  0  0
 12 13  1  0  0  0  0
 13 18  2  0  0  0  0
 13 14  1  0  0  0  0
 14 15  2  0  0  0  0
 15 16  1  0  0  0  0
 16 17  2  0  0  0  0
 17 18  1  0  0  0  0
 16 19  1  0  0  0  0
 19 20  1  0  0  0  0
M  END
$$$$
s_2554____15506638____951600
  -OEChem-03222016482D

 19 20  0     0  0  0  0  0  0999 V2000
    6.8641   -4.7407    0.0000 C   0  0  0  0  0  0  0  0  0  0  0  0
    6.5551   -3.7896    0.0000 C   0  0  0  0  0  0  0  0  0  0  0  0
    5.5770   -3.5816    0.0000 N   0  0  0  0  0  0  0  0  0  0  0  0
    5.2680   -2.6306    0.0000 C   0  0  0  0  0  0  0  0  0  0  0  0
    5.9372   -1.8874    0.0000 O   0  0  0  0  0  0  0  0  0  0  0  0
    4.2899   -2.4226    0.0000 N   0  0  0  0  0  0  0  0  0  0  0  0
    3.9809   -1.4715    0.0000 C   0  0  0  0  0  0  0  0  0  0  0  0
    3.0028   -1.2636    0.0000 C   0  0  0  0  0  0  0  0  0  0  0  0
    2.6938   -0.3125    0.0000 C   0  0  0  0  0  0  0  0  0  0  0  0
    3.2858    0.5023    0.0000 C   0  0  0  0  0  0  0  0  0  0  0  0
    2.6938    1.3169    0.0000 N   0  0  0  0  0  0  0  0  0  0  0  0
    1.7360    1.0058    0.0000 C   0  0  0  0  0  0  0  0  0  0  0  0
    1.7360   -0.0012    0.0000 C   0  0  0  0  0  0  0  0  0  0  0  0
    0.8680   -0.4978    0.0000 C   0  0  0  0  0  0  0  0  0  0  0  0
    0.0000    0.0000    0.0000 C   0  0  0  0  0  0  0  0  0  0  0  0
   -0.0000    1.0058    0.0000 C   0  0  0  0  0  0  0  0  0  0  0  0
    0.8680    1.5138    0.0000 C   0  0  0  0  0  0  0  0  0  0  0  0
    0.8680    2.5138    0.0000 O   0  0  0  0  0  0  0  0  0  0  0  0
    0.0020    3.0138    0.0000 C   0  0  0  0  0  0  0  0  0  0  0  0
  1  2  1  0  0  0  0
  2  3  1  0  0  0  0
  3  4  1  0  0  0  0
  4  5  2  0  0  0  0
  4  6  1  0  0  0  0
  6  7  1  0  0  0  0
  7  8  1  0  0  0  0
  8  9  1  0  0  0  0
  9 13  1  0  0  0  0
  9 10  2  0  0  0  0
 10 11  1  0  0  0  0
 11 12  1  0  0  0  0
 12 17  2  0  0  0  0
 12 13  1  0  0  0  0
 13 14  2  0  0  0  0
 14 15  1  0  0  0  0
 15 16  2  0  0  0  0
 16 17  1  0  0  0  0
 17 18  1  0  0  0  0
 18 19  1  0  0  0  0
M  END
$$$$
s_240690b____13978894____3025692
  -OEChem-03222016482D

 19 20  0     1  0  0  0  0  0999 V2000
    4.9078   -4.3247    0.0000 C   0  0  0  0  0  0  0  0  0  0  0  0
    5.5770   -3.5816    0.0000 C   0  0  3  0  0  0  0  0  0  0  0  0
    5.2680   -2.6306    0.0000 C   0  0  0  0  0  0  0  0  0  0  0  0
    5.9372   -1.8874    0.0000 O   0  0  0  0  0  0  0  0  0  0  0  0
    4.2899   -2.4226    0.0000 N   0  0  0  0  0  0  0  0  0  0  0  0
    3.9809   -1.4715    0.0000 C   0  0  0  0  0  0  0  0  0  0  0  0
    3.0028   -1.2636    0.0000 C   0  0  0  0  0  0  0  0  0  0  0  0
    2.6938   -0.3125    0.0000 C   0  0  0  0  0  0  0  0  0  0  0  0
    3.2858    0.5023    0.0000 C   0  0  0  0  0  0  0  0  0  0  0  0
    2.6938    1.3169    0.0000 N   0  0  0  0  0  0  0  0  0  0  0  0
    1.7360    1.0058    0.0000 C   0  0  0  0  0  0  0  0  0  0  0  0
    1.7360   -0.0012    0.0000 C   0  0  0  0  0  0  0  0  0  0  0  0
    0.8680   -0.4978    0.0000 C   0  0  0  0  0  0  0  0  0  0  0  0
    0.0000    0.0000    0.0000 C   0  0  0  0  0  0  0  0  0  0  0  0
   -0.0000    1.0058    0.0000 C   0  0  0  0  0  0  0  0  0  0  0  0
    0.8680    1.5138    0.0000 C   0  0  0  0  0  0  0  0  0  0  0  0
   -0.8675    1.5032    0.0000 O   0  0  0  0  0  0  0  0  0  0  0  0
   -1.7320    1.0007    0.0000 C   0  0  0  0  0  0  0  0  0  0  0  0
    6.5551   -3.7896    0.0000 N   0  3  0  0  0  0  0  0  0  0  0  0
  1  2  1  0  0  0  0
  2  3  1  0  0  0  0
  3  4  2  0  0  0  0
  3  5  1  0  0  0  0
  5  6  1  0  0  0  0
  6  7  1  0  0  0  0
  7  8  1  0  0  0  0
  8 12  1  0  0  0  0
  8  9  2  0  0  0  0
  9 10  1  0  0  0  0
 10 11  1  0  0  0  0
 11 16  2  0  0  0  0
 11 12  1  0  0  0  0
 12 13  2  0  0  0  0
 13 14  1  0  0  0  0
 14 15  2  0  0  0  0
 15 16  1  0  0  0  0
 15 17  1  0  0  0  0
 17 18  1  0  0  0  0
  2 19  1  0  0  0  0
M  CHG  1  19   1
M  END
$$$$
s_22____4839448____2909590
  -OEChem-03222016482D

 20 21  0     0  0  0  0  0  0999 V2000
    1.2530   -7.0892    0.0000 C   0  0  0  0  0  0  0  0  0  0  0  0
    1.9222   -6.3461    0.0000 O   0  0  0  0  0  0  0  0  0  0  0  0
    1.6132   -5.3951    0.0000 C   0  0  0  0  0  0  0  0  0  0  0  0
    2.2824   -4.6519    0.0000 C   0  0  0  0  0  0  0  0  0  0  0  0
    1.9734   -3.7009    0.0000 C   0  0  0  0  0  0  0  0  0  0  0  0
    0.9953   -3.4929    0.0000 O   0  0  0  0  0  0  0  0  0  0  0  0
    2.6426   -2.9578    0.0000 N   0  0  0  0  0  0  0  0  0  0  0  0
    2.3336   -2.0067    0.0000 C   0  0  0  0  0  0  0  0  0  0  0  0
    3.0028   -1.2636    0.0000 C   0  0  0  0  0  0  0  0  0  0  0  0
    2.6938   -0.3125    0.0000 C   0  0  0  0  0  0  0  0  0  0  0  0
    3.2858    0.5023    0.0000 C   0  0  0  0  0  0  0  0  0  0  0  0
    2.6938    1.3169    0.0000 N   0  0  0  0  0  0  0  0  0  0  0  0
    1.7360    1.0058    0.0000 C   0  0  0  0  0  0  0  0  0  0  0  0
    1.7360   -0.0012    0.0000 C   0  0  0  0  0  0  0  0  0  0  0  0
    0.8680   -0.4978    0.0000 C   0  0  0  0  0  0  0  0  0  0  0  0
    0.0000    0.0000    0.0000 C   0  0  0  0  0  0  0  0  0  0  0  0
   -0.0000    1.0058    0.0000 C   0  0  0  0  0  0  0  0  0  0  0  0
    0.8680    1.5138    0.0000 C   0  0  0  0  0  0  0  0  0  0  0  0
   -0.8653   -0.5013    0.0000 O   0  0  0  0  0  0  0  0  0  0  0  0
   -0.8639   -1.5013    0.0000 C   0  0  0  0  0  0  0  0  0  0  0  0
  1  2  1  0  0  0  0
  2  3  1  0  0  0  0
  3  4  1  0  0  0  0
  4  5  1  0  0  0  0
  5  6  2  0  0  0  0
  5  7  1  0  0  0  0
  7  8  1  0  0  0  0
  8  9  1  0  0  0  0
  9 10  1  0  0  0  0
 10 14  1  0  0  0  0
 10 11  2  0  0  0  0
 11 12  1  0  0  0  0
 12 13  1  0  0  0  0
 13 18  2  0  0  0  0
 13 14  1  0  0  0  0
 14 15  2  0  0  0  0
 15 16  1  0  0  0  0
 16 17  2  0  0  0  0
 17 18  1  0  0  0  0
 16 19  1  0  0  0  0
 19 20  1  0  0  0  0
M  END
$$$$
s_22____13570824____58844
  -OEChem-03222016482D

 16 17  0     0  0  0  0  0  0999 V2000
    4.7129   -3.0873    0.0000 C   0  0  0  0  0  0  0  0  0  0  0  0
    4.4050   -2.1359    0.0000 C   0  0  0  0  0  0  0  0  0  0  0  0
    5.0749   -1.3935    0.0000 O   0  0  0  0  0  0  0  0  0  0  0  0
    3.4271   -1.9269    0.0000 N   0  0  0  0  0  0  0  0  0  0  0  0
    3.1191   -0.9755    0.0000 C   0  0  0  0  0  0  0  0  0  0  0  0
    2.1412   -0.7665    0.0000 C   0  0  0  0  0  0  0  0  0  0  0  0
    1.8332    0.1849    0.0000 C   0  0  0  0  0  0  0  0  0  0  0  0
    2.4247    0.9971    0.0000 C   0  0  0  0  0  0  0  0  0  0  0  0
    1.8349    1.8105    0.0000 N   0  0  0  0  0  0  0  0  0  0  0  0
    0.8791    1.5011    0.0000 C   0  0  0  0  0  0  0  0  0  0  0  0
    0.8780    0.4964    0.0000 C   0  0  0  0  0  0  0  0  0  0  0  0
    0.0000    0.0000    0.0000 C   0  0  0  0  0  0  0  0  0  0  0  0
   -0.8635    0.5043    0.0000 C   0  0  0  0  0  0  0  0  0  0  0  0
   -0.8584    1.5098    0.0000 N   0  0  0  0  0  0  0  0  0  0  0  0
    0.0101    2.0110    0.0000 C   0  0  0  0  0  0  0  0  0  0  0  0
   -1.7320    0.0087    0.0000 Cl  0  0  0  0  0  0  0  0  0  0  0  0
  1  2  1  0  0  0  0
  2  3  2  0  0  0  0
  2  4  1  0  0  0  0
  4  5  1  0  0  0  0
  5  6  1  0  0  0  0
  6  7  1  0  0  0  0
  7 11  1  0  0  0  0
  7  8  2  0  0  0  0
  8  9  1  0  0  0  0
  9 10  1  0  0  0  0
 10 15  2  0  0  0  0
 10 11  1  0  0  0  0
 11 12  2  0  0  0  0
 12 13  1  0  0  0  0
 13 14  2  0  0  0  0
 14 15  1  0  0  0  0
 13 16  1  0  0  0  0
M  END
$$$$
s_22____13025516____4832482
  -OEChem-03222016482D

 20 21  0     1  0  0  0  0  0999 V2000
    4.9078   -4.3247    0.0000 C   0  0  0  0  0  0  0  0  0  0  0  0
    5.5770   -3.5816    0.0000 C   0  0  3  0  0  0  0  0  0  0  0  0
    6.5551   -3.7896    0.0000 C   0  0  0  0  0  0  0  0  0  0  0  0
    7.5333   -3.9976    0.0000 N   0  0  0  0  0  0  0  0  0  0  0  0
    5.2680   -2.6306    0.0000 C   0  0  0  0  0  0  0  0  0  0  0  0
    5.9372   -1.8874    0.0000 O   0  0  0  0  0  0  0  0  0  0  0  0
    4.2899   -2.4226    0.0000 N   0  0  0  0  0  0  0  0  0  0  0  0
    3.9809   -1.4715    0.0000 C   0  0  0  0  0  0  0  0  0  0  0  0
    3.0028   -1.2636    0.0000 C   0  0  0  0  0  0  0  0  0  0  0  0
    2.6938   -0.3125    0.0000 C   0  0  0  0  0  0  0  0  0  0  0  0
    3.2858    0.5023    0.0000 C   0  0  0  0  0  0  0  0  0  0  0  0
    2.6938    1.3169    0.0000 N   0  0  0  0  0  0  0  0  0  0  0  0
    1.7360    1.0058    0.0000 C   0  0  0  0  0  0  0  0  0  0  0  0
    1.7360   -0.0012    0.0000 C   0  0  0  0  0  0  0  0  0  0  0  0
    0.8680   -0.4978    0.0000 C   0  0  0  0  0  0  0  0  0  0  0  0
    0.0000    0.0000    0.0000 C   0  0  0  0  0  0  0  0  0  0  0  0
   -0.0000    1.0058    0.0000 C   0  0  0  0  0  0  0  0  0  0  0  0
    0.8680    1.5138    0.0000 C   0  0  0  0  0  0  0  0  0  0  0  0
    0.8675   -1.4978    0.0000 O   0  0  0  0  0  0  0  0  0  0  0  0
    1.7332   -1.9983    0.0000 C   0  0  0  0  0  0  0  0  0  0  0  0
  1  2  1  0  0  0  0
  2  3  1  0  0  0  0
  3  4  3  0  0  0  0
  2  5  1  0  0  0  0
  5  6  2  0  0  0  0
  5  7  1  0  0  0  0
  7  8  1  0  0  0  0
  8  9  1  0  0  0  0
  9 10  1  0  0  0  0
 10 14  1  0  0  0  0
 10 11  2  0  0  0  0
 11 12  1  0  0  0  0
 12 13  1  0  0  0  0
 13 18  2  0  0  0  0
 13 14  1  0  0  0  0
 14 15  2  0  0  0  0
 15 16  1  0  0  0  0
 16 17  2  0  0  0  0
 17 18  1  0  0  0  0
 15 19  1  0  0  0  0
 19 20  1  0  0  0  0
M  END
$$$$
s_22____13978824____2909590
  -OEChem-03222016482D

 20 21  0     0  0  0  0  0  0999 V2000
    1.2530   -7.0892    0.0000 C   0  0  0  0  0  0  0  0  0  0  0  0
    1.9222   -6.3461    0.0000 O   0  0  0  0  0  0  0  0  0  0  0  0
    1.6132   -5.3951    0.0000 C   0  0  0  0  0  0  0  0  0  0  0  0
    2.2824   -4.6519    0.0000 C   0  0  0  0  0  0  0  0  0  0  0  0
    1.9734   -3.7009    0.0000 C   0  0  0  0  0  0  0  0  0  0  0  0
    0.9953   -3.4929    0.0000 O   0  0  0  0  0  0  0  0  0  0  0  0
    2.6426   -2.9578    0.0000 N   0  0  0  0  0  0  0  0  0  0  0  0
    2.3336   -2.0067    0.0000 C   0  0  0  0  0  0  0  0  0  0  0  0
    3.0028   -1.2636    0.0000 C   0  0  0  0  0  0  0  0  0  0  0  0
    2.6938   -0.3125    0.0000 C   0  0  0  0  0  0  0  0  0  0  0  0
    3.2858    0.5023    0.0000 C   0  0  0  0  0  0  0  0  0  0  0  0
    2.6938    1.3169    0.0000 N   0  0  0  0  0  0  0  0  0  0  0  0
    1.7360    1.0058    0.0000 C   0  0  0  0  0  0  0  0  0  0  0  0
    1.7360   -0.0012    0.0000 C   0  0  0  0  0  0  0  0  0  0  0  0
    0.8680   -0.4978    0.0000 C   0  0  0  0  0  0  0  0  0  0  0  0
    0.0000    0.0000    0.0000 C   0  0  0  0  0  0  0  0  0  0  0  0
   -0.0000    1.0058    0.0000 C   0  0  0  0  0  0  0  0  0  0  0  0
    0.8680    1.5138    0.0000 C   0  0  0  0  0  0  0  0  0  0  0  0
   -0.8675    1.5032    0.0000 O   0  0  0  0  0  0  0  0  0  0  0  0
   -1.7320    1.0007    0.0000 C   0  0  0  0  0  0  0  0  0  0  0  0
  1  2  1  0  0  0  0
  2  3  1  0  0  0  0
  3  4  1  0  0  0  0
  4  5  1  0  0  0  0
  5  6  2  0  0  0  0
  5  7  1  0  0  0  0
  7  8  1  0  0  0  0
  8  9  1  0  0  0  0
  9 10  1  0  0  0  0
 10 14  1  0  0  0  0
 10 11  2  0  0  0  0
 11 12  1  0  0  0  0
 12 13  1  0  0  0  0
 13 18  2  0  0  0  0
 13 14  1  0  0  0  0
 14 15  2  0  0  0  0
 15 16  1  0  0  0  0
 16 17  2  0  0  0  0
 17 18  1  0  0  0  0
 17 19  1  0  0  0  0
 19 20  1  0  0  0  0
M  END
$$$$
s_270062____15422294____8147258
  -OEChem-03222016482D

 18 19  0     0  0  0  0  0  0999 V2000
    1.5905   -1.3375    0.0000 C   0  0  0  0  0  0  0  0  0  0  0  0
    2.3336   -2.0067    0.0000 C   0  0  0  0  0  0  0  0  0  0  0  0
    3.0767   -2.6759    0.0000 C   0  0  0  0  0  0  0  0  0  0  0  0
    3.0028   -1.2636    0.0000 C   0  0  0  0  0  0  0  0  0  0  0  0
    2.6938   -0.3125    0.0000 C   0  0  0  0  0  0  0  0  0  0  0  0
    3.2858    0.5023    0.0000 C   0  0  0  0  0  0  0  0  0  0  0  0
    2.6938    1.3169    0.0000 N   0  0  0  0  0  0  0  0  0  0  0  0
    1.7360    1.0058    0.0000 C   0  0  0  0  0  0  0  0  0  0  0  0
    1.7360   -0.0012    0.0000 C   0  0  0  0  0  0  0  0  0  0  0  0
    0.8680   -0.4978    0.0000 C   0  0  0  0  0  0  0  0  0  0  0  0
    0.0000    0.0000    0.0000 C   0  0  0  0  0  0  0  0  0  0  0  0
   -0.0000    1.0058    0.0000 C   0  0  0  0  0  0  0  0  0  0  0  0
    0.8680    1.5138    0.0000 C   0  0  0  0  0  0  0  0  0  0  0  0
    1.6644   -2.7498    0.0000 N   0  0  0  0  0  0  0  0  0  0  0  0
    1.9734   -3.7009    0.0000 C   0  0  0  0  0  0  0  0  0  0  0  0
    2.9515   -3.9088    0.0000 O   0  0  0  0  0  0  0  0  0  0  0  0
    1.3042   -4.4440    0.0000 C   0  0  0  0  0  0  0  0  0  0  0  0
    1.6132   -5.3951    0.0000 Cl  0  0  0  0  0  0  0  0  0  0  0  0
  1  2  1  0  0  0  0
  2  3  1  0  0  0  0
  2  4  1  0  0  0  0
  4  5  1  0  0  0  0
  5  9  1  0  0  0  0
  5  6  2  0  0  0  0
  6  7  1  0  0  0  0
  7  8  1  0  0  0  0
  8 13  2  0  0  0  0
  8  9  1  0  0  0  0
  9 10  2  0  0  0  0
 10 11  1  0  0  0  0
 11 12  2  0  0  0  0
 12 13  1  0  0  0  0
  2 14  1  0  0  0  0
 14 15  1  0  0  0  0
 15 16  2  0  0  0  0
 15 17  1  0  0  0  0
 17 18  1  0  0  0  0
M  END
$$$$
s_22____13025516____9322364
  -OEChem-03222016482D

 21 22  0     0  0  0  0  0  0999 V2000
    0.0012   -1.9973    0.0000 C   0  0  0  0  0  0  0  0  0  0  0  0
    0.8675   -1.4978    0.0000 O   0  0  0  0  0  0  0  0  0  0  0  0
    0.8680   -0.4978    0.0000 C   0  0  0  0  0  0  0  0  0  0  0  0
    0.0000    0.0000    0.0000 C   0  0  0  0  0  0  0  0  0  0  0  0
   -0.0000    1.0058    0.0000 C   0  0  0  0  0  0  0  0  0  0  0  0
    0.8680    1.5138    0.0000 C   0  0  0  0  0  0  0  0  0  0  0  0
    1.7360    1.0058    0.0000 C   0  0  0  0  0  0  0  0  0  0  0  0
    1.7360   -0.0012    0.0000 C   0  0  0  0  0  0  0  0  0  0  0  0
    2.6938   -0.3125    0.0000 C   0  0  0  0  0  0  0  0  0  0  0  0
    3.2858    0.5023    0.0000 C   0  0  0  0  0  0  0  0  0  0  0  0
    2.6938    1.3169    0.0000 N   0  0  0  0  0  0  0  0  0  0  0  0
    3.0028   -1.2636    0.0000 C   0  0  0  0  0  0  0  0  0  0  0  0
    3.9809   -1.4715    0.0000 C   0  0  0  0  0  0  0  0  0  0  0  0
    4.2899   -2.4226    0.0000 N   0  0  0  0  0  0  0  0  0  0  0  0
    5.2680   -2.6306    0.0000 C   0  0  0  0  0  0  0  0  0  0  0  0
    5.9372   -1.8874    0.0000 O   0  0  0  0  0  0  0  0  0  0  0  0
    5.5770   -3.5816    0.0000 C   0  0  0  0  0  0  0  0  0  0  0  0
    6.5551   -3.7896    0.0000 C   0  0  0  0  0  0  0  0  0  0  0  0
    6.8641   -4.7407    0.0000 C   0  0  0  0  0  0  0  0  0  0  0  0
    7.8422   -4.9486    0.0000 C   0  0  0  0  0  0  0  0  0  0  0  0
    8.8204   -5.1566    0.0000 C   0  0  0  0  0  0  0  0  0  0  0  0
  1  2  1  0  0  0  0
  2  3  1  0  0  0  0
  3  8  2  0  0  0  0
  3  4  1  0  0  0  0
  4  5  2  0  0  0  0
  5  6  1  0  0  0  0
  6  7  2  0  0  0  0
  7 11  1  0  0  0  0
  7  8  1  0  0  0  0
  8  9  1  0  0  0  0
  9 10  2  0  0  0  0
 10 11  1  0  0  0  0
  9 12  1  0  0  0  0
 12 13  1  0  0  0  0
 13 14  1  0  0  0  0
 14 15  1  0  0  0  0
 15 16  2  0  0  0  0
 15 17  1  0  0  0  0
 17 18  1  0  0  0  0
 18 19  1  0  0  0  0
 19 20  1  0  0  0  0
 20 21  3  0  0  0  0
M  END
$$$$
s_240690b____15754670____7368582
  -OEChem-03222016482D

 20 21  0     1  0  0  0  0  0999 V2000
    3.9809   -1.4715    0.0000 C   0  0  0  0  0  0  0  0  0  0  0  0
    3.0028   -1.2636    0.0000 C   0  0  3  0  0  0  0  0  0  0  0  0
    2.3336   -2.0067    0.0000 C   0  0  0  0  0  0  0  0  0  0  0  0
    2.6426   -2.9578    0.0000 N   0  0  0  0  0  0  0  0  0  0  0  0
    1.9734   -3.7009    0.0000 C   0  0  0  0  0  0  0  0  0  0  0  0
    0.9953   -3.4929    0.0000 O   0  0  0  0  0  0  0  0  0  0  0  0
    2.2824   -4.6519    0.0000 C   0  0  0  0  0  0  0  0  0  0  0  0
    1.6132   -5.3951    0.0000 N   0  3  0  0  0  0  0  0  0  0  0  0
    1.9222   -6.3461    0.0000 C   0  0  0  0  0  0  0  0  0  0  0  0
    2.6938   -0.3125    0.0000 C   0  0  0  0  0  0  0  0  0  0  0  0
    3.2858    0.5023    0.0000 C   0  0  0  0  0  0  0  0  0  0  0  0
    2.6938    1.3169    0.0000 N   0  0  0  0  0  0  0  0  0  0  0  0
    1.7360    1.0058    0.0000 C   0  0  0  0  0  0  0  0  0  0  0  0
    1.7360   -0.0012    0.0000 C   0  0  0  0  0  0  0  0  0  0  0  0
    0.8680   -0.4978    0.0000 C   0  0  0  0  0  0  0  0  0  0  0  0
    0.0000    0.0000    0.0000 C   0  0  0  0  0  0  0  0  0  0  0  0
   -0.0000    1.0058    0.0000 C   0  0  0  0  0  0  0  0  0  0  0  0
    0.8680    1.5138    0.0000 C   0  0  0  0  0  0  0  0  0  0  0  0
   -0.8653   -0.5013    0.0000 O   0  0  0  0  0  0  0  0  0  0  0  0
   -0.8639   -1.5013    0.0000 C   0  0  0  0  0  0  0  0  0  0  0  0
  1  2  1  0  0  0  0
  2  3  1  0  0  0  0
  3  4  1  0  0  0  0
  4  5  1  0  0  0  0
  5  6  2  0  0  0  0
  5  7  1  0  0  0  0
  7  8  1  0  0  0  0
  8  9  1  0  0  0  0
  2 10  1  0  0  0  0
 10 14  1  0  0  0  0
 10 11  2  0  0  0  0
 11 12  1  0  0  0  0
 12 13  1  0  0  0  0
 13 18  2  0  0  0  0
 13 14  1  0  0  0  0
 14 15  2  0  0  0  0
 15 16  1  0  0  0  0
 16 17  2  0  0  0  0
 17 18  1  0  0  0  0
 16 19  1  0  0  0  0
 19 20  1  0  0  0  0
M  CHG  1   8   1
M  END
$$$$
s_22____15506616____13040272
  -OEChem-03222016482D

 21 22  0     0  0  0  0  0  0999 V2000
    1.7340    3.0138    0.0000 C   0  0  0  0  0  0  0  0  0  0  0  0
    0.8680    2.5138    0.0000 O   0  0  0  0  0  0  0  0  0  0  0  0
    0.8680    1.5138    0.0000 C   0  0  0  0  0  0  0  0  0  0  0  0
    0.0000    1.0058    0.0000 C   0  0  0  0  0  0  0  0  0  0  0  0
    0.0000    0.0000    0.0000 C   0  0  0  0  0  0  0  0  0  0  0  0
    0.8680   -0.4978    0.0000 C   0  0  0  0  0  0  0  0  0  0  0  0
    1.7360   -0.0012    0.0000 C   0  0  0  0  0  0  0  0  0  0  0  0
    1.7360    1.0058    0.0000 C   0  0  0  0  0  0  0  0  0  0  0  0
    2.6938    1.3169    0.0000 N   0  0  0  0  0  0  0  0  0  0  0  0
    3.2858    0.5023    0.0000 C   0  0  0  0  0  0  0  0  0  0  0  0
    2.6938   -0.3125    0.0000 C   0  0  0  0  0  0  0  0  0  0  0  0
    3.0028   -1.2636    0.0000 C   0  0  0  0  0  0  0  0  0  0  0  0
    3.9809   -1.4715    0.0000 C   0  0  0  0  0  0  0  0  0  0  0  0
    4.2899   -2.4226    0.0000 N   0  0  0  0  0  0  0  0  0  0  0  0
    5.2680   -2.6306    0.0000 C   0  0  0  0  0  0  0  0  0  0  0  0
    5.9372   -1.8874    0.0000 O   0  0  0  0  0  0  0  0  0  0  0  0
    5.5770   -3.5816    0.0000 C   0  0  0  0  0  0  0  0  0  0  0  0
    6.5551   -3.7896    0.0000 S   0  0  0  0  0  0  0  0  0  0  0  0
    6.8641   -4.7407    0.0000 C   0  0  0  0  0  0  0  0  0  0  0  0
    7.8422   -4.9486    0.0000 C   0  0  0  0  0  0  0  0  0  0  0  0
    8.8204   -5.1566    0.0000 C   0  0  0  0  0  0  0  0  0  0  0  0
  1  2  1  0  0  0  0
  2  3  1  0  0  0  0
  3  8  2  0  0  0  0
  3  4  1  0  0  0  0
  4  5  2  0  0  0  0
  5  6  1  0  0  0  0
  6  7  2  0  0  0  0
  7 11  1  0  0  0  0
  7  8  1  0  0  0  0
  8  9  1  0  0  0  0
  9 10  1  0  0  0  0
 10 11  2  0  0  0  0
 11 12  1  0  0  0  0
 12 13  1  0  0  0  0
 13 14  1  0  0  0  0
 14 15  1  0  0  0  0
 15 16  2  0  0  0  0
 15 17  1  0  0  0  0
 17 18  1  0  0  0  0
 18 19  1  0  0  0  0
 19 20  1  0  0  0  0
 20 21  3  0  0  0  0
M  END
$$$$
s_22____15506616____2757558
  -OEChem-03222016482D

 20 21  0     0  0  0  0  0  0999 V2000
    1.7340    3.0138    0.0000 C   0  0  0  0  0  0  0  0  0  0  0  0
    0.8680    2.5138    0.0000 O   0  0  0  0  0  0  0  0  0  0  0  0
    0.8680    1.5138    0.0000 C   0  0  0  0  0  0  0  0  0  0  0  0
    0.0000    1.0058    0.0000 C   0  0  0  0  0  0  0  0  0  0  0  0
    0.0000    0.0000    0.0000 C   0  0  0  0  0  0  0  0  0  0  0  0
    0.8680   -0.4978    0.0000 C   0  0  0  0  0  0  0  0  0  0  0  0
    1.7360   -0.0012    0.0000 C   0  0  0  0  0  0  0  0  0  0  0  0
    1.7360    1.0058    0.0000 C   0  0  0  0  0  0  0  0  0  0  0  0
    2.6938    1.3169    0.0000 N   0  0  0  0  0  0  0  0  0  0  0  0
    3.2858    0.5023    0.0000 C   0  0  0  0  0  0  0  0  0  0  0  0
    2.6938   -0.3125    0.0000 C   0  0  0  0  0  0  0  0  0  0  0  0
    3.0028   -1.2636    0.0000 C   0  0  0  0  0  0  0  0  0  0  0  0
    3.9809   -1.4715    0.0000 C   0  0  0  0  0  0  0  0  0  0  0  0
    4.2899   -2.4226    0.0000 N   0  0  0  0  0  0  0  0  0  0  0  0
    5.2680   -2.6306    0.0000 C   0  0  0  0  0  0  0  0  0  0  0  0
    5.9372   -1.8874    0.0000 O   0  0  0  0  0  0  0  0  0  0  0  0
    5.5770   -3.5816    0.0000 C   0  0  0  0  0  0  0  0  0  0  0  0
    6.5551   -3.7896    0.0000 C   0  0  0  0  0  0  0  0  0  0  0  0
    6.8641   -4.7407    0.0000 C   0  0  0  0  0  0  0  0  0  0  0  0
    7.8422   -4.9486    0.0000 C   0  0  0  0  0  0  0  0  0  0  0  0
  1  2  1  0  0  0  0
  2  3  1  0  0  0  0
  3  8  2  0  0  0  0
  3  4  1  0  0  0  0
  4  5  2  0  0  0  0
  5  6  1  0  0  0  0
  6  7  2  0  0  0  0
  7 11  1  0  0  0  0
  7  8  1  0  0  0  0
  8  9  1  0  0  0  0
  9 10  1  0  0  0  0
 10 11  2  0  0  0  0
 11 12  1  0  0  0  0
 12 13  1  0  0  0  0
 13 14  1  0  0  0  0
 14 15  1  0  0  0  0
 15 16  2  0  0  0  0
 15 17  1  0  0  0  0
 17 18  1  0  0  0  0
 18 19  1  0  0  0  0
 19 20  2  0  0  0  0
M  END
$$$$
s_22____13909752____59039
  -OEChem-03222016482D

 18 19  0     0  0  0  0  0  0999 V2000
    6.8641   -4.7407    0.0000 C   0  0  0  0  0  0  0  0  0  0  0  0
    6.5551   -3.7896    0.0000 O   0  0  0  0  0  0  0  0  0  0  0  0
    5.5770   -3.5816    0.0000 C   0  0  0  0  0  0  0  0  0  0  0  0
    5.2680   -2.6306    0.0000 C   0  0  0  0  0  0  0  0  0  0  0  0
    5.9372   -1.8874    0.0000 O   0  0  0  0  0  0  0  0  0  0  0  0
    4.2899   -2.4226    0.0000 N   0  0  0  0  0  0  0  0  0  0  0  0
    3.9809   -1.4715    0.0000 C   0  0  0  0  0  0  0  0  0  0  0  0
    3.0028   -1.2636    0.0000 C   0  0  0  0  0  0  0  0  0  0  0  0
    2.6938   -0.3125    0.0000 C   0  0  0  0  0  0  0  0  0  0  0  0
    3.2858    0.5023    0.0000 C   0  0  0  0  0  0  0  0  0  0  0  0
    2.6938    1.3169    0.0000 N   0  0  0  0  0  0  0  0  0  0  0  0
    1.7360    1.0058    0.0000 C   0  0  0  0  0  0  0  0  0  0  0  0
    1.7360   -0.0012    0.0000 C   0  0  0  0  0  0  0  0  0  0  0  0
    0.8680   -0.4978    0.0000 C   0  0  0  0  0  0  0  0  0  0  0  0
    0.0000    0.0000    0.0000 C   0  0  0  0  0  0  0  0  0  0  0  0
   -0.0000    1.0058    0.0000 C   0  0  0  0  0  0  0  0  0  0  0  0
    0.8680    1.5138    0.0000 C   0  0  0  0  0  0  0  0  0  0  0  0
   -0.8653   -0.5013    0.0000 O   0  0  0  0  0  0  0  0  0  0  0  0
  1  2  1  0  0  0  0
  2  3  1  0  0  0  0
  3  4  1  0  0  0  0
  4  5  2  0  0  0  0
  4  6  1  0  0  0  0
  6  7  1  0  0  0  0
  7  8  1  0  0  0  0
  8  9  1  0  0  0  0
  9 13  1  0  0  0  0
  9 10  2  0  0  0  0
 10 11  1  0  0  0  0
 11 12  1  0  0  0  0
 12 17  2  0  0  0  0
 12 13  1  0  0  0  0
 13 14  2  0  0  0  0
 14 15  1  0  0  0  0
 15 16  2  0  0  0  0
 16 17  1  0  0  0  0
 15 18  1  0  0  0  0
M  END
$$$$
s_22____13978824____7941800
  -OEChem-03222016482D

 18 19  0     0  0  0  0  0  0999 V2000
   -0.8705    2.5032    0.0000 C   0  0  0  0  0  0  0  0  0  0  0  0
   -0.8675    1.5032    0.0000 O   0  0  0  0  0  0  0  0  0  0  0  0
    0.0000    1.0058    0.0000 C   0  0  0  0  0  0  0  0  0  0  0  0
    0.0000    0.0000    0.0000 C   0  0  0  0  0  0  0  0  0  0  0  0
    0.8680   -0.4978    0.0000 C   0  0  0  0  0  0  0  0  0  0  0  0
    1.7360   -0.0012    0.0000 C   0  0  0  0  0  0  0  0  0  0  0  0
    1.7360    1.0058    0.0000 C   0  0  0  0  0  0  0  0  0  0  0  0
    0.8680    1.5138    0.0000 C   0  0  0  0  0  0  0  0  0  0  0  0
    2.6938    1.3169    0.0000 N   0  0  0  0  0  0  0  0  0  0  0  0
    3.2858    0.5023    0.0000 C   0  0  0  0  0  0  0  0  0  0  0  0
    2.6938   -0.3125    0.0000 C   0  0  0  0  0  0  0  0  0  0  0  0
    3.0028   -1.2636    0.0000 C   0  0  0  0  0  0  0  0  0  0  0  0
    3.9809   -1.4715    0.0000 C   0  0  0  0  0  0  0  0  0  0  0  0
    4.2899   -2.4226    0.0000 N   0  0  0  0  0  0  0  0  0  0  0  0
    5.2680   -2.6306    0.0000 C   0  0  0  0  0  0  0  0  0  0  0  0
    5.9372   -1.8874    0.0000 O   0  0  0  0  0  0  0  0  0  0  0  0
    5.5770   -3.5816    0.0000 C   0  0  0  0  0  0  0  0  0  0  0  0
    6.5551   -3.7896    0.0000 O   0  0  0  0  0  0  0  0  0  0  0  0
  1  2  1  0  0  0  0
  2  3  1  0  0  0  0
  3  8  2  0  0  0  0
  3  4  1  0  0  0  0
  4  5  2  0  0  0  0
  5  6  1  0  0  0  0
  6 11  1  0  0  0  0
  6  7  2  0  0  0  0
  7  8  1  0  0  0  0
  7  9  1  0  0  0  0
  9 10  1  0  0  0  0
 10 11  2  0  0  0  0
 11 12  1  0  0  0  0
 12 13  1  0  0  0  0
 13 14  1  0  0  0  0
 14 15  1  0  0  0  0
 15 16  2  0  0  0  0
 15 17  1  0  0  0  0
 17 18  1  0  0  0  0
M  END
$$$$
s_270004____8288600____16621896
  -OEChem-03222016482D

 17 18  0     0  0  0  0  0  0999 V2000
    7.7860   -2.0955    0.0000 C   0  0  0  0  0  0  0  0  0  0  0  0
    7.2859   -1.2295    0.0000 O   0  0  0  0  0  0  0  0  0  0  0  0
    6.2859   -1.2296    0.0000 C   0  0  0  0  0  0  0  0  0  0  0  0
    5.7859   -0.3636    0.0000 C   0  0  0  0  0  0  0  0  0  0  0  0
    4.7859   -0.3636    0.0000 N   0  3  0  0  0  0  0  0  0  0  0  0
    4.2858    0.5024    0.0000 C   0  0  0  0  0  0  0  0  0  0  0  0
    3.2858    0.5023    0.0000 C   0  0  0  0  0  0  0  0  0  0  0  0
    2.6938   -0.3125    0.0000 C   0  0  0  0  0  0  0  0  0  0  0  0
    1.7360   -0.0012    0.0000 C   0  0  0  0  0  0  0  0  0  0  0  0
    0.8680   -0.4978    0.0000 C   0  0  0  0  0  0  0  0  0  0  0  0
    0.0000    0.0000    0.0000 C   0  0  0  0  0  0  0  0  0  0  0  0
    0.0000    1.0058    0.0000 C   0  0  0  0  0  0  0  0  0  0  0  0
    0.8680    1.5138    0.0000 C   0  0  0  0  0  0  0  0  0  0  0  0
    1.7360    1.0058    0.0000 C   0  0  0  0  0  0  0  0  0  0  0  0
    2.6938    1.3169    0.0000 N   0  0  0  0  0  0  0  0  0  0  0  0
   -0.8653   -0.5013    0.0000 O   0  0  0  0  0  0  0  0  0  0  0  0
   -0.8639   -1.5013    0.0000 C   0  0  0  0  0  0  0  0  0  0  0  0
  1  2  1  0  0  0  0
  2  3  1  0  0  0  0
  3  4  1  0  0  0  0
  4  5  1  0  0  0  0
  5  6  1  0  0  0  0
  6  7  1  0  0  0  0
  7 15  1  0  0  0  0
  7  8  2  0  0  0  0
  8  9  1  0  0  0  0
  9 14  2  0  0  0  0
  9 10  1  0  0  0  0
 10 11  2  0  0  0  0
 11 12  1  0  0  0  0
 12 13  2  0  0  0  0
 13 14  1  0  0  0  0
 14 15  1  0  0  0  0
 11 16  1  0  0  0  0
 16 17  1  0  0  0  0
M  CHG  1   5   1
M  END
$$$$
s_240690b____17029356____3025680
  -OEChem-03222016482D

 18 19  0     0  0  0  0  0  0999 V2000
   -0.0000    1.0058    0.0000 C   0  0  0  0  0  0  0  0  0  0  0  0
    0.8680    1.5138    0.0000 C   0  0  0  0  0  0  0  0  0  0  0  0
    1.7360    1.0058    0.0000 C   0  0  0  0  0  0  0  0  0  0  0  0
    1.7360   -0.0012    0.0000 C   0  0  0  0  0  0  0  0  0  0  0  0
    0.8680   -0.4978    0.0000 C   0  0  0  0  0  0  0  0  0  0  0  0
    0.0000    0.0000    0.0000 C   0  0  0  0  0  0  0  0  0  0  0  0
   -0.8653   -0.5013    0.0000 F   0  0  0  0  0  0  0  0  0  0  0  0
    2.6938   -0.3125    0.0000 C   0  0  0  0  0  0  0  0  0  0  0  0
    3.2858    0.5023    0.0000 C   0  0  0  0  0  0  0  0  0  0  0  0
    2.6938    1.3169    0.0000 N   0  0  0  0  0  0  0  0  0  0  0  0
    3.0028   -1.2636    0.0000 C   0  0  0  0  0  0  0  0  0  0  0  0
    3.9809   -1.4715    0.0000 C   0  0  0  0  0  0  0  0  0  0  0  0
    4.2899   -2.4226    0.0000 N   0  0  0  0  0  0  0  0  0  0  0  0
    5.2680   -2.6306    0.0000 C   0  0  0  0  0  0  0  0  0  0  0  0
    5.9372   -1.8874    0.0000 O   0  0  0  0  0  0  0  0  0  0  0  0
    5.5770   -3.5816    0.0000 C   0  0  0  0  0  0  0  0  0  0  0  0
    6.5551   -3.7896    0.0000 C   0  0  0  0  0  0  0  0  0  0  0  0
    6.8641   -4.7407    0.0000 N   0  3  0  0  0  0  0  0  0  0  0  0
  1  6  2  0  0  0  0
  1  2  1  0  0  0  0
  2  3  2  0  0  0  0
  3 10  1  0  0  0  0
  3  4  1  0  0  0  0
  4  5  2  0  0  0  0
  5  6  1  0  0  0  0
  6  7  1  0  0  0  0
  4  8  1  0  0  0  0
  8  9  2  0  0  0  0
  9 10  1  0  0  0  0
  8 11  1  0  0  0  0
 11 12  1  0  0  0  0
 12 13  1  0  0  0  0
 13 14  1  0  0  0  0
 14 15  2  0  0  0  0
 14 16  1  0  0  0  0
 16 17  1  0  0  0  0
 17 18  1  0  0  0  0
M  CHG  1  18   1
M  END
$$$$
s_22____10565622____58844
  -OEChem-03222016482D

 17 18  0     0  0  0  0  0  0999 V2000
    5.5770   -3.5816    0.0000 C   0  0  0  0  0  0  0  0  0  0  0  0
    5.2680   -2.6306    0.0000 C   0  0  0  0  0  0  0  0  0  0  0  0
    5.9372   -1.8874    0.0000 O   0  0  0  0  0  0  0  0  0  0  0  0
    4.2899   -2.4226    0.0000 N   0  0  0  0  0  0  0  0  0  0  0  0
    3.9809   -1.4715    0.0000 C   0  0  0  0  0  0  0  0  0  0  0  0
    3.0028   -1.2636    0.0000 C   0  0  0  0  0  0  0  0  0  0  0  0
    2.6938   -0.3125    0.0000 C   0  0  0  0  0  0  0  0  0  0  0  0
    3.2858    0.5023    0.0000 C   0  0  0  0  0  0  0  0  0  0  0  0
    2.6938    1.3169    0.0000 N   0  0  0  0  0  0  0  0  0  0  0  0
    1.7360    1.0058    0.0000 C   0  0  0  0  0  0  0  0  0  0  0  0
    1.7360   -0.0012    0.0000 C   0  0  0  0  0  0  0  0  0  0  0  0
    0.8680   -0.4978    0.0000 C   0  0  0  0  0  0  0  0  0  0  0  0
    0.0000    0.0000    0.0000 C   0  0  0  0  0  0  0  0  0  0  0  0
   -0.0000    1.0058    0.0000 C   0  0  0  0  0  0  0  0  0  0  0  0
    0.8680    1.5138    0.0000 C   0  0  0  0  0  0  0  0  0  0  0  0
    0.8680    2.5138    0.0000 Cl  0  0  0  0  0  0  0  0  0  0  0  0
   -0.8653   -0.5013    0.0000 Cl  0  0  0  0  0  0  0  0  0  0  0  0
  1  2  1  0  0  0  0
  2  3  2  0  0  0  0
  2  4  1  0  0  0  0
  4  5  1  0  0  0  0
  5  6  1  0  0  0  0
  6  7  1  0  0  0  0
  7 11  1  0  0  0  0
  7  8  2  0  0  0  0
  8  9  1  0  0  0  0
  9 10  1  0  0  0  0
 10 15  2  0  0  0  0
 10 11  1  0  0  0  0
 11 12  2  0  0  0  0
 12 13  1  0  0  0  0
 13 14  2  0  0  0  0
 14 15  1  0  0  0  0
 15 16  1  0  0  0  0
 13 17  1  0  0  0  0
M  END
$$$$
s_22____13025516____16726278
  -OEChem-03222016482D

 21 22  0     0  0  0  0  0  0999 V2000
    8.1512   -5.8997    0.0000 C   0  0  0  0  0  0  0  0  0  0  0  0
    7.8422   -4.9486    0.0000 C   0  0  0  0  0  0  0  0  0  0  0  0
    6.8641   -4.7407    0.0000 C   0  0  0  0  0  0  0  0  0  0  0  0
    6.5551   -3.7896    0.0000 C   0  0  0  0  0  0  0  0  0  0  0  0
    5.5770   -3.5816    0.0000 C   0  0  0  0  0  0  0  0  0  0  0  0
    5.2680   -2.6306    0.0000 C   0  0  0  0  0  0  0  0  0  0  0  0
    5.9372   -1.8874    0.0000 O   0  0  0  0  0  0  0  0  0  0  0  0
    4.2899   -2.4226    0.0000 N   0  0  0  0  0  0  0  0  0  0  0  0
    3.9809   -1.4715    0.0000 C   0  0  0  0  0  0  0  0  0  0  0  0
    3.0028   -1.2636    0.0000 C   0  0  0  0  0  0  0  0  0  0  0  0
    2.6938   -0.3125    0.0000 C   0  0  0  0  0  0  0  0  0  0  0  0
    3.2858    0.5023    0.0000 C   0  0  0  0  0  0  0  0  0  0  0  0
    2.6938    1.3169    0.0000 N   0  0  0  0  0  0  0  0  0  0  0  0
    1.7360    1.0058    0.0000 C   0  0  0  0  0  0  0  0  0  0  0  0
    1.7360   -0.0012    0.0000 C   0  0  0  0  0  0  0  0  0  0  0  0
    0.8680   -0.4978    0.0000 C   0  0  0  0  0  0  0  0  0  0  0  0
    0.0000    0.0000    0.0000 C   0  0  0  0  0  0  0  0  0  0  0  0
   -0.0000    1.0058    0.0000 C   0  0  0  0  0  0  0  0  0  0  0  0
    0.8680    1.5138    0.0000 C   0  0  0  0  0  0  0  0  0  0  0  0
    0.8675   -1.4978    0.0000 O   0  0  0  0  0  0  0  0  0  0  0  0
    1.7332   -1.9983    0.0000 C   0  0  0  0  0  0  0  0  0  0  0  0
  1  2  1  0  0  0  0
  2  3  2  3  0  0  0
  3  4  1  0  0  0  0
  4  5  1  0  0  0  0
  5  6  1  0  0  0  0
  6  7  2  0  0  0  0
  6  8  1  0  0  0  0
  8  9  1  0  0  0  0
  9 10  1  0  0  0  0
 10 11  1  0  0  0  0
 11 15  1  0  0  0  0
 11 12  2  0  0  0  0
 12 13  1  0  0  0  0
 13 14  1  0  0  0  0
 14 19  2  0  0  0  0
 14 15  1  0  0  0  0
 15 16  2  0  0  0  0
 16 17  1  0  0  0  0
 17 18  2  0  0  0  0
 18 19  1  0  0  0  0
 16 20  1  0  0  0  0
 20 21  1  0  0  0  0
M  END
$$$$
s_240690b____17027970____13151248
  -OEChem-03222016482D

 20 21  0     0  0  0  0  0  0999 V2000
    1.7327   -2.9983    0.0000 C   0  0  0  0  0  0  0  0  0  0  0  0
    1.7332   -1.9983    0.0000 C   0  0  0  0  0  0  0  0  0  0  0  0
    0.8675   -1.4978    0.0000 O   0  0  0  0  0  0  0  0  0  0  0  0
    0.8680   -0.4978    0.0000 C   0  0  0  0  0  0  0  0  0  0  0  0
    0.0000    0.0000    0.0000 C   0  0  0  0  0  0  0  0  0  0  0  0
   -0.0000    1.0058    0.0000 C   0  0  0  0  0  0  0  0  0  0  0  0
    0.8680    1.5138    0.0000 C   0  0  0  0  0  0  0  0  0  0  0  0
    1.7360    1.0058    0.0000 C   0  0  0  0  0  0  0  0  0  0  0  0
    1.7360   -0.0012    0.0000 C   0  0  0  0  0  0  0  0  0  0  0  0
    2.6938   -0.3125    0.0000 C   0  0  0  0  0  0  0  0  0  0  0  0
    3.2858    0.5023    0.0000 C   0  0  0  0  0  0  0  0  0  0  0  0
    2.6938    1.3169    0.0000 N   0  0  0  0  0  0  0  0  0  0  0  0
    3.0028   -1.2636    0.0000 C   0  0  0  0  0  0  0  0  0  0  0  0
    3.9809   -1.4715    0.0000 C   0  0  0  0  0  0  0  0  0  0  0  0
    4.2899   -2.4226    0.0000 N   0  0  0  0  0  0  0  0  0  0  0  0
    5.2680   -2.6306    0.0000 C   0  0  0  0  0  0  0  0  0  0  0  0
    5.9372   -1.8874    0.0000 O   0  0  0  0  0  0  0  0  0  0  0  0
    5.5770   -3.5816    0.0000 C   0  0  0  0  0  0  0  0  0  0  0  0
    6.5551   -3.7896    0.0000 O   0  0  0  0  0  0  0  0  0  0  0  0
    6.8641   -4.7407    0.0000 N   0  0  0  0  0  0  0  0  0  0  0  0
  1  2  1  0  0  0  0
  2  3  1  0  0  0  0
  3  4  1  0  0  0  0
  4  9  2  0  0  0  0
  4  5  1  0  0  0  0
  5  6  2  0  0  0  0
  6  7  1  0  0  0  0
  7  8  2  0  0  0  0
  8 12  1  0  0  0  0
  8  9  1  0  0  0  0
  9 10  1  0  0  0  0
 10 11  2  0  0  0  0
 11 12  1  0  0  0  0
 10 13  1  0  0  0  0
 13 14  1  0  0  0  0
 14 15  1  0  0  0  0
 15 16  1  0  0  0  0
 16 17  2  0  0  0  0
 16 18  1  0  0  0  0
 18 19  1  0  0  0  0
 19 20  1  0  0  0  0
M  END
$$$$
s_22____4145702____58844
  -OEChem-03222016482D

 16 17  0     0  0  0  0  0  0999 V2000
    1.6132   -5.3951    0.0000 C   0  0  0  0  0  0  0  0  0  0  0  0
    2.2824   -4.6519    0.0000 C   0  0  0  0  0  0  0  0  0  0  0  0
    3.2605   -4.8599    0.0000 O   0  0  0  0  0  0  0  0  0  0  0  0
    1.9734   -3.7009    0.0000 N   0  0  0  0  0  0  0  0  0  0  0  0
    2.6426   -2.9578    0.0000 C   0  0  0  0  0  0  0  0  0  0  0  0
    2.3336   -2.0067    0.0000 C   0  0  0  0  0  0  0  0  0  0  0  0
    3.0028   -1.2636    0.0000 C   0  0  0  0  0  0  0  0  0  0  0  0
    2.6938   -0.3125    0.0000 C   0  0  0  0  0  0  0  0  0  0  0  0
    3.2858    0.5023    0.0000 C   0  0  0  0  0  0  0  0  0  0  0  0
    2.6938    1.3169    0.0000 N   0  0  0  0  0  0  0  0  0  0  0  0
    1.7360    1.0058    0.0000 C   0  0  0  0  0  0  0  0  0  0  0  0
    1.7360   -0.0012    0.0000 C   0  0  0  0  0  0  0  0  0  0  0  0
    0.8680   -0.4978    0.0000 C   0  0  0  0  0  0  0  0  0  0  0  0
    0.0000    0.0000    0.0000 C   0  0  0  0  0  0  0  0  0  0  0  0
   -0.0000    1.0058    0.0000 C   0  0  0  0  0  0  0  0  0  0  0  0
    0.8680    1.5138    0.0000 C   0  0  0  0  0  0  0  0  0  0  0  0
  1  2  1  0  0  0  0
  2  3  2  0  0  0  0
  2  4  1  0  0  0  0
  4  5  1  0  0  0  0
  5  6  1  0  0  0  0
  6  7  1  0  0  0  0
  7  8  1  0  0  0  0
  8 12  1  0  0  0  0
  8  9  2  0  0  0  0
  9 10  1  0  0  0  0
 10 11  1  0  0  0  0
 11 16  2  0  0  0  0
 11 12  1  0  0  0  0
 12 13  2  0  0  0  0
 13 14  1  0  0  0  0
 14 15  2  0  0  0  0
 15 16  1  0  0  0  0
M  END
$$$$
s_272164____14971852____17341378
  -OEChem-03222016482D

 23 24  0     0  0  0  0  0  0999 V2000
   -3.4641   -0.0050    0.0000 C   0  0  0  0  0  0  0  0  0  0  0  0
   -2.5974   -0.5038    0.0000 C   0  0  0  0  0  0  0  0  0  0  0  0
   -1.7320   -0.0025    0.0000 C   0  0  0  0  0  0  0  0  0  0  0  0
   -0.8653   -0.5013    0.0000 O   0  0  0  0  0  0  0  0  0  0  0  0
    0.0000    0.0000    0.0000 C   0  0  0  0  0  0  0  0  0  0  0  0
   -0.0000    1.0058    0.0000 C   0  0  0  0  0  0  0  0  0  0  0  0
    0.8680    1.5138    0.0000 C   0  0  0  0  0  0  0  0  0  0  0  0
    1.7360    1.0058    0.0000 C   0  0  0  0  0  0  0  0  0  0  0  0
    1.7360   -0.0012    0.0000 C   0  0  0  0  0  0  0  0  0  0  0  0
    0.8680   -0.4978    0.0000 C   0  0  0  0  0  0  0  0  0  0  0  0
    2.6938   -0.3125    0.0000 C   0  0  0  0  0  0  0  0  0  0  0  0
    3.2858    0.5023    0.0000 C   0  0  0  0  0  0  0  0  0  0  0  0
    2.6938    1.3169    0.0000 N   0  0  0  0  0  0  0  0  0  0  0  0
    3.0028   -1.2636    0.0000 C   0  0  0  0  0  0  0  0  0  0  0  0
    3.9809   -1.4715    0.0000 C   0  0  0  0  0  0  0  0  0  0  0  0
    4.2899   -2.4226    0.0000 N   0  0  0  0  0  0  0  0  0  0  0  0
    5.2680   -2.6306    0.0000 C   0  0  0  0  0  0  0  0  0  0  0  0
    5.9372   -1.8874    0.0000 O   0  0  0  0  0  0  0  0  0  0  0  0
    5.5770   -3.5816    0.0000 N   0  0  0  0  0  0  0  0  0  0  0  0
    4.9078   -4.3247    0.0000 C   0  0  0  0  0  0  0  0  0  0  0  0
    6.5551   -3.7896    0.0000 C   0  0  0  0  0  0  0  0  0  0  0  0
    6.8641   -4.7407    0.0000 C   0  0  0  0  0  0  0  0  0  0  0  0
    7.8422   -4.9486    0.0000 F   0  0  0  0  0  0  0  0  0  0  0  0
  1  2  1  0  0  0  0
  2  3  1  0  0  0  0
  3  4  1  0  0  0  0
  4  5  1  0  0  0  0
  5 10  2  0  0  0  0
  5  6  1  0  0  0  0
  6  7  2  0  0  0  0
  7  8  1  0  0  0  0
  8 13  1  0  0  0  0
  8  9  2  0  0  0  0
  9 10  1  0  0  0  0
  9 11  1  0  0  0  0
 11 12  2  0  0  0  0
 12 13  1  0  0  0  0
 11 14  1  0  0  0  0
 14 15  1  0  0  0  0
 15 16  1  0  0  0  0
 16 17  1  0  0  0  0
 17 18  2  0  0  0  0
 17 19  1  0  0  0  0
 19 20  1  0  0  0  0
 19 21  1  0  0  0  0
 21 22  1  0  0  0  0
 22 23  1  0  0  0  0
M  END
$$$$
s_270062____15754776____15585492
  -OEChem-03222016482D

 18 19  0     0  0  0  0  0  0999 V2000
    1.3042   -4.4440    0.0000 C   0  0  0  0  0  0  0  0  0  0  0  0
    1.9734   -3.7009    0.0000 C   0  0  0  0  0  0  0  0  0  0  0  0
    2.9515   -3.9088    0.0000 O   0  0  0  0  0  0  0  0  0  0  0  0
    1.6644   -2.7498    0.0000 N   0  0  0  0  0  0  0  0  0  0  0  0
    2.3336   -2.0067    0.0000 C   0  0  0  0  0  0  0  0  0  0  0  0
    1.5905   -1.3375    0.0000 C   0  0  0  0  0  0  0  0  0  0  0  0
    3.0767   -2.6759    0.0000 C   0  0  0  0  0  0  0  0  0  0  0  0
    3.0028   -1.2636    0.0000 C   0  0  0  0  0  0  0  0  0  0  0  0
    2.6938   -0.3125    0.0000 C   0  0  0  0  0  0  0  0  0  0  0  0
    3.2858    0.5023    0.0000 C   0  0  0  0  0  0  0  0  0  0  0  0
    2.6938    1.3169    0.0000 N   0  0  0  0  0  0  0  0  0  0  0  0
    1.7360    1.0058    0.0000 C   0  0  0  0  0  0  0  0  0  0  0  0
    1.7360   -0.0012    0.0000 C   0  0  0  0  0  0  0  0  0  0  0  0
    0.8680   -0.4978    0.0000 C   0  0  0  0  0  0  0  0  0  0  0  0
    0.0000    0.0000    0.0000 C   0  0  0  0  0  0  0  0  0  0  0  0
   -0.0000    1.0058    0.0000 C   0  0  0  0  0  0  0  0  0  0  0  0
    0.8680    1.5138    0.0000 C   0  0  0  0  0  0  0  0  0  0  0  0
   -0.8675    1.5032    0.0000 F   0  0  0  0  0  0  0  0  0  0  0  0
  1  2  1  0  0  0  0
  2  3  2  0  0  0  0
  2  4  1  0  0  0  0
  4  5  1  0  0  0  0
  5  6  1  0  0  0  0
  5  7  1  0  0  0  0
  5  8  1  0  0  0  0
  8  9  1  0  0  0  0
  9 13  1  0  0  0  0
  9 10  2  0  0  0  0
 10 11  1  0  0  0  0
 11 12  1  0  0  0  0
 12 17  2  0  0  0  0
 12 13  1  0  0  0  0
 13 14  2  0  0  0  0
 14 15  1  0  0  0  0
 15 16  2  0  0  0  0
 16 17  1  0  0  0  0
 16 18  1  0  0  0  0
M  END
$$$$
s_270062____16423138____8147258
  -OEChem-03222016482D

 19 20  0     0  0  0  0  0  0999 V2000
   -2.5974   -0.5038    0.0000 C   0  0  0  0  0  0  0  0  0  0  0  0
   -1.7320   -0.0025    0.0000 C   0  0  0  0  0  0  0  0  0  0  0  0
   -1.7335    0.9975    0.0000 C   0  0  0  0  0  0  0  0  0  0  0  0
   -0.8653   -0.5013    0.0000 O   0  0  0  0  0  0  0  0  0  0  0  0
    0.0000    0.0000    0.0000 C   0  0  0  0  0  0  0  0  0  0  0  0
   -0.0000    1.0058    0.0000 C   0  0  0  0  0  0  0  0  0  0  0  0
    0.8680    1.5138    0.0000 C   0  0  0  0  0  0  0  0  0  0  0  0
    1.7360    1.0058    0.0000 C   0  0  0  0  0  0  0  0  0  0  0  0
    1.7360   -0.0012    0.0000 C   0  0  0  0  0  0  0  0  0  0  0  0
    0.8680   -0.4978    0.0000 C   0  0  0  0  0  0  0  0  0  0  0  0
    2.6938   -0.3125    0.0000 C   0  0  0  0  0  0  0  0  0  0  0  0
    3.2858    0.5023    0.0000 C   0  0  0  0  0  0  0  0  0  0  0  0
    2.6938    1.3169    0.0000 N   0  0  0  0  0  0  0  0  0  0  0  0
    3.0028   -1.2636    0.0000 C   0  0  0  0  0  0  0  0  0  0  0  0
    3.9809   -1.4715    0.0000 N   0  0  0  0  0  0  0  0  0  0  0  0
    4.2899   -2.4226    0.0000 C   0  0  0  0  0  0  0  0  0  0  0  0
    3.6207   -3.1657    0.0000 O   0  0  0  0  0  0  0  0  0  0  0  0
    5.2680   -2.6306    0.0000 C   0  0  0  0  0  0  0  0  0  0  0  0
    5.5770   -3.5816    0.0000 Cl  0  0  0  0  0  0  0  0  0  0  0  0
  1  2  1  0  0  0  0
  2  3  1  0  0  0  0
  2  4  1  0  0  0  0
  4  5  1  0  0  0  0
  5 10  2  0  0  0  0
  5  6  1  0  0  0  0
  6  7  2  0  0  0  0
  7  8  1  0  0  0  0
  8 13  1  0  0  0  0
  8  9  2  0  0  0  0
  9 10  1  0  0  0  0
  9 11  1  0  0  0  0
 11 12  2  0  0  0  0
 12 13  1  0  0  0  0
 11 14  1  0  0  0  0
 14 15  1  0  0  0  0
 15 16  1  0  0  0  0
 16 17  2  0  0  0  0
 16 18  1  0  0  0  0
 18 19  1  0  0  0  0
M  END
$$$$
s_22____15506616____16783912
  -OEChem-03222016482D

 20 21  0     0  0  0  0  0  0999 V2000
    1.7340    3.0138    0.0000 C   0  0  0  0  0  0  0  0  0  0  0  0
    0.8680    2.5138    0.0000 O   0  0  0  0  0  0  0  0  0  0  0  0
    0.8680    1.5138    0.0000 C   0  0  0  0  0  0  0  0  0  0  0  0
    0.0000    1.0058    0.0000 C   0  0  0  0  0  0  0  0  0  0  0  0
    0.0000    0.0000    0.0000 C   0  0  0  0  0  0  0  0  0  0  0  0
    0.8680   -0.4978    0.0000 C   0  0  0  0  0  0  0  0  0  0  0  0
    1.7360   -0.0012    0.0000 C   0  0  0  0  0  0  0  0  0  0  0  0
    1.7360    1.0058    0.0000 C   0  0  0  0  0  0  0  0  0  0  0  0
    2.6938    1.3169    0.0000 N   0  0  0  0  0  0  0  0  0  0  0  0
    3.2858    0.5023    0.0000 C   0  0  0  0  0  0  0  0  0  0  0  0
    2.6938   -0.3125    0.0000 C   0  0  0  0  0  0  0  0  0  0  0  0
    3.0028   -1.2636    0.0000 C   0  0  0  0  0  0  0  0  0  0  0  0
    3.9809   -1.4715    0.0000 C   0  0  0  0  0  0  0  0  0  0  0  0
    4.2899   -2.4226    0.0000 N   0  0  0  0  0  0  0  0  0  0  0  0
    5.2680   -2.6306    0.0000 C   0  0  0  0  0  0  0  0  0  0  0  0
    5.9372   -1.8874    0.0000 O   0  0  0  0  0  0  0  0  0  0  0  0
    5.5770   -3.5816    0.0000 C   0  0  0  0  0  0  0  0  0  0  0  0
    6.5551   -3.7896    0.0000 C   0  0  0  0  0  0  0  0  0  0  0  0
    6.8641   -4.7407    0.0000 C   0  0  0  0  0  0  0  0  0  0  0  0
    7.8422   -4.9486    0.0000 O   0  0  0  0  0  0  0  0  0  0  0  0
  1  2  1  0  0  0  0
  2  3  1  0  0  0  0
  3  8  2  0  0  0  0
  3  4  1  0  0  0  0
  4  5  2  0  0  0  0
  5  6  1  0  0  0  0
  6  7  2  0  0  0  0
  7 11  1  0  0  0  0
  7  8  1  0  0  0  0
  8  9  1  0  0  0  0
  9 10  1  0  0  0  0
 10 11  2  0  0  0  0
 11 12  1  0  0  0  0
 12 13  1  0  0  0  0
 13 14  1  0  0  0  0
 14 15  1  0  0  0  0
 15 16  2  0  0  0  0
 15 17  1  0  0  0  0
 17 18  1  0  0  0  0
 18 19  1  0  0  0  0
 19 20  1  0  0  0  0
M  END
$$$$
s_272164____14971852____17342478
  -OEChem-03222016482D

 21 22  0     0  0  0  0  0  0999 V2000
    3.2605   -4.8599    0.0000 C   0  0  0  0  0  0  0  0  0  0  0  0
    2.2824   -4.6519    0.0000 N   0  0  0  0  0  0  0  0  0  0  0  0
    1.6132   -5.3951    0.0000 C   0  0  0  0  0  0  0  0  0  0  0  0
    1.9222   -6.3461    0.0000 C   0  0  0  0  0  0  0  0  0  0  0  0
    1.2530   -7.0892    0.0000 F   0  0  0  0  0  0  0  0  0  0  0  0
    1.9734   -3.7009    0.0000 C   0  0  0  0  0  0  0  0  0  0  0  0
    0.9953   -3.4929    0.0000 O   0  0  0  0  0  0  0  0  0  0  0  0
    2.6426   -2.9578    0.0000 N   0  0  0  0  0  0  0  0  0  0  0  0
    2.3336   -2.0067    0.0000 C   0  0  0  0  0  0  0  0  0  0  0  0
    3.0028   -1.2636    0.0000 C   0  0  0  0  0  0  0  0  0  0  0  0
    2.6938   -0.3125    0.0000 C   0  0  0  0  0  0  0  0  0  0  0  0
    3.2858    0.5023    0.0000 C   0  0  0  0  0  0  0  0  0  0  0  0
    2.6938    1.3169    0.0000 N   0  0  0  0  0  0  0  0  0  0  0  0
    1.7360    1.0058    0.0000 C   0  0  0  0  0  0  0  0  0  0  0  0
    1.7360   -0.0012    0.0000 C   0  0  0  0  0  0  0  0  0  0  0  0
    0.8680   -0.4978    0.0000 C   0  0  0  0  0  0  0  0  0  0  0  0
    0.0000    0.0000    0.0000 C   0  0  0  0  0  0  0  0  0  0  0  0
   -0.0000    1.0058    0.0000 C   0  0  0  0  0  0  0  0  0  0  0  0
    0.8680    1.5138    0.0000 C   0  0  0  0  0  0  0  0  0  0  0  0
   -0.8675    1.5032    0.0000 O   0  0  0  0  0  0  0  0  0  0  0  0
   -1.7320    1.0007    0.0000 C   0  0  0  0  0  0  0  0  0  0  0  0
  1  2  1  0  0  0  0
  2  3  1  0  0  0  0
  3  4  1  0  0  0  0
  4  5  1  0  0  0  0
  2  6  1  0  0  0  0
  6  7  2  0  0  0  0
  6  8  1  0  0  0  0
  8  9  1  0  0  0  0
  9 10  1  0  0  0  0
 10 11  1  0  0  0  0
 11 15  1  0  0  0  0
 11 12  2  0  0  0  0
 12 13  1  0  0  0  0
 13 14  1  0  0  0  0
 14 19  2  0  0  0  0
 14 15  1  0  0  0  0
 15 16  2  0  0  0  0
 16 17  1  0  0  0  0
 17 18  2  0  0  0  0
 18 19  1  0  0  0  0
 18 20  1  0  0  0  0
 20 21  1  0  0  0  0
M  END
$$$$
s_270004____16631050____15269820
  -OEChem-03222016482D

 22 23  0     1  0  0  0  0  0999 V2000
    6.2856    3.9666    0.0000 C   0  0  0  0  0  0  0  0  0  0  0  0
    5.7856    3.1005    0.0000 C   0  0  0  0  0  0  0  0  0  0  0  0
    6.2857    2.2345    0.0000 C   0  0  0  0  0  0  0  0  0  0  0  0
    5.7858    1.3685    0.0000 C   0  0  3  0  0  0  0  0  0  0  0  0
    6.2858    0.5025    0.0000 C   0  0  0  0  0  0  0  0  0  0  0  0
    5.7859   -0.3636    0.0000 O   0  0  0  0  0  0  0  0  0  0  0  0
    7.2858    0.5025    0.0000 N   0  0  0  0  0  0  0  0  0  0  0  0
    7.7858    1.3686    0.0000 C   0  0  0  0  0  0  0  0  0  0  0  0
    7.7859   -0.3635    0.0000 C   0  0  0  0  0  0  0  0  0  0  0  0
    4.7858    1.3684    0.0000 N   0  3  0  0  0  0  0  0  0  0  0  0
    4.2858    0.5024    0.0000 C   0  0  0  0  0  0  0  0  0  0  0  0
    3.2858    0.5023    0.0000 C   0  0  0  0  0  0  0  0  0  0  0  0
    2.6938   -0.3125    0.0000 C   0  0  0  0  0  0  0  0  0  0  0  0
    1.7360   -0.0012    0.0000 C   0  0  0  0  0  0  0  0  0  0  0  0
    1.7360    1.0058    0.0000 C   0  0  0  0  0  0  0  0  0  0  0  0
    2.6938    1.3169    0.0000 N   0  0  0  0  0  0  0  0  0  0  0  0
    0.8680    1.5138    0.0000 C   0  0  0  0  0  0  0  0  0  0  0  0
    0.0000    1.0058    0.0000 C   0  0  0  0  0  0  0  0  0  0  0  0
    0.0000    0.0000    0.0000 C   0  0  0  0  0  0  0  0  0  0  0  0
    0.8680   -0.4978    0.0000 C   0  0  0  0  0  0  0  0  0  0  0  0
    0.8675   -1.4978    0.0000 O   0  0  0  0  0  0  0  0  0  0  0  0
    1.7332   -1.9983    0.0000 C   0  0  0  0  0  0  0  0  0  0  0  0
  1  2  1  0  0  0  0
  2  3  1  0  0  0  0
  3  4  1  0  0  0  0
  4  5  1  0  0  0  0
  5  6  2  0  0  0  0
  5  7  1  0  0  0  0
  7  8  1  0  0  0  0
  7  9  1  0  0  0  0
  4 10  1  0  0  0  0
 10 11  1  0  0  0  0
 11 12  1  0  0  0  0
 12 16  1  0  0  0  0
 12 13  2  0  0  0  0
 13 14  1  0  0  0  0
 14 20  2  0  0  0  0
 14 15  1  0  0  0  0
 15 16  1  0  0  0  0
 15 17  2  0  0  0  0
 17 18  1  0  0  0  0
 18 19  2  0  0  0  0
 19 20  1  0  0  0  0
 20 21  1  0  0  0  0
 21 22  1  0  0  0  0
M  CHG  1  10   1
M  END
$$$$
s_22____13596594____58887
  -OEChem-03222016482D

 16 17  0     0  0  0  0  0  0999 V2000
    1.6412   -5.3881    0.0000 C   0  0  0  0  0  0  0  0  0  0  0  0
    2.3063   -4.6413    0.0000 C   0  0  0  0  0  0  0  0  0  0  0  0
    1.9921   -3.6920    0.0000 C   0  0  0  0  0  0  0  0  0  0  0  0
    1.0129   -3.4893    0.0000 O   0  0  0  0  0  0  0  0  0  0  0  0
    2.6572   -2.9452    0.0000 N   0  0  0  0  0  0  0  0  0  0  0  0
    2.3431   -1.9958    0.0000 C   0  0  0  0  0  0  0  0  0  0  0  0
    3.0082   -1.2491    0.0000 C   0  0  0  0  0  0  0  0  0  0  0  0
    2.6940   -0.2997    0.0000 C   0  0  0  0  0  0  0  0  0  0  0  0
    3.2780    0.5133    0.0000 C   0  0  0  0  0  0  0  0  0  0  0  0
    2.6851    1.3196    0.0000 N   0  0  0  0  0  0  0  0  0  0  0  0
    1.7350    1.0052    0.0000 C   0  0  0  0  0  0  0  0  0  0  0  0
    1.7405    0.0044    0.0000 C   0  0  0  0  0  0  0  0  0  0  0  0
    0.8675   -0.4975    0.0000 C   0  0  0  0  0  0  0  0  0  0  0  0
    0.0000    0.0000    0.0000 C   0  0  0  0  0  0  0  0  0  0  0  0
   -0.0000    1.0052    0.0000 C   0  0  0  0  0  0  0  0  0  0  0  0
    0.8675    1.5129    0.0000 N   0  0  0  0  0  0  0  0  0  0  0  0
  1  2  1  0  0  0  0
  2  3  1  0  0  0  0
  3  4  2  0  0  0  0
  3  5  1  0  0  0  0
  5  6  1  0  0  0  0
  6  7  1  0  0  0  0
  7  8  1  0  0  0  0
  8 12  1  0  0  0  0
  8  9  2  0  0  0  0
  9 10  1  0  0  0  0
 10 11  1  0  0  0  0
 11 16  2  0  0  0  0
 11 12  1  0  0  0  0
 12 13  2  0  0  0  0
 13 14  1  0  0  0  0
 14 15  2  0  0  0  0
 15 16  1  0  0  0  0
M  END
$$$$
s_240690b____11689238____7368582
  -OEChem-03222016482D

 18 19  0     0  0  0  0  0  0999 V2000
   -0.8675    1.5032    0.0000 C   0  0  0  0  0  0  0  0  0  0  0  0
    0.0000    1.0058    0.0000 C   0  0  0  0  0  0  0  0  0  0  0  0
    0.0000    0.0000    0.0000 C   0  0  0  0  0  0  0  0  0  0  0  0
    0.8680   -0.4978    0.0000 C   0  0  0  0  0  0  0  0  0  0  0  0
    1.7360   -0.0012    0.0000 C   0  0  0  0  0  0  0  0  0  0  0  0
    1.7360    1.0058    0.0000 C   0  0  0  0  0  0  0  0  0  0  0  0
    0.8680    1.5138    0.0000 C   0  0  0  0  0  0  0  0  0  0  0  0
    2.6938    1.3169    0.0000 N   0  0  0  0  0  0  0  0  0  0  0  0
    3.2858    0.5023    0.0000 C   0  0  0  0  0  0  0  0  0  0  0  0
    2.6938   -0.3125    0.0000 C   0  0  0  0  0  0  0  0  0  0  0  0
    3.0028   -1.2636    0.0000 C   0  0  0  0  0  0  0  0  0  0  0  0
    3.9809   -1.4715    0.0000 C   0  0  0  0  0  0  0  0  0  0  0  0
    4.2899   -2.4226    0.0000 N   0  0  0  0  0  0  0  0  0  0  0  0
    5.2680   -2.6306    0.0000 C   0  0  0  0  0  0  0  0  0  0  0  0
    5.9372   -1.8874    0.0000 O   0  0  0  0  0  0  0  0  0  0  0  0
    5.5770   -3.5816    0.0000 C   0  0  0  0  0  0  0  0  0  0  0  0
    6.5551   -3.7896    0.0000 N   0  3  0  0  0  0  0  0  0  0  0  0
    6.8641   -4.7407    0.0000 C   0  0  0  0  0  0  0  0  0  0  0  0
  1  2  1  0  0  0  0
  2  7  2  0  0  0  0
  2  3  1  0  0  0  0
  3  4  2  0  0  0  0
  4  5  1  0  0  0  0
  5 10  1  0  0  0  0
  5  6  2  0  0  0  0
  6  7  1  0  0  0  0
  6  8  1  0  0  0  0
  8  9  1  0  0  0  0
  9 10  2  0  0  0  0
 10 11  1  0  0  0  0
 11 12  1  0  0  0  0
 12 13  1  0  0  0  0
 13 14  1  0  0  0  0
 14 15  2  0  0  0  0
 14 16  1  0  0  0  0
 16 17  1  0  0  0  0
 17 18  1  0  0  0  0
M  CHG  1  17   1
M  END
$$$$
s_22____15775398____58844
  -OEChem-03222016482D

 23 25  0     0  0  0  0  0  0999 V2000
    5.5770   -3.5816    0.0000 C   0  0  0  0  0  0  0  0  0  0  0  0
    5.2680   -2.6306    0.0000 C   0  0  0  0  0  0  0  0  0  0  0  0
    5.9372   -1.8874    0.0000 O   0  0  0  0  0  0  0  0  0  0  0  0
    4.2899   -2.4226    0.0000 N   0  0  0  0  0  0  0  0  0  0  0  0
    3.9809   -1.4715    0.0000 C   0  0  0  0  0  0  0  0  0  0  0  0
    3.0028   -1.2636    0.0000 C   0  0  0  0  0  0  0  0  0  0  0  0
    2.6938   -0.3125    0.0000 C   0  0  0  0  0  0  0  0  0  0  0  0
    3.2858    0.5023    0.0000 C   0  0  0  0  0  0  0  0  0  0  0  0
    2.6938    1.3169    0.0000 N   0  0  0  0  0  0  0  0  0  0  0  0
    1.7360    1.0058    0.0000 C   0  0  0  0  0  0  0  0  0  0  0  0
    1.7360   -0.0012    0.0000 C   0  0  0  0  0  0  0  0  0  0  0  0
    0.8680   -0.4978    0.0000 C   0  0  0  0  0  0  0  0  0  0  0  0
    0.0000    0.0000    0.0000 C   0  0  0  0  0  0  0  0  0  0  0  0
   -0.0000    1.0058    0.0000 C   0  0  0  0  0  0  0  0  0  0  0  0
    0.8680    1.5138    0.0000 C   0  0  0  0  0  0  0  0  0  0  0  0
    0.8680    2.5138    0.0000 O   0  0  0  0  0  0  0  0  0  0  0  0
    0.0020    3.0138    0.0000 C   0  0  0  0  0  0  0  0  0  0  0  0
    0.0020    4.0138    0.0000 C   0  0  0  0  0  0  0  0  0  0  0  0
   -0.8700    4.5138    0.0000 C   0  0  0  0  0  0  0  0  0  0  0  0
   -0.8701    5.5139    0.0000 C   0  0  0  0  0  0  0  0  0  0  0  0
   -0.0070    6.0189    0.0000 C   0  0  0  0  0  0  0  0  0  0  0  0
    0.8650    5.5189    0.0000 C   0  0  0  0  0  0  0  0  0  0  0  0
    0.8739    4.5138    0.0000 C   0  0  0  0  0  0  0  0  0  0  0  0
  1  2  1  0  0  0  0
  2  3  2  0  0  0  0
  2  4  1  0  0  0  0
  4  5  1  0  0  0  0
  5  6  1  0  0  0  0
  6  7  1  0  0  0  0
  7 11  1  0  0  0  0
  7  8  2  0  0  0  0
  8  9  1  0  0  0  0
  9 10  1  0  0  0  0
 10 15  2  0  0  0  0
 10 11  1  0  0  0  0
 11 12  2  0  0  0  0
 12 13  1  0  0  0  0
 13 14  2  0  0  0  0
 14 15  1  0  0  0  0
 15 16  1  0  0  0  0
 16 17  1  0  0  0  0
 17 18  1  0  0  0  0
 18 23  2  0  0  0  0
 18 19  1  0  0  0  0
 19 20  2  0  0  0  0
 20 21  1  0  0  0  0
 21 22  2  0  0  0  0
 22 23  1  0  0  0  0
M  END
$$$$
s_22____15506616____10748158
  -OEChem-03222016482D

 21 22  0     0  0  0  0  0  0999 V2000
    1.7340    3.0138    0.0000 C   0  0  0  0  0  0  0  0  0  0  0  0
    0.8680    2.5138    0.0000 O   0  0  0  0  0  0  0  0  0  0  0  0
    0.8680    1.5138    0.0000 C   0  0  0  0  0  0  0  0  0  0  0  0
    0.0000    1.0058    0.0000 C   0  0  0  0  0  0  0  0  0  0  0  0
    0.0000    0.0000    0.0000 C   0  0  0  0  0  0  0  0  0  0  0  0
    0.8680   -0.4978    0.0000 C   0  0  0  0  0  0  0  0  0  0  0  0
    1.7360   -0.0012    0.0000 C   0  0  0  0  0  0  0  0  0  0  0  0
    1.7360    1.0058    0.0000 C   0  0  0  0  0  0  0  0  0  0  0  0
    2.6938    1.3169    0.0000 N   0  0  0  0  0  0  0  0  0  0  0  0
    3.2858    0.5023    0.0000 C   0  0  0  0  0  0  0  0  0  0  0  0
    2.6938   -0.3125    0.0000 C   0  0  0  0  0  0  0  0  0  0  0  0
    3.0028   -1.2636    0.0000 C   0  0  0  0  0  0  0  0  0  0  0  0
    3.9809   -1.4715    0.0000 C   0  0  0  0  0  0  0  0  0  0  0  0
    4.2899   -2.4226    0.0000 N   0  0  0  0  0  0  0  0  0  0  0  0
    5.2680   -2.6306    0.0000 C   0  0  0  0  0  0  0  0  0  0  0  0
    5.9372   -1.8874    0.0000 O   0  0  0  0  0  0  0  0  0  0  0  0
    5.5770   -3.5816    0.0000 C   0  0  0  0  0  0  0  0  0  0  0  0
    6.5551   -3.7896    0.0000 S   0  0  0  0  0  0  0  0  0  0  0  0
    6.8641   -4.7407    0.0000 C   0  0  0  0  0  0  0  0  0  0  0  0
    7.8422   -4.9486    0.0000 F   0  0  0  0  0  0  0  0  0  0  0  0
    6.1949   -5.4838    0.0000 F   0  0  0  0  0  0  0  0  0  0  0  0
  1  2  1  0  0  0  0
  2  3  1  0  0  0  0
  3  8  2  0  0  0  0
  3  4  1  0  0  0  0
  4  5  2  0  0  0  0
  5  6  1  0  0  0  0
  6  7  2  0  0  0  0
  7 11  1  0  0  0  0
  7  8  1  0  0  0  0
  8  9  1  0  0  0  0
  9 10  1  0  0  0  0
 10 11  2  0  0  0  0
 11 12  1  0  0  0  0
 12 13  1  0  0  0  0
 13 14  1  0  0  0  0
 14 15  1  0  0  0  0
 15 16  2  0  0  0  0
 15 17  1  0  0  0  0
 17 18  1  0  0  0  0
 18 19  1  0  0  0  0
 19 20  1  0  0  0  0
 19 21  1  0  0  0  0
M  END
$$$$
s_22____13025516____59039
  -OEChem-03222016482D

 19 20  0     0  0  0  0  0  0999 V2000
    6.8641   -4.7407    0.0000 C   0  0  0  0  0  0  0  0  0  0  0  0
    6.5551   -3.7896    0.0000 O   0  0  0  0  0  0  0  0  0  0  0  0
    5.5770   -3.5816    0.0000 C   0  0  0  0  0  0  0  0  0  0  0  0
    5.2680   -2.6306    0.0000 C   0  0  0  0  0  0  0  0  0  0  0  0
    5.9372   -1.8874    0.0000 O   0  0  0  0  0  0  0  0  0  0  0  0
    4.2899   -2.4226    0.0000 N   0  0  0  0  0  0  0  0  0  0  0  0
    3.9809   -1.4715    0.0000 C   0  0  0  0  0  0  0  0  0  0  0  0
    3.0028   -1.2636    0.0000 C   0  0  0  0  0  0  0  0  0  0  0  0
    2.6938   -0.3125    0.0000 C   0  0  0  0  0  0  0  0  0  0  0  0
    3.2858    0.5023    0.0000 C   0  0  0  0  0  0  0  0  0  0  0  0
    2.6938    1.3169    0.0000 N   0  0  0  0  0  0  0  0  0  0  0  0
    1.7360    1.0058    0.0000 C   0  0  0  0  0  0  0  0  0  0  0  0
    1.7360   -0.0012    0.0000 C   0  0  0  0  0  0  0  0  0  0  0  0
    0.8680   -0.4978    0.0000 C   0  0  0  0  0  0  0  0  0  0  0  0
    0.0000    0.0000    0.0000 C   0  0  0  0  0  0  0  0  0  0  0  0
   -0.0000    1.0058    0.0000 C   0  0  0  0  0  0  0  0  0  0  0  0
    0.8680    1.5138    0.0000 C   0  0  0  0  0  0  0  0  0  0  0  0
    0.8675   -1.4978    0.0000 O   0  0  0  0  0  0  0  0  0  0  0  0
    1.7332   -1.9983    0.0000 C   0  0  0  0  0  0  0  0  0  0  0  0
  1  2  1  0  0  0  0
  2  3  1  0  0  0  0
  3  4  1  0  0  0  0
  4  5  2  0  0  0  0
  4  6  1  0  0  0  0
  6  7  1  0  0  0  0
  7  8  1  0  0  0  0
  8  9  1  0  0  0  0
  9 13  1  0  0  0  0
  9 10  2  0  0  0  0
 10 11  1  0  0  0  0
 11 12  1  0  0  0  0
 12 17  2  0  0  0  0
 12 13  1  0  0  0  0
 13 14  2  0  0  0  0
 14 15  1  0  0  0  0
 15 16  2  0  0  0  0
 16 17  1  0  0  0  0
 14 18  1  0  0  0  0
 18 19  1  0  0  0  0
M  END
$$$$
s_270062____15144120____8147258
  -OEChem-03222016482D

 18 19  0     0  0  0  0  0  0999 V2000
    0.8680    1.5138    0.0000 C   0  0  0  0  0  0  0  0  0  0  0  0
    0.0000    1.0058    0.0000 C   0  0  0  0  0  0  0  0  0  0  0  0
    0.0000    0.0000    0.0000 C   0  0  0  0  0  0  0  0  0  0  0  0
    0.8680   -0.4978    0.0000 C   0  0  0  0  0  0  0  0  0  0  0  0
    1.7360   -0.0012    0.0000 C   0  0  0  0  0  0  0  0  0  0  0  0
    1.7360    1.0058    0.0000 C   0  0  0  0  0  0  0  0  0  0  0  0
    2.6938    1.3169    0.0000 N   0  0  0  0  0  0  0  0  0  0  0  0
    3.2858    0.5023    0.0000 C   0  0  0  0  0  0  0  0  0  0  0  0
    2.6938   -0.3125    0.0000 C   0  0  0  0  0  0  0  0  0  0  0  0
    3.0028   -1.2636    0.0000 C   0  0  0  0  0  0  0  0  0  0  0  0
    3.9809   -1.4715    0.0000 C   0  0  0  0  0  0  0  0  0  0  0  0
    4.2899   -2.4226    0.0000 N   0  0  0  0  0  0  0  0  0  0  0  0
    5.2680   -2.6306    0.0000 C   0  0  0  0  0  0  0  0  0  0  0  0
    5.9372   -1.8874    0.0000 O   0  0  0  0  0  0  0  0  0  0  0  0
    5.5770   -3.5816    0.0000 C   0  0  0  0  0  0  0  0  0  0  0  0
    6.5551   -3.7896    0.0000 Cl  0  0  0  0  0  0  0  0  0  0  0  0
    0.8675   -1.4978    0.0000 F   0  0  0  0  0  0  0  0  0  0  0  0
   -0.8675    1.5032    0.0000 F   0  0  0  0  0  0  0  0  0  0  0  0
  1  6  2  0  0  0  0
  1  2  1  0  0  0  0
  2  3  2  0  0  0  0
  3  4  1  0  0  0  0
  4  5  2  0  0  0  0
  5  9  1  0  0  0  0
  5  6  1  0  0  0  0
  6  7  1  0  0  0  0
  7  8  1  0  0  0  0
  8  9  2  0  0  0  0
  9 10  1  0  0  0  0
 10 11  1  0  0  0  0
 11 12  1  0  0  0  0
 12 13  1  0  0  0  0
 13 14  2  0  0  0  0
 13 15  1  0  0  0  0
 15 16  1  0  0  0  0
  4 17  1  0  0  0  0
  2 18  1  0  0  0  0
M  END
$$$$
s_512____158555____13978836
  -OEChem-03222016482D

 20 21  0     0  0  0  0  0  0999 V2000
   -0.8705    2.5032    0.0000 C   0  0  0  0  0  0  0  0  0  0  0  0
   -0.8675    1.5032    0.0000 O   0  0  0  0  0  0  0  0  0  0  0  0
    0.0000    1.0058    0.0000 C   0  0  0  0  0  0  0  0  0  0  0  0
    0.0000    0.0000    0.0000 C   0  0  0  0  0  0  0  0  0  0  0  0
    0.8680   -0.4978    0.0000 C   0  0  0  0  0  0  0  0  0  0  0  0
    1.7360   -0.0012    0.0000 C   0  0  0  0  0  0  0  0  0  0  0  0
    1.7360    1.0058    0.0000 C   0  0  0  0  0  0  0  0  0  0  0  0
    0.8680    1.5138    0.0000 C   0  0  0  0  0  0  0  0  0  0  0  0
    2.6938    1.3169    0.0000 N   0  0  0  0  0  0  0  0  0  0  0  0
    3.2858    0.5023    0.0000 C   0  0  0  0  0  0  0  0  0  0  0  0
    2.6938   -0.3125    0.0000 C   0  0  0  0  0  0  0  0  0  0  0  0
    3.0028   -1.2636    0.0000 C   0  0  0  0  0  0  0  0  0  0  0  0
    3.9809   -1.4715    0.0000 C   0  0  0  0  0  0  0  0  0  0  0  0
    4.2899   -2.4226    0.0000 N   0  0  0  0  0  0  0  0  0  0  0  0
    5.2680   -2.6306    0.0000 C   0  0  0  0  0  0  0  0  0  0  0  0
    5.9372   -1.8874    0.0000 O   0  0  0  0  0  0  0  0  0  0  0  0
    5.5770   -3.5816    0.0000 N   0  0  0  0  0  0  0  0  0  0  0  0
    6.5551   -3.7896    0.0000 C   0  0  0  0  0  0  0  0  0  0  0  0
    6.8641   -4.7407    0.0000 C   0  0  0  0  0  0  0  0  0  0  0  0
    7.8422   -4.9486    0.0000 C   0  0  0  0  0  0  0  0  0  0  0  0
  1  2  1  0  0  0  0
  2  3  1  0  0  0  0
  3  8  2  0  0  0  0
  3  4  1  0  0  0  0
  4  5  2  0  0  0  0
  5  6  1  0  0  0  0
  6 11  1  0  0  0  0
  6  7  2  0  0  0  0
  7  8  1  0  0  0  0
  7  9  1  0  0  0  0
  9 10  1  0  0  0  0
 10 11  2  0  0  0  0
 11 12  1  0  0  0  0
 12 13  1  0  0  0  0
 13 14  1  0  0  0  0
 14 15  1  0  0  0  0
 15 16  2  0  0  0  0
 15 17  1  0  0  0  0
 17 18  1  0  0  0  0
 18 19  1  0  0  0  0
 19 20  2  0  0  0  0
M  END
$$$$
s_22____16720536____7941096
  -OEChem-03222016482D

 18 19  0     1  0  0  0  0  0999 V2000
    4.9078   -4.3247    0.0000 C   0  0  0  0  0  0  0  0  0  0  0  0
    5.5770   -3.5816    0.0000 C   0  0  3  0  0  0  0  0  0  0  0  0
    5.2680   -2.6306    0.0000 C   0  0  0  0  0  0  0  0  0  0  0  0
    5.9372   -1.8874    0.0000 O   0  0  0  0  0  0  0  0  0  0  0  0
    4.2899   -2.4226    0.0000 N   0  0  0  0  0  0  0  0  0  0  0  0
    3.9809   -1.4715    0.0000 C   0  0  0  0  0  0  0  0  0  0  0  0
    3.0028   -1.2636    0.0000 C   0  0  0  0  0  0  0  0  0  0  0  0
    2.6938   -0.3125    0.0000 C   0  0  0  0  0  0  0  0  0  0  0  0
    3.2858    0.5023    0.0000 C   0  0  0  0  0  0  0  0  0  0  0  0
    2.6938    1.3169    0.0000 N   0  0  0  0  0  0  0  0  0  0  0  0
    1.7360    1.0058    0.0000 C   0  0  0  0  0  0  0  0  0  0  0  0
    1.7360   -0.0012    0.0000 C   0  0  0  0  0  0  0  0  0  0  0  0
    0.8680   -0.4978    0.0000 C   0  0  0  0  0  0  0  0  0  0  0  0
    0.0000    0.0000    0.0000 C   0  0  0  0  0  0  0  0  0  0  0  0
   -0.0000    1.0058    0.0000 C   0  0  0  0  0  0  0  0  0  0  0  0
    0.8680    1.5138    0.0000 C   0  0  0  0  0  0  0  0  0  0  0  0
    0.8680    2.5138    0.0000 Br  0  0  0  0  0  0  0  0  0  0  0  0
    6.5551   -3.7896    0.0000 O   0  0  0  0  0  0  0  0  0  0  0  0
  1  2  1  0  0  0  0
  2  3  1  0  0  0  0
  3  4  2  0  0  0  0
  3  5  1  0  0  0  0
  5  6  1  0  0  0  0
  6  7  1  0  0  0  0
  7  8  1  0  0  0  0
  8 12  1  0  0  0  0
  8  9  2  0  0  0  0
  9 10  1  0  0  0  0
 10 11  1  0  0  0  0
 11 16  2  0  0  0  0
 11 12  1  0  0  0  0
 12 13  2  0  0  0  0
 13 14  1  0  0  0  0
 14 15  2  0  0  0  0
 15 16  1  0  0  0  0
 16 17  1  0  0  0  0
  2 18  1  0  0  0  0
M  END
$$$$
s_22____3219394____58844
  -OEChem-03222016482D

 16 17  0     0  0  0  0  0  0999 V2000
    0.8675   -1.4978    0.0000 C   0  0  0  0  0  0  0  0  0  0  0  0
    0.8680   -0.4978    0.0000 C   0  0  0  0  0  0  0  0  0  0  0  0
    0.0000    0.0000    0.0000 C   0  0  0  0  0  0  0  0  0  0  0  0
   -0.0000    1.0058    0.0000 C   0  0  0  0  0  0  0  0  0  0  0  0
    0.8680    1.5138    0.0000 C   0  0  0  0  0  0  0  0  0  0  0  0
    1.7360    1.0058    0.0000 C   0  0  0  0  0  0  0  0  0  0  0  0
    1.7360   -0.0012    0.0000 C   0  0  0  0  0  0  0  0  0  0  0  0
    2.6938   -0.3125    0.0000 C   0  0  0  0  0  0  0  0  0  0  0  0
    3.2858    0.5023    0.0000 C   0  0  0  0  0  0  0  0  0  0  0  0
    2.6938    1.3169    0.0000 N   0  0  0  0  0  0  0  0  0  0  0  0
    3.0028   -1.2636    0.0000 C   0  0  0  0  0  0  0  0  0  0  0  0
    3.9809   -1.4715    0.0000 C   0  0  0  0  0  0  0  0  0  0  0  0
    4.2899   -2.4226    0.0000 N   0  0  0  0  0  0  0  0  0  0  0  0
    5.2680   -2.6306    0.0000 C   0  0  0  0  0  0  0  0  0  0  0  0
    5.9372   -1.8874    0.0000 O   0  0  0  0  0  0  0  0  0  0  0  0
    5.5770   -3.5816    0.0000 C   0  0  0  0  0  0  0  0  0  0  0  0
  1  2  1  0  0  0  0
  2  7  2  0  0  0  0
  2  3  1  0  0  0  0
  3  4  2  0  0  0  0
  4  5  1  0  0  0  0
  5  6  2  0  0  0  0
  6 10  1  0  0  0  0
  6  7  1  0  0  0  0
  7  8  1  0  0  0  0
  8  9  2  0  0  0  0
  9 10  1  0  0  0  0
  8 11  1  0  0  0  0
 11 12  1  0  0  0  0
 12 13  1  0  0  0  0
 13 14  1  0  0  0  0
 14 15  2  0  0  0  0
 14 16  1  0  0  0  0
M  END
$$$$
s_22____16720536____58844
  -OEChem-03222016482D

 16 17  0     0  0  0  0  0  0999 V2000
    5.5770   -3.5816    0.0000 C   0  0  0  0  0  0  0  0  0  0  0  0
    5.2680   -2.6306    0.0000 C   0  0  0  0  0  0  0  0  0  0  0  0
    5.9372   -1.8874    0.0000 O   0  0  0  0  0  0  0  0  0  0  0  0
    4.2899   -2.4226    0.0000 N   0  0  0  0  0  0  0  0  0  0  0  0
    3.9809   -1.4715    0.0000 C   0  0  0  0  0  0  0  0  0  0  0  0
    3.0028   -1.2636    0.0000 C   0  0  0  0  0  0  0  0  0  0  0  0
    2.6938   -0.3125    0.0000 C   0  0  0  0  0  0  0  0  0  0  0  0
    3.2858    0.5023    0.0000 C   0  0  0  0  0  0  0  0  0  0  0  0
    2.6938    1.3169    0.0000 N   0  0  0  0  0  0  0  0  0  0  0  0
    1.7360    1.0058    0.0000 C   0  0  0  0  0  0  0  0  0  0  0  0
    1.7360   -0.0012    0.0000 C   0  0  0  0  0  0  0  0  0  0  0  0
    0.8680   -0.4978    0.0000 C   0  0  0  0  0  0  0  0  0  0  0  0
    0.0000    0.0000    0.0000 C   0  0  0  0  0  0  0  0  0  0  0  0
   -0.0000    1.0058    0.0000 C   0  0  0  0  0  0  0  0  0  0  0  0
    0.8680    1.5138    0.0000 C   0  0  0  0  0  0  0  0  0  0  0  0
    0.8680    2.5138    0.0000 Br  0  0  0  0  0  0  0  0  0  0  0  0
  1  2  1  0  0  0  0
  2  3  2  0  0  0  0
  2  4  1  0  0  0  0
  4  5  1  0  0  0  0
  5  6  1  0  0  0  0
  6  7  1  0  0  0  0
  7 11  1  0  0  0  0
  7  8  2  0  0  0  0
  8  9  1  0  0  0  0
  9 10  1  0  0  0  0
 10 15  2  0  0  0  0
 10 11  1  0  0  0  0
 11 12  2  0  0  0  0
 12 13  1  0  0  0  0
 13 14  2  0  0  0  0
 14 15  1  0  0  0  0
 15 16  1  0  0  0  0
M  END
$$$$
s_270006b____8394006____11616034
  -OEChem-03222016482D

 21 22  0     1  0  0  0  0  0999 V2000
    6.1949   -5.4838    0.0000 C   0  0  0  0  0  0  0  0  0  0  0  0
    6.8641   -4.7407    0.0000 C   0  0  3  0  0  0  0  0  0  0  0  0
    6.5551   -3.7896    0.0000 C   0  0  0  0  0  0  0  0  0  0  0  0
    5.5770   -3.5816    0.0000 C   0  0  0  0  0  0  0  0  0  0  0  0
    5.2680   -2.6306    0.0000 C   0  0  0  0  0  0  0  0  0  0  0  0
    5.9372   -1.8874    0.0000 O   0  0  0  0  0  0  0  0  0  0  0  0
    4.2899   -2.4226    0.0000 N   0  0  0  0  0  0  0  0  0  0  0  0
    3.9809   -1.4715    0.0000 C   0  0  0  0  0  0  0  0  0  0  0  0
    3.0028   -1.2636    0.0000 C   0  0  0  0  0  0  0  0  0  0  0  0
    2.6938   -0.3125    0.0000 C   0  0  0  0  0  0  0  0  0  0  0  0
    3.2858    0.5023    0.0000 C   0  0  0  0  0  0  0  0  0  0  0  0
    2.6938    1.3169    0.0000 N   0  0  0  0  0  0  0  0  0  0  0  0
    1.7360    1.0058    0.0000 C   0  0  0  0  0  0  0  0  0  0  0  0
    1.7360   -0.0012    0.0000 C   0  0  0  0  0  0  0  0  0  0  0  0
    0.8680   -0.4978    0.0000 C   0  0  0  0  0  0  0  0  0  0  0  0
    0.0000    0.0000    0.0000 C   0  0  0  0  0  0  0  0  0  0  0  0
   -0.0000    1.0058    0.0000 C   0  0  0  0  0  0  0  0  0  0  0  0
    0.8680    1.5138    0.0000 C   0  0  0  0  0  0  0  0  0  0  0  0
   -0.8653   -0.5013    0.0000 O   0  0  0  0  0  0  0  0  0  0  0  0
   -0.8639   -1.5013    0.0000 C   0  0  0  0  0  0  0  0  0  0  0  0
    7.8422   -4.9486    0.0000 N   0  3  0  0  0  0  0  0  0  0  0  0
  1  2  1  0  0  0  0
  2  3  1  0  0  0  0
  3  4  1  0  0  0  0
  4  5  1  0  0  0  0
  5  6  2  0  0  0  0
  5  7  1  0  0  0  0
  7  8  1  0  0  0  0
  8  9  1  0  0  0  0
  9 10  1  0  0  0  0
 10 14  1  0  0  0  0
 10 11  2  0  0  0  0
 11 12  1  0  0  0  0
 12 13  1  0  0  0  0
 13 18  2  0  0  0  0
 13 14  1  0  0  0  0
 14 15  2  0  0  0  0
 15 16  1  0  0  0  0
 16 17  2  0  0  0  0
 17 18  1  0  0  0  0
 16 19  1  0  0  0  0
 19 20  1  0  0  0  0
  2 21  1  0  0  0  0
M  CHG  1  21   1
M  END
$$$$
s_22____16900452____7941096
  -OEChem-03222016482D

 18 19  0     1  0  0  0  0  0999 V2000
    4.9078   -4.3247    0.0000 C   0  0  0  0  0  0  0  0  0  0  0  0
    5.5770   -3.5816    0.0000 C   0  0  3  0  0  0  0  0  0  0  0  0
    5.2680   -2.6306    0.0000 C   0  0  0  0  0  0  0  0  0  0  0  0
    5.9372   -1.8874    0.0000 O   0  0  0  0  0  0  0  0  0  0  0  0
    4.2899   -2.4226    0.0000 N   0  0  0  0  0  0  0  0  0  0  0  0
    3.9809   -1.4715    0.0000 C   0  0  0  0  0  0  0  0  0  0  0  0
    3.0028   -1.2636    0.0000 C   0  0  0  0  0  0  0  0  0  0  0  0
    2.6938   -0.3125    0.0000 C   0  0  0  0  0  0  0  0  0  0  0  0
    3.2858    0.5023    0.0000 C   0  0  0  0  0  0  0  0  0  0  0  0
    2.6938    1.3169    0.0000 N   0  0  0  0  0  0  0  0  0  0  0  0
    1.7360    1.0058    0.0000 C   0  0  0  0  0  0  0  0  0  0  0  0
    1.7360   -0.0012    0.0000 C   0  0  0  0  0  0  0  0  0  0  0  0
    0.8680   -0.4978    0.0000 C   0  0  0  0  0  0  0  0  0  0  0  0
    0.0000    0.0000    0.0000 C   0  0  0  0  0  0  0  0  0  0  0  0
   -0.0000    1.0058    0.0000 C   0  0  0  0  0  0  0  0  0  0  0  0
    0.8680    1.5138    0.0000 C   0  0  0  0  0  0  0  0  0  0  0  0
    0.8675   -1.4978    0.0000 F   0  0  0  0  0  0  0  0  0  0  0  0
    6.5551   -3.7896    0.0000 O   0  0  0  0  0  0  0  0  0  0  0  0
  1  2  1  0  0  0  0
  2  3  1  0  0  0  0
  3  4  2  0  0  0  0
  3  5  1  0  0  0  0
  5  6  1  0  0  0  0
  6  7  1  0  0  0  0
  7  8  1  0  0  0  0
  8 12  1  0  0  0  0
  8  9  2  0  0  0  0
  9 10  1  0  0  0  0
 10 11  1  0  0  0  0
 11 16  2  0  0  0  0
 11 12  1  0  0  0  0
 12 13  2  0  0  0  0
 13 14  1  0  0  0  0
 14 15  2  0  0  0  0
 15 16  1  0  0  0  0
 13 17  1  0  0  0  0
  2 18  1  0  0  0  0
M  END
$$$$
s_8____9226528____83693
  -OEChem-03222016482D

 19 20  0     0  0  0  0  0  0999 V2000
    1.7327   -2.9983    0.0000 C   0  0  0  0  0  0  0  0  0  0  0  0
    1.7332   -1.9983    0.0000 C   0  0  0  0  0  0  0  0  0  0  0  0
    0.8675   -1.4978    0.0000 O   0  0  0  0  0  0  0  0  0  0  0  0
    0.8680   -0.4978    0.0000 C   0  0  0  0  0  0  0  0  0  0  0  0
    0.0000    0.0000    0.0000 C   0  0  0  0  0  0  0  0  0  0  0  0
   -0.0000    1.0058    0.0000 C   0  0  0  0  0  0  0  0  0  0  0  0
    0.8680    1.5138    0.0000 C   0  0  0  0  0  0  0  0  0  0  0  0
    1.7360    1.0058    0.0000 C   0  0  0  0  0  0  0  0  0  0  0  0
    1.7360   -0.0012    0.0000 C   0  0  0  0  0  0  0  0  0  0  0  0
    2.6938   -0.3125    0.0000 C   0  0  0  0  0  0  0  0  0  0  0  0
    3.2858    0.5023    0.0000 C   0  0  0  0  0  0  0  0  0  0  0  0
    2.6938    1.3169    0.0000 N   0  0  0  0  0  0  0  0  0  0  0  0
    3.0028   -1.2636    0.0000 C   0  0  0  0  0  0  0  0  0  0  0  0
    3.9809   -1.4715    0.0000 C   0  0  0  0  0  0  0  0  0  0  0  0
    4.2899   -2.4226    0.0000 N   0  0  0  0  0  0  0  0  0  0  0  0
    5.2680   -2.6306    0.0000 C   0  0  0  0  0  0  0  0  0  0  0  0
    5.9372   -1.8874    0.0000 S   0  0  0  0  0  0  0  0  0  0  0  0
    5.5770   -3.5816    0.0000 N   0  0  0  0  0  0  0  0  0  0  0  0
    6.5551   -3.7896    0.0000 C   0  0  0  0  0  0  0  0  0  0  0  0
  1  2  1  0  0  0  0
  2  3  1  0  0  0  0
  3  4  1  0  0  0  0
  4  9  2  0  0  0  0
  4  5  1  0  0  0  0
  5  6  2  0  0  0  0
  6  7  1  0  0  0  0
  7  8  2  0  0  0  0
  8 12  1  0  0  0  0
  8  9  1  0  0  0  0
  9 10  1  0  0  0  0
 10 11  2  0  0  0  0
 11 12  1  0  0  0  0
 10 13  1  0  0  0  0
 13 14  1  0  0  0  0
 14 15  1  0  0  0  0
 15 16  1  0  0  0  0
 16 17  2  0  0  0  0
 16 18  1  0  0  0  0
 18 19  1  0  0  0  0
M  END
$$$$
s_22____13596594____59039
  -OEChem-03222016482D

 17 18  0     0  0  0  0  0  0999 V2000
    6.8884   -4.7050    0.0000 C   0  0  0  0  0  0  0  0  0  0  0  0
    6.5743   -3.7557    0.0000 O   0  0  0  0  0  0  0  0  0  0  0  0
    5.5950   -3.5530    0.0000 C   0  0  0  0  0  0  0  0  0  0  0  0
    5.2808   -2.6037    0.0000 C   0  0  0  0  0  0  0  0  0  0  0  0
    5.9459   -1.8569    0.0000 O   0  0  0  0  0  0  0  0  0  0  0  0
    4.3016   -2.4011    0.0000 N   0  0  0  0  0  0  0  0  0  0  0  0
    3.9874   -1.4517    0.0000 C   0  0  0  0  0  0  0  0  0  0  0  0
    3.0082   -1.2491    0.0000 C   0  0  0  0  0  0  0  0  0  0  0  0
    2.6940   -0.2997    0.0000 C   0  0  0  0  0  0  0  0  0  0  0  0
    3.2780    0.5133    0.0000 C   0  0  0  0  0  0  0  0  0  0  0  0
    2.6851    1.3196    0.0000 N   0  0  0  0  0  0  0  0  0  0  0  0
    1.7350    1.0052    0.0000 C   0  0  0  0  0  0  0  0  0  0  0  0
    1.7405    0.0044    0.0000 C   0  0  0  0  0  0  0  0  0  0  0  0
    0.8675   -0.4975    0.0000 C   0  0  0  0  0  0  0  0  0  0  0  0
    0.0000    0.0000    0.0000 C   0  0  0  0  0  0  0  0  0  0  0  0
   -0.0000    1.0052    0.0000 C   0  0  0  0  0  0  0  0  0  0  0  0
    0.8675    1.5129    0.0000 N   0  0  0  0  0  0  0  0  0  0  0  0
  1  2  1  0  0  0  0
  2  3  1  0  0  0  0
  3  4  1  0  0  0  0
  4  5  2  0  0  0  0
  4  6  1  0  0  0  0
  6  7  1  0  0  0  0
  7  8  1  0  0  0  0
  8  9  1  0  0  0  0
  9 13  1  0  0  0  0
  9 10  2  0  0  0  0
 10 11  1  0  0  0  0
 11 12  1  0  0  0  0
 12 17  2  0  0  0  0
 12 13  1  0  0  0  0
 13 14  2  0  0  0  0
 14 15  1  0  0  0  0
 15 16  2  0  0  0  0
 16 17  1  0  0  0  0
M  END
$$$$
s_22____10303762____58844
  -OEChem-03222016482D

 16 17  0     0  0  0  0  0  0999 V2000
    5.5770   -3.5816    0.0000 C   0  0  0  0  0  0  0  0  0  0  0  0
    5.2680   -2.6306    0.0000 C   0  0  0  0  0  0  0  0  0  0  0  0
    5.9372   -1.8874    0.0000 O   0  0  0  0  0  0  0  0  0  0  0  0
    4.2899   -2.4226    0.0000 N   0  0  0  0  0  0  0  0  0  0  0  0
    3.9809   -1.4715    0.0000 C   0  0  0  0  0  0  0  0  0  0  0  0
    3.0028   -1.2636    0.0000 C   0  0  0  0  0  0  0  0  0  0  0  0
    2.6938   -0.3125    0.0000 C   0  0  0  0  0  0  0  0  0  0  0  0
    3.2858    0.5023    0.0000 C   0  0  0  0  0  0  0  0  0  0  0  0
    2.6938    1.3169    0.0000 N   0  0  0  0  0  0  0  0  0  0  0  0
    1.7360    1.0058    0.0000 C   0  0  0  0  0  0  0  0  0  0  0  0
    1.7360   -0.0012    0.0000 C   0  0  0  0  0  0  0  0  0  0  0  0
    0.8680   -0.4978    0.0000 C   0  0  0  0  0  0  0  0  0  0  0  0
    0.0000    0.0000    0.0000 C   0  0  0  0  0  0  0  0  0  0  0  0
   -0.0000    1.0058    0.0000 C   0  0  0  0  0  0  0  0  0  0  0  0
    0.8680    1.5138    0.0000 C   0  0  0  0  0  0  0  0  0  0  0  0
    0.8675   -1.4978    0.0000 Br  0  0  0  0  0  0  0  0  0  0  0  0
  1  2  1  0  0  0  0
  2  3  2  0  0  0  0
  2  4  1  0  0  0  0
  4  5  1  0  0  0  0
  5  6  1  0  0  0  0
  6  7  1  0  0  0  0
  7 11  1  0  0  0  0
  7  8  2  0  0  0  0
  8  9  1  0  0  0  0
  9 10  1  0  0  0  0
 10 15  2  0  0  0  0
 10 11  1  0  0  0  0
 11 12  2  0  0  0  0
 12 13  1  0  0  0  0
 13 14  2  0  0  0  0
 14 15  1  0  0  0  0
 12 16  1  0  0  0  0
M  END
$$$$
s_272164____14971800____9374306
  -OEChem-03222016482D

 21 22  0     0  0  0  0  0  0999 V2000
    3.2605   -4.8599    0.0000 C   0  0  0  0  0  0  0  0  0  0  0  0
    2.2824   -4.6519    0.0000 N   0  0  0  0  0  0  0  0  0  0  0  0
    1.6132   -5.3951    0.0000 C   0  0  0  0  0  0  0  0  0  0  0  0
    1.9222   -6.3461    0.0000 C   0  0  0  0  0  0  0  0  0  0  0  0
    2.2312   -7.2972    0.0000 N   0  0  0  0  0  0  0  0  0  0  0  0
    1.9734   -3.7009    0.0000 C   0  0  0  0  0  0  0  0  0  0  0  0
    0.9953   -3.4929    0.0000 O   0  0  0  0  0  0  0  0  0  0  0  0
    2.6426   -2.9578    0.0000 N   0  0  0  0  0  0  0  0  0  0  0  0
    2.3336   -2.0067    0.0000 C   0  0  0  0  0  0  0  0  0  0  0  0
    3.0028   -1.2636    0.0000 C   0  0  0  0  0  0  0  0  0  0  0  0
    2.6938   -0.3125    0.0000 C   0  0  0  0  0  0  0  0  0  0  0  0
    3.2858    0.5023    0.0000 C   0  0  0  0  0  0  0  0  0  0  0  0
    2.6938    1.3169    0.0000 N   0  0  0  0  0  0  0  0  0  0  0  0
    1.7360    1.0058    0.0000 C   0  0  0  0  0  0  0  0  0  0  0  0
    1.7360   -0.0012    0.0000 C   0  0  0  0  0  0  0  0  0  0  0  0
    0.8680   -0.4978    0.0000 C   0  0  0  0  0  0  0  0  0  0  0  0
    0.0000    0.0000    0.0000 C   0  0  0  0  0  0  0  0  0  0  0  0
   -0.0000    1.0058    0.0000 C   0  0  0  0  0  0  0  0  0  0  0  0
    0.8680    1.5138    0.0000 C   0  0  0  0  0  0  0  0  0  0  0  0
   -0.8653   -0.5013    0.0000 O   0  0  0  0  0  0  0  0  0  0  0  0
   -0.8639   -1.5013    0.0000 C   0  0  0  0  0  0  0  0  0  0  0  0
  1  2  1  0  0  0  0
  2  3  1  0  0  0  0
  3  4  1  0  0  0  0
  4  5  3  0  0  0  0
  2  6  1  0  0  0  0
  6  7  2  0  0  0  0
  6  8  1  0  0  0  0
  8  9  1  0  0  0  0
  9 10  1  0  0  0  0
 10 11  1  0  0  0  0
 11 15  1  0  0  0  0
 11 12  2  0  0  0  0
 12 13  1  0  0  0  0
 13 14  1  0  0  0  0
 14 19  2  0  0  0  0
 14 15  1  0  0  0  0
 15 16  2  0  0  0  0
 16 17  1  0  0  0  0
 17 18  2  0  0  0  0
 18 19  1  0  0  0  0
 17 20  1  0  0  0  0
 20 21  1  0  0  0  0
M  END
$$$$
s_270062____7610008____8147258
  -OEChem-03222016482D

 17 18  0     0  0  0  0  0  0999 V2000
    0.0000    0.0000    0.0000 C   0  0  0  0  0  0  0  0  0  0  0  0
    0.8680   -0.4978    0.0000 C   0  0  0  0  0  0  0  0  0  0  0  0
    1.7360   -0.0012    0.0000 C   0  0  0  0  0  0  0  0  0  0  0  0
    1.7360    1.0058    0.0000 C   0  0  0  0  0  0  0  0  0  0  0  0
    0.8680    1.5138    0.0000 C   0  0  0  0  0  0  0  0  0  0  0  0
    0.0000    1.0058    0.0000 C   0  0  0  0  0  0  0  0  0  0  0  0
   -0.8675    1.5032    0.0000 F   0  0  0  0  0  0  0  0  0  0  0  0
    2.6938    1.3169    0.0000 N   0  0  0  0  0  0  0  0  0  0  0  0
    3.2858    0.5023    0.0000 C   0  0  0  0  0  0  0  0  0  0  0  0
    2.6938   -0.3125    0.0000 C   0  0  0  0  0  0  0  0  0  0  0  0
    3.0028   -1.2636    0.0000 C   0  0  0  0  0  0  0  0  0  0  0  0
    3.9809   -1.4715    0.0000 C   0  0  0  0  0  0  0  0  0  0  0  0
    4.2899   -2.4226    0.0000 N   0  0  0  0  0  0  0  0  0  0  0  0
    5.2680   -2.6306    0.0000 C   0  0  0  0  0  0  0  0  0  0  0  0
    5.9372   -1.8874    0.0000 O   0  0  0  0  0  0  0  0  0  0  0  0
    5.5770   -3.5816    0.0000 C   0  0  0  0  0  0  0  0  0  0  0  0
    6.5551   -3.7896    0.0000 Cl  0  0  0  0  0  0  0  0  0  0  0  0
  1  6  2  0  0  0  0
  1  2  1  0  0  0  0
  2  3  2  0  0  0  0
  3 10  1  0  0  0  0
  3  4  1  0  0  0  0
  4  5  2  0  0  0  0
  5  6  1  0  0  0  0
  6  7  1  0  0  0  0
  4  8  1  0  0  0  0
  8  9  1  0  0  0  0
  9 10  2  0  0  0  0
 10 11  1  0  0  0  0
 11 12  1  0  0  0  0
 12 13  1  0  0  0  0
 13 14  1  0  0  0  0
 14 15  2  0  0  0  0
 14 16  1  0  0  0  0
 16 17  1  0  0  0  0
M  END
$$$$
s_240690b____7354100____3025692
  -OEChem-03222016482D

 18 19  0     1  0  0  0  0  0999 V2000
    4.9078   -4.3247    0.0000 C   0  0  0  0  0  0  0  0  0  0  0  0
    5.5770   -3.5816    0.0000 C   0  0  3  0  0  0  0  0  0  0  0  0
    5.2680   -2.6306    0.0000 C   0  0  0  0  0  0  0  0  0  0  0  0
    5.9372   -1.8874    0.0000 O   0  0  0  0  0  0  0  0  0  0  0  0
    4.2899   -2.4226    0.0000 N   0  0  0  0  0  0  0  0  0  0  0  0
    3.9809   -1.4715    0.0000 C   0  0  0  0  0  0  0  0  0  0  0  0
    3.0028   -1.2636    0.0000 C   0  0  0  0  0  0  0  0  0  0  0  0
    2.6938   -0.3125    0.0000 C   0  0  0  0  0  0  0  0  0  0  0  0
    3.2858    0.5023    0.0000 C   0  0  0  0  0  0  0  0  0  0  0  0
    2.6938    1.3169    0.0000 N   0  0  0  0  0  0  0  0  0  0  0  0
    1.7360    1.0058    0.0000 C   0  0  0  0  0  0  0  0  0  0  0  0
    1.7360   -0.0012    0.0000 C   0  0  0  0  0  0  0  0  0  0  0  0
    0.8680   -0.4978    0.0000 C   0  0  0  0  0  0  0  0  0  0  0  0
    0.0000    0.0000    0.0000 C   0  0  0  0  0  0  0  0  0  0  0  0
   -0.0000    1.0058    0.0000 C   0  0  0  0  0  0  0  0  0  0  0  0
    0.8680    1.5138    0.0000 C   0  0  0  0  0  0  0  0  0  0  0  0
   -0.8675    1.5032    0.0000 F   0  0  0  0  0  0  0  0  0  0  0  0
    6.5551   -3.7896    0.0000 N   0  3  0  0  0  0  0  0  0  0  0  0
  1  2  1  0  0  0  0
  2  3  1  0  0  0  0
  3  4  2  0  0  0  0
  3  5  1  0  0  0  0
  5  6  1  0  0  0  0
  6  7  1  0  0  0  0
  7  8  1  0  0  0  0
  8 12  1  0  0  0  0
  8  9  2  0  0  0  0
  9 10  1  0  0  0  0
 10 11  1  0  0  0  0
 11 16  2  0  0  0  0
 11 12  1  0  0  0  0
 12 13  2  0  0  0  0
 13 14  1  0  0  0  0
 14 15  2  0  0  0  0
 15 16  1  0  0  0  0
 15 17  1  0  0  0  0
  2 18  1  0  0  0  0
M  CHG  1  18   1
M  END
$$$$
s_270062____15428004____8147258
  -OEChem-03222016482D

 19 20  0     0  0  0  0  0  0999 V2000
    1.5905   -1.3375    0.0000 C   0  0  0  0  0  0  0  0  0  0  0  0
    2.3336   -2.0067    0.0000 C   0  0  0  0  0  0  0  0  0  0  0  0
    3.0767   -2.6759    0.0000 C   0  0  0  0  0  0  0  0  0  0  0  0
    3.0028   -1.2636    0.0000 C   0  0  0  0  0  0  0  0  0  0  0  0
    2.6938   -0.3125    0.0000 C   0  0  0  0  0  0  0  0  0  0  0  0
    3.2858    0.5023    0.0000 C   0  0  0  0  0  0  0  0  0  0  0  0
    2.6938    1.3169    0.0000 N   0  0  0  0  0  0  0  0  0  0  0  0
    1.7360    1.0058    0.0000 C   0  0  0  0  0  0  0  0  0  0  0  0
    1.7360   -0.0012    0.0000 C   0  0  0  0  0  0  0  0  0  0  0  0
    0.8680   -0.4978    0.0000 C   0  0  0  0  0  0  0  0  0  0  0  0
    0.0000    0.0000    0.0000 C   0  0  0  0  0  0  0  0  0  0  0  0
   -0.0000    1.0058    0.0000 C   0  0  0  0  0  0  0  0  0  0  0  0
    0.8680    1.5138    0.0000 C   0  0  0  0  0  0  0  0  0  0  0  0
   -0.8653   -0.5013    0.0000 Br  0  0  0  0  0  0  0  0  0  0  0  0
    1.6644   -2.7498    0.0000 N   0  0  0  0  0  0  0  0  0  0  0  0
    1.9734   -3.7009    0.0000 C   0  0  0  0  0  0  0  0  0  0  0  0
    2.9515   -3.9088    0.0000 O   0  0  0  0  0  0  0  0  0  0  0  0
    1.3042   -4.4440    0.0000 C   0  0  0  0  0  0  0  0  0  0  0  0
    1.6132   -5.3951    0.0000 Cl  0  0  0  0  0  0  0  0  0  0  0  0
  1  2  1  0  0  0  0
  2  3  1  0  0  0  0
  2  4  1  0  0  0  0
  4  5  1  0  0  0  0
  5  9  1  0  0  0  0
  5  6  2  0  0  0  0
  6  7  1  0  0  0  0
  7  8  1  0  0  0  0
  8 13  2  0  0  0  0
  8  9  1  0  0  0  0
  9 10  2  0  0  0  0
 10 11  1  0  0  0  0
 11 12  2  0  0  0  0
 12 13  1  0  0  0  0
 11 14  1  0  0  0  0
  2 15  1  0  0  0  0
 15 16  1  0  0  0  0
 16 17  2  0  0  0  0
 16 18  1  0  0  0  0
 18 19  1  0  0  0  0
M  END
$$$$
s_240690b____7351080____7368582
  -OEChem-03222016482D

 17 18  0     0  0  0  0  0  0999 V2000
    6.8641   -4.7407    0.0000 C   0  0  0  0  0  0  0  0  0  0  0  0
    6.5551   -3.7896    0.0000 N   0  3  0  0  0  0  0  0  0  0  0  0
    5.5770   -3.5816    0.0000 C   0  0  0  0  0  0  0  0  0  0  0  0
    5.2680   -2.6306    0.0000 C   0  0  0  0  0  0  0  0  0  0  0  0
    5.9372   -1.8874    0.0000 O   0  0  0  0  0  0  0  0  0  0  0  0
    4.2899   -2.4226    0.0000 N   0  0  0  0  0  0  0  0  0  0  0  0
    3.9809   -1.4715    0.0000 C   0  0  0  0  0  0  0  0  0  0  0  0
    3.0028   -1.2636    0.0000 C   0  0  0  0  0  0  0  0  0  0  0  0
    2.6938   -0.3125    0.0000 C   0  0  0  0  0  0  0  0  0  0  0  0
    3.2858    0.5023    0.0000 C   0  0  0  0  0  0  0  0  0  0  0  0
    2.6938    1.3169    0.0000 N   0  0  0  0  0  0  0  0  0  0  0  0
    1.7360    1.0058    0.0000 C   0  0  0  0  0  0  0  0  0  0  0  0
    1.7360   -0.0012    0.0000 C   0  0  0  0  0  0  0  0  0  0  0  0
    0.8680   -0.4978    0.0000 C   0  0  0  0  0  0  0  0  0  0  0  0
    0.0000    0.0000    0.0000 C   0  0  0  0  0  0  0  0  0  0  0  0
   -0.0000    1.0058    0.0000 C   0  0  0  0  0  0  0  0  0  0  0  0
    0.8680    1.5138    0.0000 C   0  0  0  0  0  0  0  0  0  0  0  0
  1  2  1  0  0  0  0
  2  3  1  0  0  0  0
  3  4  1  0  0  0  0
  4  5  2  0  0  0  0
  4  6  1  0  0  0  0
  6  7  1  0  0  0  0
  7  8  1  0  0  0  0
  8  9  1  0  0  0  0
  9 13  1  0  0  0  0
  9 10  2  0  0  0  0
 10 11  1  0  0  0  0
 11 12  1  0  0  0  0
 12 17  2  0  0  0  0
 12 13  1  0  0  0  0
 13 14  2  0  0  0  0
 14 15  1  0  0  0  0
 15 16  2  0  0  0  0
 16 17  1  0  0  0  0
M  CHG  1   2   1
M  END
$$$$
s_8____4839444____83696
  -OEChem-03222016482D

 19 20  0     0  0  0  0  0  0999 V2000
    6.8641   -4.7407    0.0000 C   0  0  0  0  0  0  0  0  0  0  0  0
    6.5551   -3.7896    0.0000 C   0  0  0  0  0  0  0  0  0  0  0  0
    5.5770   -3.5816    0.0000 N   0  0  0  0  0  0  0  0  0  0  0  0
    5.2680   -2.6306    0.0000 C   0  0  0  0  0  0  0  0  0  0  0  0
    5.9372   -1.8874    0.0000 S   0  0  0  0  0  0  0  0  0  0  0  0
    4.2899   -2.4226    0.0000 N   0  0  0  0  0  0  0  0  0  0  0  0
    3.9809   -1.4715    0.0000 C   0  0  0  0  0  0  0  0  0  0  0  0
    3.0028   -1.2636    0.0000 C   0  0  0  0  0  0  0  0  0  0  0  0
    2.6938   -0.3125    0.0000 C   0  0  0  0  0  0  0  0  0  0  0  0
    3.2858    0.5023    0.0000 C   0  0  0  0  0  0  0  0  0  0  0  0
    2.6938    1.3169    0.0000 N   0  0  0  0  0  0  0  0  0  0  0  0
    1.7360    1.0058    0.0000 C   0  0  0  0  0  0  0  0  0  0  0  0
    1.7360   -0.0012    0.0000 C   0  0  0  0  0  0  0  0  0  0  0  0
    0.8680   -0.4978    0.0000 C   0  0  0  0  0  0  0  0  0  0  0  0
    0.0000    0.0000    0.0000 C   0  0  0  0  0  0  0  0  0  0  0  0
   -0.0000    1.0058    0.0000 C   0  0  0  0  0  0  0  0  0  0  0  0
    0.8680    1.5138    0.0000 C   0  0  0  0  0  0  0  0  0  0  0  0
   -0.8653   -0.5013    0.0000 O   0  0  0  0  0  0  0  0  0  0  0  0
   -0.8639   -1.5013    0.0000 C   0  0  0  0  0  0  0  0  0  0  0  0
  1  2  1  0  0  0  0
  2  3  1  0  0  0  0
  3  4  1  0  0  0  0
  4  5  2  0  0  0  0
  4  6  1  0  0  0  0
  6  7  1  0  0  0  0
  7  8  1  0  0  0  0
  8  9  1  0  0  0  0
  9 13  1  0  0  0  0
  9 10  2  0  0  0  0
 10 11  1  0  0  0  0
 11 12  1  0  0  0  0
 12 17  2  0  0  0  0
 12 13  1  0  0  0  0
 13 14  2  0  0  0  0
 14 15  1  0  0  0  0
 15 16  2  0  0  0  0
 16 17  1  0  0  0  0
 15 18  1  0  0  0  0
 18 19  1  0  0  0  0
M  END
$$$$
s_270004____8290858____15269820
  -OEChem-03222016482D

 21 22  0     0  0  0  0  0  0999 V2000
    8.2860   -2.9615    0.0000 C   0  0  0  0  0  0  0  0  0  0  0  0
    7.7860   -2.0955    0.0000 C   0  0  0  0  0  0  0  0  0  0  0  0
    6.9200   -2.5956    0.0000 C   0  0  0  0  0  0  0  0  0  0  0  0
    8.6519   -1.5955    0.0000 C   0  0  0  0  0  0  0  0  0  0  0  0
    7.2859   -1.2295    0.0000 N   0  0  0  0  0  0  0  0  0  0  0  0
    6.2859   -1.2296    0.0000 C   0  0  0  0  0  0  0  0  0  0  0  0
    5.7860   -2.0956    0.0000 O   0  0  0  0  0  0  0  0  0  0  0  0
    5.7859   -0.3636    0.0000 C   0  0  0  0  0  0  0  0  0  0  0  0
    4.7859   -0.3636    0.0000 N   0  3  0  0  0  0  0  0  0  0  0  0
    4.2858    0.5024    0.0000 C   0  0  0  0  0  0  0  0  0  0  0  0
    3.2858    0.5023    0.0000 C   0  0  0  0  0  0  0  0  0  0  0  0
    2.6938   -0.3125    0.0000 C   0  0  0  0  0  0  0  0  0  0  0  0
    1.7360   -0.0012    0.0000 C   0  0  0  0  0  0  0  0  0  0  0  0
    1.7360    1.0058    0.0000 C   0  0  0  0  0  0  0  0  0  0  0  0
    2.6938    1.3169    0.0000 N   0  0  0  0  0  0  0  0  0  0  0  0
    0.8680    1.5138    0.0000 C   0  0  0  0  0  0  0  0  0  0  0  0
    0.0000    1.0058    0.0000 C   0  0  0  0  0  0  0  0  0  0  0  0
    0.0000    0.0000    0.0000 C   0  0  0  0  0  0  0  0  0  0  0  0
    0.8680   -0.4978    0.0000 C   0  0  0  0  0  0  0  0  0  0  0  0
    0.8675   -1.4978    0.0000 O   0  0  0  0  0  0  0  0  0  0  0  0
    1.7332   -1.9983    0.0000 C   0  0  0  0  0  0  0  0  0  0  0  0
  1  2  1  0  0  0  0
  2  3  1  0  0  0  0
  2  4  1  0  0  0  0
  2  5  1  0  0  0  0
  5  6  1  0  0  0  0
  6  7  2  0  0  0  0
  6  8  1  0  0  0  0
  8  9  1  0  0  0  0
  9 10  1  0  0  0  0
 10 11  1  0  0  0  0
 11 15  1  0  0  0  0
 11 12  2  0  0  0  0
 12 13  1  0  0  0  0
 13 19  2  0  0  0  0
 13 14  1  0  0  0  0
 14 15  1  0  0  0  0
 14 16  2  0  0  0  0
 16 17  1  0  0  0  0
 17 18  2  0  0  0  0
 18 19  1  0  0  0  0
 19 20  1  0  0  0  0
 20 21  1  0  0  0  0
M  CHG  1   9   1
M  END
$$$$
s_22____13913040____7941800
  -OEChem-03222016482D

 18 19  0     1  0  0  0  0  0999 V2000
    1.3555   -1.7987    0.0000 C   0  0  0  0  0  0  0  0  0  0  0  0
    2.3336   -2.0067    0.0000 C   0  0  3  0  0  0  0  0  0  0  0  0
    3.0028   -1.2636    0.0000 C   0  0  0  0  0  0  0  0  0  0  0  0
    2.6938   -0.3125    0.0000 C   0  0  0  0  0  0  0  0  0  0  0  0
    3.2858    0.5023    0.0000 C   0  0  0  0  0  0  0  0  0  0  0  0
    2.6938    1.3169    0.0000 N   0  0  0  0  0  0  0  0  0  0  0  0
    1.7360    1.0058    0.0000 C   0  0  0  0  0  0  0  0  0  0  0  0
    1.7360   -0.0012    0.0000 C   0  0  0  0  0  0  0  0  0  0  0  0
    0.8680   -0.4978    0.0000 C   0  0  0  0  0  0  0  0  0  0  0  0
    0.0000    0.0000    0.0000 C   0  0  0  0  0  0  0  0  0  0  0  0
   -0.0000    1.0058    0.0000 C   0  0  0  0  0  0  0  0  0  0  0  0
    0.8680    1.5138    0.0000 C   0  0  0  0  0  0  0  0  0  0  0  0
   -0.8653   -0.5013    0.0000 F   0  0  0  0  0  0  0  0  0  0  0  0
    2.6426   -2.9578    0.0000 N   0  0  0  0  0  0  0  0  0  0  0  0
    1.9734   -3.7009    0.0000 C   0  0  0  0  0  0  0  0  0  0  0  0
    0.9953   -3.4929    0.0000 O   0  0  0  0  0  0  0  0  0  0  0  0
    2.2824   -4.6519    0.0000 C   0  0  0  0  0  0  0  0  0  0  0  0
    1.6132   -5.3951    0.0000 O   0  0  0  0  0  0  0  0  0  0  0  0
  1  2  1  0  0  0  0
  2  3  1  0  0  0  0
  3  4  1  0  0  0  0
  4  8  1  0  0  0  0
  4  5  2  0  0  0  0
  5  6  1  0  0  0  0
  6  7  1  0  0  0  0
  7 12  2  0  0  0  0
  7  8  1  0  0  0  0
  8  9  2  0  0  0  0
  9 10  1  0  0  0  0
 10 11  2  0  0  0  0
 11 12  1  0  0  0  0
 10 13  1  0  0  0  0
  2 14  1  0  0  0  0
 14 15  1  0  0  0  0
 15 16  2  0  0  0  0
 15 17  1  0  0  0  0
 17 18  1  0  0  0  0
M  END
$$$$
s_22____13025516____2009696
  -OEChem-03222016482D

 21 22  0     0  0  0  0  0  0999 V2000
    8.1512   -5.8997    0.0000 C   0  0  0  0  0  0  0  0  0  0  0  0
    7.8422   -4.9486    0.0000 C   0  0  0  0  0  0  0  0  0  0  0  0
    6.8641   -4.7407    0.0000 C   0  0  0  0  0  0  0  0  0  0  0  0
    6.5551   -3.7896    0.0000 O   0  0  0  0  0  0  0  0  0  0  0  0
    5.5770   -3.5816    0.0000 C   0  0  0  0  0  0  0  0  0  0  0  0
    5.2680   -2.6306    0.0000 C   0  0  0  0  0  0  0  0  0  0  0  0
    5.9372   -1.8874    0.0000 O   0  0  0  0  0  0  0  0  0  0  0  0
    4.2899   -2.4226    0.0000 N   0  0  0  0  0  0  0  0  0  0  0  0
    3.9809   -1.4715    0.0000 C   0  0  0  0  0  0  0  0  0  0  0  0
    3.0028   -1.2636    0.0000 C   0  0  0  0  0  0  0  0  0  0  0  0
    2.6938   -0.3125    0.0000 C   0  0  0  0  0  0  0  0  0  0  0  0
    3.2858    0.5023    0.0000 C   0  0  0  0  0  0  0  0  0  0  0  0
    2.6938    1.3169    0.0000 N   0  0  0  0  0  0  0  0  0  0  0  0
    1.7360    1.0058    0.0000 C   0  0  0  0  0  0  0  0  0  0  0  0
    1.7360   -0.0012    0.0000 C   0  0  0  0  0  0  0  0  0  0  0  0
    0.8680   -0.4978    0.0000 C   0  0  0  0  0  0  0  0  0  0  0  0
    0.0000    0.0000    0.0000 C   0  0  0  0  0  0  0  0  0  0  0  0
   -0.0000    1.0058    0.0000 C   0  0  0  0  0  0  0  0  0  0  0  0
    0.8680    1.5138    0.0000 C   0  0  0  0  0  0  0  0  0  0  0  0
    0.8675   -1.4978    0.0000 O   0  0  0  0  0  0  0  0  0  0  0  0
    1.7332   -1.9983    0.0000 C   0  0  0  0  0  0  0  0  0  0  0  0
  1  2  1  0  0  0  0
  2  3  1  0  0  0  0
  3  4  1  0  0  0  0
  4  5  1  0  0  0  0
  5  6  1  0  0  0  0
  6  7  2  0  0  0  0
  6  8  1  0  0  0  0
  8  9  1  0  0  0  0
  9 10  1  0  0  0  0
 10 11  1  0  0  0  0
 11 15  1  0  0  0  0
 11 12  2  0  0  0  0
 12 13  1  0  0  0  0
 13 14  1  0  0  0  0
 14 19  2  0  0  0  0
 14 15  1  0  0  0  0
 15 16  2  0  0  0  0
 16 17  1  0  0  0  0
 17 18  2  0  0  0  0
 18 19  1  0  0  0  0
 16 20  1  0  0  0  0
 20 21  1  0  0  0  0
M  END
$$$$
s_240690b____15754670____3025692
  -OEChem-03222016482D

 20 21  0     1  0  0  0  0  0999 V2000
    3.9809   -1.4715    0.0000 C   0  0  0  0  0  0  0  0  0  0  0  0
    3.0028   -1.2636    0.0000 C   0  0  3  0  0  0  0  0  0  0  0  0
    2.3336   -2.0067    0.0000 C   0  0  0  0  0  0  0  0  0  0  0  0
    2.6426   -2.9578    0.0000 N   0  0  0  0  0  0  0  0  0  0  0  0
    1.9734   -3.7009    0.0000 C   0  0  0  0  0  0  0  0  0  0  0  0
    0.9953   -3.4929    0.0000 O   0  0  0  0  0  0  0  0  0  0  0  0
    2.2824   -4.6519    0.0000 C   0  0  3  0  0  0  0  0  0  0  0  0
    3.2605   -4.8599    0.0000 C   0  0  0  0  0  0  0  0  0  0  0  0
    1.6132   -5.3951    0.0000 N   0  3  0  0  0  0  0  0  0  0  0  0
    2.6938   -0.3125    0.0000 C   0  0  0  0  0  0  0  0  0  0  0  0
    3.2858    0.5023    0.0000 C   0  0  0  0  0  0  0  0  0  0  0  0
    2.6938    1.3169    0.0000 N   0  0  0  0  0  0  0  0  0  0  0  0
    1.7360    1.0058    0.0000 C   0  0  0  0  0  0  0  0  0  0  0  0
    1.7360   -0.0012    0.0000 C   0  0  0  0  0  0  0  0  0  0  0  0
    0.8680   -0.4978    0.0000 C   0  0  0  0  0  0  0  0  0  0  0  0
    0.0000    0.0000    0.0000 C   0  0  0  0  0  0  0  0  0  0  0  0
   -0.0000    1.0058    0.0000 C   0  0  0  0  0  0  0  0  0  0  0  0
    0.8680    1.5138    0.0000 C   0  0  0  0  0  0  0  0  0  0  0  0
   -0.8653   -0.5013    0.0000 O   0  0  0  0  0  0  0  0  0  0  0  0
   -0.8639   -1.5013    0.0000 C   0  0  0  0  0  0  0  0  0  0  0  0
  1  2  1  0  0  0  0
  2  3  1  0  0  0  0
  3  4  1  0  0  0  0
  4  5  1  0  0  0  0
  5  6  2  0  0  0  0
  5  7  1  0  0  0  0
  7  8  1  0  0  0  0
  7  9  1  0  0  0  0
  2 10  1  0  0  0  0
 10 14  1  0  0  0  0
 10 11  2  0  0  0  0
 11 12  1  0  0  0  0
 12 13  1  0  0  0  0
 13 18  2  0  0  0  0
 13 14  1  0  0  0  0
 14 15  2  0  0  0  0
 15 16  1  0  0  0  0
 16 17  2  0  0  0  0
 17 18  1  0  0  0  0
 16 19  1  0  0  0  0
 19 20  1  0  0  0  0
M  CHG  1   9   1
M  END
$$$$
s_240690b____17036658____7368582
  -OEChem-03222016482D

 17 18  0     0  0  0  0  0  0999 V2000
    6.8884   -4.7050    0.0000 C   0  0  0  0  0  0  0  0  0  0  0  0
    6.5743   -3.7557    0.0000 N   0  3  0  0  0  0  0  0  0  0  0  0
    5.5950   -3.5530    0.0000 C   0  0  0  0  0  0  0  0  0  0  0  0
    5.2808   -2.6037    0.0000 C   0  0  0  0  0  0  0  0  0  0  0  0
    5.9459   -1.8569    0.0000 O   0  0  0  0  0  0  0  0  0  0  0  0
    4.3016   -2.4011    0.0000 N   0  0  0  0  0  0  0  0  0  0  0  0
    3.9874   -1.4517    0.0000 C   0  0  0  0  0  0  0  0  0  0  0  0
    3.0082   -1.2491    0.0000 C   0  0  0  0  0  0  0  0  0  0  0  0
    2.6940   -0.2997    0.0000 C   0  0  0  0  0  0  0  0  0  0  0  0
    3.2780    0.5133    0.0000 C   0  0  0  0  0  0  0  0  0  0  0  0
    2.6851    1.3196    0.0000 N   0  0  0  0  0  0  0  0  0  0  0  0
    1.7350    1.0052    0.0000 C   0  0  0  0  0  0  0  0  0  0  0  0
    1.7405    0.0044    0.0000 C   0  0  0  0  0  0  0  0  0  0  0  0
    0.8675   -0.4975    0.0000 C   0  0  0  0  0  0  0  0  0  0  0  0
    0.0000    0.0000    0.0000 C   0  0  0  0  0  0  0  0  0  0  0  0
   -0.0000    1.0052    0.0000 C   0  0  0  0  0  0  0  0  0  0  0  0
    0.8675    1.5129    0.0000 N   0  0  0  0  0  0  0  0  0  0  0  0
  1  2  1  0  0  0  0
  2  3  1  0  0  0  0
  3  4  1  0  0  0  0
  4  5  2  0  0  0  0
  4  6  1  0  0  0  0
  6  7  1  0  0  0  0
  7  8  1  0  0  0  0
  8  9  1  0  0  0  0
  9 13  1  0  0  0  0
  9 10  2  0  0  0  0
 10 11  1  0  0  0  0
 11 12  1  0  0  0  0
 12 17  2  0  0  0  0
 12 13  1  0  0  0  0
 13 14  2  0  0  0  0
 14 15  1  0  0  0  0
 15 16  2  0  0  0  0
 16 17  1  0  0  0  0
M  CHG  1   2   1
M  END
$$$$
s_22____13570824____9296322
  -OEChem-03222016482D

 18 19  0     0  0  0  0  0  0999 V2000
    5.3289   -4.9901    0.0000 C   0  0  0  0  0  0  0  0  0  0  0  0
    5.0209   -4.0387    0.0000 C   0  0  0  0  0  0  0  0  0  0  0  0
    4.7129   -3.0873    0.0000 C   0  0  0  0  0  0  0  0  0  0  0  0
    4.4050   -2.1359    0.0000 C   0  0  0  0  0  0  0  0  0  0  0  0
    5.0749   -1.3935    0.0000 O   0  0  0  0  0  0  0  0  0  0  0  0
    3.4271   -1.9269    0.0000 N   0  0  0  0  0  0  0  0  0  0  0  0
    3.1191   -0.9755    0.0000 C   0  0  0  0  0  0  0  0  0  0  0  0
    2.1412   -0.7665    0.0000 C   0  0  0  0  0  0  0  0  0  0  0  0
    1.8332    0.1849    0.0000 C   0  0  0  0  0  0  0  0  0  0  0  0
    2.4247    0.9971    0.0000 C   0  0  0  0  0  0  0  0  0  0  0  0
    1.8349    1.8105    0.0000 N   0  0  0  0  0  0  0  0  0  0  0  0
    0.8791    1.5011    0.0000 C   0  0  0  0  0  0  0  0  0  0  0  0
    0.8780    0.4964    0.0000 C   0  0  0  0  0  0  0  0  0  0  0  0
    0.0000    0.0000    0.0000 C   0  0  0  0  0  0  0  0  0  0  0  0
   -0.8635    0.5043    0.0000 C   0  0  0  0  0  0  0  0  0  0  0  0
   -0.8584    1.5098    0.0000 N   0  0  0  0  0  0  0  0  0  0  0  0
    0.0101    2.0110    0.0000 C   0  0  0  0  0  0  0  0  0  0  0  0
   -1.7320    0.0087    0.0000 Cl  0  0  0  0  0  0  0  0  0  0  0  0
  1  2  1  0  0  0  0
  2  3  3  0  0  0  0
  3  4  1  0  0  0  0
  4  5  2  0  0  0  0
  4  6  1  0  0  0  0
  6  7  1  0  0  0  0
  7  8  1  0  0  0  0
  8  9  1  0  0  0  0
  9 13  1  0  0  0  0
  9 10  2  0  0  0  0
 10 11  1  0  0  0  0
 11 12  1  0  0  0  0
 12 17  2  0  0  0  0
 12 13  1  0  0  0  0
 13 14  2  0  0  0  0
 14 15  1  0  0  0  0
 15 16  2  0  0  0  0
 16 17  1  0  0  0  0
 15 18  1  0  0  0  0
M  END
$$$$
s_22____7533902____58844
  -OEChem-03222016482D

 15 16  0     0  0  0  0  0  0999 V2000
    7.2857    2.2346    0.0000 C   0  0  0  0  0  0  0  0  0  0  0  0
    6.2857    2.2345    0.0000 C   0  0  0  0  0  0  0  0  0  0  0  0
    5.7856    3.1005    0.0000 O   0  0  0  0  0  0  0  0  0  0  0  0
    5.7857    1.3685    0.0000 N   0  0  0  0  0  0  0  0  0  0  0  0
    4.7857    1.3684    0.0000 C   0  0  0  0  0  0  0  0  0  0  0  0
    4.2858    0.5024    0.0000 C   0  0  0  0  0  0  0  0  0  0  0  0
    3.2858    0.5023    0.0000 C   0  0  0  0  0  0  0  0  0  0  0  0
    2.6938   -0.3125    0.0000 C   0  0  0  0  0  0  0  0  0  0  0  0
    1.7360   -0.0012    0.0000 C   0  0  0  0  0  0  0  0  0  0  0  0
    0.8680   -0.4978    0.0000 C   0  0  0  0  0  0  0  0  0  0  0  0
    0.0000    0.0000    0.0000 C   0  0  0  0  0  0  0  0  0  0  0  0
    0.0000    1.0058    0.0000 C   0  0  0  0  0  0  0  0  0  0  0  0
    0.8680    1.5138    0.0000 C   0  0  0  0  0  0  0  0  0  0  0  0
    1.7360    1.0058    0.0000 C   0  0  0  0  0  0  0  0  0  0  0  0
    2.6938    1.3169    0.0000 N   0  0  0  0  0  0  0  0  0  0  0  0
  1  2  1  0  0  0  0
  2  3  2  0  0  0  0
  2  4  1  0  0  0  0
  4  5  1  0  0  0  0
  5  6  1  0  0  0  0
  6  7  1  0  0  0  0
  7 15  1  0  0  0  0
  7  8  2  0  0  0  0
  8  9  1  0  0  0  0
  9 14  2  0  0  0  0
  9 10  1  0  0  0  0
 10 11  2  0  0  0  0
 11 12  1  0  0  0  0
 12 13  2  0  0  0  0
 13 14  1  0  0  0  0
 14 15  1  0  0  0  0
M  END
$$$$
s_527a____153889____156044
  -OEChem-03222016482D

 17 18  0     0  0  0  0  0  0999 V2000
    6.5551   -3.7896    0.0000 C   0  0  0  0  0  0  0  0  0  0  0  0
    5.5770   -3.5816    0.0000 C   0  0  0  0  0  0  0  0  0  0  0  0
    4.9078   -4.3247    0.0000 C   0  0  0  0  0  0  0  0  0  0  0  0
    5.2680   -2.6306    0.0000 C   0  0  0  0  0  0  0  0  0  0  0  0
    5.9372   -1.8874    0.0000 O   0  0  0  0  0  0  0  0  0  0  0  0
    4.2899   -2.4226    0.0000 N   0  0  0  0  0  0  0  0  0  0  0  0
    3.9809   -1.4715    0.0000 C   0  0  0  0  0  0  0  0  0  0  0  0
    3.0028   -1.2636    0.0000 C   0  0  0  0  0  0  0  0  0  0  0  0
    2.6938   -0.3125    0.0000 C   0  0  0  0  0  0  0  0  0  0  0  0
    3.2858    0.5023    0.0000 C   0  0  0  0  0  0  0  0  0  0  0  0
    2.6938    1.3169    0.0000 N   0  0  0  0  0  0  0  0  0  0  0  0
    1.7360    1.0058    0.0000 C   0  0  0  0  0  0  0  0  0  0  0  0
    1.7360   -0.0012    0.0000 C   0  0  0  0  0  0  0  0  0  0  0  0
    0.8680   -0.4978    0.0000 C   0  0  0  0  0  0  0  0  0  0  0  0
    0.0000    0.0000    0.0000 C   0  0  0  0  0  0  0  0  0  0  0  0
   -0.0000    1.0058    0.0000 C   0  0  0  0  0  0  0  0  0  0  0  0
    0.8680    1.5138    0.0000 C   0  0  0  0  0  0  0  0  0  0  0  0
  1  2  1  0  0  0  0
  2  3  1  0  0  0  0
  2  4  1  0  0  0  0
  4  5  2  0  0  0  0
  4  6  1  0  0  0  0
  6  7  1  0  0  0  0
  7  8  1  0  0  0  0
  8  9  1  0  0  0  0
  9 13  1  0  0  0  0
  9 10  2  0  0  0  0
 10 11  1  0  0  0  0
 11 12  1  0  0  0  0
 12 17  2  0  0  0  0
 12 13  1  0  0  0  0
 13 14  2  0  0  0  0
 14 15  1  0  0  0  0
 15 16  2  0  0  0  0
 16 17  1  0  0  0  0
M  END
$$$$
s_22____4839448____10118400
  -OEChem-03222016482D

 21 22  0     0  0  0  0  0  0999 V2000
   -1.7320   -0.0025    0.0000 C   0  0  0  0  0  0  0  0  0  0  0  0
   -0.8653   -0.5013    0.0000 O   0  0  0  0  0  0  0  0  0  0  0  0
    0.0000    0.0000    0.0000 C   0  0  0  0  0  0  0  0  0  0  0  0
   -0.0000    1.0058    0.0000 C   0  0  0  0  0  0  0  0  0  0  0  0
    0.8680    1.5138    0.0000 C   0  0  0  0  0  0  0  0  0  0  0  0
    1.7360    1.0058    0.0000 C   0  0  0  0  0  0  0  0  0  0  0  0
    1.7360   -0.0012    0.0000 C   0  0  0  0  0  0  0  0  0  0  0  0
    0.8680   -0.4978    0.0000 C   0  0  0  0  0  0  0  0  0  0  0  0
    2.6938   -0.3125    0.0000 C   0  0  0  0  0  0  0  0  0  0  0  0
    3.2858    0.5023    0.0000 C   0  0  0  0  0  0  0  0  0  0  0  0
    2.6938    1.3169    0.0000 N   0  0  0  0  0  0  0  0  0  0  0  0
    3.0028   -1.2636    0.0000 C   0  0  0  0  0  0  0  0  0  0  0  0
    3.9809   -1.4715    0.0000 C   0  0  0  0  0  0  0  0  0  0  0  0
    4.2899   -2.4226    0.0000 N   0  0  0  0  0  0  0  0  0  0  0  0
    5.2680   -2.6306    0.0000 C   0  0  0  0  0  0  0  0  0  0  0  0
    5.9372   -1.8874    0.0000 O   0  0  0  0  0  0  0  0  0  0  0  0
    5.5770   -3.5816    0.0000 C   0  0  0  0  0  0  0  0  0  0  0  0
    6.5551   -3.7896    0.0000 O   0  0  0  0  0  0  0  0  0  0  0  0
    6.8641   -4.7407    0.0000 C   0  0  0  0  0  0  0  0  0  0  0  0
    7.8422   -4.9486    0.0000 F   0  0  0  0  0  0  0  0  0  0  0  0
    6.1949   -5.4838    0.0000 F   0  0  0  0  0  0  0  0  0  0  0  0
  1  2  1  0  0  0  0
  2  3  1  0  0  0  0
  3  8  2  0  0  0  0
  3  4  1  0  0  0  0
  4  5  2  0  0  0  0
  5  6  1  0  0  0  0
  6 11  1  0  0  0  0
  6  7  2  0  0  0  0
  7  8  1  0  0  0  0
  7  9  1  0  0  0  0
  9 10  2  0  0  0  0
 10 11  1  0  0  0  0
  9 12  1  0  0  0  0
 12 13  1  0  0  0  0
 13 14  1  0  0  0  0
 14 15  1  0  0  0  0
 15 16  2  0  0  0  0
 15 17  1  0  0  0  0
 17 18  1  0  0  0  0
 18 19  1  0  0  0  0
 19 20  1  0  0  0  0
 19 21  1  0  0  0  0
M  END
$$$$
s_22____4839448____59118
  -OEChem-03222016482D

 20 21  0     0  0  0  0  0  0999 V2000
    1.2530   -7.0892    0.0000 C   0  0  0  0  0  0  0  0  0  0  0  0
    1.9222   -6.3461    0.0000 C   0  0  0  0  0  0  0  0  0  0  0  0
    1.6132   -5.3951    0.0000 O   0  0  0  0  0  0  0  0  0  0  0  0
    2.2824   -4.6519    0.0000 C   0  0  0  0  0  0  0  0  0  0  0  0
    1.9734   -3.7009    0.0000 C   0  0  0  0  0  0  0  0  0  0  0  0
    0.9953   -3.4929    0.0000 O   0  0  0  0  0  0  0  0  0  0  0  0
    2.6426   -2.9578    0.0000 N   0  0  0  0  0  0  0  0  0  0  0  0
    2.3336   -2.0067    0.0000 C   0  0  0  0  0  0  0  0  0  0  0  0
    3.0028   -1.2636    0.0000 C   0  0  0  0  0  0  0  0  0  0  0  0
    2.6938   -0.3125    0.0000 C   0  0  0  0  0  0  0  0  0  0  0  0
    3.2858    0.5023    0.0000 C   0  0  0  0  0  0  0  0  0  0  0  0
    2.6938    1.3169    0.0000 N   0  0  0  0  0  0  0  0  0  0  0  0
    1.7360    1.0058    0.0000 C   0  0  0  0  0  0  0  0  0  0  0  0
    1.7360   -0.0012    0.0000 C   0  0  0  0  0  0  0  0  0  0  0  0
    0.8680   -0.4978    0.0000 C   0  0  0  0  0  0  0  0  0  0  0  0
    0.0000    0.0000    0.0000 C   0  0  0  0  0  0  0  0  0  0  0  0
   -0.0000    1.0058    0.0000 C   0  0  0  0  0  0  0  0  0  0  0  0
    0.8680    1.5138    0.0000 C   0  0  0  0  0  0  0  0  0  0  0  0
   -0.8653   -0.5013    0.0000 O   0  0  0  0  0  0  0  0  0  0  0  0
   -0.8639   -1.5013    0.0000 C   0  0  0  0  0  0  0  0  0  0  0  0
  1  2  1  0  0  0  0
  2  3  1  0  0  0  0
  3  4  1  0  0  0  0
  4  5  1  0  0  0  0
  5  6  2  0  0  0  0
  5  7  1  0  0  0  0
  7  8  1  0  0  0  0
  8  9  1  0  0  0  0
  9 10  1  0  0  0  0
 10 14  1  0  0  0  0
 10 11  2  0  0  0  0
 11 12  1  0  0  0  0
 12 13  1  0  0  0  0
 13 18  2  0  0  0  0
 13 14  1  0  0  0  0
 14 15  2  0  0  0  0
 15 16  1  0  0  0  0
 16 17  2  0  0  0  0
 17 18  1  0  0  0  0
 16 19  1  0  0  0  0
 19 20  1  0  0  0  0
M  END
$$$$
s_22____13570824____60364
  -OEChem-03222016482D

 18 19  0     0  0  0  0  0  0999 V2000
    5.9988   -4.2477    0.0000 C   0  0  0  0  0  0  0  0  0  0  0  0
    5.6909   -3.2963    0.0000 S   0  0  0  0  0  0  0  0  0  0  0  0
    4.7129   -3.0873    0.0000 C   0  0  0  0  0  0  0  0  0  0  0  0
    4.4050   -2.1359    0.0000 C   0  0  0  0  0  0  0  0  0  0  0  0
    5.0749   -1.3935    0.0000 O   0  0  0  0  0  0  0  0  0  0  0  0
    3.4271   -1.9269    0.0000 N   0  0  0  0  0  0  0  0  0  0  0  0
    3.1191   -0.9755    0.0000 C   0  0  0  0  0  0  0  0  0  0  0  0
    2.1412   -0.7665    0.0000 C   0  0  0  0  0  0  0  0  0  0  0  0
    1.8332    0.1849    0.0000 C   0  0  0  0  0  0  0  0  0  0  0  0
    2.4247    0.9971    0.0000 C   0  0  0  0  0  0  0  0  0  0  0  0
    1.8349    1.8105    0.0000 N   0  0  0  0  0  0  0  0  0  0  0  0
    0.8791    1.5011    0.0000 C   0  0  0  0  0  0  0  0  0  0  0  0
    0.8780    0.4964    0.0000 C   0  0  0  0  0  0  0  0  0  0  0  0
    0.0000    0.0000    0.0000 C   0  0  0  0  0  0  0  0  0  0  0  0
   -0.8635    0.5043    0.0000 C   0  0  0  0  0  0  0  0  0  0  0  0
   -0.8584    1.5098    0.0000 N   0  0  0  0  0  0  0  0  0  0  0  0
    0.0101    2.0110    0.0000 C   0  0  0  0  0  0  0  0  0  0  0  0
   -1.7320    0.0087    0.0000 Cl  0  0  0  0  0  0  0  0  0  0  0  0
  1  2  1  0  0  0  0
  2  3  1  0  0  0  0
  3  4  1  0  0  0  0
  4  5  2  0  0  0  0
  4  6  1  0  0  0  0
  6  7  1  0  0  0  0
  7  8  1  0  0  0  0
  8  9  1  0  0  0  0
  9 13  1  0  0  0  0
  9 10  2  0  0  0  0
 10 11  1  0  0  0  0
 11 12  1  0  0  0  0
 12 17  2  0  0  0  0
 12 13  1  0  0  0  0
 13 14  2  0  0  0  0
 14 15  1  0  0  0  0
 15 16  2  0  0  0  0
 16 17  1  0  0  0  0
 15 18  1  0  0  0  0
M  END
$$$$
s_512____6389034____13978836
  -OEChem-03222016482D

 21 22  0     0  0  0  0  0  0999 V2000
   -0.8705    2.5032    0.0000 C   0  0  0  0  0  0  0  0  0  0  0  0
   -0.8675    1.5032    0.0000 O   0  0  0  0  0  0  0  0  0  0  0  0
    0.0000    1.0058    0.0000 C   0  0  0  0  0  0  0  0  0  0  0  0
    0.0000    0.0000    0.0000 C   0  0  0  0  0  0  0  0  0  0  0  0
    0.8680   -0.4978    0.0000 C   0  0  0  0  0  0  0  0  0  0  0  0
    1.7360   -0.0012    0.0000 C   0  0  0  0  0  0  0  0  0  0  0  0
    1.7360    1.0058    0.0000 C   0  0  0  0  0  0  0  0  0  0  0  0
    0.8680    1.5138    0.0000 C   0  0  0  0  0  0  0  0  0  0  0  0
    2.6938    1.3169    0.0000 N   0  0  0  0  0  0  0  0  0  0  0  0
    3.2858    0.5023    0.0000 C   0  0  0  0  0  0  0  0  0  0  0  0
    2.6938   -0.3125    0.0000 C   0  0  0  0  0  0  0  0  0  0  0  0
    3.0028   -1.2636    0.0000 C   0  0  0  0  0  0  0  0  0  0  0  0
    3.9809   -1.4715    0.0000 C   0  0  0  0  0  0  0  0  0  0  0  0
    4.2899   -2.4226    0.0000 N   0  0  0  0  0  0  0  0  0  0  0  0
    5.2680   -2.6306    0.0000 C   0  0  0  0  0  0  0  0  0  0  0  0
    5.9372   -1.8874    0.0000 O   0  0  0  0  0  0  0  0  0  0  0  0
    5.5770   -3.5816    0.0000 N   0  0  0  0  0  0  0  0  0  0  0  0
    6.5551   -3.7896    0.0000 C   0  0  0  0  0  0  0  0  0  0  0  0
    6.8641   -4.7407    0.0000 C   0  0  0  0  0  0  0  0  0  0  0  0
    7.8422   -4.9486    0.0000 F   0  0  0  0  0  0  0  0  0  0  0  0
    6.1949   -5.4838    0.0000 F   0  0  0  0  0  0  0  0  0  0  0  0
  1  2  1  0  0  0  0
  2  3  1  0  0  0  0
  3  8  2  0  0  0  0
  3  4  1  0  0  0  0
  4  5  2  0  0  0  0
  5  6  1  0  0  0  0
  6 11  1  0  0  0  0
  6  7  2  0  0  0  0
  7  8  1  0  0  0  0
  7  9  1  0  0  0  0
  9 10  1  0  0  0  0
 10 11  2  0  0  0  0
 11 12  1  0  0  0  0
 12 13  1  0  0  0  0
 13 14  1  0  0  0  0
 14 15  1  0  0  0  0
 15 16  2  0  0  0  0
 15 17  1  0  0  0  0
 17 18  1  0  0  0  0
 18 19  1  0  0  0  0
 19 20  1  0  0  0  0
 19 21  1  0  0  0  0
M  END
$$$$
s_22____13978824____60462
  -OEChem-03222016482D

 20 21  0     0  0  0  0  0  0999 V2000
   -0.8705    2.5032    0.0000 C   0  0  0  0  0  0  0  0  0  0  0  0
   -0.8675    1.5032    0.0000 O   0  0  0  0  0  0  0  0  0  0  0  0
    0.0000    1.0058    0.0000 C   0  0  0  0  0  0  0  0  0  0  0  0
    0.0000    0.0000    0.0000 C   0  0  0  0  0  0  0  0  0  0  0  0
    0.8680   -0.4978    0.0000 C   0  0  0  0  0  0  0  0  0  0  0  0
    1.7360   -0.0012    0.0000 C   0  0  0  0  0  0  0  0  0  0  0  0
    1.7360    1.0058    0.0000 C   0  0  0  0  0  0  0  0  0  0  0  0
    0.8680    1.5138    0.0000 C   0  0  0  0  0  0  0  0  0  0  0  0
    2.6938    1.3169    0.0000 N   0  0  0  0  0  0  0  0  0  0  0  0
    3.2858    0.5023    0.0000 C   0  0  0  0  0  0  0  0  0  0  0  0
    2.6938   -0.3125    0.0000 C   0  0  0  0  0  0  0  0  0  0  0  0
    3.0028   -1.2636    0.0000 C   0  0  0  0  0  0  0  0  0  0  0  0
    3.9809   -1.4715    0.0000 C   0  0  0  0  0  0  0  0  0  0  0  0
    4.2899   -2.4226    0.0000 N   0  0  0  0  0  0  0  0  0  0  0  0
    5.2680   -2.6306    0.0000 C   0  0  0  0  0  0  0  0  0  0  0  0
    5.9372   -1.8874    0.0000 O   0  0  0  0  0  0  0  0  0  0  0  0
    5.5770   -3.5816    0.0000 C   0  0  0  0  0  0  0  0  0  0  0  0
    6.5551   -3.7896    0.0000 C   0  0  0  0  0  0  0  0  0  0  0  0
    6.8641   -4.7407    0.0000 S   0  0  0  0  0  0  0  0  0  0  0  0
    7.8422   -4.9486    0.0000 C   0  0  0  0  0  0  0  0  0  0  0  0
  1  2  1  0  0  0  0
  2  3  1  0  0  0  0
  3  8  2  0  0  0  0
  3  4  1  0  0  0  0
  4  5  2  0  0  0  0
  5  6  1  0  0  0  0
  6 11  1  0  0  0  0
  6  7  2  0  0  0  0
  7  8  1  0  0  0  0
  7  9  1  0  0  0  0
  9 10  1  0  0  0  0
 10 11  2  0  0  0  0
 11 12  1  0  0  0  0
 12 13  1  0  0  0  0
 13 14  1  0  0  0  0
 14 15  1  0  0  0  0
 15 16  2  0  0  0  0
 15 17  1  0  0  0  0
 17 18  1  0  0  0  0
 18 19  1  0  0  0  0
 19 20  1  0  0  0  0
M  END
$$$$
s_270004____8299440____15269820
  -OEChem-03222016482D

 22 23  0     0  0  0  0  0  0999 V2000
    6.2861   -4.6937    0.0000 C   0  0  0  0  0  0  0  0  0  0  0  0
    6.7861   -3.8276    0.0000 C   0  0  0  0  0  0  0  0  0  0  0  0
    6.2860   -2.9616    0.0000 N   0  0  0  0  0  0  0  0  0  0  0  0
    6.7860   -2.0956    0.0000 C   0  0  0  0  0  0  0  0  0  0  0  0
    7.7860   -2.0955    0.0000 O   0  0  0  0  0  0  0  0  0  0  0  0
    6.2859   -1.2296    0.0000 C   0  0  0  0  0  0  0  0  0  0  0  0
    5.4199   -1.7296    0.0000 C   0  0  0  0  0  0  0  0  0  0  0  0
    7.1519   -0.7295    0.0000 C   0  0  0  0  0  0  0  0  0  0  0  0
    5.7859   -0.3636    0.0000 C   0  0  0  0  0  0  0  0  0  0  0  0
    4.7859   -0.3636    0.0000 N   0  3  0  0  0  0  0  0  0  0  0  0
    4.2858    0.5024    0.0000 C   0  0  0  0  0  0  0  0  0  0  0  0
    3.2858    0.5023    0.0000 C   0  0  0  0  0  0  0  0  0  0  0  0
    2.6938   -0.3125    0.0000 C   0  0  0  0  0  0  0  0  0  0  0  0
    1.7360   -0.0012    0.0000 C   0  0  0  0  0  0  0  0  0  0  0  0
    1.7360    1.0058    0.0000 C   0  0  0  0  0  0  0  0  0  0  0  0
    2.6938    1.3169    0.0000 N   0  0  0  0  0  0  0  0  0  0  0  0
    0.8680    1.5138    0.0000 C   0  0  0  0  0  0  0  0  0  0  0  0
    0.0000    1.0058    0.0000 C   0  0  0  0  0  0  0  0  0  0  0  0
    0.0000    0.0000    0.0000 C   0  0  0  0  0  0  0  0  0  0  0  0
    0.8680   -0.4978    0.0000 C   0  0  0  0  0  0  0  0  0  0  0  0
    0.8675   -1.4978    0.0000 O   0  0  0  0  0  0  0  0  0  0  0  0
    1.7332   -1.9983    0.0000 C   0  0  0  0  0  0  0  0  0  0  0  0
  1  2  1  0  0  0  0
  2  3  1  0  0  0  0
  3  4  1  0  0  0  0
  4  5  2  0  0  0  0
  4  6  1  0  0  0  0
  6  7  1  0  0  0  0
  6  8  1  0  0  0  0
  6  9  1  0  0  0  0
  9 10  1  0  0  0  0
 10 11  1  0  0  0  0
 11 12  1  0  0  0  0
 12 16  1  0  0  0  0
 12 13  2  0  0  0  0
 13 14  1  0  0  0  0
 14 20  2  0  0  0  0
 14 15  1  0  0  0  0
 15 16  1  0  0  0  0
 15 17  2  0  0  0  0
 17 18  1  0  0  0  0
 18 19  2  0  0  0  0
 19 20  1  0  0  0  0
 20 21  1  0  0  0  0
 21 22  1  0  0  0  0
M  CHG  1  10   1
M  END
$$$$
s_270004____8296166____16621896
  -OEChem-03222016482D

 18 19  0     0  0  0  0  0  0999 V2000
    7.1519   -0.7295    0.0000 C   0  0  0  0  0  0  0  0  0  0  0  0
    6.2859   -1.2296    0.0000 C   0  0  0  0  0  0  0  0  0  0  0  0
    6.7860   -2.0956    0.0000 C   0  0  0  0  0  0  0  0  0  0  0  0
    5.7859   -0.3636    0.0000 C   0  0  0  0  0  0  0  0  0  0  0  0
    4.7859   -0.3636    0.0000 N   0  3  0  0  0  0  0  0  0  0  0  0
    4.2858    0.5024    0.0000 C   0  0  0  0  0  0  0  0  0  0  0  0
    3.2858    0.5023    0.0000 C   0  0  0  0  0  0  0  0  0  0  0  0
    2.6938   -0.3125    0.0000 C   0  0  0  0  0  0  0  0  0  0  0  0
    1.7360   -0.0012    0.0000 C   0  0  0  0  0  0  0  0  0  0  0  0
    0.8680   -0.4978    0.0000 C   0  0  0  0  0  0  0  0  0  0  0  0
    0.0000    0.0000    0.0000 C   0  0  0  0  0  0  0  0  0  0  0  0
    0.0000    1.0058    0.0000 C   0  0  0  0  0  0  0  0  0  0  0  0
    0.8680    1.5138    0.0000 C   0  0  0  0  0  0  0  0  0  0  0  0
    1.7360    1.0058    0.0000 C   0  0  0  0  0  0  0  0  0  0  0  0
    2.6938    1.3169    0.0000 N   0  0  0  0  0  0  0  0  0  0  0  0
   -0.8653   -0.5013    0.0000 O   0  0  0  0  0  0  0  0  0  0  0  0
   -0.8639   -1.5013    0.0000 C   0  0  0  0  0  0  0  0  0  0  0  0
    5.4199   -1.7296    0.0000 O   0  0  0  0  0  0  0  0  0  0  0  0
  1  2  1  0  0  0  0
  2  3  1  0  0  0  0
  2  4  1  0  0  0  0
  4  5  1  0  0  0  0
  5  6  1  0  0  0  0
  6  7  1  0  0  0  0
  7 15  1  0  0  0  0
  7  8  2  0  0  0  0
  8  9  1  0  0  0  0
  9 14  2  0  0  0  0
  9 10  1  0  0  0  0
 10 11  2  0  0  0  0
 11 12  1  0  0  0  0
 12 13  2  0  0  0  0
 13 14  1  0  0  0  0
 14 15  1  0  0  0  0
 11 16  1  0  0  0  0
 16 17  1  0  0  0  0
  2 18  1  0  0  0  0
M  CHG  1   5   1
M  END
$$$$
s_270062____7626314____8147258
  -OEChem-03222016482D

 16 17  0     0  0  0  0  0  0999 V2000
    0.0000    0.0000    0.0000 C   0  0  0  0  0  0  0  0  0  0  0  0
   -0.0000    1.0058    0.0000 C   0  0  0  0  0  0  0  0  0  0  0  0
    0.8680    1.5138    0.0000 C   0  0  0  0  0  0  0  0  0  0  0  0
    1.7360    1.0058    0.0000 C   0  0  0  0  0  0  0  0  0  0  0  0
    1.7360   -0.0012    0.0000 C   0  0  0  0  0  0  0  0  0  0  0  0
    0.8680   -0.4978    0.0000 C   0  0  0  0  0  0  0  0  0  0  0  0
    2.6938   -0.3125    0.0000 C   0  0  0  0  0  0  0  0  0  0  0  0
    3.2858    0.5023    0.0000 C   0  0  0  0  0  0  0  0  0  0  0  0
    2.6938    1.3169    0.0000 N   0  0  0  0  0  0  0  0  0  0  0  0
    4.2858    0.5024    0.0000 C   0  0  0  0  0  0  0  0  0  0  0  0
    4.7857    1.3684    0.0000 C   0  0  0  0  0  0  0  0  0  0  0  0
    5.7857    1.3685    0.0000 N   0  0  0  0  0  0  0  0  0  0  0  0
    6.2857    2.2345    0.0000 C   0  0  0  0  0  0  0  0  0  0  0  0
    5.7856    3.1005    0.0000 O   0  0  0  0  0  0  0  0  0  0  0  0
    7.2857    2.2346    0.0000 C   0  0  0  0  0  0  0  0  0  0  0  0
    7.7856    3.1006    0.0000 Cl  0  0  0  0  0  0  0  0  0  0  0  0
  1  6  2  0  0  0  0
  1  2  1  0  0  0  0
  2  3  2  0  0  0  0
  3  4  1  0  0  0  0
  4  9  1  0  0  0  0
  4  5  2  0  0  0  0
  5  6  1  0  0  0  0
  5  7  1  0  0  0  0
  7  8  2  0  0  0  0
  8  9  1  0  0  0  0
  8 10  1  0  0  0  0
 10 11  1  0  0  0  0
 11 12  1  0  0  0  0
 12 13  1  0  0  0  0
 13 14  2  0  0  0  0
 13 15  1  0  0  0  0
 15 16  1  0  0  0  0
M  END
$$$$
s_22____2228922____58844
  -OEChem-03222016482D

 16 17  0     0  0  0  0  0  0999 V2000
    5.5770   -3.5816    0.0000 C   0  0  0  0  0  0  0  0  0  0  0  0
    5.2680   -2.6306    0.0000 C   0  0  0  0  0  0  0  0  0  0  0  0
    5.9372   -1.8874    0.0000 O   0  0  0  0  0  0  0  0  0  0  0  0
    4.2899   -2.4226    0.0000 N   0  0  0  0  0  0  0  0  0  0  0  0
    3.9809   -1.4715    0.0000 C   0  0  0  0  0  0  0  0  0  0  0  0
    3.0028   -1.2636    0.0000 C   0  0  0  0  0  0  0  0  0  0  0  0
    2.6938   -0.3125    0.0000 C   0  0  0  0  0  0  0  0  0  0  0  0
    3.2858    0.5023    0.0000 C   0  0  0  0  0  0  0  0  0  0  0  0
    2.6938    1.3169    0.0000 N   0  0  0  0  0  0  0  0  0  0  0  0
    1.7360    1.0058    0.0000 C   0  0  0  0  0  0  0  0  0  0  0  0
    1.7360   -0.0012    0.0000 C   0  0  0  0  0  0  0  0  0  0  0  0
    0.8680   -0.4978    0.0000 C   0  0  0  0  0  0  0  0  0  0  0  0
    0.0000    0.0000    0.0000 C   0  0  0  0  0  0  0  0  0  0  0  0
   -0.0000    1.0058    0.0000 C   0  0  0  0  0  0  0  0  0  0  0  0
    0.8680    1.5138    0.0000 C   0  0  0  0  0  0  0  0  0  0  0  0
   -0.8675    1.5032    0.0000 Cl  0  0  0  0  0  0  0  0  0  0  0  0
  1  2  1  0  0  0  0
  2  3  2  0  0  0  0
  2  4  1  0  0  0  0
  4  5  1  0  0  0  0
  5  6  1  0  0  0  0
  6  7  1  0  0  0  0
  7 11  1  0  0  0  0
  7  8  2  0  0  0  0
  8  9  1  0  0  0  0
  9 10  1  0  0  0  0
 10 15  2  0  0  0  0
 10 11  1  0  0  0  0
 11 12  2  0  0  0  0
 12 13  1  0  0  0  0
 13 14  2  0  0  0  0
 14 15  1  0  0  0  0
 14 16  1  0  0  0  0
M  END
$$$$
s_2554____13771040____951600
  -OEChem-03222016482D

 21 22  0     0  0  0  0  0  0999 V2000
   -3.4641   -0.0050    0.0000 C   0  0  0  0  0  0  0  0  0  0  0  0
   -2.5974   -0.5038    0.0000 C   0  0  0  0  0  0  0  0  0  0  0  0
   -1.7320   -0.0025    0.0000 C   0  0  0  0  0  0  0  0  0  0  0  0
   -0.8653   -0.5013    0.0000 O   0  0  0  0  0  0  0  0  0  0  0  0
    0.0000    0.0000    0.0000 C   0  0  0  0  0  0  0  0  0  0  0  0
   -0.0000    1.0058    0.0000 C   0  0  0  0  0  0  0  0  0  0  0  0
    0.8680    1.5138    0.0000 C   0  0  0  0  0  0  0  0  0  0  0  0
    1.7360    1.0058    0.0000 C   0  0  0  0  0  0  0  0  0  0  0  0
    1.7360   -0.0012    0.0000 C   0  0  0  0  0  0  0  0  0  0  0  0
    0.8680   -0.4978    0.0000 C   0  0  0  0  0  0  0  0  0  0  0  0
    2.6938   -0.3125    0.0000 C   0  0  0  0  0  0  0  0  0  0  0  0
    3.2858    0.5023    0.0000 C   0  0  0  0  0  0  0  0  0  0  0  0
    2.6938    1.3169    0.0000 N   0  0  0  0  0  0  0  0  0  0  0  0
    3.0028   -1.2636    0.0000 C   0  0  0  0  0  0  0  0  0  0  0  0
    3.9809   -1.4715    0.0000 C   0  0  0  0  0  0  0  0  0  0  0  0
    4.2899   -2.4226    0.0000 N   0  0  0  0  0  0  0  0  0  0  0  0
    5.2680   -2.6306    0.0000 C   0  0  0  0  0  0  0  0  0  0  0  0
    5.9372   -1.8874    0.0000 O   0  0  0  0  0  0  0  0  0  0  0  0
    5.5770   -3.5816    0.0000 N   0  0  0  0  0  0  0  0  0  0  0  0
    6.5551   -3.7896    0.0000 C   0  0  0  0  0  0  0  0  0  0  0  0
    6.8641   -4.7407    0.0000 C   0  0  0  0  0  0  0  0  0  0  0  0
  1  2  1  0  0  0  0
  2  3  1  0  0  0  0
  3  4  1  0  0  0  0
  4  5  1  0  0  0  0
  5 10  2  0  0  0  0
  5  6  1  0  0  0  0
  6  7  2  0  0  0  0
  7  8  1  0  0  0  0
  8 13  1  0  0  0  0
  8  9  2  0  0  0  0
  9 10  1  0  0  0  0
  9 11  1  0  0  0  0
 11 12  2  0  0  0  0
 12 13  1  0  0  0  0
 11 14  1  0  0  0  0
 14 15  1  0  0  0  0
 15 16  1  0  0  0  0
 16 17  1  0  0  0  0
 17 18  2  0  0  0  0
 17 19  1  0  0  0  0
 19 20  1  0  0  0  0
 20 21  1  0  0  0  0
M  END
$$$$
s_512____158561____4839458
  -OEChem-03222016482D

 21 22  0     0  0  0  0  0  0999 V2000
    7.8422   -4.9486    0.0000 C   0  0  0  0  0  0  0  0  0  0  0  0
    6.8641   -4.7407    0.0000 C   0  0  0  0  0  0  0  0  0  0  0  0
    6.1949   -5.4838    0.0000 C   0  0  0  0  0  0  0  0  0  0  0  0
    6.5551   -3.7896    0.0000 C   0  0  0  0  0  0  0  0  0  0  0  0
    5.5770   -3.5816    0.0000 N   0  0  0  0  0  0  0  0  0  0  0  0
    5.2680   -2.6306    0.0000 C   0  0  0  0  0  0  0  0  0  0  0  0
    5.9372   -1.8874    0.0000 O   0  0  0  0  0  0  0  0  0  0  0  0
    4.2899   -2.4226    0.0000 N   0  0  0  0  0  0  0  0  0  0  0  0
    3.9809   -1.4715    0.0000 C   0  0  0  0  0  0  0  0  0  0  0  0
    3.0028   -1.2636    0.0000 C   0  0  0  0  0  0  0  0  0  0  0  0
    2.6938   -0.3125    0.0000 C   0  0  0  0  0  0  0  0  0  0  0  0
    3.2858    0.5023    0.0000 C   0  0  0  0  0  0  0  0  0  0  0  0
    2.6938    1.3169    0.0000 N   0  0  0  0  0  0  0  0  0  0  0  0
    1.7360    1.0058    0.0000 C   0  0  0  0  0  0  0  0  0  0  0  0
    1.7360   -0.0012    0.0000 C   0  0  0  0  0  0  0  0  0  0  0  0
    0.8680   -0.4978    0.0000 C   0  0  0  0  0  0  0  0  0  0  0  0
    0.0000    0.0000    0.0000 C   0  0  0  0  0  0  0  0  0  0  0  0
   -0.0000    1.0058    0.0000 C   0  0  0  0  0  0  0  0  0  0  0  0
    0.8680    1.5138    0.0000 C   0  0  0  0  0  0  0  0  0  0  0  0
   -0.8653   -0.5013    0.0000 O   0  0  0  0  0  0  0  0  0  0  0  0
   -0.8639   -1.5013    0.0000 C   0  0  0  0  0  0  0  0  0  0  0  0
  1  2  1  0  0  0  0
  2  3  1  0  0  0  0
  2  4  1  0  0  0  0
  4  5  1  0  0  0  0
  5  6  1  0  0  0  0
  6  7  2  0  0  0  0
  6  8  1  0  0  0  0
  8  9  1  0  0  0  0
  9 10  1  0  0  0  0
 10 11  1  0  0  0  0
 11 15  1  0  0  0  0
 11 12  2  0  0  0  0
 12 13  1  0  0  0  0
 13 14  1  0  0  0  0
 14 19  2  0  0  0  0
 14 15  1  0  0  0  0
 15 16  2  0  0  0  0
 16 17  1  0  0  0  0
 17 18  2  0  0  0  0
 18 19  1  0  0  0  0
 17 20  1  0  0  0  0
 20 21  1  0  0  0  0
M  END
$$$$
s_270062____13913078____8147258
  -OEChem-03222016482D

 18 19  0     1  0  0  0  0  0999 V2000
    1.3555   -1.7987    0.0000 C   0  0  0  0  0  0  0  0  0  0  0  0
    2.3336   -2.0067    0.0000 C   0  0  3  0  0  0  0  0  0  0  0  0
    3.0028   -1.2636    0.0000 C   0  0  0  0  0  0  0  0  0  0  0  0
    2.6938   -0.3125    0.0000 C   0  0  0  0  0  0  0  0  0  0  0  0
    3.2858    0.5023    0.0000 C   0  0  0  0  0  0  0  0  0  0  0  0
    2.6938    1.3169    0.0000 N   0  0  0  0  0  0  0  0  0  0  0  0
    1.7360    1.0058    0.0000 C   0  0  0  0  0  0  0  0  0  0  0  0
    1.7360   -0.0012    0.0000 C   0  0  0  0  0  0  0  0  0  0  0  0
    0.8680   -0.4978    0.0000 C   0  0  0  0  0  0  0  0  0  0  0  0
    0.0000    0.0000    0.0000 C   0  0  0  0  0  0  0  0  0  0  0  0
   -0.0000    1.0058    0.0000 C   0  0  0  0  0  0  0  0  0  0  0  0
    0.8680    1.5138    0.0000 C   0  0  0  0  0  0  0  0  0  0  0  0
   -0.8653   -0.5013    0.0000 F   0  0  0  0  0  0  0  0  0  0  0  0
    2.6426   -2.9578    0.0000 N   0  0  0  0  0  0  0  0  0  0  0  0
    1.9734   -3.7009    0.0000 C   0  0  0  0  0  0  0  0  0  0  0  0
    0.9953   -3.4929    0.0000 O   0  0  0  0  0  0  0  0  0  0  0  0
    2.2824   -4.6519    0.0000 C   0  0  0  0  0  0  0  0  0  0  0  0
    1.6132   -5.3951    0.0000 Cl  0  0  0  0  0  0  0  0  0  0  0  0
  1  2  1  0  0  0  0
  2  3  1  0  0  0  0
  3  4  1  0  0  0  0
  4  8  1  0  0  0  0
  4  5  2  0  0  0  0
  5  6  1  0  0  0  0
  6  7  1  0  0  0  0
  7 12  2  0  0  0  0
  7  8  1  0  0  0  0
  8  9  2  0  0  0  0
  9 10  1  0  0  0  0
 10 11  2  0  0  0  0
 11 12  1  0  0  0  0
 10 13  1  0  0  0  0
  2 14  1  0  0  0  0
 14 15  1  0  0  0  0
 15 16  2  0  0  0  0
 15 17  1  0  0  0  0
 17 18  1  0  0  0  0
M  END
$$$$
s_22____17638894____7941800
  -OEChem-03222016482D

 18 19  0     1  0  0  0  0  0999 V2000
    4.7859   -0.3636    0.0000 C   0  0  0  0  0  0  0  0  0  0  0  0
    4.2858    0.5024    0.0000 C   0  0  3  0  0  0  0  0  0  0  0  0
    3.2858    0.5023    0.0000 C   0  0  0  0  0  0  0  0  0  0  0  0
    2.6938   -0.3125    0.0000 C   0  0  0  0  0  0  0  0  0  0  0  0
    1.7360   -0.0012    0.0000 C   0  0  0  0  0  0  0  0  0  0  0  0
    0.8680   -0.4978    0.0000 C   0  0  0  0  0  0  0  0  0  0  0  0
    0.0000    0.0000    0.0000 C   0  0  0  0  0  0  0  0  0  0  0  0
    0.0000    1.0058    0.0000 C   0  0  0  0  0  0  0  0  0  0  0  0
    0.8680    1.5138    0.0000 C   0  0  0  0  0  0  0  0  0  0  0  0
    1.7360    1.0058    0.0000 C   0  0  0  0  0  0  0  0  0  0  0  0
    2.6938    1.3169    0.0000 O   0  0  0  0  0  0  0  0  0  0  0  0
    0.8680    2.5138    0.0000 O   0  0  0  0  0  0  0  0  0  0  0  0
    0.0020    3.0138    0.0000 C   0  0  0  0  0  0  0  0  0  0  0  0
    4.7857    1.3684    0.0000 N   0  0  0  0  0  0  0  0  0  0  0  0
    5.7857    1.3685    0.0000 C   0  0  0  0  0  0  0  0  0  0  0  0
    6.2858    0.5025    0.0000 O   0  0  0  0  0  0  0  0  0  0  0  0
    6.2857    2.2345    0.0000 C   0  0  0  0  0  0  0  0  0  0  0  0
    7.2857    2.2346    0.0000 O   0  0  0  0  0  0  0  0  0  0  0  0
  1  2  1  0  0  0  0
  2  3  1  0  0  0  0
  3 11  1  0  0  0  0
  3  4  2  0  0  0  0
  4  5  1  0  0  0  0
  5 10  2  0  0  0  0
  5  6  1  0  0  0  0
  6  7  2  0  0  0  0
  7  8  1  0  0  0  0
  8  9  2  0  0  0  0
  9 10  1  0  0  0  0
 10 11  1  0  0  0  0
  9 12  1  0  0  0  0
 12 13  1  0  0  0  0
  2 14  1  0  0  0  0
 14 15  1  0  0  0  0
 15 16  2  0  0  0  0
 15 17  1  0  0  0  0
 17 18  1  0  0  0  0
M  END
$$$$
s_22____10303762____59039
  -OEChem-03222016482D

 18 19  0     0  0  0  0  0  0999 V2000
    6.8641   -4.7407    0.0000 C   0  0  0  0  0  0  0  0  0  0  0  0
    6.5551   -3.7896    0.0000 O   0  0  0  0  0  0  0  0  0  0  0  0
    5.5770   -3.5816    0.0000 C   0  0  0  0  0  0  0  0  0  0  0  0
    5.2680   -2.6306    0.0000 C   0  0  0  0  0  0  0  0  0  0  0  0
    5.9372   -1.8874    0.0000 O   0  0  0  0  0  0  0  0  0  0  0  0
    4.2899   -2.4226    0.0000 N   0  0  0  0  0  0  0  0  0  0  0  0
    3.9809   -1.4715    0.0000 C   0  0  0  0  0  0  0  0  0  0  0  0
    3.0028   -1.2636    0.0000 C   0  0  0  0  0  0  0  0  0  0  0  0
    2.6938   -0.3125    0.0000 C   0  0  0  0  0  0  0  0  0  0  0  0
    3.2858    0.5023    0.0000 C   0  0  0  0  0  0  0  0  0  0  0  0
    2.6938    1.3169    0.0000 N   0  0  0  0  0  0  0  0  0  0  0  0
    1.7360    1.0058    0.0000 C   0  0  0  0  0  0  0  0  0  0  0  0
    1.7360   -0.0012    0.0000 C   0  0  0  0  0  0  0  0  0  0  0  0
    0.8680   -0.4978    0.0000 C   0  0  0  0  0  0  0  0  0  0  0  0
    0.0000    0.0000    0.0000 C   0  0  0  0  0  0  0  0  0  0  0  0
   -0.0000    1.0058    0.0000 C   0  0  0  0  0  0  0  0  0  0  0  0
    0.8680    1.5138    0.0000 C   0  0  0  0  0  0  0  0  0  0  0  0
    0.8675   -1.4978    0.0000 Br  0  0  0  0  0  0  0  0  0  0  0  0
  1  2  1  0  0  0  0
  2  3  1  0  0  0  0
  3  4  1  0  0  0  0
  4  5  2  0  0  0  0
  4  6  1  0  0  0  0
  6  7  1  0  0  0  0
  7  8  1  0  0  0  0
  8  9  1  0  0  0  0
  9 13  1  0  0  0  0
  9 10  2  0  0  0  0
 10 11  1  0  0  0  0
 11 12  1  0  0  0  0
 12 17  2  0  0  0  0
 12 13  1  0  0  0  0
 13 14  2  0  0  0  0
 14 15  1  0  0  0  0
 15 16  2  0  0  0  0
 16 17  1  0  0  0  0
 14 18  1  0  0  0  0
M  END
$$$$
s_512____15075154____15506628
  -OEChem-03222016482D

 21 22  0     0  0  0  0  0  0999 V2000
    1.7340    3.0138    0.0000 C   0  0  0  0  0  0  0  0  0  0  0  0
    0.8680    2.5138    0.0000 O   0  0  0  0  0  0  0  0  0  0  0  0
    0.8680    1.5138    0.0000 C   0  0  0  0  0  0  0  0  0  0  0  0
    0.0000    1.0058    0.0000 C   0  0  0  0  0  0  0  0  0  0  0  0
    0.0000    0.0000    0.0000 C   0  0  0  0  0  0  0  0  0  0  0  0
    0.8680   -0.4978    0.0000 C   0  0  0  0  0  0  0  0  0  0  0  0
    1.7360   -0.0012    0.0000 C   0  0  0  0  0  0  0  0  0  0  0  0
    1.7360    1.0058    0.0000 C   0  0  0  0  0  0  0  0  0  0  0  0
    2.6938    1.3169    0.0000 N   0  0  0  0  0  0  0  0  0  0  0  0
    3.2858    0.5023    0.0000 C   0  0  0  0  0  0  0  0  0  0  0  0
    2.6938   -0.3125    0.0000 C   0  0  0  0  0  0  0  0  0  0  0  0
    3.0028   -1.2636    0.0000 C   0  0  0  0  0  0  0  0  0  0  0  0
    3.9809   -1.4715    0.0000 C   0  0  0  0  0  0  0  0  0  0  0  0
    4.2899   -2.4226    0.0000 N   0  0  0  0  0  0  0  0  0  0  0  0
    5.2680   -2.6306    0.0000 C   0  0  0  0  0  0  0  0  0  0  0  0
    5.9372   -1.8874    0.0000 O   0  0  0  0  0  0  0  0  0  0  0  0
    5.5770   -3.5816    0.0000 N   0  0  0  0  0  0  0  0  0  0  0  0
    6.5551   -3.7896    0.0000 C   0  0  0  0  0  0  0  0  0  0  0  0
    6.8641   -4.7407    0.0000 C   0  0  0  0  0  0  0  0  0  0  0  0
    7.8422   -4.9486    0.0000 C   0  0  0  0  0  0  0  0  0  0  0  0
    8.1512   -5.8997    0.0000 Br  0  0  0  0  0  0  0  0  0  0  0  0
  1  2  1  0  0  0  0
  2  3  1  0  0  0  0
  3  8  2  0  0  0  0
  3  4  1  0  0  0  0
  4  5  2  0  0  0  0
  5  6  1  0  0  0  0
  6  7  2  0  0  0  0
  7 11  1  0  0  0  0
  7  8  1  0  0  0  0
  8  9  1  0  0  0  0
  9 10  1  0  0  0  0
 10 11  2  0  0  0  0
 11 12  1  0  0  0  0
 12 13  1  0  0  0  0
 13 14  1  0  0  0  0
 14 15  1  0  0  0  0
 15 16  2  0  0  0  0
 15 17  1  0  0  0  0
 17 18  1  0  0  0  0
 18 19  1  0  0  0  0
 19 20  2  3  0  0  0
 20 21  1  0  0  0  0
M  END
$$$$
s_512____5136592____4839458
  -OEChem-03222016482D

 21 22  0     0  0  0  0  0  0999 V2000
   -1.7320   -0.0025    0.0000 C   0  0  0  0  0  0  0  0  0  0  0  0
   -0.8653   -0.5013    0.0000 O   0  0  0  0  0  0  0  0  0  0  0  0
    0.0000    0.0000    0.0000 C   0  0  0  0  0  0  0  0  0  0  0  0
   -0.0000    1.0058    0.0000 C   0  0  0  0  0  0  0  0  0  0  0  0
    0.8680    1.5138    0.0000 C   0  0  0  0  0  0  0  0  0  0  0  0
    1.7360    1.0058    0.0000 C   0  0  0  0  0  0  0  0  0  0  0  0
    1.7360   -0.0012    0.0000 C   0  0  0  0  0  0  0  0  0  0  0  0
    0.8680   -0.4978    0.0000 C   0  0  0  0  0  0  0  0  0  0  0  0
    2.6938   -0.3125    0.0000 C   0  0  0  0  0  0  0  0  0  0  0  0
    3.2858    0.5023    0.0000 C   0  0  0  0  0  0  0  0  0  0  0  0
    2.6938    1.3169    0.0000 N   0  0  0  0  0  0  0  0  0  0  0  0
    3.0028   -1.2636    0.0000 C   0  0  0  0  0  0  0  0  0  0  0  0
    3.9809   -1.4715    0.0000 C   0  0  0  0  0  0  0  0  0  0  0  0
    4.2899   -2.4226    0.0000 N   0  0  0  0  0  0  0  0  0  0  0  0
    5.2680   -2.6306    0.0000 C   0  0  0  0  0  0  0  0  0  0  0  0
    5.9372   -1.8874    0.0000 O   0  0  0  0  0  0  0  0  0  0  0  0
    5.5770   -3.5816    0.0000 N   0  0  0  0  0  0  0  0  0  0  0  0
    6.5551   -3.7896    0.0000 C   0  0  0  0  0  0  0  0  0  0  0  0
    6.8641   -4.7407    0.0000 C   0  0  0  0  0  0  0  0  0  0  0  0
    6.1949   -5.4838    0.0000 C   0  0  0  0  0  0  0  0  0  0  0  0
    7.8422   -4.9486    0.0000 Cl  0  0  0  0  0  0  0  0  0  0  0  0
  1  2  1  0  0  0  0
  2  3  1  0  0  0  0
  3  8  2  0  0  0  0
  3  4  1  0  0  0  0
  4  5  2  0  0  0  0
  5  6  1  0  0  0  0
  6 11  1  0  0  0  0
  6  7  2  0  0  0  0
  7  8  1  0  0  0  0
  7  9  1  0  0  0  0
  9 10  2  0  0  0  0
 10 11  1  0  0  0  0
  9 12  1  0  0  0  0
 12 13  1  0  0  0  0
 13 14  1  0  0  0  0
 14 15  1  0  0  0  0
 15 16  2  0  0  0  0
 15 17  1  0  0  0  0
 17 18  1  0  0  0  0
 18 19  1  0  0  0  0
 19 20  2  0  0  0  0
 19 21  1  0  0  0  0
M  END
$$$$
s_240690b____11689238____13151248
  -OEChem-03222016482D

 18 19  0     0  0  0  0  0  0999 V2000
   -0.8675    1.5032    0.0000 C   0  0  0  0  0  0  0  0  0  0  0  0
    0.0000    1.0058    0.0000 C   0  0  0  0  0  0  0  0  0  0  0  0
    0.0000    0.0000    0.0000 C   0  0  0  0  0  0  0  0  0  0  0  0
    0.8680   -0.4978    0.0000 C   0  0  0  0  0  0  0  0  0  0  0  0
    1.7360   -0.0012    0.0000 C   0  0  0  0  0  0  0  0  0  0  0  0
    1.7360    1.0058    0.0000 C   0  0  0  0  0  0  0  0  0  0  0  0
    0.8680    1.5138    0.0000 C   0  0  0  0  0  0  0  0  0  0  0  0
    2.6938    1.3169    0.0000 N   0  0  0  0  0  0  0  0  0  0  0  0
    3.2858    0.5023    0.0000 C   0  0  0  0  0  0  0  0  0  0  0  0
    2.6938   -0.3125    0.0000 C   0  0  0  0  0  0  0  0  0  0  0  0
    3.0028   -1.2636    0.0000 C   0  0  0  0  0  0  0  0  0  0  0  0
    3.9809   -1.4715    0.0000 C   0  0  0  0  0  0  0  0  0  0  0  0
    4.2899   -2.4226    0.0000 N   0  0  0  0  0  0  0  0  0  0  0  0
    5.2680   -2.6306    0.0000 C   0  0  0  0  0  0  0  0  0  0  0  0
    5.9372   -1.8874    0.0000 O   0  0  0  0  0  0  0  0  0  0  0  0
    5.5770   -3.5816    0.0000 C   0  0  0  0  0  0  0  0  0  0  0  0
    6.5551   -3.7896    0.0000 O   0  0  0  0  0  0  0  0  0  0  0  0
    6.8641   -4.7407    0.0000 N   0  0  0  0  0  0  0  0  0  0  0  0
  1  2  1  0  0  0  0
  2  7  2  0  0  0  0
  2  3  1  0  0  0  0
  3  4  2  0  0  0  0
  4  5  1  0  0  0  0
  5 10  1  0  0  0  0
  5  6  2  0  0  0  0
  6  7  1  0  0  0  0
  6  8  1  0  0  0  0
  8  9  1  0  0  0  0
  9 10  2  0  0  0  0
 10 11  1  0  0  0  0
 11 12  1  0  0  0  0
 12 13  1  0  0  0  0
 13 14  1  0  0  0  0
 14 15  2  0  0  0  0
 14 16  1  0  0  0  0
 16 17  1  0  0  0  0
 17 18  1  0  0  0  0
M  END
$$$$
s_270062____7595008____8147258
  -OEChem-03222016482D

 16 17  0     0  0  0  0  0  0999 V2000
    0.0000    0.0000    0.0000 C   0  0  0  0  0  0  0  0  0  0  0  0
   -0.0000    1.0058    0.0000 C   0  0  0  0  0  0  0  0  0  0  0  0
    0.8680    1.5138    0.0000 C   0  0  0  0  0  0  0  0  0  0  0  0
    1.7360    1.0058    0.0000 C   0  0  0  0  0  0  0  0  0  0  0  0
    1.7360   -0.0012    0.0000 C   0  0  0  0  0  0  0  0  0  0  0  0
    0.8680   -0.4978    0.0000 C   0  0  0  0  0  0  0  0  0  0  0  0
    2.6938   -0.3125    0.0000 C   0  0  0  0  0  0  0  0  0  0  0  0
    3.2858    0.5023    0.0000 C   0  0  0  0  0  0  0  0  0  0  0  0
    2.6938    1.3169    0.0000 N   0  0  0  0  0  0  0  0  0  0  0  0
    3.0028   -1.2636    0.0000 C   0  0  0  0  0  0  0  0  0  0  0  0
    3.9809   -1.4715    0.0000 C   0  0  0  0  0  0  0  0  0  0  0  0
    4.2899   -2.4226    0.0000 N   0  0  0  0  0  0  0  0  0  0  0  0
    5.2680   -2.6306    0.0000 C   0  0  0  0  0  0  0  0  0  0  0  0
    5.9372   -1.8874    0.0000 O   0  0  0  0  0  0  0  0  0  0  0  0
    5.5770   -3.5816    0.0000 C   0  0  0  0  0  0  0  0  0  0  0  0
    6.5551   -3.7896    0.0000 Cl  0  0  0  0  0  0  0  0  0  0  0  0
  1  6  2  0  0  0  0
  1  2  1  0  0  0  0
  2  3  2  0  0  0  0
  3  4  1  0  0  0  0
  4  9  1  0  0  0  0
  4  5  2  0  0  0  0
  5  6  1  0  0  0  0
  5  7  1  0  0  0  0
  7  8  2  0  0  0  0
  8  9  1  0  0  0  0
  7 10  1  0  0  0  0
 10 11  1  0  0  0  0
 11 12  1  0  0  0  0
 12 13  1  0  0  0  0
 13 14  2  0  0  0  0
 13 15  1  0  0  0  0
 15 16  1  0  0  0  0
M  END
$$$$
s_270004____12216126____15269820
  -OEChem-03222016482D

 22 23  0     0  0  0  0  0  0999 V2000
    7.2858    0.5025    0.0000 C   0  0  0  0  0  0  0  0  0  0  0  0
    7.7858    1.3686    0.0000 C   0  0  0  0  0  0  0  0  0  0  0  0
    7.2857    2.2346    0.0000 N   0  0  0  0  0  0  0  0  0  0  0  0
    6.2857    2.2345    0.0000 C   0  0  0  0  0  0  0  0  0  0  0  0
    5.7856    3.1005    0.0000 O   0  0  0  0  0  0  0  0  0  0  0  0
    5.7858    1.3685    0.0000 C   0  0  0  0  0  0  0  0  0  0  0  0
    4.7858    1.3684    0.0000 N   0  3  0  0  0  0  0  0  0  0  0  0
    4.2858    0.5024    0.0000 C   0  0  0  0  0  0  0  0  0  0  0  0
    3.2858    0.5023    0.0000 C   0  0  0  0  0  0  0  0  0  0  0  0
    2.6938   -0.3125    0.0000 C   0  0  0  0  0  0  0  0  0  0  0  0
    1.7360   -0.0012    0.0000 C   0  0  0  0  0  0  0  0  0  0  0  0
    1.7360    1.0058    0.0000 C   0  0  0  0  0  0  0  0  0  0  0  0
    2.6938    1.3169    0.0000 N   0  0  0  0  0  0  0  0  0  0  0  0
    0.8680    1.5138    0.0000 C   0  0  0  0  0  0  0  0  0  0  0  0
    0.0000    1.0058    0.0000 C   0  0  0  0  0  0  0  0  0  0  0  0
    0.0000    0.0000    0.0000 C   0  0  0  0  0  0  0  0  0  0  0  0
    0.8680   -0.4978    0.0000 C   0  0  0  0  0  0  0  0  0  0  0  0
    0.8675   -1.4978    0.0000 O   0  0  0  0  0  0  0  0  0  0  0  0
    1.7332   -1.9983    0.0000 C   0  0  0  0  0  0  0  0  0  0  0  0
    7.7856    3.1006    0.0000 O   0  0  0  0  0  0  0  0  0  0  0  0
    7.2856    3.9666    0.0000 C   0  0  0  0  0  0  0  0  0  0  0  0
    7.7855    4.8327    0.0000 C   0  0  0  0  0  0  0  0  0  0  0  0
  1  2  1  0  0  0  0
  2  3  1  0  0  0  0
  3  4  1  0  0  0  0
  4  5  2  0  0  0  0
  4  6  1  0  0  0  0
  6  7  1  0  0  0  0
  7  8  1  0  0  0  0
  8  9  1  0  0  0  0
  9 13  1  0  0  0  0
  9 10  2  0  0  0  0
 10 11  1  0  0  0  0
 11 17  2  0  0  0  0
 11 12  1  0  0  0  0
 12 13  1  0  0  0  0
 12 14  2  0  0  0  0
 14 15  1  0  0  0  0
 15 16  2  0  0  0  0
 16 17  1  0  0  0  0
 17 18  1  0  0  0  0
 18 19  1  0  0  0  0
  3 20  1  0  0  0  0
 20 21  1  0  0  0  0
 21 22  1  0  0  0  0
M  CHG  1   7   1
M  END
$$$$
s_22____9631354____58844
  -OEChem-03222016482D

 16 17  0     0  0  0  0  0  0999 V2000
    5.5770   -3.5816    0.0000 C   0  0  0  0  0  0  0  0  0  0  0  0
    5.2680   -2.6306    0.0000 C   0  0  0  0  0  0  0  0  0  0  0  0
    5.9372   -1.8874    0.0000 O   0  0  0  0  0  0  0  0  0  0  0  0
    4.2899   -2.4226    0.0000 N   0  0  0  0  0  0  0  0  0  0  0  0
    3.9809   -1.4715    0.0000 C   0  0  0  0  0  0  0  0  0  0  0  0
    3.0028   -1.2636    0.0000 C   0  0  0  0  0  0  0  0  0  0  0  0
    2.6938   -0.3125    0.0000 C   0  0  0  0  0  0  0  0  0  0  0  0
    3.2858    0.5023    0.0000 C   0  0  0  0  0  0  0  0  0  0  0  0
    2.6938    1.3169    0.0000 N   0  0  0  0  0  0  0  0  0  0  0  0
    1.7360    1.0058    0.0000 C   0  0  0  0  0  0  0  0  0  0  0  0
    1.7360   -0.0012    0.0000 C   0  0  0  0  0  0  0  0  0  0  0  0
    0.8680   -0.4978    0.0000 C   0  0  0  0  0  0  0  0  0  0  0  0
    0.0000    0.0000    0.0000 C   0  0  0  0  0  0  0  0  0  0  0  0
   -0.0000    1.0058    0.0000 C   0  0  0  0  0  0  0  0  0  0  0  0
    0.8680    1.5138    0.0000 C   0  0  0  0  0  0  0  0  0  0  0  0
   -0.8653   -0.5013    0.0000 F   0  0  0  0  0  0  0  0  0  0  0  0
  1  2  1  0  0  0  0
  2  3  2  0  0  0  0
  2  4  1  0  0  0  0
  4  5  1  0  0  0  0
  5  6  1  0  0  0  0
  6  7  1  0  0  0  0
  7 11  1  0  0  0  0
  7  8  2  0  0  0  0
  8  9  1  0  0  0  0
  9 10  1  0  0  0  0
 10 15  2  0  0  0  0
 10 11  1  0  0  0  0
 11 12  2  0  0  0  0
 12 13  1  0  0  0  0
 13 14  2  0  0  0  0
 14 15  1  0  0  0  0
 13 16  1  0  0  0  0
M  END
$$$$
s_240690b____7362722____3025698
  -OEChem-03222016482D

 17 18  0     0  0  0  0  0  0999 V2000
    0.8675   -1.4978    0.0000 C   0  0  0  0  0  0  0  0  0  0  0  0
    0.8680   -0.4978    0.0000 C   0  0  0  0  0  0  0  0  0  0  0  0
    0.0000    0.0000    0.0000 C   0  0  0  0  0  0  0  0  0  0  0  0
   -0.0000    1.0058    0.0000 C   0  0  0  0  0  0  0  0  0  0  0  0
    0.8680    1.5138    0.0000 C   0  0  0  0  0  0  0  0  0  0  0  0
    1.7360    1.0058    0.0000 C   0  0  0  0  0  0  0  0  0  0  0  0
    1.7360   -0.0012    0.0000 C   0  0  0  0  0  0  0  0  0  0  0  0
    2.6938   -0.3125    0.0000 C   0  0  0  0  0  0  0  0  0  0  0  0
    3.2858    0.5023    0.0000 C   0  0  0  0  0  0  0  0  0  0  0  0
    2.6938    1.3169    0.0000 N   0  0  0  0  0  0  0  0  0  0  0  0
    3.0028   -1.2636    0.0000 C   0  0  0  0  0  0  0  0  0  0  0  0
    3.9809   -1.4715    0.0000 C   0  0  0  0  0  0  0  0  0  0  0  0
    4.2899   -2.4226    0.0000 N   0  0  0  0  0  0  0  0  0  0  0  0
    5.2680   -2.6306    0.0000 C   0  0  0  0  0  0  0  0  0  0  0  0
    5.9372   -1.8874    0.0000 O   0  0  0  0  0  0  0  0  0  0  0  0
    5.5770   -3.5816    0.0000 C   0  0  0  0  0  0  0  0  0  0  0  0
    6.5551   -3.7896    0.0000 N   0  3  0  0  0  0  0  0  0  0  0  0
  1  2  1  0  0  0  0
  2  7  2  0  0  0  0
  2  3  1  0  0  0  0
  3  4  2  0  0  0  0
  4  5  1  0  0  0  0
  5  6  2  0  0  0  0
  6 10  1  0  0  0  0
  6  7  1  0  0  0  0
  7  8  1  0  0  0  0
  8  9  2  0  0  0  0
  9 10  1  0  0  0  0
  8 11  1  0  0  0  0
 11 12  1  0  0  0  0
 12 13  1  0  0  0  0
 13 14  1  0  0  0  0
 14 15  2  0  0  0  0
 14 16  1  0  0  0  0
 16 17  1  0  0  0  0
M  CHG  1  17   1
M  END
$$$$
s_22____15754586____7941800
  -OEChem-03222016482D

 19 20  0     1  0  0  0  0  0999 V2000
    3.9809   -1.4715    0.0000 C   0  0  0  0  0  0  0  0  0  0  0  0
    3.0028   -1.2636    0.0000 C   0  0  3  0  0  0  0  0  0  0  0  0
    2.3336   -2.0067    0.0000 C   0  0  0  0  0  0  0  0  0  0  0  0
    2.6426   -2.9578    0.0000 N   0  0  0  0  0  0  0  0  0  0  0  0
    1.9734   -3.7009    0.0000 C   0  0  0  0  0  0  0  0  0  0  0  0
    0.9953   -3.4929    0.0000 O   0  0  0  0  0  0  0  0  0  0  0  0
    2.2824   -4.6519    0.0000 C   0  0  0  0  0  0  0  0  0  0  0  0
    1.6132   -5.3951    0.0000 O   0  0  0  0  0  0  0  0  0  0  0  0
    2.6938   -0.3125    0.0000 C   0  0  0  0  0  0  0  0  0  0  0  0
    3.2858    0.5023    0.0000 C   0  0  0  0  0  0  0  0  0  0  0  0
    2.6938    1.3169    0.0000 N   0  0  0  0  0  0  0  0  0  0  0  0
    1.7360    1.0058    0.0000 C   0  0  0  0  0  0  0  0  0  0  0  0
    1.7360   -0.0012    0.0000 C   0  0  0  0  0  0  0  0  0  0  0  0
    0.8680   -0.4978    0.0000 C   0  0  0  0  0  0  0  0  0  0  0  0
    0.0000    0.0000    0.0000 C   0  0  0  0  0  0  0  0  0  0  0  0
   -0.0000    1.0058    0.0000 C   0  0  0  0  0  0  0  0  0  0  0  0
    0.8680    1.5138    0.0000 C   0  0  0  0  0  0  0  0  0  0  0  0
   -0.8653   -0.5013    0.0000 O   0  0  0  0  0  0  0  0  0  0  0  0
   -0.8639   -1.5013    0.0000 C   0  0  0  0  0  0  0  0  0  0  0  0
  1  2  1  0  0  0  0
  2  3  1  0  0  0  0
  3  4  1  0  0  0  0
  4  5  1  0  0  0  0
  5  6  2  0  0  0  0
  5  7  1  0  0  0  0
  7  8  1  0  0  0  0
  2  9  1  0  0  0  0
  9 13  1  0  0  0  0
  9 10  2  0  0  0  0
 10 11  1  0  0  0  0
 11 12  1  0  0  0  0
 12 17  2  0  0  0  0
 12 13  1  0  0  0  0
 13 14  2  0  0  0  0
 14 15  1  0  0  0  0
 15 16  2  0  0  0  0
 16 17  1  0  0  0  0
 15 18  1  0  0  0  0
 18 19  1  0  0  0  0
M  END
$$$$
s_240690b____15506692____7368582
  -OEChem-03222016482D

 19 20  0     0  0  0  0  0  0999 V2000
    6.8641   -4.7407    0.0000 C   0  0  0  0  0  0  0  0  0  0  0  0
    6.5551   -3.7896    0.0000 N   0  3  0  0  0  0  0  0  0  0  0  0
    5.5770   -3.5816    0.0000 C   0  0  0  0  0  0  0  0  0  0  0  0
    5.2680   -2.6306    0.0000 C   0  0  0  0  0  0  0  0  0  0  0  0
    5.9372   -1.8874    0.0000 O   0  0  0  0  0  0  0  0  0  0  0  0
    4.2899   -2.4226    0.0000 N   0  0  0  0  0  0  0  0  0  0  0  0
    3.9809   -1.4715    0.0000 C   0  0  0  0  0  0  0  0  0  0  0  0
    3.0028   -1.2636    0.0000 C   0  0  0  0  0  0  0  0  0  0  0  0
    2.6938   -0.3125    0.0000 C   0  0  0  0  0  0  0  0  0  0  0  0
    3.2858    0.5023    0.0000 C   0  0  0  0  0  0  0  0  0  0  0  0
    2.6938    1.3169    0.0000 N   0  0  0  0  0  0  0  0  0  0  0  0
    1.7360    1.0058    0.0000 C   0  0  0  0  0  0  0  0  0  0  0  0
    1.7360   -0.0012    0.0000 C   0  0  0  0  0  0  0  0  0  0  0  0
    0.8680   -0.4978    0.0000 C   0  0  0  0  0  0  0  0  0  0  0  0
    0.0000    0.0000    0.0000 C   0  0  0  0  0  0  0  0  0  0  0  0
   -0.0000    1.0058    0.0000 C   0  0  0  0  0  0  0  0  0  0  0  0
    0.8680    1.5138    0.0000 C   0  0  0  0  0  0  0  0  0  0  0  0
    0.8680    2.5138    0.0000 O   0  0  0  0  0  0  0  0  0  0  0  0
    0.0020    3.0138    0.0000 C   0  0  0  0  0  0  0  0  0  0  0  0
  1  2  1  0  0  0  0
  2  3  1  0  0  0  0
  3  4  1  0  0  0  0
  4  5  2  0  0  0  0
  4  6  1  0  0  0  0
  6  7  1  0  0  0  0
  7  8  1  0  0  0  0
  8  9  1  0  0  0  0
  9 13  1  0  0  0  0
  9 10  2  0  0  0  0
 10 11  1  0  0  0  0
 11 12  1  0  0  0  0
 12 17  2  0  0  0  0
 12 13  1  0  0  0  0
 13 14  2  0  0  0  0
 14 15  1  0  0  0  0
 15 16  2  0  0  0  0
 16 17  1  0  0  0  0
 17 18  1  0  0  0  0
 18 19  1  0  0  0  0
M  CHG  1   2   1
M  END
$$$$
s_274078a____12248494____12873778
  -OEChem-03222016482D

 18 19  0     1  0  0  0  0  0999 V2000
    6.2974    0.1915    0.0000 C   0  0  0  0  0  0  0  0  0  0  0  0
    5.6283    0.9346    0.0000 C   0  0  0  0  0  0  0  0  0  0  0  0
    5.9373    1.8857    0.0000 O   0  0  0  0  0  0  0  0  0  0  0  0
    4.6501    0.7268    0.0000 N   0  0  0  0  0  0  0  0  0  0  0  0
    3.9810    1.4699    0.0000 C   0  0  3  0  0  0  0  0  0  0  0  0
    3.0029    1.2620    0.0000 C   0  0  0  0  0  0  0  0  0  0  0  0
    2.6938    0.3110    0.0000 C   0  0  0  0  0  0  0  0  0  0  0  0
    3.2858   -0.5036    0.0000 C   0  0  0  0  0  0  0  0  0  0  0  0
    2.6938   -1.3184    0.0000 N   0  0  0  0  0  0  0  0  0  0  0  0
    1.7360   -1.0071    0.0000 C   0  0  0  0  0  0  0  0  0  0  0  0
    1.7360   -0.0000    0.0000 C   0  0  0  0  0  0  0  0  0  0  0  0
    0.8680    0.5079    0.0000 N   0  0  0  0  0  0  0  0  0  0  0  0
    0.0000    0.0000    0.0000 C   0  0  0  0  0  0  0  0  0  0  0  0
    0.0000   -1.0058    0.0000 C   0  0  0  0  0  0  0  0  0  0  0  0
    0.8680   -1.5037    0.0000 C   0  0  0  0  0  0  0  0  0  0  0  0
    4.2901    2.4210    0.0000 C   0  0  0  0  0  0  0  0  0  0  0  0
    5.2682    2.6288    0.0000 O   0  0  0  0  0  0  0  0  0  0  0  0
    3.6210    3.1641    0.0000 O   0  5  0  0  0  0  0  0  0  0  0  0
  1  2  1  0  0  0  0
  2  3  2  0  0  0  0
  2  4  1  0  0  0  0
  4  5  1  0  0  0  0
  5  6  1  0  0  0  0
  6  7  1  0  0  0  0
  7 11  1  0  0  0  0
  7  8  2  0  0  0  0
  8  9  1  0  0  0  0
  9 10  1  0  0  0  0
 10 15  2  0  0  0  0
 10 11  1  0  0  0  0
 11 12  2  0  0  0  0
 12 13  1  0  0  0  0
 13 14  2  0  0  0  0
 14 15  1  0  0  0  0
  5 16  1  0  0  0  0
 16 17  2  0  0  0  0
 16 18  1  0  0  0  0
M  CHG  1  18  -1
M  END
$$$$
s_270004____15267152____15269820
  -OEChem-03222016482D

 20 21  0     0  0  0  0  0  0999 V2000
    0.0012   -1.9973    0.0000 C   0  0  0  0  0  0  0  0  0  0  0  0
    0.8675   -1.4978    0.0000 O   0  0  0  0  0  0  0  0  0  0  0  0
    0.8680   -0.4978    0.0000 C   0  0  0  0  0  0  0  0  0  0  0  0
    0.0000    0.0000    0.0000 C   0  0  0  0  0  0  0  0  0  0  0  0
   -0.0000    1.0058    0.0000 C   0  0  0  0  0  0  0  0  0  0  0  0
    0.8680    1.5138    0.0000 C   0  0  0  0  0  0  0  0  0  0  0  0
    1.7360    1.0058    0.0000 C   0  0  0  0  0  0  0  0  0  0  0  0
    1.7360   -0.0012    0.0000 C   0  0  0  0  0  0  0  0  0  0  0  0
    2.6938   -0.3125    0.0000 C   0  0  0  0  0  0  0  0  0  0  0  0
    3.2858    0.5023    0.0000 C   0  0  0  0  0  0  0  0  0  0  0  0
    2.6938    1.3169    0.0000 N   0  0  0  0  0  0  0  0  0  0  0  0
    4.2858    0.5024    0.0000 C   0  0  0  0  0  0  0  0  0  0  0  0
    4.7857    1.3684    0.0000 N   0  3  0  0  0  0  0  0  0  0  0  0
    5.7857    1.3685    0.0000 C   0  0  0  0  0  0  0  0  0  0  0  0
    6.2857    2.2345    0.0000 C   0  0  0  0  0  0  0  0  0  0  0  0
    5.7856    3.1005    0.0000 O   0  0  0  0  0  0  0  0  0  0  0  0
    7.2857    2.2346    0.0000 O   0  0  0  0  0  0  0  0  0  0  0  0
    7.7856    3.1006    0.0000 C   0  0  0  0  0  0  0  0  0  0  0  0
    8.7856    3.1007    0.0000 C   0  0  0  0  0  0  0  0  0  0  0  0
    9.7856    3.1008    0.0000 C   0  0  0  0  0  0  0  0  0  0  0  0
  1  2  1  0  0  0  0
  2  3  1  0  0  0  0
  3  8  2  0  0  0  0
  3  4  1  0  0  0  0
  4  5  2  0  0  0  0
  5  6  1  0  0  0  0
  6  7  2  0  0  0  0
  7 11  1  0  0  0  0
  7  8  1  0  0  0  0
  8  9  1  0  0  0  0
  9 10  2  0  0  0  0
 10 11  1  0  0  0  0
 10 12  1  0  0  0  0
 12 13  1  0  0  0  0
 13 14  1  0  0  0  0
 14 15  1  0  0  0  0
 15 16  2  0  0  0  0
 15 17  1  0  0  0  0
 17 18  1  0  0  0  0
 18 19  1  0  0  0  0
 19 20  3  0  0  0  0
M  CHG  1  13   1
M  END
$$$$
s_22____13025516____14930376
  -OEChem-03222016482D

 20 21  0     0  0  0  0  0  0999 V2000
    7.8422   -4.9486    0.0000 C   0  0  0  0  0  0  0  0  0  0  0  0
    6.8641   -4.7407    0.0000 C   0  0  0  0  0  0  0  0  0  0  0  0
    6.5551   -3.7896    0.0000 S   0  0  0  0  0  0  0  0  0  0  0  0
    5.5770   -3.5816    0.0000 C   0  0  0  0  0  0  0  0  0  0  0  0
    5.2680   -2.6306    0.0000 C   0  0  0  0  0  0  0  0  0  0  0  0
    5.9372   -1.8874    0.0000 O   0  0  0  0  0  0  0  0  0  0  0  0
    4.2899   -2.4226    0.0000 N   0  0  0  0  0  0  0  0  0  0  0  0
    3.9809   -1.4715    0.0000 C   0  0  0  0  0  0  0  0  0  0  0  0
    3.0028   -1.2636    0.0000 C   0  0  0  0  0  0  0  0  0  0  0  0
    2.6938   -0.3125    0.0000 C   0  0  0  0  0  0  0  0  0  0  0  0
    3.2858    0.5023    0.0000 C   0  0  0  0  0  0  0  0  0  0  0  0
    2.6938    1.3169    0.0000 N   0  0  0  0  0  0  0  0  0  0  0  0
    1.7360    1.0058    0.0000 C   0  0  0  0  0  0  0  0  0  0  0  0
    1.7360   -0.0012    0.0000 C   0  0  0  0  0  0  0  0  0  0  0  0
    0.8680   -0.4978    0.0000 C   0  0  0  0  0  0  0  0  0  0  0  0
    0.0000    0.0000    0.0000 C   0  0  0  0  0  0  0  0  0  0  0  0
   -0.0000    1.0058    0.0000 C   0  0  0  0  0  0  0  0  0  0  0  0
    0.8680    1.5138    0.0000 C   0  0  0  0  0  0  0  0  0  0  0  0
    0.8675   -1.4978    0.0000 O   0  0  0  0  0  0  0  0  0  0  0  0
    1.7332   -1.9983    0.0000 C   0  0  0  0  0  0  0  0  0  0  0  0
  1  2  1  0  0  0  0
  2  3  1  0  0  0  0
  3  4  1  0  0  0  0
  4  5  1  0  0  0  0
  5  6  2  0  0  0  0
  5  7  1  0  0  0  0
  7  8  1  0  0  0  0
  8  9  1  0  0  0  0
  9 10  1  0  0  0  0
 10 14  1  0  0  0  0
 10 11  2  0  0  0  0
 11 12  1  0  0  0  0
 12 13  1  0  0  0  0
 13 18  2  0  0  0  0
 13 14  1  0  0  0  0
 14 15  2  0  0  0  0
 15 16  1  0  0  0  0
 16 17  2  0  0  0  0
 17 18  1  0  0  0  0
 15 19  1  0  0  0  0
 19 20  1  0  0  0  0
M  END
$$$$
s_22____15506616____15789276
  -OEChem-03222016482D

 21 22  0     0  0  0  0  0  0999 V2000
    1.7340    3.0138    0.0000 C   0  0  0  0  0  0  0  0  0  0  0  0
    0.8680    2.5138    0.0000 O   0  0  0  0  0  0  0  0  0  0  0  0
    0.8680    1.5138    0.0000 C   0  0  0  0  0  0  0  0  0  0  0  0
    0.0000    1.0058    0.0000 C   0  0  0  0  0  0  0  0  0  0  0  0
    0.0000    0.0000    0.0000 C   0  0  0  0  0  0  0  0  0  0  0  0
    0.8680   -0.4978    0.0000 C   0  0  0  0  0  0  0  0  0  0  0  0
    1.7360   -0.0012    0.0000 C   0  0  0  0  0  0  0  0  0  0  0  0
    1.7360    1.0058    0.0000 C   0  0  0  0  0  0  0  0  0  0  0  0
    2.6938    1.3169    0.0000 N   0  0  0  0  0  0  0  0  0  0  0  0
    3.2858    0.5023    0.0000 C   0  0  0  0  0  0  0  0  0  0  0  0
    2.6938   -0.3125    0.0000 C   0  0  0  0  0  0  0  0  0  0  0  0
    3.0028   -1.2636    0.0000 C   0  0  0  0  0  0  0  0  0  0  0  0
    3.9809   -1.4715    0.0000 C   0  0  0  0  0  0  0  0  0  0  0  0
    4.2899   -2.4226    0.0000 N   0  0  0  0  0  0  0  0  0  0  0  0
    5.2680   -2.6306    0.0000 C   0  0  0  0  0  0  0  0  0  0  0  0
    5.9372   -1.8874    0.0000 O   0  0  0  0  0  0  0  0  0  0  0  0
    5.5770   -3.5816    0.0000 C   0  0  0  0  0  0  0  0  0  0  0  0
    6.5551   -3.7896    0.0000 C   0  0  0  0  0  0  0  0  0  0  0  0
    6.8641   -4.7407    0.0000 N   0  0  0  0  0  0  0  0  0  0  0  0
    7.8422   -4.9486    0.0000 N   0  3  0  0  0  0  0  0  0  0  0  0
    8.8204   -5.1566    0.0000 N   0  5  0  0  0  0  0  0  0  0  0  0
  1  2  1  0  0  0  0
  2  3  1  0  0  0  0
  3  8  2  0  0  0  0
  3  4  1  0  0  0  0
  4  5  2  0  0  0  0
  5  6  1  0  0  0  0
  6  7  2  0  0  0  0
  7 11  1  0  0  0  0
  7  8  1  0  0  0  0
  8  9  1  0  0  0  0
  9 10  1  0  0  0  0
 10 11  2  0  0  0  0
 11 12  1  0  0  0  0
 12 13  1  0  0  0  0
 13 14  1  0  0  0  0
 14 15  1  0  0  0  0
 15 16  2  0  0  0  0
 15 17  1  0  0  0  0
 17 18  1  0  0  0  0
 18 19  1  0  0  0  0
 19 20  2  0  0  0  0
 20 21  2  0  0  0  0
M  CHG  2  20   1  21  -1
M  END
$$$$
s_22____4602506____58844
  -OEChem-03222016482D

 17 18  0     0  0  0  0  0  0999 V2000
    1.7340    3.0138    0.0000 C   0  0  0  0  0  0  0  0  0  0  0  0
    0.8680    2.5138    0.0000 C   0  0  0  0  0  0  0  0  0  0  0  0
    0.8680    1.5138    0.0000 C   0  0  0  0  0  0  0  0  0  0  0  0
    0.0000    1.0058    0.0000 C   0  0  0  0  0  0  0  0  0  0  0  0
    0.0000    0.0000    0.0000 C   0  0  0  0  0  0  0  0  0  0  0  0
    0.8680   -0.4978    0.0000 C   0  0  0  0  0  0  0  0  0  0  0  0
    1.7360   -0.0012    0.0000 C   0  0  0  0  0  0  0  0  0  0  0  0
    1.7360    1.0058    0.0000 C   0  0  0  0  0  0  0  0  0  0  0  0
    2.6938    1.3169    0.0000 N   0  0  0  0  0  0  0  0  0  0  0  0
    3.2858    0.5023    0.0000 C   0  0  0  0  0  0  0  0  0  0  0  0
    2.6938   -0.3125    0.0000 C   0  0  0  0  0  0  0  0  0  0  0  0
    3.0028   -1.2636    0.0000 C   0  0  0  0  0  0  0  0  0  0  0  0
    3.9809   -1.4715    0.0000 C   0  0  0  0  0  0  0  0  0  0  0  0
    4.2899   -2.4226    0.0000 N   0  0  0  0  0  0  0  0  0  0  0  0
    5.2680   -2.6306    0.0000 C   0  0  0  0  0  0  0  0  0  0  0  0
    5.9372   -1.8874    0.0000 O   0  0  0  0  0  0  0  0  0  0  0  0
    5.5770   -3.5816    0.0000 C   0  0  0  0  0  0  0  0  0  0  0  0
  1  2  1  0  0  0  0
  2  3  1  0  0  0  0
  3  8  2  0  0  0  0
  3  4  1  0  0  0  0
  4  5  2  0  0  0  0
  5  6  1  0  0  0  0
  6  7  2  0  0  0  0
  7 11  1  0  0  0  0
  7  8  1  0  0  0  0
  8  9  1  0  0  0  0
  9 10  1  0  0  0  0
 10 11  2  0  0  0  0
 11 12  1  0  0  0  0
 12 13  1  0  0  0  0
 13 14  1  0  0  0  0
 14 15  1  0  0  0  0
 15 16  2  0  0  0  0
 15 17  1  0  0  0  0
M  END
$$$$
s_22____15506616____14930376
  -OEChem-03222016482D

 20 21  0     0  0  0  0  0  0999 V2000
    1.2530   -7.0892    0.0000 C   0  0  0  0  0  0  0  0  0  0  0  0
    1.9222   -6.3461    0.0000 C   0  0  0  0  0  0  0  0  0  0  0  0
    1.6132   -5.3951    0.0000 S   0  0  0  0  0  0  0  0  0  0  0  0
    2.2824   -4.6519    0.0000 C   0  0  0  0  0  0  0  0  0  0  0  0
    1.9734   -3.7009    0.0000 C   0  0  0  0  0  0  0  0  0  0  0  0
    0.9953   -3.4929    0.0000 O   0  0  0  0  0  0  0  0  0  0  0  0
    2.6426   -2.9578    0.0000 N   0  0  0  0  0  0  0  0  0  0  0  0
    2.3336   -2.0067    0.0000 C   0  0  0  0  0  0  0  0  0  0  0  0
    3.0028   -1.2636    0.0000 C   0  0  0  0  0  0  0  0  0  0  0  0
    2.6938   -0.3125    0.0000 C   0  0  0  0  0  0  0  0  0  0  0  0
    3.2858    0.5023    0.0000 C   0  0  0  0  0  0  0  0  0  0  0  0
    2.6938    1.3169    0.0000 N   0  0  0  0  0  0  0  0  0  0  0  0
    1.7360    1.0058    0.0000 C   0  0  0  0  0  0  0  0  0  0  0  0
    1.7360   -0.0012    0.0000 C   0  0  0  0  0  0  0  0  0  0  0  0
    0.8680   -0.4978    0.0000 C   0  0  0  0  0  0  0  0  0  0  0  0
    0.0000    0.0000    0.0000 C   0  0  0  0  0  0  0  0  0  0  0  0
   -0.0000    1.0058    0.0000 C   0  0  0  0  0  0  0  0  0  0  0  0
    0.8680    1.5138    0.0000 C   0  0  0  0  0  0  0  0  0  0  0  0
    0.8680    2.5138    0.0000 O   0  0  0  0  0  0  0  0  0  0  0  0
    0.0020    3.0138    0.0000 C   0  0  0  0  0  0  0  0  0  0  0  0
  1  2  1  0  0  0  0
  2  3  1  0  0  0  0
  3  4  1  0  0  0  0
  4  5  1  0  0  0  0
  5  6  2  0  0  0  0
  5  7  1  0  0  0  0
  7  8  1  0  0  0  0
  8  9  1  0  0  0  0
  9 10  1  0  0  0  0
 10 14  1  0  0  0  0
 10 11  2  0  0  0  0
 11 12  1  0  0  0  0
 12 13  1  0  0  0  0
 13 18  2  0  0  0  0
 13 14  1  0  0  0  0
 14 15  2  0  0  0  0
 15 16  1  0  0  0  0
 16 17  2  0  0  0  0
 17 18  1  0  0  0  0
 18 19  1  0  0  0  0
 19 20  1  0  0  0  0
M  END
$$$$
s_2554____13025538____788524
  -OEChem-03222016482D

 17 18  0     0  0  0  0  0  0999 V2000
    0.0012   -1.9973    0.0000 C   0  0  0  0  0  0  0  0  0  0  0  0
    0.8675   -1.4978    0.0000 O   0  0  0  0  0  0  0  0  0  0  0  0
    0.8680   -0.4978    0.0000 C   0  0  0  0  0  0  0  0  0  0  0  0
    0.0000    0.0000    0.0000 C   0  0  0  0  0  0  0  0  0  0  0  0
   -0.0000    1.0058    0.0000 C   0  0  0  0  0  0  0  0  0  0  0  0
    0.8680    1.5138    0.0000 C   0  0  0  0  0  0  0  0  0  0  0  0
    1.7360    1.0058    0.0000 C   0  0  0  0  0  0  0  0  0  0  0  0
    1.7360   -0.0012    0.0000 C   0  0  0  0  0  0  0  0  0  0  0  0
    2.6938   -0.3125    0.0000 C   0  0  0  0  0  0  0  0  0  0  0  0
    3.2858    0.5023    0.0000 C   0  0  0  0  0  0  0  0  0  0  0  0
    2.6938    1.3169    0.0000 N   0  0  0  0  0  0  0  0  0  0  0  0
    3.0028   -1.2636    0.0000 C   0  0  0  0  0  0  0  0  0  0  0  0
    3.9809   -1.4715    0.0000 C   0  0  0  0  0  0  0  0  0  0  0  0
    4.2899   -2.4226    0.0000 N   0  0  0  0  0  0  0  0  0  0  0  0
    5.2680   -2.6306    0.0000 C   0  0  0  0  0  0  0  0  0  0  0  0
    5.9372   -1.8874    0.0000 O   0  0  0  0  0  0  0  0  0  0  0  0
    5.5770   -3.5816    0.0000 N   0  0  0  0  0  0  0  0  0  0  0  0
  1  2  1  0  0  0  0
  2  3  1  0  0  0  0
  3  8  2  0  0  0  0
  3  4  1  0  0  0  0
  4  5  2  0  0  0  0
  5  6  1  0  0  0  0
  6  7  2  0  0  0  0
  7 11  1  0  0  0  0
  7  8  1  0  0  0  0
  8  9  1  0  0  0  0
  9 10  2  0  0  0  0
 10 11  1  0  0  0  0
  9 12  1  0  0  0  0
 12 13  1  0  0  0  0
 13 14  1  0  0  0  0
 14 15  1  0  0  0  0
 15 16  2  0  0  0  0
 15 17  1  0  0  0  0
M  END
$$$$
s_22____13025516____9156240
  -OEChem-03222016482D

 21 22  0     1  0  0  0  0  0999 V2000
    6.8641   -4.7407    0.0000 C   0  0  0  0  0  0  0  0  0  0  0  0
    6.5551   -3.7896    0.0000 C   0  0  0  0  0  0  0  0  0  0  0  0
    7.2243   -3.0465    0.0000 C   0  0  0  0  0  0  0  0  0  0  0  0
    5.5770   -3.5816    0.0000 C   0  0  3  0  0  0  0  0  0  0  0  0
    5.2680   -2.6306    0.0000 C   0  0  0  0  0  0  0  0  0  0  0  0
    5.9372   -1.8874    0.0000 O   0  0  0  0  0  0  0  0  0  0  0  0
    4.2899   -2.4226    0.0000 N   0  0  0  0  0  0  0  0  0  0  0  0
    3.9809   -1.4715    0.0000 C   0  0  0  0  0  0  0  0  0  0  0  0
    3.0028   -1.2636    0.0000 C   0  0  0  0  0  0  0  0  0  0  0  0
    2.6938   -0.3125    0.0000 C   0  0  0  0  0  0  0  0  0  0  0  0
    3.2858    0.5023    0.0000 C   0  0  0  0  0  0  0  0  0  0  0  0
    2.6938    1.3169    0.0000 N   0  0  0  0  0  0  0  0  0  0  0  0
    1.7360    1.0058    0.0000 C   0  0  0  0  0  0  0  0  0  0  0  0
    1.7360   -0.0012    0.0000 C   0  0  0  0  0  0  0  0  0  0  0  0
    0.8680   -0.4978    0.0000 C   0  0  0  0  0  0  0  0  0  0  0  0
    0.0000    0.0000    0.0000 C   0  0  0  0  0  0  0  0  0  0  0  0
   -0.0000    1.0058    0.0000 C   0  0  0  0  0  0  0  0  0  0  0  0
    0.8680    1.5138    0.0000 C   0  0  0  0  0  0  0  0  0  0  0  0
    0.8675   -1.4978    0.0000 O   0  0  0  0  0  0  0  0  0  0  0  0
    1.7332   -1.9983    0.0000 C   0  0  0  0  0  0  0  0  0  0  0  0
    4.9078   -4.3247    0.0000 F   0  0  0  0  0  0  0  0  0  0  0  0
  1  2  1  0  0  0  0
  2  3  1  0  0  0  0
  2  4  1  0  0  0  0
  4  5  1  0  0  0  0
  5  6  2  0  0  0  0
  5  7  1  0  0  0  0
  7  8  1  0  0  0  0
  8  9  1  0  0  0  0
  9 10  1  0  0  0  0
 10 14  1  0  0  0  0
 10 11  2  0  0  0  0
 11 12  1  0  0  0  0
 12 13  1  0  0  0  0
 13 18  2  0  0  0  0
 13 14  1  0  0  0  0
 14 15  2  0  0  0  0
 15 16  1  0  0  0  0
 16 17  2  0  0  0  0
 17 18  1  0  0  0  0
 15 19  1  0  0  0  0
 19 20  1  0  0  0  0
  4 21  1  0  0  0  0
M  END
$$$$
s_270062____16435464____8147258
  -OEChem-03222016482D

 17 18  0     0  0  0  0  0  0999 V2000
    0.0000    0.0000    0.0000 C   0  0  0  0  0  0  0  0  0  0  0  0
    0.8780    0.4964    0.0000 C   0  0  0  0  0  0  0  0  0  0  0  0
    1.8332    0.1849    0.0000 C   0  0  0  0  0  0  0  0  0  0  0  0
    2.4247    0.9971    0.0000 C   0  0  0  0  0  0  0  0  0  0  0  0
    1.8349    1.8105    0.0000 N   0  0  0  0  0  0  0  0  0  0  0  0
    0.8791    1.5011    0.0000 C   0  0  0  0  0  0  0  0  0  0  0  0
    0.0101    2.0110    0.0000 C   0  0  0  0  0  0  0  0  0  0  0  0
   -0.8584    1.5098    0.0000 N   0  0  0  0  0  0  0  0  0  0  0  0
   -0.8635    0.5043    0.0000 C   0  0  0  0  0  0  0  0  0  0  0  0
   -1.7320    0.0087    0.0000 Cl  0  0  0  0  0  0  0  0  0  0  0  0
    2.1412   -0.7665    0.0000 C   0  0  0  0  0  0  0  0  0  0  0  0
    3.1191   -0.9755    0.0000 C   0  0  0  0  0  0  0  0  0  0  0  0
    3.4271   -1.9269    0.0000 N   0  0  0  0  0  0  0  0  0  0  0  0
    4.4050   -2.1359    0.0000 C   0  0  0  0  0  0  0  0  0  0  0  0
    5.0749   -1.3935    0.0000 O   0  0  0  0  0  0  0  0  0  0  0  0
    4.7129   -3.0873    0.0000 C   0  0  0  0  0  0  0  0  0  0  0  0
    5.6909   -3.2963    0.0000 Cl  0  0  0  0  0  0  0  0  0  0  0  0
  1  9  2  0  0  0  0
  1  2  1  0  0  0  0
  2  6  2  0  0  0  0
  2  3  1  0  0  0  0
  3  4  2  0  0  0  0
  4  5  1  0  0  0  0
  5  6  1  0  0  0  0
  6  7  1  0  0  0  0
  7  8  2  0  0  0  0
  8  9  1  0  0  0  0
  9 10  1  0  0  0  0
  3 11  1  0  0  0  0
 11 12  1  0  0  0  0
 12 13  1  0  0  0  0
 13 14  1  0  0  0  0
 14 15  2  0  0  0  0
 14 16  1  0  0  0  0
 16 17  1  0  0  0  0
M  END
$$$$
s_22____13913040____60364
  -OEChem-03222016482D

 19 20  0     1  0  0  0  0  0999 V2000
    1.3555   -1.7987    0.0000 C   0  0  0  0  0  0  0  0  0  0  0  0
    2.3336   -2.0067    0.0000 C   0  0  3  0  0  0  0  0  0  0  0  0
    3.0028   -1.2636    0.0000 C   0  0  0  0  0  0  0  0  0  0  0  0
    2.6938   -0.3125    0.0000 C   0  0  0  0  0  0  0  0  0  0  0  0
    3.2858    0.5023    0.0000 C   0  0  0  0  0  0  0  0  0  0  0  0
    2.6938    1.3169    0.0000 N   0  0  0  0  0  0  0  0  0  0  0  0
    1.7360    1.0058    0.0000 C   0  0  0  0  0  0  0  0  0  0  0  0
    1.7360   -0.0012    0.0000 C   0  0  0  0  0  0  0  0  0  0  0  0
    0.8680   -0.4978    0.0000 C   0  0  0  0  0  0  0  0  0  0  0  0
    0.0000    0.0000    0.0000 C   0  0  0  0  0  0  0  0  0  0  0  0
   -0.0000    1.0058    0.0000 C   0  0  0  0  0  0  0  0  0  0  0  0
    0.8680    1.5138    0.0000 C   0  0  0  0  0  0  0  0  0  0  0  0
   -0.8653   -0.5013    0.0000 F   0  0  0  0  0  0  0  0  0  0  0  0
    2.6426   -2.9578    0.0000 N   0  0  0  0  0  0  0  0  0  0  0  0
    1.9734   -3.7009    0.0000 C   0  0  0  0  0  0  0  0  0  0  0  0
    0.9953   -3.4929    0.0000 O   0  0  0  0  0  0  0  0  0  0  0  0
    2.2824   -4.6519    0.0000 C   0  0  0  0  0  0  0  0  0  0  0  0
    1.6132   -5.3951    0.0000 S   0  0  0  0  0  0  0  0  0  0  0  0
    1.9222   -6.3461    0.0000 C   0  0  0  0  0  0  0  0  0  0  0  0
  1  2  1  0  0  0  0
  2  3  1  0  0  0  0
  3  4  1  0  0  0  0
  4  8  1  0  0  0  0
  4  5  2  0  0  0  0
  5  6  1  0  0  0  0
  6  7  1  0  0  0  0
  7 12  2  0  0  0  0
  7  8  1  0  0  0  0
  8  9  2  0  0  0  0
  9 10  1  0  0  0  0
 10 11  2  0  0  0  0
 11 12  1  0  0  0  0
 10 13  1  0  0  0  0
  2 14  1  0  0  0  0
 14 15  1  0  0  0  0
 15 16  2  0  0  0  0
 15 17  1  0  0  0  0
 17 18  1  0  0  0  0
 18 19  1  0  0  0  0
M  END
$$$$
s_22____13978824____10748158
  -OEChem-03222016482D

 21 22  0     0  0  0  0  0  0999 V2000
   -0.8705    2.5032    0.0000 C   0  0  0  0  0  0  0  0  0  0  0  0
   -0.8675    1.5032    0.0000 O   0  0  0  0  0  0  0  0  0  0  0  0
    0.0000    1.0058    0.0000 C   0  0  0  0  0  0  0  0  0  0  0  0
    0.0000    0.0000    0.0000 C   0  0  0  0  0  0  0  0  0  0  0  0
    0.8680   -0.4978    0.0000 C   0  0  0  0  0  0  0  0  0  0  0  0
    1.7360   -0.0012    0.0000 C   0  0  0  0  0  0  0  0  0  0  0  0
    1.7360    1.0058    0.0000 C   0  0  0  0  0  0  0  0  0  0  0  0
    0.8680    1.5138    0.0000 C   0  0  0  0  0  0  0  0  0  0  0  0
    2.6938    1.3169    0.0000 N   0  0  0  0  0  0  0  0  0  0  0  0
    3.2858    0.5023    0.0000 C   0  0  0  0  0  0  0  0  0  0  0  0
    2.6938   -0.3125    0.0000 C   0  0  0  0  0  0  0  0  0  0  0  0
    3.0028   -1.2636    0.0000 C   0  0  0  0  0  0  0  0  0  0  0  0
    3.9809   -1.4715    0.0000 C   0  0  0  0  0  0  0  0  0  0  0  0
    4.2899   -2.4226    0.0000 N   0  0  0  0  0  0  0  0  0  0  0  0
    5.2680   -2.6306    0.0000 C   0  0  0  0  0  0  0  0  0  0  0  0
    5.9372   -1.8874    0.0000 O   0  0  0  0  0  0  0  0  0  0  0  0
    5.5770   -3.5816    0.0000 C   0  0  0  0  0  0  0  0  0  0  0  0
    6.5551   -3.7896    0.0000 S   0  0  0  0  0  0  0  0  0  0  0  0
    6.8641   -4.7407    0.0000 C   0  0  0  0  0  0  0  0  0  0  0  0
    7.8422   -4.9486    0.0000 F   0  0  0  0  0  0  0  0  0  0  0  0
    6.1949   -5.4838    0.0000 F   0  0  0  0  0  0  0  0  0  0  0  0
  1  2  1  0  0  0  0
  2  3  1  0  0  0  0
  3  8  2  0  0  0  0
  3  4  1  0  0  0  0
  4  5  2  0  0  0  0
  5  6  1  0  0  0  0
  6 11  1  0  0  0  0
  6  7  2  0  0  0  0
  7  8  1  0  0  0  0
  7  9  1  0  0  0  0
  9 10  1  0  0  0  0
 10 11  2  0  0  0  0
 11 12  1  0  0  0  0
 12 13  1  0  0  0  0
 13 14  1  0  0  0  0
 14 15  1  0  0  0  0
 15 16  2  0  0  0  0
 15 17  1  0  0  0  0
 17 18  1  0  0  0  0
 18 19  1  0  0  0  0
 19 20  1  0  0  0  0
 19 21  1  0  0  0  0
M  END
$$$$
s_8____13978820____83696
  -OEChem-03222016482D

 19 20  0     0  0  0  0  0  0999 V2000
    6.8641   -4.7407    0.0000 C   0  0  0  0  0  0  0  0  0  0  0  0
    6.5551   -3.7896    0.0000 C   0  0  0  0  0  0  0  0  0  0  0  0
    5.5770   -3.5816    0.0000 N   0  0  0  0  0  0  0  0  0  0  0  0
    5.2680   -2.6306    0.0000 C   0  0  0  0  0  0  0  0  0  0  0  0
    5.9372   -1.8874    0.0000 S   0  0  0  0  0  0  0  0  0  0  0  0
    4.2899   -2.4226    0.0000 N   0  0  0  0  0  0  0  0  0  0  0  0
    3.9809   -1.4715    0.0000 C   0  0  0  0  0  0  0  0  0  0  0  0
    3.0028   -1.2636    0.0000 C   0  0  0  0  0  0  0  0  0  0  0  0
    2.6938   -0.3125    0.0000 C   0  0  0  0  0  0  0  0  0  0  0  0
    3.2858    0.5023    0.0000 C   0  0  0  0  0  0  0  0  0  0  0  0
    2.6938    1.3169    0.0000 N   0  0  0  0  0  0  0  0  0  0  0  0
    1.7360    1.0058    0.0000 C   0  0  0  0  0  0  0  0  0  0  0  0
    1.7360   -0.0012    0.0000 C   0  0  0  0  0  0  0  0  0  0  0  0
    0.8680   -0.4978    0.0000 C   0  0  0  0  0  0  0  0  0  0  0  0
    0.0000    0.0000    0.0000 C   0  0  0  0  0  0  0  0  0  0  0  0
   -0.0000    1.0058    0.0000 C   0  0  0  0  0  0  0  0  0  0  0  0
    0.8680    1.5138    0.0000 C   0  0  0  0  0  0  0  0  0  0  0  0
   -0.8675    1.5032    0.0000 O   0  0  0  0  0  0  0  0  0  0  0  0
   -1.7320    1.0007    0.0000 C   0  0  0  0  0  0  0  0  0  0  0  0
  1  2  1  0  0  0  0
  2  3  1  0  0  0  0
  3  4  1  0  0  0  0
  4  5  2  0  0  0  0
  4  6  1  0  0  0  0
  6  7  1  0  0  0  0
  7  8  1  0  0  0  0
  8  9  1  0  0  0  0
  9 13  1  0  0  0  0
  9 10  2  0  0  0  0
 10 11  1  0  0  0  0
 11 12  1  0  0  0  0
 12 17  2  0  0  0  0
 12 13  1  0  0  0  0
 13 14  2  0  0  0  0
 14 15  1  0  0  0  0
 15 16  2  0  0  0  0
 16 17  1  0  0  0  0
 16 18  1  0  0  0  0
 18 19  1  0  0  0  0
M  END
$$$$
s_22____2366540____60364
  -OEChem-03222016482D

 18 19  0     0  0  0  0  0  0999 V2000
    6.8641   -4.7407    0.0000 C   0  0  0  0  0  0  0  0  0  0  0  0
    6.5551   -3.7896    0.0000 S   0  0  0  0  0  0  0  0  0  0  0  0
    5.5770   -3.5816    0.0000 C   0  0  0  0  0  0  0  0  0  0  0  0
    5.2680   -2.6306    0.0000 C   0  0  0  0  0  0  0  0  0  0  0  0
    5.9372   -1.8874    0.0000 O   0  0  0  0  0  0  0  0  0  0  0  0
    4.2899   -2.4226    0.0000 N   0  0  0  0  0  0  0  0  0  0  0  0
    3.9809   -1.4715    0.0000 C   0  0  0  0  0  0  0  0  0  0  0  0
    3.0028   -1.2636    0.0000 C   0  0  0  0  0  0  0  0  0  0  0  0
    2.6938   -0.3125    0.0000 C   0  0  0  0  0  0  0  0  0  0  0  0
    3.2858    0.5023    0.0000 C   0  0  0  0  0  0  0  0  0  0  0  0
    2.6938    1.3169    0.0000 N   0  0  0  0  0  0  0  0  0  0  0  0
    1.7360    1.0058    0.0000 C   0  0  0  0  0  0  0  0  0  0  0  0
    1.7360   -0.0012    0.0000 C   0  0  0  0  0  0  0  0  0  0  0  0
    0.8680   -0.4978    0.0000 C   0  0  0  0  0  0  0  0  0  0  0  0
    0.0000    0.0000    0.0000 C   0  0  0  0  0  0  0  0  0  0  0  0
   -0.0000    1.0058    0.0000 C   0  0  0  0  0  0  0  0  0  0  0  0
    0.8680    1.5138    0.0000 C   0  0  0  0  0  0  0  0  0  0  0  0
   -0.8675    1.5032    0.0000 F   0  0  0  0  0  0  0  0  0  0  0  0
  1  2  1  0  0  0  0
  2  3  1  0  0  0  0
  3  4  1  0  0  0  0
  4  5  2  0  0  0  0
  4  6  1  0  0  0  0
  6  7  1  0  0  0  0
  7  8  1  0  0  0  0
  8  9  1  0  0  0  0
  9 13  1  0  0  0  0
  9 10  2  0  0  0  0
 10 11  1  0  0  0  0
 11 12  1  0  0  0  0
 12 17  2  0  0  0  0
 12 13  1  0  0  0  0
 13 14  2  0  0  0  0
 14 15  1  0  0  0  0
 15 16  2  0  0  0  0
 16 17  1  0  0  0  0
 16 18  1  0  0  0  0
M  END
$$$$
s_22____13570824____58887
  -OEChem-03222016482D

 17 18  0     0  0  0  0  0  0999 V2000
    0.7473   -4.8965    0.0000 C   0  0  0  0  0  0  0  0  0  0  0  0
    1.4172   -4.1541    0.0000 C   0  0  0  0  0  0  0  0  0  0  0  0
    1.1092   -3.2027    0.0000 C   0  0  0  0  0  0  0  0  0  0  0  0
    0.1313   -2.9937    0.0000 O   0  0  0  0  0  0  0  0  0  0  0  0
    1.7792   -2.4603    0.0000 N   0  0  0  0  0  0  0  0  0  0  0  0
    1.4712   -1.5089    0.0000 C   0  0  0  0  0  0  0  0  0  0  0  0
    2.1412   -0.7665    0.0000 C   0  0  0  0  0  0  0  0  0  0  0  0
    1.8332    0.1849    0.0000 C   0  0  0  0  0  0  0  0  0  0  0  0
    2.4247    0.9971    0.0000 C   0  0  0  0  0  0  0  0  0  0  0  0
    1.8349    1.8105    0.0000 N   0  0  0  0  0  0  0  0  0  0  0  0
    0.8791    1.5011    0.0000 C   0  0  0  0  0  0  0  0  0  0  0  0
    0.8780    0.4964    0.0000 C   0  0  0  0  0  0  0  0  0  0  0  0
    0.0000    0.0000    0.0000 C   0  0  0  0  0  0  0  0  0  0  0  0
   -0.8635    0.5043    0.0000 C   0  0  0  0  0  0  0  0  0  0  0  0
   -0.8584    1.5098    0.0000 N   0  0  0  0  0  0  0  0  0  0  0  0
    0.0101    2.0110    0.0000 C   0  0  0  0  0  0  0  0  0  0  0  0
   -1.7320    0.0087    0.0000 Cl  0  0  0  0  0  0  0  0  0  0  0  0
  1  2  1  0  0  0  0
  2  3  1  0  0  0  0
  3  4  2  0  0  0  0
  3  5  1  0  0  0  0
  5  6  1  0  0  0  0
  6  7  1  0  0  0  0
  7  8  1  0  0  0  0
  8 12  1  0  0  0  0
  8  9  2  0  0  0  0
  9 10  1  0  0  0  0
 10 11  1  0  0  0  0
 11 16  2  0  0  0  0
 11 12  1  0  0  0  0
 12 13  2  0  0  0  0
 13 14  1  0  0  0  0
 14 15  2  0  0  0  0
 15 16  1  0  0  0  0
 14 17  1  0  0  0  0
M  END
$$$$
s_240690b____13978894____13151248
  -OEChem-03222016482D

 19 20  0     0  0  0  0  0  0999 V2000
   -0.8705    2.5032    0.0000 C   0  0  0  0  0  0  0  0  0  0  0  0
   -0.8675    1.5032    0.0000 O   0  0  0  0  0  0  0  0  0  0  0  0
    0.0000    1.0058    0.0000 C   0  0  0  0  0  0  0  0  0  0  0  0
    0.0000    0.0000    0.0000 C   0  0  0  0  0  0  0  0  0  0  0  0
    0.8680   -0.4978    0.0000 C   0  0  0  0  0  0  0  0  0  0  0  0
    1.7360   -0.0012    0.0000 C   0  0  0  0  0  0  0  0  0  0  0  0
    1.7360    1.0058    0.0000 C   0  0  0  0  0  0  0  0  0  0  0  0
    0.8680    1.5138    0.0000 C   0  0  0  0  0  0  0  0  0  0  0  0
    2.6938    1.3169    0.0000 N   0  0  0  0  0  0  0  0  0  0  0  0
    3.2858    0.5023    0.0000 C   0  0  0  0  0  0  0  0  0  0  0  0
    2.6938   -0.3125    0.0000 C   0  0  0  0  0  0  0  0  0  0  0  0
    3.0028   -1.2636    0.0000 C   0  0  0  0  0  0  0  0  0  0  0  0
    3.9809   -1.4715    0.0000 C   0  0  0  0  0  0  0  0  0  0  0  0
    4.2899   -2.4226    0.0000 N   0  0  0  0  0  0  0  0  0  0  0  0
    5.2680   -2.6306    0.0000 C   0  0  0  0  0  0  0  0  0  0  0  0
    5.9372   -1.8874    0.0000 O   0  0  0  0  0  0  0  0  0  0  0  0
    5.5770   -3.5816    0.0000 C   0  0  0  0  0  0  0  0  0  0  0  0
    6.5551   -3.7896    0.0000 O   0  0  0  0  0  0  0  0  0  0  0  0
    6.8641   -4.7407    0.0000 N   0  0  0  0  0  0  0  0  0  0  0  0
  1  2  1  0  0  0  0
  2  3  1  0  0  0  0
  3  8  2  0  0  0  0
  3  4  1  0  0  0  0
  4  5  2  0  0  0  0
  5  6  1  0  0  0  0
  6 11  1  0  0  0  0
  6  7  2  0  0  0  0
  7  8  1  0  0  0  0
  7  9  1  0  0  0  0
  9 10  1  0  0  0  0
 10 11  2  0  0  0  0
 11 12  1  0  0  0  0
 12 13  1  0  0  0  0
 13 14  1  0  0  0  0
 14 15  1  0  0  0  0
 15 16  2  0  0  0  0
 15 17  1  0  0  0  0
 17 18  1  0  0  0  0
 18 19  1  0  0  0  0
M  END
$$$$
s_22____15144084____8794444
  -OEChem-03222016482D

 19 20  0     0  0  0  0  0  0999 V2000
    0.8680    1.5138    0.0000 C   0  0  0  0  0  0  0  0  0  0  0  0
    0.0000    1.0058    0.0000 C   0  0  0  0  0  0  0  0  0  0  0  0
    0.0000    0.0000    0.0000 C   0  0  0  0  0  0  0  0  0  0  0  0
    0.8680   -0.4978    0.0000 C   0  0  0  0  0  0  0  0  0  0  0  0
    1.7360   -0.0012    0.0000 C   0  0  0  0  0  0  0  0  0  0  0  0
    1.7360    1.0058    0.0000 C   0  0  0  0  0  0  0  0  0  0  0  0
    2.6938    1.3169    0.0000 N   0  0  0  0  0  0  0  0  0  0  0  0
    3.2858    0.5023    0.0000 C   0  0  0  0  0  0  0  0  0  0  0  0
    2.6938   -0.3125    0.0000 C   0  0  0  0  0  0  0  0  0  0  0  0
    3.0028   -1.2636    0.0000 C   0  0  0  0  0  0  0  0  0  0  0  0
    3.9809   -1.4715    0.0000 C   0  0  0  0  0  0  0  0  0  0  0  0
    4.2899   -2.4226    0.0000 N   0  0  0  0  0  0  0  0  0  0  0  0
    5.2680   -2.6306    0.0000 C   0  0  0  0  0  0  0  0  0  0  0  0
    5.9372   -1.8874    0.0000 O   0  0  0  0  0  0  0  0  0  0  0  0
    5.5770   -3.5816    0.0000 C   0  0  0  0  0  0  0  0  0  0  0  0
    6.5551   -3.7896    0.0000 C   0  0  0  0  0  0  0  0  0  0  0  0
    7.5333   -3.9976    0.0000 N   0  0  0  0  0  0  0  0  0  0  0  0
    0.8675   -1.4978    0.0000 F   0  0  0  0  0  0  0  0  0  0  0  0
   -0.8675    1.5032    0.0000 F   0  0  0  0  0  0  0  0  0  0  0  0
  1  6  2  0  0  0  0
  1  2  1  0  0  0  0
  2  3  2  0  0  0  0
  3  4  1  0  0  0  0
  4  5  2  0  0  0  0
  5  9  1  0  0  0  0
  5  6  1  0  0  0  0
  6  7  1  0  0  0  0
  7  8  1  0  0  0  0
  8  9  2  0  0  0  0
  9 10  1  0  0  0  0
 10 11  1  0  0  0  0
 11 12  1  0  0  0  0
 12 13  1  0  0  0  0
 13 14  2  0  0  0  0
 13 15  1  0  0  0  0
 15 16  1  0  0  0  0
 16 17  3  0  0  0  0
  4 18  1  0  0  0  0
  2 19  1  0  0  0  0
M  END
$$$$
s_22____15506616____15498218
  -OEChem-03222016482D

 21 22  0     0  0  0  0  0  0999 V2000
    1.7340    3.0138    0.0000 C   0  0  0  0  0  0  0  0  0  0  0  0
    0.8680    2.5138    0.0000 O   0  0  0  0  0  0  0  0  0  0  0  0
    0.8680    1.5138    0.0000 C   0  0  0  0  0  0  0  0  0  0  0  0
    0.0000    1.0058    0.0000 C   0  0  0  0  0  0  0  0  0  0  0  0
    0.0000    0.0000    0.0000 C   0  0  0  0  0  0  0  0  0  0  0  0
    0.8680   -0.4978    0.0000 C   0  0  0  0  0  0  0  0  0  0  0  0
    1.7360   -0.0012    0.0000 C   0  0  0  0  0  0  0  0  0  0  0  0
    1.7360    1.0058    0.0000 C   0  0  0  0  0  0  0  0  0  0  0  0
    2.6938    1.3169    0.0000 N   0  0  0  0  0  0  0  0  0  0  0  0
    3.2858    0.5023    0.0000 C   0  0  0  0  0  0  0  0  0  0  0  0
    2.6938   -0.3125    0.0000 C   0  0  0  0  0  0  0  0  0  0  0  0
    3.0028   -1.2636    0.0000 C   0  0  0  0  0  0  0  0  0  0  0  0
    3.9809   -1.4715    0.0000 C   0  0  0  0  0  0  0  0  0  0  0  0
    4.2899   -2.4226    0.0000 N   0  0  0  0  0  0  0  0  0  0  0  0
    5.2680   -2.6306    0.0000 C   0  0  0  0  0  0  0  0  0  0  0  0
    5.9372   -1.8874    0.0000 O   0  0  0  0  0  0  0  0  0  0  0  0
    5.5770   -3.5816    0.0000 C   0  0  0  0  0  0  0  0  0  0  0  0
    6.5551   -3.7896    0.0000 O   0  0  0  0  0  0  0  0  0  0  0  0
    6.8641   -4.7407    0.0000 C   0  0  0  0  0  0  0  0  0  0  0  0
    7.8422   -4.9486    0.0000 C   0  0  0  0  0  0  0  0  0  0  0  0
    8.8204   -5.1566    0.0000 C   0  0  0  0  0  0  0  0  0  0  0  0
  1  2  1  0  0  0  0
  2  3  1  0  0  0  0
  3  8  2  0  0  0  0
  3  4  1  0  0  0  0
  4  5  2  0  0  0  0
  5  6  1  0  0  0  0
  6  7  2  0  0  0  0
  7 11  1  0  0  0  0
  7  8  1  0  0  0  0
  8  9  1  0  0  0  0
  9 10  1  0  0  0  0
 10 11  2  0  0  0  0
 11 12  1  0  0  0  0
 12 13  1  0  0  0  0
 13 14  1  0  0  0  0
 14 15  1  0  0  0  0
 15 16  2  0  0  0  0
 15 17  1  0  0  0  0
 17 18  1  0  0  0  0
 18 19  1  0  0  0  0
 19 20  1  0  0  0  0
 20 21  3  0  0  0  0
M  END
$$$$
s_22____7533902____58866
  -OEChem-03222016482D

 17 18  0     0  0  0  0  0  0999 V2000
    8.7856    3.1007    0.0000 C   0  0  0  0  0  0  0  0  0  0  0  0
    7.7856    3.1006    0.0000 C   0  0  0  0  0  0  0  0  0  0  0  0
    7.2857    2.2346    0.0000 C   0  0  0  0  0  0  0  0  0  0  0  0
    6.2857    2.2345    0.0000 C   0  0  0  0  0  0  0  0  0  0  0  0
    5.7856    3.1005    0.0000 O   0  0  0  0  0  0  0  0  0  0  0  0
    5.7857    1.3685    0.0000 N   0  0  0  0  0  0  0  0  0  0  0  0
    4.7857    1.3684    0.0000 C   0  0  0  0  0  0  0  0  0  0  0  0
    4.2858    0.5024    0.0000 C   0  0  0  0  0  0  0  0  0  0  0  0
    3.2858    0.5023    0.0000 C   0  0  0  0  0  0  0  0  0  0  0  0
    2.6938   -0.3125    0.0000 C   0  0  0  0  0  0  0  0  0  0  0  0
    1.7360   -0.0012    0.0000 C   0  0  0  0  0  0  0  0  0  0  0  0
    0.8680   -0.4978    0.0000 C   0  0  0  0  0  0  0  0  0  0  0  0
    0.0000    0.0000    0.0000 C   0  0  0  0  0  0  0  0  0  0  0  0
    0.0000    1.0058    0.0000 C   0  0  0  0  0  0  0  0  0  0  0  0
    0.8680    1.5138    0.0000 C   0  0  0  0  0  0  0  0  0  0  0  0
    1.7360    1.0058    0.0000 C   0  0  0  0  0  0  0  0  0  0  0  0
    2.6938    1.3169    0.0000 N   0  0  0  0  0  0  0  0  0  0  0  0
  1  2  1  0  0  0  0
  2  3  1  0  0  0  0
  3  4  1  0  0  0  0
  4  5  2  0  0  0  0
  4  6  1  0  0  0  0
  6  7  1  0  0  0  0
  7  8  1  0  0  0  0
  8  9  1  0  0  0  0
  9 17  1  0  0  0  0
  9 10  2  0  0  0  0
 10 11  1  0  0  0  0
 11 16  2  0  0  0  0
 11 12  1  0  0  0  0
 12 13  2  0  0  0  0
 13 14  1  0  0  0  0
 14 15  2  0  0  0  0
 15 16  1  0  0  0  0
 16 17  1  0  0  0  0
M  END
$$$$
EN300-202601
  -OEChem-03222016482D

 14 15  0     0  0  0  0  0  0999 V2000
   -0.8705    2.5032    0.0000 C   0  0  0  0  0  0  0  0  0  0  0  0
   -0.8675    1.5032    0.0000 O   0  0  0  0  0  0  0  0  0  0  0  0
    0.0000    1.0058    0.0000 C   0  0  0  0  0  0  0  0  0  0  0  0
    0.0000    0.0000    0.0000 C   0  0  0  0  0  0  0  0  0  0  0  0
    0.8680   -0.4978    0.0000 C   0  0  0  0  0  0  0  0  0  0  0  0
    1.7360   -0.0012    0.0000 C   0  0  0  0  0  0  0  0  0  0  0  0
    1.7360    1.0058    0.0000 C   0  0  0  0  0  0  0  0  0  0  0  0
    0.8680    1.5138    0.0000 C   0  0  0  0  0  0  0  0  0  0  0  0
    2.6938    1.3169    0.0000 N   0  0  0  0  0  0  0  0  0  0  0  0
    3.2858    0.5023    0.0000 C   0  0  0  0  0  0  0  0  0  0  0  0
    2.6938   -0.3125    0.0000 C   0  0  0  0  0  0  0  0  0  0  0  0
    3.0028   -1.2636    0.0000 C   0  0  0  0  0  0  0  0  0  0  0  0
    3.9809   -1.4715    0.0000 C   0  0  0  0  0  0  0  0  0  0  0  0
    4.2899   -2.4226    0.0000 N   0  3  0  0  0  0  0  0  0  0  0  0
  1  2  1  0  0  0  0
  2  3  1  0  0  0  0
  3  8  2  0  0  0  0
  3  4  1  0  0  0  0
  4  5  2  0  0  0  0
  5  6  1  0  0  0  0
  6 11  1  0  0  0  0
  6  7  2  0  0  0  0
  7  8  1  0  0  0  0
  7  9  1  0  0  0  0
  9 10  1  0  0  0  0
 10 11  2  0  0  0  0
 11 12  1  0  0  0  0
 12 13  1  0  0  0  0
 13 14  1  0  0  0  0
M  CHG  1  14   1
M  END
$$$$
EN300-194466
  -OEChem-03222016482D

 14 15  0     0  0  0  0  0  0999 V2000
    1.7340    3.0138    0.0000 C   0  0  0  0  0  0  0  0  0  0  0  0
    0.8680    2.5138    0.0000 O   0  0  0  0  0  0  0  0  0  0  0  0
    0.8680    1.5138    0.0000 C   0  0  0  0  0  0  0  0  0  0  0  0
    0.0000    1.0058    0.0000 C   0  0  0  0  0  0  0  0  0  0  0  0
    0.0000    0.0000    0.0000 C   0  0  0  0  0  0  0  0  0  0  0  0
    0.8680   -0.4978    0.0000 C   0  0  0  0  0  0  0  0  0  0  0  0
    1.7360   -0.0012    0.0000 C   0  0  0  0  0  0  0  0  0  0  0  0
    1.7360    1.0058    0.0000 C   0  0  0  0  0  0  0  0  0  0  0  0
    2.6938    1.3169    0.0000 N   0  0  0  0  0  0  0  0  0  0  0  0
    3.2858    0.5023    0.0000 C   0  0  0  0  0  0  0  0  0  0  0  0
    2.6938   -0.3125    0.0000 C   0  0  0  0  0  0  0  0  0  0  0  0
    3.0028   -1.2636    0.0000 C   0  0  0  0  0  0  0  0  0  0  0  0
    3.9809   -1.4715    0.0000 C   0  0  0  0  0  0  0  0  0  0  0  0
    4.2899   -2.4226    0.0000 N   0  3  0  0  0  0  0  0  0  0  0  0
  1  2  1  0  0  0  0
  2  3  1  0  0  0  0
  3  8  2  0  0  0  0
  3  4  1  0  0  0  0
  4  5  2  0  0  0  0
  5  6  1  0  0  0  0
  6  7  2  0  0  0  0
  7 11  1  0  0  0  0
  7  8  1  0  0  0  0
  8  9  1  0  0  0  0
  9 10  1  0  0  0  0
 10 11  2  0  0  0  0
 11 12  1  0  0  0  0
 12 13  1  0  0  0  0
 13 14  1  0  0  0  0
M  CHG  1  14   1
M  END
$$$$
s_22____15506616____9296322
  -OEChem-03222016482D

 19 20  0     0  0  0  0  0  0999 V2000
    6.1949   -5.4838    0.0000 C   0  0  0  0  0  0  0  0  0  0  0  0
    5.8860   -4.5327    0.0000 C   0  0  0  0  0  0  0  0  0  0  0  0
    5.5770   -3.5816    0.0000 C   0  0  0  0  0  0  0  0  0  0  0  0
    5.2680   -2.6306    0.0000 C   0  0  0  0  0  0  0  0  0  0  0  0
    5.9372   -1.8874    0.0000 O   0  0  0  0  0  0  0  0  0  0  0  0
    4.2899   -2.4226    0.0000 N   0  0  0  0  0  0  0  0  0  0  0  0
    3.9809   -1.4715    0.0000 C   0  0  0  0  0  0  0  0  0  0  0  0
    3.0028   -1.2636    0.0000 C   0  0  0  0  0  0  0  0  0  0  0  0
    2.6938   -0.3125    0.0000 C   0  0  0  0  0  0  0  0  0  0  0  0
    3.2858    0.5023    0.0000 C   0  0  0  0  0  0  0  0  0  0  0  0
    2.6938    1.3169    0.0000 N   0  0  0  0  0  0  0  0  0  0  0  0
    1.7360    1.0058    0.0000 C   0  0  0  0  0  0  0  0  0  0  0  0
    1.7360   -0.0012    0.0000 C   0  0  0  0  0  0  0  0  0  0  0  0
    0.8680   -0.4978    0.0000 C   0  0  0  0  0  0  0  0  0  0  0  0
    0.0000    0.0000    0.0000 C   0  0  0  0  0  0  0  0  0  0  0  0
   -0.0000    1.0058    0.0000 C   0  0  0  0  0  0  0  0  0  0  0  0
    0.8680    1.5138    0.0000 C   0  0  0  0  0  0  0  0  0  0  0  0
    0.8680    2.5138    0.0000 O   0  0  0  0  0  0  0  0  0  0  0  0
    0.0020    3.0138    0.0000 C   0  0  0  0  0  0  0  0  0  0  0  0
  1  2  1  0  0  0  0
  2  3  3  0  0  0  0
  3  4  1  0  0  0  0
  4  5  2  0  0  0  0
  4  6  1  0  0  0  0
  6  7  1  0  0  0  0
  7  8  1  0  0  0  0
  8  9  1  0  0  0  0
  9 13  1  0  0  0  0
  9 10  2  0  0  0  0
 10 11  1  0  0  0  0
 11 12  1  0  0  0  0
 12 17  2  0  0  0  0
 12 13  1  0  0  0  0
 13 14  2  0  0  0  0
 14 15  1  0  0  0  0
 15 16  2  0  0  0  0
 16 17  1  0  0  0  0
 17 18  1  0  0  0  0
 18 19  1  0  0  0  0
M  END
$$$$
s_22____13025516____4970170
  -OEChem-03222016482D

 21 23  0     0  0  0  0  0  0999 V2000
    0.0012   -1.9973    0.0000 C   0  0  0  0  0  0  0  0  0  0  0  0
    0.8675   -1.4978    0.0000 O   0  0  0  0  0  0  0  0  0  0  0  0
    0.8680   -0.4978    0.0000 C   0  0  0  0  0  0  0  0  0  0  0  0
    0.0000    0.0000    0.0000 C   0  0  0  0  0  0  0  0  0  0  0  0
   -0.0000    1.0058    0.0000 C   0  0  0  0  0  0  0  0  0  0  0  0
    0.8680    1.5138    0.0000 C   0  0  0  0  0  0  0  0  0  0  0  0
    1.7360    1.0058    0.0000 C   0  0  0  0  0  0  0  0  0  0  0  0
    1.7360   -0.0012    0.0000 C   0  0  0  0  0  0  0  0  0  0  0  0
    2.6938   -0.3125    0.0000 C   0  0  0  0  0  0  0  0  0  0  0  0
    3.2858    0.5023    0.0000 C   0  0  0  0  0  0  0  0  0  0  0  0
    2.6938    1.3169    0.0000 N   0  0  0  0  0  0  0  0  0  0  0  0
    3.0028   -1.2636    0.0000 C   0  0  0  0  0  0  0  0  0  0  0  0
    3.9809   -1.4715    0.0000 C   0  0  0  0  0  0  0  0  0  0  0  0
    4.2899   -2.4226    0.0000 N   0  0  0  0  0  0  0  0  0  0  0  0
    5.2680   -2.6306    0.0000 C   0  0  0  0  0  0  0  0  0  0  0  0
    5.9372   -1.8874    0.0000 O   0  0  0  0  0  0  0  0  0  0  0  0
    5.5770   -3.5816    0.0000 C   0  0  0  0  0  0  0  0  0  0  0  0
    6.5551   -3.7896    0.0000 C   0  0  0  0  0  0  0  0  0  0  0  0
    6.8641   -4.7407    0.0000 C   0  0  0  0  0  0  0  0  0  0  0  0
    6.6568   -5.7209    0.0000 C   0  0  0  0  0  0  0  0  0  0  0  0
    7.6079   -5.4119    0.0000 C   0  0  0  0  0  0  0  0  0  0  0  0
  1  2  1  0  0  0  0
  2  3  1  0  0  0  0
  3  8  2  0  0  0  0
  3  4  1  0  0  0  0
  4  5  2  0  0  0  0
  5  6  1  0  0  0  0
  6  7  2  0  0  0  0
  7 11  1  0  0  0  0
  7  8  1  0  0  0  0
  8  9  1  0  0  0  0
  9 10  2  0  0  0  0
 10 11  1  0  0  0  0
  9 12  1  0  0  0  0
 12 13  1  0  0  0  0
 13 14  1  0  0  0  0
 14 15  1  0  0  0  0
 15 16  2  0  0  0  0
 15 17  1  0  0  0  0
 17 18  1  0  0  0  0
 18 19  1  0  0  0  0
 19 21  1  0  0  0  0
 19 20  1  0  0  0  0
 20 21  1  0  0  0  0
M  END
$$$$
s_22____13025516____575700
  -OEChem-03222016482D

 21 22  0     0  0  0  0  0  0999 V2000
    0.0012   -1.9973    0.0000 C   0  0  0  0  0  0  0  0  0  0  0  0
    0.8675   -1.4978    0.0000 O   0  0  0  0  0  0  0  0  0  0  0  0
    0.8680   -0.4978    0.0000 C   0  0  0  0  0  0  0  0  0  0  0  0
    0.0000    0.0000    0.0000 C   0  0  0  0  0  0  0  0  0  0  0  0
   -0.0000    1.0058    0.0000 C   0  0  0  0  0  0  0  0  0  0  0  0
    0.8680    1.5138    0.0000 C   0  0  0  0  0  0  0  0  0  0  0  0
    1.7360    1.0058    0.0000 C   0  0  0  0  0  0  0  0  0  0  0  0
    1.7360   -0.0012    0.0000 C   0  0  0  0  0  0  0  0  0  0  0  0
    2.6938   -0.3125    0.0000 C   0  0  0  0  0  0  0  0  0  0  0  0
    3.2858    0.5023    0.0000 C   0  0  0  0  0  0  0  0  0  0  0  0
    2.6938    1.3169    0.0000 N   0  0  0  0  0  0  0  0  0  0  0  0
    3.0028   -1.2636    0.0000 C   0  0  0  0  0  0  0  0  0  0  0  0
    3.9809   -1.4715    0.0000 C   0  0  0  0  0  0  0  0  0  0  0  0
    4.2899   -2.4226    0.0000 N   0  0  0  0  0  0  0  0  0  0  0  0
    5.2680   -2.6306    0.0000 C   0  0  0  0  0  0  0  0  0  0  0  0
    5.9372   -1.8874    0.0000 O   0  0  0  0  0  0  0  0  0  0  0  0
    5.5770   -3.5816    0.0000 C   0  0  0  0  0  0  0  0  0  0  0  0
    6.5551   -3.7896    0.0000 S   0  0  0  0  0  0  0  0  0  0  0  0
    6.8641   -4.7407    0.0000 C   0  0  0  0  0  0  0  0  0  0  0  0
    7.8422   -4.9486    0.0000 C   0  0  0  0  0  0  0  0  0  0  0  0
    8.8204   -5.1566    0.0000 N   0  0  0  0  0  0  0  0  0  0  0  0
  1  2  1  0  0  0  0
  2  3  1  0  0  0  0
  3  8  2  0  0  0  0
  3  4  1  0  0  0  0
  4  5  2  0  0  0  0
  5  6  1  0  0  0  0
  6  7  2  0  0  0  0
  7 11  1  0  0  0  0
  7  8  1  0  0  0  0
  8  9  1  0  0  0  0
  9 10  2  0  0  0  0
 10 11  1  0  0  0  0
  9 12  1  0  0  0  0
 12 13  1  0  0  0  0
 13 14  1  0  0  0  0
 14 15  1  0  0  0  0
 15 16  2  0  0  0  0
 15 17  1  0  0  0  0
 17 18  1  0  0  0  0
 18 19  1  0  0  0  0
 19 20  1  0  0  0  0
 20 21  3  0  0  0  0
M  END
$$$$
s_22____4839448____14930376
  -OEChem-03222016482D

 20 21  0     0  0  0  0  0  0999 V2000
    1.2530   -7.0892    0.0000 C   0  0  0  0  0  0  0  0  0  0  0  0
    1.9222   -6.3461    0.0000 C   0  0  0  0  0  0  0  0  0  0  0  0
    1.6132   -5.3951    0.0000 S   0  0  0  0  0  0  0  0  0  0  0  0
    2.2824   -4.6519    0.0000 C   0  0  0  0  0  0  0  0  0  0  0  0
    1.9734   -3.7009    0.0000 C   0  0  0  0  0  0  0  0  0  0  0  0
    0.9953   -3.4929    0.0000 O   0  0  0  0  0  0  0  0  0  0  0  0
    2.6426   -2.9578    0.0000 N   0  0  0  0  0  0  0  0  0  0  0  0
    2.3336   -2.0067    0.0000 C   0  0  0  0  0  0  0  0  0  0  0  0
    3.0028   -1.2636    0.0000 C   0  0  0  0  0  0  0  0  0  0  0  0
    2.6938   -0.3125    0.0000 C   0  0  0  0  0  0  0  0  0  0  0  0
    3.2858    0.5023    0.0000 C   0  0  0  0  0  0  0  0  0  0  0  0
    2.6938    1.3169    0.0000 N   0  0  0  0  0  0  0  0  0  0  0  0
    1.7360    1.0058    0.0000 C   0  0  0  0  0  0  0  0  0  0  0  0
    1.7360   -0.0012    0.0000 C   0  0  0  0  0  0  0  0  0  0  0  0
    0.8680   -0.4978    0.0000 C   0  0  0  0  0  0  0  0  0  0  0  0
    0.0000    0.0000    0.0000 C   0  0  0  0  0  0  0  0  0  0  0  0
   -0.0000    1.0058    0.0000 C   0  0  0  0  0  0  0  0  0  0  0  0
    0.8680    1.5138    0.0000 C   0  0  0  0  0  0  0  0  0  0  0  0
   -0.8653   -0.5013    0.0000 O   0  0  0  0  0  0  0  0  0  0  0  0
   -0.8639   -1.5013    0.0000 C   0  0  0  0  0  0  0  0  0  0  0  0
  1  2  1  0  0  0  0
  2  3  1  0  0  0  0
  3  4  1  0  0  0  0
  4  5  1  0  0  0  0
  5  6  2  0  0  0  0
  5  7  1  0  0  0  0
  7  8  1  0  0  0  0
  8  9  1  0  0  0  0
  9 10  1  0  0  0  0
 10 14  1  0  0  0  0
 10 11  2  0  0  0  0
 11 12  1  0  0  0  0
 12 13  1  0  0  0  0
 13 18  2  0  0  0  0
 13 14  1  0  0  0  0
 14 15  2  0  0  0  0
 15 16  1  0  0  0  0
 16 17  2  0  0  0  0
 17 18  1  0  0  0  0
 16 19  1  0  0  0  0
 19 20  1  0  0  0  0
M  END
$$$$
s_22____12346432____58866
  -OEChem-03222016482D

 18 19  0     0  0  0  0  0  0999 V2000
    6.8641   -4.7407    0.0000 C   0  0  0  0  0  0  0  0  0  0  0  0
    6.5551   -3.7896    0.0000 C   0  0  0  0  0  0  0  0  0  0  0  0
    5.5770   -3.5816    0.0000 C   0  0  0  0  0  0  0  0  0  0  0  0
    5.2680   -2.6306    0.0000 C   0  0  0  0  0  0  0  0  0  0  0  0
    5.9372   -1.8874    0.0000 O   0  0  0  0  0  0  0  0  0  0  0  0
    4.2899   -2.4226    0.0000 N   0  0  0  0  0  0  0  0  0  0  0  0
    3.9809   -1.4715    0.0000 C   0  0  0  0  0  0  0  0  0  0  0  0
    3.0028   -1.2636    0.0000 C   0  0  0  0  0  0  0  0  0  0  0  0
    2.6938   -0.3125    0.0000 C   0  0  0  0  0  0  0  0  0  0  0  0
    3.2858    0.5023    0.0000 C   0  0  0  0  0  0  0  0  0  0  0  0
    2.6938    1.3169    0.0000 N   0  0  0  0  0  0  0  0  0  0  0  0
    1.7360    1.0058    0.0000 C   0  0  0  0  0  0  0  0  0  0  0  0
    1.7360   -0.0012    0.0000 C   0  0  0  0  0  0  0  0  0  0  0  0
    0.8680   -0.4978    0.0000 C   0  0  0  0  0  0  0  0  0  0  0  0
    0.0000    0.0000    0.0000 C   0  0  0  0  0  0  0  0  0  0  0  0
   -0.0000    1.0058    0.0000 C   0  0  0  0  0  0  0  0  0  0  0  0
    0.8680    1.5138    0.0000 C   0  0  0  0  0  0  0  0  0  0  0  0
    0.8680    2.5138    0.0000 Cl  0  0  0  0  0  0  0  0  0  0  0  0
  1  2  1  0  0  0  0
  2  3  1  0  0  0  0
  3  4  1  0  0  0  0
  4  5  2  0  0  0  0
  4  6  1  0  0  0  0
  6  7  1  0  0  0  0
  7  8  1  0  0  0  0
  8  9  1  0  0  0  0
  9 13  1  0  0  0  0
  9 10  2  0  0  0  0
 10 11  1  0  0  0  0
 11 12  1  0  0  0  0
 12 17  2  0  0  0  0
 12 13  1  0  0  0  0
 13 14  2  0  0  0  0
 14 15  1  0  0  0  0
 15 16  2  0  0  0  0
 16 17  1  0  0  0  0
 17 18  1  0  0  0  0
M  END
$$$$
s_22____4839448____925054
  -OEChem-03222016482D

 21 22  0     0  0  0  0  0  0999 V2000
   -1.7320   -0.0025    0.0000 C   0  0  0  0  0  0  0  0  0  0  0  0
   -0.8653   -0.5013    0.0000 O   0  0  0  0  0  0  0  0  0  0  0  0
    0.0000    0.0000    0.0000 C   0  0  0  0  0  0  0  0  0  0  0  0
   -0.0000    1.0058    0.0000 C   0  0  0  0  0  0  0  0  0  0  0  0
    0.8680    1.5138    0.0000 C   0  0  0  0  0  0  0  0  0  0  0  0
    1.7360    1.0058    0.0000 C   0  0  0  0  0  0  0  0  0  0  0  0
    1.7360   -0.0012    0.0000 C   0  0  0  0  0  0  0  0  0  0  0  0
    0.8680   -0.4978    0.0000 C   0  0  0  0  0  0  0  0  0  0  0  0
    2.6938   -0.3125    0.0000 C   0  0  0  0  0  0  0  0  0  0  0  0
    3.2858    0.5023    0.0000 C   0  0  0  0  0  0  0  0  0  0  0  0
    2.6938    1.3169    0.0000 N   0  0  0  0  0  0  0  0  0  0  0  0
    3.0028   -1.2636    0.0000 C   0  0  0  0  0  0  0  0  0  0  0  0
    3.9809   -1.4715    0.0000 C   0  0  0  0  0  0  0  0  0  0  0  0
    4.2899   -2.4226    0.0000 N   0  0  0  0  0  0  0  0  0  0  0  0
    5.2680   -2.6306    0.0000 C   0  0  0  0  0  0  0  0  0  0  0  0
    5.9372   -1.8874    0.0000 O   0  0  0  0  0  0  0  0  0  0  0  0
    5.5770   -3.5816    0.0000 C   0  0  0  0  0  0  0  0  0  0  0  0
    6.5551   -3.7896    0.0000 S   0  0  0  0  0  0  0  0  0  0  0  0
    6.8641   -4.7407    0.0000 C   0  0  0  0  0  0  0  0  0  0  0  0
    7.8422   -4.9486    0.0000 C   0  0  0  0  0  0  0  0  0  0  0  0
    8.1512   -5.8997    0.0000 C   0  0  0  0  0  0  0  0  0  0  0  0
  1  2  1  0  0  0  0
  2  3  1  0  0  0  0
  3  8  2  0  0  0  0
  3  4  1  0  0  0  0
  4  5  2  0  0  0  0
  5  6  1  0  0  0  0
  6 11  1  0  0  0  0
  6  7  2  0  0  0  0
  7  8  1  0  0  0  0
  7  9  1  0  0  0  0
  9 10  2  0  0  0  0
 10 11  1  0  0  0  0
  9 12  1  0  0  0  0
 12 13  1  0  0  0  0
 13 14  1  0  0  0  0
 14 15  1  0  0  0  0
 15 16  2  0  0  0  0
 15 17  1  0  0  0  0
 17 18  1  0  0  0  0
 18 19  1  0  0  0  0
 19 20  1  0  0  0  0
 20 21  2  0  0  0  0
M  END
$$$$
s_512____5136592____13025528
  -OEChem-03222016482D

 21 22  0     0  0  0  0  0  0999 V2000
    0.0012   -1.9973    0.0000 C   0  0  0  0  0  0  0  0  0  0  0  0
    0.8675   -1.4978    0.0000 O   0  0  0  0  0  0  0  0  0  0  0  0
    0.8680   -0.4978    0.0000 C   0  0  0  0  0  0  0  0  0  0  0  0
    0.0000    0.0000    0.0000 C   0  0  0  0  0  0  0  0  0  0  0  0
   -0.0000    1.0058    0.0000 C   0  0  0  0  0  0  0  0  0  0  0  0
    0.8680    1.5138    0.0000 C   0  0  0  0  0  0  0  0  0  0  0  0
    1.7360    1.0058    0.0000 C   0  0  0  0  0  0  0  0  0  0  0  0
    1.7360   -0.0012    0.0000 C   0  0  0  0  0  0  0  0  0  0  0  0
    2.6938   -0.3125    0.0000 C   0  0  0  0  0  0  0  0  0  0  0  0
    3.2858    0.5023    0.0000 C   0  0  0  0  0  0  0  0  0  0  0  0
    2.6938    1.3169    0.0000 N   0  0  0  0  0  0  0  0  0  0  0  0
    3.0028   -1.2636    0.0000 C   0  0  0  0  0  0  0  0  0  0  0  0
    3.9809   -1.4715    0.0000 C   0  0  0  0  0  0  0  0  0  0  0  0
    4.2899   -2.4226    0.0000 N   0  0  0  0  0  0  0  0  0  0  0  0
    5.2680   -2.6306    0.0000 C   0  0  0  0  0  0  0  0  0  0  0  0
    5.9372   -1.8874    0.0000 O   0  0  0  0  0  0  0  0  0  0  0  0
    5.5770   -3.5816    0.0000 N   0  0  0  0  0  0  0  0  0  0  0  0
    6.5551   -3.7896    0.0000 C   0  0  0  0  0  0  0  0  0  0  0  0
    6.8641   -4.7407    0.0000 C   0  0  0  0  0  0  0  0  0  0  0  0
    6.1949   -5.4838    0.0000 C   0  0  0  0  0  0  0  0  0  0  0  0
    7.8422   -4.9486    0.0000 Cl  0  0  0  0  0  0  0  0  0  0  0  0
  1  2  1  0  0  0  0
  2  3  1  0  0  0  0
  3  8  2  0  0  0  0
  3  4  1  0  0  0  0
  4  5  2  0  0  0  0
  5  6  1  0  0  0  0
  6  7  2  0  0  0  0
  7 11  1  0  0  0  0
  7  8  1  0  0  0  0
  8  9  1  0  0  0  0
  9 10  2  0  0  0  0
 10 11  1  0  0  0  0
  9 12  1  0  0  0  0
 12 13  1  0  0  0  0
 13 14  1  0  0  0  0
 14 15  1  0  0  0  0
 15 16  2  0  0  0  0
 15 17  1  0  0  0  0
 17 18  1  0  0  0  0
 18 19  1  0  0  0  0
 19 20  2  0  0  0  0
 19 21  1  0  0  0  0
M  END
$$$$
s_512____214534____15506628
  -OEChem-03222016482D

 21 22  0     0  0  0  0  0  0999 V2000
    8.1512   -5.8997    0.0000 C   0  0  0  0  0  0  0  0  0  0  0  0
    7.8422   -4.9486    0.0000 C   0  0  0  0  0  0  0  0  0  0  0  0
    6.8641   -4.7407    0.0000 C   0  0  0  0  0  0  0  0  0  0  0  0
    6.5551   -3.7896    0.0000 C   0  0  0  0  0  0  0  0  0  0  0  0
    5.5770   -3.5816    0.0000 N   0  0  0  0  0  0  0  0  0  0  0  0
    5.2680   -2.6306    0.0000 C   0  0  0  0  0  0  0  0  0  0  0  0
    5.9372   -1.8874    0.0000 O   0  0  0  0  0  0  0  0  0  0  0  0
    4.2899   -2.4226    0.0000 N   0  0  0  0  0  0  0  0  0  0  0  0
    3.9809   -1.4715    0.0000 C   0  0  0  0  0  0  0  0  0  0  0  0
    3.0028   -1.2636    0.0000 C   0  0  0  0  0  0  0  0  0  0  0  0
    2.6938   -0.3125    0.0000 C   0  0  0  0  0  0  0  0  0  0  0  0
    3.2858    0.5023    0.0000 C   0  0  0  0  0  0  0  0  0  0  0  0
    2.6938    1.3169    0.0000 N   0  0  0  0  0  0  0  0  0  0  0  0
    1.7360    1.0058    0.0000 C   0  0  0  0  0  0  0  0  0  0  0  0
    1.7360   -0.0012    0.0000 C   0  0  0  0  0  0  0  0  0  0  0  0
    0.8680   -0.4978    0.0000 C   0  0  0  0  0  0  0  0  0  0  0  0
    0.0000    0.0000    0.0000 C   0  0  0  0  0  0  0  0  0  0  0  0
   -0.0000    1.0058    0.0000 C   0  0  0  0  0  0  0  0  0  0  0  0
    0.8680    1.5138    0.0000 C   0  0  0  0  0  0  0  0  0  0  0  0
    0.8680    2.5138    0.0000 O   0  0  0  0  0  0  0  0  0  0  0  0
    0.0020    3.0138    0.0000 C   0  0  0  0  0  0  0  0  0  0  0  0
  1  2  1  0  0  0  0
  2  3  1  0  0  0  0
  3  4  1  0  0  0  0
  4  5  1  0  0  0  0
  5  6  1  0  0  0  0
  6  7  2  0  0  0  0
  6  8  1  0  0  0  0
  8  9  1  0  0  0  0
  9 10  1  0  0  0  0
 10 11  1  0  0  0  0
 11 15  1  0  0  0  0
 11 12  2  0  0  0  0
 12 13  1  0  0  0  0
 13 14  1  0  0  0  0
 14 19  2  0  0  0  0
 14 15  1  0  0  0  0
 15 16  2  0  0  0  0
 16 17  1  0  0  0  0
 17 18  2  0  0  0  0
 18 19  1  0  0  0  0
 19 20  1  0  0  0  0
 20 21  1  0  0  0  0
M  END
$$$$
s_22____13025516____60462
  -OEChem-03222016482D

 20 21  0     0  0  0  0  0  0999 V2000
    0.0012   -1.9973    0.0000 C   0  0  0  0  0  0  0  0  0  0  0  0
    0.8675   -1.4978    0.0000 O   0  0  0  0  0  0  0  0  0  0  0  0
    0.8680   -0.4978    0.0000 C   0  0  0  0  0  0  0  0  0  0  0  0
    0.0000    0.0000    0.0000 C   0  0  0  0  0  0  0  0  0  0  0  0
   -0.0000    1.0058    0.0000 C   0  0  0  0  0  0  0  0  0  0  0  0
    0.8680    1.5138    0.0000 C   0  0  0  0  0  0  0  0  0  0  0  0
    1.7360    1.0058    0.0000 C   0  0  0  0  0  0  0  0  0  0  0  0
    1.7360   -0.0012    0.0000 C   0  0  0  0  0  0  0  0  0  0  0  0
    2.6938   -0.3125    0.0000 C   0  0  0  0  0  0  0  0  0  0  0  0
    3.2858    0.5023    0.0000 C   0  0  0  0  0  0  0  0  0  0  0  0
    2.6938    1.3169    0.0000 N   0  0  0  0  0  0  0  0  0  0  0  0
    3.0028   -1.2636    0.0000 C   0  0  0  0  0  0  0  0  0  0  0  0
    3.9809   -1.4715    0.0000 C   0  0  0  0  0  0  0  0  0  0  0  0
    4.2899   -2.4226    0.0000 N   0  0  0  0  0  0  0  0  0  0  0  0
    5.2680   -2.6306    0.0000 C   0  0  0  0  0  0  0  0  0  0  0  0
    5.9372   -1.8874    0.0000 O   0  0  0  0  0  0  0  0  0  0  0  0
    5.5770   -3.5816    0.0000 C   0  0  0  0  0  0  0  0  0  0  0  0
    6.5551   -3.7896    0.0000 C   0  0  0  0  0  0  0  0  0  0  0  0
    6.8641   -4.7407    0.0000 S   0  0  0  0  0  0  0  0  0  0  0  0
    7.8422   -4.9486    0.0000 C   0  0  0  0  0  0  0  0  0  0  0  0
  1  2  1  0  0  0  0
  2  3  1  0  0  0  0
  3  8  2  0  0  0  0
  3  4  1  0  0  0  0
  4  5  2  0  0  0  0
  5  6  1  0  0  0  0
  6  7  2  0  0  0  0
  7 11  1  0  0  0  0
  7  8  1  0  0  0  0
  8  9  1  0  0  0  0
  9 10  2  0  0  0  0
 10 11  1  0  0  0  0
  9 12  1  0  0  0  0
 12 13  1  0  0  0  0
 13 14  1  0  0  0  0
 14 15  1  0  0  0  0
 15 16  2  0  0  0  0
 15 17  1  0  0  0  0
 17 18  1  0  0  0  0
 18 19  1  0  0  0  0
 19 20  1  0  0  0  0
M  END
$$$$
s_22____13025516____10118400
  -OEChem-03222016482D

 21 22  0     0  0  0  0  0  0999 V2000
    0.0012   -1.9973    0.0000 C   0  0  0  0  0  0  0  0  0  0  0  0
    0.8675   -1.4978    0.0000 O   0  0  0  0  0  0  0  0  0  0  0  0
    0.8680   -0.4978    0.0000 C   0  0  0  0  0  0  0  0  0  0  0  0
    0.0000    0.0000    0.0000 C   0  0  0  0  0  0  0  0  0  0  0  0
   -0.0000    1.0058    0.0000 C   0  0  0  0  0  0  0  0  0  0  0  0
    0.8680    1.5138    0.0000 C   0  0  0  0  0  0  0  0  0  0  0  0
    1.7360    1.0058    0.0000 C   0  0  0  0  0  0  0  0  0  0  0  0
    1.7360   -0.0012    0.0000 C   0  0  0  0  0  0  0  0  0  0  0  0
    2.6938   -0.3125    0.0000 C   0  0  0  0  0  0  0  0  0  0  0  0
    3.2858    0.5023    0.0000 C   0  0  0  0  0  0  0  0  0  0  0  0
    2.6938    1.3169    0.0000 N   0  0  0  0  0  0  0  0  0  0  0  0
    3.0028   -1.2636    0.0000 C   0  0  0  0  0  0  0  0  0  0  0  0
    3.9809   -1.4715    0.0000 C   0  0  0  0  0  0  0  0  0  0  0  0
    4.2899   -2.4226    0.0000 N   0  0  0  0  0  0  0  0  0  0  0  0
    5.2680   -2.6306    0.0000 C   0  0  0  0  0  0  0  0  0  0  0  0
    5.9372   -1.8874    0.0000 O   0  0  0  0  0  0  0  0  0  0  0  0
    5.5770   -3.5816    0.0000 C   0  0  0  0  0  0  0  0  0  0  0  0
    6.5551   -3.7896    0.0000 O   0  0  0  0  0  0  0  0  0  0  0  0
    6.8641   -4.7407    0.0000 C   0  0  0  0  0  0  0  0  0  0  0  0
    7.8422   -4.9486    0.0000 F   0  0  0  0  0  0  0  0  0  0  0  0
    6.1949   -5.4838    0.0000 F   0  0  0  0  0  0  0  0  0  0  0  0
  1  2  1  0  0  0  0
  2  3  1  0  0  0  0
  3  8  2  0  0  0  0
  3  4  1  0  0  0  0
  4  5  2  0  0  0  0
  5  6  1  0  0  0  0
  6  7  2  0  0  0  0
  7 11  1  0  0  0  0
  7  8  1  0  0  0  0
  8  9  1  0  0  0  0
  9 10  2  0  0  0  0
 10 11  1  0  0  0  0
  9 12  1  0  0  0  0
 12 13  1  0  0  0  0
 13 14  1  0  0  0  0
 14 15  1  0  0  0  0
 15 16  2  0  0  0  0
 15 17  1  0  0  0  0
 17 18  1  0  0  0  0
 18 19  1  0  0  0  0
 19 20  1  0  0  0  0
 19 21  1  0  0  0  0
M  END
$$$$
s_270004____11687778____16621896
  -OEChem-03222016482D

 21 22  0     0  0  0  0  0  0999 V2000
    9.2860   -2.9615    0.0000 C   0  0  0  0  0  0  0  0  0  0  0  0
    8.7859   -2.0955    0.0000 C   0  0  0  0  0  0  0  0  0  0  0  0
    7.7860   -2.0955    0.0000 O   0  0  0  0  0  0  0  0  0  0  0  0
    7.2859   -1.2295    0.0000 N   0  0  0  0  0  0  0  0  0  0  0  0
    7.7859   -0.3635    0.0000 C   0  0  0  0  0  0  0  0  0  0  0  0
    6.2859   -1.2296    0.0000 C   0  0  0  0  0  0  0  0  0  0  0  0
    5.7860   -2.0956    0.0000 O   0  0  0  0  0  0  0  0  0  0  0  0
    5.7859   -0.3636    0.0000 C   0  0  0  0  0  0  0  0  0  0  0  0
    4.7859   -0.3636    0.0000 N   0  3  0  0  0  0  0  0  0  0  0  0
    4.2858    0.5024    0.0000 C   0  0  0  0  0  0  0  0  0  0  0  0
    3.2858    0.5023    0.0000 C   0  0  0  0  0  0  0  0  0  0  0  0
    2.6938   -0.3125    0.0000 C   0  0  0  0  0  0  0  0  0  0  0  0
    1.7360   -0.0012    0.0000 C   0  0  0  0  0  0  0  0  0  0  0  0
    0.8680   -0.4978    0.0000 C   0  0  0  0  0  0  0  0  0  0  0  0
    0.0000    0.0000    0.0000 C   0  0  0  0  0  0  0  0  0  0  0  0
    0.0000    1.0058    0.0000 C   0  0  0  0  0  0  0  0  0  0  0  0
    0.8680    1.5138    0.0000 C   0  0  0  0  0  0  0  0  0  0  0  0
    1.7360    1.0058    0.0000 C   0  0  0  0  0  0  0  0  0  0  0  0
    2.6938    1.3169    0.0000 N   0  0  0  0  0  0  0  0  0  0  0  0
   -0.8653   -0.5013    0.0000 O   0  0  0  0  0  0  0  0  0  0  0  0
   -0.8639   -1.5013    0.0000 C   0  0  0  0  0  0  0  0  0  0  0  0
  1  2  1  0  0  0  0
  2  3  1  0  0  0  0
  3  4  1  0  0  0  0
  4  5  1  0  0  0  0
  4  6  1  0  0  0  0
  6  7  2  0  0  0  0
  6  8  1  0  0  0  0
  8  9  1  0  0  0  0
  9 10  1  0  0  0  0
 10 11  1  0  0  0  0
 11 19  1  0  0  0  0
 11 12  2  0  0  0  0
 12 13  1  0  0  0  0
 13 18  2  0  0  0  0
 13 14  1  0  0  0  0
 14 15  2  0  0  0  0
 15 16  1  0  0  0  0
 16 17  2  0  0  0  0
 17 18  1  0  0  0  0
 18 19  1  0  0  0  0
 15 20  1  0  0  0  0
 20 21  1  0  0  0  0
M  CHG  1   9   1
M  END
$$$$
s_240690b____12346500____13151248
  -OEChem-03222016482D

 18 19  0     0  0  0  0  0  0999 V2000
    0.0000    0.0000    0.0000 C   0  0  0  0  0  0  0  0  0  0  0  0
    0.8680   -0.4978    0.0000 C   0  0  0  0  0  0  0  0  0  0  0  0
    1.7360   -0.0012    0.0000 C   0  0  0  0  0  0  0  0  0  0  0  0
    2.6938   -0.3125    0.0000 C   0  0  0  0  0  0  0  0  0  0  0  0
    3.2858    0.5023    0.0000 C   0  0  0  0  0  0  0  0  0  0  0  0
    2.6938    1.3169    0.0000 N   0  0  0  0  0  0  0  0  0  0  0  0
    1.7360    1.0058    0.0000 C   0  0  0  0  0  0  0  0  0  0  0  0
    0.8680    1.5138    0.0000 C   0  0  0  0  0  0  0  0  0  0  0  0
    0.0000    1.0058    0.0000 C   0  0  0  0  0  0  0  0  0  0  0  0
    0.8680    2.5138    0.0000 Cl  0  0  0  0  0  0  0  0  0  0  0  0
    3.0028   -1.2636    0.0000 C   0  0  0  0  0  0  0  0  0  0  0  0
    3.9809   -1.4715    0.0000 C   0  0  0  0  0  0  0  0  0  0  0  0
    4.2899   -2.4226    0.0000 N   0  0  0  0  0  0  0  0  0  0  0  0
    5.2680   -2.6306    0.0000 C   0  0  0  0  0  0  0  0  0  0  0  0
    5.9372   -1.8874    0.0000 O   0  0  0  0  0  0  0  0  0  0  0  0
    5.5770   -3.5816    0.0000 C   0  0  0  0  0  0  0  0  0  0  0  0
    6.5551   -3.7896    0.0000 O   0  0  0  0  0  0  0  0  0  0  0  0
    6.8641   -4.7407    0.0000 N   0  0  0  0  0  0  0  0  0  0  0  0
  1  9  2  0  0  0  0
  1  2  1  0  0  0  0
  2  3  2  0  0  0  0
  3  7  1  0  0  0  0
  3  4  1  0  0  0  0
  4  5  2  0  0  0  0
  5  6  1  0  0  0  0
  6  7  1  0  0  0  0
  7  8  2  0  0  0  0
  8  9  1  0  0  0  0
  8 10  1  0  0  0  0
  4 11  1  0  0  0  0
 11 12  1  0  0  0  0
 12 13  1  0  0  0  0
 13 14  1  0  0  0  0
 14 15  2  0  0  0  0
 14 16  1  0  0  0  0
 16 17  1  0  0  0  0
 17 18  1  0  0  0  0
M  END
$$$$
s_207____13905812____16621894
  -OEChem-03222016482D

 18 19  0     1  0  0  0  0  0999 V2000
   -1.7320   -0.0025    0.0000 C   0  0  0  0  0  0  0  0  0  0  0  0
   -0.8653   -0.5013    0.0000 O   0  0  0  0  0  0  0  0  0  0  0  0
    0.0000    0.0000    0.0000 C   0  0  0  0  0  0  0  0  0  0  0  0
   -0.0000    1.0058    0.0000 C   0  0  0  0  0  0  0  0  0  0  0  0
    0.8680    1.5138    0.0000 C   0  0  0  0  0  0  0  0  0  0  0  0
    1.7360    1.0058    0.0000 C   0  0  0  0  0  0  0  0  0  0  0  0
    1.7360   -0.0012    0.0000 C   0  0  0  0  0  0  0  0  0  0  0  0
    0.8680   -0.4978    0.0000 C   0  0  0  0  0  0  0  0  0  0  0  0
    2.6938   -0.3125    0.0000 C   0  0  0  0  0  0  0  0  0  0  0  0
    3.2858    0.5023    0.0000 C   0  0  0  0  0  0  0  0  0  0  0  0
    2.6938    1.3169    0.0000 N   0  0  0  0  0  0  0  0  0  0  0  0
    4.2858    0.5024    0.0000 C   0  0  0  0  0  0  0  0  0  0  0  0
    4.7857    1.3684    0.0000 N   0  3  0  0  0  0  0  0  0  0  0  0
    5.7857    1.3685    0.0000 C   0  0  0  0  0  0  0  0  0  0  0  0
    6.2857    2.2345    0.0000 C   0  0  3  0  0  0  0  0  0  0  0  0
    7.2857    2.2346    0.0000 C   0  0  0  0  0  0  0  0  0  0  0  0
    7.7856    3.1006    0.0000 F   0  0  0  0  0  0  0  0  0  0  0  0
    5.7856    3.1005    0.0000 O   0  0  0  0  0  0  0  0  0  0  0  0
  1  2  1  0  0  0  0
  2  3  1  0  0  0  0
  3  8  2  0  0  0  0
  3  4  1  0  0  0  0
  4  5  2  0  0  0  0
  5  6  1  0  0  0  0
  6 11  1  0  0  0  0
  6  7  2  0  0  0  0
  7  8  1  0  0  0  0
  7  9  1  0  0  0  0
  9 10  2  0  0  0  0
 10 11  1  0  0  0  0
 10 12  1  0  0  0  0
 12 13  1  0  0  0  0
 13 14  1  0  0  0  0
 14 15  1  0  0  0  0
 15 16  1  0  0  0  0
 16 17  1  0  0  0  0
 15 18  1  0  0  0  0
M  CHG  1  13   1
M  END
$$$$
s_22____9276248____58844
  -OEChem-03222016482D

 15 16  0     0  0  0  0  0  0999 V2000
    5.7857    1.3685    0.0000 C   0  0  0  0  0  0  0  0  0  0  0  0
    4.7857    1.3684    0.0000 C   0  0  0  0  0  0  0  0  0  0  0  0
    4.2857    2.2344    0.0000 O   0  0  0  0  0  0  0  0  0  0  0  0
    4.2858    0.5024    0.0000 N   0  0  0  0  0  0  0  0  0  0  0  0
    3.2858    0.5023    0.0000 C   0  0  0  0  0  0  0  0  0  0  0  0
    2.6938   -0.3125    0.0000 C   0  0  0  0  0  0  0  0  0  0  0  0
    1.7360   -0.0012    0.0000 C   0  0  0  0  0  0  0  0  0  0  0  0
    0.8680   -0.4978    0.0000 C   0  0  0  0  0  0  0  0  0  0  0  0
    0.0000    0.0000    0.0000 C   0  0  0  0  0  0  0  0  0  0  0  0
    0.0000    1.0058    0.0000 C   0  0  0  0  0  0  0  0  0  0  0  0
    0.8680    1.5138    0.0000 C   0  0  0  0  0  0  0  0  0  0  0  0
    1.7360    1.0058    0.0000 C   0  0  0  0  0  0  0  0  0  0  0  0
    2.6938    1.3169    0.0000 N   0  0  0  0  0  0  0  0  0  0  0  0
   -0.8653   -0.5013    0.0000 O   0  0  0  0  0  0  0  0  0  0  0  0
   -0.8639   -1.5013    0.0000 C   0  0  0  0  0  0  0  0  0  0  0  0
  1  2  1  0  0  0  0
  2  3  2  0  0  0  0
  2  4  1  0  0  0  0
  4  5  1  0  0  0  0
  5 13  1  0  0  0  0
  5  6  2  0  0  0  0
  6  7  1  0  0  0  0
  7 12  2  0  0  0  0
  7  8  1  0  0  0  0
  8  9  2  0  0  0  0
  9 10  1  0  0  0  0
 10 11  2  0  0  0  0
 11 12  1  0  0  0  0
 12 13  1  0  0  0  0
  9 14  1  0  0  0  0
 14 15  1  0  0  0  0
M  END
$$$$
s_240690b____13025580____13151248
  -OEChem-03222016482D

 19 20  0     0  0  0  0  0  0999 V2000
    0.0012   -1.9973    0.0000 C   0  0  0  0  0  0  0  0  0  0  0  0
    0.8675   -1.4978    0.0000 O   0  0  0  0  0  0  0  0  0  0  0  0
    0.8680   -0.4978    0.0000 C   0  0  0  0  0  0  0  0  0  0  0  0
    0.0000    0.0000    0.0000 C   0  0  0  0  0  0  0  0  0  0  0  0
   -0.0000    1.0058    0.0000 C   0  0  0  0  0  0  0  0  0  0  0  0
    0.8680    1.5138    0.0000 C   0  0  0  0  0  0  0  0  0  0  0  0
    1.7360    1.0058    0.0000 C   0  0  0  0  0  0  0  0  0  0  0  0
    1.7360   -0.0012    0.0000 C   0  0  0  0  0  0  0  0  0  0  0  0
    2.6938   -0.3125    0.0000 C   0  0  0  0  0  0  0  0  0  0  0  0
    3.2858    0.5023    0.0000 C   0  0  0  0  0  0  0  0  0  0  0  0
    2.6938    1.3169    0.0000 N   0  0  0  0  0  0  0  0  0  0  0  0
    3.0028   -1.2636    0.0000 C   0  0  0  0  0  0  0  0  0  0  0  0
    3.9809   -1.4715    0.0000 C   0  0  0  0  0  0  0  0  0  0  0  0
    4.2899   -2.4226    0.0000 N   0  0  0  0  0  0  0  0  0  0  0  0
    5.2680   -2.6306    0.0000 C   0  0  0  0  0  0  0  0  0  0  0  0
    5.9372   -1.8874    0.0000 O   0  0  0  0  0  0  0  0  0  0  0  0
    5.5770   -3.5816    0.0000 C   0  0  0  0  0  0  0  0  0  0  0  0
    6.5551   -3.7896    0.0000 O   0  0  0  0  0  0  0  0  0  0  0  0
    6.8641   -4.7407    0.0000 N   0  0  0  0  0  0  0  0  0  0  0  0
  1  2  1  0  0  0  0
  2  3  1  0  0  0  0
  3  8  2  0  0  0  0
  3  4  1  0  0  0  0
  4  5  2  0  0  0  0
  5  6  1  0  0  0  0
  6  7  2  0  0  0  0
  7 11  1  0  0  0  0
  7  8  1  0  0  0  0
  8  9  1  0  0  0  0
  9 10  2  0  0  0  0
 10 11  1  0  0  0  0
  9 12  1  0  0  0  0
 12 13  1  0  0  0  0
 13 14  1  0  0  0  0
 14 15  1  0  0  0  0
 15 16  2  0  0  0  0
 15 17  1  0  0  0  0
 17 18  1  0  0  0  0
 18 19  1  0  0  0  0
M  END
$$$$
s_240690b____7351080____13151248
  -OEChem-03222016482D

 17 18  0     0  0  0  0  0  0999 V2000
    0.0000    0.0000    0.0000 C   0  0  0  0  0  0  0  0  0  0  0  0
   -0.0000    1.0058    0.0000 C   0  0  0  0  0  0  0  0  0  0  0  0
    0.8680    1.5138    0.0000 C   0  0  0  0  0  0  0  0  0  0  0  0
    1.7360    1.0058    0.0000 C   0  0  0  0  0  0  0  0  0  0  0  0
    1.7360   -0.0012    0.0000 C   0  0  0  0  0  0  0  0  0  0  0  0
    0.8680   -0.4978    0.0000 C   0  0  0  0  0  0  0  0  0  0  0  0
    2.6938   -0.3125    0.0000 C   0  0  0  0  0  0  0  0  0  0  0  0
    3.2858    0.5023    0.0000 C   0  0  0  0  0  0  0  0  0  0  0  0
    2.6938    1.3169    0.0000 N   0  0  0  0  0  0  0  0  0  0  0  0
    3.0028   -1.2636    0.0000 C   0  0  0  0  0  0  0  0  0  0  0  0
    3.9809   -1.4715    0.0000 C   0  0  0  0  0  0  0  0  0  0  0  0
    4.2899   -2.4226    0.0000 N   0  0  0  0  0  0  0  0  0  0  0  0
    5.2680   -2.6306    0.0000 C   0  0  0  0  0  0  0  0  0  0  0  0
    5.9372   -1.8874    0.0000 O   0  0  0  0  0  0  0  0  0  0  0  0
    5.5770   -3.5816    0.0000 C   0  0  0  0  0  0  0  0  0  0  0  0
    6.5551   -3.7896    0.0000 O   0  0  0  0  0  0  0  0  0  0  0  0
    6.8641   -4.7407    0.0000 N   0  0  0  0  0  0  0  0  0  0  0  0
  1  6  2  0  0  0  0
  1  2  1  0  0  0  0
  2  3  2  0  0  0  0
  3  4  1  0  0  0  0
  4  9  1  0  0  0  0
  4  5  2  0  0  0  0
  5  6  1  0  0  0  0
  5  7  1  0  0  0  0
  7  8  2  0  0  0  0
  8  9  1  0  0  0  0
  7 10  1  0  0  0  0
 10 11  1  0  0  0  0
 11 12  1  0  0  0  0
 12 13  1  0  0  0  0
 13 14  2  0  0  0  0
 13 15  1  0  0  0  0
 15 16  1  0  0  0  0
 16 17  1  0  0  0  0
M  END
$$$$
s_22____13771018____58886
  -OEChem-03222016482D

 21 22  0     0  0  0  0  0  0999 V2000
   -3.4641   -0.0050    0.0000 C   0  0  0  0  0  0  0  0  0  0  0  0
   -2.5974   -0.5038    0.0000 C   0  0  0  0  0  0  0  0  0  0  0  0
   -1.7320   -0.0025    0.0000 C   0  0  0  0  0  0  0  0  0  0  0  0
   -0.8653   -0.5013    0.0000 O   0  0  0  0  0  0  0  0  0  0  0  0
    0.0000    0.0000    0.0000 C   0  0  0  0  0  0  0  0  0  0  0  0
   -0.0000    1.0058    0.0000 C   0  0  0  0  0  0  0  0  0  0  0  0
    0.8680    1.5138    0.0000 C   0  0  0  0  0  0  0  0  0  0  0  0
    1.7360    1.0058    0.0000 C   0  0  0  0  0  0  0  0  0  0  0  0
    1.7360   -0.0012    0.0000 C   0  0  0  0  0  0  0  0  0  0  0  0
    0.8680   -0.4978    0.0000 C   0  0  0  0  0  0  0  0  0  0  0  0
    2.6938   -0.3125    0.0000 C   0  0  0  0  0  0  0  0  0  0  0  0
    3.2858    0.5023    0.0000 C   0  0  0  0  0  0  0  0  0  0  0  0
    2.6938    1.3169    0.0000 N   0  0  0  0  0  0  0  0  0  0  0  0
    3.0028   -1.2636    0.0000 C   0  0  0  0  0  0  0  0  0  0  0  0
    3.9809   -1.4715    0.0000 C   0  0  0  0  0  0  0  0  0  0  0  0
    4.2899   -2.4226    0.0000 N   0  0  0  0  0  0  0  0  0  0  0  0
    5.2680   -2.6306    0.0000 C   0  0  0  0  0  0  0  0  0  0  0  0
    5.9372   -1.8874    0.0000 O   0  0  0  0  0  0  0  0  0  0  0  0
    5.5770   -3.5816    0.0000 C   0  0  0  0  0  0  0  0  0  0  0  0
    6.5551   -3.7896    0.0000 F   0  0  0  0  0  0  0  0  0  0  0  0
    4.9078   -4.3247    0.0000 F   0  0  0  0  0  0  0  0  0  0  0  0
  1  2  1  0  0  0  0
  2  3  1  0  0  0  0
  3  4  1  0  0  0  0
  4  5  1  0  0  0  0
  5 10  2  0  0  0  0
  5  6  1  0  0  0  0
  6  7  2  0  0  0  0
  7  8  1  0  0  0  0
  8 13  1  0  0  0  0
  8  9  2  0  0  0  0
  9 10  1  0  0  0  0
  9 11  1  0  0  0  0
 11 12  2  0  0  0  0
 12 13  1  0  0  0  0
 11 14  1  0  0  0  0
 14 15  1  0  0  0  0
 15 16  1  0  0  0  0
 16 17  1  0  0  0  0
 17 18  2  0  0  0  0
 17 19  1  0  0  0  0
 19 20  1  0  0  0  0
 19 21  1  0  0  0  0
M  END
$$$$
s_22____16720536____8794444
  -OEChem-03222016482D

 18 19  0     0  0  0  0  0  0999 V2000
    0.0000    0.0000    0.0000 C   0  0  0  0  0  0  0  0  0  0  0  0
    0.8680   -0.4978    0.0000 C   0  0  0  0  0  0  0  0  0  0  0  0
    1.7360   -0.0012    0.0000 C   0  0  0  0  0  0  0  0  0  0  0  0
    2.6938   -0.3125    0.0000 C   0  0  0  0  0  0  0  0  0  0  0  0
    3.2858    0.5023    0.0000 C   0  0  0  0  0  0  0  0  0  0  0  0
    2.6938    1.3169    0.0000 N   0  0  0  0  0  0  0  0  0  0  0  0
    1.7360    1.0058    0.0000 C   0  0  0  0  0  0  0  0  0  0  0  0
    0.8680    1.5138    0.0000 C   0  0  0  0  0  0  0  0  0  0  0  0
    0.0000    1.0058    0.0000 C   0  0  0  0  0  0  0  0  0  0  0  0
    0.8680    2.5138    0.0000 Br  0  0  0  0  0  0  0  0  0  0  0  0
    3.0028   -1.2636    0.0000 C   0  0  0  0  0  0  0  0  0  0  0  0
    3.9809   -1.4715    0.0000 C   0  0  0  0  0  0  0  0  0  0  0  0
    4.2899   -2.4226    0.0000 N   0  0  0  0  0  0  0  0  0  0  0  0
    5.2680   -2.6306    0.0000 C   0  0  0  0  0  0  0  0  0  0  0  0
    5.9372   -1.8874    0.0000 O   0  0  0  0  0  0  0  0  0  0  0  0
    5.5770   -3.5816    0.0000 C   0  0  0  0  0  0  0  0  0  0  0  0
    6.5551   -3.7896    0.0000 C   0  0  0  0  0  0  0  0  0  0  0  0
    7.5333   -3.9976    0.0000 N   0  0  0  0  0  0  0  0  0  0  0  0
  1  9  2  0  0  0  0
  1  2  1  0  0  0  0
  2  3  2  0  0  0  0
  3  7  1  0  0  0  0
  3  4  1  0  0  0  0
  4  5  2  0  0  0  0
  5  6  1  0  0  0  0
  6  7  1  0  0  0  0
  7  8  2  0  0  0  0
  8  9  1  0  0  0  0
  8 10  1  0  0  0  0
  4 11  1  0  0  0  0
 11 12  1  0  0  0  0
 12 13  1  0  0  0  0
 13 14  1  0  0  0  0
 14 15  2  0  0  0  0
 14 16  1  0  0  0  0
 16 17  1  0  0  0  0
 17 18  3  0  0  0  0
M  END
$$$$
s_270062____15273234____8147258
  -OEChem-03222016482D

 16 17  0     0  0  0  0  0  0999 V2000
   -0.0000    1.0058    0.0000 C   0  0  0  0  0  0  0  0  0  0  0  0
    0.8680    1.5138    0.0000 C   0  0  0  0  0  0  0  0  0  0  0  0
    1.7360    1.0058    0.0000 C   0  0  0  0  0  0  0  0  0  0  0  0
    1.7360   -0.0012    0.0000 C   0  0  0  0  0  0  0  0  0  0  0  0
    0.8680   -0.4978    0.0000 C   0  0  0  0  0  0  0  0  0  0  0  0
    0.0000    0.0000    0.0000 C   0  0  0  0  0  0  0  0  0  0  0  0
   -0.8653   -0.5013    0.0000 F   0  0  0  0  0  0  0  0  0  0  0  0
    2.6938   -0.3125    0.0000 C   0  0  0  0  0  0  0  0  0  0  0  0
    3.2858    0.5023    0.0000 C   0  0  0  0  0  0  0  0  0  0  0  0
    2.6938    1.3169    0.0000 N   0  0  0  0  0  0  0  0  0  0  0  0
    3.0028   -1.2636    0.0000 C   0  0  0  0  0  0  0  0  0  0  0  0
    3.9809   -1.4715    0.0000 N   0  0  0  0  0  0  0  0  0  0  0  0
    4.2899   -2.4226    0.0000 C   0  0  0  0  0  0  0  0  0  0  0  0
    3.6207   -3.1657    0.0000 O   0  0  0  0  0  0  0  0  0  0  0  0
    5.2680   -2.6306    0.0000 C   0  0  0  0  0  0  0  0  0  0  0  0
    5.5770   -3.5816    0.0000 Cl  0  0  0  0  0  0  0  0  0  0  0  0
  1  6  2  0  0  0  0
  1  2  1  0  0  0  0
  2  3  2  0  0  0  0
  3 10  1  0  0  0  0
  3  4  1  0  0  0  0
  4  5  2  0  0  0  0
  5  6  1  0  0  0  0
  6  7  1  0  0  0  0
  4  8  1  0  0  0  0
  8  9  2  0  0  0  0
  9 10  1  0  0  0  0
  8 11  1  0  0  0  0
 11 12  1  0  0  0  0
 12 13  1  0  0  0  0
 13 14  2  0  0  0  0
 13 15  1  0  0  0  0
 15 16  1  0  0  0  0
M  END
$$$$
s_273270____16380490____10884640
  -OEChem-03222016482D

 20 21  0     0  0  0  0  0  0999 V2000
   -3.4641   -0.0050    0.0000 C   0  0  0  0  0  0  0  0  0  0  0  0
   -2.5974   -0.5038    0.0000 C   0  0  0  0  0  0  0  0  0  0  0  0
   -1.7320   -0.0025    0.0000 C   0  0  0  0  0  0  0  0  0  0  0  0
   -0.8653   -0.5013    0.0000 O   0  0  0  0  0  0  0  0  0  0  0  0
    0.0000    0.0000    0.0000 C   0  0  0  0  0  0  0  0  0  0  0  0
   -0.0000    1.0058    0.0000 C   0  0  0  0  0  0  0  0  0  0  0  0
    0.8680    1.5138    0.0000 C   0  0  0  0  0  0  0  0  0  0  0  0
    1.7360    1.0058    0.0000 C   0  0  0  0  0  0  0  0  0  0  0  0
    1.7360   -0.0012    0.0000 C   0  0  0  0  0  0  0  0  0  0  0  0
    0.8680   -0.4978    0.0000 C   0  0  0  0  0  0  0  0  0  0  0  0
    2.6938   -0.3125    0.0000 C   0  0  0  0  0  0  0  0  0  0  0  0
    3.2858    0.5023    0.0000 C   0  0  0  0  0  0  0  0  0  0  0  0
    2.6938    1.3169    0.0000 N   0  0  0  0  0  0  0  0  0  0  0  0
    3.0028   -1.2636    0.0000 C   0  0  0  0  0  0  0  0  0  0  0  0
    3.9809   -1.4715    0.0000 C   0  0  0  0  0  0  0  0  0  0  0  0
    4.2899   -2.4226    0.0000 N   0  0  0  0  0  0  0  0  0  0  0  0
    5.2680   -2.6306    0.0000 C   0  0  0  0  0  0  0  0  0  0  0  0
    5.9372   -1.8874    0.0000 O   0  0  0  0  0  0  0  0  0  0  0  0
    5.5770   -3.5816    0.0000 C   0  0  0  0  0  0  0  0  0  0  0  0
    6.5551   -3.7896    0.0000 C   0  0  0  0  0  0  0  0  0  0  0  0
  1  2  1  0  0  0  0
  2  3  1  0  0  0  0
  3  4  1  0  0  0  0
  4  5  1  0  0  0  0
  5 10  2  0  0  0  0
  5  6  1  0  0  0  0
  6  7  2  0  0  0  0
  7  8  1  0  0  0  0
  8 13  1  0  0  0  0
  8  9  2  0  0  0  0
  9 10  1  0  0  0  0
  9 11  1  0  0  0  0
 11 12  2  0  0  0  0
 12 13  1  0  0  0  0
 11 14  1  0  0  0  0
 14 15  1  0  0  0  0
 15 16  1  0  0  0  0
 16 17  1  0  0  0  0
 17 18  2  0  0  0  0
 17 19  1  0  0  0  0
 19 20  2  0  0  0  0
M  END
$$$$
s_22____3219394____7941096
  -OEChem-03222016482D

 18 19  0     1  0  0  0  0  0999 V2000
    0.8675   -1.4978    0.0000 C   0  0  0  0  0  0  0  0  0  0  0  0
    0.8680   -0.4978    0.0000 C   0  0  0  0  0  0  0  0  0  0  0  0
    0.0000    0.0000    0.0000 C   0  0  0  0  0  0  0  0  0  0  0  0
   -0.0000    1.0058    0.0000 C   0  0  0  0  0  0  0  0  0  0  0  0
    0.8680    1.5138    0.0000 C   0  0  0  0  0  0  0  0  0  0  0  0
    1.7360    1.0058    0.0000 C   0  0  0  0  0  0  0  0  0  0  0  0
    1.7360   -0.0012    0.0000 C   0  0  0  0  0  0  0  0  0  0  0  0
    2.6938   -0.3125    0.0000 C   0  0  0  0  0  0  0  0  0  0  0  0
    3.2858    0.5023    0.0000 C   0  0  0  0  0  0  0  0  0  0  0  0
    2.6938    1.3169    0.0000 N   0  0  0  0  0  0  0  0  0  0  0  0
    3.0028   -1.2636    0.0000 C   0  0  0  0  0  0  0  0  0  0  0  0
    3.9809   -1.4715    0.0000 C   0  0  0  0  0  0  0  0  0  0  0  0
    4.2899   -2.4226    0.0000 N   0  0  0  0  0  0  0  0  0  0  0  0
    5.2680   -2.6306    0.0000 C   0  0  0  0  0  0  0  0  0  0  0  0
    5.9372   -1.8874    0.0000 O   0  0  0  0  0  0  0  0  0  0  0  0
    5.5770   -3.5816    0.0000 C   0  0  3  0  0  0  0  0  0  0  0  0
    6.5551   -3.7896    0.0000 C   0  0  0  0  0  0  0  0  0  0  0  0
    4.9078   -4.3247    0.0000 O   0  0  0  0  0  0  0  0  0  0  0  0
  1  2  1  0  0  0  0
  2  7  2  0  0  0  0
  2  3  1  0  0  0  0
  3  4  2  0  0  0  0
  4  5  1  0  0  0  0
  5  6  2  0  0  0  0
  6 10  1  0  0  0  0
  6  7  1  0  0  0  0
  7  8  1  0  0  0  0
  8  9  2  0  0  0  0
  9 10  1  0  0  0  0
  8 11  1  0  0  0  0
 11 12  1  0  0  0  0
 12 13  1  0  0  0  0
 13 14  1  0  0  0  0
 14 15  2  0  0  0  0
 14 16  1  0  0  0  0
 16 17  1  0  0  0  0
 16 18  1  0  0  0  0
M  END
$$$$
s_240690b____17036622____7368582
  -OEChem-03222016482D

 18 19  0     0  0  0  0  0  0999 V2000
    5.9988   -4.2477    0.0000 C   0  0  0  0  0  0  0  0  0  0  0  0
    5.6909   -3.2963    0.0000 N   0  3  0  0  0  0  0  0  0  0  0  0
    4.7129   -3.0873    0.0000 C   0  0  0  0  0  0  0  0  0  0  0  0
    4.4050   -2.1359    0.0000 C   0  0  0  0  0  0  0  0  0  0  0  0
    5.0749   -1.3935    0.0000 O   0  0  0  0  0  0  0  0  0  0  0  0
    3.4271   -1.9269    0.0000 N   0  0  0  0  0  0  0  0  0  0  0  0
    3.1191   -0.9755    0.0000 C   0  0  0  0  0  0  0  0  0  0  0  0
    2.1412   -0.7665    0.0000 C   0  0  0  0  0  0  0  0  0  0  0  0
    1.8332    0.1849    0.0000 C   0  0  0  0  0  0  0  0  0  0  0  0
    2.4247    0.9971    0.0000 C   0  0  0  0  0  0  0  0  0  0  0  0
    1.8349    1.8105    0.0000 N   0  0  0  0  0  0  0  0  0  0  0  0
    0.8791    1.5011    0.0000 C   0  0  0  0  0  0  0  0  0  0  0  0
    0.8780    0.4964    0.0000 C   0  0  0  0  0  0  0  0  0  0  0  0
    0.0000    0.0000    0.0000 C   0  0  0  0  0  0  0  0  0  0  0  0
   -0.8635    0.5043    0.0000 C   0  0  0  0  0  0  0  0  0  0  0  0
   -0.8584    1.5098    0.0000 N   0  0  0  0  0  0  0  0  0  0  0  0
    0.0101    2.0110    0.0000 C   0  0  0  0  0  0  0  0  0  0  0  0
   -1.7320    0.0087    0.0000 Cl  0  0  0  0  0  0  0  0  0  0  0  0
  1  2  1  0  0  0  0
  2  3  1  0  0  0  0
  3  4  1  0  0  0  0
  4  5  2  0  0  0  0
  4  6  1  0  0  0  0
  6  7  1  0  0  0  0
  7  8  1  0  0  0  0
  8  9  1  0  0  0  0
  9 13  1  0  0  0  0
  9 10  2  0  0  0  0
 10 11  1  0  0  0  0
 11 12  1  0  0  0  0
 12 17  2  0  0  0  0
 12 13  1  0  0  0  0
 13 14  2  0  0  0  0
 14 15  1  0  0  0  0
 15 16  2  0  0  0  0
 16 17  1  0  0  0  0
 15 18  1  0  0  0  0
M  CHG  1   2   1
M  END
$$$$
