Z1220452176
  -OEChem-03262007552D

 16 17  0     0  0  0  0  0  0999 V2000
    5.5770   -3.5816    0.0000 C   0  0  0  0  0  0  0  0  0  0  0  0
    5.2680   -2.6306    0.0000 C   0  0  0  0  0  0  0  0  0  0  0  0
    5.9372   -1.8874    0.0000 O   0  0  0  0  0  0  0  0  0  0  0  0
    4.2899   -2.4226    0.0000 N   0  0  0  0  0  0  0  0  0  0  0  0
    3.9809   -1.4715    0.0000 C   0  0  0  0  0  0  0  0  0  0  0  0
    3.0028   -1.2636    0.0000 C   0  0  0  0  0  0  0  0  0  0  0  0
    2.6938   -0.3125    0.0000 C   0  0  0  0  0  0  0  0  0  0  0  0
    3.2858    0.5023    0.0000 C   0  0  0  0  0  0  0  0  0  0  0  0
    2.6938    1.3169    0.0000 N   0  0  0  0  0  0  0  0  0  0  0  0
    1.7360    1.0058    0.0000 C   0  0  0  0  0  0  0  0  0  0  0  0
    0.8680    1.5138    0.0000 C   0  0  0  0  0  0  0  0  0  0  0  0
    0.0000    1.0058    0.0000 C   0  0  0  0  0  0  0  0  0  0  0  0
    0.0000    0.0000    0.0000 C   0  0  0  0  0  0  0  0  0  0  0  0
   -0.8653   -0.5013    0.0000 F   0  0  0  0  0  0  0  0  0  0  0  0
    0.8680   -0.4978    0.0000 C   0  0  0  0  0  0  0  0  0  0  0  0
    1.7360   -0.0012    0.0000 C   0  0  0  0  0  0  0  0  0  0  0  0
  1  2  1  0  0  0  0
  2  3  2  0  0  0  0
  2  4  1  0  0  0  0
  4  5  1  0  0  0  0
  5  6  1  0  0  0  0
  6  7  1  0  0  0  0
  7 16  1  0  0  0  0
  7  8  2  0  0  0  0
  8  9  1  0  0  0  0
  9 10  1  0  0  0  0
 10 16  2  0  0  0  0
 10 11  1  0  0  0  0
 11 12  2  0  0  0  0
 12 13  1  0  0  0  0
 13 14  1  0  0  0  0
 13 15  2  0  0  0  0
 15 16  1  0  0  0  0
M  END
$$$$
Melatonin
  -OEChem-03262007552D

 17 18  0     0  0  0  0  0  0999 V2000
   -1.7320   -0.0025    0.0000 C   0  0  0  0  0  0  0  0  0  0  0  0
   -0.8653   -0.5013    0.0000 O   0  0  0  0  0  0  0  0  0  0  0  0
    0.0000    0.0000    0.0000 C   0  0  0  0  0  0  0  0  0  0  0  0
    0.8680   -0.4978    0.0000 C   0  0  0  0  0  0  0  0  0  0  0  0
    1.7360   -0.0012    0.0000 C   0  0  0  0  0  0  0  0  0  0  0  0
    1.7360    1.0058    0.0000 C   0  0  0  0  0  0  0  0  0  0  0  0
    2.6938    1.3169    0.0000 N   0  0  0  0  0  0  0  0  0  0  0  0
    3.2858    0.5023    0.0000 C   0  0  0  0  0  0  0  0  0  0  0  0
    2.6938   -0.3125    0.0000 C   0  0  0  0  0  0  0  0  0  0  0  0
    3.0028   -1.2636    0.0000 C   0  0  0  0  0  0  0  0  0  0  0  0
    3.9809   -1.4715    0.0000 C   0  0  0  0  0  0  0  0  0  0  0  0
    4.2899   -2.4226    0.0000 N   0  0  0  0  0  0  0  0  0  0  0  0
    5.2680   -2.6306    0.0000 C   0  0  0  0  0  0  0  0  0  0  0  0
    5.5770   -3.5816    0.0000 C   0  0  0  0  0  0  0  0  0  0  0  0
    5.9372   -1.8874    0.0000 O   0  0  0  0  0  0  0  0  0  0  0  0
    0.8680    1.5138    0.0000 C   0  0  0  0  0  0  0  0  0  0  0  0
    0.0000    1.0058    0.0000 C   0  0  0  0  0  0  0  0  0  0  0  0
  1  2  1  0  0  0  0
  2  3  1  0  0  0  0
  3 17  1  0  0  0  0
  3  4  2  0  0  0  0
  4  5  1  0  0  0  0
  5  9  1  0  0  0  0
  5  6  2  0  0  0  0
  6  7  1  0  0  0  0
  7  8  1  0  0  0  0
  8  9  2  0  0  0  0
  9 10  1  0  0  0  0
 10 11  1  0  0  0  0
 11 12  1  0  0  0  0
 12 13  1  0  0  0  0
 13 14  1  0  0  0  0
 13 15  2  0  0  0  0
  6 16  1  0  0  0  0
 16 17  2  0  0  0  0
M  END
$$$$
6-Hydroxymelatonin
  -OEChem-03262007552D

 18 19  0     0  0  0  0  0  0999 V2000
   -1.7320   -0.0025    0.0000 C   0  0  0  0  0  0  0  0  0  0  0  0
   -0.8653   -0.5013    0.0000 O   0  0  0  0  0  0  0  0  0  0  0  0
    0.0000    0.0000    0.0000 C   0  0  0  0  0  0  0  0  0  0  0  0
    0.8680   -0.4978    0.0000 C   0  0  0  0  0  0  0  0  0  0  0  0
    1.7360   -0.0012    0.0000 C   0  0  0  0  0  0  0  0  0  0  0  0
    2.6938   -0.3125    0.0000 C   0  0  0  0  0  0  0  0  0  0  0  0
    3.0028   -1.2636    0.0000 C   0  0  0  0  0  0  0  0  0  0  0  0
    3.9809   -1.4715    0.0000 C   0  0  0  0  0  0  0  0  0  0  0  0
    4.2899   -2.4226    0.0000 N   0  0  0  0  0  0  0  0  0  0  0  0
    5.2680   -2.6306    0.0000 C   0  0  0  0  0  0  0  0  0  0  0  0
    5.5770   -3.5816    0.0000 C   0  0  0  0  0  0  0  0  0  0  0  0
    5.9372   -1.8874    0.0000 O   0  0  0  0  0  0  0  0  0  0  0  0
    3.2858    0.5023    0.0000 C   0  0  0  0  0  0  0  0  0  0  0  0
    2.6938    1.3169    0.0000 N   0  0  0  0  0  0  0  0  0  0  0  0
    1.7360    1.0058    0.0000 C   0  0  0  0  0  0  0  0  0  0  0  0
    0.8680    1.5138    0.0000 C   0  0  0  0  0  0  0  0  0  0  0  0
    0.0000    1.0058    0.0000 C   0  0  0  0  0  0  0  0  0  0  0  0
   -0.8675    1.5032    0.0000 O   0  0  0  0  0  0  0  0  0  0  0  0
  1  2  1  0  0  0  0
  2  3  1  0  0  0  0
  3 17  2  0  0  0  0
  3  4  1  0  0  0  0
  4  5  2  0  0  0  0
  5 15  1  0  0  0  0
  5  6  1  0  0  0  0
  6  7  1  0  0  0  0
  7  8  1  0  0  0  0
  8  9  1  0  0  0  0
  9 10  1  0  0  0  0
 10 11  1  0  0  0  0
 10 12  2  0  0  0  0
  6 13  2  0  0  0  0
 13 14  1  0  0  0  0
 14 15  1  0  0  0  0
 15 16  2  0  0  0  0
 16 17  1  0  0  0  0
 17 18  1  0  0  0  0
M  END
$$$$
6-Hydroxymelatonin sulfate
  -OEChem-03262007552D

 22 23  0     0  0  0  0  0  0999 V2000
    5.5770   -3.5816    0.0000 C   0  0  0  0  0  0  0  0  0  0  0  0
    5.2680   -2.6306    0.0000 C   0  0  0  0  0  0  0  0  0  0  0  0
    5.9372   -1.8874    0.0000 O   0  0  0  0  0  0  0  0  0  0  0  0
    4.2899   -2.4226    0.0000 N   0  0  0  0  0  0  0  0  0  0  0  0
    3.9809   -1.4715    0.0000 C   0  0  0  0  0  0  0  0  0  0  0  0
    3.0028   -1.2636    0.0000 C   0  0  0  0  0  0  0  0  0  0  0  0
    2.6938   -0.3125    0.0000 C   0  0  0  0  0  0  0  0  0  0  0  0
    3.2858    0.5023    0.0000 C   0  0  0  0  0  0  0  0  0  0  0  0
    2.6938    1.3169    0.0000 N   0  0  0  0  0  0  0  0  0  0  0  0
    1.7360    1.0058    0.0000 C   0  0  0  0  0  0  0  0  0  0  0  0
    0.8680    1.5138    0.0000 C   0  0  0  0  0  0  0  0  0  0  0  0
    0.0000    1.0058    0.0000 C   0  0  0  0  0  0  0  0  0  0  0  0
    0.0000    0.0000    0.0000 C   0  0  0  0  0  0  0  0  0  0  0  0
    0.8680   -0.4978    0.0000 C   0  0  0  0  0  0  0  0  0  0  0  0
    1.7360   -0.0012    0.0000 C   0  0  0  0  0  0  0  0  0  0  0  0
   -0.8653   -0.5013    0.0000 O   0  0  0  0  0  0  0  0  0  0  0  0
   -0.8639   -1.5013    0.0000 C   0  0  0  0  0  0  0  0  0  0  0  0
   -0.8675    1.5032    0.0000 O   0  0  0  0  0  0  0  0  0  0  0  0
   -0.8705    2.5032    0.0000 S   0  0  0  0  0  0  0  0  0  0  0  0
    0.1295    2.5062    0.0000 O   0  0  0  0  0  0  0  0  0  0  0  0
   -1.8704    2.5003    0.0000 O   0  0  0  0  0  0  0  0  0  0  0  0
   -0.8734    3.5032    0.0000 O   0  0  0  0  0  0  0  0  0  0  0  0
  1  2  1  0  0  0  0
  2  3  2  0  0  0  0
  2  4  1  0  0  0  0
  4  5  1  0  0  0  0
  5  6  1  0  0  0  0
  6  7  1  0  0  0  0
  7 15  1  0  0  0  0
  7  8  2  0  0  0  0
  8  9  1  0  0  0  0
  9 10  1  0  0  0  0
 10 15  1  0  0  0  0
 10 11  2  0  0  0  0
 11 12  1  0  0  0  0
 12 13  2  0  0  0  0
 13 14  1  0  0  0  0
 14 15  2  0  0  0  0
 13 16  1  0  0  0  0
 16 17  1  0  0  0  0
 12 18  1  0  0  0  0
 18 19  1  0  0  0  0
 19 20  2  0  0  0  0
 19 21  2  0  0  0  0
 19 22  1  0  0  0  0
M  END
$$$$
6-Hydroxymelatonin glucuronide
  -OEChem-03262007552D

 30 32  0     1  0  0  0  0  0999 V2000
    2.9959    7.1694    0.0000 C   0  0  0  0  0  0  0  0  0  0  0  0
    2.6530    6.2300    0.0000 C   0  0  0  0  0  0  0  0  0  0  0  0
    3.2950    5.4633    0.0000 O   0  0  0  0  0  0  0  0  0  0  0  0
    1.6680    6.0573    0.0000 N   0  0  0  0  0  0  0  0  0  0  0  0
    1.3251    5.1179    0.0000 C   0  0  0  0  0  0  0  0  0  0  0  0
    0.3401    4.9452    0.0000 C   0  0  0  0  0  0  0  0  0  0  0  0
   -0.0028    4.0059    0.0000 C   0  0  3  0  0  0  0  0  0  0  0  0
    0.0001    3.0058    0.0000 C   0  0  3  0  0  0  0  0  0  0  0  0
   -0.8705    2.5032    0.0000 C   0  0  3  0  0  0  0  0  0  0  0  0
   -1.7439    3.0007    0.0000 O   0  0  0  0  0  0  0  0  0  0  0  0
   -1.7380    4.0058    0.0000 C   0  0  3  0  0  0  0  0  0  0  0  0
   -0.8674    4.5084    0.0000 C   0  0  3  0  0  0  0  0  0  0  0  0
   -0.8660    5.5084    0.0000 O   0  0  0  0  0  0  0  0  0  0  0  0
   -3.4626    3.7087    0.0000 C   0  0  0  0  0  0  0  0  0  0  0  0
   -4.1023    4.4772    0.0000 O   0  0  0  0  0  0  0  0  0  0  0  0
   -3.8083    2.7703    0.0000 O   0  0  0  0  0  0  0  0  0  0  0  0
   -2.0781    4.9461    0.0000 O   0  0  0  0  0  0  0  0  0  0  0  0
   -3.0626    5.1217    0.0000 C   0  0  0  0  0  0  0  0  0  0  0  0
   -0.8675    1.5032    0.0000 O   0  0  0  0  0  0  0  0  0  0  0  0
   -0.0000    1.0058    0.0000 C   0  0  0  0  0  0  0  0  0  0  0  0
    0.8680    1.5138    0.0000 C   0  0  0  0  0  0  0  0  0  0  0  0
    1.7360    1.0058    0.0000 C   0  0  0  0  0  0  0  0  0  0  0  0
    1.7360   -0.0012    0.0000 C   0  0  0  0  0  0  0  0  0  0  0  0
    0.8680   -0.4978    0.0000 C   0  0  0  0  0  0  0  0  0  0  0  0
    0.0000    0.0000    0.0000 C   0  0  0  0  0  0  0  0  0  0  0  0
    2.6938   -0.3125    0.0000 C   0  0  0  0  0  0  0  0  0  0  0  0
    3.2858    0.5023    0.0000 C   0  0  0  0  0  0  0  0  0  0  0  0
    2.6938    1.3169    0.0000 N   0  0  0  0  0  0  0  0  0  0  0  0
    0.8668    2.5071    0.0000 O   0  0  0  0  0  0  0  0  0  0  0  0
    0.9821    3.8332    0.0000 O   0  0  0  0  0  0  0  0  0  0  0  0
  1  2  1  0  0  0  0
  2  3  2  0  0  0  0
  2  4  1  0  0  0  0
  4  5  1  0  0  0  0
  5  6  1  0  0  0  0
  6  7  1  0  0  0  0
  7 12  1  0  0  0  0
  7  8  1  0  0  0  0
  8  9  1  0  0  0  0
  9 10  1  0  0  0  0
 10 11  1  0  0  0  0
 11 12  1  0  0  0  0
 12 13  1  0  0  0  0
 11 14  1  0  0  0  0
 14 15  2  0  0  0  0
 14 16  1  0  0  0  0
 11 17  1  0  0  0  0
 17 18  1  0  0  0  0
  9 19  1  0  0  0  0
 19 20  1  0  0  0  0
 20 25  1  0  0  0  0
 20 21  2  0  0  0  0
 21 22  1  0  0  0  0
 22 28  1  0  0  0  0
 22 23  2  0  0  0  0
 23 24  1  0  0  0  0
 24 25  2  0  0  0  0
 23 26  1  0  0  0  0
 26 27  2  0  0  0  0
 27 28  1  0  0  0  0
  8 29  1  0  0  0  0
  7 30  1  0  0  0  0
M  END
$$$$
N-Acetyl-5-hydroxytryptamine sulfate
  -OEChem-03262007552D

 20 21  0     0  0  0  0  0  0999 V2000
    5.5770   -3.5816    0.0000 C   0  0  0  0  0  0  0  0  0  0  0  0
    5.2680   -2.6306    0.0000 C   0  0  0  0  0  0  0  0  0  0  0  0
    5.9372   -1.8874    0.0000 O   0  0  0  0  0  0  0  0  0  0  0  0
    4.2899   -2.4226    0.0000 N   0  0  0  0  0  0  0  0  0  0  0  0
    3.9809   -1.4715    0.0000 C   0  0  0  0  0  0  0  0  0  0  0  0
    3.0028   -1.2636    0.0000 C   0  0  0  0  0  0  0  0  0  0  0  0
    2.6938   -0.3125    0.0000 C   0  0  0  0  0  0  0  0  0  0  0  0
    3.2858    0.5023    0.0000 C   0  0  0  0  0  0  0  0  0  0  0  0
    2.6938    1.3169    0.0000 N   0  0  0  0  0  0  0  0  0  0  0  0
    1.7360    1.0058    0.0000 C   0  0  0  0  0  0  0  0  0  0  0  0
    1.7360   -0.0012    0.0000 C   0  0  0  0  0  0  0  0  0  0  0  0
    0.8680   -0.4978    0.0000 C   0  0  0  0  0  0  0  0  0  0  0  0
    0.0000    0.0000    0.0000 C   0  0  0  0  0  0  0  0  0  0  0  0
   -0.0000    1.0058    0.0000 C   0  0  0  0  0  0  0  0  0  0  0  0
    0.8680    1.5138    0.0000 C   0  0  0  0  0  0  0  0  0  0  0  0
   -0.8653   -0.5013    0.0000 O   0  0  0  0  0  0  0  0  0  0  0  0
   -0.8639   -1.5013    0.0000 S   0  0  0  0  0  0  0  0  0  0  0  0
    0.1361   -1.4998    0.0000 O   0  0  0  0  0  0  0  0  0  0  0  0
   -1.8639   -1.5027    0.0000 O   0  0  0  0  0  0  0  0  0  0  0  0
   -0.8624   -2.5012    0.0000 O   0  5  0  0  0  0  0  0  0  0  0  0
  1  2  1  0  0  0  0
  2  3  2  0  0  0  0
  2  4  1  0  0  0  0
  4  5  1  0  0  0  0
  5  6  1  0  0  0  0
  6  7  1  0  0  0  0
  7 11  1  0  0  0  0
  7  8  2  0  0  0  0
  8  9  1  0  0  0  0
  9 10  1  0  0  0  0
 10 15  1  0  0  0  0
 10 11  2  0  0  0  0
 11 12  1  0  0  0  0
 12 13  2  0  0  0  0
 13 14  1  0  0  0  0
 14 15  2  0  0  0  0
 13 16  1  0  0  0  0
 16 17  1  0  0  0  0
 17 18  2  0  0  0  0
 17 19  2  0  0  0  0
 17 20  1  0  0  0  0
M  CHG  1  20  -1
M  END
$$$$
N-Acetyl-5-hydroxytryptamine glucuronide
  -OEChem-03262007552D

 28 30  0     1  0  0  0  0  0999 V2000
    5.5770   -3.5816    0.0000 C   0  0  0  0  0  0  0  0  0  0  0  0
    5.2680   -2.6306    0.0000 C   0  0  0  0  0  0  0  0  0  0  0  0
    5.9372   -1.8874    0.0000 O   0  0  0  0  0  0  0  0  0  0  0  0
    4.2899   -2.4226    0.0000 N   0  0  0  0  0  0  0  0  0  0  0  0
    3.9809   -1.4715    0.0000 C   0  0  0  0  0  0  0  0  0  0  0  0
    3.0028   -1.2636    0.0000 C   0  0  0  0  0  0  0  0  0  0  0  0
    2.6938   -0.3125    0.0000 C   0  0  0  0  0  0  0  0  0  0  0  0
    3.2858    0.5023    0.0000 C   0  0  0  0  0  0  0  0  0  0  0  0
    2.6938    1.3169    0.0000 N   0  0  0  0  0  0  0  0  0  0  0  0
    1.7360    1.0058    0.0000 C   0  0  0  0  0  0  0  0  0  0  0  0
    1.7360   -0.0012    0.0000 C   0  0  0  0  0  0  0  0  0  0  0  0
    0.8680   -0.4978    0.0000 C   0  0  0  0  0  0  0  0  0  0  0  0
    0.0000    0.0000    0.0000 C   0  0  0  0  0  0  0  0  0  0  0  0
   -0.0000    1.0058    0.0000 C   0  0  0  0  0  0  0  0  0  0  0  0
    0.8680    1.5138    0.0000 C   0  0  0  0  0  0  0  0  0  0  0  0
   -0.8653   -0.5013    0.0000 O   0  0  0  0  0  0  0  0  0  0  0  0
   -0.8639   -1.5013    0.0000 C   0  0  3  0  0  0  0  0  0  0  0  0
   -1.7351   -2.0025    0.0000 C   0  0  3  0  0  0  0  0  0  0  0  0
   -1.7337   -3.0026    0.0000 C   0  0  3  0  0  0  0  0  0  0  0  0
   -0.8699   -3.5064    0.0000 C   0  0  3  0  0  0  0  0  0  0  0  0
    0.0014   -3.0051    0.0000 C   0  0  3  0  0  0  0  0  0  0  0  0
    0.0088   -2.0000    0.0000 O   0  0  0  0  0  0  0  0  0  0  0  0
    0.8652   -3.5090    0.0000 C   0  0  0  0  0  0  0  0  0  0  0  0
    0.8607   -4.5090    0.0000 O   0  0  0  0  0  0  0  0  0  0  0  0
    1.7334   -3.0128    0.0000 O   0  5  0  0  0  0  0  0  0  0  0  0
   -0.8729   -4.5064    0.0000 O   0  0  0  0  0  0  0  0  0  0  0  0
   -2.6005   -3.5013    0.0000 O   0  0  0  0  0  0  0  0  0  0  0  0
   -2.6011   -1.5025    0.0000 O   0  0  0  0  0  0  0  0  0  0  0  0
  1  2  1  0  0  0  0
  2  3  2  0  0  0  0
  2  4  1  0  0  0  0
  4  5  1  0  0  0  0
  5  6  1  0  0  0  0
  6  7  1  0  0  0  0
  7 11  1  0  0  0  0
  7  8  2  0  0  0  0
  8  9  1  0  0  0  0
  9 10  1  0  0  0  0
 10 15  1  0  0  0  0
 10 11  2  0  0  0  0
 11 12  1  0  0  0  0
 12 13  2  0  0  0  0
 13 14  1  0  0  0  0
 14 15  2  0  0  0  0
 13 16  1  0  0  0  0
 16 17  1  0  0  0  0
 17 22  1  0  0  0  0
 17 18  1  0  0  0  0
 18 19  1  0  0  0  0
 19 20  1  0  0  0  0
 20 21  1  0  0  0  0
 21 22  1  0  0  0  0
 21 23  1  0  0  0  0
 23 24  2  0  0  0  0
 23 25  1  0  0  0  0
 20 26  1  0  0  0  0
 19 27  1  0  0  0  0
 18 28  1  0  0  0  0
M  CHG  1  25  -1
M  END
$$$$
5-Methoxytryptamine
  -OEChem-03262007552D

 14 15  0     0  0  0  0  0  0999 V2000
   -1.7320   -0.0025    0.0000 C   0  0  0  0  0  0  0  0  0  0  0  0
   -0.8653   -0.5013    0.0000 O   0  0  0  0  0  0  0  0  0  0  0  0
    0.0000    0.0000    0.0000 C   0  0  0  0  0  0  0  0  0  0  0  0
    0.8680   -0.4978    0.0000 C   0  0  0  0  0  0  0  0  0  0  0  0
    1.7360   -0.0012    0.0000 C   0  0  0  0  0  0  0  0  0  0  0  0
    1.7360    1.0058    0.0000 C   0  0  0  0  0  0  0  0  0  0  0  0
    0.8680    1.5138    0.0000 C   0  0  0  0  0  0  0  0  0  0  0  0
    0.0000    1.0058    0.0000 C   0  0  0  0  0  0  0  0  0  0  0  0
    2.6938    1.3169    0.0000 N   0  0  0  0  0  0  0  0  0  0  0  0
    3.2858    0.5023    0.0000 C   0  0  0  0  0  0  0  0  0  0  0  0
    2.6938   -0.3125    0.0000 C   0  0  0  0  0  0  0  0  0  0  0  0
    3.0028   -1.2636    0.0000 C   0  0  0  0  0  0  0  0  0  0  0  0
    3.9809   -1.4715    0.0000 C   0  0  0  0  0  0  0  0  0  0  0  0
    4.2899   -2.4226    0.0000 N   0  0  0  0  0  0  0  0  0  0  0  0
  1  2  1  0  0  0  0
  2  3  1  0  0  0  0
  3  8  1  0  0  0  0
  3  4  2  0  0  0  0
  4  5  1  0  0  0  0
  5 11  1  0  0  0  0
  5  6  2  0  0  0  0
  6  7  1  0  0  0  0
  7  8  2  0  0  0  0
  6  9  1  0  0  0  0
  9 10  1  0  0  0  0
 10 11  2  0  0  0  0
 11 12  1  0  0  0  0
 12 13  1  0  0  0  0
 13 14  1  0  0  0  0
M  END
$$$$
Pinolene
  -OEChem-03262007552D

 15 17  0     0  0  0  0  0  0999 V2000
   -1.6460   -0.5391    0.0000 C   0  0  0  0  0  0  0  0  0  0  0  0
   -0.6674   -0.7447    0.0000 O   0  0  0  0  0  0  0  0  0  0  0  0
    0.0000    0.0000    0.0000 C   0  0  0  0  0  0  0  0  0  0  0  0
    0.9816   -0.2059    0.0000 C   0  0  0  0  0  0  0  0  0  0  0  0
    1.6513    0.5386    0.0000 C   0  0  0  0  0  0  0  0  0  0  0  0
    1.3429    1.4971    0.0000 C   0  0  0  0  0  0  0  0  0  0  0  0
    0.3605    1.7075    0.0000 C   0  0  0  0  0  0  0  0  0  0  0  0
   -0.3143    0.9606    0.0000 C   0  0  0  0  0  0  0  0  0  0  0  0
    2.1552    2.0893    0.0000 N   0  0  0  0  0  0  0  0  0  0  0  0
    2.9705    1.4970    0.0000 C   0  0  0  0  0  0  0  0  0  0  0  0
    2.6563    0.5419    0.0000 C   0  0  0  0  0  0  0  0  0  0  0  0
    3.3258   -0.2052    0.0000 C   0  0  0  0  0  0  0  0  0  0  0  0
    4.3095    0.0013    0.0000 C   0  0  0  0  0  0  0  0  0  0  0  0
    4.6201    0.9615    0.0000 N   0  0  0  0  0  0  0  0  0  0  0  0
    3.9487    1.7045    0.0000 C   0  0  0  0  0  0  0  0  0  0  0  0
  1  2  1  0  0  0  0
  2  3  1  0  0  0  0
  3  8  1  0  0  0  0
  3  4  2  0  0  0  0
  4  5  1  0  0  0  0
  5 11  1  0  0  0  0
  5  6  2  0  0  0  0
  6  7  1  0  0  0  0
  7  8  2  0  0  0  0
  6  9  1  0  0  0  0
  9 10  1  0  0  0  0
 10 15  1  0  0  0  0
 10 11  2  0  0  0  0
 11 12  1  0  0  0  0
 12 13  1  0  0  0  0
 13 14  1  0  0  0  0
 14 15  1  0  0  0  0
M  END
$$$$
Bufotenine
  -OEChem-03262007552D

 15 16  0     0  0  0  0  0  0999 V2000
    5.2680   -2.6306    0.0000 C   0  0  0  0  0  0  0  0  0  0  0  0
    4.2899   -2.4226    0.0000 N   0  0  0  0  0  0  0  0  0  0  0  0
    3.6207   -3.1657    0.0000 C   0  0  0  0  0  0  0  0  0  0  0  0
    3.9809   -1.4715    0.0000 C   0  0  0  0  0  0  0  0  0  0  0  0
    3.0028   -1.2636    0.0000 C   0  0  0  0  0  0  0  0  0  0  0  0
    2.6938   -0.3125    0.0000 C   0  0  0  0  0  0  0  0  0  0  0  0
    3.2858    0.5023    0.0000 C   0  0  0  0  0  0  0  0  0  0  0  0
    2.6938    1.3169    0.0000 N   0  0  0  0  0  0  0  0  0  0  0  0
    1.7360    1.0058    0.0000 C   0  0  0  0  0  0  0  0  0  0  0  0
    1.7360   -0.0012    0.0000 C   0  0  0  0  0  0  0  0  0  0  0  0
    0.8680   -0.4978    0.0000 C   0  0  0  0  0  0  0  0  0  0  0  0
    0.0000    0.0000    0.0000 C   0  0  0  0  0  0  0  0  0  0  0  0
   -0.0000    1.0058    0.0000 C   0  0  0  0  0  0  0  0  0  0  0  0
    0.8680    1.5138    0.0000 C   0  0  0  0  0  0  0  0  0  0  0  0
   -0.8653   -0.5013    0.0000 O   0  0  0  0  0  0  0  0  0  0  0  0
  1  2  1  0  0  0  0
  2  3  1  0  0  0  0
  2  4  1  0  0  0  0
  4  5  1  0  0  0  0
  5  6  1  0  0  0  0
  6 10  1  0  0  0  0
  6  7  2  0  0  0  0
  7  8  1  0  0  0  0
  8  9  1  0  0  0  0
  9 14  1  0  0  0  0
  9 10  2  0  0  0  0
 10 11  1  0  0  0  0
 11 12  2  0  0  0  0
 12 13  1  0  0  0  0
 13 14  2  0  0  0  0
 12 15  1  0  0  0  0
M  END
$$$$
N
  -OEChem-03262007552D

 14 15  0     0  0  0  0  0  0999 V2000
    5.2680   -2.6306    0.0000 C   0  0  0  0  0  0  0  0  0  0  0  0
    4.2899   -2.4226    0.0000 N   0  0  0  0  0  0  0  0  0  0  0  0
    3.6207   -3.1657    0.0000 C   0  0  0  0  0  0  0  0  0  0  0  0
    3.9809   -1.4715    0.0000 C   0  0  0  0  0  0  0  0  0  0  0  0
    3.0028   -1.2636    0.0000 C   0  0  0  0  0  0  0  0  0  0  0  0
    2.6938   -0.3125    0.0000 C   0  0  0  0  0  0  0  0  0  0  0  0
    3.2858    0.5023    0.0000 C   0  0  0  0  0  0  0  0  0  0  0  0
    2.6938    1.3169    0.0000 N   0  0  0  0  0  0  0  0  0  0  0  0
    1.7360    1.0058    0.0000 C   0  0  0  0  0  0  0  0  0  0  0  0
    0.8680    1.5138    0.0000 C   0  0  0  0  0  0  0  0  0  0  0  0
    0.0000    1.0058    0.0000 C   0  0  0  0  0  0  0  0  0  0  0  0
    0.0000    0.0000    0.0000 C   0  0  0  0  0  0  0  0  0  0  0  0
    0.8680   -0.4978    0.0000 C   0  0  0  0  0  0  0  0  0  0  0  0
    1.7360   -0.0012    0.0000 C   0  0  0  0  0  0  0  0  0  0  0  0
  1  2  1  0  0  0  0
  2  3  1  0  0  0  0
  2  4  1  0  0  0  0
  4  5  1  0  0  0  0
  5  6  1  0  0  0  0
  6 14  1  0  0  0  0
  6  7  2  0  0  0  0
  7  8  1  0  0  0  0
  8  9  1  0  0  0  0
  9 14  1  0  0  0  0
  9 10  2  0  0  0  0
 10 11  1  0  0  0  0
 11 12  2  0  0  0  0
 12 13  1  0  0  0  0
 13 14  2  0  0  0  0
M  END
$$$$
2-oxomelatonin
  -OEChem-03262007552D

 18 19  0     1  0  0  0  0  0999 V2000
   -1.7320   -0.0025    0.0000 C   0  0  0  0  0  0  0  0  0  0  0  0
   -0.8653   -0.5013    0.0000 O   0  0  0  0  0  0  0  0  0  0  0  0
    0.0000    0.0000    0.0000 C   0  0  0  0  0  0  0  0  0  0  0  0
    0.8680   -0.4978    0.0000 C   0  0  0  0  0  0  0  0  0  0  0  0
    1.7360   -0.0012    0.0000 C   0  0  0  0  0  0  0  0  0  0  0  0
    1.7360    1.0058    0.0000 C   0  0  0  0  0  0  0  0  0  0  0  0
    2.6938    1.3169    0.0000 N   0  0  0  0  0  0  0  0  0  0  0  0
    3.2858    0.5023    0.0000 C   0  0  0  0  0  0  0  0  0  0  0  0
    4.2858    0.5024    0.0000 O   0  0  0  0  0  0  0  0  0  0  0  0
    2.6938   -0.3125    0.0000 C   0  0  3  0  0  0  0  0  0  0  0  0
    3.0028   -1.2636    0.0000 C   0  0  0  0  0  0  0  0  0  0  0  0
    3.9809   -1.4715    0.0000 C   0  0  0  0  0  0  0  0  0  0  0  0
    4.2899   -2.4226    0.0000 N   0  0  0  0  0  0  0  0  0  0  0  0
    5.2680   -2.6306    0.0000 C   0  0  0  0  0  0  0  0  0  0  0  0
    5.5770   -3.5816    0.0000 C   0  0  0  0  0  0  0  0  0  0  0  0
    5.9372   -1.8874    0.0000 O   0  0  0  0  0  0  0  0  0  0  0  0
    0.8680    1.5138    0.0000 C   0  0  0  0  0  0  0  0  0  0  0  0
    0.0000    1.0058    0.0000 C   0  0  0  0  0  0  0  0  0  0  0  0
  1  2  1  0  0  0  0
  2  3  1  0  0  0  0
  3 18  1  0  0  0  0
  3  4  2  0  0  0  0
  4  5  1  0  0  0  0
  5 10  1  0  0  0  0
  5  6  2  0  0  0  0
  6  7  1  0  0  0  0
  7  8  1  0  0  0  0
  8  9  2  0  0  0  0
  8 10  1  0  0  0  0
 10 11  1  0  0  0  0
 11 12  1  0  0  0  0
 12 13  1  0  0  0  0
 13 14  1  0  0  0  0
 14 15  1  0  0  0  0
 14 16  2  0  0  0  0
  6 17  1  0  0  0  0
 17 18  2  0  0  0  0
M  END
$$$$
3-hydroxymelatonin
  -OEChem-03262007552D

 18 19  0     1  0  0  0  0  0999 V2000
   -1.7320   -0.0025    0.0000 C   0  0  0  0  0  0  0  0  0  0  0  0
   -0.8653   -0.5013    0.0000 O   0  0  0  0  0  0  0  0  0  0  0  0
    0.0000    0.0000    0.0000 C   0  0  0  0  0  0  0  0  0  0  0  0
    0.8680   -0.4978    0.0000 C   0  0  0  0  0  0  0  0  0  0  0  0
    1.7360   -0.0012    0.0000 C   0  0  0  0  0  0  0  0  0  0  0  0
    1.7360    1.0058    0.0000 C   0  0  0  0  0  0  0  0  0  0  0  0
    2.6938    1.3169    0.0000 N   0  0  0  0  0  0  0  0  0  0  0  0
    3.2858    0.5023    0.0000 C   0  0  0  0  0  0  0  0  0  0  0  0
    2.6938   -0.3125    0.0000 C   0  0  3  0  0  0  0  0  0  0  0  0
    3.5598   -0.8125    0.0000 O   0  0  0  0  0  0  0  0  0  0  0  0
    2.2870   -1.2260    0.0000 C   0  0  0  0  0  0  0  0  0  0  0  0
    2.8747   -2.0351    0.0000 C   0  0  0  0  0  0  0  0  0  0  0  0
    2.4679   -2.9486    0.0000 N   0  0  0  0  0  0  0  0  0  0  0  0
    3.0557   -3.7576    0.0000 C   0  0  0  0  0  0  0  0  0  0  0  0
    4.0502   -3.6532    0.0000 C   0  0  0  0  0  0  0  0  0  0  0  0
    2.6489   -4.6712    0.0000 O   0  0  0  0  0  0  0  0  0  0  0  0
    0.8680    1.5138    0.0000 C   0  0  0  0  0  0  0  0  0  0  0  0
    0.0000    1.0058    0.0000 C   0  0  0  0  0  0  0  0  0  0  0  0
  1  2  1  0  0  0  0
  2  3  1  0  0  0  0
  3 18  1  0  0  0  0
  3  4  2  0  0  0  0
  4  5  1  0  0  0  0
  5  9  1  0  0  0  0
  5  6  2  0  0  0  0
  6  7  1  0  0  0  0
  7  8  1  0  0  0  0
  8  9  1  0  0  0  0
  9 10  1  0  0  0  0
  9 11  1  0  0  0  0
 11 12  1  0  0  0  0
 12 13  1  0  0  0  0
 13 14  2  3  0  0  0
 14 15  1  0  0  0  0
 14 16  1  0  0  0  0
  6 17  1  0  0  0  0
 17 18  2  0  0  0  0
M  END
$$$$
melatonin glucuronide
  -OEChem-03262007552D

 29 31  0     1  0  0  0  0  0999 V2000
   -1.7320   -0.0025    0.0000 C   0  0  0  0  0  0  0  0  0  0  0  0
   -0.8653   -0.5013    0.0000 O   0  0  0  0  0  0  0  0  0  0  0  0
    0.0000    0.0000    0.0000 C   0  0  0  0  0  0  0  0  0  0  0  0
    0.8680   -0.4978    0.0000 C   0  0  0  0  0  0  0  0  0  0  0  0
    1.7360   -0.0012    0.0000 C   0  0  0  0  0  0  0  0  0  0  0  0
    1.7360    1.0058    0.0000 C   0  0  0  0  0  0  0  0  0  0  0  0
    0.8680    1.5138    0.0000 C   0  0  0  0  0  0  0  0  0  0  0  0
    0.0000    1.0058    0.0000 C   0  0  0  0  0  0  0  0  0  0  0  0
    2.6938    1.3169    0.0000 N   0  0  0  0  0  0  0  0  0  0  0  0
    3.2858    0.5023    0.0000 C   0  0  0  0  0  0  0  0  0  0  0  0
    2.6938   -0.3125    0.0000 C   0  0  0  0  0  0  0  0  0  0  0  0
    3.0028   -1.2636    0.0000 C   0  0  0  0  0  0  0  0  0  0  0  0
    3.9809   -1.4715    0.0000 C   0  0  0  0  0  0  0  0  0  0  0  0
    4.2899   -2.4226    0.0000 N   0  0  0  0  0  0  0  0  0  0  0  0
    5.2680   -2.6306    0.0000 C   0  0  0  0  0  0  0  0  0  0  0  0
    5.5770   -3.5816    0.0000 C   0  0  0  0  0  0  0  0  0  0  0  0
    5.9372   -1.8874    0.0000 O   0  0  0  0  0  0  0  0  0  0  0  0
    3.0028    2.2680    0.0000 C   0  0  3  0  0  0  0  0  0  0  0  0
    3.9866    2.4741    0.0000 O   0  0  0  0  0  0  0  0  0  0  0  0
    4.2887    3.4327    0.0000 C   0  0  3  0  0  0  0  0  0  0  0  0
    3.6139    4.1777    0.0000 C   0  0  3  0  0  0  0  0  0  0  0  0
    3.9187    5.1301    0.0000 O   0  0  0  0  0  0  0  0  0  0  0  0
    2.6370    3.9641    0.0000 C   0  0  3  0  0  0  0  0  0  0  0  0
    1.9656    4.7052    0.0000 O   0  0  0  0  0  0  0  0  0  0  0  0
    2.3280    3.0130    0.0000 C   0  0  3  0  0  0  0  0  0  0  0  0
    1.3502    2.8036    0.0000 O   0  0  0  0  0  0  0  0  0  0  0  0
    5.2656    3.6464    0.0000 C   0  0  0  0  0  0  0  0  0  0  0  0
    5.5690    4.5993    0.0000 O   0  0  0  0  0  0  0  0  0  0  0  0
    5.9391    2.9072    0.0000 O   0  0  0  0  0  0  0  0  0  0  0  0
  1  2  1  0  0  0  0
  2  3  1  0  0  0  0
  3  8  1  0  0  0  0
  3  4  2  0  0  0  0
  4  5  1  0  0  0  0
  5 11  1  0  0  0  0
  5  6  2  0  0  0  0
  6  7  1  0  0  0  0
  7  8  2  0  0  0  0
  6  9  1  0  0  0  0
  9 10  1  0  0  0  0
 10 11  2  0  0  0  0
 11 12  1  0  0  0  0
 12 13  1  0  0  0  0
 13 14  1  0  0  0  0
 14 15  1  0  0  0  0
 15 16  1  0  0  0  0
 15 17  2  0  0  0  0
  9 18  1  0  0  0  0
 18 25  1  0  0  0  0
 18 19  1  0  0  0  0
 19 20  1  0  0  0  0
 20 21  1  0  0  0  0
 21 22  1  0  0  0  0
 21 23  1  0  0  0  0
 23 24  1  0  0  0  0
 23 25  1  0  0  0  0
 25 26  1  0  0  0  0
 20 27  1  0  0  0  0
 27 28  1  0  0  0  0
 27 29  2  0  0  0  0
M  END
$$$$
cyclic melatonin
  -OEChem-03262007552D

 17 19  0     0  0  0  0  0  0999 V2000
   -0.8570    2.5078    0.0000 C   0  0  0  0  0  0  0  0  0  0  0  0
   -0.8596    1.5078    0.0000 O   0  0  0  0  0  0  0  0  0  0  0  0
    0.0051    1.0055    0.0000 C   0  0  0  0  0  0  0  0  0  0  0  0
    0.8736    1.5067    0.0000 C   0  0  0  0  0  0  0  0  0  0  0  0
    1.7426    0.9967    0.0000 C   0  0  0  0  0  0  0  0  0  0  0  0
    1.7415   -0.0079    0.0000 C   0  0  0  0  0  0  0  0  0  0  0  0
    2.6967   -0.3194    0.0000 N   0  0  0  0  0  0  0  0  0  0  0  0
    3.2908    0.4981    0.0000 C   0  0  0  0  0  0  0  0  0  0  0  0
    2.6984    1.3061    0.0000 C   0  0  0  0  0  0  0  0  0  0  0  0
    3.2838    2.1191    0.0000 C   0  0  0  0  0  0  0  0  0  0  0  0
    4.2379    1.8138    0.0000 C   0  0  0  0  0  0  0  0  0  0  0  0
    4.2422    0.8118    0.0000 N   0  0  0  0  0  0  0  0  0  0  0  0
    5.0537    0.2275    0.0000 C   0  0  0  0  0  0  0  0  0  0  0  0
    5.9655    0.6382    0.0000 C   0  0  0  0  0  0  0  0  0  0  0  0
    4.9535   -0.7675    0.0000 O   0  0  0  0  0  0  0  0  0  0  0  0
    0.8635   -0.5043    0.0000 C   0  0  0  0  0  0  0  0  0  0  0  0
    0.0000    0.0000    0.0000 C   0  0  0  0  0  0  0  0  0  0  0  0
  1  2  1  0  0  0  0
  2  3  1  0  0  0  0
  3 17  1  0  0  0  0
  3  4  2  0  0  0  0
  4  5  1  0  0  0  0
  5  9  1  0  0  0  0
  5  6  2  0  0  0  0
  6  7  1  0  0  0  0
  7  8  1  0  0  0  0
  8 12  1  0  0  0  0
  8  9  2  0  0  0  0
  9 10  1  0  0  0  0
 10 11  1  0  0  0  0
 11 12  1  0  0  0  0
 12 13  1  0  0  0  0
 13 14  1  0  0  0  0
 13 15  2  0  0  0  0
  6 16  1  0  0  0  0
 16 17  2  0  0  0  0
M  END
$$$$
cyclic N-acetylserotonin glucuronide
  -OEChem-03262007552D

 28 31  0     1  0  0  0  0  0999 V2000
    4.9535   -0.7675    0.0000 C   0  0  0  0  0  0  0  0  0  0  0  0
    5.0537    0.2275    0.0000 C   0  0  0  0  0  0  0  0  0  0  0  0
    5.9655    0.6382    0.0000 O   0  0  0  0  0  0  0  0  0  0  0  0
    4.2422    0.8118    0.0000 N   0  0  0  0  0  0  0  0  0  0  0  0
    4.2379    1.8138    0.0000 C   0  0  0  0  0  0  0  0  0  0  0  0
    3.2838    2.1191    0.0000 C   0  0  0  0  0  0  0  0  0  0  0  0
    2.6984    1.3061    0.0000 C   0  0  0  0  0  0  0  0  0  0  0  0
    3.2908    0.4981    0.0000 C   0  0  0  0  0  0  0  0  0  0  0  0
    2.6967   -0.3194    0.0000 N   0  0  0  0  0  0  0  0  0  0  0  0
    1.7415   -0.0079    0.0000 C   0  0  0  0  0  0  0  0  0  0  0  0
    1.7426    0.9967    0.0000 C   0  0  0  0  0  0  0  0  0  0  0  0
    0.8736    1.5067    0.0000 C   0  0  0  0  0  0  0  0  0  0  0  0
    0.0051    1.0055    0.0000 C   0  0  0  0  0  0  0  0  0  0  0  0
   -0.8596    1.5078    0.0000 O   0  0  0  0  0  0  0  0  0  0  0  0
   -1.7269    1.0101    0.0000 C   0  0  3  0  0  0  0  0  0  0  0  0
   -2.5946    1.5175    0.0000 O   0  0  0  0  0  0  0  0  0  0  0  0
   -3.4619    1.0095    0.0000 C   0  0  3  0  0  0  0  0  0  0  0  0
   -3.4616    0.0043    0.0000 C   0  0  3  0  0  0  0  0  0  0  0  0
   -4.3268   -0.4972    0.0000 O   0  0  0  0  0  0  0  0  0  0  0  0
   -2.5940   -0.4929    0.0000 C   0  0  3  0  0  0  0  0  0  0  0  0
   -2.5937   -1.4929    0.0000 O   0  0  0  0  0  0  0  0  0  0  0  0
   -1.7266    0.0049    0.0000 C   0  0  3  0  0  0  0  0  0  0  0  0
   -0.8612   -0.4961    0.0000 O   0  0  0  0  0  0  0  0  0  0  0  0
   -4.3296    1.5067    0.0000 C   0  0  0  0  0  0  0  0  0  0  0  0
   -5.1940    1.0039    0.0000 O   0  0  0  0  0  0  0  0  0  0  0  0
   -4.3329    2.5067    0.0000 O   0  0  0  0  0  0  0  0  0  0  0  0
    0.0000    0.0000    0.0000 C   0  0  0  0  0  0  0  0  0  0  0  0
    0.8635   -0.5043    0.0000 C   0  0  0  0  0  0  0  0  0  0  0  0
  1  2  1  0  0  0  0
  2  3  2  0  0  0  0
  2  4  1  0  0  0  0
  4  8  1  0  0  0  0
  4  5  1  0  0  0  0
  5  6  1  0  0  0  0
  6  7  1  0  0  0  0
  7 11  1  0  0  0  0
  7  8  2  0  0  0  0
  8  9  1  0  0  0  0
  9 10  1  0  0  0  0
 10 28  1  0  0  0  0
 10 11  2  0  0  0  0
 11 12  1  0  0  0  0
 12 13  2  0  0  0  0
 13 14  1  0  0  0  0
 14 15  1  0  0  0  0
 15 22  1  0  0  0  0
 15 16  1  0  0  0  0
 16 17  1  0  0  0  0
 17 18  1  0  0  0  0
 18 19  1  0  0  0  0
 18 20  1  0  0  0  0
 20 21  1  0  0  0  0
 20 22  1  0  0  0  0
 22 23  1  0  0  0  0
 17 24  1  0  0  0  0
 24 25  1  0  0  0  0
 24 26  2  0  0  0  0
 13 27  1  0  0  0  0
 27 28  2  0  0  0  0
M  END
$$$$
cyclic 6-hydroxymelatonin
  -OEChem-03262007552D

 18 20  0     0  0  0  0  0  0999 V2000
   -0.8570    2.5078    0.0000 C   0  0  0  0  0  0  0  0  0  0  0  0
   -0.8596    1.5078    0.0000 O   0  0  0  0  0  0  0  0  0  0  0  0
    0.0051    1.0055    0.0000 C   0  0  0  0  0  0  0  0  0  0  0  0
    0.8736    1.5067    0.0000 C   0  0  0  0  0  0  0  0  0  0  0  0
    1.7426    0.9967    0.0000 C   0  0  0  0  0  0  0  0  0  0  0  0
    1.7415   -0.0079    0.0000 C   0  0  0  0  0  0  0  0  0  0  0  0
    2.6967   -0.3194    0.0000 N   0  0  0  0  0  0  0  0  0  0  0  0
    3.2908    0.4981    0.0000 C   0  0  0  0  0  0  0  0  0  0  0  0
    2.6984    1.3061    0.0000 C   0  0  0  0  0  0  0  0  0  0  0  0
    3.2838    2.1191    0.0000 C   0  0  0  0  0  0  0  0  0  0  0  0
    4.2379    1.8138    0.0000 C   0  0  0  0  0  0  0  0  0  0  0  0
    4.2422    0.8118    0.0000 N   0  0  0  0  0  0  0  0  0  0  0  0
    5.0537    0.2275    0.0000 C   0  0  0  0  0  0  0  0  0  0  0  0
    5.9655    0.6382    0.0000 C   0  0  0  0  0  0  0  0  0  0  0  0
    4.9535   -0.7675    0.0000 O   0  0  0  0  0  0  0  0  0  0  0  0
    0.8635   -0.5043    0.0000 C   0  0  0  0  0  0  0  0  0  0  0  0
    0.0000    0.0000    0.0000 C   0  0  0  0  0  0  0  0  0  0  0  0
   -0.8685   -0.4956    0.0000 O   0  0  0  0  0  0  0  0  0  0  0  0
  1  2  1  0  0  0  0
  2  3  1  0  0  0  0
  3 17  1  0  0  0  0
  3  4  2  0  0  0  0
  4  5  1  0  0  0  0
  5  9  1  0  0  0  0
  5  6  2  0  0  0  0
  6  7  1  0  0  0  0
  7  8  1  0  0  0  0
  8 12  1  0  0  0  0
  8  9  2  0  0  0  0
  9 10  1  0  0  0  0
 10 11  1  0  0  0  0
 11 12  1  0  0  0  0
 12 13  1  0  0  0  0
 13 14  1  0  0  0  0
 13 15  2  0  0  0  0
  6 16  1  0  0  0  0
 16 17  2  0  0  0  0
 17 18  1  0  0  0  0
M  END
$$$$
5-hydroxyindole-3-acetaldehyde
  -OEChem-03262007552D

 13 14  0     0  0  0  0  0  0999 V2000
   -0.8653   -0.5013    0.0000 O   0  0  0  0  0  0  0  0  0  0  0  0
    0.0000    0.0000    0.0000 C   0  0  0  0  0  0  0  0  0  0  0  0
    0.8680   -0.4978    0.0000 C   0  0  0  0  0  0  0  0  0  0  0  0
    1.7360   -0.0012    0.0000 C   0  0  0  0  0  0  0  0  0  0  0  0
    1.7360    1.0058    0.0000 C   0  0  0  0  0  0  0  0  0  0  0  0
    2.6938    1.3169    0.0000 N   0  0  0  0  0  0  0  0  0  0  0  0
    3.2858    0.5023    0.0000 C   0  0  0  0  0  0  0  0  0  0  0  0
    2.6938   -0.3125    0.0000 C   0  0  0  0  0  0  0  0  0  0  0  0
    3.0028   -1.2636    0.0000 C   0  0  0  0  0  0  0  0  0  0  0  0
    3.9809   -1.4715    0.0000 C   0  0  0  0  0  0  0  0  0  0  0  0
    4.2899   -2.4226    0.0000 O   0  0  0  0  0  0  0  0  0  0  0  0
    0.8680    1.5138    0.0000 C   0  0  0  0  0  0  0  0  0  0  0  0
    0.0000    1.0058    0.0000 C   0  0  0  0  0  0  0  0  0  0  0  0
  1  2  1  0  0  0  0
  2 13  1  0  0  0  0
  2  3  2  0  0  0  0
  3  4  1  0  0  0  0
  4  8  1  0  0  0  0
  4  5  2  0  0  0  0
  5  6  1  0  0  0  0
  6  7  1  0  0  0  0
  7  8  2  0  0  0  0
  8  9  1  0  0  0  0
  9 10  1  0  0  0  0
 10 11  2  0  0  0  0
  5 12  1  0  0  0  0
 12 13  2  0  0  0  0
M  END
$$$$
di-hydroxymelatonin
  -OEChem-03262007552D

 19 20  0     0  0  0  0  0  0999 V2000
   -1.7320   -0.0025    0.0000 C   0  0  0  0  0  0  0  0  0  0  0  0
   -0.8653   -0.5013    0.0000 O   0  0  0  0  0  0  0  0  0  0  0  0
    0.0000    0.0000    0.0000 C   0  0  0  0  0  0  0  0  0  0  0  0
    0.8680   -0.4978    0.0000 C   0  0  0  0  0  0  0  0  0  0  0  0
    0.8675   -1.4978    0.0000 O   0  0  0  0  0  0  0  0  0  0  0  0
    1.7360   -0.0012    0.0000 C   0  0  0  0  0  0  0  0  0  0  0  0
    1.7360    1.0058    0.0000 C   0  0  0  0  0  0  0  0  0  0  0  0
    2.6938    1.3169    0.0000 N   0  0  0  0  0  0  0  0  0  0  0  0
    3.2858    0.5023    0.0000 C   0  0  0  0  0  0  0  0  0  0  0  0
    2.6938   -0.3125    0.0000 C   0  0  0  0  0  0  0  0  0  0  0  0
    3.0028   -1.2636    0.0000 C   0  0  0  0  0  0  0  0  0  0  0  0
    3.9809   -1.4715    0.0000 C   0  0  0  0  0  0  0  0  0  0  0  0
    4.2899   -2.4226    0.0000 N   0  0  0  0  0  0  0  0  0  0  0  0
    5.2680   -2.6306    0.0000 C   0  0  0  0  0  0  0  0  0  0  0  0
    5.5770   -3.5816    0.0000 C   0  0  0  0  0  0  0  0  0  0  0  0
    5.9372   -1.8874    0.0000 O   0  0  0  0  0  0  0  0  0  0  0  0
    0.8680    1.5138    0.0000 C   0  0  0  0  0  0  0  0  0  0  0  0
    0.0000    1.0058    0.0000 C   0  0  0  0  0  0  0  0  0  0  0  0
   -0.8675    1.5032    0.0000 O   0  0  0  0  0  0  0  0  0  0  0  0
  1  2  1  0  0  0  0
  2  3  1  0  0  0  0
  3 18  1  0  0  0  0
  3  4  2  0  0  0  0
  4  5  1  0  0  0  0
  4  6  1  0  0  0  0
  6 10  1  0  0  0  0
  6  7  2  0  0  0  0
  7  8  1  0  0  0  0
  8  9  1  0  0  0  0
  9 10  2  0  0  0  0
 10 11  1  0  0  0  0
 11 12  1  0  0  0  0
 12 13  1  0  0  0  0
 13 14  1  0  0  0  0
 14 15  1  0  0  0  0
 14 16  2  0  0  0  0
  7 17  1  0  0  0  0
 17 18  2  0  0  0  0
 18 19  1  0  0  0  0
M  END
$$$$
5-hydroxyindole-3-acetaldehyde
  -OEChem-03262007552D

 13 14  0     0  0  0  0  0  0999 V2000
   -0.0000    1.0058    0.0000 C   0  0  0  0  0  0  0  0  0  0  0  0
    0.8680    1.5138    0.0000 C   0  0  0  0  0  0  0  0  0  0  0  0
    1.7360    1.0058    0.0000 C   0  0  0  0  0  0  0  0  0  0  0  0
    1.7360   -0.0012    0.0000 C   0  0  0  0  0  0  0  0  0  0  0  0
    0.8680   -0.4978    0.0000 C   0  0  0  0  0  0  0  0  0  0  0  0
    0.0000    0.0000    0.0000 C   0  0  0  0  0  0  0  0  0  0  0  0
   -0.8653   -0.5013    0.0000 O   0  0  0  0  0  0  0  0  0  0  0  0
    2.6938   -0.3125    0.0000 C   0  0  0  0  0  0  0  0  0  0  0  0
    3.2858    0.5023    0.0000 C   0  0  0  0  0  0  0  0  0  0  0  0
    2.6938    1.3169    0.0000 N   0  0  0  0  0  0  0  0  0  0  0  0
    3.0028   -1.2636    0.0000 C   0  0  0  0  0  0  0  0  0  0  0  0
    3.9809   -1.4715    0.0000 C   0  0  0  0  0  0  0  0  0  0  0  0
    4.2899   -2.4226    0.0000 O   0  0  0  0  0  0  0  0  0  0  0  0
  1  6  2  0  0  0  0
  1  2  1  0  0  0  0
  2  3  2  0  0  0  0
  3 10  1  0  0  0  0
  3  4  1  0  0  0  0
  4  5  2  0  0  0  0
  5  6  1  0  0  0  0
  6  7  1  0  0  0  0
  4  8  1  0  0  0  0
  8  9  2  0  0  0  0
  9 10  1  0  0  0  0
  8 11  1  0  0  0  0
 11 12  1  0  0  0  0
 12 13  2  0  0  0  0
M  END
$$$$
di-hydroxymelatonin
  -OEChem-03262007552D

 19 20  0     0  0  0  0  0  0999 V2000
    5.5770   -3.5816    0.0000 C   0  0  0  0  0  0  0  0  0  0  0  0
    5.2680   -2.6306    0.0000 C   0  0  0  0  0  0  0  0  0  0  0  0
    5.9372   -1.8874    0.0000 O   0  0  0  0  0  0  0  0  0  0  0  0
    4.2899   -2.4226    0.0000 N   0  0  0  0  0  0  0  0  0  0  0  0
    3.9809   -1.4715    0.0000 C   0  0  0  0  0  0  0  0  0  0  0  0
    3.0028   -1.2636    0.0000 C   0  0  0  0  0  0  0  0  0  0  0  0
    2.6938   -0.3125    0.0000 C   0  0  0  0  0  0  0  0  0  0  0  0
    3.2858    0.5023    0.0000 C   0  0  0  0  0  0  0  0  0  0  0  0
    2.6938    1.3169    0.0000 N   0  0  0  0  0  0  0  0  0  0  0  0
    1.7360    1.0058    0.0000 C   0  0  0  0  0  0  0  0  0  0  0  0
    1.7360   -0.0012    0.0000 C   0  0  0  0  0  0  0  0  0  0  0  0
    0.8680   -0.4978    0.0000 C   0  0  0  0  0  0  0  0  0  0  0  0
    0.0000    0.0000    0.0000 C   0  0  0  0  0  0  0  0  0  0  0  0
   -0.0000    1.0058    0.0000 C   0  0  0  0  0  0  0  0  0  0  0  0
    0.8680    1.5138    0.0000 C   0  0  0  0  0  0  0  0  0  0  0  0
   -0.8675    1.5032    0.0000 O   0  0  0  0  0  0  0  0  0  0  0  0
   -0.8653   -0.5013    0.0000 O   0  0  0  0  0  0  0  0  0  0  0  0
   -0.8639   -1.5013    0.0000 C   0  0  0  0  0  0  0  0  0  0  0  0
    0.8675   -1.4978    0.0000 O   0  0  0  0  0  0  0  0  0  0  0  0
  1  2  1  0  0  0  0
  2  3  2  0  0  0  0
  2  4  1  0  0  0  0
  4  5  1  0  0  0  0
  5  6  1  0  0  0  0
  6  7  1  0  0  0  0
  7 11  1  0  0  0  0
  7  8  2  0  0  0  0
  8  9  1  0  0  0  0
  9 10  1  0  0  0  0
 10 15  2  0  0  0  0
 10 11  1  0  0  0  0
 11 12  2  0  0  0  0
 12 13  1  0  0  0  0
 13 14  2  0  0  0  0
 14 15  1  0  0  0  0
 14 16  1  0  0  0  0
 13 17  1  0  0  0  0
 17 18  1  0  0  0  0
 12 19  1  0  0  0  0
M  END
$$$$
di-hydroxymelatonin glucuronide conjugate
  -OEChem-03262007552D

 31 33  0     1  0  0  0  0  0999 V2000
    5.5770   -3.5816    0.0000 C   0  0  0  0  0  0  0  0  0  0  0  0
    5.2680   -2.6306    0.0000 C   0  0  0  0  0  0  0  0  0  0  0  0
    4.2899   -2.4226    0.0000 N   0  0  0  0  0  0  0  0  0  0  0  0
    3.9809   -1.4715    0.0000 C   0  0  0  0  0  0  0  0  0  0  0  0
    3.0028   -1.2636    0.0000 C   0  0  0  0  0  0  0  0  0  0  0  0
    2.6938   -0.3125    0.0000 C   0  0  0  0  0  0  0  0  0  0  0  0
    1.7360   -0.0012    0.0000 C   0  0  0  0  0  0  0  0  0  0  0  0
    0.8680   -0.4978    0.0000 C   0  0  0  0  0  0  0  0  0  0  0  0
    0.8675   -1.4978    0.0000 O   0  0  0  0  0  0  0  0  0  0  0  0
    0.0000    0.0000    0.0000 C   0  0  0  0  0  0  0  0  0  0  0  0
   -0.8653   -0.5013    0.0000 O   0  0  0  0  0  0  0  0  0  0  0  0
   -0.8639   -1.5013    0.0000 C   0  0  0  0  0  0  0  0  0  0  0  0
    0.0000    1.0058    0.0000 C   0  0  0  0  0  0  0  0  0  0  0  0
   -0.8675    1.5032    0.0000 O   0  0  0  0  0  0  0  0  0  0  0  0
    0.8680    1.5138    0.0000 C   0  0  0  0  0  0  0  0  0  0  0  0
    1.7360    1.0058    0.0000 C   0  0  0  0  0  0  0  0  0  0  0  0
    2.6938    1.3169    0.0000 N   0  0  0  0  0  0  0  0  0  0  0  0
    3.0028    2.2680    0.0000 C   0  0  3  0  0  0  0  0  0  0  0  0
    3.9866    2.4741    0.0000 O   0  0  0  0  0  0  0  0  0  0  0  0
    4.2887    3.4327    0.0000 C   0  0  3  0  0  0  0  0  0  0  0  0
    5.2656    3.6464    0.0000 C   0  0  0  0  0  0  0  0  0  0  0  0
    5.5690    4.5993    0.0000 O   0  0  0  0  0  0  0  0  0  0  0  0
    5.9391    2.9072    0.0000 O   0  0  0  0  0  0  0  0  0  0  0  0
    3.6139    4.1777    0.0000 C   0  0  3  0  0  0  0  0  0  0  0  0
    3.9187    5.1301    0.0000 O   0  0  0  0  0  0  0  0  0  0  0  0
    2.6370    3.9641    0.0000 C   0  0  3  0  0  0  0  0  0  0  0  0
    1.9656    4.7052    0.0000 O   0  0  0  0  0  0  0  0  0  0  0  0
    2.3280    3.0130    0.0000 C   0  0  3  0  0  0  0  0  0  0  0  0
    1.3502    2.8036    0.0000 O   0  0  0  0  0  0  0  0  0  0  0  0
    3.2858    0.5023    0.0000 C   0  0  0  0  0  0  0  0  0  0  0  0
    5.9372   -1.8874    0.0000 O   0  0  0  0  0  0  0  0  0  0  0  0
  1  2  1  0  0  0  0
  2  3  1  0  0  0  0
  3  4  1  0  0  0  0
  4  5  1  0  0  0  0
  5  6  1  0  0  0  0
  6 30  2  0  0  0  0
  6  7  1  0  0  0  0
  7 16  2  0  0  0  0
  7  8  1  0  0  0  0
  8  9  1  0  0  0  0
  8 10  2  0  0  0  0
 10 11  1  0  0  0  0
 11 12  1  0  0  0  0
 10 13  1  0  0  0  0
 13 14  1  0  0  0  0
 13 15  2  0  0  0  0
 15 16  1  0  0  0  0
 16 17  1  0  0  0  0
 17 18  1  0  0  0  0
 18 28  1  0  0  0  0
 18 19  1  0  0  0  0
 19 20  1  0  0  0  0
 20 21  1  0  0  0  0
 21 22  1  0  0  0  0
 21 23  2  0  0  0  0
 20 24  1  0  0  0  0
 24 25  1  0  0  0  0
 24 26  1  0  0  0  0
 26 27  1  0  0  0  0
 26 28  1  0  0  0  0
 28 29  1  0  0  0  0
 17 30  1  0  0  0  0
  2 31  2  0  0  0  0
M  END
$$$$
N-Acetyl-5-hydroxytryptamine
  -OEChem-03262007552D

 16 17  0     0  0  0  0  0  0999 V2000
    5.5770   -3.5816    0.0000 C   0  0  0  0  0  0  0  0  0  0  0  0
    5.2680   -2.6306    0.0000 C   0  0  0  0  0  0  0  0  0  0  0  0
    5.9372   -1.8874    0.0000 O   0  0  0  0  0  0  0  0  0  0  0  0
    4.2899   -2.4226    0.0000 N   0  0  0  0  0  0  0  0  0  0  0  0
    3.9809   -1.4715    0.0000 C   0  0  0  0  0  0  0  0  0  0  0  0
    3.0028   -1.2636    0.0000 C   0  0  0  0  0  0  0  0  0  0  0  0
    2.6938   -0.3125    0.0000 C   0  0  0  0  0  0  0  0  0  0  0  0
    3.2858    0.5023    0.0000 C   0  0  0  0  0  0  0  0  0  0  0  0
    2.6938    1.3169    0.0000 N   0  0  0  0  0  0  0  0  0  0  0  0
    1.7360    1.0058    0.0000 C   0  0  0  0  0  0  0  0  0  0  0  0
    1.7360   -0.0012    0.0000 C   0  0  0  0  0  0  0  0  0  0  0  0
    0.8680   -0.4978    0.0000 C   0  0  0  0  0  0  0  0  0  0  0  0
    0.0000    0.0000    0.0000 C   0  0  0  0  0  0  0  0  0  0  0  0
   -0.8653   -0.5013    0.0000 O   0  0  0  0  0  0  0  0  0  0  0  0
   -0.0000    1.0058    0.0000 C   0  0  0  0  0  0  0  0  0  0  0  0
    0.8680    1.5138    0.0000 C   0  0  0  0  0  0  0  0  0  0  0  0
  1  2  1  0  0  0  0
  2  3  2  0  0  0  0
  2  4  1  0  0  0  0
  4  5  1  0  0  0  0
  5  6  1  0  0  0  0
  6  7  1  0  0  0  0
  7 11  1  0  0  0  0
  7  8  2  0  0  0  0
  8  9  1  0  0  0  0
  9 10  1  0  0  0  0
 10 16  1  0  0  0  0
 10 11  2  0  0  0  0
 11 12  1  0  0  0  0
 12 13  2  0  0  0  0
 13 14  1  0  0  0  0
 13 15  1  0  0  0  0
 15 16  2  0  0  0  0
M  END
$$$$
N-Acetyl-5-hydroxytryptamine sulfate
  -OEChem-03262007552D

 20 21  0     0  0  0  0  0  0999 V2000
    5.5770   -3.5816    0.0000 C   0  0  0  0  0  0  0  0  0  0  0  0
    5.2680   -2.6306    0.0000 C   0  0  0  0  0  0  0  0  0  0  0  0
    5.9372   -1.8874    0.0000 O   0  0  0  0  0  0  0  0  0  0  0  0
    4.2899   -2.4226    0.0000 N   0  0  0  0  0  0  0  0  0  0  0  0
    3.9809   -1.4715    0.0000 C   0  0  0  0  0  0  0  0  0  0  0  0
    3.0028   -1.2636    0.0000 C   0  0  0  0  0  0  0  0  0  0  0  0
    2.6938   -0.3125    0.0000 C   0  0  0  0  0  0  0  0  0  0  0  0
    3.2858    0.5023    0.0000 C   0  0  0  0  0  0  0  0  0  0  0  0
    2.6938    1.3169    0.0000 N   0  0  0  0  0  0  0  0  0  0  0  0
    1.7360    1.0058    0.0000 C   0  0  0  0  0  0  0  0  0  0  0  0
    1.7360   -0.0012    0.0000 C   0  0  0  0  0  0  0  0  0  0  0  0
    0.8680   -0.4978    0.0000 C   0  0  0  0  0  0  0  0  0  0  0  0
    0.0000    0.0000    0.0000 C   0  0  0  0  0  0  0  0  0  0  0  0
   -0.8653   -0.5013    0.0000 O   0  0  0  0  0  0  0  0  0  0  0  0
   -0.8639   -1.5013    0.0000 S   0  0  0  0  0  0  0  0  0  0  0  0
   -0.8624   -2.5012    0.0000 O   0  0  0  0  0  0  0  0  0  0  0  0
    0.1361   -1.4998    0.0000 O   0  0  0  0  0  0  0  0  0  0  0  0
   -1.8639   -1.5027    0.0000 O   0  0  0  0  0  0  0  0  0  0  0  0
   -0.0000    1.0058    0.0000 C   0  0  0  0  0  0  0  0  0  0  0  0
    0.8680    1.5138    0.0000 C   0  0  0  0  0  0  0  0  0  0  0  0
  1  2  1  0  0  0  0
  2  3  2  0  0  0  0
  2  4  1  0  0  0  0
  4  5  1  0  0  0  0
  5  6  1  0  0  0  0
  6  7  1  0  0  0  0
  7 11  1  0  0  0  0
  7  8  2  0  0  0  0
  8  9  1  0  0  0  0
  9 10  1  0  0  0  0
 10 20  1  0  0  0  0
 10 11  2  0  0  0  0
 11 12  1  0  0  0  0
 12 13  2  0  0  0  0
 13 14  1  0  0  0  0
 14 15  1  0  0  0  0
 15 16  1  0  0  0  0
 15 17  2  0  0  0  0
 15 18  2  0  0  0  0
 13 19  1  0  0  0  0
 19 20  2  0  0  0  0
M  END
$$$$
N-Acetyl-5-hydroxytryptamine glucuronide
  -OEChem-03262007552D

 32 34  0     1  0  0  0  0  0999 V2000
    5.5770   -3.5816    0.0000 C   0  0  0  0  0  0  0  0  0  0  0  0
    5.2680   -2.6306    0.0000 C   0  0  0  0  0  0  0  0  0  0  0  0
    5.9372   -1.8874    0.0000 O   0  0  0  0  0  0  0  0  0  0  0  0
    4.2899   -2.4226    0.0000 N   0  0  0  0  0  0  0  0  0  0  0  0
    3.9809   -1.4715    0.0000 C   0  0  0  0  0  0  0  0  0  0  0  0
    3.0028   -1.2636    0.0000 C   0  0  0  0  0  0  0  0  0  0  0  0
    2.6938   -0.3125    0.0000 C   0  0  0  0  0  0  0  0  0  0  0  0
    3.2858    0.5023    0.0000 C   0  0  0  0  0  0  0  0  0  0  0  0
    2.6938    1.3169    0.0000 N   0  0  0  0  0  0  0  0  0  0  0  0
    1.7360    1.0058    0.0000 C   0  0  0  0  0  0  0  0  0  0  0  0
    1.7360   -0.0012    0.0000 C   0  0  0  0  0  0  0  0  0  0  0  0
    0.8680   -0.4978    0.0000 C   0  0  0  0  0  0  0  0  0  0  0  0
    0.0000    0.0000    0.0000 C   0  0  0  0  0  0  0  0  0  0  0  0
   -0.8653   -0.5013    0.0000 O   0  0  0  0  0  0  0  0  0  0  0  0
   -0.8639   -1.5013    0.0000 C   0  0  3  0  0  0  0  0  0  0  0  0
    0.0088   -2.0000    0.0000 O   0  0  0  0  0  0  0  0  0  0  0  0
    0.0014   -3.0051    0.0000 C   0  0  1  0  0  0  0  0  0  0  0  0
    0.5942   -4.6516    0.0000 H   0  0  0  0  0  0  0  0  0  0  0  0
   -0.8699   -3.5064    0.0000 C   0  0  1  0  0  0  0  0  0  0  0  0
   -0.2290   -4.2740    0.0000 H   0  0  0  0  0  0  0  0  0  0  0  0
   -1.9994   -4.8431    0.0000 O   0  0  0  0  0  0  0  0  0  0  0  0
   -1.7337   -3.0026    0.0000 C   0  0  2  0  0  0  0  0  0  0  0  0
   -2.0781   -3.9414    0.0000 H   0  0  0  0  0  0  0  0  0  0  0  0
   -3.4570   -2.6978    0.0000 O   0  0  0  0  0  0  0  0  0  0  0  0
   -1.7351   -2.0025    0.0000 C   0  0  1  0  0  0  0  0  0  0  0  0
   -2.7199   -2.1766    0.0000 H   0  0  0  0  0  0  0  0  0  0  0  0
   -2.0767   -1.0627    0.0000 O   0  0  0  0  0  0  0  0  0  0  0  0
    0.9871   -2.8368    0.0000 C   0  0  0  0  0  0  0  0  0  0  0  0
    1.3342   -1.8990    0.0000 O   0  0  0  0  0  0  0  0  0  0  0  0
    1.6257   -3.6063    0.0000 O   0  0  0  0  0  0  0  0  0  0  0  0
   -0.0000    1.0058    0.0000 C   0  0  0  0  0  0  0  0  0  0  0  0
    0.8680    1.5138    0.0000 C   0  0  0  0  0  0  0  0  0  0  0  0
  1  2  1  0  0  0  0
  2  3  2  0  0  0  0
  2  4  1  0  0  0  0
  4  5  1  0  0  0  0
  5  6  1  0  0  0  0
  6  7  1  0  0  0  0
  7 11  1  0  0  0  0
  7  8  2  0  0  0  0
  8  9  1  0  0  0  0
  9 10  1  0  0  0  0
 10 32  1  0  0  0  0
 10 11  2  0  0  0  0
 11 12  1  0  0  0  0
 12 13  2  0  0  0  0
 13 14  1  0  0  0  0
 14 15  1  0  0  0  0
 15 25  1  0  0  0  0
 15 16  1  0  0  0  0
 16 17  1  0  0  0  0
 17 18  1  1  0  0  0
 17 19  1  0  0  0  0
 19 20  1  6  0  0  0
 19 21  1  0  0  0  0
 19 22  1  0  0  0  0
 22 23  1  1  0  0  0
 22 24  1  0  0  0  0
 22 25  1  0  0  0  0
 25 26  1  6  0  0  0
 25 27  1  0  0  0  0
 17 28  1  0  0  0  0
 28 29  1  0  0  0  0
 28 30  2  0  0  0  0
 13 31  1  0  0  0  0
 31 32  2  0  0  0  0
M  END
$$$$
N-acetylserotonin sulfate
  -OEChem-03262007552D

 20 21  0     0  0  0  0  0  0999 V2000
    5.5770   -3.5816    0.0000 C   0  0  0  0  0  0  0  0  0  0  0  0
    5.2680   -2.6306    0.0000 C   0  0  0  0  0  0  0  0  0  0  0  0
    5.9372   -1.8874    0.0000 O   0  0  0  0  0  0  0  0  0  0  0  0
    4.2899   -2.4226    0.0000 N   0  0  0  0  0  0  0  0  0  0  0  0
    3.9809   -1.4715    0.0000 C   0  0  0  0  0  0  0  0  0  0  0  0
    3.0028   -1.2636    0.0000 C   0  0  0  0  0  0  0  0  0  0  0  0
    2.6938   -0.3125    0.0000 C   0  0  0  0  0  0  0  0  0  0  0  0
    3.2858    0.5023    0.0000 C   0  0  0  0  0  0  0  0  0  0  0  0
    2.6938    1.3169    0.0000 N   0  0  0  0  0  0  0  0  0  0  0  0
    1.7360    1.0058    0.0000 C   0  0  0  0  0  0  0  0  0  0  0  0
    1.7360   -0.0012    0.0000 C   0  0  0  0  0  0  0  0  0  0  0  0
    0.8680   -0.4978    0.0000 C   0  0  0  0  0  0  0  0  0  0  0  0
    0.0000    0.0000    0.0000 C   0  0  0  0  0  0  0  0  0  0  0  0
   -0.0000    1.0058    0.0000 C   0  0  0  0  0  0  0  0  0  0  0  0
    0.8680    1.5138    0.0000 C   0  0  0  0  0  0  0  0  0  0  0  0
   -0.8653   -0.5013    0.0000 O   0  0  0  0  0  0  0  0  0  0  0  0
   -0.8639   -1.5013    0.0000 S   0  0  0  0  0  0  0  0  0  0  0  0
    0.1361   -1.4998    0.0000 O   0  0  0  0  0  0  0  0  0  0  0  0
   -1.8639   -1.5027    0.0000 O   0  0  0  0  0  0  0  0  0  0  0  0
   -0.8624   -2.5012    0.0000 O   0  0  0  0  0  0  0  0  0  0  0  0
  1  2  1  0  0  0  0
  2  3  2  0  0  0  0
  2  4  1  0  0  0  0
  4  5  1  0  0  0  0
  5  6  1  0  0  0  0
  6  7  1  0  0  0  0
  7 11  1  0  0  0  0
  7  8  2  0  0  0  0
  8  9  1  0  0  0  0
  9 10  1  0  0  0  0
 10 15  2  0  0  0  0
 10 11  1  0  0  0  0
 11 12  2  0  0  0  0
 12 13  1  0  0  0  0
 13 14  2  0  0  0  0
 14 15  1  0  0  0  0
 13 16  1  0  0  0  0
 16 17  1  0  0  0  0
 17 18  2  0  0  0  0
 17 19  2  0  0  0  0
 17 20  1  0  0  0  0
M  END
$$$$
N-acetylserotonin glucuronide
  -OEChem-03262007552D

 28 30  0     1  0  0  0  0  0999 V2000
   -0.8653   -0.5013    0.0000 O   0  0  0  0  0  0  0  0  0  0  0  0
    0.0000    0.0000    0.0000 C   0  0  0  0  0  0  0  0  0  0  0  0
   -0.0000    1.0058    0.0000 C   0  0  0  0  0  0  0  0  0  0  0  0
    0.8680    1.5138    0.0000 C   0  0  0  0  0  0  0  0  0  0  0  0
    1.7360    1.0058    0.0000 C   0  0  0  0  0  0  0  0  0  0  0  0
    1.7360   -0.0012    0.0000 C   0  0  0  0  0  0  0  0  0  0  0  0
    2.6938   -0.3125    0.0000 C   0  0  0  0  0  0  0  0  0  0  0  0
    3.0028   -1.2636    0.0000 C   0  0  0  0  0  0  0  0  0  0  0  0
    3.9809   -1.4715    0.0000 C   0  0  0  0  0  0  0  0  0  0  0  0
    4.2899   -2.4226    0.0000 N   0  0  0  0  0  0  0  0  0  0  0  0
    5.2680   -2.6306    0.0000 C   0  0  0  0  0  0  0  0  0  0  0  0
    5.5770   -3.5816    0.0000 C   0  0  0  0  0  0  0  0  0  0  0  0
    5.9372   -1.8874    0.0000 O   0  0  0  0  0  0  0  0  0  0  0  0
    3.2858    0.5023    0.0000 C   0  0  0  0  0  0  0  0  0  0  0  0
    2.6938    1.3169    0.0000 N   0  0  0  0  0  0  0  0  0  0  0  0
    3.0028    2.2680    0.0000 C   0  0  3  0  0  0  0  0  0  0  0  0
    3.9866    2.4741    0.0000 O   0  0  0  0  0  0  0  0  0  0  0  0
    4.2887    3.4327    0.0000 C   0  0  3  0  0  0  0  0  0  0  0  0
    5.2656    3.6464    0.0000 C   0  0  0  0  0  0  0  0  0  0  0  0
    5.5690    4.5993    0.0000 O   0  0  0  0  0  0  0  0  0  0  0  0
    5.9391    2.9072    0.0000 O   0  0  0  0  0  0  0  0  0  0  0  0
    3.6139    4.1777    0.0000 C   0  0  3  0  0  0  0  0  0  0  0  0
    3.9187    5.1301    0.0000 O   0  0  0  0  0  0  0  0  0  0  0  0
    2.6370    3.9641    0.0000 C   0  0  3  0  0  0  0  0  0  0  0  0
    1.9656    4.7052    0.0000 O   0  0  0  0  0  0  0  0  0  0  0  0
    2.3280    3.0130    0.0000 C   0  0  3  0  0  0  0  0  0  0  0  0
    1.3502    2.8036    0.0000 O   0  0  0  0  0  0  0  0  0  0  0  0
    0.8680   -0.4978    0.0000 C   0  0  0  0  0  0  0  0  0  0  0  0
  1  2  1  0  0  0  0
  2 28  2  0  0  0  0
  2  3  1  0  0  0  0
  3  4  2  0  0  0  0
  4  5  1  0  0  0  0
  5 15  1  0  0  0  0
  5  6  2  0  0  0  0
  6  7  1  0  0  0  0
  7  8  1  0  0  0  0
  8  9  1  0  0  0  0
  9 10  1  0  0  0  0
 10 11  1  0  0  0  0
 11 12  1  0  0  0  0
 11 13  2  0  0  0  0
  7 14  2  0  0  0  0
 14 15  1  0  0  0  0
 15 16  1  0  0  0  0
 16 26  1  0  0  0  0
 16 17  1  0  0  0  0
 17 18  1  0  0  0  0
 18 19  1  0  0  0  0
 19 20  1  0  0  0  0
 19 21  2  0  0  0  0
 18 22  1  0  0  0  0
 22 23  1  0  0  0  0
 22 24  1  0  0  0  0
 24 25  1  0  0  0  0
 24 26  1  0  0  0  0
 26 27  1  0  0  0  0
  6 28  1  0  0  0  0
M  END
$$$$
5-hydroxy-L-tryptophan
  -OEChem-03262007552D

 17 18  0     1  0  0  0  0  0999 V2000
    1.9734   -3.7009    0.0000 O   0  0  0  0  0  0  0  0  0  0  0  0
    1.6644   -2.7498    0.0000 C   0  0  0  0  0  0  0  0  0  0  0  0
    0.6863   -2.5418    0.0000 O   0  0  0  0  0  0  0  0  0  0  0  0
    2.3336   -2.0067    0.0000 C   0  0  1  0  0  0  0  0  0  0  0  0
    1.5905   -1.3375    0.0000 H   0  0  0  0  0  0  0  0  0  0  0  0
    3.0767   -2.6759    0.0000 N   0  0  0  0  0  0  0  0  0  0  0  0
    3.0028   -1.2636    0.0000 C   0  0  0  0  0  0  0  0  0  0  0  0
    2.6938   -0.3125    0.0000 C   0  0  0  0  0  0  0  0  0  0  0  0
    1.7360   -0.0012    0.0000 C   0  0  0  0  0  0  0  0  0  0  0  0
    0.8680   -0.4978    0.0000 C   0  0  0  0  0  0  0  0  0  0  0  0
    0.0000    0.0000    0.0000 C   0  0  0  0  0  0  0  0  0  0  0  0
   -0.8653   -0.5013    0.0000 O   0  0  0  0  0  0  0  0  0  0  0  0
    0.0000    1.0058    0.0000 C   0  0  0  0  0  0  0  0  0  0  0  0
    0.8680    1.5138    0.0000 C   0  0  0  0  0  0  0  0  0  0  0  0
    1.7360    1.0058    0.0000 C   0  0  0  0  0  0  0  0  0  0  0  0
    2.6938    1.3169    0.0000 N   0  0  0  0  0  0  0  0  0  0  0  0
    3.2858    0.5023    0.0000 C   0  0  0  0  0  0  0  0  0  0  0  0
  1  2  2  0  0  0  0
  2  3  1  0  0  0  0
  2  4  1  0  0  0  0
  4  5  1  1  0  0  0
  4  6  1  0  0  0  0
  4  7  1  0  0  0  0
  7  8  1  0  0  0  0
  8 17  2  0  0  0  0
  8  9  1  0  0  0  0
  9 15  2  0  0  0  0
  9 10  1  0  0  0  0
 10 11  2  0  0  0  0
 11 12  1  0  0  0  0
 11 13  1  0  0  0  0
 13 14  2  0  0  0  0
 14 15  1  0  0  0  0
 15 16  1  0  0  0  0
 16 17  1  0  0  0  0
M  END
$$$$
Serotonin
  -OEChem-03262007552D

 13 14  0     0  0  0  0  0  0999 V2000
    4.2899   -2.4226    0.0000 N   0  0  0  0  0  0  0  0  0  0  0  0
    3.9809   -1.4715    0.0000 C   0  0  0  0  0  0  0  0  0  0  0  0
    3.0028   -1.2636    0.0000 C   0  0  0  0  0  0  0  0  0  0  0  0
    2.6938   -0.3125    0.0000 C   0  0  0  0  0  0  0  0  0  0  0  0
    3.2858    0.5023    0.0000 C   0  0  0  0  0  0  0  0  0  0  0  0
    2.6938    1.3169    0.0000 N   0  0  0  0  0  0  0  0  0  0  0  0
    1.7360    1.0058    0.0000 C   0  0  0  0  0  0  0  0  0  0  0  0
    0.8680    1.5138    0.0000 C   0  0  0  0  0  0  0  0  0  0  0  0
    0.0000    1.0058    0.0000 C   0  0  0  0  0  0  0  0  0  0  0  0
    0.0000    0.0000    0.0000 C   0  0  0  0  0  0  0  0  0  0  0  0
   -0.8653   -0.5013    0.0000 O   0  0  0  0  0  0  0  0  0  0  0  0
    0.8680   -0.4978    0.0000 C   0  0  0  0  0  0  0  0  0  0  0  0
    1.7360   -0.0012    0.0000 C   0  0  0  0  0  0  0  0  0  0  0  0
  1  2  1  0  0  0  0
  2  3  1  0  0  0  0
  3  4  1  0  0  0  0
  4 13  1  0  0  0  0
  4  5  2  0  0  0  0
  5  6  1  0  0  0  0
  6  7  1  0  0  0  0
  7 13  1  0  0  0  0
  7  8  2  0  0  0  0
  8  9  1  0  0  0  0
  9 10  2  0  0  0  0
 10 11  1  0  0  0  0
 10 12  1  0  0  0  0
 12 13  2  0  0  0  0
M  END
$$$$
N-Acetylserotonin
  -OEChem-03262007552D

 16 17  0     0  0  0  0  0  0999 V2000
    5.5770   -3.5816    0.0000 C   0  0  0  0  0  0  0  0  0  0  0  0
    5.2680   -2.6306    0.0000 C   0  0  0  0  0  0  0  0  0  0  0  0
    5.9372   -1.8874    0.0000 O   0  0  0  0  0  0  0  0  0  0  0  0
    4.2899   -2.4226    0.0000 N   0  0  0  0  0  0  0  0  0  0  0  0
    3.9809   -1.4715    0.0000 C   0  0  0  0  0  0  0  0  0  0  0  0
    3.0028   -1.2636    0.0000 C   0  0  0  0  0  0  0  0  0  0  0  0
    2.6938   -0.3125    0.0000 C   0  0  0  0  0  0  0  0  0  0  0  0
    3.2858    0.5023    0.0000 C   0  0  0  0  0  0  0  0  0  0  0  0
    2.6938    1.3169    0.0000 N   0  0  0  0  0  0  0  0  0  0  0  0
    1.7360    1.0058    0.0000 C   0  0  0  0  0  0  0  0  0  0  0  0
    1.7360   -0.0012    0.0000 C   0  0  0  0  0  0  0  0  0  0  0  0
    0.8680   -0.4978    0.0000 C   0  0  0  0  0  0  0  0  0  0  0  0
    0.0000    0.0000    0.0000 C   0  0  0  0  0  0  0  0  0  0  0  0
   -0.0000    1.0058    0.0000 C   0  0  0  0  0  0  0  0  0  0  0  0
    0.8680    1.5138    0.0000 C   0  0  0  0  0  0  0  0  0  0  0  0
   -0.8653   -0.5013    0.0000 O   0  0  0  0  0  0  0  0  0  0  0  0
  1  2  1  0  0  0  0
  2  3  2  0  0  0  0
  2  4  1  0  0  0  0
  4  5  1  0  0  0  0
  5  6  1  0  0  0  0
  6  7  1  0  0  0  0
  7 11  1  0  0  0  0
  7  8  2  0  0  0  0
  8  9  1  0  0  0  0
  9 10  1  0  0  0  0
 10 15  2  0  0  0  0
 10 11  1  0  0  0  0
 11 12  2  0  0  0  0
 12 13  1  0  0  0  0
 13 14  2  0  0  0  0
 14 15  1  0  0  0  0
 13 16  1  0  0  0  0
M  END
$$$$
L-tryptophan
  -OEChem-03262007552D

 16 17  0     1  0  0  0  0  0999 V2000
    0.0000    0.0000    0.0000 C   0  0  0  0  0  0  0  0  0  0  0  0
   -0.0000    1.0058    0.0000 C   0  0  0  0  0  0  0  0  0  0  0  0
    0.8680    1.5138    0.0000 C   0  0  0  0  0  0  0  0  0  0  0  0
    1.7360    1.0058    0.0000 C   0  0  0  0  0  0  0  0  0  0  0  0
    1.7360   -0.0012    0.0000 C   0  0  0  0  0  0  0  0  0  0  0  0
    0.8680   -0.4978    0.0000 C   0  0  0  0  0  0  0  0  0  0  0  0
    2.6938   -0.3125    0.0000 C   0  0  0  0  0  0  0  0  0  0  0  0
    3.2858    0.5023    0.0000 C   0  0  0  0  0  0  0  0  0  0  0  0
    2.6938    1.3169    0.0000 N   0  0  0  0  0  0  0  0  0  0  0  0
    3.0028   -1.2636    0.0000 C   0  0  0  0  0  0  0  0  0  0  0  0
    3.9809   -1.4715    0.0000 C   0  0  1  0  0  0  0  0  0  0  0  0
    4.1889   -0.4934    0.0000 H   0  0  0  0  0  0  0  0  0  0  0  0
    4.9590   -1.6795    0.0000 C   0  0  0  0  0  0  0  0  0  0  0  0
    5.2680   -2.6306    0.0000 O   0  0  0  0  0  0  0  0  0  0  0  0
    5.6282   -0.9364    0.0000 O   0  5  0  0  0  0  0  0  0  0  0  0
    3.7729   -2.4497    0.0000 N   0  3  0  0  0  0  0  0  0  0  0  0
  1  6  2  0  0  0  0
  1  2  1  0  0  0  0
  2  3  2  0  0  0  0
  3  4  1  0  0  0  0
  4  9  1  0  0  0  0
  4  5  2  0  0  0  0
  5  6  1  0  0  0  0
  5  7  1  0  0  0  0
  7  8  2  0  0  0  0
  8  9  1  0  0  0  0
  7 10  1  0  0  0  0
 10 11  1  0  0  0  0
 11 12  1  6  0  0  0
 11 13  1  0  0  0  0
 13 14  2  0  0  0  0
 13 15  1  0  0  0  0
 11 16  1  0  0  0  0
M  CHG  2  15  -1  16   1
M  END
$$$$
2-oxomelatonin
  -OEChem-03262007552D

 18 19  0     1  0  0  0  0  0999 V2000
    0.9953   -3.4929    0.0000 O   0  0  0  0  0  0  0  0  0  0  0  0
    1.9734   -3.7009    0.0000 C   0  0  0  0  0  0  0  0  0  0  0  0
    2.6426   -2.9578    0.0000 N   0  0  0  0  0  0  0  0  0  0  0  0
    2.3336   -2.0067    0.0000 C   0  0  0  0  0  0  0  0  0  0  0  0
    3.0028   -1.2636    0.0000 C   0  0  0  0  0  0  0  0  0  0  0  0
    2.6938   -0.3125    0.0000 C   0  0  3  0  0  0  0  0  0  0  0  0
    1.7360   -0.0012    0.0000 C   0  0  0  0  0  0  0  0  0  0  0  0
    0.8680   -0.4978    0.0000 C   0  0  0  0  0  0  0  0  0  0  0  0
    0.0000    0.0000    0.0000 C   0  0  0  0  0  0  0  0  0  0  0  0
   -0.8653   -0.5013    0.0000 O   0  0  0  0  0  0  0  0  0  0  0  0
   -0.8639   -1.5013    0.0000 C   0  0  0  0  0  0  0  0  0  0  0  0
    0.0000    1.0058    0.0000 C   0  0  0  0  0  0  0  0  0  0  0  0
    0.8680    1.5138    0.0000 C   0  0  0  0  0  0  0  0  0  0  0  0
    1.7360    1.0058    0.0000 C   0  0  0  0  0  0  0  0  0  0  0  0
    2.6938    1.3169    0.0000 N   0  0  0  0  0  0  0  0  0  0  0  0
    3.2858    0.5023    0.0000 C   0  0  0  0  0  0  0  0  0  0  0  0
    4.2858    0.5024    0.0000 O   0  0  0  0  0  0  0  0  0  0  0  0
    2.2824   -4.6519    0.0000 C   0  0  0  0  0  0  0  0  0  0  0  0
  1  2  2  0  0  0  0
  2  3  1  0  0  0  0
  3  4  1  0  0  0  0
  4  5  1  0  0  0  0
  5  6  1  0  0  0  0
  6 16  1  0  0  0  0
  6  7  1  0  0  0  0
  7 14  2  0  0  0  0
  7  8  1  0  0  0  0
  8  9  2  0  0  0  0
  9 10  1  0  0  0  0
 10 11  1  0  0  0  0
  9 12  1  0  0  0  0
 12 13  2  0  0  0  0
 13 14  1  0  0  0  0
 14 15  1  0  0  0  0
 15 16  1  0  0  0  0
 16 17  2  0  0  0  0
  2 18  1  0  0  0  0
M  END
$$$$
5-Methoxytryptamine
  -OEChem-03262007552D

 14 15  0     0  0  0  0  0  0999 V2000
   -1.7320   -0.0025    0.0000 C   0  0  0  0  0  0  0  0  0  0  0  0
   -0.8653   -0.5013    0.0000 O   0  0  0  0  0  0  0  0  0  0  0  0
    0.0000    0.0000    0.0000 C   0  0  0  0  0  0  0  0  0  0  0  0
   -0.0000    1.0058    0.0000 C   0  0  0  0  0  0  0  0  0  0  0  0
    0.8680    1.5138    0.0000 C   0  0  0  0  0  0  0  0  0  0  0  0
    1.7360    1.0058    0.0000 C   0  0  0  0  0  0  0  0  0  0  0  0
    1.7360   -0.0012    0.0000 C   0  0  0  0  0  0  0  0  0  0  0  0
    0.8680   -0.4978    0.0000 C   0  0  0  0  0  0  0  0  0  0  0  0
    2.6938   -0.3125    0.0000 C   0  0  0  0  0  0  0  0  0  0  0  0
    3.2858    0.5023    0.0000 C   0  0  0  0  0  0  0  0  0  0  0  0
    2.6938    1.3169    0.0000 N   0  0  0  0  0  0  0  0  0  0  0  0
    3.0028   -1.2636    0.0000 C   0  0  0  0  0  0  0  0  0  0  0  0
    3.9809   -1.4715    0.0000 C   0  0  0  0  0  0  0  0  0  0  0  0
    4.2899   -2.4226    0.0000 N   0  0  0  0  0  0  0  0  0  0  0  0
  1  2  1  0  0  0  0
  2  3  1  0  0  0  0
  3  8  2  0  0  0  0
  3  4  1  0  0  0  0
  4  5  2  0  0  0  0
  5  6  1  0  0  0  0
  6 11  1  0  0  0  0
  6  7  2  0  0  0  0
  7  8  1  0  0  0  0
  7  9  1  0  0  0  0
  9 10  2  0  0  0  0
 10 11  1  0  0  0  0
  9 12  1  0  0  0  0
 12 13  1  0  0  0  0
 13 14  1  0  0  0  0
M  END
$$$$
KYNURAMINE
  -OEChem-03262007552D

 12 12  0     0  0  0  0  0  0999 V2000
   -0.8675    1.5027    0.0000 C   0  0  0  0  0  0  0  0  0  0  0  0
   -0.8675    0.4975    0.0000 C   0  0  0  0  0  0  0  0  0  0  0  0
    0.0000    0.0000    0.0000 C   0  0  0  0  0  0  0  0  0  0  0  0
    0.8675    0.4975    0.0000 C   0  0  0  0  0  0  0  0  0  0  0  0
    0.8675    1.5027    0.0000 C   0  0  0  0  0  0  0  0  0  0  0  0
   -0.0000    2.0104    0.0000 C   0  0  0  0  0  0  0  0  0  0  0  0
    1.7350    2.0001    0.0000 C   0  0  0  0  0  0  0  0  0  0  0  0
    2.5995    1.4976    0.0000 O   0  0  0  0  0  0  0  0  0  0  0  0
    1.7379    3.0001    0.0000 C   0  0  0  0  0  0  0  0  0  0  0  0
    2.6054    3.4976    0.0000 C   0  0  0  0  0  0  0  0  0  0  0  0
    2.6084    4.4976    0.0000 N   0  0  0  0  0  0  0  0  0  0  0  0
    1.7328   -0.0038    0.0000 N   0  0  0  0  0  0  0  0  0  0  0  0
  1  6  2  0  0  0  0
  1  2  1  0  0  0  0
  2  3  2  0  0  0  0
  3  4  1  0  0  0  0
  4  5  2  0  0  0  0
  5  6  1  0  0  0  0
  5  7  1  0  0  0  0
  7  8  2  0  0  0  0
  7  9  1  0  0  0  0
  9 10  1  0  0  0  0
 10 11  1  0  0  0  0
  4 12  1  0  0  0  0
M  END
$$$$
Acetyl-N-formyl-5-methoxykynurenamine (AFMK)
  -OEChem-03262007552D

 19 19  0     0  0  0  0  0  0999 V2000
    6.9311   -0.0153    0.0000 C   0  0  0  0  0  0  0  0  0  0  0  0
    6.0666    0.4872    0.0000 C   0  0  0  0  0  0  0  0  0  0  0  0
    6.0695    1.4872    0.0000 O   0  0  0  0  0  0  0  0  0  0  0  0
    5.1991   -0.0102    0.0000 N   0  0  0  0  0  0  0  0  0  0  0  0
    4.3345    0.4923    0.0000 C   0  0  0  0  0  0  0  0  0  0  0  0
    3.4670   -0.0051    0.0000 C   0  0  0  0  0  0  0  0  0  0  0  0
    2.6025    0.4974    0.0000 C   0  0  0  0  0  0  0  0  0  0  0  0
    2.6054    1.4974    0.0000 O   0  0  0  0  0  0  0  0  0  0  0  0
    1.7350    0.0000    0.0000 C   0  0  0  0  0  0  0  0  0  0  0  0
    0.8675    0.5077    0.0000 C   0  0  0  0  0  0  0  0  0  0  0  0
    0.0000    0.0000    0.0000 C   0  0  0  0  0  0  0  0  0  0  0  0
    0.0000   -1.0052    0.0000 C   0  0  0  0  0  0  0  0  0  0  0  0
    0.8675   -1.5027    0.0000 C   0  0  0  0  0  0  0  0  0  0  0  0
    1.7350   -1.0052    0.0000 C   0  0  0  0  0  0  0  0  0  0  0  0
    2.6003   -1.5065    0.0000 N   0  0  0  0  0  0  0  0  0  0  0  0
    3.4670   -1.0077    0.0000 C   0  0  0  0  0  0  0  0  0  0  0  0
    4.3323   -1.5090    0.0000 O   0  0  0  0  0  0  0  0  0  0  0  0
   -0.8675    0.4974    0.0000 O   0  0  0  0  0  0  0  0  0  0  0  0
   -1.7320   -0.0051    0.0000 C   0  0  0  0  0  0  0  0  0  0  0  0
  1  2  1  0  0  0  0
  2  3  2  0  0  0  0
  2  4  1  0  0  0  0
  4  5  1  0  0  0  0
  5  6  1  0  0  0  0
  6  7  1  0  0  0  0
  7  8  2  0  0  0  0
  7  9  1  0  0  0  0
  9 14  2  0  0  0  0
  9 10  1  0  0  0  0
 10 11  2  0  0  0  0
 11 12  1  0  0  0  0
 12 13  2  0  0  0  0
 13 14  1  0  0  0  0
 14 15  1  0  0  0  0
 15 16  1  0  0  0  0
 16 17  2  0  0  0  0
 11 18  1  0  0  0  0
 18 19  1  0  0  0  0
M  END
$$$$
N-acetyl-5-methoxykynuramine (AMK)
  -OEChem-03262007552D

 17 17  0     0  0  0  0  0  0999 V2000
    6.9311   -0.0153    0.0000 C   0  0  0  0  0  0  0  0  0  0  0  0
    6.0666    0.4872    0.0000 C   0  0  0  0  0  0  0  0  0  0  0  0
    6.0695    1.4872    0.0000 O   0  0  0  0  0  0  0  0  0  0  0  0
    5.1991   -0.0102    0.0000 N   0  0  0  0  0  0  0  0  0  0  0  0
    4.3345    0.4923    0.0000 C   0  0  0  0  0  0  0  0  0  0  0  0
    3.4670   -0.0051    0.0000 C   0  0  0  0  0  0  0  0  0  0  0  0
    2.6025    0.4974    0.0000 C   0  0  0  0  0  0  0  0  0  0  0  0
    2.6054    1.4974    0.0000 O   0  0  0  0  0  0  0  0  0  0  0  0
    1.7350    0.0000    0.0000 C   0  0  0  0  0  0  0  0  0  0  0  0
    0.8675    0.5077    0.0000 C   0  0  0  0  0  0  0  0  0  0  0  0
    0.0000    0.0000    0.0000 C   0  0  0  0  0  0  0  0  0  0  0  0
    0.0000   -1.0052    0.0000 C   0  0  0  0  0  0  0  0  0  0  0  0
    0.8675   -1.5027    0.0000 C   0  0  0  0  0  0  0  0  0  0  0  0
    1.7350   -1.0052    0.0000 C   0  0  0  0  0  0  0  0  0  0  0  0
    2.6003   -1.5065    0.0000 N   0  0  0  0  0  0  0  0  0  0  0  0
   -0.8675    0.4974    0.0000 O   0  0  0  0  0  0  0  0  0  0  0  0
   -1.7320   -0.0051    0.0000 C   0  0  0  0  0  0  0  0  0  0  0  0
  1  2  1  0  0  0  0
  2  3  2  0  0  0  0
  2  4  1  0  0  0  0
  4  5  1  0  0  0  0
  5  6  1  0  0  0  0
  6  7  1  0  0  0  0
  7  8  2  0  0  0  0
  7  9  1  0  0  0  0
  9 14  2  0  0  0  0
  9 10  1  0  0  0  0
 10 11  2  0  0  0  0
 11 12  1  0  0  0  0
 12 13  2  0  0  0  0
 13 14  1  0  0  0  0
 14 15  1  0  0  0  0
 11 16  1  0  0  0  0
 16 17  1  0  0  0  0
M  END
$$$$
3-acetamidomethyl-6-methoxycinnolinone (AMMC)
  -OEChem-03262007552D

 18 19  0     0  0  0  0  0  0999 V2000
    5.2066   -2.9978    0.0000 C   0  0  0  0  0  0  0  0  0  0  0  0
    5.2067   -1.9978    0.0000 C   0  0  0  0  0  0  0  0  0  0  0  0
    4.3407   -1.4978    0.0000 C   0  0  0  0  0  0  0  0  0  0  0  0
    4.3408   -0.4978    0.0000 C   0  0  0  0  0  0  0  0  0  0  0  0
    3.4748    0.0023    0.0000 C   0  0  0  0  0  0  0  0  0  0  0  0
    3.4735    1.0079    0.0000 N   0  0  0  0  0  0  0  0  0  0  0  0
    2.6012    1.5123    0.0000 N   0  0  0  0  0  0  0  0  0  0  0  0
    1.7358    1.0056    0.0000 C   0  0  0  0  0  0  0  0  0  0  0  0
    0.8679    1.5135    0.0000 C   0  0  0  0  0  0  0  0  0  0  0  0
    0.0000    1.0056    0.0000 C   0  0  0  0  0  0  0  0  0  0  0  0
    0.0000    0.0000    0.0000 C   0  0  0  0  0  0  0  0  0  0  0  0
   -0.8653   -0.5013    0.0000 O   0  0  0  0  0  0  0  0  0  0  0  0
   -0.8638   -1.5013    0.0000 C   0  0  0  0  0  0  0  0  0  0  0  0
    0.8679   -0.4977    0.0000 C   0  0  0  0  0  0  0  0  0  0  0  0
    1.7371   -0.0000    0.0000 C   0  0  0  0  0  0  0  0  0  0  0  0
    2.6038   -0.4989    0.0000 C   0  0  0  0  0  0  0  0  0  0  0  0
    2.6037   -1.4989    0.0000 O   0  0  0  0  0  0  0  0  0  0  0  0
    6.0728   -1.4979    0.0000 O   0  0  0  0  0  0  0  0  0  0  0  0
  1  2  1  0  0  0  0
  2  3  1  0  0  0  0
  3  4  1  0  0  0  0
  4  5  1  0  0  0  0
  5 16  1  0  0  0  0
  5  6  2  0  0  0  0
  6  7  1  0  0  0  0
  7  8  1  0  0  0  0
  8 15  1  0  0  0  0
  8  9  2  0  0  0  0
  9 10  1  0  0  0  0
 10 11  2  0  0  0  0
 11 12  1  0  0  0  0
 12 13  1  0  0  0  0
 11 14  1  0  0  0  0
 14 15  2  0  0  0  0
 15 16  1  0  0  0  0
 16 17  2  0  0  0  0
  2 18  2  0  0  0  0
M  END
$$$$
N1-acetyl-5methoxy-3-nitrokynuramine (AMNK)
  -OEChem-03262007552D

 20 20  0     0  0  0  0  0  0999 V2000
   -2.6003   -0.5013    0.0000 N   0  0  0  0  0  0  0  0  0  0  0  0
   -1.7350   -0.0000    0.0000 C   0  0  0  0  0  0  0  0  0  0  0  0
   -0.8675   -0.4975    0.0000 C   0  0  0  0  0  0  0  0  0  0  0  0
   -0.8675   -1.4975    0.0000 N   0  3  0  0  0  0  0  0  0  0  0  0
   -0.0015   -1.9975    0.0000 O   0  5  0  0  0  0  0  0  0  0  0  0
   -1.7335   -1.9975    0.0000 O   0  0  0  0  0  0  0  0  0  0  0  0
    0.0000    0.0000    0.0000 C   0  0  0  0  0  0  0  0  0  0  0  0
   -0.0000    1.0052    0.0000 C   0  0  0  0  0  0  0  0  0  0  0  0
    0.8675    1.5026    0.0000 O   0  0  0  0  0  0  0  0  0  0  0  0
    0.8704    2.5026    0.0000 C   0  0  0  0  0  0  0  0  0  0  0  0
   -0.8675    1.5129    0.0000 C   0  0  0  0  0  0  0  0  0  0  0  0
   -1.7350    1.0052    0.0000 C   0  0  0  0  0  0  0  0  0  0  0  0
   -2.6025    1.5026    0.0000 C   0  0  0  0  0  0  0  0  0  0  0  0
   -3.4670    1.0001    0.0000 C   0  0  0  0  0  0  0  0  0  0  0  0
   -4.3345    1.4975    0.0000 C   0  0  0  0  0  0  0  0  0  0  0  0
   -5.1991    0.9950    0.0000 N   0  0  0  0  0  0  0  0  0  0  0  0
   -6.0666    1.4924    0.0000 C   0  0  0  0  0  0  0  0  0  0  0  0
   -6.9311    0.9899    0.0000 C   0  0  0  0  0  0  0  0  0  0  0  0
   -6.0695    2.4924    0.0000 O   0  0  0  0  0  0  0  0  0  0  0  0
   -2.6054    2.5026    0.0000 O   0  0  0  0  0  0  0  0  0  0  0  0
  1  2  1  0  0  0  0
  2 12  1  0  0  0  0
  2  3  2  0  0  0  0
  3  4  1  0  0  0  0
  4  5  1  0  0  0  0
  4  6  2  0  0  0  0
  3  7  1  0  0  0  0
  7  8  2  0  0  0  0
  8  9  1  0  0  0  0
  9 10  1  0  0  0  0
  8 11  1  0  0  0  0
 11 12  2  0  0  0  0
 12 13  1  0  0  0  0
 13 14  1  0  0  0  0
 14 15  1  0  0  0  0
 15 16  1  0  0  0  0
 16 17  1  0  0  0  0
 17 18  1  0  0  0  0
 17 19  2  0  0  0  0
 13 20  2  0  0  0  0
M  CHG  2   4   1   5  -1
M  END
$$$$
cyclic 3-hydroxymelatonin
  -OEChem-03262007552D

 18 20  0     1  0  0  0  0  0999 V2000
    4.9535   -0.7675    0.0000 C   0  0  0  0  0  0  0  0  0  0  0  0
    5.0537    0.2275    0.0000 C   0  0  0  0  0  0  0  0  0  0  0  0
    5.9655    0.6382    0.0000 O   0  0  0  0  0  0  0  0  0  0  0  0
    4.2422    0.8118    0.0000 N   0  0  0  0  0  0  0  0  0  0  0  0
    4.2379    1.8138    0.0000 C   0  0  0  0  0  0  0  0  0  0  0  0
    3.2838    2.1191    0.0000 C   0  0  0  0  0  0  0  0  0  0  0  0
    2.6984    1.3061    0.0000 C   0  0  3  0  0  0  0  0  0  0  0  0
    3.2908    0.4981    0.0000 C   0  0  3  0  0  0  0  0  0  0  0  0
    2.6967   -0.3194    0.0000 N   0  0  0  0  0  0  0  0  0  0  0  0
    1.7415   -0.0079    0.0000 C   0  0  0  0  0  0  0  0  0  0  0  0
    1.7426    0.9967    0.0000 C   0  0  0  0  0  0  0  0  0  0  0  0
    0.8736    1.5067    0.0000 C   0  0  0  0  0  0  0  0  0  0  0  0
    0.0051    1.0055    0.0000 C   0  0  0  0  0  0  0  0  0  0  0  0
    0.0000    0.0000    0.0000 C   0  0  0  0  0  0  0  0  0  0  0  0
    0.8635   -0.5043    0.0000 C   0  0  0  0  0  0  0  0  0  0  0  0
   -0.8596    1.5078    0.0000 O   0  0  0  0  0  0  0  0  0  0  0  0
   -1.7269    1.0101    0.0000 C   0  0  0  0  0  0  0  0  0  0  0  0
    2.1093    2.1142    0.0000 O   0  0  0  0  0  0  0  0  0  0  0  0
  1  2  1  0  0  0  0
  2  3  2  0  0  0  0
  2  4  1  0  0  0  0
  4  8  1  0  0  0  0
  4  5  1  0  0  0  0
  5  6  1  0  0  0  0
  6  7  1  0  0  0  0
  7 11  1  0  0  0  0
  7  8  1  0  0  0  0
  8  9  1  0  0  0  0
  9 10  1  0  0  0  0
 10 15  1  0  0  0  0
 10 11  2  0  0  0  0
 11 12  1  0  0  0  0
 12 13  2  0  0  0  0
 13 14  1  0  0  0  0
 14 15  2  0  0  0  0
 13 16  1  0  0  0  0
 16 17  1  0  0  0  0
  7 18  1  0  0  0  0
M  END
$$$$
4-nitromelatonin
  -OEChem-03262007552D

 18 19  0     0  0  0  0  0  0999 V2000
    5.5770   -3.5816    0.0000 C   0  0  0  0  0  0  0  0  0  0  0  0
    5.2680   -2.6306    0.0000 C   0  0  0  0  0  0  0  0  0  0  0  0
    4.2899   -2.4226    0.0000 N   0  0  0  0  0  0  0  0  0  0  0  0
    3.9809   -1.4715    0.0000 C   0  0  0  0  0  0  0  0  0  0  0  0
    3.0028   -1.2636    0.0000 C   0  0  0  0  0  0  0  0  0  0  0  0
    2.6938   -0.3125    0.0000 C   0  0  0  0  0  0  0  0  0  0  0  0
    1.7360   -0.0012    0.0000 C   0  0  0  0  0  0  0  0  0  0  0  0
    0.8680   -0.4978    0.0000 C   0  0  0  0  0  0  0  0  0  0  0  0
    3.2858    0.5023    0.0000 C   0  0  0  0  0  0  0  0  0  0  0  0
    2.6938    1.3169    0.0000 N   0  0  0  0  0  0  0  0  0  0  0  0
    1.7360    1.0058    0.0000 C   0  0  0  0  0  0  0  0  0  0  0  0
    0.8680    1.5138    0.0000 C   0  0  0  0  0  0  0  0  0  0  0  0
    0.0000    1.0058    0.0000 C   0  0  0  0  0  0  0  0  0  0  0  0
    0.0000    0.0000    0.0000 C   0  0  0  0  0  0  0  0  0  0  0  0
   -0.8653   -0.5013    0.0000 N   0  3  0  0  0  0  0  0  0  0  0  0
   -0.8639   -1.5013    0.0000 O   0  5  0  0  0  0  0  0  0  0  0  0
   -1.7320   -0.0025    0.0000 O   0  0  0  0  0  0  0  0  0  0  0  0
    5.9372   -1.8874    0.0000 O   0  0  0  0  0  0  0  0  0  0  0  0
  1  2  1  0  0  0  0
  2  3  1  0  0  0  0
  3  4  1  0  0  0  0
  4  5  1  0  0  0  0
  5  6  1  0  0  0  0
  6  7  1  0  0  0  0
  7 11  1  0  0  0  0
  7  8  2  0  0  0  0
  8 14  1  0  0  0  0
  6  9  2  0  0  0  0
  9 10  1  0  0  0  0
 10 11  1  0  0  0  0
 11 12  2  0  0  0  0
 12 13  1  0  0  0  0
 13 14  2  0  0  0  0
 14 15  1  0  0  0  0
 15 16  1  0  0  0  0
 15 17  2  0  0  0  0
  2 18  2  0  0  0  0
M  CHG  2  15   1  16  -1
M  END
$$$$
