HEI-REL-0c9-5
 OpenBabel03242009303D

 49 51  0  0  1  0  0  0  0  0999 V2000
    9.9916   -2.1588   24.2937 C   0  0  0  0  0  0  0  0  0  0  0  0
    9.2794    0.0448   24.9666 C   0  0  0  0  0  0  0  0  0  0  0  0
    9.8844   -2.6162   25.6164 C   0  0  0  0  0  0  0  0  0  0  0  0
    9.4905   -1.7200   26.6259 C   0  0  0  0  0  0  0  0  0  0  0  0
    9.6881   -0.8367   23.9708 C   0  0  0  0  0  0  0  0  0  0  0  0
    9.1785   -0.3944   26.2861 C   0  0  0  0  0  0  0  0  0  0  0  0
    5.9771   -0.7660   18.5696 C   0  0  0  0  0  0  0  0  0  0  0  0
   10.2565   -4.0462   25.9246 C   0  0  0  0  0  0  0  0  0  0  0  0
    9.3327   -2.1597   28.0586 C   0  0  0  0  0  0  0  0  0  0  0  0
   10.0151   -3.4915   28.3702 C   0  0  0  0  0  0  0  0  0  0  0  0
    7.2283    0.8472   20.0823 C   0  0  0  0  0  0  0  0  0  0  0  0
    6.5831   -1.3901   20.8839 C   0  0  0  0  0  0  0  0  0  0  0  0
    8.5946    0.6615   20.7449 C   0  0  0  0  0  0  0  0  0  0  0  0
    7.9626   -1.5354   21.5253 C   0  0  0  0  0  0  0  0  0  0  0  0
    9.7702   -4.5392   27.2886 C   0  0  1  0  0  0  0  0  0  0  0  0
    5.9307    0.3163   17.5207 C   0  0  0  0  0  0  0  0  0  0  0  0
    9.8013   -0.3692   22.5592 C   0  0  0  0  0  0  0  0  0  0  0  0
    6.6135   -0.4458   19.7680 N   0  0  0  0  0  0  0  0  0  0  0  0
    8.4964   -0.2224   21.9158 N   0  0  0  0  0  0  0  0  0  0  0  0
    7.8611   -5.5185   28.8529 N   0  0  0  0  0  0  0  0  0  0  0  0
    5.4667   -1.8629   18.3286 O   0  0  0  0  0  0  0  0  0  0  0  0
    7.2651   -3.8674   26.9726 O   0  0  0  0  0  0  0  0  0  0  0  0
    7.9844   -6.2163   26.3801 O   0  0  0  0  0  0  0  0  0  0  0  0
    8.0703   -5.0451   27.2301 S   0  0  0  0  0  0  0  0  0  0  0  0
    8.6325    0.7611   27.4561 Cl  0  0  0  0  0  0  0  0  0  0  0  0
   10.3150   -2.8426   23.5115 H   0  0  0  0  0  0  0  0  0  0  0  0
    9.0378    1.0730   24.7058 H   0  0  0  0  0  0  0  0  0  0  0  0
    9.8766   -4.7048   25.1338 H   0  0  0  0  0  0  0  0  0  0  0  0
   11.3525   -4.1062   25.9013 H   0  0  0  0  0  0  0  0  0  0  0  0
    9.7616   -1.4148   28.7392 H   0  0  0  0  0  0  0  0  0  0  0  0
    8.2619   -2.2370   28.2837 H   0  0  0  0  0  0  0  0  0  0  0  0
   11.0972   -3.3258   28.4578 H   0  0  0  0  0  0  0  0  0  0  0  0
    9.6733   -3.8543   29.3468 H   0  0  0  0  0  0  0  0  0  0  0  0
    6.5422    1.3713   20.7592 H   0  0  0  0  0  0  0  0  0  0  0  0
    7.3424    1.4693   19.1924 H   0  0  0  0  0  0  0  0  0  0  0  0
    6.2244   -2.3700   20.5527 H   0  0  0  0  0  0  0  0  0  0  0  0
    5.8580   -1.0065   21.6123 H   0  0  0  0  0  0  0  0  0  0  0  0
    9.3053    0.2625   20.0127 H   0  0  0  0  0  0  0  0  0  0  0  0
    8.9577    1.6452   21.0583 H   0  0  0  0  0  0  0  0  0  0  0  0
    7.8608   -2.1682   22.4125 H   0  0  0  0  0  0  0  0  0  0  0  0
    8.6404   -2.0434   20.8303 H   0  0  0  0  0  0  0  0  0  0  0  0
   10.3137   -5.4567   27.5465 H   0  0  0  0  0  0  0  0  0  0  0  0
    6.8102    0.2374   16.8902 H   0  0  0  0  0  0  0  0  0  0  0  0
    5.9109    1.2848   18.0101 H   0  0  0  0  0  0  0  0  0  0  0  0
    5.0333    0.1932   16.9230 H   0  0  0  0  0  0  0  0  0  0  0  0
   10.3079    0.6046   22.5038 H   0  0  0  0  0  0  0  0  0  0  0  0
   10.3903   -1.0680   21.9492 H   0  0  0  0  0  0  0  0  0  0  0  0
    7.2803   -4.9226   29.4556 H   0  0  0  0  0  0  0  0  0  0  0  0
    7.7703   -6.5223   29.0520 H   0  0  0  0  0  0  0  0  0  0  0  0
  1  3  1  0  0  0  0
  1  5  2  0  0  0  0
  1 26  1  0  0  0  0
  2  5  1  0  0  0  0
  2  6  2  0  0  0  0
  2 27  1  0  0  0  0
  3  4  2  0  0  0  0
  3  8  1  0  0  0  0
  4  6  1  0  0  0  0
  4  9  1  0  0  0  0
  5 17  1  0  0  0  0
  6 25  1  0  0  0  0
  7 16  1  0  0  0  0
  7 18  1  0  0  0  0
  7 21  2  0  0  0  0
  8 15  1  0  0  0  0
  8 28  1  0  0  0  0
  8 29  1  0  0  0  0
  9 10  1  0  0  0  0
  9 30  1  0  0  0  0
  9 31  1  0  0  0  0
 10 15  1  0  0  0  0
 10 32  1  0  0  0  0
 10 33  1  0  0  0  0
 11 13  1  0  0  0  0
 11 18  1  0  0  0  0
 11 34  1  0  0  0  0
 11 35  1  0  0  0  0
 12 14  1  0  0  0  0
 12 18  1  0  0  0  0
 12 36  1  0  0  0  0
 12 37  1  0  0  0  0
 13 19  1  0  0  0  0
 13 38  1  0  0  0  0
 13 39  1  0  0  0  0
 14 19  1  0  0  0  0
 14 40  1  0  0  0  0
 14 41  1  0  0  0  0
 15 24  1  0  0  0  0
 15 42  1  1  0  0  0
 16 43  1  0  0  0  0
 16 44  1  0  0  0  0
 16 45  1  0  0  0  0
 17 19  1  0  0  0  0
 17 46  1  0  0  0  0
 17 47  1  0  0  0  0
 20 24  1  0  0  0  0
 20 48  1  0  0  0  0
 20 49  1  0  0  0  0
 22 24  2  0  0  0  0
 23 24  2  0  0  0  0
M  END
>  <Chemgauss4 Score>
-6.09450769424438

>  <Number of Confs>
200

$$$$
