TRI-UNI-974-2
 OpenBabel03242009303D

 53 55  0  0  0  0  0  0  0  0999 V2000
    6.0227   -2.6787   22.8672 C   0  0  0  0  0  0  0  0  0  0  0  0
    7.0878   -3.1439   22.1041 C   0  0  0  0  0  0  0  0  0  0  0  0
   11.9361   -1.5523   22.2080 C   0  0  0  0  0  0  0  0  0  0  0  0
   12.3312    0.2646   23.7507 C   0  0  0  0  0  0  0  0  0  0  0  0
   11.2649   -2.2556   23.2082 C   0  0  0  0  0  0  0  0  0  0  0  0
   11.6599   -0.4387   24.7509 C   0  0  0  0  0  0  0  0  0  0  0  0
    5.3102   -3.5635   23.6689 C   0  0  0  0  0  0  0  0  0  0  0  0
    7.3979   -4.4924   22.1774 C   0  0  0  0  0  0  0  0  0  0  0  0
   12.4693   -0.2922   22.4793 C   0  0  0  0  0  0  0  0  0  0  0  0
   11.1267   -1.6988   24.4797 C   0  0  0  0  0  0  0  0  0  0  0  0
    5.6998   -4.8932   23.6721 C   0  0  0  0  0  0  0  0  0  0  0  0
    6.5900   -5.8709   26.4093 C   0  0  0  0  0  0  0  0  0  0  0  0
   10.4675   -3.8693   25.4783 C   0  0  0  0  0  0  0  0  0  0  0  0
    9.2634   -1.7826   26.0815 C   0  0  0  0  0  0  0  0  0  0  0  0
   10.1359   -4.4145   26.8697 C   0  0  0  0  0  0  0  0  0  0  0  0
    8.9717   -2.3946   27.4536 C   0  0  0  0  0  0  0  0  0  0  0  0
   13.1875    0.4604   21.4107 C   0  0  0  0  0  0  0  0  0  0  0  0
    4.9529   -5.8767   24.5259 C   0  0  0  0  0  0  0  0  0  0  0  0
    8.5399   -4.4259   28.6732 C   0  0  0  0  0  0  0  0  0  0  0  0
    7.8562   -5.7774   28.5521 C   0  0  0  0  0  0  0  0  0  0  0  0
    6.7290   -5.3822   22.9445 N   0  0  0  0  0  0  0  0  0  0  0  0
   10.4518   -2.4033   25.4828 N   0  0  0  0  0  0  0  0  0  0  0  0
    8.8726   -3.8569   27.3677 N   0  0  0  0  0  0  0  0  0  0  0  0
    5.2910   -5.7447   25.9243 N   0  0  0  0  0  0  0  0  0  0  0  0
    6.6372   -5.6983   27.7937 N   0  0  0  0  0  0  0  0  0  0  0  0
    7.5747   -6.1041   25.7096 O   0  0  0  0  0  0  0  0  0  0  0  0
    5.7484   -1.6285   22.8371 H   0  0  0  0  0  0  0  0  0  0  0  0
    7.6572   -2.4723   21.4720 H   0  0  0  0  0  0  0  0  0  0  0  0
   12.0399   -1.9940   21.2207 H   0  0  0  0  0  0  0  0  0  0  0  0
   12.7447    1.2449   23.9717 H   0  0  0  0  0  0  0  0  0  0  0  0
   10.8544   -3.2374   22.9866 H   0  0  0  0  0  0  0  0  0  0  0  0
   11.5587    0.0044   25.7383 H   0  0  0  0  0  0  0  0  0  0  0  0
    4.4773   -3.2132   24.2690 H   0  0  0  0  0  0  0  0  0  0  0  0
    8.2199   -4.9052   21.6019 H   0  0  0  0  0  0  0  0  0  0  0  0
   11.4578   -4.2365   25.1810 H   0  0  0  0  0  0  0  0  0  0  0  0
    9.7401   -4.2467   24.7473 H   0  0  0  0  0  0  0  0  0  0  0  0
    8.3985   -1.9220   25.4191 H   0  0  0  0  0  0  0  0  0  0  0  0
    9.4201   -0.7033   26.2009 H   0  0  0  0  0  0  0  0  0  0  0  0
   10.0562   -5.5061   26.7960 H   0  0  0  0  0  0  0  0  0  0  0  0
   10.9633   -4.1968   27.5586 H   0  0  0  0  0  0  0  0  0  0  0  0
    9.7505   -2.0918   28.1666 H   0  0  0  0  0  0  0  0  0  0  0  0
    8.0233   -1.9793   27.8158 H   0  0  0  0  0  0  0  0  0  0  0  0
   12.4861    1.0897   20.8493 H   0  0  0  0  0  0  0  0  0  0  0  0
   13.9702    1.1035   21.8335 H   0  0  0  0  0  0  0  0  0  0  0  0
   13.6827   -0.2217   20.7072 H   0  0  0  0  0  0  0  0  0  0  0  0
    3.8717   -5.7325   24.4252 H   0  0  0  0  0  0  0  0  0  0  0  0
    5.1732   -6.9060   24.2240 H   0  0  0  0  0  0  0  0  0  0  0  0
    9.4705   -4.4989   29.2449 H   0  0  0  0  0  0  0  0  0  0  0  0
    7.8778   -3.7133   29.1747 H   0  0  0  0  0  0  0  0  0  0  0  0
    8.5098   -6.4878   28.0366 H   0  0  0  0  0  0  0  0  0  0  0  0
    7.6056   -6.1871   29.5359 H   0  0  0  0  0  0  0  0  0  0  0  0
    4.5453   -5.5506   26.5853 H   0  0  0  0  0  0  0  0  0  0  0  0
    5.7744   -5.4624   28.2800 H   0  0  0  0  0  0  0  0  0  0  0  0
  1  2  1  0  0  0  0
  1  7  2  0  0  0  0
  1 27  1  0  0  0  0
  2  8  2  0  0  0  0
  2 28  1  0  0  0  0
  3  5  2  0  0  0  0
  3  9  1  0  0  0  0
  3 29  1  0  0  0  0
  4  6  1  0  0  0  0
  4  9  2  0  0  0  0
  4 30  1  0  0  0  0
  5 10  1  0  0  0  0
  5 31  1  0  0  0  0
  6 10  2  0  0  0  0
  6 32  1  0  0  0  0
  7 11  1  0  0  0  0
  7 33  1  0  0  0  0
  8 21  1  0  0  0  0
  8 34  1  0  0  0  0
  9 17  1  0  0  0  0
 10 22  1  0  0  0  0
 11 18  1  0  0  0  0
 11 21  2  0  0  0  0
 12 24  1  0  0  0  0
 12 25  1  0  0  0  0
 12 26  2  0  0  0  0
 13 15  1  0  0  0  0
 13 22  1  0  0  0  0
 13 35  1  0  0  0  0
 13 36  1  0  0  0  0
 14 16  1  0  0  0  0
 14 22  1  0  0  0  0
 14 37  1  0  0  0  0
 14 38  1  0  0  0  0
 15 23  1  0  0  0  0
 15 39  1  0  0  0  0
 15 40  1  0  0  0  0
 16 23  1  0  0  0  0
 16 41  1  0  0  0  0
 16 42  1  0  0  0  0
 17 43  1  0  0  0  0
 17 44  1  0  0  0  0
 17 45  1  0  0  0  0
 18 24  1  0  0  0  0
 18 46  1  0  0  0  0
 18 47  1  0  0  0  0
 19 20  1  0  0  0  0
 19 23  1  0  0  0  0
 19 48  1  0  0  0  0
 19 49  1  0  0  0  0
 20 25  1  0  0  0  0
 20 50  1  0  0  0  0
 20 51  1  0  0  0  0
 24 52  1  0  0  0  0
 25 53  1  0  0  0  0
M  END
>  <Chemgauss4 Score>
-4.68572282791138

>  <Number of Confs>
200

$$$$
