CHR-SOS-709-22
 OpenBabel03242009303D

 41 43  0  0  0  0  0  0  0  0999 V2000
    8.8134   -3.7690   28.0147 C   0  0  0  0  0  0  0  0  0  0  0  0
    5.4397    0.8806   19.7534 C   0  0  0  0  0  0  0  0  0  0  0  0
    6.4702    0.5747   20.6353 C   0  0  0  0  0  0  0  0  0  0  0  0
    9.7410   -2.7790   27.6908 C   0  0  0  0  0  0  0  0  0  0  0  0
    8.5779   -4.8208   27.1292 C   0  0  0  0  0  0  0  0  0  0  0  0
   10.0983   -1.0033   24.3166 C   0  0  0  0  0  0  0  0  0  0  0  0
   11.2501   -0.3032   22.3116 C   0  0  0  0  0  0  0  0  0  0  0  0
   10.1976   -3.8923   25.5958 C   0  0  0  0  0  0  0  0  0  0  0  0
   12.5050   -1.1695   24.1855 C   0  0  0  0  0  0  0  0  0  0  0  0
    5.6808    0.7309   18.3972 C   0  0  0  0  0  0  0  0  0  0  0  0
    7.8333    0.0182   18.7676 C   0  0  0  0  0  0  0  0  0  0  0  0
   10.0639   -0.4811   23.0237 C   0  0  0  0  0  0  0  0  0  0  0  0
    7.6930    0.1346   20.1411 C   0  0  0  0  0  0  0  0  0  0  0  0
   10.4331   -2.8406   26.4813 C   0  0  0  0  0  0  0  0  0  0  0  0
   11.3189   -1.3475   24.8976 C   0  0  0  0  0  0  0  0  0  0  0  0
    9.2700   -4.8824   25.9198 C   0  0  0  0  0  0  0  0  0  0  0  0
   12.4706   -0.6474   22.8925 C   0  0  0  0  0  0  0  0  0  0  0  0
    8.7911   -0.1240   22.4172 C   0  0  0  0  0  0  0  0  0  0  0  0
    6.8553    0.3061   17.8797 N   0  0  0  0  0  0  0  0  0  0  0  0
   10.1355   -7.3373   25.3460 N   0  0  0  0  0  0  0  0  0  0  0  0
    8.7625   -0.1846   21.0153 N   0  0  0  0  0  0  0  0  0  0  0  0
    7.8234    0.2388   23.1002 O   0  0  0  0  0  0  0  0  0  0  0  0
    7.6452   -6.7300   25.0714 O   0  0  0  0  0  0  0  0  0  0  0  0
    9.3336   -5.7645   23.4698 O   0  0  0  0  0  0  0  0  0  0  0  0
   11.3533   -1.8572   26.1592 O   0  0  0  0  0  0  0  0  0  0  0  0
    8.9768   -6.2006   24.8125 S   0  0  0  0  0  0  0  0  0  0  0  0
   13.9344   -0.4267   22.0152 Cl  0  0  0  0  0  0  0  0  0  0  0  0
    8.2744   -3.7208   28.9562 H   0  0  0  0  0  0  0  0  0  0  0  0
    4.4781    1.2253   20.1163 H   0  0  0  0  0  0  0  0  0  0  0  0
    6.3097    0.6826   21.7048 H   0  0  0  0  0  0  0  0  0  0  0  0
    9.9199   -1.9622   28.3846 H   0  0  0  0  0  0  0  0  0  0  0  0
    7.8540   -5.5874   27.3919 H   0  0  0  0  0  0  0  0  0  0  0  0
    9.1760   -1.1427   24.8759 H   0  0  0  0  0  0  0  0  0  0  0  0
   11.2199    0.1036   21.3032 H   0  0  0  0  0  0  0  0  0  0  0  0
   10.7395   -3.9357   24.6540 H   0  0  0  0  0  0  0  0  0  0  0  0
   13.4523   -1.4408   24.6460 H   0  0  0  0  0  0  0  0  0  0  0  0
    4.9098    0.9573   17.6682 H   0  0  0  0  0  0  0  0  0  0  0  0
    8.7639   -0.3204   18.3218 H   0  0  0  0  0  0  0  0  0  0  0  0
   11.1256   -7.1434   25.1521 H   0  0  0  0  0  0  0  0  0  0  0  0
    9.9727   -7.8054   26.2458 H   0  0  0  0  0  0  0  0  0  0  0  0
    9.6205   -0.4984   20.5685 H   0  0  0  0  0  0  0  0  0  0  0  0
  1  4  1  0  0  0  0
  1  5  2  0  0  0  0
  1 28  1  0  0  0  0
  2  3  2  0  0  0  0
  2 10  1  0  0  0  0
  2 29  1  0  0  0  0
  3 13  1  0  0  0  0
  3 30  1  0  0  0  0
  4 14  2  0  0  0  0
  4 31  1  0  0  0  0
  5 16  1  0  0  0  0
  5 32  1  0  0  0  0
  6 12  1  0  0  0  0
  6 15  2  0  0  0  0
  6 33  1  0  0  0  0
  7 12  2  0  0  0  0
  7 17  1  0  0  0  0
  7 34  1  0  0  0  0
  8 14  1  0  0  0  0
  8 16  2  0  0  0  0
  8 35  1  0  0  0  0
  9 15  1  0  0  0  0
  9 17  2  0  0  0  0
  9 36  1  0  0  0  0
 10 19  2  0  0  0  0
 10 37  1  0  0  0  0
 11 13  2  0  0  0  0
 11 19  1  0  0  0  0
 11 38  1  0  0  0  0
 12 18  1  0  0  0  0
 13 21  1  0  0  0  0
 14 25  1  0  0  0  0
 15 25  1  0  0  0  0
 16 26  1  0  0  0  0
 17 27  1  0  0  0  0
 18 21  1  0  0  0  0
 18 22  2  0  0  0  0
 20 26  1  0  0  0  0
 20 39  1  0  0  0  0
 20 40  1  0  0  0  0
 21 41  1  0  0  0  0
 23 26  2  0  0  0  0
 24 26  2  0  0  0  0
M  END
>  <Chemgauss4 Score>
-4.73244762420654

>  <Number of Confs>
200

$$$$
