SAL-INS-cba-3
 OpenBabel03242009303D

 46 49  0  0  0  0  0  0  0  0999 V2000
    7.6644   -5.8053   26.1594 C   0  0  0  0  0  0  0  0  0  0  0  0
    8.8479   -5.6334   26.8438 C   0  0  0  0  0  0  0  0  0  0  0  0
    5.6953    2.5603   21.1005 C   0  0  0  0  0  0  0  0  0  0  0  0
    6.6748    4.0511   22.3946 C   0  0  0  0  0  0  0  0  0  0  0  0
    8.4717   -2.5386   24.9783 C   0  0  0  0  0  0  0  0  0  0  0  0
    8.5345   -3.7777   25.6677 C   0  0  0  0  0  0  0  0  0  0  0  0
    7.4810   -4.6067   25.4118 C   0  0  0  0  0  0  0  0  0  0  0  0
    6.3429    1.9622   22.1556 C   0  0  0  0  0  0  0  0  0  0  0  0
    7.3307   -2.4918   24.2058 C   0  0  0  0  0  0  0  0  0  0  0  0
    7.0470   -0.0822   23.4761 C   0  0  0  0  0  0  0  0  0  0  0  0
   12.0126   -0.9680   24.9036 C   0  0  0  0  0  0  0  0  0  0  0  0
   10.8927   -2.5083   23.2399 C   0  0  0  0  0  0  0  0  0  0  0  0
   11.9512    0.1756   23.8887 C   0  0  0  0  0  0  0  0  0  0  0  0
   10.8336   -1.3670   22.2215 C   0  0  0  0  0  0  0  0  0  0  0  0
   10.9108   -2.0170   24.6947 C   0  0  2  0  0  0  0  0  0  0  0  0
   11.9364   -0.3338   22.4474 C   0  0  2  0  0  0  0  0  0  0  0  0
    9.5402   -1.4914   25.1302 C   0  0  0  0  0  0  0  0  0  0  0  0
    6.9504    2.8956   22.9577 N   0  0  0  0  0  0  0  0  0  0  0  0
    5.9164    3.8984   21.2673 N   0  0  0  0  0  0  0  0  0  0  0  0
    9.3789   -4.4064   26.5493 N   0  0  0  0  0  0  0  0  0  0  0  0
    6.4004    0.5726   22.4156 N   0  0  0  0  0  0  0  0  0  0  0  0
    6.8681   -1.5002   23.3818 N   0  0  0  0  0  0  0  0  0  0  0  0
    7.6820    0.4697   24.3690 O   0  0  0  0  0  0  0  0  0  0  0  0
   13.1928   -0.9331   22.1357 O   0  0  0  0  0  0  0  0  0  0  0  0
    6.3504   -3.9038   24.3031 S   0  0  0  0  0  0  0  0  0  0  0  0
    7.0215   -6.6732   26.1920 H   0  0  0  0  0  0  0  0  0  0  0  0
    9.3657   -6.2923   27.5269 H   0  0  0  0  0  0  0  0  0  0  0  0
    5.1167    2.1742   20.2733 H   0  0  0  0  0  0  0  0  0  0  0  0
    6.9880    5.0227   22.7490 H   0  0  0  0  0  0  0  0  0  0  0  0
   13.0029   -1.4483   24.8433 H   0  0  0  0  0  0  0  0  0  0  0  0
   11.9405   -0.5475   25.9210 H   0  0  0  0  0  0  0  0  0  0  0  0
   10.0272   -3.1745   23.0812 H   0  0  0  0  0  0  0  0  0  0  0  0
   11.7877   -3.1205   23.0410 H   0  0  0  0  0  0  0  0  0  0  0  0
   11.0607    0.7913   24.0728 H   0  0  0  0  0  0  0  0  0  0  0  0
   12.8079    0.8488   24.0358 H   0  0  0  0  0  0  0  0  0  0  0  0
   10.9101   -1.7738   21.2031 H   0  0  0  0  0  0  0  0  0  0  0  0
    9.8513   -0.8783   22.2677 H   0  0  0  0  0  0  0  0  0  0  0  0
   11.1513   -2.8887   25.3398 H   0  0  0  0  0  0  0  0  0  0  0  0
   11.7943    0.5114   21.7586 H   0  0  0  0  0  0  0  0  0  0  0  0
    9.2844   -0.6075   24.5375 H   0  0  0  0  0  0  0  0  0  0  0  0
    9.5923   -1.1587   26.1718 H   0  0  0  0  0  0  0  0  0  0  0  0
    5.5819    4.6397   20.6663 H   0  0  0  0  0  0  0  0  0  0  0  0
   10.2377   -4.0014   26.9003 H   0  0  0  0  0  0  0  0  0  0  0  0
    5.9136   -0.0255   21.7528 H   0  0  0  0  0  0  0  0  0  0  0  0
    6.3024   -1.7799   22.5588 H   0  0  0  0  0  0  0  0  0  0  0  0
   13.8658   -0.2435   22.2496 H   0  0  0  0  0  0  0  0  0  0  0  0
  1  2  2  0  0  0  0
  1  7  1  0  0  0  0
  1 26  1  0  0  0  0
  2 20  1  0  0  0  0
  2 27  1  0  0  0  0
  3  8  2  0  0  0  0
  3 19  1  0  0  0  0
  3 28  1  0  0  0  0
  4 18  2  0  0  0  0
  4 19  1  0  0  0  0
  4 29  1  0  0  0  0
  5  6  1  0  0  0  0
  5  9  2  0  0  0  0
  5 17  1  0  0  0  0
  6  7  2  0  0  0  0
  6 20  1  0  0  0  0
  7 25  1  0  0  0  0
  8 18  1  0  0  0  0
  8 21  1  0  0  0  0
  9 22  1  0  0  0  0
  9 25  1  0  0  0  0
 10 21  1  0  0  0  0
 10 22  1  0  0  0  0
 10 23  2  0  0  0  0
 11 13  1  0  0  0  0
 11 15  1  0  0  0  0
 11 30  1  0  0  0  0
 11 31  1  0  0  0  0
 12 14  1  0  0  0  0
 12 15  1  0  0  0  0
 12 32  1  0  0  0  0
 12 33  1  0  0  0  0
 13 16  1  0  0  0  0
 13 34  1  0  0  0  0
 13 35  1  0  0  0  0
 14 16  1  0  0  0  0
 14 36  1  0  0  0  0
 14 37  1  0  0  0  0
 15 17  1  0  0  0  0
 15 38  1  1  0  0  0
 16 24  1  0  0  0  0
 16 39  1  6  0  0  0
 17 40  1  0  0  0  0
 17 41  1  0  0  0  0
 19 42  1  0  0  0  0
 20 43  1  0  0  0  0
 21 44  1  0  0  0  0
 22 45  1  0  0  0  0
 24 46  1  0  0  0  0
M  END
>  <Chemgauss4 Score>
-5.18255043029785

>  <Number of Confs>
78

$$$$
