ROB-UNI-b2e-2
 OpenBabel03242009303D

 44 45  0  0  0  0  0  0  0  0999 V2000
    9.7791   -0.6581   25.7623 C   0  0  0  0  0  0  0  0  0  0  0  0
    9.3545   -2.8832   26.6372 C   0  0  0  0  0  0  0  0  0  0  0  0
   11.5986   -1.7533   22.7874 C   0  0  0  0  0  0  0  0  0  0  0  0
   10.4566   -1.2276   24.6660 C   0  0  0  0  0  0  0  0  0  0  0  0
   10.0221   -3.4709   25.5589 C   0  0  0  0  0  0  0  0  0  0  0  0
   11.1148   -0.6954   23.5221 C   0  0  0  0  0  0  0  0  0  0  0  0
   10.5623   -2.6181   24.5897 C   0  0  0  0  0  0  0  0  0  0  0  0
    9.2336   -1.4988   26.7394 C   0  0  0  0  0  0  0  0  0  0  0  0
    5.8336   -5.8561   23.3643 C   0  0  0  0  0  0  0  0  0  0  0  0
    7.4212    1.1191   20.1878 C   0  0  0  0  0  0  0  0  0  0  0  0
   10.1337   -4.9569   25.4808 C   0  0  0  0  0  0  0  0  0  0  0  0
   11.2584    0.7334   23.1762 C   0  0  0  0  0  0  0  0  0  0  0  0
    8.8381   -5.6456   25.0357 C   0  0  0  0  0  0  0  0  0  0  0  0
   10.3138    1.2057   22.0561 C   0  0  0  0  0  0  0  0  0  0  0  0
   11.2602   -2.9088   23.4392 N   0  0  0  0  0  0  0  0  0  0  0  0
    8.4218   -5.2314   23.7226 N   0  0  0  0  0  0  0  0  0  0  0  0
    8.9292    1.0430   22.4100 N   0  0  0  0  0  0  0  0  0  0  0  0
    6.9065   -3.7602   22.2214 O   0  0  0  0  0  0  0  0  0  0  0  0
    6.5405   -3.7397   24.7158 O   0  0  0  0  0  0  0  0  0  0  0  0
    6.7322   -0.3228   22.2606 O   0  0  0  0  0  0  0  0  0  0  0  0
    8.7117   -1.0416   20.8744 O   0  0  0  0  0  0  0  0  0  0  0  0
    6.9040   -4.4427   23.5005 S   0  0  0  0  0  0  0  0  0  0  0  0
    7.9115    0.0037   21.4830 S   0  0  0  0  0  0  0  0  0  0  0  0
    8.4038   -0.8099   28.0832 Cl  0  0  0  0  0  0  0  0  0  0  0  0
    9.6840    0.4218   25.8429 H   0  0  0  0  0  0  0  0  0  0  0  0
    8.9241   -3.5231   27.4060 H   0  0  0  0  0  0  0  0  0  0  0  0
   12.1532   -1.7893   21.8600 H   0  0  0  0  0  0  0  0  0  0  0  0
    4.8122   -5.5017   23.2166 H   0  0  0  0  0  0  0  0  0  0  0  0
    6.1584   -6.4531   22.5107 H   0  0  0  0  0  0  0  0  0  0  0  0
    5.9081   -6.4346   24.2863 H   0  0  0  0  0  0  0  0  0  0  0  0
    6.7568    0.5851   19.5067 H   0  0  0  0  0  0  0  0  0  0  0  0
    6.9041    1.9665   20.6406 H   0  0  0  0  0  0  0  0  0  0  0  0
    8.3178    1.4535   19.6638 H   0  0  0  0  0  0  0  0  0  0  0  0
   10.4198   -5.3536   26.4692 H   0  0  0  0  0  0  0  0  0  0  0  0
   10.9541   -5.2492   24.8035 H   0  0  0  0  0  0  0  0  0  0  0  0
   12.2976    0.9440   22.8550 H   0  0  0  0  0  0  0  0  0  0  0  0
   11.1060    1.3802   24.0637 H   0  0  0  0  0  0  0  0  0  0  0  0
    8.9752   -6.7308   24.9956 H   0  0  0  0  0  0  0  0  0  0  0  0
    8.0157   -5.4307   25.7260 H   0  0  0  0  0  0  0  0  0  0  0  0
   10.4616    2.2686   21.8404 H   0  0  0  0  0  0  0  0  0  0  0  0
   10.4871    0.6427   21.1331 H   0  0  0  0  0  0  0  0  0  0  0  0
   11.4904   -3.8401   23.1214 H   0  0  0  0  0  0  0  0  0  0  0  0
    8.7031   -5.8601   22.9391 H   0  0  0  0  0  0  0  0  0  0  0  0
    8.4548    1.8929   22.7855 H   0  0  0  0  0  0  0  0  0  0  0  0
  1  4  1  0  0  0  0
  1  8  2  0  0  0  0
  1 25  1  0  0  0  0
  2  5  2  0  0  0  0
  2  8  1  0  0  0  0
  2 26  1  0  0  0  0
  3  6  2  0  0  0  0
  3 15  1  0  0  0  0
  3 27  1  0  0  0  0
  4  6  1  0  0  0  0
  4  7  2  0  0  0  0
  5  7  1  0  0  0  0
  5 11  1  0  0  0  0
  6 12  1  0  0  0  0
  7 15  1  0  0  0  0
  8 24  1  0  0  0  0
  9 22  1  0  0  0  0
  9 28  1  0  0  0  0
  9 29  1  0  0  0  0
  9 30  1  0  0  0  0
 10 23  1  0  0  0  0
 10 31  1  0  0  0  0
 10 32  1  0  0  0  0
 10 33  1  0  0  0  0
 11 13  1  0  0  0  0
 11 34  1  0  0  0  0
 11 35  1  0  0  0  0
 12 14  1  0  0  0  0
 12 36  1  0  0  0  0
 12 37  1  0  0  0  0
 13 16  1  0  0  0  0
 13 38  1  0  0  0  0
 13 39  1  0  0  0  0
 14 17  1  0  0  0  0
 14 40  1  0  0  0  0
 14 41  1  0  0  0  0
 15 42  1  0  0  0  0
 16 22  1  0  0  0  0
 16 43  1  0  0  0  0
 17 23  1  0  0  0  0
 17 44  1  0  0  0  0
 18 22  2  0  0  0  0
 19 22  2  0  0  0  0
 20 23  2  0  0  0  0
 21 23  2  0  0  0  0
M  END
>  <Chemgauss4 Score>
-5.84959268569946

>  <Number of Confs>
200

$$$$
