SAM-UNK-83e-1
 OpenBabel03242009303D

 46 48  0  0  0  0  0  0  0  0999 V2000
   10.9177   -0.5652   22.1364 C   0  0  0  0  0  0  0  0  0  0  0  0
   11.8156   -2.4224   23.4177 C   0  0  0  0  0  0  0  0  0  0  0  0
    7.7587   -0.3292   23.9599 C   0  0  0  0  0  0  0  0  0  0  0  0
    9.7517   -0.5946   22.9269 C   0  0  0  0  0  0  0  0  0  0  0  0
    8.5487    0.1652   22.9478 C   0  0  0  0  0  0  0  0  0  0  0  0
   10.6684   -2.4705   24.2148 C   0  0  0  0  0  0  0  0  0  0  0  0
    9.6541   -1.5447   23.9458 C   0  0  0  0  0  0  0  0  0  0  0  0
   11.9405   -1.4852   22.3940 C   0  0  0  0  0  0  0  0  0  0  0  0
    8.1855    1.2388   22.1052 C   0  0  0  0  0  0  0  0  0  0  0  0
    7.4903    1.1169   20.9522 C   0  0  0  0  0  0  0  0  0  0  0  0
    6.3066   -0.0580   19.1931 C   0  0  0  0  0  0  0  0  0  0  0  0
    6.9518   -4.5748   25.3774 C   0  0  0  0  0  0  0  0  0  0  0  0
    7.7783   -4.2571   27.7354 C   0  0  0  0  0  0  0  0  0  0  0  0
    8.4056   -4.4742   24.9047 C   0  0  0  0  0  0  0  0  0  0  0  0
    9.2010   -4.1681   27.1741 C   0  0  0  0  0  0  0  0  0  0  0  0
    6.8437   -5.0517   26.8247 C   0  0  2  0  0  0  0  0  0  0  0  0
    5.8714   -1.4509   18.8194 C   0  0  0  0  0  0  0  0  0  0  0  0
   10.5678   -3.4934   25.3092 C   0  0  0  0  0  0  0  0  0  0  0  0
    8.4340   -1.3601   24.5562 N   0  0  0  0  0  0  0  0  0  0  0  0
    9.1991   -3.6295   25.8072 N   0  0  0  0  0  0  0  0  0  0  0  0
    7.0147   -0.0248   20.3868 N   0  0  0  0  0  0  0  0  0  0  0  0
    6.0175    0.9133   18.4978 O   0  0  0  0  0  0  0  0  0  0  0  0
    7.1431   -6.4431   26.9071 O   0  0  0  0  0  0  0  0  0  0  0  0
   13.0526   -1.4636   21.6465 F   0  0  0  0  0  0  0  0  0  0  0  0
   11.0318    0.1580   21.3340 H   0  0  0  0  0  0  0  0  0  0  0  0
   12.6282   -3.1240   23.5923 H   0  0  0  0  0  0  0  0  0  0  0  0
    6.7770   -0.0441   24.3137 H   0  0  0  0  0  0  0  0  0  0  0  0
    8.4531    2.2596   22.4093 H   0  0  0  0  0  0  0  0  0  0  0  0
    7.2489    1.9746   20.3352 H   0  0  0  0  0  0  0  0  0  0  0  0
    6.4542   -3.5989   25.2716 H   0  0  0  0  0  0  0  0  0  0  0  0
    6.3902   -5.2572   24.7189 H   0  0  0  0  0  0  0  0  0  0  0  0
    7.7985   -4.7158   28.7375 H   0  0  0  0  0  0  0  0  0  0  0  0
    7.3733   -3.2455   27.8901 H   0  0  0  0  0  0  0  0  0  0  0  0
    8.8247   -5.4874   24.8773 H   0  0  0  0  0  0  0  0  0  0  0  0
    8.4311   -4.0836   23.8788 H   0  0  0  0  0  0  0  0  0  0  0  0
    9.8189   -3.5493   27.8383 H   0  0  0  0  0  0  0  0  0  0  0  0
    9.6303   -5.1775   27.1759 H   0  0  0  0  0  0  0  0  0  0  0  0
    5.7982   -4.9214   27.1712 H   0  0  0  0  0  0  0  0  0  0  0  0
    4.8854   -1.6519   19.2476 H   0  0  0  0  0  0  0  0  0  0  0  0
    6.5929   -2.1712   19.2142 H   0  0  0  0  0  0  0  0  0  0  0  0
    5.8048   -1.5637   17.7334 H   0  0  0  0  0  0  0  0  0  0  0  0
   10.8957   -4.4754   24.9512 H   0  0  0  0  0  0  0  0  0  0  0  0
   11.2075   -3.2261   26.1569 H   0  0  0  0  0  0  0  0  0  0  0  0
    8.0866   -1.9065   25.3322 H   0  0  0  0  0  0  0  0  0  0  0  0
    7.1878   -0.9060   20.8666 H   0  0  0  0  0  0  0  0  0  0  0  0
    6.4952   -6.9020   26.3486 H   0  0  0  0  0  0  0  0  0  0  0  0
  1  4  1  0  0  0  0
  1  8  2  0  0  0  0
  1 25  1  0  0  0  0
  2  6  2  0  0  0  0
  2  8  1  0  0  0  0
  2 26  1  0  0  0  0
  3  5  2  0  0  0  0
  3 19  1  0  0  0  0
  3 27  1  0  0  0  0
  4  5  1  0  0  0  0
  4  7  2  0  0  0  0
  5  9  1  0  0  0  0
  6  7  1  0  0  0  0
  6 18  1  0  0  0  0
  7 19  1  0  0  0  0
  8 24  1  0  0  0  0
  9 10  2  3  0  0  0
  9 28  1  0  0  0  0
 10 21  1  0  0  0  0
 10 29  1  0  0  0  0
 11 17  1  0  0  0  0
 11 21  1  0  0  0  0
 11 22  2  0  0  0  0
 12 14  1  0  0  0  0
 12 16  1  0  0  0  0
 12 30  1  0  0  0  0
 12 31  1  0  0  0  0
 13 15  1  0  0  0  0
 13 16  1  0  0  0  0
 13 32  1  0  0  0  0
 13 33  1  0  0  0  0
 14 20  1  0  0  0  0
 14 34  1  0  0  0  0
 14 35  1  0  0  0  0
 15 20  1  0  0  0  0
 15 36  1  0  0  0  0
 15 37  1  0  0  0  0
 16 23  1  0  0  0  0
 16 38  1  1  0  0  0
 17 39  1  0  0  0  0
 17 40  1  0  0  0  0
 17 41  1  0  0  0  0
 18 20  1  0  0  0  0
 18 42  1  0  0  0  0
 18 43  1  0  0  0  0
 19 44  1  0  0  0  0
 21 45  1  0  0  0  0
 23 46  1  0  0  0  0
M  END
>  <Chemgauss4 Score>
-4.87815237045288

>  <Number of Confs>
157

$$$$
