MIH-UNI-6b9-1
 OpenBabel03242009303D

 28 29  0  0  0  0  0  0  0  0999 V2000
    9.1585   -4.4211   28.3567 C   0  0  0  0  0  0  0  0  0  0  0  0
   11.7635   -1.9746   22.6489 C   0  0  0  0  0  0  0  0  0  0  0  0
    8.6502   -5.6411   27.9408 C   0  0  0  0  0  0  0  0  0  0  0  0
    8.5145   -4.9413   25.7568 C   0  0  0  0  0  0  0  0  0  0  0  0
   12.9833   -1.3718   22.8639 C   0  0  0  0  0  0  0  0  0  0  0  0
   11.1111    0.0437   23.5993 C   0  0  0  0  0  0  0  0  0  0  0  0
    9.3420   -3.4314   27.3974 C   0  0  0  0  0  0  0  0  0  0  0  0
   10.6788   -1.1547   23.0748 C   0  0  0  0  0  0  0  0  0  0  0  0
    9.0162   -3.6884   26.0703 C   0  0  0  0  0  0  0  0  0  0  0  0
    8.9006   -2.8427   23.7004 C   0  0  0  0  0  0  0  0  0  0  0  0
    9.8879   -2.1064   27.8180 C   0  0  0  0  0  0  0  0  0  0  0  0
    9.2306   -1.5536   22.9646 C   0  0  0  0  0  0  0  0  0  0  0  0
    8.3223   -5.9278   26.6610 N   0  0  0  0  0  0  0  0  0  0  0  0
    9.1827   -2.7286   25.0723 N   0  0  0  0  0  0  0  0  0  0  0  0
    8.4499   -3.8286   23.1259 O   0  0  0  0  0  0  0  0  0  0  0  0
   12.8182    0.1765   23.5766 S   0  0  0  0  0  0  0  0  0  0  0  0
    9.4024   -4.2525   29.4001 H   0  0  0  0  0  0  0  0  0  0  0  0
   11.6588   -2.9576   22.2072 H   0  0  0  0  0  0  0  0  0  0  0  0
    8.4882   -6.4461   28.6501 H   0  0  0  0  0  0  0  0  0  0  0  0
    8.2422   -5.2024   24.7383 H   0  0  0  0  0  0  0  0  0  0  0  0
   13.9636   -1.7667   22.6372 H   0  0  0  0  0  0  0  0  0  0  0  0
   10.5097    0.8495   23.9969 H   0  0  0  0  0  0  0  0  0  0  0  0
   10.9823   -2.1097   27.7568 H   0  0  0  0  0  0  0  0  0  0  0  0
    9.5045   -1.2996   27.1814 H   0  0  0  0  0  0  0  0  0  0  0  0
    9.5960   -1.8664   28.8480 H   0  0  0  0  0  0  0  0  0  0  0  0
    8.5961   -0.7505   23.3607 H   0  0  0  0  0  0  0  0  0  0  0  0
    8.9621   -1.6721   21.9071 H   0  0  0  0  0  0  0  0  0  0  0  0
    9.5592   -1.8237   25.3788 H   0  0  0  0  0  0  0  0  0  0  0  0
  1  3  2  0  0  0  0
  1  7  1  0  0  0  0
  1 17  1  0  0  0  0
  2  5  2  0  0  0  0
  2  8  1  0  0  0  0
  2 18  1  0  0  0  0
  3 13  1  0  0  0  0
  3 19  1  0  0  0  0
  4  9  1  0  0  0  0
  4 13  2  0  0  0  0
  4 20  1  0  0  0  0
  5 16  1  0  0  0  0
  5 21  1  0  0  0  0
  6  8  2  0  0  0  0
  6 16  1  0  0  0  0
  6 22  1  0  0  0  0
  7  9  2  0  0  0  0
  7 11  1  0  0  0  0
  8 12  1  0  0  0  0
  9 14  1  0  0  0  0
 10 12  1  0  0  0  0
 10 14  1  0  0  0  0
 10 15  2  0  0  0  0
 11 23  1  0  0  0  0
 11 24  1  0  0  0  0
 11 25  1  0  0  0  0
 12 26  1  0  0  0  0
 12 27  1  0  0  0  0
 14 28  1  0  0  0  0
M  END
>  <Chemgauss4 Score>
-4.75902271270752

>  <Number of Confs>
12

$$$$
