KIM-UNI-2ee-1
 OpenBabel03242009303D

 35 36  0  0  0  0  0  0  0  0999 V2000
    9.0126   -4.7289   27.9334 C   0  0  0  0  0  0  0  0  0  0  0  0
    8.2070   -5.2047   25.7060 C   0  0  0  0  0  0  0  0  0  0  0  0
    6.7400   -5.4804   27.6057 C   0  0  0  0  0  0  0  0  0  0  0  0
    9.2331   -4.7956   26.5577 C   0  0  0  0  0  0  0  0  0  0  0  0
    7.7661   -5.0713   28.4574 C   0  0  0  0  0  0  0  0  0  0  0  0
    6.9604   -5.5472   26.2300 C   0  0  0  0  0  0  0  0  0  0  0  0
   12.0924    0.2066   23.3638 C   0  0  0  0  0  0  0  0  0  0  0  0
   10.2740   -0.8700   24.7747 C   0  0  0  0  0  0  0  0  0  0  0  0
   11.5308   -2.1884   23.1174 C   0  0  0  0  0  0  0  0  0  0  0  0
   10.4003   -2.0352   25.7580 C   0  0  0  0  0  0  0  0  0  0  0  0
   11.6382   -3.3249   24.1335 C   0  0  0  0  0  0  0  0  0  0  0  0
   13.5102   -0.0593   22.9246 C   0  0  0  0  0  0  0  0  0  0  0  0
   10.5754   -4.4275   25.9948 C   0  0  0  0  0  0  0  0  0  0  0  0
   11.3515   -0.8981   23.7812 N   0  0  0  0  0  0  0  0  0  0  0  0
   10.4854   -3.3186   25.0458 N   0  0  0  0  0  0  0  0  0  0  0  0
   11.6568    1.3604   23.3326 O   0  0  0  0  0  0  0  0  0  0  0  0
    7.5507   -5.0064   29.7998 O   0  0  0  0  0  0  0  0  0  0  0  0
    5.6940   -6.0508   25.1793 Cl  0  0  0  0  0  0  0  0  0  0  0  0
    9.8114   -4.4124   28.5995 H   0  0  0  0  0  0  0  0  0  0  0  0
    8.3843   -5.2550   24.6339 H   0  0  0  0  0  0  0  0  0  0  0  0
    5.7710   -5.7456   28.0223 H   0  0  0  0  0  0  0  0  0  0  0  0
    9.3283   -0.9354   24.2225 H   0  0  0  0  0  0  0  0  0  0  0  0
   10.2593    0.0693   25.3309 H   0  0  0  0  0  0  0  0  0  0  0  0
   12.4215   -2.1763   22.4808 H   0  0  0  0  0  0  0  0  0  0  0  0
   10.6637   -2.3381   22.4622 H   0  0  0  0  0  0  0  0  0  0  0  0
   11.2787   -1.8817   26.3989 H   0  0  0  0  0  0  0  0  0  0  0  0
    9.5171   -2.0315   26.4082 H   0  0  0  0  0  0  0  0  0  0  0  0
   11.6697   -4.2735   23.5840 H   0  0  0  0  0  0  0  0  0  0  0  0
   12.5817   -3.2367   24.6886 H   0  0  0  0  0  0  0  0  0  0  0  0
   13.5188   -0.2672   21.8598 H   0  0  0  0  0  0  0  0  0  0  0  0
   13.8978   -0.9124   23.4722 H   0  0  0  0  0  0  0  0  0  0  0  0
   14.1175    0.8147   23.1370 H   0  0  0  0  0  0  0  0  0  0  0  0
   11.2618   -4.1314   26.7955 H   0  0  0  0  0  0  0  0  0  0  0  0
   11.0298   -5.2773   25.4746 H   0  0  0  0  0  0  0  0  0  0  0  0
    8.3538   -4.7072   30.2552 H   0  0  0  0  0  0  0  0  0  0  0  0
  1  4  1  0  0  0  0
  1  5  2  0  0  0  0
  1 19  1  0  0  0  0
  2  4  2  0  0  0  0
  2  6  1  0  0  0  0
  2 20  1  0  0  0  0
  3  5  1  0  0  0  0
  3  6  2  0  0  0  0
  3 21  1  0  0  0  0
  4 13  1  0  0  0  0
  5 17  1  0  0  0  0
  6 18  1  0  0  0  0
  7 12  1  0  0  0  0
  7 14  1  0  0  0  0
  7 16  2  0  0  0  0
  8 10  1  0  0  0  0
  8 14  1  0  0  0  0
  8 22  1  0  0  0  0
  8 23  1  0  0  0  0
  9 11  1  0  0  0  0
  9 14  1  0  0  0  0
  9 24  1  0  0  0  0
  9 25  1  0  0  0  0
 10 15  1  0  0  0  0
 10 26  1  0  0  0  0
 10 27  1  0  0  0  0
 11 15  1  0  0  0  0
 11 28  1  0  0  0  0
 11 29  1  0  0  0  0
 12 30  1  0  0  0  0
 12 31  1  0  0  0  0
 12 32  1  0  0  0  0
 13 15  1  0  0  0  0
 13 33  1  0  0  0  0
 13 34  1  0  0  0  0
 17 35  1  0  0  0  0
M  END
>  <Chemgauss4 Score>
-5.44544744491577

>  <Number of Confs>
36

$$$$
