PAU-WEI-b9b-6
 OpenBabel03242009303D

 54 56  0  0  1  0  0  0  0  0999 V2000
   13.3874   -1.4035   21.1427 C   0  0  0  0  0  0  0  0  0  0  0  0
   12.4506   -0.1827   24.5321 C   0  0  0  0  0  0  0  0  0  0  0  0
   13.1859   -0.4142   23.3697 C   0  0  0  0  0  0  0  0  0  0  0  0
   11.1626   -0.7033   24.6580 C   0  0  0  0  0  0  0  0  0  0  0  0
    5.6568    2.1806   20.6999 C   0  0  0  0  0  0  0  0  0  0  0  0
    5.6738    0.0439   19.5724 C   0  0  0  0  0  0  0  0  0  0  0  0
    6.6482    1.7289   21.5709 C   0  0  0  0  0  0  0  0  0  0  0  0
    6.6653   -0.4078   20.4434 C   0  0  0  0  0  0  0  0  0  0  0  0
   11.3453   -1.6870   22.4589 C   0  0  0  0  0  0  0  0  0  0  0  0
   12.6332   -1.1663   22.3331 C   0  0  0  0  0  0  0  0  0  0  0  0
    5.1696    1.3381   19.7006 C   0  0  0  0  0  0  0  0  0  0  0  0
    7.1524    0.4347   21.4426 C   0  0  0  0  0  0  0  0  0  0  0  0
   10.6100   -1.4554   23.6214 C   0  0  0  0  0  0  0  0  0  0  0  0
    7.5994   -5.1944   27.3219 C   0  0  0  0  0  0  0  0  0  0  0  0
    9.3856   -3.8446   26.2779 C   0  0  0  0  0  0  0  0  0  0  0  0
    7.2013   -3.9712   25.1326 C   0  0  0  0  0  0  0  0  0  0  0  0
   10.0773   -3.9755   24.9202 C   0  0  0  0  0  0  0  0  0  0  0  0
    7.9420   -4.0947   23.7986 C   0  0  0  0  0  0  0  0  0  0  0  0
    4.1096    1.8202   18.7689 C   0  0  0  0  0  0  0  0  0  0  0  0
    8.2252   -0.0521   22.3834 C   0  0  0  0  0  0  0  0  0  0  0  0
    6.1183   -5.1768   27.6051 C   0  0  0  0  0  0  0  0  0  0  0  0
    8.2174   -1.5629   22.6697 C   0  0  0  0  0  0  0  0  0  0  0  0
    9.2123   -2.0201   23.7582 C   0  0  1  0  0  0  0  0  0  0  0  0
   13.9999   -1.5961   20.1760 N   0  0  0  0  0  0  0  0  0  0  0  0
    8.0395   -4.4163   26.2509 N   0  0  0  0  0  0  0  0  0  0  0  0
    9.2756   -3.4791   23.7940 N   0  0  0  0  0  0  0  0  0  0  0  0
    8.3409   -5.8817   28.0289 O   0  0  0  0  0  0  0  0  0  0  0  0
    5.9319   -5.4713   29.3303 Cl  0  0  0  0  0  0  0  0  0  0  0  0
   12.8801    0.4039   25.3390 H   0  0  0  0  0  0  0  0  0  0  0  0
   14.1888   -0.0022   23.2864 H   0  0  0  0  0  0  0  0  0  0  0  0
   10.5978   -0.5179   25.5678 H   0  0  0  0  0  0  0  0  0  0  0  0
    5.2693    3.1903   20.8075 H   0  0  0  0  0  0  0  0  0  0  0  0
    5.3007   -0.6188   18.7958 H   0  0  0  0  0  0  0  0  0  0  0  0
    7.0230    2.3927   22.3454 H   0  0  0  0  0  0  0  0  0  0  0  0
    7.0525   -1.4177   20.3366 H   0  0  0  0  0  0  0  0  0  0  0  0
   10.9084   -2.2735   21.6533 H   0  0  0  0  0  0  0  0  0  0  0  0
    9.9495   -4.3883   27.0486 H   0  0  0  0  0  0  0  0  0  0  0  0
    9.3745   -2.7917   26.5743 H   0  0  0  0  0  0  0  0  0  0  0  0
    6.8771   -2.9368   25.2810 H   0  0  0  0  0  0  0  0  0  0  0  0
    6.3028   -4.5996   25.1339 H   0  0  0  0  0  0  0  0  0  0  0  0
   11.0596   -3.4572   24.9594 H   0  0  0  0  0  0  0  0  0  0  0  0
   10.3129   -5.0473   24.7598 H   0  0  0  0  0  0  0  0  0  0  0  0
    8.0342   -5.1756   23.5605 H   0  0  0  0  0  0  0  0  0  0  0  0
    7.3096   -3.6676   22.9883 H   0  0  0  0  0  0  0  0  0  0  0  0
    4.5613    2.2893   17.8862 H   0  0  0  0  0  0  0  0  0  0  0  0
    3.4677    0.9950   18.4342 H   0  0  0  0  0  0  0  0  0  0  0  0
    3.4546    2.5544   19.2562 H   0  0  0  0  0  0  0  0  0  0  0  0
    8.0938    0.4845   23.3324 H   0  0  0  0  0  0  0  0  0  0  0  0
    9.2164    0.2402   22.0144 H   0  0  0  0  0  0  0  0  0  0  0  0
    5.6427   -5.9693   27.0387 H   0  0  0  0  0  0  0  0  0  0  0  0
    5.7233   -4.2004   27.3492 H   0  0  0  0  0  0  0  0  0  0  0  0
    8.3538   -2.1367   21.7453 H   0  0  0  0  0  0  0  0  0  0  0  0
    7.2048   -1.8102   23.0193 H   0  0  0  0  0  0  0  0  0  0  0  0
    8.7979   -1.7345   24.7332 H   0  0  0  0  0  0  0  0  0  0  0  0
  1 10  1  0  0  0  0
  1 24  3  0  0  0  0
  2  3  1  0  0  0  0
  2  4  2  0  0  0  0
  2 29  1  0  0  0  0
  3 10  2  0  0  0  0
  3 30  1  0  0  0  0
  4 13  1  0  0  0  0
  4 31  1  0  0  0  0
  5  7  2  0  0  0  0
  5 11  1  0  0  0  0
  5 32  1  0  0  0  0
  6  8  1  0  0  0  0
  6 11  2  0  0  0  0
  6 33  1  0  0  0  0
  7 12  1  0  0  0  0
  7 34  1  0  0  0  0
  8 12  2  0  0  0  0
  8 35  1  0  0  0  0
  9 10  1  0  0  0  0
  9 13  2  0  0  0  0
  9 36  1  0  0  0  0
 11 19  1  0  0  0  0
 12 20  1  0  0  0  0
 13 23  1  0  0  0  0
 14 21  1  0  0  0  0
 14 25  1  0  0  0  0
 14 27  2  0  0  0  0
 15 17  1  0  0  0  0
 15 25  1  0  0  0  0
 15 37  1  0  0  0  0
 15 38  1  0  0  0  0
 16 18  1  0  0  0  0
 16 25  1  0  0  0  0
 16 39  1  0  0  0  0
 16 40  1  0  0  0  0
 17 26  1  0  0  0  0
 17 41  1  0  0  0  0
 17 42  1  0  0  0  0
 18 26  1  0  0  0  0
 18 43  1  0  0  0  0
 18 44  1  0  0  0  0
 19 45  1  0  0  0  0
 19 46  1  0  0  0  0
 19 47  1  0  0  0  0
 20 22  1  0  0  0  0
 20 48  1  0  0  0  0
 20 49  1  0  0  0  0
 21 28  1  0  0  0  0
 21 50  1  0  0  0  0
 21 51  1  0  0  0  0
 22 23  1  0  0  0  0
 22 52  1  0  0  0  0
 22 53  1  0  0  0  0
 23 26  1  0  0  0  0
 23 54  1  1  0  0  0
M  END
>  <Chemgauss4 Score>
-4.89285469055176

>  <Number of Confs>
193

$$$$
