AVI-UNI-cf0-2
 OpenBabel03242009303D

 58 63  0  0  1  0  0  0  0  0999 V2000
   13.4702   -1.6515   21.7206 C   0  0  0  0  0  0  0  0  0  0  0  0
   12.2217   -2.0744   22.1728 C   0  0  0  0  0  0  0  0  0  0  0  0
   14.0872   -0.5847   22.3606 C   0  0  0  0  0  0  0  0  0  0  0  0
   10.5284   -0.4873   24.9635 C   0  0  0  0  0  0  0  0  0  0  0  0
   11.6555   -1.3913   23.2594 C   0  0  0  0  0  0  0  0  0  0  0  0
   10.4583   -1.4791   24.0132 C   0  0  0  0  0  0  0  0  0  0  0  0
   12.3826   -0.3371   23.8092 C   0  0  0  0  0  0  0  0  0  0  0  0
    7.2092   -3.1681   22.9664 C   0  0  0  0  0  0  0  0  0  0  0  0
    7.0062   -0.3611   21.9709 C   0  0  0  0  0  0  0  0  0  0  0  0
    9.3334   -2.4244   23.8530 C   0  0  0  0  0  0  0  0  0  0  0  0
    8.2672   -2.1697   23.0541 C   0  0  0  0  0  0  0  0  0  0  0  0
    8.1463   -0.9376   22.2889 C   0  0  0  0  0  0  0  0  0  0  0  0
    7.2593   -4.3183   23.6500 C   0  0  0  0  0  0  0  0  0  0  0  0
    7.4800    0.7981   21.2297 C   0  0  0  0  0  0  0  0  0  0  0  0
    9.4089   -3.7246   24.6265 C   0  0  0  0  0  0  0  0  0  0  0  0
    7.4383   -3.6702   28.6156 C   0  0  0  0  0  0  0  0  0  0  0  0
    6.1740   -5.3621   23.6027 C   0  0  0  0  0  0  0  0  0  0  0  0
    8.9727    0.8081   21.1689 C   0  0  0  0  0  0  0  0  0  0  0  0
    7.3858   -4.2622   27.2217 C   0  0  0  0  0  0  0  0  0  0  0  0
    7.5346   -6.5529   28.1850 C   0  0  0  0  0  0  0  0  0  0  0  0
    7.3229   -5.9907   29.5793 C   0  0  0  0  0  0  0  0  0  0  0  0
    8.3185   -5.8944   25.1609 C   0  0  0  0  0  0  0  0  0  0  0  0
    6.8116   -5.6764   27.1642 C   0  0  2  0  0  0  0  0  0  0  0  0
    6.9392   -6.2565   25.7579 C   0  0  1  0  0  0  0  0  0  0  0  0
    4.6959   -6.7296   24.9375 C   0  0  0  0  0  0  0  0  0  0  0  0
   13.5889    0.1094   23.4099 N   0  0  0  0  0  0  0  0  0  0  0  0
    7.5282   -4.5574   29.6640 N   0  0  0  0  0  0  0  0  0  0  0  0
    8.3308   -4.5957   24.4797 N   0  0  0  0  0  0  0  0  0  0  0  0
    5.7953   -5.7666   24.9612 N   0  0  0  0  0  0  0  0  0  0  0  0
    6.7441    1.6359   20.7339 O   0  0  0  0  0  0  0  0  0  0  0  0
   10.3912   -3.9550   25.3333 O   0  0  0  0  0  0  0  0  0  0  0  0
    7.4797   -2.4493   28.7779 O   0  0  0  0  0  0  0  0  0  0  0  0
   11.6884    0.2099   24.8490 O   0  0  0  0  0  0  0  0  0  0  0  0
    9.3410   -0.3755   21.8936 O   0  0  0  0  0  0  0  0  0  0  0  0
   13.9507   -2.1466   20.8835 H   0  0  0  0  0  0  0  0  0  0  0  0
   11.7135   -2.9053   21.6943 H   0  0  0  0  0  0  0  0  0  0  0  0
   15.0608   -0.2429   22.0190 H   0  0  0  0  0  0  0  0  0  0  0  0
    9.8699   -0.1602   25.7560 H   0  0  0  0  0  0  0  0  0  0  0  0
    6.3756   -2.9566   22.3086 H   0  0  0  0  0  0  0  0  0  0  0  0
    5.9880   -0.6339   22.1785 H   0  0  0  0  0  0  0  0  0  0  0  0
    5.3075   -4.9485   23.1034 H   0  0  0  0  0  0  0  0  0  0  0  0
    6.5413   -6.2117   23.0403 H   0  0  0  0  0  0  0  0  0  0  0  0
    9.3251    0.7272   20.1379 H   0  0  0  0  0  0  0  0  0  0  0  0
    9.3812    1.6859   21.6753 H   0  0  0  0  0  0  0  0  0  0  0  0
    6.7818   -3.5961   26.5941 H   0  0  0  0  0  0  0  0  0  0  0  0
    8.4108   -4.2470   26.8306 H   0  0  0  0  0  0  0  0  0  0  0  0
    8.6079   -6.5947   27.9605 H   0  0  0  0  0  0  0  0  0  0  0  0
    7.1580   -7.5817   28.1457 H   0  0  0  0  0  0  0  0  0  0  0  0
    6.2955   -6.1781   29.9109 H   0  0  0  0  0  0  0  0  0  0  0  0
    7.9962   -6.4681   30.2982 H   0  0  0  0  0  0  0  0  0  0  0  0
    9.0673   -5.8358   25.9445 H   0  0  0  0  0  0  0  0  0  0  0  0
    8.6230   -6.6591   24.4561 H   0  0  0  0  0  0  0  0  0  0  0  0
    5.7453   -5.6361   27.4261 H   0  0  0  0  0  0  0  0  0  0  0  0
    6.8570   -7.3549   25.8748 H   0  0  0  0  0  0  0  0  0  0  0  0
    4.4344   -7.0138   25.9674 H   0  0  0  0  0  0  0  0  0  0  0  0
    3.8212   -6.2753   24.4493 H   0  0  0  0  0  0  0  0  0  0  0  0
    5.0047   -7.6246   24.3774 H   0  0  0  0  0  0  0  0  0  0  0  0
    7.7581   -4.1752   30.5761 H   0  0  0  0  0  0  0  0  0  0  0  0
  1  2  2  0  0  0  0
  1  3  1  0  0  0  0
  1 35  1  0  0  0  0
  2  5  1  0  0  0  0
  2 36  1  0  0  0  0
  3 26  2  0  0  0  0
  3 37  1  0  0  0  0
  4  6  2  0  0  0  0
  4 33  1  0  0  0  0
  4 38  1  0  0  0  0
  5  6  1  0  0  0  0
  5  7  2  0  0  0  0
  6 10  1  0  0  0  0
  7 26  1  0  0  0  0
  7 33  1  0  0  0  0
  8 11  1  0  0  0  0
  8 13  2  0  0  0  0
  8 39  1  0  0  0  0
  9 12  2  0  0  0  0
  9 14  1  0  0  0  0
  9 40  1  0  0  0  0
 10 11  2  0  0  0  0
 10 15  1  0  0  0  0
 11 12  1  0  0  0  0
 12 34  1  0  0  0  0
 13 17  1  0  0  0  0
 13 28  1  0  0  0  0
 14 18  1  0  0  0  0
 14 30  2  0  0  0  0
 15 28  1  0  0  0  0
 15 31  2  0  0  0  0
 16 19  1  0  0  0  0
 16 27  1  0  0  0  0
 16 32  2  0  0  0  0
 17 29  1  0  0  0  0
 17 41  1  0  0  0  0
 17 42  1  0  0  0  0
 18 34  1  0  0  0  0
 18 43  1  0  0  0  0
 18 44  1  0  0  0  0
 19 23  1  0  0  0  0
 19 45  1  0  0  0  0
 19 46  1  0  0  0  0
 20 21  1  0  0  0  0
 20 23  1  0  0  0  0
 20 47  1  0  0  0  0
 20 48  1  0  0  0  0
 21 27  1  0  0  0  0
 21 49  1  0  0  0  0
 21 50  1  0  0  0  0
 22 24  1  0  0  0  0
 22 28  1  0  0  0  0
 22 51  1  0  0  0  0
 22 52  1  0  0  0  0
 23 24  1  0  0  0  0
 23 53  1  1  0  0  0
 24 29  1  0  0  0  0
 24 54  1  1  0  0  0
 25 29  1  0  0  0  0
 25 55  1  0  0  0  0
 25 56  1  0  0  0  0
 25 57  1  0  0  0  0
 27 58  1  0  0  0  0
M  END
>  <Chemgauss4 Score>
-4.52039527893066

>  <Number of Confs>
134

$$$$
