JOH-MSK-a63-2
 OpenBabel03242009303D

 38 39  0  0  0  0  0  0  0  0999 V2000
    9.6460   -2.6752   26.0883 C   0  0  0  0  0  0  0  0  0  0  0  0
   10.9981   -3.9613   23.9600 C   0  0  0  0  0  0  0  0  0  0  0  0
   11.0746   -5.9105   27.0113 C   0  0  0  0  0  0  0  0  0  0  0  0
   10.2486   -3.9319   26.2956 C   0  0  0  0  0  0  0  0  0  0  0  0
   10.3612   -4.8050   27.4136 C   0  0  0  0  0  0  0  0  0  0  0  0
   10.9094   -4.5447   25.2288 C   0  0  0  0  0  0  0  0  0  0  0  0
    9.7267   -2.0796   24.8243 C   0  0  0  0  0  0  0  0  0  0  0  0
   10.3928   -2.7145   23.7779 C   0  0  0  0  0  0  0  0  0  0  0  0
    6.7171   -4.4158   26.9948 C   0  0  0  0  0  0  0  0  0  0  0  0
    6.0451   -3.3450   26.2011 C   0  0  0  0  0  0  0  0  0  0  0  0
    8.4790   -0.2779   25.7478 C   0  0  0  0  0  0  0  0  0  0  0  0
    9.8143   -4.5762   28.7664 C   0  0  0  0  0  0  0  0  0  0  0  0
    8.2957   -4.8043   28.8762 C   0  0  0  0  0  0  0  0  0  0  0  0
   11.4011   -5.7442   25.6922 N   0  0  0  0  0  0  0  0  0  0  0  0
    7.5532   -3.9443   27.9942 N   0  0  0  0  0  0  0  0  0  0  0  0
    6.4987   -5.5920   26.7292 O   0  0  0  0  0  0  0  0  0  0  0  0
   11.7231   -0.0255   23.1680 O   0  0  0  0  0  0  0  0  0  0  0  0
   12.9124   -1.9552   22.0831 O   0  0  0  0  0  0  0  0  0  0  0  0
   11.3802   -0.5228   20.7467 O   0  0  0  0  0  0  0  0  0  0  0  0
    9.1411   -0.8628   24.6294 O   0  0  0  0  0  0  0  0  0  0  0  0
   10.4637   -2.1216   22.5506 O   0  0  0  0  0  0  0  0  0  0  0  0
   11.7288   -1.1267   22.2226 S   0  0  0  0  0  0  0  0  0  0  0  0
    9.1247   -2.1728   26.8987 H   0  0  0  0  0  0  0  0  0  0  0  0
   11.5176   -4.4598   23.1480 H   0  0  0  0  0  0  0  0  0  0  0  0
   11.3803   -6.8009   27.5429 H   0  0  0  0  0  0  0  0  0  0  0  0
    6.6360   -3.0390   25.3228 H   0  0  0  0  0  0  0  0  0  0  0  0
    5.0715   -3.6680   25.7988 H   0  0  0  0  0  0  0  0  0  0  0  0
    5.8368   -2.4123   26.7494 H   0  0  0  0  0  0  0  0  0  0  0  0
    8.0568    0.6875   25.4583 H   0  0  0  0  0  0  0  0  0  0  0  0
    9.1915   -0.1454   26.5659 H   0  0  0  0  0  0  0  0  0  0  0  0
    7.6745   -0.9423   26.0720 H   0  0  0  0  0  0  0  0  0  0  0  0
   10.0258   -3.5383   29.0912 H   0  0  0  0  0  0  0  0  0  0  0  0
   10.3228   -5.2115   29.5195 H   0  0  0  0  0  0  0  0  0  0  0  0
    8.0330   -5.8328   28.6093 H   0  0  0  0  0  0  0  0  0  0  0  0
    7.9434   -4.6155   29.8956 H   0  0  0  0  0  0  0  0  0  0  0  0
   11.9270   -6.4052   25.1372 H   0  0  0  0  0  0  0  0  0  0  0  0
    7.6467   -2.9365   28.1102 H   0  0  0  0  0  0  0  0  0  0  0  0
   12.0871    0.0312   20.3397 H   0  0  0  0  0  0  0  0  0  0  0  0
  1  4  2  0  0  0  0
  1  7  1  0  0  0  0
  1 23  1  0  0  0  0
  2  6  2  0  0  0  0
  2  8  1  0  0  0  0
  2 24  1  0  0  0  0
  3  5  2  0  0  0  0
  3 14  1  0  0  0  0
  3 25  1  0  0  0  0
  4  5  1  0  0  0  0
  4  6  1  0  0  0  0
  5 12  1  0  0  0  0
  6 14  1  0  0  0  0
  7  8  2  0  0  0  0
  7 20  1  0  0  0  0
  8 21  1  0  0  0  0
  9 10  1  0  0  0  0
  9 15  1  0  0  0  0
  9 16  2  0  0  0  0
 10 26  1  0  0  0  0
 10 27  1  0  0  0  0
 10 28  1  0  0  0  0
 11 20  1  0  0  0  0
 11 29  1  0  0  0  0
 11 30  1  0  0  0  0
 11 31  1  0  0  0  0
 12 13  1  0  0  0  0
 12 32  1  0  0  0  0
 12 33  1  0  0  0  0
 13 15  1  0  0  0  0
 13 34  1  0  0  0  0
 13 35  1  0  0  0  0
 14 36  1  0  0  0  0
 15 37  1  0  0  0  0
 17 22  2  0  0  0  0
 18 22  2  0  0  0  0
 19 22  1  0  0  0  0
 19 38  1  0  0  0  0
 21 22  1  0  0  0  0
M  END
>  <Chemgauss4 Score>
-5.15551376342773

>  <Number of Confs>
200

$$$$
