CHR-SOS-6c4-9
 OpenBabel03242009303D

 40 42  0  0  0  0  0  0  0  0999 V2000
   10.0152   -2.3890   24.5333 C   0  0  0  0  0  0  0  0  0  0  0  0
   10.5817   -1.6880   23.7394 C   0  0  0  0  0  0  0  0  0  0  0  0
    5.6510    0.9056   18.3458 C   0  0  0  0  0  0  0  0  0  0  0  0
    4.8733    1.4220   19.3697 C   0  0  0  0  0  0  0  0  0  0  0  0
    8.3000   -4.0558   25.1118 C   0  0  0  0  0  0  0  0  0  0  0  0
    9.6851   -3.2536   26.8130 C   0  0  0  0  0  0  0  0  0  0  0  0
    6.4854    0.9695   20.9428 C   0  0  0  0  0  0  0  0  0  0  0  0
    8.0716   -4.7940   27.2495 C   0  0  0  0  0  0  0  0  0  0  0  0
    9.3397   -3.2253   25.4773 C   0  0  0  0  0  0  0  0  0  0  0  0
    6.9058    0.4030   18.6716 C   0  0  0  0  0  0  0  0  0  0  0  0
    7.3385    0.4317   19.9926 C   0  0  0  0  0  0  0  0  0  0  0  0
    9.1644   -0.1008   21.6549 C   0  0  0  0  0  0  0  0  0  0  0  0
   13.1906   -0.2191   23.5156 C   0  0  0  0  0  0  0  0  0  0  0  0
   11.8324    0.4882   23.3410 C   0  0  0  0  0  0  0  0  0  0  0  0
   12.7296   -1.2398   22.4564 C   0  0  0  0  0  0  0  0  0  0  0  0
   11.2641   -0.8441   22.7818 C   0  0  0  0  0  0  0  0  0  0  0  0
    7.7649   -0.1604   17.5875 C   0  0  0  0  0  0  0  0  0  0  0  0
    5.2596    1.4671   20.6645 N   0  0  0  0  0  0  0  0  0  0  0  0
    7.6411   -4.8564   25.9750 N   0  0  0  0  0  0  0  0  0  0  0  0
    9.0700   -4.0287   27.7301 N   0  0  0  0  0  0  0  0  0  0  0  0
    8.6060   -0.0668   20.3741 N   0  0  0  0  0  0  0  0  0  0  0  0
   10.4288   -0.6712   21.5972 N   0  0  0  0  0  0  0  0  0  0  0  0
    8.6436    0.3027   22.6920 O   0  0  0  0  0  0  0  0  0  0  0  0
    5.2837    0.8977   17.3252 H   0  0  0  0  0  0  0  0  0  0  0  0
    3.8867    1.8261   19.1681 H   0  0  0  0  0  0  0  0  0  0  0  0
    7.9495   -4.1125   24.0852 H   0  0  0  0  0  0  0  0  0  0  0  0
   10.4891   -2.6386   27.2069 H   0  0  0  0  0  0  0  0  0  0  0  0
    6.7667    1.0204   21.9906 H   0  0  0  0  0  0  0  0  0  0  0  0
    7.5605   -5.4272   27.9645 H   0  0  0  0  0  0  0  0  0  0  0  0
   14.0482    0.3872   23.2009 H   0  0  0  0  0  0  0  0  0  0  0  0
   13.3902   -0.6251   24.5110 H   0  0  0  0  0  0  0  0  0  0  0  0
   11.3882    0.8129   24.2913 H   0  0  0  0  0  0  0  0  0  0  0  0
   11.8394    1.3433   22.6571 H   0  0  0  0  0  0  0  0  0  0  0  0
   13.0766   -1.0393   21.4374 H   0  0  0  0  0  0  0  0  0  0  0  0
   12.9920   -2.2754   22.7103 H   0  0  0  0  0  0  0  0  0  0  0  0
    8.3959    0.6253   17.1560 H   0  0  0  0  0  0  0  0  0  0  0  0
    8.4128   -0.9587   17.9698 H   0  0  0  0  0  0  0  0  0  0  0  0
    7.1561   -0.5990   16.7871 H   0  0  0  0  0  0  0  0  0  0  0  0
    9.1760   -0.4458   19.6219 H   0  0  0  0  0  0  0  0  0  0  0  0
   10.7825   -0.9767   20.7060 H   0  0  0  0  0  0  0  0  0  0  0  0
  1  2  3  0  0  0  0
  1  9  1  0  0  0  0
  2 16  1  0  0  0  0
  3  4  2  0  0  0  0
  3 10  1  0  0  0  0
  3 24  1  0  0  0  0
  4 18  1  0  0  0  0
  4 25  1  0  0  0  0
  5  9  1  0  0  0  0
  5 19  2  0  0  0  0
  5 26  1  0  0  0  0
  6  9  2  0  0  0  0
  6 20  1  0  0  0  0
  6 27  1  0  0  0  0
  7 11  1  0  0  0  0
  7 18  2  0  0  0  0
  7 28  1  0  0  0  0
  8 19  1  0  0  0  0
  8 20  2  0  0  0  0
  8 29  1  0  0  0  0
 10 11  2  0  0  0  0
 10 17  1  0  0  0  0
 11 21  1  0  0  0  0
 12 21  1  0  0  0  0
 12 22  1  0  0  0  0
 12 23  2  0  0  0  0
 13 14  1  0  0  0  0
 13 15  1  0  0  0  0
 13 30  1  0  0  0  0
 13 31  1  0  0  0  0
 14 16  1  0  0  0  0
 14 32  1  0  0  0  0
 14 33  1  0  0  0  0
 15 16  1  0  0  0  0
 15 34  1  0  0  0  0
 15 35  1  0  0  0  0
 16 22  1  0  0  0  0
 17 36  1  0  0  0  0
 17 37  1  0  0  0  0
 17 38  1  0  0  0  0
 21 39  1  0  0  0  0
 22 40  1  0  0  0  0
M  END
>  <Chemgauss4 Score>
-6.37186431884766

>  <Number of Confs>
5

$$$$
