SAL-INS-1ea-1
 OpenBabel03242009303D

 45 47  0  0  1  0  0  0  0  0999 V2000
    7.8877   -5.1178   23.1778 C   0  0  0  0  0  0  0  0  0  0  0  0
    6.8015   -3.0400   23.7607 C   0  0  0  0  0  0  0  0  0  0  0  0
    6.6497   -5.7600   23.1598 C   0  0  0  0  0  0  0  0  0  0  0  0
    5.5634   -3.6822   23.7426 C   0  0  0  0  0  0  0  0  0  0  0  0
    9.4258    0.9201   23.1034 C   0  0  0  0  0  0  0  0  0  0  0  0
   10.1479   -0.7738   21.5393 C   0  0  0  0  0  0  0  0  0  0  0  0
    8.2502    1.0934   22.3730 C   0  0  0  0  0  0  0  0  0  0  0  0
    8.9723   -0.6005   20.8089 C   0  0  0  0  0  0  0  0  0  0  0  0
    7.9637   -3.7578   23.4783 C   0  0  0  0  0  0  0  0  0  0  0  0
    5.4875   -5.0422   23.4422 C   0  0  0  0  0  0  0  0  0  0  0  0
   10.3747   -0.0134   22.6865 C   0  0  0  0  0  0  0  0  0  0  0  0
    8.0234    0.3331   21.2258 C   0  0  0  0  0  0  0  0  0  0  0  0
    8.8568   -4.4977   26.4267 C   0  0  0  0  0  0  0  0  0  0  0  0
    9.9254   -2.2862   26.5153 C   0  0  0  0  0  0  0  0  0  0  0  0
   10.2310   -1.1193   25.5918 C   0  0  0  0  0  0  0  0  0  0  0  0
   11.4501   -2.8626   24.2311 C   0  0  0  0  0  0  0  0  0  0  0  0
   10.1422   -3.6256   24.4226 C   0  0  1  0  0  0  0  0  0  0  0  0
    8.4228   -4.2057   27.8421 C   0  0  0  0  0  0  0  0  0  0  0  0
    9.6055   -3.5096   25.7821 N   0  0  0  0  0  0  0  0  0  0  0  0
   11.3696   -1.4490   24.7004 N   0  0  0  0  0  0  0  0  0  0  0  0
    8.5317   -5.5661   25.9019 O   0  0  0  0  0  0  0  0  0  0  0  0
   12.8641   -0.7721   22.7116 O   0  0  0  0  0  0  0  0  0  0  0  0
   12.1128    0.9924   24.3455 O   0  0  0  0  0  0  0  0  0  0  0  0
    9.1780   -3.1280   23.4960 O   0  0  0  0  0  0  0  0  0  0  0  0
    4.2985   -5.6589   23.4249 F   0  0  0  0  0  0  0  0  0  0  0  0
   11.8638   -0.2329   23.6116 S   0  0  0  0  0  0  0  0  0  0  0  0
    6.5730    0.5468   20.3247 Cl  0  0  0  0  0  0  0  0  0  0  0  0
    8.2892   -5.7594   28.6577 Cl  0  0  0  0  0  0  0  0  0  0  0  0
    8.7895   -5.6825   22.9570 H   0  0  0  0  0  0  0  0  0  0  0  0
    6.8541   -1.9804   23.9954 H   0  0  0  0  0  0  0  0  0  0  0  0
    6.5901   -6.8189   22.9260 H   0  0  0  0  0  0  0  0  0  0  0  0
    4.6583   -3.1237   23.9624 H   0  0  0  0  0  0  0  0  0  0  0  0
    9.5925    1.5177   23.9957 H   0  0  0  0  0  0  0  0  0  0  0  0
   10.8805   -1.5038   21.2057 H   0  0  0  0  0  0  0  0  0  0  0  0
    7.5197    1.8246   22.7097 H   0  0  0  0  0  0  0  0  0  0  0  0
    8.8089   -1.2000   19.9170 H   0  0  0  0  0  0  0  0  0  0  0  0
   10.7739   -2.4507   27.1897 H   0  0  0  0  0  0  0  0  0  0  0  0
    9.0562   -2.0600   27.1465 H   0  0  0  0  0  0  0  0  0  0  0  0
    9.3514   -0.8628   24.9894 H   0  0  0  0  0  0  0  0  0  0  0  0
   10.4831   -0.2215   26.1705 H   0  0  0  0  0  0  0  0  0  0  0  0
   12.2553   -3.3502   24.7995 H   0  0  0  0  0  0  0  0  0  0  0  0
   11.7605   -2.8714   23.1769 H   0  0  0  0  0  0  0  0  0  0  0  0
   10.3199   -4.6692   24.1611 H   0  0  0  0  0  0  0  0  0  0  0  0
    7.4578   -3.7131   27.8183 H   0  0  0  0  0  0  0  0  0  0  0  0
    9.1796   -3.5964   28.3221 H   0  0  0  0  0  0  0  0  0  0  0  0
  1  3  2  0  0  0  0
  1  9  1  0  0  0  0
  1 29  1  0  0  0  0
  2  4  1  0  0  0  0
  2  9  2  0  0  0  0
  2 30  1  0  0  0  0
  3 10  1  0  0  0  0
  3 31  1  0  0  0  0
  4 10  2  0  0  0  0
  4 32  1  0  0  0  0
  5  7  2  0  0  0  0
  5 11  1  0  0  0  0
  5 33  1  0  0  0  0
  6  8  1  0  0  0  0
  6 11  2  0  0  0  0
  6 34  1  0  0  0  0
  7 12  1  0  0  0  0
  7 35  1  0  0  0  0
  8 12  2  0  0  0  0
  8 36  1  0  0  0  0
  9 24  1  0  0  0  0
 10 25  1  0  0  0  0
 11 26  1  0  0  0  0
 12 27  1  0  0  0  0
 13 18  1  0  0  0  0
 13 19  1  0  0  0  0
 13 21  2  0  0  0  0
 14 15  1  0  0  0  0
 14 19  1  0  0  0  0
 14 37  1  0  0  0  0
 14 38  1  0  0  0  0
 15 20  1  0  0  0  0
 15 39  1  0  0  0  0
 15 40  1  0  0  0  0
 16 17  1  0  0  0  0
 16 20  1  0  0  0  0
 16 41  1  0  0  0  0
 16 42  1  0  0  0  0
 17 19  1  0  0  0  0
 17 24  1  0  0  0  0
 17 43  1  6  0  0  0
 18 28  1  0  0  0  0
 18 44  1  0  0  0  0
 18 45  1  0  0  0  0
 20 26  1  0  0  0  0
 22 26  2  0  0  0  0
 23 26  2  0  0  0  0
M  END
>  <Chemgauss4 Score>
-5.55532932281494

>  <Number of Confs>
180

$$$$
