DUN-NEW-f8c-3
 OpenBabel03242009303D

 47 49  0  0  1  0  0  0  0  0999 V2000
    5.9317   -5.1492   22.5883 C   0  0  0  0  0  0  0  0  0  0  0  0
    5.5661   -5.8699   23.7252 C   0  0  0  0  0  0  0  0  0  0  0  0
    6.8993   -4.1484   22.6782 C   0  0  0  0  0  0  0  0  0  0  0  0
    6.1680   -5.5900   24.9519 C   0  0  0  0  0  0  0  0  0  0  0  0
    7.5012   -3.8685   23.9050 C   0  0  0  0  0  0  0  0  0  0  0  0
    7.1356   -4.5892   25.0419 C   0  0  0  0  0  0  0  0  0  0  0  0
    9.7187   -5.6420   26.6214 C   0  0  0  0  0  0  0  0  0  0  0  0
   11.4253   -0.0545   23.3559 C   0  0  0  0  0  0  0  0  0  0  0  0
    8.5139   -3.1796   28.1716 C   0  0  0  0  0  0  0  0  0  0  0  0
    8.4185   -4.6637   28.4975 C   0  0  0  0  0  0  0  0  0  0  0  0
    7.6432   -3.0259   26.9289 C   0  0  0  0  0  0  0  0  0  0  0  0
    9.8723   -3.2425   23.7492 C   0  0  0  0  0  0  0  0  0  0  0  0
    8.1097   -1.4836   23.6023 C   0  0  0  0  0  0  0  0  0  0  0  0
   10.8099   -2.2193   24.3861 C   0  0  0  0  0  0  0  0  0  0  0  0
    9.0802   -0.4886   24.2385 C   0  0  0  0  0  0  0  0  0  0  0  0
    8.3425   -5.3349   27.1252 C   0  0  1  0  0  0  0  0  0  0  0  0
   12.5015   -0.7550   22.5658 C   0  0  0  0  0  0  0  0  0  0  0  0
    8.4689   -2.8595   23.9730 N   0  0  0  0  0  0  0  0  0  0  0  0
    7.7194   -4.3280   26.2669 N   0  0  0  0  0  0  0  0  0  0  0  0
   10.4662   -0.8663   23.9563 N   0  0  0  0  0  0  0  0  0  0  0  0
    9.9266   -6.9743   26.3532 N   0  0  0  0  0  0  0  0  0  0  0  0
   10.5633   -4.7656   26.4544 O   0  0  0  0  0  0  0  0  0  0  0  0
   11.4398    1.1763   23.4374 O   0  0  0  0  0  0  0  0  0  0  0  0
   13.8285   -1.0564   23.6816 Cl  0  0  0  0  0  0  0  0  0  0  0  0
    5.4634   -5.3675   21.6331 H   0  0  0  0  0  0  0  0  0  0  0  0
    4.8134   -6.6497   23.6549 H   0  0  0  0  0  0  0  0  0  0  0  0
    7.1757   -3.5933   21.7854 H   0  0  0  0  0  0  0  0  0  0  0  0
    5.8754   -6.1588   25.8309 H   0  0  0  0  0  0  0  0  0  0  0  0
    8.1727   -2.5514   28.9995 H   0  0  0  0  0  0  0  0  0  0  0  0
    9.5507   -2.9081   27.9408 H   0  0  0  0  0  0  0  0  0  0  0  0
    9.2692   -4.9983   29.0992 H   0  0  0  0  0  0  0  0  0  0  0  0
    7.4969   -4.8585   29.0593 H   0  0  0  0  0  0  0  0  0  0  0  0
    6.6069   -2.7997   27.2204 H   0  0  0  0  0  0  0  0  0  0  0  0
    8.0012   -2.2213   26.2728 H   0  0  0  0  0  0  0  0  0  0  0  0
   10.0688   -3.3128   22.6742 H   0  0  0  0  0  0  0  0  0  0  0  0
   10.0611   -4.2261   24.1901 H   0  0  0  0  0  0  0  0  0  0  0  0
    7.0860   -1.2810   23.9339 H   0  0  0  0  0  0  0  0  0  0  0  0
    8.1315   -1.3544   22.5146 H   0  0  0  0  0  0  0  0  0  0  0  0
   10.7257   -2.2492   25.4711 H   0  0  0  0  0  0  0  0  0  0  0  0
   11.8355   -2.4480   24.1124 H   0  0  0  0  0  0  0  0  0  0  0  0
    8.9256    0.5141   23.8371 H   0  0  0  0  0  0  0  0  0  0  0  0
    8.9180   -0.4474   25.3149 H   0  0  0  0  0  0  0  0  0  0  0  0
    7.7797   -6.2761   27.1888 H   0  0  0  0  0  0  0  0  0  0  0  0
   12.8288   -0.1026   21.7648 H   0  0  0  0  0  0  0  0  0  0  0  0
   12.1076   -1.6929   22.1926 H   0  0  0  0  0  0  0  0  0  0  0  0
    9.1654   -7.6270   26.5089 H   0  0  0  0  0  0  0  0  0  0  0  0
   10.8107   -7.3313   26.0057 H   0  0  0  0  0  0  0  0  0  0  0  0
  1  2  1  0  0  0  0
  1  3  2  0  0  0  0
  1 25  1  0  0  0  0
  2  4  2  0  0  0  0
  2 26  1  0  0  0  0
  3  5  1  0  0  0  0
  3 27  1  0  0  0  0
  4  6  1  0  0  0  0
  4 28  1  0  0  0  0
  5  6  2  0  0  0  0
  5 18  1  0  0  0  0
  6 19  1  0  0  0  0
  7 16  1  0  0  0  0
  7 21  1  0  0  0  0
  7 22  2  0  0  0  0
  8 17  1  0  0  0  0
  8 20  1  0  0  0  0
  8 23  2  0  0  0  0
  9 10  1  0  0  0  0
  9 11  1  0  0  0  0
  9 29  1  0  0  0  0
  9 30  1  0  0  0  0
 10 16  1  0  0  0  0
 10 31  1  0  0  0  0
 10 32  1  0  0  0  0
 11 19  1  0  0  0  0
 11 33  1  0  0  0  0
 11 34  1  0  0  0  0
 12 14  1  0  0  0  0
 12 18  1  0  0  0  0
 12 35  1  0  0  0  0
 12 36  1  0  0  0  0
 13 15  1  0  0  0  0
 13 18  1  0  0  0  0
 13 37  1  0  0  0  0
 13 38  1  0  0  0  0
 14 20  1  0  0  0  0
 14 39  1  0  0  0  0
 14 40  1  0  0  0  0
 15 20  1  0  0  0  0
 15 41  1  0  0  0  0
 15 42  1  0  0  0  0
 16 19  1  0  0  0  0
 16 43  1  1  0  0  0
 17 24  1  0  0  0  0
 17 44  1  0  0  0  0
 17 45  1  0  0  0  0
 21 46  1  0  0  0  0
 21 47  1  0  0  0  0
M  END
>  <Chemgauss4 Score>
-6.34722471237183

>  <Number of Confs>
136

$$$$
