ADA-UNI-f8e-8
 OpenBabel03242009303D

 42 43  0  0  1  0  0  0  0  0999 V2000
   11.8972    0.4166   23.6993 C   0  0  0  0  0  0  0  0  0  0  0  0
    5.5387   -4.4130   21.1591 C   0  0  0  0  0  0  0  0  0  0  0  0
   11.0002   -0.4755   24.2868 C   0  0  0  0  0  0  0  0  0  0  0  0
    6.5463   -3.8944   21.9647 C   0  0  0  0  0  0  0  0  0  0  0  0
   12.8074   -0.0369   22.7445 C   0  0  0  0  0  0  0  0  0  0  0  0
   11.9238   -2.2746   22.9649 C   0  0  0  0  0  0  0  0  0  0  0  0
    5.6014   -5.7566   20.8263 C   0  0  0  0  0  0  0  0  0  0  0  0
    7.5430   -6.0531   22.0182 C   0  0  0  0  0  0  0  0  0  0  0  0
   11.0135   -1.8211   23.9196 C   0  0  0  0  0  0  0  0  0  0  0  0
    7.5714   -4.7234   22.4067 C   0  0  0  0  0  0  0  0  0  0  0  0
   12.8207   -1.3825   22.3774 C   0  0  0  0  0  0  0  0  0  0  0  0
    8.7729   -2.9228   23.6957 C   0  0  0  0  0  0  0  0  0  0  0  0
    7.6571   -5.8700   28.2823 C   0  0  0  0  0  0  0  0  0  0  0  0
    9.6681   -2.3977   26.0099 C   0  0  0  0  0  0  0  0  0  0  0  0
    9.1422   -3.5503   26.8650 C   0  0  0  0  0  0  0  0  0  0  0  0
   10.0368   -2.7927   24.5610 C   0  0  2  0  0  0  0  0  0  0  0  0
    6.5811   -6.5929   21.2365 N   0  0  0  0  0  0  0  0  0  0  0  0
    8.6106   -4.2244   23.2272 N   0  0  0  0  0  0  0  0  0  0  0  0
    7.9054   -4.1080   26.2774 N   0  0  0  0  0  0  0  0  0  0  0  0
    8.0454   -1.9596   23.4706 O   0  0  0  0  0  0  0  0  0  0  0  0
    8.6051   -6.5765   25.9472 O   0  0  0  0  0  0  0  0  0  0  0  0
    6.1629   -5.9828   26.1469 O   0  0  0  0  0  0  0  0  0  0  0  0
    7.5488   -5.7589   26.5109 S   0  0  0  0  0  0  0  0  0  0  0  0
   13.9448   -1.9416   21.2003 Cl  0  0  0  0  0  0  0  0  0  0  0  0
   11.8866    1.4643   23.9856 H   0  0  0  0  0  0  0  0  0  0  0  0
    4.7298   -3.7853   20.8030 H   0  0  0  0  0  0  0  0  0  0  0  0
   10.2945   -0.1134   25.0299 H   0  0  0  0  0  0  0  0  0  0  0  0
    6.5230   -2.8438   22.2419 H   0  0  0  0  0  0  0  0  0  0  0  0
   13.5009    0.6697   22.2952 H   0  0  0  0  0  0  0  0  0  0  0  0
   11.9298   -3.3246   22.6817 H   0  0  0  0  0  0  0  0  0  0  0  0
    4.8400   -6.2091   20.1996 H   0  0  0  0  0  0  0  0  0  0  0  0
    8.3153   -6.7493   22.3314 H   0  0  0  0  0  0  0  0  0  0  0  0
    7.4459   -6.8994   28.5763 H   0  0  0  0  0  0  0  0  0  0  0  0
    8.6662   -5.5855   28.5841 H   0  0  0  0  0  0  0  0  0  0  0  0
    6.9220   -5.1901   28.7155 H   0  0  0  0  0  0  0  0  0  0  0  0
    8.9070   -1.6062   25.9772 H   0  0  0  0  0  0  0  0  0  0  0  0
   10.5368   -1.9600   26.5179 H   0  0  0  0  0  0  0  0  0  0  0  0
    8.9062   -3.1867   27.8708 H   0  0  0  0  0  0  0  0  0  0  0  0
    9.8819   -4.3498   26.9659 H   0  0  0  0  0  0  0  0  0  0  0  0
   10.4915   -3.7924   24.5972 H   0  0  0  0  0  0  0  0  0  0  0  0
    9.3228   -4.8951   23.5079 H   0  0  0  0  0  0  0  0  0  0  0  0
    7.1153   -3.4528   26.2801 H   0  0  0  0  0  0  0  0  0  0  0  0
  1  3  2  0  0  0  0
  1  5  1  0  0  0  0
  1 25  1  0  0  0  0
  2  4  2  0  0  0  0
  2  7  1  0  0  0  0
  2 26  1  0  0  0  0
  3  9  1  0  0  0  0
  3 27  1  0  0  0  0
  4 10  1  0  0  0  0
  4 28  1  0  0  0  0
  5 11  2  0  0  0  0
  5 29  1  0  0  0  0
  6  9  2  0  0  0  0
  6 11  1  0  0  0  0
  6 30  1  0  0  0  0
  7 17  2  0  0  0  0
  7 31  1  0  0  0  0
  8 10  2  0  0  0  0
  8 17  1  0  0  0  0
  8 32  1  0  0  0  0
  9 16  1  0  0  0  0
 10 18  1  0  0  0  0
 11 24  1  0  0  0  0
 12 16  1  0  0  0  0
 12 18  1  0  0  0  0
 12 20  2  0  0  0  0
 13 23  1  0  0  0  0
 13 33  1  0  0  0  0
 13 34  1  0  0  0  0
 13 35  1  0  0  0  0
 14 15  1  0  0  0  0
 14 16  1  0  0  0  0
 14 36  1  0  0  0  0
 14 37  1  0  0  0  0
 15 19  1  0  0  0  0
 15 38  1  0  0  0  0
 15 39  1  0  0  0  0
 16 40  1  1  0  0  0
 18 41  1  0  0  0  0
 19 23  1  0  0  0  0
 19 42  1  0  0  0  0
 21 23  2  0  0  0  0
 22 23  2  0  0  0  0
M  END
>  <Chemgauss4 Score>
-4.88243961334229

>  <Number of Confs>
200

$$$$
