JOH-MEM-5e3-1
 OpenBabel03242009303D

 34 35  0  0  1  0  0  0  0  0999 V2000
   10.2858   -1.5829   26.3918 C   0  0  0  0  0  0  0  0  0  0  0  0
   10.8896   -0.8728   25.3527 C   0  0  0  0  0  0  0  0  0  0  0  0
   10.6867   -2.7875   23.8532 C   0  0  0  0  0  0  0  0  0  0  0  0
   10.0857   -3.4838   24.8853 C   0  0  0  0  0  0  0  0  0  0  0  0
    9.8984   -2.8812   26.1275 C   0  0  0  0  0  0  0  0  0  0  0  0
   11.0889   -1.4698   24.0943 C   0  0  0  0  0  0  0  0  0  0  0  0
    9.0326   -5.0006   26.3702 C   0  0  0  0  0  0  0  0  0  0  0  0
    6.7899   -2.3211   23.5646 C   0  0  0  0  0  0  0  0  0  0  0  0
    9.5695   -4.8938   24.9296 C   0  0  1  0  0  0  0  0  0  0  0  0
    6.8439   -0.8923   23.9933 C   0  0  0  0  0  0  0  0  0  0  0  0
   11.8594   -1.4106   21.8451 C   0  0  0  0  0  0  0  0  0  0  0  0
    8.4707   -5.1693   23.9174 C   0  0  0  0  0  0  0  0  0  0  0  0
    7.1082   -4.6527   24.3677 C   0  0  0  0  0  0  0  0  0  0  0  0
    9.2814   -3.7742   26.9960 N   0  0  0  0  0  0  0  0  0  0  0  0
    7.1013   -3.2296   24.5647 N   0  0  0  0  0  0  0  0  0  0  0  0
    8.4927   -5.9821   26.8578 O   0  0  0  0  0  0  0  0  0  0  0  0
    6.4866   -2.5943   22.4091 O   0  0  0  0  0  0  0  0  0  0  0  0
   11.6838   -0.7538   23.0984 O   0  0  0  0  0  0  0  0  0  0  0  0
   10.1318   -1.1262   27.3626 H   0  0  0  0  0  0  0  0  0  0  0  0
   11.2084    0.1529   25.5218 H   0  0  0  0  0  0  0  0  0  0  0  0
   10.8443   -3.2495   22.8843 H   0  0  0  0  0  0  0  0  0  0  0  0
   10.4017   -5.5983   24.8214 H   0  0  0  0  0  0  0  0  0  0  0  0
    7.8410   -0.4468   23.8474 H   0  0  0  0  0  0  0  0  0  0  0  0
    6.1532   -0.2545   23.4185 H   0  0  0  0  0  0  0  0  0  0  0  0
    6.5960   -0.7079   25.0508 H   0  0  0  0  0  0  0  0  0  0  0  0
   12.3441   -0.7300   21.1409 H   0  0  0  0  0  0  0  0  0  0  0  0
   10.8865   -1.7219   21.4564 H   0  0  0  0  0  0  0  0  0  0  0  0
   12.4901   -2.2909   21.9904 H   0  0  0  0  0  0  0  0  0  0  0  0
    8.4011   -6.2525   23.7576 H   0  0  0  0  0  0  0  0  0  0  0  0
    8.7425   -4.7182   22.9546 H   0  0  0  0  0  0  0  0  0  0  0  0
    6.3520   -4.8741   23.6079 H   0  0  0  0  0  0  0  0  0  0  0  0
    6.7964   -5.1226   25.3058 H   0  0  0  0  0  0  0  0  0  0  0  0
    9.0427   -3.5641   27.9578 H   0  0  0  0  0  0  0  0  0  0  0  0
    7.3377   -2.8688   25.4885 H   0  0  0  0  0  0  0  0  0  0  0  0
  1  2  2  0  0  0  0
  1  5  1  0  0  0  0
  1 19  1  0  0  0  0
  2  6  1  0  0  0  0
  2 20  1  0  0  0  0
  3  4  1  0  0  0  0
  3  6  2  0  0  0  0
  3 21  1  0  0  0  0
  4  5  2  0  0  0  0
  4  9  1  0  0  0  0
  5 14  1  0  0  0  0
  6 18  1  0  0  0  0
  7  9  1  0  0  0  0
  7 14  1  0  0  0  0
  7 16  2  0  0  0  0
  8 10  1  0  0  0  0
  8 15  1  0  0  0  0
  8 17  2  0  0  0  0
  9 12  1  0  0  0  0
  9 22  1  6  0  0  0
 10 23  1  0  0  0  0
 10 24  1  0  0  0  0
 10 25  1  0  0  0  0
 11 18  1  0  0  0  0
 11 26  1  0  0  0  0
 11 27  1  0  0  0  0
 11 28  1  0  0  0  0
 12 13  1  0  0  0  0
 12 29  1  0  0  0  0
 12 30  1  0  0  0  0
 13 15  1  0  0  0  0
 13 31  1  0  0  0  0
 13 32  1  0  0  0  0
 14 33  1  0  0  0  0
 15 34  1  0  0  0  0
M  END
>  <Chemgauss4 Score>
-5.25706958770752

>  <Number of Confs>
48

$$$$
