DAN-LON-a5f-5
 OpenBabel03242009303D

 44 46  0  0  1  0  0  0  0  0999 V2000
    8.4990   -5.9403   25.0263 C   0  0  0  0  0  0  0  0  0  0  0  0
    8.0230   -1.7253   24.4169 C   0  0  0  0  0  0  0  0  0  0  0  0
    7.7096   -3.1337   22.4790 C   0  0  0  0  0  0  0  0  0  0  0  0
    9.5381   -5.2183   24.4394 C   0  0  0  0  0  0  0  0  0  0  0  0
    8.0876   -5.6400   26.3249 C   0  0  0  0  0  0  0  0  0  0  0  0
    6.6851   -1.9084   24.7664 C   0  0  0  0  0  0  0  0  0  0  0  0
    6.3717   -3.3168   22.8285 C   0  0  0  0  0  0  0  0  0  0  0  0
    9.7544   -3.8956   26.4496 C   0  0  0  0  0  0  0  0  0  0  0  0
    8.5352   -2.3379   23.2732 C   0  0  0  0  0  0  0  0  0  0  0  0
   10.1658   -4.1959   25.1511 C   0  0  0  0  0  0  0  0  0  0  0  0
    5.8595   -2.7041   23.9722 C   0  0  0  0  0  0  0  0  0  0  0  0
    8.7153   -4.6177   27.0365 C   0  0  0  0  0  0  0  0  0  0  0  0
    9.7401    1.4957   22.4154 C   0  0  0  0  0  0  0  0  0  0  0  0
   11.5125    0.2381   23.6943 C   0  0  0  0  0  0  0  0  0  0  0  0
   12.0015   -1.1914   23.9295 C   0  0  0  0  0  0  0  0  0  0  0  0
   10.1445   -0.9054   21.9697 C   0  0  0  0  0  0  0  0  0  0  0  0
    9.9972   -2.1395   22.8919 C   0  0  1  0  0  0  0  0  0  0  0  0
   11.2851   -3.4199   24.5191 C   0  0  0  0  0  0  0  0  0  0  0  0
    8.6591    1.3826   21.3681 C   0  0  0  0  0  0  0  0  0  0  0  0
   10.4276    0.3187   22.7141 N   0  0  0  0  0  0  0  0  0  0  0  0
   10.8566   -2.0872   24.0968 N   0  0  0  0  0  0  0  0  0  0  0  0
    9.9694    2.5877   22.9401 O   0  0  0  0  0  0  0  0  0  0  0  0
    4.2091   -2.9299   24.4037 Cl  0  0  0  0  0  0  0  0  0  0  0  0
    8.2079   -4.2484   28.6390 Cl  0  0  0  0  0  0  0  0  0  0  0  0
    7.9385    2.9808   21.2133 Cl  0  0  0  0  0  0  0  0  0  0  0  0
    8.0106   -6.7364   24.4719 H   0  0  0  0  0  0  0  0  0  0  0  0
    8.6599   -1.1037   25.0407 H   0  0  0  0  0  0  0  0  0  0  0  0
    8.1010   -3.6147   21.5865 H   0  0  0  0  0  0  0  0  0  0  0  0
    9.8523   -5.4592   23.4272 H   0  0  0  0  0  0  0  0  0  0  0  0
    7.2765   -6.2113   26.7698 H   0  0  0  0  0  0  0  0  0  0  0  0
    6.3001   -1.4250   25.6606 H   0  0  0  0  0  0  0  0  0  0  0  0
    5.7401   -3.9395   22.2001 H   0  0  0  0  0  0  0  0  0  0  0  0
   10.2467   -3.0972   27.0001 H   0  0  0  0  0  0  0  0  0  0  0  0
   11.1317    0.6760   24.6350 H   0  0  0  0  0  0  0  0  0  0  0  0
   12.3616    0.8711   23.3835 H   0  0  0  0  0  0  0  0  0  0  0  0
   12.6259   -1.4997   23.0911 H   0  0  0  0  0  0  0  0  0  0  0  0
   12.6117   -1.1926   24.8314 H   0  0  0  0  0  0  0  0  0  0  0  0
   10.9156   -1.1047   21.2145 H   0  0  0  0  0  0  0  0  0  0  0  0
    9.2118   -0.7227   21.4107 H   0  0  0  0  0  0  0  0  0  0  0  0
   10.2804   -3.0521   22.2981 H   0  0  0  0  0  0  0  0  0  0  0  0
   12.1167   -3.2999   25.2220 H   0  0  0  0  0  0  0  0  0  0  0  0
   11.6761   -3.9406   23.6386 H   0  0  0  0  0  0  0  0  0  0  0  0
    7.9154    0.6701   21.7063 H   0  0  0  0  0  0  0  0  0  0  0  0
    9.1101    1.0848   20.4285 H   0  0  0  0  0  0  0  0  0  0  0  0
  1  4  2  0  0  0  0
  1  5  1  0  0  0  0
  1 26  1  0  0  0  0
  2  6  2  0  0  0  0
  2  9  1  0  0  0  0
  2 27  1  0  0  0  0
  3  7  1  0  0  0  0
  3  9  2  0  0  0  0
  3 28  1  0  0  0  0
  4 10  1  0  0  0  0
  4 29  1  0  0  0  0
  5 12  2  0  0  0  0
  5 30  1  0  0  0  0
  6 11  1  0  0  0  0
  6 31  1  0  0  0  0
  7 11  2  0  0  0  0
  7 32  1  0  0  0  0
  8 10  2  0  0  0  0
  8 12  1  0  0  0  0
  8 33  1  0  0  0  0
  9 17  1  0  0  0  0
 10 18  1  0  0  0  0
 11 23  1  0  0  0  0
 12 24  1  0  0  0  0
 13 19  1  0  0  0  0
 13 20  1  0  0  0  0
 13 22  2  0  0  0  0
 14 15  1  0  0  0  0
 14 20  1  0  0  0  0
 14 34  1  0  0  0  0
 14 35  1  0  0  0  0
 15 21  1  0  0  0  0
 15 36  1  0  0  0  0
 15 37  1  0  0  0  0
 16 17  1  0  0  0  0
 16 20  1  0  0  0  0
 16 38  1  0  0  0  0
 16 39  1  0  0  0  0
 17 21  1  0  0  0  0
 17 40  1  6  0  0  0
 18 21  1  0  0  0  0
 18 41  1  0  0  0  0
 18 42  1  0  0  0  0
 19 25  1  0  0  0  0
 19 43  1  0  0  0  0
 19 44  1  0  0  0  0
M  END
>  <Chemgauss4 Score>
-5.1254243850708

>  <Number of Confs>
105

$$$$
