GIA-UNK-995-15
 OpenBabel03242009303D

 35 36  0  0  0  0  0  0  0  0999 V2000
   12.3596    0.5825   23.5950 C   0  0  0  0  0  0  0  0  0  0  0  0
   11.1147   -0.0465   23.5891 C   0  0  0  0  0  0  0  0  0  0  0  0
   13.4282    0.0209   22.8961 C   0  0  0  0  0  0  0  0  0  0  0  0
   12.0068   -1.7989   22.1854 C   0  0  0  0  0  0  0  0  0  0  0  0
   10.9383   -1.2372   22.8843 C   0  0  0  0  0  0  0  0  0  0  0  0
   13.2518   -1.1698   22.1913 C   0  0  0  0  0  0  0  0  0  0  0  0
    9.6371   -1.8956   22.8779 C   0  0  0  0  0  0  0  0  0  0  0  0
    8.5068   -5.1962   26.6078 C   0  0  0  0  0  0  0  0  0  0  0  0
    7.4404   -3.3544   25.3102 C   0  0  0  0  0  0  0  0  0  0  0  0
    9.7624   -3.0735   26.3146 C   0  0  0  0  0  0  0  0  0  0  0  0
    8.0975   -3.5298   23.9408 C   0  0  0  0  0  0  0  0  0  0  0  0
   10.3426   -3.2723   24.9152 C   0  0  0  0  0  0  0  0  0  0  0  0
    8.3720   -3.6881   26.4745 C   0  0  0  0  0  0  0  0  0  0  0  0
    6.2023   -6.1487   27.7494 C   0  0  0  0  0  0  0  0  0  0  0  0
    9.3845   -2.8372   23.8921 N   0  0  0  0  0  0  0  0  0  0  0  0
    8.8083   -1.6195   22.0088 O   0  0  0  0  0  0  0  0  0  0  0  0
    8.9734   -5.9061   25.7250 O   0  0  0  0  0  0  0  0  0  0  0  0
   14.2777   -1.7092   21.5201 F   0  0  0  0  0  0  0  0  0  0  0  0
    5.5933   -4.9860   27.3940 F   0  0  0  0  0  0  0  0  0  0  0  0
    7.9314   -5.8258   28.1511 S   0  0  0  0  0  0  0  0  0  0  0  0
   12.4969    1.5095   24.1437 H   0  0  0  0  0  0  0  0  0  0  0  0
   10.2888    0.3994   24.1375 H   0  0  0  0  0  0  0  0  0  0  0  0
   14.3976    0.5105   22.9006 H   0  0  0  0  0  0  0  0  0  0  0  0
   11.8811   -2.7266   21.6330 H   0  0  0  0  0  0  0  0  0  0  0  0
    7.1174   -2.3097   25.4078 H   0  0  0  0  0  0  0  0  0  0  0  0
    6.5330   -3.9689   25.3544 H   0  0  0  0  0  0  0  0  0  0  0  0
   10.4543   -3.4941   27.0543 H   0  0  0  0  0  0  0  0  0  0  0  0
    9.6987   -1.9965   26.5170 H   0  0  0  0  0  0  0  0  0  0  0  0
    8.2847   -4.5897   23.7332 H   0  0  0  0  0  0  0  0  0  0  0  0
    7.4283   -3.1571   23.1584 H   0  0  0  0  0  0  0  0  0  0  0  0
   11.2891   -2.7316   24.8349 H   0  0  0  0  0  0  0  0  0  0  0  0
   10.5623   -4.3298   24.7289 H   0  0  0  0  0  0  0  0  0  0  0  0
    7.9321   -3.3513   27.4059 H   0  0  0  0  0  0  0  0  0  0  0  0
    5.6719   -6.5554   28.6144 H   0  0  0  0  0  0  0  0  0  0  0  0
    6.1218   -6.8414   26.9077 H   0  0  0  0  0  0  0  0  0  0  0  0
  1  2  2  0  0  0  0
  1  3  1  0  0  0  0
  1 21  1  0  0  0  0
  2  5  1  0  0  0  0
  2 22  1  0  0  0  0
  3  6  2  0  0  0  0
  3 23  1  0  0  0  0
  4  5  2  0  0  0  0
  4  6  1  0  0  0  0
  4 24  1  0  0  0  0
  5  7  1  0  0  0  0
  6 18  1  0  0  0  0
  7 15  1  0  0  0  0
  7 16  2  0  0  0  0
  8 13  1  0  0  0  0
  8 17  2  0  0  0  0
  8 20  1  0  0  0  0
  9 11  1  0  0  0  0
  9 13  1  0  0  0  0
  9 25  1  0  0  0  0
  9 26  1  0  0  0  0
 10 12  1  0  0  0  0
 10 13  1  0  0  0  0
 10 27  1  0  0  0  0
 10 28  1  0  0  0  0
 11 15  1  0  0  0  0
 11 29  1  0  0  0  0
 11 30  1  0  0  0  0
 12 15  1  0  0  0  0
 12 31  1  0  0  0  0
 12 32  1  0  0  0  0
 13 33  1  0  0  0  0
 14 19  1  0  0  0  0
 14 20  1  0  0  0  0
 14 34  1  0  0  0  0
 14 35  1  0  0  0  0
M  END
>  <Chemgauss4 Score>
-5.11336231231689

>  <Number of Confs>
200

$$$$
