TRY-UNI-714-16
 OpenBabel03242009303D

 40 41  0  0  1  0  0  0  0  0999 V2000
   12.2673   -0.7364   22.5044 C   0  0  0  0  0  0  0  0  0  0  0  0
   12.2934    0.3425   23.3734 C   0  0  0  0  0  0  0  0  0  0  0  0
   10.9026   -0.7124   24.8671 C   0  0  0  0  0  0  0  0  0  0  0  0
   11.5096   -1.8449   22.8658 C   0  0  0  0  0  0  0  0  0  0  0  0
   10.8111   -1.8406   24.0680 C   0  0  0  0  0  0  0  0  0  0  0  0
    9.2839   -3.0687   25.6509 C   0  0  0  0  0  0  0  0  0  0  0  0
    5.9290   -4.7273   23.0413 C   0  0  0  0  0  0  0  0  0  0  0  0
    6.6699   -3.4345   23.3679 C   0  0  0  0  0  0  0  0  0  0  0  0
    6.4061   -5.8899   23.9061 C   0  0  0  0  0  0  0  0  0  0  0  0
    6.5904   -3.0991   24.8563 C   0  0  0  0  0  0  0  0  0  0  0  0
    6.3262   -5.5554   25.3947 C   0  0  0  0  0  0  0  0  0  0  0  0
    7.0529   -4.2524   25.7589 C   0  0  0  0  0  0  0  0  0  0  0  0
   11.4630   -3.0218   21.9474 C   0  0  0  0  0  0  0  0  0  0  0  0
    9.0491   -5.2021   26.9471 C   0  0  0  0  0  0  0  0  0  0  0  0
    8.5740   -4.4242   25.7214 C   0  0  2  0  0  0  0  0  0  0  0  0
   11.6283    0.3832   24.5496 N   0  0  0  0  0  0  0  0  0  0  0  0
   10.0267   -2.9443   24.4802 N   0  0  0  0  0  0  0  0  0  0  0  0
    9.1667   -2.2345   26.5440 O   0  0  0  0  0  0  0  0  0  0  0  0
   12.8234   -0.7079   21.5736 H   0  0  0  0  0  0  0  0  0  0  0  0
   12.8693    1.2314   23.1378 H   0  0  0  0  0  0  0  0  0  0  0  0
   10.3807   -0.6491   25.8174 H   0  0  0  0  0  0  0  0  0  0  0  0
    4.8510   -4.5803   23.1837 H   0  0  0  0  0  0  0  0  0  0  0  0
    6.0790   -4.9756   21.9821 H   0  0  0  0  0  0  0  0  0  0  0  0
    7.7196   -3.5257   23.0663 H   0  0  0  0  0  0  0  0  0  0  0  0
    6.2408   -2.6100   22.7853 H   0  0  0  0  0  0  0  0  0  0  0  0
    5.7932   -6.7756   23.6984 H   0  0  0  0  0  0  0  0  0  0  0  0
    7.4380   -6.1466   23.6410 H   0  0  0  0  0  0  0  0  0  0  0  0
    7.2022   -2.2023   25.0552 H   0  0  0  0  0  0  0  0  0  0  0  0
    5.5537   -2.8206   25.1084 H   0  0  0  0  0  0  0  0  0  0  0  0
    5.2667   -5.4877   25.6927 H   0  0  0  0  0  0  0  0  0  0  0  0
    6.7512   -6.3932   25.9740 H   0  0  0  0  0  0  0  0  0  0  0  0
    6.7746   -3.9939   26.8027 H   0  0  0  0  0  0  0  0  0  0  0  0
   12.2685   -3.7247   22.1897 H   0  0  0  0  0  0  0  0  0  0  0  0
   10.5040   -3.5484   22.0263 H   0  0  0  0  0  0  0  0  0  0  0  0
   11.5721   -2.7121   20.9006 H   0  0  0  0  0  0  0  0  0  0  0  0
    8.8086   -4.6629   27.8693 H   0  0  0  0  0  0  0  0  0  0  0  0
   10.1326   -5.3587   26.9255 H   0  0  0  0  0  0  0  0  0  0  0  0
    8.5768   -6.1897   26.9951 H   0  0  0  0  0  0  0  0  0  0  0  0
    8.8298   -4.9905   24.8169 H   0  0  0  0  0  0  0  0  0  0  0  0
   10.0029   -3.7402   23.8464 H   0  0  0  0  0  0  0  0  0  0  0  0
  1  2  2  0  0  0  0
  1  4  1  0  0  0  0
  1 19  1  0  0  0  0
  2 16  1  0  0  0  0
  2 20  1  0  0  0  0
  3  5  1  0  0  0  0
  3 16  2  0  0  0  0
  3 21  1  0  0  0  0
  4  5  2  0  0  0  0
  4 13  1  0  0  0  0
  5 17  1  0  0  0  0
  6 15  1  0  0  0  0
  6 17  1  0  0  0  0
  6 18  2  0  0  0  0
  7  8  1  0  0  0  0
  7  9  1  0  0  0  0
  7 22  1  0  0  0  0
  7 23  1  0  0  0  0
  8 10  1  0  0  0  0
  8 24  1  0  0  0  0
  8 25  1  0  0  0  0
  9 11  1  0  0  0  0
  9 26  1  0  0  0  0
  9 27  1  0  0  0  0
 10 12  1  0  0  0  0
 10 28  1  0  0  0  0
 10 29  1  0  0  0  0
 11 12  1  0  0  0  0
 11 30  1  0  0  0  0
 11 31  1  0  0  0  0
 12 15  1  0  0  0  0
 12 32  1  0  0  0  0
 13 33  1  0  0  0  0
 13 34  1  0  0  0  0
 13 35  1  0  0  0  0
 14 15  1  0  0  0  0
 14 36  1  0  0  0  0
 14 37  1  0  0  0  0
 14 38  1  0  0  0  0
 15 39  1  6  0  0  0
 17 40  1  0  0  0  0
M  END
>  <Chemgauss4 Score>
-4.92306518554688

>  <Number of Confs>
19

$$$$
