CAR-INS-33b-3
 OpenBabel03242009303D

 45 48  0  0  0  0  0  0  0  0999 V2000
   13.3209   -1.3941   21.1999 C   0  0  0  0  0  0  0  0  0  0  0  0
   11.9453   -1.1719   21.2620 C   0  0  0  0  0  0  0  0  0  0  0  0
   14.0854   -1.3656   22.3663 C   0  0  0  0  0  0  0  0  0  0  0  0
   11.3341   -0.9212   22.4905 C   0  0  0  0  0  0  0  0  0  0  0  0
   13.4742   -1.1148   23.5948 C   0  0  0  0  0  0  0  0  0  0  0  0
    6.1743   -6.0157   23.6326 C   0  0  0  0  0  0  0  0  0  0  0  0
    5.4568   -5.9911   22.4440 C   0  0  0  0  0  0  0  0  0  0  0  0
    4.5426   -3.8823   22.8237 C   0  0  0  0  0  0  0  0  0  0  0  0
    6.1006   -3.2577   26.0208 C   0  0  0  0  0  0  0  0  0  0  0  0
    6.0504   -4.8855   24.4530 C   0  0  0  0  0  0  0  0  0  0  0  0
   12.0985   -0.8926   23.6569 C   0  0  0  0  0  0  0  0  0  0  0  0
    6.5920   -4.5057   25.7127 C   0  0  0  0  0  0  0  0  0  0  0  0
    5.2323   -3.8373   24.0282 C   0  0  0  0  0  0  0  0  0  0  0  0
    7.5193   -5.2722   26.5781 C   0  0  0  0  0  0  0  0  0  0  0  0
   11.4552   -0.6286   24.9497 C   0  0  0  0  0  0  0  0  0  0  0  0
    8.4625   -4.5353   27.4428 C   0  0  0  0  0  0  0  0  0  0  0  0
    9.7898   -1.2774   26.6585 C   0  0  0  0  0  0  0  0  0  0  0  0
    9.9784   -2.6839   24.6443 C   0  0  0  0  0  0  0  0  0  0  0  0
    9.8773   -2.5184   27.5377 C   0  0  0  0  0  0  0  0  0  0  0  0
   10.0355   -3.9370   25.5197 C   0  0  0  0  0  0  0  0  0  0  0  0
    4.6642   -4.9743   22.0338 N   0  0  0  0  0  0  0  0  0  0  0  0
    5.2805   -2.8629   24.9976 N   0  0  0  0  0  0  0  0  0  0  0  0
   10.4589   -1.5072   25.3788 N   0  0  0  0  0  0  0  0  0  0  0  0
    9.3969   -3.7075   26.8258 N   0  0  0  0  0  0  0  0  0  0  0  0
    7.4947   -6.4978   26.5951 O   0  0  0  0  0  0  0  0  0  0  0  0
   11.8490    0.3637   25.5605 O   0  0  0  0  0  0  0  0  0  0  0  0
    8.3686   -4.7015   28.6601 O   0  0  0  0  0  0  0  0  0  0  0  0
   13.7967   -1.5893   20.2434 H   0  0  0  0  0  0  0  0  0  0  0  0
   11.3502   -1.1939   20.3537 H   0  0  0  0  0  0  0  0  0  0  0  0
   15.1564   -1.5388   22.3180 H   0  0  0  0  0  0  0  0  0  0  0  0
   10.2614   -0.7494   22.5274 H   0  0  0  0  0  0  0  0  0  0  0  0
   14.0798   -1.0948   24.4972 H   0  0  0  0  0  0  0  0  0  0  0  0
    6.7913   -6.8652   23.9021 H   0  0  0  0  0  0  0  0  0  0  0  0
    5.5048   -6.8334   21.7602 H   0  0  0  0  0  0  0  0  0  0  0  0
    3.9029   -3.0838   22.4714 H   0  0  0  0  0  0  0  0  0  0  0  0
    6.2585   -2.6133   26.8747 H   0  0  0  0  0  0  0  0  0  0  0  0
    8.7443   -1.0300   26.4435 H   0  0  0  0  0  0  0  0  0  0  0  0
   10.2332   -0.4213   27.1753 H   0  0  0  0  0  0  0  0  0  0  0  0
   10.5589   -2.8530   23.7299 H   0  0  0  0  0  0  0  0  0  0  0  0
    8.9435   -2.4797   24.3333 H   0  0  0  0  0  0  0  0  0  0  0  0
   10.9189   -2.7121   27.8227 H   0  0  0  0  0  0  0  0  0  0  0  0
    9.3124   -2.3524   28.4593 H   0  0  0  0  0  0  0  0  0  0  0  0
    9.5512   -4.7720   25.0049 H   0  0  0  0  0  0  0  0  0  0  0  0
   11.0752   -4.2247   25.7114 H   0  0  0  0  0  0  0  0  0  0  0  0
    4.7832   -1.9838   24.9603 H   0  0  0  0  0  0  0  0  0  0  0  0
  1  2  1  0  0  0  0
  1  3  2  0  0  0  0
  1 28  1  0  0  0  0
  2  4  2  0  0  0  0
  2 29  1  0  0  0  0
  3  5  1  0  0  0  0
  3 30  1  0  0  0  0
  4 11  1  0  0  0  0
  4 31  1  0  0  0  0
  5 11  2  0  0  0  0
  5 32  1  0  0  0  0
  6  7  2  0  0  0  0
  6 10  1  0  0  0  0
  6 33  1  0  0  0  0
  7 21  1  0  0  0  0
  7 34  1  0  0  0  0
  8 13  1  0  0  0  0
  8 21  2  0  0  0  0
  8 35  1  0  0  0  0
  9 12  2  0  0  0  0
  9 22  1  0  0  0  0
  9 36  1  0  0  0  0
 10 12  1  0  0  0  0
 10 13  2  0  0  0  0
 11 15  1  0  0  0  0
 12 14  1  0  0  0  0
 13 22  1  0  0  0  0
 14 16  1  0  0  0  0
 14 25  2  0  0  0  0
 15 23  1  0  0  0  0
 15 26  2  0  0  0  0
 16 24  1  0  0  0  0
 16 27  2  0  0  0  0
 17 19  1  0  0  0  0
 17 23  1  0  0  0  0
 17 37  1  0  0  0  0
 17 38  1  0  0  0  0
 18 20  1  0  0  0  0
 18 23  1  0  0  0  0
 18 39  1  0  0  0  0
 18 40  1  0  0  0  0
 19 24  1  0  0  0  0
 19 41  1  0  0  0  0
 19 42  1  0  0  0  0
 20 24  1  0  0  0  0
 20 43  1  0  0  0  0
 20 44  1  0  0  0  0
 22 45  1  0  0  0  0
M  END
>  <Chemgauss4 Score>
-5.47041368484497

>  <Number of Confs>
200

$$$$
