DAR-DIA-fc9-2
 OpenBabel03242009303D

 34 36  0  0  1  0  0  0  0  0999 V2000
    6.9336   -5.1651   29.0473 C   0  0  0  0  0  0  0  0  0  0  0  0
    6.2943   -5.0927   27.8097 C   0  0  0  0  0  0  0  0  0  0  0  0
    8.2628   -4.7602   29.1705 C   0  0  0  0  0  0  0  0  0  0  0  0
   13.1432    0.0150   23.1626 C   0  0  0  0  0  0  0  0  0  0  0  0
   12.4812   -1.1845   22.9257 C   0  0  0  0  0  0  0  0  0  0  0  0
    6.9841   -4.6154   26.6953 C   0  0  0  0  0  0  0  0  0  0  0  0
    8.9526   -4.2830   28.0560 C   0  0  0  0  0  0  0  0  0  0  0  0
   12.6174    0.8679   24.1197 C   0  0  0  0  0  0  0  0  0  0  0  0
   10.8853   -0.5700   24.5786 C   0  0  0  0  0  0  0  0  0  0  0  0
   11.3298   -1.4902   23.6429 C   0  0  0  0  0  0  0  0  0  0  0  0
    8.3133   -4.2106   26.8184 C   0  0  0  0  0  0  0  0  0  0  0  0
    8.3590   -3.0472   24.6138 C   0  0  0  0  0  0  0  0  0  0  0  0
   11.0873   -3.9282   24.2852 C   0  0  0  0  0  0  0  0  0  0  0  0
   10.4962   -3.8249   25.6813 C   0  0  0  0  0  0  0  0  0  0  0  0
   10.5841   -2.7926   23.4079 C   0  0  1  0  0  0  0  0  0  0  0  0
   11.5015    0.6054   24.8363 N   0  0  0  0  0  0  0  0  0  0  0  0
    9.1411   -2.6529   23.5372 N   0  0  0  0  0  0  0  0  0  0  0  0
    9.0283   -3.7157   25.6627 N   0  0  0  0  0  0  0  0  0  0  0  0
    7.1548   -2.7740   24.5978 O   0  0  0  0  0  0  0  0  0  0  0  0
    6.3966   -5.5359   29.9155 H   0  0  0  0  0  0  0  0  0  0  0  0
    5.2592   -5.4070   27.7136 H   0  0  0  0  0  0  0  0  0  0  0  0
    8.7600   -4.8158   30.1345 H   0  0  0  0  0  0  0  0  0  0  0  0
   14.0425    0.2741   22.6157 H   0  0  0  0  0  0  0  0  0  0  0  0
   12.8692   -1.8744   22.1813 H   0  0  0  0  0  0  0  0  0  0  0  0
    6.4755   -4.5633   25.7358 H   0  0  0  0  0  0  0  0  0  0  0  0
    9.9882   -3.9702   28.1639 H   0  0  0  0  0  0  0  0  0  0  0  0
   13.0966    1.8159   24.3412 H   0  0  0  0  0  0  0  0  0  0  0  0
    9.9927   -0.7538   25.1685 H   0  0  0  0  0  0  0  0  0  0  0  0
   12.1916   -3.9200   24.3464 H   0  0  0  0  0  0  0  0  0  0  0  0
   10.8211   -4.9037   23.8409 H   0  0  0  0  0  0  0  0  0  0  0  0
   10.7477   -4.7156   26.2708 H   0  0  0  0  0  0  0  0  0  0  0  0
   10.9113   -2.9488   26.1941 H   0  0  0  0  0  0  0  0  0  0  0  0
   10.7560   -3.0651   22.3319 H   0  0  0  0  0  0  0  0  0  0  0  0
    8.6513   -2.2180   22.7514 H   0  0  0  0  0  0  0  0  0  0  0  0
  1  2  1  0  0  0  0
  1  3  2  0  0  0  0
  1 20  1  0  0  0  0
  2  6  2  0  0  0  0
  2 21  1  0  0  0  0
  3  7  1  0  0  0  0
  3 22  1  0  0  0  0
  4  5  2  0  0  0  0
  4  8  1  0  0  0  0
  4 23  1  0  0  0  0
  5 10  1  0  0  0  0
  5 24  1  0  0  0  0
  6 11  1  0  0  0  0
  6 25  1  0  0  0  0
  7 11  2  0  0  0  0
  7 26  1  0  0  0  0
  8 16  2  0  0  0  0
  8 27  1  0  0  0  0
  9 10  2  0  0  0  0
  9 16  1  0  0  0  0
  9 28  1  0  0  0  0
 10 15  1  0  0  0  0
 11 18  1  0  0  0  0
 12 17  1  0  0  0  0
 12 18  1  0  0  0  0
 12 19  2  0  0  0  0
 13 14  1  0  0  0  0
 13 15  1  0  0  0  0
 13 29  1  0  0  0  0
 13 30  1  0  0  0  0
 14 18  1  0  0  0  0
 14 31  1  0  0  0  0
 14 32  1  0  0  0  0
 15 17  1  0  0  0  0
 15 33  1  6  0  0  0
 17 34  1  0  0  0  0
M  END
>  <Chemgauss4 Score>
-4.86876201629639

>  <Number of Confs>
27

$$$$
