NAU-LAT-ec9-5
 OpenBabel03242009303D

 38 41  0  0  1  0  0  0  0  0999 V2000
   12.0334   -1.4742   21.9916 C   0  0  0  0  0  0  0  0  0  0  0  0
   10.6919   -1.7083   21.6895 C   0  0  0  0  0  0  0  0  0  0  0  0
   12.5553   -1.8901   23.2165 C   0  0  0  0  0  0  0  0  0  0  0  0
    5.7678   -3.2219   23.8172 C   0  0  0  0  0  0  0  0  0  0  0  0
    9.7371   -0.8873   27.6485 C   0  0  0  0  0  0  0  0  0  0  0  0
    5.5261   -4.5936   23.6308 C   0  0  0  0  0  0  0  0  0  0  0  0
    9.5305   -1.6646   28.7881 C   0  0  0  0  0  0  0  0  0  0  0  0
    9.8723   -2.3582   22.6123 C   0  0  0  0  0  0  0  0  0  0  0  0
   11.7357   -2.5400   24.1393 C   0  0  0  0  0  0  0  0  0  0  0  0
    7.0277   -2.7637   24.2159 C   0  0  0  0  0  0  0  0  0  0  0  0
    9.7218   -1.4816   26.3867 C   0  0  0  0  0  0  0  0  0  0  0  0
    6.5392   -5.5292   23.8413 C   0  0  0  0  0  0  0  0  0  0  0  0
    9.3088   -3.0363   28.6660 C   0  0  0  0  0  0  0  0  0  0  0  0
   10.3942   -2.7740   23.8372 C   0  0  0  0  0  0  0  0  0  0  0  0
    8.0364   -3.6946   24.4198 C   0  0  0  0  0  0  0  0  0  0  0  0
    9.5000   -2.8533   26.2645 C   0  0  0  0  0  0  0  0  0  0  0  0
    7.7743   -5.0511   24.2345 C   0  0  0  0  0  0  0  0  0  0  0  0
    9.2935   -3.6307   27.4042 C   0  0  0  0  0  0  0  0  0  0  0  0
    9.9798   -4.9911   24.8920 C   0  0  0  0  0  0  0  0  0  0  0  0
    9.4870   -3.4936   24.8597 C   0  0  2  0  0  0  0  0  0  0  0  0
    8.9088   -5.8006   24.5068 N   0  0  0  0  0  0  0  0  0  0  0  0
   11.1008   -5.3746   25.1975 O   0  0  0  0  0  0  0  0  0  0  0  0
    9.0764   -4.9719   27.3024 O   0  0  0  0  0  0  0  0  0  0  0  0
   12.6717   -0.9693   21.2725 H   0  0  0  0  0  0  0  0  0  0  0  0
   10.2857   -1.3855   20.7353 H   0  0  0  0  0  0  0  0  0  0  0  0
   13.5999   -1.7090   23.4517 H   0  0  0  0  0  0  0  0  0  0  0  0
    4.9644   -2.5092   23.6501 H   0  0  0  0  0  0  0  0  0  0  0  0
    9.9103    0.1809   27.7432 H   0  0  0  0  0  0  0  0  0  0  0  0
    4.5391   -4.9268   23.3215 H   0  0  0  0  0  0  0  0  0  0  0  0
    9.5434   -1.2015   29.7704 H   0  0  0  0  0  0  0  0  0  0  0  0
    8.8283   -2.5362   22.3683 H   0  0  0  0  0  0  0  0  0  0  0  0
   12.1509   -2.8603   25.0912 H   0  0  0  0  0  0  0  0  0  0  0  0
    7.2047   -1.7030   24.3592 H   0  0  0  0  0  0  0  0  0  0  0  0
    9.8852   -0.8675   25.5050 H   0  0  0  0  0  0  0  0  0  0  0  0
    6.3546   -6.5883   23.7019 H   0  0  0  0  0  0  0  0  0  0  0  0
    9.1486   -3.6366   29.5574 H   0  0  0  0  0  0  0  0  0  0  0  0
    8.9427   -6.8110   24.4383 H   0  0  0  0  0  0  0  0  0  0  0  0
    8.9531   -5.3590   28.1833 H   0  0  0  0  0  0  0  0  0  0  0  0
  1  2  1  0  0  0  0
  1  3  2  0  0  0  0
  1 24  1  0  0  0  0
  2  8  2  0  0  0  0
  2 25  1  0  0  0  0
  3  9  1  0  0  0  0
  3 26  1  0  0  0  0
  4  6  1  0  0  0  0
  4 10  2  0  0  0  0
  4 27  1  0  0  0  0
  5  7  1  0  0  0  0
  5 11  2  0  0  0  0
  5 28  1  0  0  0  0
  6 12  2  0  0  0  0
  6 29  1  0  0  0  0
  7 13  2  0  0  0  0
  7 30  1  0  0  0  0
  8 14  1  0  0  0  0
  8 31  1  0  0  0  0
  9 14  2  0  0  0  0
  9 32  1  0  0  0  0
 10 15  1  0  0  0  0
 10 33  1  0  0  0  0
 11 16  1  0  0  0  0
 11 34  1  0  0  0  0
 12 17  1  0  0  0  0
 12 35  1  0  0  0  0
 13 18  1  0  0  0  0
 13 36  1  0  0  0  0
 15 17  2  0  0  0  0
 15 20  1  0  0  0  0
 16 18  2  0  0  0  0
 16 20  1  0  0  0  0
 17 21  1  0  0  0  0
 18 23  1  0  0  0  0
 19 20  1  0  0  0  0
 19 21  1  0  0  0  0
 19 22  2  0  0  0  0
 20 14  1  6  0  0  0
 21 37  1  0  0  0  0
 23 38  1  0  0  0  0
M  END
>  <Chemgauss4 Score>
-4.95680093765259

>  <Number of Confs>
2

$$$$
