CHR-SOS-54d-1
 OpenBabel03242009303D

 48 50  0  0  1  0  0  0  0  0999 V2000
    8.3061   -1.9140   22.6996 C   0  0  0  0  0  0  0  0  0  0  0  0
    9.4820   -1.7163   22.8417 C   0  0  0  0  0  0  0  0  0  0  0  0
    7.6255   -3.9529   28.2021 C   0  0  0  0  0  0  0  0  0  0  0  0
    8.5233   -3.4238   27.2817 C   0  0  0  0  0  0  0  0  0  0  0  0
    7.3942   -5.3187   28.1711 C   0  0  0  0  0  0  0  0  0  0  0  0
    8.8542   -5.6166   26.4224 C   0  0  0  0  0  0  0  0  0  0  0  0
    9.1536   -4.2648   26.3713 C   0  0  0  0  0  0  0  0  0  0  0  0
   10.4699   -2.4327   25.2520 C   0  0  0  0  0  0  0  0  0  0  0  0
   13.3731    0.0742   22.0780 C   0  0  0  0  0  0  0  0  0  0  0  0
   13.2006   -1.3984   21.7236 C   0  0  0  0  0  0  0  0  0  0  0  0
   12.6935    0.4180   23.3986 C   0  0  0  0  0  0  0  0  0  0  0  0
   11.7262   -1.8084   21.7121 C   0  0  0  0  0  0  0  0  0  0  0  0
   11.2165    0.0175   23.3954 C   0  0  0  0  0  0  0  0  0  0  0  0
    6.4505   -3.5169   23.0706 C   0  0  0  0  0  0  0  0  0  0  0  0
    5.3768   -3.9678   22.1014 C   0  0  0  0  0  0  0  0  0  0  0  0
    6.4542   -2.1831   21.0530 C   0  0  0  0  0  0  0  0  0  0  0  0
    6.8693   -2.1557   22.5260 C   0  0  2  0  0  0  0  0  0  0  0  0
   10.9884   -1.4638   23.0240 C   0  0  0  0  0  0  0  0  0  0  0  0
   11.4694   -2.3390   24.1189 C   0  0  0  0  0  0  0  0  0  0  0  0
    7.9876   -6.1672   27.3019 N   0  0  0  0  0  0  0  0  0  0  0  0
    5.8807   -3.5146   20.8022 N   0  0  0  0  0  0  0  0  0  0  0  0
   10.0720   -3.7556   25.4225 N   0  0  0  0  0  0  0  0  0  0  0  0
   10.1002   -1.4543   25.8928 O   0  0  0  0  0  0  0  0  0  0  0  0
    7.1226   -3.3162   28.9210 H   0  0  0  0  0  0  0  0  0  0  0  0
    8.7244   -2.3558   27.2826 H   0  0  0  0  0  0  0  0  0  0  0  0
    6.7021   -5.7803   28.8676 H   0  0  0  0  0  0  0  0  0  0  0  0
    9.3144   -6.3230   25.7379 H   0  0  0  0  0  0  0  0  0  0  0  0
   14.4424    0.3105   22.1454 H   0  0  0  0  0  0  0  0  0  0  0  0
   12.9594    0.6972   21.2771 H   0  0  0  0  0  0  0  0  0  0  0  0
   13.6509   -1.5960   20.7431 H   0  0  0  0  0  0  0  0  0  0  0  0
   13.7450   -2.0145   22.4486 H   0  0  0  0  0  0  0  0  0  0  0  0
   13.2089   -0.0950   24.2187 H   0  0  0  0  0  0  0  0  0  0  0  0
   12.7884    1.4934   23.5920 H   0  0  0  0  0  0  0  0  0  0  0  0
   11.2319   -1.3326   20.8548 H   0  0  0  0  0  0  0  0  0  0  0  0
   11.6743   -2.8918   21.5386 H   0  0  0  0  0  0  0  0  0  0  0  0
   10.8086    0.2089   24.3971 H   0  0  0  0  0  0  0  0  0  0  0  0
   10.6712    0.6764   22.7069 H   0  0  0  0  0  0  0  0  0  0  0  0
    6.0268   -3.3960   24.0697 H   0  0  0  0  0  0  0  0  0  0  0  0
    7.2639   -4.2393   23.1286 H   0  0  0  0  0  0  0  0  0  0  0  0
    5.2857   -5.0560   22.1088 H   0  0  0  0  0  0  0  0  0  0  0  0
    4.4059   -3.5301   22.3278 H   0  0  0  0  0  0  0  0  0  0  0  0
    5.7196   -1.3937   20.8238 H   0  0  0  0  0  0  0  0  0  0  0  0
    7.3167   -2.0200   20.3819 H   0  0  0  0  0  0  0  0  0  0  0  0
    6.3027   -1.3767   23.0541 H   0  0  0  0  0  0  0  0  0  0  0  0
   12.4079   -1.9348   24.4970 H   0  0  0  0  0  0  0  0  0  0  0  0
   11.6497   -3.3336   23.7123 H   0  0  0  0  0  0  0  0  0  0  0  0
    6.5989   -4.1529   20.4507 H   0  0  0  0  0  0  0  0  0  0  0  0
   10.4818   -4.4480   24.7989 H   0  0  0  0  0  0  0  0  0  0  0  0
  1  2  3  0  0  0  0
  1 17  1  0  0  0  0
  2 18  1  0  0  0  0
  3  4  2  0  0  0  0
  3  5  1  0  0  0  0
  3 24  1  0  0  0  0
  4  7  1  0  0  0  0
  4 25  1  0  0  0  0
  5 20  2  0  0  0  0
  5 26  1  0  0  0  0
  6  7  2  0  0  0  0
  6 20  1  0  0  0  0
  6 27  1  0  0  0  0
  7 22  1  0  0  0  0
  8 19  1  0  0  0  0
  8 22  1  0  0  0  0
  8 23  2  0  0  0  0
  9 10  1  0  0  0  0
  9 11  1  0  0  0  0
  9 28  1  0  0  0  0
  9 29  1  0  0  0  0
 10 12  1  0  0  0  0
 10 30  1  0  0  0  0
 10 31  1  0  0  0  0
 11 13  1  0  0  0  0
 11 32  1  0  0  0  0
 11 33  1  0  0  0  0
 12 18  1  0  0  0  0
 12 34  1  0  0  0  0
 12 35  1  0  0  0  0
 13 18  1  0  0  0  0
 13 36  1  0  0  0  0
 13 37  1  0  0  0  0
 14 15  1  0  0  0  0
 14 17  1  0  0  0  0
 14 38  1  0  0  0  0
 14 39  1  0  0  0  0
 15 21  1  0  0  0  0
 15 40  1  0  0  0  0
 15 41  1  0  0  0  0
 16 17  1  0  0  0  0
 16 21  1  0  0  0  0
 16 42  1  0  0  0  0
 16 43  1  0  0  0  0
 17 44  1  1  0  0  0
 18 19  1  0  0  0  0
 19 45  1  0  0  0  0
 19 46  1  0  0  0  0
 21 47  1  0  0  0  0
 22 48  1  0  0  0  0
M  END
>  <Chemgauss4 Score>
-5.8364725112915

>  <Number of Confs>
148

$$$$
