NAU-LAT-ec9-1
 OpenBabel03242009303D

 35 37  0  0  0  0  0  0  0  0999 V2000
   14.2272    0.1339   21.6852 C   0  0  0  0  0  0  0  0  0  0  0  0
   13.1089    0.7961   22.1915 C   0  0  0  0  0  0  0  0  0  0  0  0
   14.2331   -1.2582   21.5974 C   0  0  0  0  0  0  0  0  0  0  0  0
   11.9964    0.0663   22.6102 C   0  0  0  0  0  0  0  0  0  0  0  0
   13.1206   -1.9881   22.0161 C   0  0  0  0  0  0  0  0  0  0  0  0
    9.4488   -5.4934   26.0379 C   0  0  0  0  0  0  0  0  0  0  0  0
   10.4361   -4.6732   25.4914 C   0  0  0  0  0  0  0  0  0  0  0  0
    7.8095   -4.5303   24.5423 C   0  0  0  0  0  0  0  0  0  0  0  0
   12.0022   -1.3259   22.5225 C   0  0  0  0  0  0  0  0  0  0  0  0
    8.8010   -3.7104   23.9978 C   0  0  0  0  0  0  0  0  0  0  0  0
    8.1382   -5.4219   25.5642 C   0  0  0  0  0  0  0  0  0  0  0  0
   10.1097   -3.7806   24.4699 C   0  0  0  0  0  0  0  0  0  0  0  0
   10.8272   -2.0975   22.9648 C   0  0  0  0  0  0  0  0  0  0  0  0
    8.4842   -2.7624   22.9186 C   0  0  0  0  0  0  0  0  0  0  0  0
    9.6093   -1.9380   22.4155 C   0  0  0  0  0  0  0  0  0  0  0  0
    5.7962   -6.3132   25.7758 C   0  0  0  0  0  0  0  0  0  0  0  0
    5.0631   -7.3328   26.6109 C   0  0  0  0  0  0  0  0  0  0  0  0
    7.1535   -6.2424   26.1159 N   0  0  0  0  0  0  0  0  0  0  0  0
    7.3544   -2.6602   22.4595 O   0  0  0  0  0  0  0  0  0  0  0  0
    5.2074   -5.6638   24.9175 O   0  0  0  0  0  0  0  0  0  0  0  0
   11.1223   -3.0013   23.9731 O   0  0  0  0  0  0  0  0  0  0  0  0
    9.3563   -1.0523   21.3904 O   0  0  0  0  0  0  0  0  0  0  0  0
   15.0929    0.7022   21.3580 H   0  0  0  0  0  0  0  0  0  0  0  0
   13.1037    1.8802   22.2589 H   0  0  0  0  0  0  0  0  0  0  0  0
   15.1033   -1.7739   21.2021 H   0  0  0  0  0  0  0  0  0  0  0  0
   11.1321    0.5967   23.0028 H   0  0  0  0  0  0  0  0  0  0  0  0
   13.1403   -3.0727   21.9414 H   0  0  0  0  0  0  0  0  0  0  0  0
    9.7123   -6.1857   26.8335 H   0  0  0  0  0  0  0  0  0  0  0  0
   11.4539   -4.7340   25.8668 H   0  0  0  0  0  0  0  0  0  0  0  0
    6.7863   -4.4815   24.1776 H   0  0  0  0  0  0  0  0  0  0  0  0
    4.6702   -6.8579   27.5144 H   0  0  0  0  0  0  0  0  0  0  0  0
    5.7477   -8.1348   26.9012 H   0  0  0  0  0  0  0  0  0  0  0  0
    4.2384   -7.7634   26.0353 H   0  0  0  0  0  0  0  0  0  0  0  0
    7.4556   -6.8761   26.8647 H   0  0  0  0  0  0  0  0  0  0  0  0
    8.4261   -1.0923   21.1438 H   0  0  0  0  0  0  0  0  0  0  0  0
  1  2  1  0  0  0  0
  1  3  2  0  0  0  0
  1 23  1  0  0  0  0
  2  4  2  0  0  0  0
  2 24  1  0  0  0  0
  3  5  1  0  0  0  0
  3 25  1  0  0  0  0
  4  9  1  0  0  0  0
  4 26  1  0  0  0  0
  5  9  2  0  0  0  0
  5 27  1  0  0  0  0
  6  7  2  0  0  0  0
  6 11  1  0  0  0  0
  6 28  1  0  0  0  0
  7 12  1  0  0  0  0
  7 29  1  0  0  0  0
  8 10  1  0  0  0  0
  8 11  2  0  0  0  0
  8 30  1  0  0  0  0
  9 13  1  0  0  0  0
 10 12  2  0  0  0  0
 10 14  1  0  0  0  0
 11 18  1  0  0  0  0
 12 21  1  0  0  0  0
 13 15  2  0  0  0  0
 13 21  1  0  0  0  0
 14 15  1  0  0  0  0
 14 19  2  0  0  0  0
 15 22  1  0  0  0  0
 16 17  1  0  0  0  0
 16 18  1  0  0  0  0
 16 20  2  0  0  0  0
 17 31  1  0  0  0  0
 17 32  1  0  0  0  0
 17 33  1  0  0  0  0
 18 34  1  0  0  0  0
 22 35  1  0  0  0  0
M  END
>  <Chemgauss4 Score>
-6.30421304702759

>  <Number of Confs>
4

$$$$
