TRY-UNI-714-13
 OpenBabel03242009303D

 42 43  0  0  1  0  0  0  0  0999 V2000
   12.2863    0.2902   23.5028 C   0  0  0  0  0  0  0  0  0  0  0  0
   10.8198   -0.7369   24.9425 C   0  0  0  0  0  0  0  0  0  0  0  0
   11.8388   -2.0292   23.2256 C   0  0  0  0  0  0  0  0  0  0  0  0
   12.5107   -0.8864   22.8063 C   0  0  0  0  0  0  0  0  0  0  0  0
   10.9753   -1.9615   24.3133 C   0  0  0  0  0  0  0  0  0  0  0  0
    9.3813   -3.1615   25.8511 C   0  0  0  0  0  0  0  0  0  0  0  0
    5.4061   -3.7552   23.4454 C   0  0  0  0  0  0  0  0  0  0  0  0
    5.1566   -3.9348   24.9396 C   0  0  0  0  0  0  0  0  0  0  0  0
    6.4834   -4.7086   22.9379 C   0  0  0  0  0  0  0  0  0  0  0  0
    6.4464   -3.8023   25.7461 C   0  0  0  0  0  0  0  0  0  0  0  0
    7.7755   -4.5776   23.7411 C   0  0  0  0  0  0  0  0  0  0  0  0
    7.5299   -4.7664   25.2442 C   0  0  0  0  0  0  0  0  0  0  0  0
   12.0436   -3.3271   22.5092 C   0  0  0  0  0  0  0  0  0  0  0  0
    9.8663   -5.6082   25.5954 C   0  0  0  0  0  0  0  0  0  0  0  0
    8.8259   -4.5778   26.0304 C   0  0  1  0  0  0  0  0  0  0  0  0
   11.4552    0.3948   24.5639 N   0  0  0  0  0  0  0  0  0  0  0  0
   13.3942   -0.9045   21.7122 N   0  0  0  0  0  0  0  0  0  0  0  0
   10.2684   -3.0952   24.7805 N   0  0  0  0  0  0  0  0  0  0  0  0
    9.0417   -2.2399   26.5878 O   0  0  0  0  0  0  0  0  0  0  0  0
   12.7817    1.2153   23.2232 H   0  0  0  0  0  0  0  0  0  0  0  0
   10.1602   -0.6206   25.7973 H   0  0  0  0  0  0  0  0  0  0  0  0
    4.4747   -3.9239   22.8932 H   0  0  0  0  0  0  0  0  0  0  0  0
    5.7130   -2.7206   23.2488 H   0  0  0  0  0  0  0  0  0  0  0  0
    4.4288   -3.1908   25.2830 H   0  0  0  0  0  0  0  0  0  0  0  0
    4.7134   -4.9219   25.1200 H   0  0  0  0  0  0  0  0  0  0  0  0
    6.1174   -5.7408   23.0018 H   0  0  0  0  0  0  0  0  0  0  0  0
    6.6848   -4.5065   21.8798 H   0  0  0  0  0  0  0  0  0  0  0  0
    6.8075   -2.7678   25.6802 H   0  0  0  0  0  0  0  0  0  0  0  0
    6.2333   -3.9967   26.8040 H   0  0  0  0  0  0  0  0  0  0  0  0
    8.5001   -5.3193   23.3841 H   0  0  0  0  0  0  0  0  0  0  0  0
    8.2158   -3.5894   23.5559 H   0  0  0  0  0  0  0  0  0  0  0  0
    7.1812   -5.7944   25.4104 H   0  0  0  0  0  0  0  0  0  0  0  0
   12.8740   -3.8798   22.9609 H   0  0  0  0  0  0  0  0  0  0  0  0
   11.1416   -3.9478   22.5542 H   0  0  0  0  0  0  0  0  0  0  0  0
   12.2667   -3.1602   21.4492 H   0  0  0  0  0  0  0  0  0  0  0  0
   10.1138   -5.4898   24.5353 H   0  0  0  0  0  0  0  0  0  0  0  0
    9.5012   -6.6302   25.7404 H   0  0  0  0  0  0  0  0  0  0  0  0
   10.7900   -5.5054   26.1759 H   0  0  0  0  0  0  0  0  0  0  0  0
    8.6012   -4.7238   27.0946 H   0  0  0  0  0  0  0  0  0  0  0  0
   13.8229   -0.0501   21.4120 H   0  0  0  0  0  0  0  0  0  0  0  0
   13.5111   -1.7507   21.1886 H   0  0  0  0  0  0  0  0  0  0  0  0
   10.4273   -3.9637   24.2743 H   0  0  0  0  0  0  0  0  0  0  0  0
  1  4  2  0  0  0  0
  1 16  1  0  0  0  0
  1 20  1  0  0  0  0
  2  5  1  0  0  0  0
  2 16  2  0  0  0  0
  2 21  1  0  0  0  0
  3  4  1  0  0  0  0
  3  5  2  0  0  0  0
  3 13  1  0  0  0  0
  4 17  1  0  0  0  0
  5 18  1  0  0  0  0
  6 15  1  0  0  0  0
  6 18  1  0  0  0  0
  6 19  2  0  0  0  0
  7  8  1  0  0  0  0
  7  9  1  0  0  0  0
  7 22  1  0  0  0  0
  7 23  1  0  0  0  0
  8 10  1  0  0  0  0
  8 24  1  0  0  0  0
  8 25  1  0  0  0  0
  9 11  1  0  0  0  0
  9 26  1  0  0  0  0
  9 27  1  0  0  0  0
 10 12  1  0  0  0  0
 10 28  1  0  0  0  0
 10 29  1  0  0  0  0
 11 12  1  0  0  0  0
 11 30  1  0  0  0  0
 11 31  1  0  0  0  0
 12 15  1  0  0  0  0
 12 32  1  0  0  0  0
 13 33  1  0  0  0  0
 13 34  1  0  0  0  0
 13 35  1  0  0  0  0
 14 15  1  0  0  0  0
 14 36  1  0  0  0  0
 14 37  1  0  0  0  0
 14 38  1  0  0  0  0
 15 39  1  1  0  0  0
 17 40  1  0  0  0  0
 17 41  1  0  0  0  0
 18 42  1  0  0  0  0
M  END
>  <Chemgauss4 Score>
-4.98893976211548

>  <Number of Confs>
23

$$$$
