SAL-INS-1c7-11
 OpenBabel03242009303D

 41 43  0  0  1  0  0  0  0  0999 V2000
   13.8917   -0.2837   22.4640 C   0  0  0  0  0  0  0  0  0  0  0  0
   13.1572    0.4593   23.3882 C   0  0  0  0  0  0  0  0  0  0  0  0
   13.4668   -1.5618   22.1011 C   0  0  0  0  0  0  0  0  0  0  0  0
   11.9979   -0.0759   23.9497 C   0  0  0  0  0  0  0  0  0  0  0  0
   12.3075   -2.0970   22.6627 C   0  0  0  0  0  0  0  0  0  0  0  0
    6.6594   -1.6550   20.9152 C   0  0  0  0  0  0  0  0  0  0  0  0
    5.7085   -0.6944   20.4643 C   0  0  0  0  0  0  0  0  0  0  0  0
   11.5730   -1.3540   23.5870 C   0  0  0  0  0  0  0  0  0  0  0  0
    7.7348   -1.0642   21.5412 C   0  0  0  0  0  0  0  0  0  0  0  0
    6.0934    0.5942   20.7631 C   0  0  0  0  0  0  0  0  0  0  0  0
    9.0345   -4.9708   25.9643 C   0  0  0  0  0  0  0  0  0  0  0  0
    7.8215   -3.3940   24.5060 C   0  0  0  0  0  0  0  0  0  0  0  0
    7.8914   -1.8770   24.3305 C   0  0  0  0  0  0  0  0  0  0  0  0
   10.2938   -3.4781   24.3404 C   0  0  0  0  0  0  0  0  0  0  0  0
   10.3055   -1.9400   24.2008 C   0  0  2  0  0  0  0  0  0  0  0  0
    8.9388   -1.7224   22.1507 C   0  0  0  0  0  0  0  0  0  0  0  0
   10.1776   -5.0312   26.9460 C   0  0  0  0  0  0  0  0  0  0  0  0
    9.0759   -3.9451   25.0178 N   0  0  0  0  0  0  0  0  0  0  0  0
    9.0673   -1.4166   23.5766 N   0  0  0  0  0  0  0  0  0  0  0  0
    8.1308   -5.8073   26.0390 O   0  0  0  0  0  0  0  0  0  0  0  0
    7.5957    0.6421   21.5836 S   0  0  0  0  0  0  0  0  0  0  0  0
    9.7236   -4.0165   28.3105 Cl  0  0  0  0  0  0  0  0  0  0  0  0
    5.0889    2.1452   20.3241 Br  0  0  0  0  0  0  0  0  0  0  0  0
   14.7936    0.1337   22.0258 H   0  0  0  0  0  0  0  0  0  0  0  0
   13.4873    1.4549   23.6700 H   0  0  0  0  0  0  0  0  0  0  0  0
   14.0377   -2.1401   21.3808 H   0  0  0  0  0  0  0  0  0  0  0  0
   11.4321    0.5102   24.6692 H   0  0  0  0  0  0  0  0  0  0  0  0
   11.9841   -3.0936   22.3742 H   0  0  0  0  0  0  0  0  0  0  0  0
    6.5558   -2.7247   20.7848 H   0  0  0  0  0  0  0  0  0  0  0  0
    4.7909   -0.9465   19.9475 H   0  0  0  0  0  0  0  0  0  0  0  0
    6.9925   -3.6452   25.1762 H   0  0  0  0  0  0  0  0  0  0  0  0
    7.6191   -3.8908   23.5500 H   0  0  0  0  0  0  0  0  0  0  0  0
    6.9701   -1.5161   23.8568 H   0  0  0  0  0  0  0  0  0  0  0  0
    7.9104   -1.4061   25.3223 H   0  0  0  0  0  0  0  0  0  0  0  0
   10.3292   -3.9743   23.3625 H   0  0  0  0  0  0  0  0  0  0  0  0
   11.1893   -3.7965   24.8807 H   0  0  0  0  0  0  0  0  0  0  0  0
   10.3092   -1.5150   25.2458 H   0  0  0  0  0  0  0  0  0  0  0  0
    8.8795   -2.8110   22.0431 H   0  0  0  0  0  0  0  0  0  0  0  0
    9.8586   -1.3961   21.6541 H   0  0  0  0  0  0  0  0  0  0  0  0
   11.0696   -4.6391   26.4710 H   0  0  0  0  0  0  0  0  0  0  0  0
   10.3072   -6.0569   27.2713 H   0  0  0  0  0  0  0  0  0  0  0  0
  1  2  1  0  0  0  0
  1  3  2  0  0  0  0
  1 24  1  0  0  0  0
  2  4  2  0  0  0  0
  2 25  1  0  0  0  0
  3  5  1  0  0  0  0
  3 26  1  0  0  0  0
  4  8  1  0  0  0  0
  4 27  1  0  0  0  0
  5  8  2  0  0  0  0
  5 28  1  0  0  0  0
  6  7  1  0  0  0  0
  6  9  2  0  0  0  0
  6 29  1  0  0  0  0
  7 10  2  0  0  0  0
  7 30  1  0  0  0  0
  8 15  1  0  0  0  0
  9 16  1  0  0  0  0
  9 21  1  0  0  0  0
 10 21  1  0  0  0  0
 10 23  1  0  0  0  0
 11 17  1  0  0  0  0
 11 18  1  0  0  0  0
 11 20  2  0  0  0  0
 12 13  1  0  0  0  0
 12 18  1  0  0  0  0
 12 31  1  0  0  0  0
 12 32  1  0  0  0  0
 13 19  1  0  0  0  0
 13 33  1  0  0  0  0
 13 34  1  0  0  0  0
 14 15  1  0  0  0  0
 14 18  1  0  0  0  0
 14 35  1  0  0  0  0
 14 36  1  0  0  0  0
 15 19  1  0  0  0  0
 15 37  1  1  0  0  0
 16 19  1  0  0  0  0
 16 38  1  0  0  0  0
 16 39  1  0  0  0  0
 17 22  1  0  0  0  0
 17 40  1  0  0  0  0
 17 41  1  0  0  0  0
M  END
>  <Chemgauss4 Score>
-5.59847068786621

>  <Number of Confs>
72

$$$$
