DAR-DIA-033-12
 OpenBabel03242009303D

 59 62  0  0  0  0  0  0  0  0999 V2000
    6.8287   -4.9301   23.9294 C   0  0  0  0  0  0  0  0  0  0  0  0
    6.8191   -6.0490   24.7514 C   0  0  0  0  0  0  0  0  0  0  0  0
   10.3041   -4.1600   26.7896 C   0  0  0  0  0  0  0  0  0  0  0  0
    8.7040   -4.1430   25.1965 C   0  0  0  0  0  0  0  0  0  0  0  0
    9.7988   -3.4213   25.7415 C   0  0  0  0  0  0  0  0  0  0  0  0
    7.7908   -3.9458   24.1482 C   0  0  0  0  0  0  0  0  0  0  0  0
    8.5801   -5.3115   25.9425 C   0  0  0  0  0  0  0  0  0  0  0  0
   11.1331   -2.2179   24.0099 C   0  0  0  0  0  0  0  0  0  0  0  0
    6.9851   -2.4740   22.2599 C   0  0  0  0  0  0  0  0  0  0  0  0
    5.7625    1.7470   19.0760 C   0  0  0  0  0  0  0  0  0  0  0  0
    4.7853    0.9310   19.9175 C   0  0  0  0  0  0  0  0  0  0  0  0
    6.9283    0.8950   18.5823 C   0  0  0  0  0  0  0  0  0  0  0  0
    5.4911    0.2227   21.0725 C   0  0  0  0  0  0  0  0  0  0  0  0
    7.6370    0.1872   19.7359 C   0  0  0  0  0  0  0  0  0  0  0  0
   11.5858    0.2791   24.1382 C   0  0  0  0  0  0  0  0  0  0  0  0
   12.6110   -1.0993   22.3738 C   0  0  0  0  0  0  0  0  0  0  0  0
   11.2888    1.3529   23.0898 C   0  0  0  0  0  0  0  0  0  0  0  0
   12.2892   -0.0029   21.3589 C   0  0  0  0  0  0  0  0  0  0  0  0
    6.6540   -0.6406   20.5710 C   0  0  0  0  0  0  0  0  0  0  0  0
   12.0048    2.3670   21.0237 C   0  0  0  0  0  0  0  0  0  0  0  0
   10.3267   -2.0962   25.2782 C   0  0  0  0  0  0  0  0  0  0  0  0
    7.6722   -6.2913   25.7737 N   0  0  0  0  0  0  0  0  0  0  0  0
    9.5578   -5.3043   26.9022 N   0  0  0  0  0  0  0  0  0  0  0  0
   11.7046   -1.0445   23.5196 N   0  0  0  0  0  0  0  0  0  0  0  0
   12.2800    1.3179   22.0045 N   0  0  0  0  0  0  0  0  0  0  0  0
    7.8271   -2.8099   23.3398 N   0  0  0  0  0  0  0  0  0  0  0  0
    7.3508   -1.2430   21.7058 N   0  0  0  0  0  0  0  0  0  0  0  0
   11.2476   -3.3214   23.4705 O   0  0  0  0  0  0  0  0  0  0  0  0
    6.0487   -3.1485   21.8382 O   0  0  0  0  0  0  0  0  0  0  0  0
    6.0964   -4.8329   23.1335 H   0  0  0  0  0  0  0  0  0  0  0  0
    6.0763   -6.8267   24.5945 H   0  0  0  0  0  0  0  0  0  0  0  0
   11.1273   -3.9753   27.4661 H   0  0  0  0  0  0  0  0  0  0  0  0
    5.2364    2.1837   18.2198 H   0  0  0  0  0  0  0  0  0  0  0  0
    6.1490    2.5817   19.6738 H   0  0  0  0  0  0  0  0  0  0  0  0
    4.0015    1.5874   20.3120 H   0  0  0  0  0  0  0  0  0  0  0  0
    4.2895    0.1868   19.2821 H   0  0  0  0  0  0  0  0  0  0  0  0
    6.5583    0.1482   17.8689 H   0  0  0  0  0  0  0  0  0  0  0  0
    7.6433    1.5260   18.0424 H   0  0  0  0  0  0  0  0  0  0  0  0
    5.8606    0.9742   21.7823 H   0  0  0  0  0  0  0  0  0  0  0  0
    4.7648   -0.3988   21.6099 H   0  0  0  0  0  0  0  0  0  0  0  0
    8.4249   -0.4592   19.3307 H   0  0  0  0  0  0  0  0  0  0  0  0
    8.1285    0.9371   20.3693 H   0  0  0  0  0  0  0  0  0  0  0  0
   12.5405    0.4852   24.6380 H   0  0  0  0  0  0  0  0  0  0  0  0
   10.8086    0.3006   24.9046 H   0  0  0  0  0  0  0  0  0  0  0  0
   12.5621   -2.0790   21.8874 H   0  0  0  0  0  0  0  0  0  0  0  0
   13.6301   -0.9782   22.7616 H   0  0  0  0  0  0  0  0  0  0  0  0
   10.2721    1.2135   22.6989 H   0  0  0  0  0  0  0  0  0  0  0  0
   11.3171    2.3313   23.5845 H   0  0  0  0  0  0  0  0  0  0  0  0
   13.0560   -0.0260   20.5752 H   0  0  0  0  0  0  0  0  0  0  0  0
   11.3243   -0.2147   20.8791 H   0  0  0  0  0  0  0  0  0  0  0  0
    6.2719   -1.4674   19.9795 H   0  0  0  0  0  0  0  0  0  0  0  0
   12.7555    2.3251   20.2208 H   0  0  0  0  0  0  0  0  0  0  0  0
   11.0025    2.2157   20.5966 H   0  0  0  0  0  0  0  0  0  0  0  0
   12.0490    3.3498   21.5159 H   0  0  0  0  0  0  0  0  0  0  0  0
    9.5021   -1.4036   25.1007 H   0  0  0  0  0  0  0  0  0  0  0  0
   10.9562   -1.6408   26.0443 H   0  0  0  0  0  0  0  0  0  0  0  0
    9.7056   -6.0320   27.5877 H   0  0  0  0  0  0  0  0  0  0  0  0
    8.5565   -2.1193   23.5471 H   0  0  0  0  0  0  0  0  0  0  0  0
    8.1370   -0.7447   22.1108 H   0  0  0  0  0  0  0  0  0  0  0  0
  1  2  1  0  0  0  0
  1  6  2  0  0  0  0
  1 30  1  0  0  0  0
  2 22  2  0  0  0  0
  2 31  1  0  0  0  0
  3  5  2  0  0  0  0
  3 23  1  0  0  0  0
  3 32  1  0  0  0  0
  4  5  1  0  0  0  0
  4  6  1  0  0  0  0
  4  7  2  0  0  0  0
  5 21  1  0  0  0  0
  6 26  1  0  0  0  0
  7 22  1  0  0  0  0
  7 23  1  0  0  0  0
  8 21  1  0  0  0  0
  8 24  1  0  0  0  0
  8 28  2  0  0  0  0
  9 26  1  0  0  0  0
  9 27  1  0  0  0  0
  9 29  2  0  0  0  0
 10 11  1  0  0  0  0
 10 12  1  0  0  0  0
 10 33  1  0  0  0  0
 10 34  1  0  0  0  0
 11 13  1  0  0  0  0
 11 35  1  0  0  0  0
 11 36  1  0  0  0  0
 12 14  1  0  0  0  0
 12 37  1  0  0  0  0
 12 38  1  0  0  0  0
 13 19  1  0  0  0  0
 13 39  1  0  0  0  0
 13 40  1  0  0  0  0
 14 19  1  0  0  0  0
 14 41  1  0  0  0  0
 14 42  1  0  0  0  0
 15 17  1  0  0  0  0
 15 24  1  0  0  0  0
 15 43  1  0  0  0  0
 15 44  1  0  0  0  0
 16 18  1  0  0  0  0
 16 24  1  0  0  0  0
 16 45  1  0  0  0  0
 16 46  1  0  0  0  0
 17 25  1  0  0  0  0
 17 47  1  0  0  0  0
 17 48  1  0  0  0  0
 18 25  1  0  0  0  0
 18 49  1  0  0  0  0
 18 50  1  0  0  0  0
 19 27  1  0  0  0  0
 19 51  1  0  0  0  0
 20 25  1  0  0  0  0
 20 52  1  0  0  0  0
 20 53  1  0  0  0  0
 20 54  1  0  0  0  0
 21 55  1  0  0  0  0
 21 56  1  0  0  0  0
 23 57  1  0  0  0  0
 26 58  1  0  0  0  0
 27 59  1  0  0  0  0
M  END
>  <Chemgauss4 Score>
-5.14544582366943

>  <Number of Confs>
178

$$$$
