DAR-DIA-fc9-3
 OpenBabel03242009303D

 29 31  0  0  0  0  0  0  0  0999 V2000
    5.5241   -6.2974   26.4958 C   0  0  0  0  0  0  0  0  0  0  0  0
    6.7486   -6.7223   27.0112 C   0  0  0  0  0  0  0  0  0  0  0  0
    5.4795   -5.2439   25.5826 C   0  0  0  0  0  0  0  0  0  0  0  0
   12.3769   -0.3840   22.5175 C   0  0  0  0  0  0  0  0  0  0  0  0
    7.9285   -6.0936   26.6136 C   0  0  0  0  0  0  0  0  0  0  0  0
    6.6595   -4.6152   25.1850 C   0  0  0  0  0  0  0  0  0  0  0  0
   11.7939   -1.5791   22.9240 C   0  0  0  0  0  0  0  0  0  0  0  0
   12.2881    0.7040   23.3708 C   0  0  0  0  0  0  0  0  0  0  0  0
   11.1154   -0.5040   24.9340 C   0  0  0  0  0  0  0  0  0  0  0  0
    7.8840   -5.0400   25.7004 C   0  0  0  0  0  0  0  0  0  0  0  0
   11.1490   -1.6486   24.1539 C   0  0  0  0  0  0  0  0  0  0  0  0
   10.3249   -4.9568   25.2074 C   0  0  0  0  0  0  0  0  0  0  0  0
   11.1949   -4.0359   24.7901 C   0  0  0  0  0  0  0  0  0  0  0  0
    9.1530   -3.0193   24.9082 C   0  0  0  0  0  0  0  0  0  0  0  0
   11.6701    0.6748   24.5728 N   0  0  0  0  0  0  0  0  0  0  0  0
    9.0644   -4.4114   25.3028 N   0  0  0  0  0  0  0  0  0  0  0  0
   10.5573   -2.8285   24.5865 N   0  0  0  0  0  0  0  0  0  0  0  0
    8.2532   -2.1923   24.8571 O   0  0  0  0  0  0  0  0  0  0  0  0
    4.6052   -6.7872   26.8045 H   0  0  0  0  0  0  0  0  0  0  0  0
    6.7838   -7.5430   27.7215 H   0  0  0  0  0  0  0  0  0  0  0  0
    4.5259   -4.9139   25.1806 H   0  0  0  0  0  0  0  0  0  0  0  0
   12.8847   -0.3068   21.5629 H   0  0  0  0  0  0  0  0  0  0  0  0
    8.8771   -6.4334   27.0219 H   0  0  0  0  0  0  0  0  0  0  0  0
    6.6125   -3.7952   24.4726 H   0  0  0  0  0  0  0  0  0  0  0  0
   11.8479   -2.4493   22.2752 H   0  0  0  0  0  0  0  0  0  0  0  0
   12.7258    1.6591   23.0995 H   0  0  0  0  0  0  0  0  0  0  0  0
   10.6269   -0.4960   25.9039 H   0  0  0  0  0  0  0  0  0  0  0  0
   10.5117   -5.9908   25.4514 H   0  0  0  0  0  0  0  0  0  0  0  0
   12.2537   -4.1470   24.6160 H   0  0  0  0  0  0  0  0  0  0  0  0
  1  2  1  0  0  0  0
  1  3  2  0  0  0  0
  1 19  1  0  0  0  0
  2  5  2  0  0  0  0
  2 20  1  0  0  0  0
  3  6  1  0  0  0  0
  3 21  1  0  0  0  0
  4  7  2  0  0  0  0
  4  8  1  0  0  0  0
  4 22  1  0  0  0  0
  5 10  1  0  0  0  0
  5 23  1  0  0  0  0
  6 10  2  0  0  0  0
  6 24  1  0  0  0  0
  7 11  1  0  0  0  0
  7 25  1  0  0  0  0
  8 15  2  0  0  0  0
  8 26  1  0  0  0  0
  9 11  2  0  0  0  0
  9 15  1  0  0  0  0
  9 27  1  0  0  0  0
 10 16  1  0  0  0  0
 11 17  1  0  0  0  0
 12 13  2  0  0  0  0
 12 16  1  0  0  0  0
 12 28  1  0  0  0  0
 13 17  1  0  0  0  0
 13 29  1  0  0  0  0
 14 16  1  0  0  0  0
 14 17  1  0  0  0  0
 14 18  2  0  0  0  0
M  END
>  <Chemgauss4 Score>
-5.133376121521

>  <Number of Confs>
12

$$$$
