CHR-SOS-709-3
 OpenBabel03242009303D

 29 30  0  0  0  0  0  0  0  0999 V2000
    8.2203   -4.7960   25.6654 C   0  0  0  0  0  0  0  0  0  0  0  0
    7.1377   -4.4299   23.5367 C   0  0  0  0  0  0  0  0  0  0  0  0
    7.2052   -5.6807   26.0295 C   0  0  0  0  0  0  0  0  0  0  0  0
    6.1226   -5.3146   23.9008 C   0  0  0  0  0  0  0  0  0  0  0  0
   12.2710    0.2620   24.0953 C   0  0  0  0  0  0  0  0  0  0  0  0
   12.8564   -0.0529   22.8690 C   0  0  0  0  0  0  0  0  0  0  0  0
   11.7881   -2.2194   22.9154 C   0  0  0  0  0  0  0  0  0  0  0  0
   11.2027   -1.9044   24.1417 C   0  0  0  0  0  0  0  0  0  0  0  0
    8.1865   -4.1706   24.4190 C   0  0  0  0  0  0  0  0  0  0  0  0
    6.1564   -5.9400   25.1472 C   0  0  0  0  0  0  0  0  0  0  0  0
   11.4442   -0.6637   24.7317 C   0  0  0  0  0  0  0  0  0  0  0  0
   12.6149   -1.2936   22.2791 C   0  0  0  0  0  0  0  0  0  0  0  0
   10.3446   -2.8859   24.7908 C   0  0  0  0  0  0  0  0  0  0  0  0
    9.2182   -3.2714   24.0490 N   0  0  0  0  0  0  0  0  0  0  0  0
    5.1231   -6.8407   25.5178 N   0  3  0  0  0  0  0  0  0  0  0  0
    5.1724   -7.3928   26.6436 O   0  5  0  0  0  0  0  0  0  0  0  0
   10.5883   -3.3106   25.9276 O   0  0  0  0  0  0  0  0  0  0  0  0
    4.1889   -7.0603   24.7092 O   0  0  0  0  0  0  0  0  0  0  0  0
   10.8832   -0.3382   25.9304 O   0  0  0  0  0  0  0  0  0  0  0  0
   13.3356   -1.6813   20.7651 Cl  0  0  0  0  0  0  0  0  0  0  0  0
    9.0328   -4.6014   26.3609 H   0  0  0  0  0  0  0  0  0  0  0  0
    7.1012   -3.9481   22.5629 H   0  0  0  0  0  0  0  0  0  0  0  0
    7.2436   -6.1614   27.0040 H   0  0  0  0  0  0  0  0  0  0  0  0
    5.3109   -5.5078   23.2037 H   0  0  0  0  0  0  0  0  0  0  0  0
   12.4633    1.2300   24.5503 H   0  0  0  0  0  0  0  0  0  0  0  0
   13.4974    0.6788   22.3842 H   0  0  0  0  0  0  0  0  0  0  0  0
   11.5990   -3.1881   22.4575 H   0  0  0  0  0  0  0  0  0  0  0  0
    9.1303   -2.8517   23.1268 H   0  0  0  0  0  0  0  0  0  0  0  0
   10.3366   -1.0711   26.2540 H   0  0  0  0  0  0  0  0  0  0  0  0
  1  3  2  0  0  0  0
  1  9  1  0  0  0  0
  1 21  1  0  0  0  0
  2  4  1  0  0  0  0
  2  9  2  0  0  0  0
  2 22  1  0  0  0  0
  3 10  1  0  0  0  0
  3 23  1  0  0  0  0
  4 10  2  0  0  0  0
  4 24  1  0  0  0  0
  5  6  2  0  0  0  0
  5 11  1  0  0  0  0
  5 25  1  0  0  0  0
  6 12  1  0  0  0  0
  6 26  1  0  0  0  0
  7  8  1  0  0  0  0
  7 12  2  0  0  0  0
  7 27  1  0  0  0  0
  8 11  2  0  0  0  0
  8 13  1  0  0  0  0
  9 14  1  0  0  0  0
 10 15  1  0  0  0  0
 11 19  1  0  0  0  0
 12 20  1  0  0  0  0
 13 14  1  0  0  0  0
 13 17  2  0  0  0  0
 14 28  1  0  0  0  0
 15 16  1  0  0  0  0
 15 18  2  0  0  0  0
 19 29  1  0  0  0  0
M  CHG  2  15   1  16  -1
M  END
>  <Chemgauss4 Score>
-4.94704723358154

>  <Number of Confs>
5

$$$$
