ANT-DIA-045-3
 OpenBabel03242009303D

 34 36  0  0  1  0  0  0  0  0999 V2000
    8.4499   -1.7224   23.1757 C   0  0  0  0  0  0  0  0  0  0  0  0
    8.7169   -3.4507   28.0508 C   0  0  0  0  0  0  0  0  0  0  0  0
    9.0022   -5.1196   26.4415 C   0  0  0  0  0  0  0  0  0  0  0  0
    7.0849   -1.6786   23.3558 C   0  0  0  0  0  0  0  0  0  0  0  0
    8.2748   -0.2443   24.9609 C   0  0  0  0  0  0  0  0  0  0  0  0
    7.7465   -5.4912   28.2995 C   0  0  0  0  0  0  0  0  0  0  0  0
    9.1393   -0.8917   24.1056 C   0  0  0  0  0  0  0  0  0  0  0  0
    9.2790   -3.8306   26.8491 C   0  0  0  0  0  0  0  0  0  0  0  0
   10.7031   -3.2185   24.8688 C   0  0  0  0  0  0  0  0  0  0  0  0
   12.4860   -0.9068   22.5428 C   0  0  0  0  0  0  0  0  0  0  0  0
   11.2173   -0.1218   22.8483 C   0  0  0  0  0  0  0  0  0  0  0  0
   12.1802   -2.3005   23.0615 C   0  0  0  0  0  0  0  0  0  0  0  0
   10.6467   -0.7388   24.1465 C   0  0  2  0  0  0  0  0  0  0  0  0
   11.4717   -2.0281   24.3843 C   0  0  1  0  0  0  0  0  0  0  0  0
    7.9426   -4.2584   28.8047 N   0  0  0  0  0  0  0  0  0  0  0  0
    8.2372   -5.9802   27.1446 N   0  0  0  0  0  0  0  0  0  0  0  0
   10.0865   -2.9548   26.0853 N   0  0  0  0  0  0  0  0  0  0  0  0
   10.6706   -4.2547   24.2129 O   0  0  0  0  0  0  0  0  0  0  0  0
    6.6394   -0.6390   24.6415 S   0  0  0  0  0  0  0  0  0  0  0  0
    8.9270   -2.3230   22.4116 H   0  0  0  0  0  0  0  0  0  0  0  0
    8.8727   -2.4574   28.4603 H   0  0  0  0  0  0  0  0  0  0  0  0
    9.3970   -5.5163   25.5112 H   0  0  0  0  0  0  0  0  0  0  0  0
    6.3278   -2.2067   22.7935 H   0  0  0  0  0  0  0  0  0  0  0  0
    8.5211    0.4431   25.7583 H   0  0  0  0  0  0  0  0  0  0  0  0
    7.1316   -6.1624   28.8863 H   0  0  0  0  0  0  0  0  0  0  0  0
   12.7212   -0.8990   21.4820 H   0  0  0  0  0  0  0  0  0  0  0  0
   13.3275   -0.4811   23.0883 H   0  0  0  0  0  0  0  0  0  0  0  0
   11.4198    0.9559   22.9636 H   0  0  0  0  0  0  0  0  0  0  0  0
   10.4974   -0.2175   22.0162 H   0  0  0  0  0  0  0  0  0  0  0  0
   11.5690   -2.8573   22.3612 H   0  0  0  0  0  0  0  0  0  0  0  0
   13.1053   -2.8427   23.2270 H   0  0  0  0  0  0  0  0  0  0  0  0
   10.8565   -0.0253   24.9811 H   0  0  0  0  0  0  0  0  0  0  0  0
   12.2454   -1.8228   25.1877 H   0  0  0  0  0  0  0  0  0  0  0  0
   10.2227   -2.0282   26.4840 H   0  0  0  0  0  0  0  0  0  0  0  0
  1  4  2  0  0  0  0
  1  7  1  0  0  0  0
  1 20  1  0  0  0  0
  2  8  1  0  0  0  0
  2 15  2  0  0  0  0
  2 21  1  0  0  0  0
  3  8  2  0  0  0  0
  3 16  1  0  0  0  0
  3 22  1  0  0  0  0
  4 19  1  0  0  0  0
  4 23  1  0  0  0  0
  5  7  2  0  0  0  0
  5 19  1  0  0  0  0
  5 24  1  0  0  0  0
  6 15  1  0  0  0  0
  6 16  2  0  0  0  0
  6 25  1  0  0  0  0
  7 13  1  0  0  0  0
  8 17  1  0  0  0  0
  9 14  1  0  0  0  0
  9 17  1  0  0  0  0
  9 18  2  0  0  0  0
 10 11  1  0  0  0  0
 10 12  1  0  0  0  0
 10 26  1  0  0  0  0
 10 27  1  0  0  0  0
 11 13  1  0  0  0  0
 11 28  1  0  0  0  0
 11 29  1  0  0  0  0
 12 14  1  0  0  0  0
 12 30  1  0  0  0  0
 12 31  1  0  0  0  0
 13 14  1  0  0  0  0
 13 32  1  1  0  0  0
 14 33  1  1  0  0  0
 17 34  1  0  0  0  0
M  END
>  <Chemgauss4 Score>
-6.6090259552002

>  <Number of Confs>
24

$$$$
