TRY-UNI-714-18
 OpenBabel03242009303D

 34 35  0  0  1  0  0  0  0  0999 V2000
    6.0053   -5.8121   26.7157 C   0  0  0  0  0  0  0  0  0  0  0  0
    7.2649   -5.3943   27.1452 C   0  0  0  0  0  0  0  0  0  0  0  0
    5.7259   -5.8960   25.3517 C   0  0  0  0  0  0  0  0  0  0  0  0
   11.9269   -1.0386   22.2643 C   0  0  0  0  0  0  0  0  0  0  0  0
    7.9657   -5.1440   24.8467 C   0  0  0  0  0  0  0  0  0  0  0  0
   11.7440    0.1932   22.8716 C   0  0  0  0  0  0  0  0  0  0  0  0
   10.8017   -0.7650   24.7349 C   0  0  0  0  0  0  0  0  0  0  0  0
    8.2451   -5.0602   26.2107 C   0  0  0  0  0  0  0  0  0  0  0  0
   11.5146   -2.1725   22.9554 C   0  0  0  0  0  0  0  0  0  0  0  0
   10.9403   -2.0418   24.2149 C   0  0  0  0  0  0  0  0  0  0  0  0
    6.7061   -5.5619   24.4172 C   0  0  0  0  0  0  0  0  0  0  0  0
    9.9147   -3.1727   26.2190 C   0  0  0  0  0  0  0  0  0  0  0  0
   11.6992   -3.5134   22.3240 C   0  0  0  0  0  0  0  0  0  0  0  0
   10.7094   -5.5659   26.2079 C   0  0  0  0  0  0  0  0  0  0  0  0
    9.5913   -4.6123   26.6708 C   0  0  2  0  0  0  0  0  0  0  0  0
   11.1901    0.3599   24.0934 N   0  0  0  0  0  0  0  0  0  0  0  0
   10.5053   -3.1649   24.9577 N   0  0  0  0  0  0  0  0  0  0  0  0
    9.6408   -2.1986   26.9142 O   0  0  0  0  0  0  0  0  0  0  0  0
    6.3604   -5.6644   22.7344 Cl  0  0  0  0  0  0  0  0  0  0  0  0
    5.2423   -6.0720   27.4438 H   0  0  0  0  0  0  0  0  0  0  0  0
    7.4738   -5.3318   28.2100 H   0  0  0  0  0  0  0  0  0  0  0  0
    4.7397   -6.2229   25.0314 H   0  0  0  0  0  0  0  0  0  0  0  0
   12.3781   -1.1063   21.2802 H   0  0  0  0  0  0  0  0  0  0  0  0
    8.7335   -4.8829   24.1220 H   0  0  0  0  0  0  0  0  0  0  0  0
   12.0485    1.1082   22.3742 H   0  0  0  0  0  0  0  0  0  0  0  0
   10.3612   -0.5981   25.7135 H   0  0  0  0  0  0  0  0  0  0  0  0
   12.6764   -3.9295   22.5951 H   0  0  0  0  0  0  0  0  0  0  0  0
   10.9192   -4.2141   22.6464 H   0  0  0  0  0  0  0  0  0  0  0  0
   11.6379   -3.4484   21.2306 H   0  0  0  0  0  0  0  0  0  0  0  0
   10.7424   -5.6451   25.1154 H   0  0  0  0  0  0  0  0  0  0  0  0
   11.6966   -5.2255   26.5399 H   0  0  0  0  0  0  0  0  0  0  0  0
   10.5489   -6.5704   26.6152 H   0  0  0  0  0  0  0  0  0  0  0  0
    9.6420   -4.6023   27.7777 H   0  0  0  0  0  0  0  0  0  0  0  0
   10.6438   -4.0648   24.5029 H   0  0  0  0  0  0  0  0  0  0  0  0
  1  2  2  0  0  0  0
  1  3  1  0  0  0  0
  1 20  1  0  0  0  0
  2  8  1  0  0  0  0
  2 21  1  0  0  0  0
  3 11  2  0  0  0  0
  3 22  1  0  0  0  0
  4  6  2  0  0  0  0
  4  9  1  0  0  0  0
  4 23  1  0  0  0  0
  5  8  2  0  0  0  0
  5 11  1  0  0  0  0
  5 24  1  0  0  0  0
  6 16  1  0  0  0  0
  6 25  1  0  0  0  0
  7 10  1  0  0  0  0
  7 16  2  0  0  0  0
  7 26  1  0  0  0  0
  8 15  1  0  0  0  0
  9 10  2  0  0  0  0
  9 13  1  0  0  0  0
 10 17  1  0  0  0  0
 11 19  1  0  0  0  0
 12 15  1  0  0  0  0
 12 17  1  0  0  0  0
 12 18  2  0  0  0  0
 13 27  1  0  0  0  0
 13 28  1  0  0  0  0
 13 29  1  0  0  0  0
 14 15  1  0  0  0  0
 14 30  1  0  0  0  0
 14 31  1  0  0  0  0
 14 32  1  0  0  0  0
 15 33  1  1  0  0  0
 17 34  1  0  0  0  0
M  END
>  <Chemgauss4 Score>
-5.07466173171997

>  <Number of Confs>
41

$$$$
