CHR-SOS-1f3-9
 OpenBabel03242009303D

 46 48  0  0  0  0  0  0  0  0999 V2000
    8.0781   -2.2733   22.6861 C   0  0  0  0  0  0  0  0  0  0  0  0
    9.5806   -3.8463   21.6347 C   0  0  0  0  0  0  0  0  0  0  0  0
    7.1106   -3.2718   22.7974 C   0  0  0  0  0  0  0  0  0  0  0  0
    8.6130   -4.8448   21.7460 C   0  0  0  0  0  0  0  0  0  0  0  0
    7.8108   -4.3307   29.0103 C   0  0  0  0  0  0  0  0  0  0  0  0
    7.7990   -5.6189   28.5002 C   0  0  0  0  0  0  0  0  0  0  0  0
    8.8452   -4.9578   26.5646 C   0  0  0  0  0  0  0  0  0  0  0  0
    8.3766   -3.3274   28.2315 C   0  0  0  0  0  0  0  0  0  0  0  0
    8.9059   -3.6386   26.9839 C   0  0  0  0  0  0  0  0  0  0  0  0
    9.3131   -2.5605   22.1047 C   0  0  0  0  0  0  0  0  0  0  0  0
    7.3780   -4.5576   22.3274 C   0  0  0  0  0  0  0  0  0  0  0  0
   10.0577   -2.8248   24.8883 C   0  0  0  0  0  0  0  0  0  0  0  0
   13.1480   -1.1142   22.3483 C   0  0  0  0  0  0  0  0  0  0  0  0
   12.4542   -2.3290   22.9906 C   0  0  0  0  0  0  0  0  0  0  0  0
   12.1061   -0.2221   23.0471 C   0  0  0  0  0  0  0  0  0  0  0  0
   11.1674   -1.4623   23.1103 C   0  0  0  0  0  0  0  0  0  0  0  0
    8.4023   -1.9295   28.7566 C   0  0  0  0  0  0  0  0  0  0  0  0
    8.3034   -5.9595   27.2931 N   0  0  0  0  0  0  0  0  0  0  0  0
    6.5496   -6.4638   23.9962 N   0  0  0  0  0  0  0  0  0  0  0  0
    9.4922   -2.6539   26.1549 N   0  0  0  0  0  0  0  0  0  0  0  0
   10.5212   -1.6045   24.4170 N   0  0  0  0  0  0  0  0  0  0  0  0
   10.1462   -3.8780   24.2616 O   0  0  0  0  0  0  0  0  0  0  0  0
    4.8582   -5.1727   22.5409 O   0  0  0  0  0  0  0  0  0  0  0  0
    6.4240   -6.8159   21.4473 O   0  0  0  0  0  0  0  0  0  0  0  0
   10.2571   -1.5867   21.9965 O   0  0  0  0  0  0  0  0  0  0  0  0
    6.1665   -5.8076   22.4659 S   0  0  0  0  0  0  0  0  0  0  0  0
    7.8643   -1.2737   23.0547 H   0  0  0  0  0  0  0  0  0  0  0  0
   10.5407   -4.0760   21.1808 H   0  0  0  0  0  0  0  0  0  0  0  0
    6.1519   -3.0371   23.2519 H   0  0  0  0  0  0  0  0  0  0  0  0
    8.8316   -5.8430   21.3763 H   0  0  0  0  0  0  0  0  0  0  0  0
    7.3893   -4.1211   29.9875 H   0  0  0  0  0  0  0  0  0  0  0  0
    7.3691   -6.4372   29.0683 H   0  0  0  0  0  0  0  0  0  0  0  0
    9.2418   -5.2632   25.6008 H   0  0  0  0  0  0  0  0  0  0  0  0
   14.1876   -0.9499   22.6423 H   0  0  0  0  0  0  0  0  0  0  0  0
   13.0794   -1.0964   21.2546 H   0  0  0  0  0  0  0  0  0  0  0  0
   12.3783   -3.2082   22.3442 H   0  0  0  0  0  0  0  0  0  0  0  0
   12.8953   -2.6350   23.9468 H   0  0  0  0  0  0  0  0  0  0  0  0
   12.4328    0.1602   24.0216 H   0  0  0  0  0  0  0  0  0  0  0  0
   11.7456    0.6177   22.4460 H   0  0  0  0  0  0  0  0  0  0  0  0
    9.3238   -1.7536   29.3235 H   0  0  0  0  0  0  0  0  0  0  0  0
    8.3489   -1.1985   27.9404 H   0  0  0  0  0  0  0  0  0  0  0  0
    7.5451   -1.7374   29.4139 H   0  0  0  0  0  0  0  0  0  0  0  0
    5.9071   -6.2760   24.7756 H   0  0  0  0  0  0  0  0  0  0  0  0
    6.9779   -7.3970   24.0270 H   0  0  0  0  0  0  0  0  0  0  0  0
    9.5002   -1.7087   26.5301 H   0  0  0  0  0  0  0  0  0  0  0  0
   10.4093   -0.7880   24.9938 H   0  0  0  0  0  0  0  0  0  0  0  0
  1  3  2  0  0  0  0
  1 10  1  0  0  0  0
  1 27  1  0  0  0  0
  2  4  1  0  0  0  0
  2 10  2  0  0  0  0
  2 28  1  0  0  0  0
  3 11  1  0  0  0  0
  3 29  1  0  0  0  0
  4 11  2  0  0  0  0
  4 30  1  0  0  0  0
  5  6  2  0  0  0  0
  5  8  1  0  0  0  0
  5 31  1  0  0  0  0
  6 18  1  0  0  0  0
  6 32  1  0  0  0  0
  7  9  1  0  0  0  0
  7 18  2  0  0  0  0
  7 33  1  0  0  0  0
  8  9  2  0  0  0  0
  8 17  1  0  0  0  0
  9 20  1  0  0  0  0
 10 25  1  0  0  0  0
 11 26  1  0  0  0  0
 12 20  1  0  0  0  0
 12 21  1  0  0  0  0
 12 22  2  0  0  0  0
 13 14  1  0  0  0  0
 13 15  1  0  0  0  0
 13 34  1  0  0  0  0
 13 35  1  0  0  0  0
 14 16  1  0  0  0  0
 14 36  1  0  0  0  0
 14 37  1  0  0  0  0
 15 16  1  0  0  0  0
 15 38  1  0  0  0  0
 15 39  1  0  0  0  0
 16 21  1  0  0  0  0
 16 25  1  0  0  0  0
 17 40  1  0  0  0  0
 17 41  1  0  0  0  0
 17 42  1  0  0  0  0
 19 26  1  0  0  0  0
 19 43  1  0  0  0  0
 19 44  1  0  0  0  0
 20 45  1  0  0  0  0
 21 46  1  0  0  0  0
 23 26  2  0  0  0  0
 24 26  2  0  0  0  0
M  END
>  <Chemgauss4 Score>
-4.60027694702148

>  <Number of Confs>
65

$$$$
