JOH-MSK-a63-6
 OpenBabel03242009303D

 49 51  0  0  1  0  0  0  0  0999 V2000
   10.7840   -4.7355   25.9623 C   0  0  0  0  0  0  0  0  0  0  0  0
   11.0231   -3.7330   25.0179 C   0  0  0  0  0  0  0  0  0  0  0  0
    8.6410   -3.3881   24.6956 C   0  0  0  0  0  0  0  0  0  0  0  0
    7.5555   -5.9288   27.0886 C   0  0  0  0  0  0  0  0  0  0  0  0
    8.3754   -4.3954   25.6444 C   0  0  0  0  0  0  0  0  0  0  0  0
    7.1860   -4.9636   26.1805 C   0  0  0  0  0  0  0  0  0  0  0  0
    9.4508   -5.0446   26.2546 C   0  0  0  0  0  0  0  0  0  0  0  0
    9.9697   -3.0684   24.3932 C   0  0  0  0  0  0  0  0  0  0  0  0
    8.5313    1.7388   24.3267 C   0  0  0  0  0  0  0  0  0  0  0  0
    6.7814   -2.3054   28.0508 C   0  0  0  0  0  0  0  0  0  0  0  0
    9.2681    0.6574   23.5613 C   0  0  1  0  0  0  0  0  0  0  0  0
   10.0493    1.3461   22.4467 C   0  0  1  0  0  0  0  0  0  0  0  0
   10.9938    0.3562   21.7539 C   0  0  1  0  0  0  0  0  0  0  0  0
   11.8355   -0.4030   22.7835 C   0  0  2  0  0  0  0  0  0  0  0  0
   10.9839   -0.9682   23.9295 C   0  0  1  0  0  0  0  0  0  0  0  0
    7.3490   -0.9256   28.1008 C   0  0  0  0  0  0  0  0  0  0  0  0
    5.7997   -4.5914   25.8333 C   0  0  0  0  0  0  0  0  0  0  0  0
    5.0982   -3.7237   26.8941 C   0  0  0  0  0  0  0  0  0  0  0  0
    8.9234   -5.9702   27.1266 N   0  0  0  0  0  0  0  0  0  0  0  0
    5.7789   -2.4749   27.1094 N   0  0  0  0  0  0  0  0  0  0  0  0
    9.2617    2.6397   24.8246 O   0  5  0  0  0  0  0  0  0  0  0  0
    7.2769    1.5977   24.3673 O   0  0  0  0  0  0  0  0  0  0  0  0
    7.2161   -3.1653   28.8079 O   0  0  0  0  0  0  0  0  0  0  0  0
   10.1457    0.0416   24.4979 O   0  0  0  0  0  0  0  0  0  0  0  0
    9.1666    1.9198   21.4872 O   0  0  0  0  0  0  0  0  0  0  0  0
   10.2410   -0.5967   21.0037 O   0  0  0  0  0  0  0  0  0  0  0  0
   12.8244    0.4716   23.3228 O   0  0  0  0  0  0  0  0  0  0  0  0
   10.2355   -2.0900   23.4728 O   0  0  0  0  0  0  0  0  0  0  0  0
   11.6049   -5.2527   26.4477 H   0  0  0  0  0  0  0  0  0  0  0  0
   12.0502   -3.4740   24.7713 H   0  0  0  0  0  0  0  0  0  0  0  0
    7.8262   -2.8639   24.2036 H   0  0  0  0  0  0  0  0  0  0  0  0
    6.9691   -6.5902   27.7113 H   0  0  0  0  0  0  0  0  0  0  0  0
    8.5289   -0.0573   23.1830 H   0  0  0  0  0  0  0  0  0  0  0  0
   10.6564    2.1643   22.8711 H   0  0  0  0  0  0  0  0  0  0  0  0
   11.6342    0.8965   21.0460 H   0  0  0  0  0  0  0  0  0  0  0  0
   12.3592   -1.2363   22.2811 H   0  0  0  0  0  0  0  0  0  0  0  0
   11.6455   -1.3139   24.7331 H   0  0  0  0  0  0  0  0  0  0  0  0
    6.8119   -0.2755   28.8101 H   0  0  0  0  0  0  0  0  0  0  0  0
    8.3992   -0.9148   28.4339 H   0  0  0  0  0  0  0  0  0  0  0  0
    7.3429   -0.3785   27.1446 H   0  0  0  0  0  0  0  0  0  0  0  0
    5.1879   -5.5027   25.6820 H   0  0  0  0  0  0  0  0  0  0  0  0
    5.7558   -4.0635   24.8592 H   0  0  0  0  0  0  0  0  0  0  0  0
    4.0768   -3.4776   26.5871 H   0  0  0  0  0  0  0  0  0  0  0  0
    5.0496   -4.2436   27.8565 H   0  0  0  0  0  0  0  0  0  0  0  0
    9.4682   -6.5905   27.7095 H   0  0  0  0  0  0  0  0  0  0  0  0
    5.5099   -1.6738   26.5404 H   0  0  0  0  0  0  0  0  0  0  0  0
    8.6216    2.5658   21.9633 H   0  0  0  0  0  0  0  0  0  0  0  0
   10.8859   -1.1911   20.5917 H   0  0  0  0  0  0  0  0  0  0  0  0
   13.3693    0.7641   22.5763 H   0  0  0  0  0  0  0  0  0  0  0  0
  1  2  2  0  0  0  0
  1  7  1  0  0  0  0
  1 29  1  0  0  0  0
  2  8  1  0  0  0  0
  2 30  1  0  0  0  0
  3  5  1  0  0  0  0
  3  8  2  0  0  0  0
  3 31  1  0  0  0  0
  4  6  2  0  0  0  0
  4 19  1  0  0  0  0
  4 32  1  0  0  0  0
  5  6  1  0  0  0  0
  5  7  2  0  0  0  0
  6 17  1  0  0  0  0
  7 19  1  0  0  0  0
  8 28  1  0  0  0  0
  9 11  1  0  0  0  0
  9 21  1  0  0  0  0
  9 22  2  0  0  0  0
 10 16  1  0  0  0  0
 10 20  1  0  0  0  0
 10 23  2  0  0  0  0
 11 12  1  0  0  0  0
 11 24  1  0  0  0  0
 11 33  1  6  0  0  0
 12 13  1  0  0  0  0
 12 25  1  0  0  0  0
 12 34  1  1  0  0  0
 13 14  1  0  0  0  0
 13 26  1  0  0  0  0
 13 35  1  6  0  0  0
 14 15  1  0  0  0  0
 14 27  1  0  0  0  0
 14 36  1  6  0  0  0
 15 24  1  0  0  0  0
 15 28  1  0  0  0  0
 15 37  1  1  0  0  0
 16 38  1  0  0  0  0
 16 39  1  0  0  0  0
 16 40  1  0  0  0  0
 17 18  1  0  0  0  0
 17 41  1  0  0  0  0
 17 42  1  0  0  0  0
 18 20  1  0  0  0  0
 18 43  1  0  0  0  0
 18 44  1  0  0  0  0
 19 45  1  0  0  0  0
 20 46  1  0  0  0  0
 25 47  1  0  0  0  0
 26 48  1  0  0  0  0
 27 49  1  0  0  0  0
M  CHG  1  21  -1
M  END
>  <Chemgauss4 Score>
-4.61638259887695

>  <Number of Confs>
200

$$$$
