DUN-NEW-f8c-22
 OpenBabel03242009303D

 37 38  0  0  1  0  0  0  0  0999 V2000
   13.4557   -0.1720   22.9617 C   0  0  0  0  0  0  0  0  0  0  0  0
   12.6590    0.2374   24.0309 C   0  0  0  0  0  0  0  0  0  0  0  0
   13.1278   -1.3255   22.2491 C   0  0  0  0  0  0  0  0  0  0  0  0
   11.5344   -0.5066   24.3876 C   0  0  0  0  0  0  0  0  0  0  0  0
   12.0032   -2.0695   22.6058 C   0  0  0  0  0  0  0  0  0  0  0  0
   11.2064   -1.6601   23.6751 C   0  0  0  0  0  0  0  0  0  0  0  0
    8.7573   -5.4681   25.7107 C   0  0  0  0  0  0  0  0  0  0  0  0
    8.1602   -3.1037   26.3551 C   0  0  0  0  0  0  0  0  0  0  0  0
    8.5525   -1.6794   25.9883 C   0  0  0  0  0  0  0  0  0  0  0  0
   10.2517   -3.5834   25.1096 C   0  0  0  0  0  0  0  0  0  0  0  0
    9.9747   -2.4758   24.0655 C   0  0  1  0  0  0  0  0  0  0  0  0
    6.7467   -0.0133   24.1227 C   0  0  0  0  0  0  0  0  0  0  0  0
    7.4995   -5.8996   26.4253 C   0  0  0  0  0  0  0  0  0  0  0  0
    9.0201   -4.0977   25.7077 N   0  0  0  0  0  0  0  0  0  0  0  0
    8.8305   -1.5983   24.5298 N   0  0  0  0  0  0  0  0  0  0  0  0
    9.4718   -6.3153   25.1703 O   0  0  0  0  0  0  0  0  0  0  0  0
    6.5784   -2.6035   23.8228 O   0  0  0  0  0  0  0  0  0  0  0  0
    7.9227   -1.2650   22.1534 O   0  0  0  0  0  0  0  0  0  0  0  0
    7.4628   -1.5101   23.4991 S   0  0  0  0  0  0  0  0  0  0  0  0
    6.2015   -5.8449   25.2379 Cl  0  0  0  0  0  0  0  0  0  0  0  0
   14.3306    0.4082   22.6832 H   0  0  0  0  0  0  0  0  0  0  0  0
   12.9136    1.1361   24.5851 H   0  0  0  0  0  0  0  0  0  0  0  0
   13.7472   -1.6439   21.4159 H   0  0  0  0  0  0  0  0  0  0  0  0
   10.9195   -0.1802   25.2222 H   0  0  0  0  0  0  0  0  0  0  0  0
   11.7555   -2.9669   22.0450 H   0  0  0  0  0  0  0  0  0  0  0  0
    8.2498   -3.2615   27.4431 H   0  0  0  0  0  0  0  0  0  0  0  0
    7.1035   -3.2767   26.0977 H   0  0  0  0  0  0  0  0  0  0  0  0
    7.7530   -0.9815   26.2548 H   0  0  0  0  0  0  0  0  0  0  0  0
    9.4534   -1.4102   26.5465 H   0  0  0  0  0  0  0  0  0  0  0  0
   10.8455   -4.3834   24.6499 H   0  0  0  0  0  0  0  0  0  0  0  0
   10.8615   -3.1884   25.9385 H   0  0  0  0  0  0  0  0  0  0  0  0
    9.6119   -2.9676   23.1083 H   0  0  0  0  0  0  0  0  0  0  0  0
    5.8371    0.1949   23.5572 H   0  0  0  0  0  0  0  0  0  0  0  0
    6.5158   -0.1563   25.1794 H   0  0  0  0  0  0  0  0  0  0  0  0
    7.4698    0.7936   23.9948 H   0  0  0  0  0  0  0  0  0  0  0  0
    7.2965   -5.2032   27.2309 H   0  0  0  0  0  0  0  0  0  0  0  0
    7.6309   -6.9129   26.7870 H   0  0  0  0  0  0  0  0  0  0  0  0
  1  2  1  0  0  0  0
  1  3  2  0  0  0  0
  1 21  1  0  0  0  0
  2  4  2  0  0  0  0
  2 22  1  0  0  0  0
  3  5  1  0  0  0  0
  3 23  1  0  0  0  0
  4  6  1  0  0  0  0
  4 24  1  0  0  0  0
  5  6  2  0  0  0  0
  5 25  1  0  0  0  0
  6 11  1  0  0  0  0
  7 13  1  0  0  0  0
  7 14  1  0  0  0  0
  7 16  2  0  0  0  0
  8  9  1  0  0  0  0
  8 14  1  0  0  0  0
  8 26  1  0  0  0  0
  8 27  1  0  0  0  0
  9 15  1  0  0  0  0
  9 28  1  0  0  0  0
  9 29  1  0  0  0  0
 10 11  1  0  0  0  0
 10 14  1  0  0  0  0
 10 30  1  0  0  0  0
 10 31  1  0  0  0  0
 11 15  1  0  0  0  0
 11 32  1  6  0  0  0
 12 19  1  0  0  0  0
 12 33  1  0  0  0  0
 12 34  1  0  0  0  0
 12 35  1  0  0  0  0
 13 20  1  0  0  0  0
 13 36  1  0  0  0  0
 13 37  1  0  0  0  0
 15 19  1  0  0  0  0
 17 19  2  0  0  0  0
 18 19  2  0  0  0  0
M  END
>  <Chemgauss4 Score>
-5.1087212562561

>  <Number of Confs>
33

$$$$
